#------------------------------------------------------------------------------
#$Date: 2022-09-13 01:54:00 +0300 (Tue, 13 Sep 2022) $
#$Revision: 277780 $
#$URL: file:///home/coder/svn-repositories/cod/cif/7/71/12/7711224.cif $
#------------------------------------------------------------------------------
#
# This file is available in the Crystallography Open Database (COD),
# http://www.crystallography.net/
#
# All data on this site have been placed in the public domain by the
# contributors.
#
data_7711224
loop_
_publ_author_name
'Bruns, J\"orn'
'H\"oppe, Henning A.'
'H\"ammer, Matthias'
'Pasqualini, Leonard C.'
'Huppertz, Hubert'
'Sebastian, Sean'
_publ_section_title
;
 Cd[B2(SO4)4] and H2[B2(SO4)4] -- A phyllosilicate analogue borosulfate
 and its homeotypic heteropolyacid
;
_journal_name_full               'Dalton Transactions'
_journal_paper_doi               10.1039/D2DT02344J
_journal_year                    2022
_chemical_formula_moiety         'C2 H8 Ag N2 O4 Re'
_chemical_formula_sum            'C2 H8 Ag N2 O4 Re'
_chemical_formula_weight         418.17
_space_group_crystal_system      triclinic
_space_group_IT_number           2
_space_group_name_Hall           '-P 1'
_space_group_name_H-M_alt        'P -1'
_symmetry_Int_Tables_number      2
_atom_sites_solution_hydrogens   difmap
_atom_sites_solution_primary     direct
_audit_creation_date             2022-05-24
_audit_creation_method
;
Olex2 1.2
(compiled 2018.05.29 svn.r3508 for OlexSys, GUI svn.r5506)
;
_audit_update_record
;
2022-08-02 deposited with the CCDC.	2022-09-12 downloaded from the CCDC.
;
_cell_angle_alpha                117.306(3)
_cell_angle_beta                 115.322(3)
_cell_angle_gamma                93.114(3)
_cell_formula_units_Z            2
_cell_length_a                   7.4566(7)
_cell_length_b                   8.1260(6)
_cell_length_c                   8.1597(7)
_cell_measurement_reflns_used    7726
_cell_measurement_temperature    100.0
_cell_measurement_theta_max      26.07
_cell_measurement_theta_min      3.02
_cell_volume                     377.30(6)
_computing_cell_refinement       'SAINT V8.40B (Bruker, 2016)'
_computing_data_reduction        'SAINT V8.40B (Bruker, 2016)'
_computing_molecular_graphics    'Olex2 (Dolomanov et al., 2009)'
_computing_publication_material  'Olex2 (Dolomanov et al., 2009)'
_computing_structure_refinement  'ShelXL (Sheldrick, 2015)'
_computing_structure_solution    'SHELXT 2018/2 (Sheldrick, 2018)'
_diffrn_ambient_temperature      100.0
_diffrn_measured_fraction_theta_full 0.9866
_diffrn_measured_fraction_theta_max 0.9866
_diffrn_measurement_device_type  'Bruker APEX-II CCD'
_diffrn_measurement_method       '\f and \w scans'
_diffrn_radiation_type           'Mo K\a'
_diffrn_radiation_wavelength     0.71073
_diffrn_reflns_av_R_equivalents  0.0369
_diffrn_reflns_av_unetI/netI     0.0244
_diffrn_reflns_limit_h_max       9
_diffrn_reflns_limit_h_min       -9
_diffrn_reflns_limit_k_max       10
_diffrn_reflns_limit_k_min       -10
_diffrn_reflns_limit_l_max       10
_diffrn_reflns_limit_l_min       -10
_diffrn_reflns_number            8593
_diffrn_reflns_theta_full        26.0666
_diffrn_reflns_theta_max         26.07
_diffrn_reflns_theta_min         2.97
_diffrn_standards_number         0
_exptl_absorpt_coefficient_mu    18.583
_exptl_absorpt_correction_T_max  0.7453
_exptl_absorpt_correction_T_min  0.6493
_exptl_absorpt_correction_type   multi-scan
_exptl_absorpt_process_details
;
SADABS-2016/2 (Bruker,2016/2) was used for absorption correction.
wR2(int) was 0.0739 before and 0.0547 after correction.
The Ratio of minimum to maximum transmission is 0.8712.
The \l/2 correction factor is Not present.
;
_exptl_crystal_colour            colourless
_exptl_crystal_colour_primary    colourless
_exptl_crystal_density_diffrn    3.6806
_exptl_crystal_description       block
_exptl_crystal_F_000             376
_exptl_crystal_size_max          0.03
_exptl_crystal_size_mid          0.02
_exptl_crystal_size_min          0.01
_refine_diff_density_max         0.5651
_refine_diff_density_min         -0.8434
_refine_diff_density_rms         0.1774
_refine_ls_d_res_high            0.8087
_refine_ls_d_res_low             6.8603
_refine_ls_goodness_of_fit_ref   1.0692
_refine_ls_hydrogen_treatment    refall
_refine_ls_matrix_type           full
_refine_ls_number_constraints    0
_refine_ls_number_parameters     123
_refine_ls_number_reflns         1472
_refine_ls_number_restraints     0
_refine_ls_restrained_S_all      1.0692
_refine_ls_R_factor_all          0.0155
_refine_ls_R_factor_gt           0.0151
_refine_ls_shift/su_max          0.0001
_refine_ls_shift/su_mean         0.0000
_refine_ls_structure_factor_coef Fsqd
_refine_ls_weighting_details
'w=1/[\s^2^(Fo^2^)+(0.0132P)^2^+0.6927P] where P=(Fo^2^+2Fc^2^)/3'
_refine_ls_weighting_scheme      calc
_refine_ls_wR_factor_gt          0.0348
_refine_ls_wR_factor_ref         0.0350
_reflns_Friedel_coverage         0.0
_reflns_limit_h_max              8
_reflns_limit_h_min              -9
_reflns_limit_k_max              8
_reflns_limit_k_min              -10
_reflns_limit_l_max              10
_reflns_limit_l_min              0
_reflns_number_gt                1448
_reflns_number_total             1472
_reflns_threshold_expression     I>=2u(I)
_iucr_refine_instructions_details
;
TITL mo_db_sonntag_0m_a.res in P-1
REM Old TITL mo_DB_Sonntag_0m in P-1 #2
REM SHELXT solution in P-1: R1 0.031, Rweak 0.009, Alpha 0.017
REM <I/s> 0.000 for 0 systematic absences, Orientation as input
REM Formula found by SHELXT: C O7 Ag Re
CELL 0.71073 7.4566 8.126 8.1597 117.306 115.322 93.114
ZERR 2 0.0007 0.0006 0.0007 0.003 0.003 0.003
LATT 1
SFAC C H Ag N O Re
UNIT 4 16 2 4 8 2

L.S. 20
PLAN  10
SIZE 0.01 0.02 0.03
TEMP -173.15
CONF 
list 4
MORE -1
BOND $H
fmap 2
acta 
WGHT 0.01323 0.692701
FVAR 0.503533
REM <olex2.extras>
REM <HklSrc "%.\\mo_DB_Sonntag_0m.hkl">
REM </olex2.extras>

Re1   6     0.25696  0.34094  0.50570  11.00000  0.00963  0.00849  0.00962 =
 0.00554  0.00436  0.00258 

Ag1   3     0.65756  0.10481  0.75647  11.00000  0.01277  0.01117  0.01253 =
 0.00647  0.00711  0.00249 

O3    5     0.23721  0.57216  0.62276  11.00000  0.02073  0.01171  0.02476 =
 0.00925  0.01256  0.00439 
O1    5     0.13154  0.19505  0.55183  11.00000  0.01822  0.01606  0.01890 =
 0.01137  0.01206  0.00659 
O2    5     0.51823  0.35513  0.61628  11.00000  0.01187  0.02310  0.02741 =
 0.01767  0.00762  0.00555 

N1    4     0.96475  0.23323  0.83765  11.00000  0.01372  0.01313  0.01123 =
 0.00863  0.00718  0.00627 
N2    4     0.38262 -0.02475  0.73085  11.00000  0.01140  0.01017  0.01279 =
 0.00651  0.00502  0.00273 

O4    5     0.14624  0.23447  0.23294  11.00000  0.02746  0.01782  0.01289 =
 0.00823  0.00848  0.00387 

C2    1     0.40462  0.02148  0.93798  11.00000  0.01406  0.00668  0.01394 =
 0.00549  0.00740  0.00411 
C1    1     1.02403  0.44234  0.91216  11.00000  0.01041  0.01039  0.00957 =
 0.00316  0.00620 -0.00034 
H7    2     1.15680  0.49134  0.95228  11.00000  0.00159 
H8    2     0.94309  0.45537  0.78305  11.00000  0.01615 
H3    2     0.27257  0.02354  0.66714  11.00000  0.03140 
H6    2     0.99016  0.17456  0.73729  11.00000  0.01185 
H2    2     0.41489  0.15787  1.01257  11.00000  0.02259 
H1    2     0.27388 -0.05927  0.90795  11.00000  0.02132 
H4    2     0.34006 -0.15824  0.64526  11.00000  0.01430 
H5    2     1.03104  0.21597  0.93716  11.00000  0.00800 
HKLF 4

END
Q1 1 0.166667 -0.24 0.48 11 0.05 0.57
Q2 1 0.166667 0.04 0.44 11 0.05 0.55
Q3 1 0.5 0.64 0.72 11 0.05 0.55
Q4 1 0.208333 0.6 0.48 11 0.05 0.55
Q5 1 0.333333 -0.28 0.52 11 0.05 0.51
Q6 1 0.583333 0.24 1.04 11 0.05 0.51
Q7 1 1.041667 0.32 0.64 11 0.05 0.51
Q8 1 0.083333 0.32 0.52 11 0.05 0.5
Q9 1 0.291667 0.56 0.4 11 0.05 0.49
Q10 1 0.375 0.24 0.24 11 0.05 0.48

  REM The information below was added by Olex2.
  REM
  REM R1 = 0.0151 for 1448 Fo > 4sig(Fo) and 0.0155 for all 1472 data
  REM 123 parameters refined using 0 restraints
  REM Highest difference peak 0.5651, deepest hole -0.8434
  REM Mean Shift 0.0000, Max Shift 0.0001.

  REM +++ Tabular Listing of Refinement Information +++
  REM R1_all = 0.0155
  REM R1_gt = 0.0151
  REM wR_ref = 0.0350
  REM GOOF = 1.0692
  REM Shift_max = 0.0001
  REM Shift_mean = 0.0000
  REM Reflections_all = 1472
  REM Reflections_gt = 1448
  REM Parameters = 123
  REM Hole = -0.8434
  REM Peak = 0.5651
  REM Flack = n/a

  
;
_cod_data_source_file            d2dt02344j2.cif
_cod_data_source_block           Ag[C2N2H4][ReO4]
_cod_database_code               7711224
_olex2_refinement_description
;
;
_iucr_refine_fcf_details
;
data_mo_DB_Sonntag_0m
_computing_structure_refinement   'olex2.refine (Bourhis et al., 2015)'
_shelx_refln_list_code            4
loop_
  _space_group_symop_id
  _space_group_symop_operation_xyz
  1  x,y,z
  2  -x,-y,-z

_space_group_crystal_system       triclinic
_space_group_IT_number            2
_space_group_name_H-M_alt         'P -1'
_space_group_name_Hall            '-P 1'
_symmetry_space_group_name_H-M    'P -1'
_symmetry_space_group_name_Hall   '-P 1'
_symmetry_Int_Tables_number       2
_cell_length_a                    7.4566(7)
_cell_length_b                    8.1260(6)
_cell_length_c                    8.1597(7)
_cell_angle_alpha                 117.306(3)
_cell_angle_beta                  115.322(3)
_cell_angle_gamma                 93.114(3)
_cell_volume                      377.30(6)
loop_
  _refln_index_h
  _refln_index_k
  _refln_index_l
  _refln_F_squared_calc
  _refln_F_squared_meas
  _refln_F_squared_sigma
  _refln_F_squared_weight
  _refln_observed_status
-9 -1 4 167.338 205.530 26.102 96.703 o
-9 -1 5 1920.920 1830.520 66.225 12.418 o
-9 -1 6 3485.340 3330.050 104.960 5.078 o
-9 0 3 20.483 7.761 7.858 1074.610 o
-9 0 4 27.005 26.818 10.716 587.402 o
-9 0 5 846.432 863.067 53.382 22.007 o
-9 0 6 611.400 581.828 53.227 23.693 o
-9 1 3 7012.630 6930.810 131.567 2.558 o
-9 1 4 4809.460 4639.480 100.703 4.515 o
-9 1 5 512.567 489.395 33.274 52.280 o
-9 2 3 431.342 500.535 34.995 49.822 o
-9 2 4 3780.040 3601.280 83.255 6.579 o
-8 -4 5 4525.170 4263.490 103.950 4.530 o
-8 -4 6 1307.350 1295.740 59.018 16.761 o
-8 -4 7 456.571 521.495 47.512 29.862 o
-8 -3 3 3899.160 3841.330 90.701 5.794 o
-8 -3 4 1107.560 1126.520 45.628 25.564 o
-8 -3 5 2487.590 2507.260 74.853 9.323 o
-8 -3 6 7149.750 7283.570 146.872 2.204 o
-8 -3 7 3784.490 3791.040 166.952 2.378 o
-8 -3 8 865.302 853.802 45.926 27.681 o
-8 -2 2 137.739 156.416 21.427 139.563 o
-8 -2 3 569.174 597.302 39.398 39.023 o
-8 -2 4 2621.950 2491.310 73.749 9.358 o
-8 -2 5 5.509 27.246 12.224 495.927 o
-8 -2 6 116.731 106.840 21.025 150.123 o
-8 -2 7 894.943 819.377 41.874 31.546 o
-8 -2 8 1648.750 1623.640 69.969 12.071 o
-8 -1 1 690.648 692.399 44.612 30.751 o
-8 -1 2 822.246 779.202 44.808 29.272 o
-8 -1 3 4360.410 4341.160 93.861 5.183 o
-8 -1 4 3293.540 3282.590 86.388 6.746 o
-8 -1 5 69.981 87.639 17.894 210.029 o
-8 -1 6 412.104 413.268 28.476 69.689 o
-8 -1 7 5020.420 4973.680 95.725 4.614 o
-8 -1 8 2462.960 2376.820 65.625 11.166 o
-8 0 1 8546.020 8474.130 193.440 1.401 o
-8 0 2 3781.070 3688.780 92.591 5.758 o
-8 0 3 1318.810 1263.580 47.107 22.981 o
-8 0 4 3788.630 3602.210 91.058 5.901 o
-8 0 5 10556.100 10745.900 192.849 1.221 o
-8 0 6 2651.420 2518.510 63.746 11.120 o
-8 0 7 795.282 783.604 54.586 21.581 o
-8 1 1 138.576 157.367 24.221 113.657 o
-8 1 2 1724.730 1614.190 57.235 15.879 o
-8 1 3 2868.380 2864.980 73.951 8.826 o
-8 1 4 18.847 27.467 9.132 796.708 o
-8 1 5 9.968 14.993 8.520 972.908 o
-8 1 6 3521.050 3363.740 74.837 7.765 o
-8 1 7 1962.780 2004.950 69.414 11.423 o
-8 2 1 1002.770 1038.470 42.723 28.984 o
-8 2 2 7165.970 7365.360 129.357 2.541 o
-8 2 3 2489.780 2425.210 69.663 10.289 o
-8 2 4 67.129 69.926 13.349 347.100 o
-8 2 5 711.092 689.895 35.928 42.085 o
-8 2 6 3764.580 3703.770 74.906 7.365 o
-8 3 1 2741.630 2764.820 68.877 9.847 o
-8 3 2 1471.430 1505.530 47.052 21.649 o
-8 3 3 5829.210 5816.260 92.345 4.243 o
-8 3 4 6672.170 6596.250 112.183 3.150 o
-8 3 5 1995.100 1947.990 52.125 16.443 o
-8 4 1 2781.930 2677.650 77.249 8.540 o
-8 4 2 1921.670 1875.160 57.470 14.926 o
-8 4 3 15.834 24.795 14.125 369.195 o
-8 4 4 307.334 366.068 22.319 105.605 o
-8 5 1 3132.300 3043.360 83.522 7.262 o
-8 5 2 460.092 416.977 33.492 53.574 o
-8 5 3 17.000 17.912 8.899 860.408 o
-7 -6 6 223.573 237.373 25.962 93.314 o
-7 -6 7 5.318 13.402 9.725 783.831 o
-7 -5 4 1264.150 1268.790 43.122 26.021 o
-7 -5 5 2285.420 2302.410 115.951 4.921 o
-7 -5 6 7762.840 7689.940 148.170 2.077 o
-7 -5 7 6815.370 6746.180 137.585 2.476 o
-7 -5 8 1505.710 1439.520 56.693 16.965 o
-7 -4 2 102.071 91.903 13.990 295.344 o
-7 -4 3 960.758 927.201 50.479 23.336 o
-7 -4 4 4591.380 4402.820 99.596 4.716 o
-7 -4 5 1361.070 1443.830 57.097 17.216 o
-7 -4 6 39.373 28.216 11.246 518.503 o
-7 -4 7 3547.240 3503.880 89.247 6.232 o
-7 -4 8 6704.580 6593.720 138.270 2.491 o
-7 -4 9 1487.570 1555.650 51.088 19.357 o
-7 -3 1 40.490 47.208 14.081 343.981 o
-7 -3 2 21.100 29.074 9.642 716.669 o
-7 -3 3 1449.160 1441.070 47.122 21.874 o
-7 -3 4 3143.430 3078.900 78.486 7.827 o
-7 -3 5 45.084 107.738 23.303 133.162 o
-7 -3 6 72.955 94.418 16.408 240.912 o
-7 -3 7 1771.580 1902.120 53.377 16.762 o
-7 -3 8 1124.600 1117.280 37.791 32.358 o
-7 -3 9 244.674 255.931 24.391 100.920 o
-7 -2 1 9649.890 9586.520 159.601 1.623 o
-7 -2 2 5358.370 5358.990 103.760 4.025 o
-7 -2 3 999.149 1028.230 38.303 33.488 o
-7 -2 4 3620.970 3702.200 87.467 6.276 o
-7 -2 5 11054.100 10888.400 170.884 1.354 o
-7 -2 6 4482.850 4355.000 84.446 5.748 o
-7 -2 7 426.105 440.865 33.162 54.862 o
-7 -2 8 3499.550 3555.060 79.558 7.180 o
-7 -2 9 6361.800 6290.560 118.999 3.068 o
-7 -1 1 185.252 212.334 21.177 133.122 o
-7 -1 2 5263.440 5199.500 100.234 4.246 o
-7 -1 3 9265.670 9321.680 164.316 1.618 o
-7 -1 4 1638.970 1633.030 55.128 16.910 o
-7 -1 5 110.492 158.447 18.497 181.477 o
-7 -1 6 6114.530 6199.890 113.598 3.303 o
-7 -1 7 7254.670 7297.600 132.493 2.466 o
-7 -1 8 960.199 907.897 48.766 24.633 o
-7 0 1 203.039 249.805 29.278 77.184 o
-7 0 2 2185.550 2206.800 69.897 10.834 o
-7 0 3 1430.300 1412.780 54.840 18.048 o
-7 0 4 428.801 428.185 28.898 67.429 o
-7 0 5 14.107 26.356 9.323 788.311 o
-7 0 6 1488.710 1461.320 39.697 26.307 o
-7 0 7 262.841 305.734 25.171 93.562 o
-7 0 8 717.021 692.094 40.243 35.708 o
-7 1 1 4440.360 4611.030 99.677 4.731 o
-7 1 2 655.304 743.305 46.612 28.765 o
-7 1 3 7160.530 7283.760 136.969 2.391 o
-7 1 4 10459.300 10686.100 205.653 1.137 o
-7 1 5 4489.710 4580.060 92.457 5.146 o
-7 1 6 1462.680 1382.640 49.185 20.795 o
-7 1 7 3937.170 3945.950 84.029 6.276 o
-7 2 1 5703.120 5875.860 117.920 3.312 o
-7 2 2 6449.530 6767.090 125.204 2.830 o
-7 2 3 948.075 963.879 60.093 17.717 o
-7 2 4 1320.710 1350.840 49.045 21.582 o
-7 2 5 6600.050 6694.130 108.297 3.268 o
-7 2 6 6128.930 6047.870 107.345 3.525 o
-7 2 7 839.962 780.883 44.831 29.118 o
-7 3 1 1030.610 1067.900 39.425 31.816 o
-7 3 2 167.203 198.446 19.717 151.741 o
-7 3 3 875.617 914.148 38.650 34.927 o
-7 3 4 5.421 2.894 5.807 2127.640 o
-7 3 5 810.922 807.463 47.327 26.924 o
-7 3 6 18.004 39.190 12.994 421.331 o
-7 4 1 1075.980 1015.180 63.214 15.947 o
-7 4 2 5053.950 5034.720 106.495 4.068 o
-7 4 3 5650.120 5882.640 102.438 3.885 o
-7 4 4 942.594 913.231 43.283 29.379 o
-7 4 5 890.177 878.915 32.870 42.848 o
-7 5 1 4540.380 4282.800 109.144 4.250 o
-7 5 2 747.219 778.505 40.853 34.214 o
-7 5 3 1318.870 1350.490 43.018 25.480 o
-7 5 4 6869.350 6779.300 132.335 2.579 o
-7 6 1 20.713 20.087 9.006 822.949 o
-7 6 2 999.085 1062.740 43.420 28.295 o
-7 6 3 0.271 7.938 6.375 1842.910 o
-6 -7 5 1068.160 970.400 37.005 34.513 o
-6 -7 6 5279.740 5277.920 112.320 3.711 o
-6 -7 7 4027.420 3898.540 95.041 5.387 o
-6 -6 3 2146.410 2052.850 55.385 14.767 o
-6 -6 4 7806.870 7949.090 193.512 1.462 o
-6 -6 5 5735.670 5870.330 135.485 2.783 o
-6 -6 6 777.742 889.498 38.233 36.637 o
-6 -6 7 3468.070 3533.360 116.759 4.317 o
-6 -6 8 10123.800 9846.220 179.687 1.381 o
-6 -6 9 3582.620 3494.450 84.826 6.615 o
-6 -5 2 835.799 762.089 37.031 38.321 o
-6 -5 3 1.336 4.217 6.333 1882.690 o
-6 -5 4 781.083 836.200 35.361 40.968 o
-6 -5 5 427.735 487.129 36.959 45.876 o
-6 -5 6 2571.260 2610.670 90.196 7.075 o
-6 -5 7 79.903 59.490 15.036 282.718 o
-6 -5 8 34.359 59.185 13.037 392.830 o
-6 -5 9 1383.270 1380.850 45.449 23.378 o
-6 -4 1 5040.720 5043.430 104.048 4.183 o
-6 -4 2 4894.130 4819.670 89.113 5.076 o
-6 -4 3 256.759 288.047 24.592 97.837 o
-6 -4 4 1340.570 1308.840 44.821 24.229 o
-6 -4 5 10438.500 10238.600 178.646 1.355 o
-6 -4 6 5045.260 5112.250 122.387 3.415 o
-6 -4 7 128.506 154.858 17.094 200.966 o
-6 -4 8 1085.500 1092.840 35.793 35.013 o
-6 -4 9 4399.030 4531.060 124.598 3.559 o
-6 -3 1 263.863 314.750 23.871 100.874 o
-6 -3 2 4312.290 4335.640 85.742 5.767 o
-6 -3 3 14193.500 14259.300 247.202 0.738 o
-6 -3 4 5353.600 5443.700 107.516 3.855 o
-6 -3 5 1361.230 1271.360 43.382 25.205 o
-6 -3 6 6554.250 6612.820 126.071 2.802 o
-6 -3 7 13603.800 13781.800 205.845 0.929 o
-6 -3 8 2681.010 2656.630 65.127 10.689 o
-6 -3 9 687.407 729.056 41.046 34.785 o
-6 -2 1 2242.630 2246.690 57.565 13.653 o
-6 -2 2 106.384 163.285 18.267 185.463 o
-6 -2 3 80.552 119.536 17.690 206.972 o
-6 -2 4 3245.170 3356.230 72.656 8.317 o
-6 -2 5 4481.150 4680.530 83.433 5.717 o
-6 -2 6 116.759 148.877 16.610 213.875 o
-6 -2 7 87.675 119.825 14.850 270.344 o
-6 -2 8 2604.080 2630.160 70.354 9.868 o
-6 -2 9 1795.670 1788.010 58.260 15.098 o
-6 -1 1 5773.370 5760.270 118.065 3.304 o
-6 -1 2 175.754 195.002 18.157 170.026 o
-6 -1 3 2994.310 2892.500 73.494 8.736 o
-6 -1 4 9948.240 10165.200 154.384 1.624 o
-6 -1 5 2372.240 2387.790 69.049 10.602 o
-6 -1 6 133.960 144.406 17.441 194.926 o
-6 -1 7 1087.920 1110.790 43.554 27.390 o
-6 -1 8 3998.090 3953.180 83.374 6.286 o
-6 -1 9 627.825 657.029 47.088 28.753 o
-6 0 1 7858.230 8070.420 129.486 2.360 o
-6 0 2 15380.100 15231.000 297.201 0.560 o
-6 0 3 3915.150 4004.700 95.249 5.403 o
-6 0 4 3068.710 2994.190 72.736 8.702 o
-6 0 5 10132.400 10491.400 148.978 1.646 o
-6 0 6 13882.100 13806.200 189.951 0.990 o
-6 0 7 3587.510 3689.870 90.790 6.016 o
-6 0 8 1213.130 1193.010 42.968 26.730 o
-6 1 1 68.546 86.523 12.341 383.066 o
-6 1 2 26.954 46.746 10.379 598.522 o
-6 1 3 2674.060 2710.310 62.710 11.125 o
-6 1 4 2040.660 2071.510 52.377 16.019 o
-6 1 5 28.500 37.413 10.062 637.077 o
-6 1 6 810.339 826.008 53.474 22.169 o
-6 1 7 4864.640 4845.180 92.987 4.863 o
-6 1 8 1826.210 1909.350 60.681 14.098 o
-6 2 1 263.874 192.882 19.755 138.506 o
-6 2 2 3743.380 3677.140 80.467 6.840 o
-6 2 3 9849.580 10061.700 149.750 1.687 o
-6 2 4 912.234 888.121 32.465 43.050 o
-6 2 5 17.227 18.887 7.090 1253.030 o
-6 2 6 2213.560 2224.290 76.718 9.478 o
-6 2 7 2803.160 2745.040 90.362 6.856 o
-6 3 1 11662.200 11457.500 196.327 1.120 o
-6 3 2 2545.570 2501.190 60.873 11.930 o
-6 3 3 2233.030 2187.580 48.929 16.383 o
-6 3 4 11328.200 11352.300 148.955 1.494 o
-6 3 5 7976.980 7939.350 122.892 2.475 o
-6 3 6 847.770 818.304 38.596 35.794 o
-6 3 7 1279.520 1226.670 123.055 4.817 o
-6 4 1 1554.060 1556.580 45.983 21.716 o
-6 4 2 5693.860 5803.470 102.012 3.901 o
-6 4 3 2179.980 2156.650 61.023 12.966 o
-6 4 4 29.183 25.346 7.568 1022.820 o
-6 4 5 1551.080 1554.760 44.654 22.486 o
-6 4 6 4309.560 4363.890 93.625 5.219 o
-6 5 1 2996.640 2997.680 72.496 8.816 o
-6 5 2 4531.350 4471.980 91.241 5.229 o
-6 5 3 73.158 112.155 14.069 303.173 o
-6 5 4 25.977 20.186 7.021 1188.480 o
-6 5 5 2125.170 2073.540 51.645 16.003 o
-6 6 1 925.281 918.863 33.908 40.496 o
-6 6 2 3221.320 3079.520 86.995 6.808 o
-6 6 3 9010.800 9126.540 180.192 1.479 o
-6 6 4 5130.140 5014.380 243.704 1.164 o
-6 7 1 3496.200 3487.370 76.997 7.487 o
-6 7 2 621.808 641.535 30.254 55.291 o
-5 -8 6 1302.990 1269.660 42.800 26.003 o
-5 -8 7 2269.290 2169.310 55.354 14.304 o
-5 -7 3 756.134 748.782 29.201 53.246 o
-5 -7 4 133.895 170.327 16.020 217.117 o
-5 -7 5 2272.760 2271.500 55.420 14.146 o
-5 -7 6 7656.150 7681.700 158.666 1.926 o
-5 -7 7 1472.500 1534.680 45.787 22.294 o
-5 -7 8 179.509 212.053 20.394 141.663 o
-5 -7 9 2980.620 2918.000 64.400 10.154 o
-5 -6 2 3663.070 3671.400 121.803 3.979 o
-5 -6 3 32.878 47.727 9.281 697.140 o
-5 -6 4 67.831 64.427 15.081 286.057 o
-5 -6 5 2718.770 2633.890 75.680 8.862 o
-5 -6 6 2551.780 2588.960 77.810 8.740 o
-5 -6 7 345.919 360.011 26.164 82.722 o
-5 -6 8 1.921 4.975 7.522 1339.220 o
-5 -6 9 1706.220 1683.760 47.478 19.944 o
-5 -5 1 1129.870 1083.210 48.134 23.743 o
-5 -5 2 2652.700 2637.860 64.363 10.897 o
-5 -5 3 14155.500 14077.600 202.156 0.917 o
-5 -5 4 6621.220 6560.830 136.963 2.536 o
-5 -5 5 924.659 886.888 47.928 25.532 o
-5 -5 6 3537.500 3630.220 80.627 7.008 o
-5 -5 7 11442.300 11534.200 174.613 1.277 o
-5 -5 8 5533.220 5593.270 98.769 4.132 o
-5 -5 9 876.927 824.707 40.560 33.124 o
-5 -4 1 7923.640 8019.360 167.683 1.756 o
-5 -4 2 1056.860 1071.690 40.067 30.926 o
-5 -4 3 330.999 348.881 24.364 92.688 o
-5 -4 4 6408.560 6619.560 119.723 3.000 o
-5 -4 5 8203.670 8243.920 143.702 2.057 o
-5 -4 6 2379.700 2445.070 58.634 12.846 o
-5 -4 7 524.675 549.848 28.809 62.850 o
-5 -4 8 5178.790 5098.530 99.233 4.346 o
-5 -4 9 5223.590 5131.980 96.838 4.436 o
-5 -3 1 2636.010 2798.260 66.969 10.308 o
-5 -3 2 142.369 163.632 17.401 191.340 o
-5 -3 3 5.111 -0.697 5.115 2751.680 o
-5 -3 4 3585.150 3607.170 126.470 3.784 o
-5 -3 5 732.345 701.046 31.020 50.528 o
-5 -3 6 1299.480 1338.010 40.964 27.176 o
-5 -3 7 255.929 303.280 21.295 119.915 o
-5 -3 8 1306.560 1294.160 49.671 21.410 o
-5 -3 9 142.756 150.634 16.839 202.331 o
-5 -2 1 7400.040 7655.490 125.245 2.559 o
-5 -2 3 10890.800 10952.400 257.476 0.829 o
-5 -2 4 2529.970 2396.030 50.611 14.634 o
-5 -2 5 7963.050 8025.130 115.950 2.605 o
-5 -2 6 11060.800 11305.900 149.035 1.520 o
-5 -2 7 3580.230 3627.290 79.670 7.071 o
-5 -2 8 341.579 345.902 23.751 95.457 o
-5 -2 9 3935.610 3967.500 93.394 5.535 o
-5 -1 1 1312.160 1356.930 49.176 21.531 o
-5 -1 2 2925.000 3045.790 66.779 9.748 o
-5 -1 4 11871.800 11954.000 207.512 1.032 o
-5 -1 5 2206.930 2210.840 49.638 16.195 o
-5 -1 6 2261.090 2217.740 52.290 15.172 o
-5 -1 7 9129.120 9237.230 144.246 1.875 o
-5 -1 8 5999.580 6019.490 107.981 3.546 o
-5 -1 9 596.460 552.745 37.401 42.176 o
-5 0 1 419.171 358.219 23.746 90.434 o
-5 0 2 130.366 141.049 14.466 257.210 o
-5 0 3 4569.990 4705.910 82.526 5.715 o
-5 0 4 280.140 271.079 19.724 132.050 o
-5 0 5 2688.650 2823.960 61.040 11.331 o
-5 0 6 150.914 220.269 19.175 159.054 o
-5 0 7 1735.240 1686.570 47.844 19.639 o
-5 0 8 147.499 211.573 20.261 147.421 o
-5 1 2 5061.140 4923.030 110.816 3.894 o
-5 1 3 1083.880 1042.770 32.717 39.012 o
-5 1 4 13205.600 12967.100 224.382 0.876 o
-5 1 5 13625.700 13646.300 194.448 0.984 o
-5 1 6 1377.510 1368.740 41.032 26.461 o
-5 1 7 948.222 881.992 35.139 38.736 o
-5 1 8 4547.770 4363.540 97.838 4.845 o
-5 2 1 2705.770 2697.400 61.160 11.390 o
-5 2 3 9271.040 9369.770 138.163 1.929 o
-5 2 4 1065.200 1118.870 29.817 42.555 o
-5 2 5 3783.220 3796.730 84.773 6.371 o
-5 2 6 9830.650 9817.030 157.597 1.617 o
-5 2 7 3128.840 3164.550 76.581 8.037 o
-5 3 1 390.854 403.742 18.790 120.007 o
-5 3 2 2265.670 2213.750 44.681 17.685 o
-5 3 3 603.503 687.654 24.376 71.266 o
-5 3 4 4013.370 4100.210 73.425 7.103 o
-5 3 5 12.872 36.156 11.784 512.280 o
-5 3 6 596.283 615.663 40.703 36.718 o
-5 3 7 583.286 637.753 38.676 39.730 o
-5 4 1 2393.430 2375.820 53.770 14.162 o
-5 4 2 1750.180 1708.140 45.224 20.792 o
-5 4 3 8667.120 8956.130 135.608 2.071 o
-5 4 4 5656.430 5681.070 96.408 4.168 o
-5 4 5 496.727 510.406 28.411 65.502 o
-5 4 6 736.620 805.760 52.191 23.424 o
-5 5 1 14070.200 14069.600 247.077 0.744 o
-5 5 2 4145.900 4115.890 103.273 4.750 o
-5 5 3 1784.670 1718.820 48.364 19.127 o
-5 5 4 4422.540 4417.850 72.137 6.717 o
-5 5 5 6565.360 6072.190 186.933 1.686 o
-5 6 1 805.348 798.988 31.457 47.320 o
-5 6 2 673.372 709.285 30.385 53.032 o
-5 6 3 847.885 874.011 33.816 42.083 o
-5 6 4 2.887 16.581 7.555 1260.950 o
-5 7 1 2043.100 2104.200 46.499 18.101 o
-5 7 2 6151.980 6064.910 94.319 3.985 o
-5 7 3 2467.260 2468.360 178.272 2.272 o
-5 8 1 2260.410 2253.120 59.613 13.061 o
-4 -8 4 1287.370 1286.030 34.940 32.678 o
-4 -8 5 36.529 46.481 8.972 724.316 o
-4 -8 6 738.151 747.417 29.245 53.585 o
-4 -8 7 1082.710 1107.580 45.818 25.625 o
-4 -8 8 2306.540 2322.790 74.022 9.792 o
-4 -7 2 985.456 991.248 30.092 44.598 o
-4 -7 3 7469.020 7447.030 116.351 2.759 o
-4 -7 4 6034.490 6025.390 132.659 2.789 o
-4 -7 5 647.278 611.732 26.117 65.801 o
-4 -7 6 1153.950 1144.420 35.190 34.623 o
-4 -7 7 6471.910 6400.750 109.699 3.301 o
-4 -7 8 3968.470 3935.640 81.630 6.463 o
-4 -7 9 434.833 455.754 40.212 40.108 o
-4 -6 1 9102.700 9294.950 141.236 1.914 o
-4 -6 2 4844.080 4829.710 85.181 5.338 o
-4 -6 3 880.391 864.125 30.348 47.257 o
-4 -6 4 7341.130 7264.780 120.283 2.716 o
-4 -6 5 10620.100 10572.100 272.592 0.775 o
-4 -6 6 3781.380 3930.990 86.331 6.193 o
-4 -6 7 1150.700 1220.890 37.133 32.258 o
-4 -6 8 4911.710 5080.370 83.380 5.335 o
-4 -6 9 9551.720 9175.400 143.976 1.834 o
-4 -5 1 382.931 439.222 28.849 68.932 o
-4 -5 2 2639.060 2657.850 56.640 12.529 o
-4 -5 3 3894.110 4027.930 73.195 7.268 o
-4 -5 4 5.277 7.877 7.796 1206.970 o
-4 -5 5 61.151 87.800 13.323 345.991 o
-4 -5 6 1916.170 1947.940 49.162 17.835 o
-4 -5 7 2615.430 2640.990 50.605 14.059 o
-4 -5 8 126.634 140.087 14.112 267.925 o
-4 -5 9 25.930 30.756 10.772 580.395 o
-4 -5 10 2920.930 2835.720 77.843 8.239 o
-4 -4 1 3111.590 3101.810 63.264 10.004 o
-4 -4 2 7567.070 7615.990 132.511 2.388 o
-4 -4 3 5056.410 5210.750 87.461 4.983 o
-4 -4 4 188.554 197.482 16.232 194.992 o
-4 -4 5 1999.470 2015.920 48.245 17.760 o
-4 -4 6 8297.150 8205.910 126.968 2.322 o
-4 -4 7 2839.410 2818.580 68.956 9.666 o
-4 -4 8 71.181 62.667 10.159 518.630 o
-4 -4 9 1147.870 1147.220 44.541 26.084 o
-4 -4 10 3388.700 3250.760 85.084 6.820 o
-4 -3 1 5460.360 5575.570 93.527 4.398 o
-4 -3 2 3761.300 3746.550 68.394 8.052 o
-4 -3 3 15583.800 15335.800 545.426 0.224 o
-4 -3 5 3852.400 3920.310 67.040 8.004 o
-4 -3 6 3694.720 3721.160 68.547 8.122 o
-4 -3 7 11589.600 11811.700 175.872 1.250 o
-4 -3 8 10236.100 10399.400 150.082 1.629 o
-4 -3 9 1241.430 1260.180 45.805 24.266 o
-4 -2 1 4501.600 4620.860 85.221 5.600 o
-4 -2 2 3335.200 3301.250 65.749 9.171 o
-4 -2 3 74.883 82.336 10.297 488.553 o
-4 -2 4 486.650 472.384 21.223 95.165 o
-4 -2 5 11898.600 11785.900 236.801 0.883 o
-4 -2 6 3396.840 3479.310 66.527 8.870 o
-4 -2 7 156.359 199.080 16.767 194.109 o
-4 -2 8 916.011 915.534 36.276 37.431 o
-4 -2 9 5279.620 5308.430 141.300 2.752 o
-4 -1 1 15788.700 15649.900 483.446 0.273 o
-4 -1 2 4311.600 4375.340 80.637 6.138 o
-4 -1 3 38.918 54.392 8.346 780.822 o
-4 -1 4 3777.160 3873.320 63.824 8.485 o
-4 -1 6 610.356 672.822 39.286 38.285 o
-4 -1 7 95.014 95.532 13.143 326.706 o
-4 -1 8 2472.380 2530.110 62.482 11.687 o
-4 -1 9 2854.360 2834.430 78.467 8.220 o
-4 0 1 4132.210 4137.350 76.465 6.708 o
-4 0 2 26317.800 25188.600 1178.760 0.051 o
-4 0 3 18739.500 18509.600 352.481 0.396 o
-4 0 4 746.039 717.153 22.415 70.880 o
-4 0 5 3624.030 3506.030 64.974 8.767 o
-4 0 6 15962.400 16165.900 251.929 0.657 o
-4 0 7 8461.550 8451.070 131.416 2.202 o
-4 0 8 1925.520 1965.620 56.052 15.263 o
-4 1 1 4631.720 4739.360 76.993 6.050 o
-4 1 2 872.849 901.775 27.161 52.848 o
-4 1 3 1878.550 1838.970 43.884 20.512 o
-4 1 4 9434.260 9419.470 152.463 1.731 o
-4 1 5 1962.470 1986.800 44.140 19.659 o
-4 1 6 77.894 105.645 13.882 308.570 o
-4 1 7 1821.150 1816.710 51.221 17.586 o
-4 1 8 4580.490 4576.460 109.236 4.181 o
-4 2 1 495.815 511.283 23.221 84.391 o
-4 2 2 52.541 83.537 9.426 589.757 o
-4 2 3 3807.110 3878.250 62.732 8.572 o
-4 2 4 4849.620 4851.740 72.113 6.192 o
-4 2 5 103.025 117.964 13.344 307.946 o
-4 2 6 32.939 26.034 10.765 571.815 o
-4 2 7 1556.420 1565.580 47.349 20.945 o
-4 3 1 29144.700 28559.300 1290.380 0.043 o
-4 3 3 2236.990 2252.730 45.437 17.453 o
-4 3 4 5497.890 5497.970 88.304 4.646 o
-4 3 5 9411.570 9586.130 163.082 1.607 o
-4 3 6 4405.930 4523.230 95.123 5.037 o
-4 3 7 761.150 777.548 41.724 33.054 o
-4 4 1 171.913 172.525 21.510 133.705 o
-4 4 2 6397.310 6445.690 92.134 3.899 o
-4 4 3 8170.430 8528.030 115.575 2.522 o
-4 4 4 1480.500 1563.550 38.032 27.169 o
-4 4 5 199.429 224.842 17.312 173.943 o
-4 4 6 2259.780 2226.980 58.488 13.387 o
-4 5 1 234.494 279.543 19.840 135.957 o
-4 5 2 2928.640 3020.560 54.137 12.052 o
-4 5 3 1991.210 1968.590 40.492 21.201 o
-4 5 4 6.153 19.049 6.160 1736.470 o
-4 5 5 43.826 49.954 10.216 575.078 o
-4 6 1 5525.570 5560.140 104.169 3.915 o
-4 6 2 964.833 1032.530 28.780 46.644 o
-4 6 3 5463.730 5368.140 78.143 5.222 o
-4 6 4 8473.100 8285.820 116.060 2.478 o
-4 7 1 4213.910 4423.200 76.265 6.544 o
-4 7 2 5311.290 5279.680 76.857 5.415 o
-4 7 3 309.929 353.997 25.903 85.856 o
-4 8 1 1564.960 1601.080 98.166 7.031 o
-3 -9 5 102.953 111.369 12.068 355.440 o
-3 -9 6 26.042 40.593 10.398 605.321 o
-3 -9 7 1794.440 1677.090 60.927 14.358 o
-3 -8 2 4448.380 4460.000 171.561 2.181 o
-3 -8 3 696.001 756.713 74.564 12.773 o
-3 -8 4 3363.230 3333.870 54.782 10.765 o
-3 -8 5 10917.300 11063.300 136.351 1.662 o
-3 -8 6 6008.260 5926.390 104.135 3.694 o
-3 -8 7 1931.440 1927.940 49.642 17.626 o
-3 -8 8 4108.930 4076.200 101.640 4.873 o
-3 -8 9 8190.360 8032.010 174.988 1.641 o
-3 -7 1 76.590 93.625 34.905 61.492 o
-3 -7 2 1854.010 1878.270 41.306 21.787 o
-3 -7 3 6297.510 6347.450 107.382 3.430 o
-3 -7 4 911.000 956.137 27.438 50.826 o
-3 -7 5 325.427 360.059 20.734 114.897 o
-3 -7 6 4109.980 4249.120 151.300 2.726 o
-3 -7 7 7560.350 7574.240 128.543 2.470 o
-3 -7 8 1652.370 1719.270 82.420 9.296 o
-3 -7 9 317.403 376.362 34.402 54.630 o
-3 -6 1 127.140 157.996 14.011 266.258 o
-3 -6 2 2298.700 2378.130 47.152 16.421 o
-3 -6 3 1379.750 1357.290 41.250 26.326 o
-3 -6 4 129.318 146.234 13.314 286.552 o
-3 -6 5 4.844 19.370 5.811 1938.740 o
-3 -6 6 2450.390 2494.730 55.336 13.457 o
-3 -6 7 918.344 878.772 32.689 42.686 o
-3 -6 8 404.839 417.434 23.714 89.712 o
-3 -6 9 10.654 30.682 10.668 623.637 o
-3 -5 1 5743.290 5798.260 96.778 4.095 o
-3 -5 2 2429.780 2408.900 48.269 15.589 o
-3 -5 3 7000.380 7127.430 101.280 3.296 o
-3 -5 4 17278.000 16648.600 599.815 0.186 o
-3 -5 5 3589.140 3625.680 62.563 9.045 o
-3 -5 6 979.996 990.824 27.411 48.998 o
-3 -5 7 9695.910 9828.130 137.240 1.861 o
-3 -5 8 10243.700 10390.200 168.141 1.455 o
-3 -5 9 1832.060 2001.600 64.320 12.933 o
-3 -5 10 546.449 679.385 40.921 36.598 o
-3 -4 1 9916.280 10136.600 247.657 0.916 o
-3 -4 2 14030.000 14116.800 528.861 0.242 o
-3 -4 3 1233.660 1175.070 31.898 37.089 o
-3 -4 4 591.011 609.100 21.229 84.715 o
-3 -4 5 14948.100 15534.600 536.354 0.232 o
-3 -4 6 11182.700 11348.400 166.643 1.361 o
-3 -4 7 1308.010 1330.290 33.176 33.913 o
-3 -4 8 2164.800 2161.380 66.314 11.689 o
-3 -4 9 8785.270 8891.840 140.643 1.987 o
-3 -3 1 6285.460 6455.600 107.617 3.411 o
-3 -3 2 541.856 554.870 24.852 74.890 o
-3 -3 3 936.981 890.230 25.782 54.078 o
-3 -3 4 618.670 658.759 20.799 83.481 o
-3 -3 5 5832.030 5892.270 86.789 4.465 o
-3 -3 6 0.596 9.214 5.751 2212.450 o
-3 -3 7 2360.840 2358.010 45.523 16.767 o
-3 -3 8 0.002 -0.856 5.264 2832.310 o
-3 -3 9 342.114 367.328 22.596 101.304 o
-3 -2 1 1114.760 1083.170 29.793 42.069 o
-3 -2 2 25175.800 23730.900 519.646 0.199 o
-3 -2 3 31207.500 29966.700 640.528 0.131 o
-3 -2 4 4204.190 4250.620 78.482 6.435 o
-3 -2 5 1826.930 1772.530 36.423 24.902 o
-3 -2 6 17268.800 16628.500 557.652 0.210 o
-3 -2 7 10241.600 10369.400 126.895 1.881 o
-3 -2 8 1383.370 1320.250 41.988 25.894 o
-3 -2 9 939.170 969.193 60.074 17.743 o
-3 -1 1 20722.300 20377.900 445.771 0.273 o
-3 -1 2 145.249 157.595 11.678 322.036 o
-3 -1 3 2892.280 2859.950 47.553 13.746 o
-3 -1 4 20283.400 19780.300 416.577 0.304 o
-3 -1 5 10273.000 10421.200 165.074 1.480 o
-3 -1 6 999.461 1004.610 28.624 46.495 o
-3 -1 7 3033.190 3187.850 81.814 7.479 o
-3 -1 8 9581.490 9498.970 139.093 1.872 o
-3 -1 9 4767.770 4589.240 111.548 4.008 o
-3 0 1 1247.180 1338.960 33.368 34.364 o
-3 0 2 5789.640 5857.030 147.488 2.477 o
-3 0 3 709.532 732.973 21.599 74.510 o
-3 0 4 1945.940 1892.070 40.237 21.774 o
-3 0 5 34.039 38.008 7.198 1025.810 o
-3 0 6 1266.240 1272.140 35.694 32.250 o
-3 0 7 77.286 92.916 12.845 351.493 o
-3 0 8 289.987 291.227 24.669 95.206 o
-3 1 1 20469.100 19332.700 464.412 0.261 o
-3 1 2 12263.100 12043.100 236.214 0.870 o
-3 1 3 1238.500 1202.050 25.240 44.861 o
-3 1 4 2755.680 2716.730 46.228 14.663 o
-3 1 5 13045.500 12838.000 184.834 1.081 o
-3 1 6 7490.240 7615.620 119.677 2.664 o
-3 1 7 461.366 450.152 44.551 33.569 o
-3 1 8 1090.600 1165.440 47.112 24.453 o
-3 2 1 2110.100 2129.230 36.198 22.047 o
-3 2 2 6750.350 6389.160 242.521 1.104 o
-3 2 3 21853.800 21044.100 684.710 0.139 o
-3 2 4 7462.220 7497.970 100.505 3.133 o
-3 2 5 1934.970 1937.970 43.964 19.974 o
-3 2 6 4665.030 4741.920 93.831 4.936 o
-3 2 7 8615.850 8693.290 138.690 2.050 o
-3 3 1 1658.150 1650.340 36.180 26.741 o
-3 3 2 474.686 498.665 17.096 117.614 o
-3 3 3 190.070 184.099 11.479 292.638 o
-3 3 4 2027.020 1973.290 45.661 18.765 o
-3 3 5 1624.560 1634.510 51.476 18.508 o
-3 3 6 31.229 52.740 12.189 447.482 o
-3 4 1 8888.740 9167.910 193.781 1.356 o
-3 4 2 663.720 704.642 18.354 88.560 o
-3 4 3 2663.910 2678.120 44.438 15.483 o
-3 4 4 11552.500 11414.100 150.443 1.460 o
-3 4 5 2445.020 2505.320 54.589 13.649 o
-3 4 6 134.103 135.359 15.313 237.269 o
-3 5 1 6999.530 7143.610 108.927 3.086 o
-3 5 2 13953.900 14262.300 291.613 0.607 o
-3 5 3 2245.380 2241.560 42.953 18.337 o
-3 5 4 770.172 788.030 25.948 59.633 o
-3 5 5 6425.570 6094.140 118.296 3.097 o
-3 6 1 755.377 799.509 19.505 77.134 o
-3 6 2 46.539 66.018 6.564 977.430 o
-3 6 3 1761.840 1852.910 39.244 23.476 o
-3 6 4 587.894 574.351 20.536 88.656 o
-3 7 1 144.915 162.828 28.608 84.683 o
-3 7 2 2376.630 2214.510 85.369 7.977 o
-3 7 3 5062.820 5196.400 185.164 1.852 o
-3 8 1 7323.210 7259.090 180.470 1.672 o
-2 -9 3 6403.300 6091.290 219.155 1.323 o
-2 -9 4 3682.740 3634.690 85.917 6.395 o
-2 -9 5 890.203 829.602 24.052 59.757 o
-2 -9 6 4590.300 4586.850 101.794 4.557 o
-2 -9 7 8515.960 8472.960 196.030 1.378 o
-2 -9 8 4025.620 3846.120 97.683 5.219 o
-2 -8 1 662.892 671.598 81.240 10.996 o
-2 -8 2 63.547 51.662 17.136 233.937 o
-2 -8 3 337.328 399.943 48.353 30.092 o
-2 -8 4 873.993 877.999 31.473 45.349 o
-2 -8 5 909.395 941.594 40.124 32.768 o
-2 -8 6 89.930 127.769 14.442 278.907 o
-2 -8 7 19.409 21.765 10.129 672.851 o
-2 -8 8 2318.390 2352.440 83.404 8.245 o
-2 -8 9 1590.240 1572.330 60.317 15.169 o
-2 -7 1 2937.350 2906.380 106.099 5.310 o
-2 -7 2 396.783 352.172 44.156 35.046 o
-2 -7 3 2738.710 2813.090 47.945 14.145 o
-2 -7 4 11141.900 10989.000 194.690 1.170 o
-2 -7 5 4323.790 4413.020 79.669 6.191 o
-2 -7 6 52.983 74.085 16.125 259.739 o
-2 -7 7 2525.180 2453.310 79.738 8.546 o
-2 -7 8 5915.930 5753.600 113.751 3.411 o
-2 -7 9 707.778 752.748 53.865 22.469 o
-2 -6 1 7950.020 8024.670 291.250 0.774 o
-2 -6 2 13814.000 13600.500 479.165 0.288 o
-2 -6 3 5752.590 5856.440 99.274 3.979 o
-2 -6 4 1990.690 2006.320 39.172 21.719 o
-2 -6 6 14928.500 14912.800 252.846 0.693 o
-2 -6 7 1960.250 2018.400 70.326 11.209 o
-2 -6 8 1845.580 1913.290 57.807 14.962 o
-2 -6 9 6007.190 5740.650 104.047 3.728 o
-2 -5 1 622.472 614.706 28.010 61.269 o
-2 -5 2 65.693 58.916 8.745 648.058 o
-2 -5 3 8748.290 9193.950 271.332 0.838 o
-2 -5 4 2713.060 2810.720 48.547 14.072 o
-2 -5 5 189.894 205.304 16.159 194.844 o
-2 -5 6 1108.000 1103.370 34.339 36.343 o
-2 -5 7 6428.040 6444.170 126.015 2.846 o
-2 -5 8 1695.200 1687.330 46.955 20.238 o
-2 -5 9 28.756 16.926 8.815 826.245 o
-2 -4 1 181.169 230.635 13.894 233.070 o
-2 -4 2 9119.090 8717.900 354.927 0.536 o
-2 -4 3 20982.500 20363.600 603.486 0.173 o
-2 -4 4 2988.440 3009.990 61.876 10.502 o
-2 -4 5 65.806 67.936 7.177 798.013 o
-2 -4 6 5481.260 5505.050 87.706 4.681 o
-2 -4 7 8247.050 8240.060 123.975 2.380 o
-2 -4 8 159.492 164.183 18.219 175.205 o
-2 -4 9 26.220 12.980 9.529 740.650 o
-2 -3 1 20483.800 19973.600 417.883 0.301 o
-2 -3 2 2452.350 2438.620 43.966 16.783 o
-2 -3 3 4799.860 4884.420 85.181 5.347 o
-2 -3 4 26488.300 26183.900 587.070 0.162 o
-2 -3 5 26645.400 27292.100 643.842 0.140 o
-2 -3 6 5214.690 5167.140 76.334 5.544 o
-2 -3 7 4278.860 4239.030 70.397 7.075 o
-2 -3 8 9657.190 9793.310 150.054 1.717 o
-2 -3 9 6537.860 6495.550 116.369 3.077 o
-2 -2 1 84.315 64.026 10.646 466.968 o
-2 -2 2 10385.100 9197.260 211.423 1.136 o
-2 -2 3 527.215 488.781 15.404 122.667 o
-2 -2 4 18.927 27.497 5.977 1542.220 o
-2 -2 5 3305.380 3240.150 49.503 11.871 o
-2 -2 6 8335.060 8556.850 107.509 2.638 o
-2 -2 7 2344.630 2351.970 62.432 12.099 o
-2 -2 8 60.848 75.801 11.531 437.708 o
-2 -2 9 1805.370 1863.340 51.233 17.555 o
-2 -1 1 12941.500 12466.200 288.035 0.652 o
-2 -1 2 20583.900 20467.400 489.225 0.240 o
-2 -1 3 591.236 580.881 14.795 114.339 o
-2 -1 4 190.152 183.100 10.414 320.762 o
-2 -1 5 4761.780 4671.780 65.527 6.832 o
-2 -1 6 6538.700 6470.850 89.191 3.945 o
-2 -1 7 13.157 8.531 6.765 1458.290 o
-2 -1 8 12.596 28.064 8.240 978.179 o
-2 0 1 9751.220 9591.670 237.949 0.984 o
-2 0 2 7136.590 6748.020 145.397 2.270 o
-2 0 3 23592.500 22555.700 499.373 0.218 o
-2 0 4 14358.700 14864.900 410.538 0.364 o
-2 0 5 2153.320 2093.370 43.825 18.712 o
-2 0 6 5160.490 5225.330 93.598 4.604 o
-2 0 7 10916.200 11022.900 173.646 1.337 o
-2 0 8 4071.500 3973.960 77.173 6.762 o
-2 1 1 13672.000 13100.000 457.442 0.313 o
-2 1 2 1654.090 1599.610 27.097 33.606 o
-2 1 3 64.142 80.469 7.749 719.535 o
-2 1 4 9466.210 9618.970 142.565 1.835 o
-2 1 5 8514.260 8729.810 114.746 2.452 o
-2 1 6 1091.100 1120.190 36.577 33.945 o
-2 1 7 441.978 425.106 27.210 72.954 o
-2 2 1 13123.300 12897.400 292.467 0.631 o
-2 2 2 20.146 26.375 5.297 1803.000 o
-2 2 3 331.694 341.295 16.025 154.393 o
-2 2 4 8409.310 8630.110 139.388 2.071 o
-2 2 5 1752.710 1653.510 39.078 24.259 o
-2 2 6 728.216 725.818 34.251 44.359 o
-2 2 7 5.608 20.064 8.103 1076.790 o
-2 3 1 14200.500 13496.100 298.585 0.590 o
-2 3 2 29448.200 27772.300 1723.230 0.025 o
-2 3 3 11935.600 11446.800 232.687 0.907 o
-2 3 4 1481.600 1480.830 37.043 28.213 o
-2 3 5 7604.150 7586.950 115.353 2.737 o
-2 3 6 8185.850 7927.230 116.434 2.561 o
-2 4 1 178.655 175.672 10.620 325.204 o
-2 4 2 350.170 387.575 16.552 143.195 o
-2 4 3 9166.780 9054.470 149.469 1.815 o
-2 4 4 5878.460 5947.030 94.776 4.096 o
-2 4 5 347.788 361.977 25.075 87.735 o
-2 5 1 1162.310 1224.920 25.238 46.133 o
-2 5 2 520.384 546.191 16.636 113.407 o
-2 5 3 3755.790 3820.850 61.093 8.873 o
-2 5 4 814.194 808.332 34.249 42.405 o
-2 5 5 263.059 262.080 19.606 135.694 o
-2 6 1 10425.000 10539.400 206.796 1.135 o
-2 6 2 3176.740 3204.640 228.342 1.399 o
-2 6 3 1536.490 1462.340 85.660 8.936 o
-2 6 4 4179.150 4138.350 83.514 6.086 o
-2 7 1 1232.430 1227.040 60.026 16.629 o
-2 7 2 5800.480 6318.220 295.766 0.802 o
-2 8 1 379.366 437.922 52.105 26.000 o
-1 -9 2 9.605 60.979 18.262 222.910 o
-1 -9 3 32.878 47.321 15.061 310.033 o
-1 -9 4 2653.560 2536.210 143.606 3.322 o
-1 -9 5 1240.870 1175.910 35.147 33.545 o
-1 -9 6 282.471 309.595 22.299 109.935 o
-1 -9 7 83.763 73.986 14.252 301.886 o
-1 -9 8 2183.170 2117.220 62.632 12.585 o
-1 -8 1 4539.660 4499.180 138.223 3.039 o
-1 -8 2 9687.900 9735.170 222.053 1.083 o
-1 -8 3 3766.120 3872.940 101.536 5.073 o
-1 -8 4 1374.610 1395.360 30.348 35.487 o
-1 -8 5 6087.760 6058.040 111.101 3.410 o
-1 -8 6 11752.600 11840.400 176.247 1.236 o
-1 -8 7 2299.880 2265.660 68.014 11.013 o
-1 -8 8 1144.960 1164.590 65.229 14.854 o
-1 -7 1 209.788 217.635 38.934 46.978 o
-1 -7 2 596.528 696.771 43.744 32.446 o
-1 -7 3 9642.770 9963.790 219.614 1.096 o
-1 -7 4 9014.880 9126.410 130.547 2.085 o
-1 -7 5 697.749 692.821 28.530 56.842 o
-1 -7 6 2040.120 2040.540 67.228 11.784 o
-1 -7 7 9137.700 9267.100 151.939 1.776 o
-1 -7 8 3893.910 3887.900 98.909 5.188 o
-1 -7 9 589.249 679.289 54.703 22.502 o
-1 -6 1 491.116 521.366 43.989 33.745 o
-1 -6 2 395.692 402.973 31.624 60.215 o
-1 -6 3 6622.630 6848.420 119.721 2.926 o
-1 -6 4 82.375 86.219 9.990 493.751 o
-1 -6 5 2420.370 2516.660 62.169 11.864 o
-1 -6 6 54.566 99.662 29.274 86.640 o
-1 -6 7 1863.090 1904.110 54.696 15.993 o
-1 -6 8 11.352 13.760 7.820 1127.930 o
-1 -6 9 956.657 1024.740 50.059 23.417 o
-1 -5 2 6436.710 6420.080 160.711 2.092 o
-1 -5 3 5069.290 5128.530 82.097 5.305 o
-1 -5 4 14150.700 13710.200 503.619 0.264 o
-1 -5 5 14785.800 14229.600 469.305 0.293 o
-1 -5 6 3408.600 3454.060 63.524 9.280 o
-1 -5 7 1070.270 1054.000 35.986 35.183 o
-1 -5 8 6773.190 6881.450 123.033 2.807 o
-1 -5 9 5516.730 5459.360 104.419 3.925 o
-1 -4 1 3672.920 3808.150 82.800 6.624 o
-1 -4 2 21007.100 21342.700 551.771 0.198 o
-1 -4 3 12064.900 11658.700 421.976 0.372 o
-1 -4 4 1356.720 1394.220 30.428 35.641 o
-1 -4 5 5570.580 5492.410 82.666 4.889 o
-1 -4 6 15003.300 14966.300 542.271 0.228 o
-1 -4 7 6958.460 7207.430 114.031 2.956 o
-1 -4 8 1139.950 1111.520 36.903 33.141 o
-1 -4 9 3178.000 3042.670 70.504 8.861 o
-1 -3 1 371.295 374.837 10.731 197.505 o
-1 -3 2 11305.900 11006.100 256.961 0.820 o
-1 -3 3 268.467 319.107 13.198 203.310 o
-1 -3 4 1720.260 1634.010 34.004 27.750 o
-1 -3 5 261.845 244.567 18.197 150.958 o
-1 -3 6 1642.080 1710.130 40.562 23.907 o
-1 -3 7 239.330 248.022 18.956 146.068 o
-1 -3 8 2146.130 2116.820 58.350 13.812 o
-1 -3 9 174.701 172.771 18.877 162.790 o
-1 -2 1 7255.330 6904.440 168.766 1.854 o
-1 -2 2 8843.180 8512.860 425.256 0.392 o
-1 -2 3 25957.500 25640.800 1172.470 0.052 o
-1 -2 4 16403.800 16538.200 309.974 0.507 o
-1 -2 5 2108.000 2138.740 46.615 17.737 o
-1 -2 6 2094.580 2102.440 45.242 18.386 o
-1 -2 7 8875.230 9240.750 164.745 1.651 o
-1 -2 8 3953.310 3990.920 114.029 4.243 o
-1 -1 1 30282.000 27718.600 606.422 0.145 o
-1 -1 2 19769.700 19103.100 389.886 0.338 o
-1 -1 3 1594.480 1554.870 28.600 33.390 o
-1 -1 4 14866.700 15016.100 289.481 0.590 o
-1 -1 6 2248.930 2175.940 48.408 16.524 o
-1 -1 7 760.328 668.857 37.684 38.882 o
-1 -1 8 4545.440 4477.290 93.598 5.073 o
-1 0 1 4983.130 4765.450 105.407 4.190 o
-1 0 2 4911.670 5117.010 126.327 3.305 o
-1 0 3 11664.600 12163.900 314.706 0.596 o
-1 0 4 1055.850 1065.110 25.736 49.303 o
-1 0 5 381.043 398.276 21.271 105.141 o
-1 0 6 2207.150 2175.930 55.485 14.417 o
-1 0 7 1326.470 1387.790 44.581 24.243 o
-1 0 8 156.188 171.375 21.484 135.849 o
-1 1 1 13671.700 13027.900 263.122 0.712 o
-1 1 2 33271.800 31465.600 715.752 0.109 o
-1 1 3 10546.500 10231.500 364.393 0.493 o
-1 1 4 605.056 575.540 20.710 86.910 o
-1 1 5 3492.850 3574.700 60.913 9.438 o
-1 1 6 8219.900 7891.910 115.323 2.580 o
-1 1 7 1725.230 1677.460 47.130 20.042 o
-1 2 1 3682.550 3623.600 86.029 6.389 o
-1 2 2 2464.900 2491.590 35.604 19.371 o
-1 2 3 18893.800 19101.100 446.138 0.285 o
-1 2 4 21386.500 20525.300 700.783 0.134 o
-1 2 5 2851.050 2927.230 58.620 11.415 o
-1 2 6 1744.530 1728.480 43.314 21.743 o
-1 2 7 5321.150 5190.470 100.391 4.218 o
-1 3 1 3628.080 3518.130 60.011 9.405 o
-1 3 2 2100.910 2073.870 32.698 23.902 o
-1 3 3 503.961 496.808 17.602 111.928 o
-1 3 4 11.862 18.108 6.266 1603.330 o
-1 3 5 2726.470 2773.850 60.428 11.431 o
-1 3 6 1207.500 1138.550 40.438 29.059 o
-1 4 1 19154.200 19494.000 658.187 0.153 o
-1 4 2 3159.670 3133.020 52.848 11.693 o
-1 4 3 868.388 836.501 25.960 56.196 o
-1 4 4 2077.150 2105.530 75.418 9.942 o
-1 4 5 4586.590 4645.250 89.792 5.245 o
-1 5 1 3153.290 3183.860 91.762 6.349 o
-1 5 2 10679.900 10574.000 182.166 1.300 o
-1 5 3 7733.790 7678.620 101.165 3.019 o
-1 5 4 1400.970 1401.110 34.957 30.953 o
-1 6 1 1343.380 1346.480 62.532 15.219 o
-1 6 2 199.483 209.074 32.005 66.982 o
-1 6 3 436.648 486.152 54.190 23.886 o
-1 7 1 1103.180 1098.170 59.877 17.212 o
-1 7 2 371.038 363.694 46.071 32.685 o
-1 8 1 8948.910 8993.310 263.737 0.874 o
0 -10 5 1819.400 1770.290 67.482 12.319 o
0 -9 1 1833.980 1700.690 79.370 9.691 o
0 -9 2 961.028 896.198 66.828 14.892 o
0 -9 3 7673.170 7506.460 178.748 1.657 o
0 -9 4 7975.030 7609.370 246.364 1.020 o
0 -9 5 1535.650 1524.980 47.687 20.954 o
0 -9 6 762.678 777.636 73.830 12.899 o
0 -9 7 7092.180 7053.170 133.788 2.486 o
0 -8 1 2555.010 2600.540 99.276 6.136 o
0 -8 2 1894.530 1930.850 67.283 12.106 o
0 -8 3 194.424 254.734 25.691 96.115 o
0 -8 4 48.571 66.485 8.172 746.943 o
0 -8 5 3191.780 3328.750 106.324 5.103 o
0 -8 6 1338.430 1282.780 41.082 27.004 o
0 -8 7 67.325 98.754 16.145 248.704 o
0 -8 8 166.025 183.312 22.295 126.360 o
0 -7 1 9920.850 9977.980 197.395 1.243 o
0 -7 2 2486.120 2610.090 104.576 5.686 o
0 -7 3 287.892 293.385 11.958 219.035 o
0 -7 4 4754.920 4743.570 80.934 5.691 o
0 -7 5 5888.500 5896.670 99.678 3.907 o
0 -7 6 1595.580 1737.440 78.581 10.083 o
0 -7 7 53.847 51.160 13.614 352.789 o
0 -7 8 1719.400 1716.020 56.710 15.945 o
0 -6 1 3368.330 3381.700 80.054 7.312 o
0 -6 2 20181.700 17082.400 624.662 0.168 o
0 -6 3 18195.100 16914.000 617.957 0.175 o
0 -6 4 4259.030 4341.970 69.783 7.100 o
0 -6 5 3841.660 3999.990 84.903 6.249 o
0 -6 6 12679.100 12771.300 188.726 1.080 o
0 -6 7 9572.910 9493.410 156.877 1.664 o
0 -6 8 1183.550 1212.630 39.781 29.529 o
0 -6 9 2625.740 2615.400 77.032 8.767 o
0 -5 1 1793.830 1795.060 46.203 19.918 o
0 -5 2 10.059 16.033 5.185 2226.460 o
0 -5 3 961.597 953.494 22.918 58.129 o
0 -5 4 10111.600 10328.000 273.484 0.785 o
0 -5 5 2003.740 2069.650 50.433 16.827 o
0 -5 6 24.669 41.460 8.167 893.759 o
0 -5 7 1205.060 1226.770 38.376 30.547 o
0 -5 8 4967.990 5096.150 96.737 4.558 o
0 -5 9 1012.970 1079.340 50.963 22.416 o
0 -4 1 2782.260 2880.850 56.331 12.057 o
0 -4 2 196.408 210.669 8.985 345.550 o
0 -4 3 7994.970 7933.950 199.863 1.387 o
0 -4 4 8415.500 8454.070 206.761 1.286 o
0 -4 5 469.221 522.934 23.986 82.257 o
0 -4 6 796.948 799.081 29.148 51.865 o
0 -4 7 4637.660 4527.140 84.874 5.569 o
0 -4 8 2998.120 2916.750 69.418 9.321 o
0 -4 9 16.150 1.338 9.222 845.511 o
0 -3 1 35377.300 35051.700 779.262 0.092 o
0 -3 2 16483.500 15624.600 333.945 0.465 o
0 -3 3 928.451 922.530 21.022 63.616 o
0 -3 4 6916.440 6781.610 112.198 3.065 o
0 -3 6 7486.810 7512.180 114.816 2.783 o
0 -3 7 1218.160 1216.940 39.953 29.080 o
0 -3 8 5279.370 5175.030 108.953 3.863 o
0 -2 1 18.133 29.483 3.040 3202.790 o
0 -2 2 6060.570 5981.530 167.737 2.029 o
0 -2 3 21995.300 22959.400 1039.750 0.066 o
0 -2 4 1107.100 1153.760 28.728 43.046 o
0 -2 5 43.210 50.762 8.160 795.862 o
0 -2 6 5594.060 5596.610 88.462 4.569 o
0 -2 7 4630.550 4734.320 90.594 5.148 o
0 -2 8 647.151 624.059 39.905 37.257 o
0 -1 1 782.578 818.976 17.021 82.564 o
0 -1 2 19480.600 18320.100 387.662 0.345 o
0 -1 3 3573.740 3532.780 50.916 10.787 o
0 -1 4 1233.130 1339.070 30.590 37.450 o
0 -1 5 119.216 145.207 13.448 288.291 o
0 -1 6 3808.280 3889.680 79.092 6.834 o
0 -1 7 1111.240 1118.570 42.377 28.193 o
0 -1 8 24.024 17.855 10.152 663.132 o
0 0 1 20728.300 20388.100 489.018 0.239 o
0 0 2 2212.160 2196.980 48.713 16.510 o
0 0 3 14230.600 14266.500 266.657 0.674 o
0 0 4 22300.900 22865.800 470.304 0.241 o
0 0 5 5244.150 5212.660 88.040 4.854 o
0 0 6 794.411 914.073 36.779 38.246 o
0 0 7 5589.510 5486.290 97.159 4.200 o
0 1 0 67.899 69.578 5.296 1028.930 o
0 1 1 20446.700 19846.500 373.926 0.348 o
0 1 2 16872.300 17387.300 384.650 0.373 o
0 1 3 1599.050 1658.750 33.882 28.773 o
0 1 4 384.802 463.573 28.732 68.866 o
0 1 5 6268.930 6130.000 91.474 4.035 o
0 1 6 5692.170 5879.380 103.475 3.831 o
0 1 7 805.611 809.196 51.701 23.462 o
0 2 0 1304.680 1344.240 28.979 38.168 o
0 2 1 14883.000 14862.700 300.022 0.565 o
0 2 2 2238.650 2182.170 34.116 22.025 o
0 2 3 31.897 32.873 5.811 1395.080 o
0 2 4 703.542 727.501 52.104 23.814 o
0 2 5 2318.900 2347.320 56.107 13.748 o
0 2 6 361.865 396.836 28.588 71.334 o
0 3 1 2843.090 2928.100 41.459 15.239 o
0 3 2 15577.900 16650.600 589.205 0.195 o
0 3 3 14439.600 14330.900 387.071 0.400 o
0 3 4 3274.900 3261.210 62.169 9.809 o
0 3 5 1009.870 1004.840 34.128 38.461 o
0 4 0 11113.200 10374.800 283.559 0.723 o
0 4 1 10167.000 10088.800 220.099 1.068 o
0 4 2 1165.130 1156.730 25.188 46.835 o
0 4 3 1392.530 1337.780 34.059 32.138 o
0 4 4 5856.220 5910.810 100.319 3.891 o
0 4 5 2432.180 2430.170 59.972 12.429 o
0 5 0 2863.110 2823.730 69.320 9.572 o
0 5 1 14.149 35.674 19.294 202.769 o
0 5 2 1214.350 1216.070 26.158 43.997 o
0 5 3 668.060 688.063 36.006 42.581 o
0 5 4 1118.720 1092.690 45.893 25.398 o
0 6 0 2343.580 2270.630 86.538 7.821 o
0 6 1 10568.100 10236.000 243.113 0.918 o
0 6 2 7258.020 7135.240 193.634 1.521 o
0 6 3 566.016 582.419 81.500 11.063 o
0 7 0 3510.090 3574.060 115.539 4.366 o
0 7 1 535.217 656.972 65.351 16.604 o
0 7 2 2047.750 1969.110 94.822 7.068 o
0 8 0 47.929 79.407 20.705 167.095 o
1 -10 4 586.739 624.442 42.434 34.450 o
1 -9 1 2103.590 2071.210 88.386 7.828 o
1 -9 2 390.061 389.801 37.752 45.585 o
1 -9 3 526.134 550.276 35.724 46.280 o
1 -9 4 146.899 165.958 13.876 259.231 o
1 -9 5 1763.060 1806.120 42.585 21.819 o
1 -9 6 226.024 261.697 25.336 96.126 o
1 -9 7 180.385 207.979 24.045 109.664 o
1 -8 0 3544.850 3649.820 145.027 3.048 o
1 -8 1 1418.370 1475.690 64.743 14.146 o
1 -8 2 6574.430 6664.940 158.307 2.106 o
1 -8 3 10657.800 10393.600 614.217 0.194 o
1 -8 4 2257.170 2255.330 50.455 15.699 o
1 -8 5 1757.240 1668.870 45.761 20.584 o
1 -8 6 6577.430 6702.580 130.523 2.680 o
1 -8 7 8635.090 8733.500 155.030 1.818 o
1 -8 8 1268.850 1214.270 61.721 15.860 o
1 -7 0 6930.010 6721.260 150.918 2.195 o
1 -7 1 5377.200 5482.460 137.995 2.812 o
1 -7 2 1139.440 1160.670 81.856 10.162 o
1 -7 3 1816.570 1809.790 38.581 23.634 o
1 -7 4 9335.350 9614.270 129.940 2.014 o
1 -7 5 7078.700 7386.170 151.943 2.117 o
1 -7 6 1337.790 1361.680 44.188 24.517 o
1 -7 7 3204.150 3044.820 75.908 8.107 o
1 -7 8 7543.970 7153.280 164.971 1.870 o
1 -6 0 3231.320 3470.540 123.351 4.040 o
1 -6 1 154.483 171.661 18.342 173.704 o
1 -6 2 277.941 295.343 10.767 240.371 o
1 -6 3 871.093 880.683 24.147 59.356 o
1 -6 4 3782.230 3863.430 70.469 7.738 o
1 -6 5 389.379 403.056 31.927 59.495 o
1 -6 6 752.887 748.471 34.538 43.316 o
1 -6 7 331.293 357.168 24.758 90.369 o
1 -6 8 260.278 281.932 23.517 104.543 o
1 -5 0 3143.680 3300.550 69.627 8.870 o
1 -5 1 18721.400 17855.400 615.985 0.174 o
1 -5 2 18994.200 19753.800 533.379 0.216 o
1 -5 3 1455.810 1438.030 34.748 30.429 o
1 -5 4 2966.300 3108.850 54.860 11.739 o
1 -5 6 8245.660 8326.170 144.265 2.038 o
1 -5 7 990.051 960.692 35.125 37.722 o
1 -5 8 2119.700 2020.840 56.257 14.611 o
1 -4 0 9990.640 10310.700 269.374 0.806 o
1 -4 1 766.062 786.434 15.456 89.325 o
1 -4 2 8488.510 8299.470 336.390 0.597 o
1 -4 3 16126.900 16114.800 520.598 0.240 o
1 -4 4 4763.280 4842.050 81.362 5.626 o
1 -4 5 345.809 361.314 24.337 91.597 o
1 -4 6 7116.810 7292.350 113.243 2.928 o
1 -4 7 10285.900 10226.300 156.041 1.573 o
1 -4 8 3090.580 2860.040 70.521 9.074 o
1 -3 0 7084.420 7208.480 261.851 0.953 o
1 -3 1 5522.170 5484.170 151.954 2.436 o
1 -3 2 3346.960 3430.910 58.304 10.154 o
1 -3 3 2759.860 2803.260 51.537 13.248 o
1 -3 4 1777.260 1782.710 37.759 24.438 o
1 -3 5 878.740 898.979 30.994 45.872 o
1 -3 6 1111.870 1101.160 34.061 36.633 o
1 -3 7 26.401 35.158 9.105 759.500 o
1 -3 8 969.182 925.664 50.572 23.235 o
1 -2 0 42383.200 37093.800 600.279 0.116 o
1 -2 1 18842.500 17672.100 521.804 0.228 o
1 -2 2 111.850 177.860 14.108 266.195 o
1 -2 3 6702.760 6610.550 167.584 1.938 o
1 -2 4 19193.800 18556.100 357.830 0.384 o
1 -2 5 7288.360 7362.340 110.926 2.937 o
1 -2 6 347.142 358.718 24.436 91.082 o
1 -2 7 1713.510 1713.010 47.089 20.035 o
1 -1 0 1188.610 1267.750 22.404 49.002 o
1 -1 1 30022.900 29095.200 572.107 0.156 o
1 -1 2 30282.400 29369.300 595.692 0.147 o
1 -1 3 8919.980 9254.920 233.217 1.048 o
1 -1 4 3209.510 3308.200 60.591 10.119 o
1 -1 5 7984.050 8008.550 146.983 2.048 o
1 -1 6 11236.000 11355.800 153.802 1.461 o
1 -1 7 2143.780 2080.050 54.440 15.030 o
1 0 0 1675.710 1580.630 58.767 15.497 o
1 0 1 1354.270 1423.340 26.802 39.162 o
1 0 2 10.588 7.880 4.074 3365.100 o
1 0 3 4416.190 4574.970 71.869 6.677 o
1 0 4 1035.810 1043.200 33.695 38.417 o
1 0 5 365.646 404.345 24.792 87.033 o
1 0 6 46.759 38.213 11.456 484.588 o
1 0 7 2059.050 1916.970 55.008 15.309 o
1 1 0 16813.100 15733.100 504.614 0.250 o
1 1 1 243.390 218.564 12.785 233.627 o
1 1 2 6625.510 6236.130 218.857 1.313 o
1 1 3 16864.500 17065.200 330.621 0.458 o
1 1 4 3870.120 3941.530 85.753 6.179 o
1 1 5 719.973 746.777 35.892 41.618 o
1 1 6 2867.380 2763.790 64.649 10.402 o
1 2 0 15978.800 14715.000 293.829 0.563 o
1 2 1 14780.900 14712.800 538.258 0.232 o
1 2 2 2564.390 2601.330 45.123 15.753 o
1 2 3 2907.070 3053.800 63.881 10.251 o
1 2 4 10723.600 10892.700 156.591 1.500 o
1 2 5 8009.970 8115.210 122.092 2.468 o
1 2 6 1467.620 1515.760 46.281 22.081 o
1 3 0 988.539 979.656 19.414 63.839 o
1 3 1 156.892 161.686 16.154 209.241 o
1 3 2 4933.290 4986.840 72.977 6.017 o
1 3 3 297.169 276.145 17.064 154.853 o
1 3 4 465.881 472.252 32.517 55.284 o
1 3 5 964.780 901.574 36.519 36.627 o
1 4 0 212.236 231.202 13.416 231.039 o
1 4 1 6490.970 6741.070 178.907 1.779 o
1 4 2 9151.090 9185.460 133.247 2.023 o
1 4 3 205.391 208.089 22.773 117.343 o
1 4 4 128.931 119.581 20.476 154.164 o
1 5 0 12304.900 12242.200 264.800 0.747 o
1 5 1 1509.160 1546.680 29.831 33.415 o
1 5 2 3263.730 3319.550 57.331 10.542 o
1 5 3 8011.520 7916.820 116.595 2.593 o
1 6 0 2458.920 2457.650 145.948 3.262 o
1 6 1 3672.870 3670.850 123.842 3.878 o
1 6 2 203.970 195.949 34.913 57.489 o
1 7 0 5119.260 5192.600 153.039 2.483 o
1 7 1 3688.010 3942.470 309.709 0.777 o
1 8 0 911.214 1003.720 71.161 13.369 o
2 -9 1 6361.030 6149.510 184.353 1.734 o
2 -9 2 2521.830 2512.640 79.986 8.484 o
2 -9 3 2206.580 2296.450 93.245 7.060 o
2 -9 4 7857.280 7651.540 115.090 2.683 o
2 -9 5 6298.690 6284.600 110.715 3.333 o
2 -9 6 1750.060 1707.750 50.992 18.128 o
2 -8 0 265.687 316.651 45.513 34.410 o
2 -8 1 504.175 591.436 50.678 26.276 o
2 -8 2 2872.450 3125.200 126.271 4.021 o
2 -8 3 667.446 679.399 29.966 54.438 o
2 -8 4 192.728 191.381 15.939 199.373 o
2 -8 5 1210.410 1171.080 36.560 32.479 o
2 -8 6 4609.340 4670.630 95.407 4.887 o
2 -8 7 442.714 433.568 32.118 57.299 o
2 -7 0 322.900 361.566 35.234 52.549 o
2 -7 1 5107.630 5299.700 148.226 2.596 o
2 -7 2 8538.620 8661.000 161.002 1.754 o
2 -7 3 1509.460 1561.380 35.253 28.984 o
2 -7 4 387.692 448.721 23.765 89.549 o
2 -7 5 6978.910 7058.700 116.954 2.894 o
2 -7 6 3739.910 3860.720 118.842 4.079 o
2 -7 7 42.689 56.064 9.429 643.683 o
2 -6 0 8233.550 8208.180 234.923 1.079 o
2 -6 1 924.162 962.095 18.998 67.469 o
2 -6 2 6414.080 6357.260 76.370 4.506 o
2 -6 4 9749.840 9713.350 130.963 1.939 o
2 -6 5 2626.520 2619.840 50.962 13.967 o
2 -6 6 6068.390 6161.220 107.044 3.537 o
2 -6 7 9520.870 9554.240 141.048 1.851 o
2 -5 0 2665.280 2818.930 39.616 16.551 o
2 -5 1 9087.010 8704.890 250.703 0.945 o
2 -5 2 27.051 39.410 5.227 1599.170 o
2 -5 3 49.141 74.870 8.460 700.040 o
2 -5 4 4306.890 4466.780 80.863 6.091 o
2 -5 5 7405.850 7363.270 110.406 2.921 o
2 -5 6 312.960 330.425 26.637 82.791 o
2 -5 7 117.271 127.466 16.215 224.876 o
2 -4 0 10847.700 10142.700 375.436 0.467 o
2 -4 1 8394.440 8285.230 427.301 0.391 o
2 -4 2 64.061 95.901 9.916 519.754 o
2 -4 3 237.960 259.739 15.191 190.922 o
2 -4 4 7266.860 7281.670 114.050 2.875 o
2 -4 5 4216.990 4248.950 74.740 6.742 o
2 -4 6 11.306 18.829 7.417 1214.830 o
2 -4 7 83.921 123.350 14.209 289.891 o
2 -3 0 2680.480 2671.280 40.993 16.389 o
2 -3 1 10741.500 10177.400 192.666 1.228 o
2 -3 2 26052.200 25333.700 1005.620 0.069 o
2 -3 3 7553.610 7270.460 132.597 2.416 o
2 -3 4 4047.840 4256.650 78.817 6.524 o
2 -3 5 7184.880 7236.920 144.804 2.240 o
2 -3 6 11338.300 11768.100 181.557 1.227 o
2 -3 7 3569.380 3664.140 79.706 7.061 o
2 -2 0 14261.700 12868.800 495.114 0.273 o
2 -2 1 101.528 97.960 8.358 556.205 o
2 -2 2 114.369 99.375 10.972 395.970 o
2 -2 3 9977.760 10126.000 317.367 0.627 o
2 -2 4 9496.630 9665.490 145.344 1.796 o
2 -2 5 1253.110 1238.880 52.089 20.385 o
2 -2 6 801.164 862.273 38.725 35.895 o
2 -2 7 5396.820 5214.830 98.208 4.284 o
2 -1 0 10165.700 10060.400 248.956 0.903 o
2 -1 1 1313.910 1382.260 28.974 37.773 o
2 -1 2 939.710 951.729 33.094 41.210 o
2 -1 3 9654.730 9842.770 174.064 1.466 o
2 -1 4 1332.170 1334.080 65.891 14.078 o
2 -1 5 379.328 366.844 24.775 87.383 o
2 -1 6 109.539 128.779 17.631 199.462 o
2 0 0 20376.200 19640.100 492.045 0.240 o
2 0 1 31486.400 29531.200 605.418 0.142 o
2 0 2 7789.610 7856.450 163.614 1.831 o
2 0 3 3787.800 3790.210 66.970 8.159 o
2 0 4 13067.200 13060.200 225.383 0.875 o
2 0 5 9094.420 9233.110 141.910 1.910 o
2 0 6 2066.240 2079.420 58.139 14.106 o
2 1 0 135.488 153.134 11.800 326.162 o
2 1 1 1038.360 976.182 32.524 40.379 o
2 1 2 13323.400 13305.500 274.386 0.679 o
2 1 3 5017.570 5136.900 85.319 5.144 o
2 1 4 92.457 101.065 13.489 314.535 o
2 1 5 2078.600 2082.470 57.108 14.379 o
2 2 0 1585.290 1557.620 49.248 19.863 o
2 2 1 1510.250 1496.870 36.191 28.548 o
2 2 2 7786.780 8010.860 137.102 2.239 o
2 2 3 290.833 283.628 22.175 111.171 o
2 2 4 485.136 491.818 34.569 49.866 o
2 2 5 740.811 771.231 38.198 37.776 o
2 3 0 16651.100 14518.600 523.733 0.238 o
2 3 1 1839.520 1862.000 39.337 22.926 o
2 3 2 3310.340 3309.690 66.478 9.096 o
2 3 3 11225.800 11263.200 186.077 1.217 o
2 3 4 5585.510 5563.810 94.516 4.303 o
2 4 0 4659.760 4636.570 87.142 5.375 o
2 4 1 13828.300 13554.400 493.364 0.275 o
2 4 2 3546.720 3607.120 107.053 4.858 o
2 4 3 561.494 574.352 26.292 68.904 o
2 5 0 1450.620 1498.110 32.952 31.677 o
2 5 1 1555.090 1569.670 37.064 27.254 o
2 5 2 26.083 47.444 8.914 764.677 o
2 6 0 1254.000 1275.690 28.550 39.904 o
2 6 1 2787.890 2654.560 46.822 14.510 o
2 7 0 6016.150 5721.930 171.752 1.976 o
3 -9 1 899.713 869.804 69.392 14.093 o
3 -9 2 1693.080 1783.710 100.968 6.592 o
3 -9 3 6.291 7.672 6.088 1880.070 o
3 -9 4 608.196 630.408 36.297 43.364 o
3 -9 5 204.162 214.987 23.067 114.838 o
3 -8 0 7655.950 7896.960 264.482 0.915 o
3 -8 1 1495.700 1584.300 86.846 8.716 o
3 -8 2 2978.530 3043.310 62.566 10.372 o
3 -8 3 10487.500 10358.900 165.391 1.462 o
3 -8 4 6548.650 6424.730 167.272 1.967 o
3 -8 5 973.609 980.988 32.779 40.941 o
3 -8 6 2413.510 2312.740 64.413 11.563 o
3 -7 0 1914.930 1934.700 54.645 15.815 o
3 -7 1 11356.900 11623.000 177.570 1.258 o
3 -7 2 2490.070 2551.620 46.431 15.706 o
3 -7 3 455.313 463.598 28.056 68.787 o
3 -7 4 5214.880 5291.600 84.690 5.029 o
3 -7 5 9725.350 9638.510 128.299 1.981 o
3 -7 6 3492.040 3447.390 71.315 8.168 o
3 -6 0 1676.370 1699.510 33.837 27.956 o
3 -6 1 3379.190 3343.610 62.282 9.577 o
3 -6 2 132.620 135.429 12.467 312.669 o
3 -6 3 366.953 389.545 20.375 112.282 o
3 -6 4 327.020 363.304 27.692 76.815 o
3 -6 5 680.616 717.357 43.701 31.732 o
3 -6 6 556.168 548.618 25.991 70.546 o
3 -6 7 826.856 874.679 53.821 21.776 o
3 -5 0 1862.390 1822.560 34.573 25.531 o
3 -5 1 5903.310 6077.270 81.796 4.607 o
3 -5 3 7346.180 7419.960 123.032 2.638 o
3 -5 4 941.261 911.386 36.156 37.306 o
3 -5 5 2626.300 2615.240 60.994 11.645 o
3 -5 6 6049.140 5925.460 94.201 4.056 o
3 -5 7 2555.910 2480.890 61.670 11.755 o
3 -4 0 20899.600 20337.000 459.387 0.261 o
3 -4 1 7947.430 7724.790 152.911 1.978 o
3 -4 2 1562.960 1576.130 31.876 31.005 o
3 -4 3 11339.300 11154.400 238.138 0.905 o
3 -4 4 12537.600 12470.900 177.017 1.164 o
3 -4 5 2871.100 2947.970 64.690 10.248 o
3 -4 6 838.978 810.066 37.490 37.373 o
3 -4 7 4711.050 4754.870 95.944 4.790 o
3 -3 0 759.936 689.497 20.711 75.914 o
3 -3 1 1300.070 1266.870 29.033 38.734 o
3 -3 2 1914.280 1865.150 48.588 18.230 o
3 -3 3 395.019 345.866 23.459 93.706 o
3 -3 4 27.323 33.677 8.800 801.053 o
3 -3 5 2283.730 2461.190 58.269 13.129 o
3 -3 6 770.416 802.632 41.323 33.325 o
3 -2 0 14199.900 13838.500 352.634 0.465 o
3 -2 1 23155.700 21660.700 506.367 0.217 o
3 -2 2 8524.030 8634.680 215.970 1.200 o
3 -2 3 990.397 962.223 31.869 42.122 o
3 -2 4 7739.170 7786.550 118.827 2.615 o
3 -2 5 7008.710 7164.720 118.176 2.846 o
3 -2 6 655.934 754.584 39.241 37.379 o
3 -1 0 2058.610 2118.320 49.134 17.027 o
3 -1 1 2852.380 2922.080 55.258 12.090 o
3 -1 2 24698.400 25107.900 515.194 0.201 o
3 -1 4 1828.320 1749.270 47.757 19.158 o
3 -1 5 2859.610 2802.180 66.338 10.089 o
3 -1 6 7154.920 7226.550 140.128 2.334 o
3 0 0 5469.890 5578.520 142.762 2.661 o
3 0 1 149.587 129.746 12.118 314.678 o
3 0 2 851.774 844.937 28.724 50.979 o
3 0 3 369.971 360.900 33.886 55.047 o
3 0 4 3845.430 3979.770 79.187 6.759 o
3 0 5 295.958 329.780 26.665 83.475 o
3 1 0 19581.900 19032.800 565.743 0.197 o
3 1 1 1087.850 1098.570 33.555 37.550 o
3 1 2 560.244 565.003 40.496 37.661 o
3 1 3 6342.260 6210.490 116.957 3.142 o
3 1 4 5480.290 5580.390 102.667 3.989 o
3 1 5 274.024 311.983 26.272 86.909 o
3 2 0 3741.840 3756.370 73.044 7.557 o
3 2 2 8852.590 8938.970 150.228 1.846 o
3 2 3 1310.070 1279.800 47.162 22.949 o
3 2 4 2596.750 2448.450 64.255 11.168 o
3 3 0 104.545 159.975 14.210 270.863 o
3 3 1 136.064 169.881 19.324 163.784 o
3 3 2 1341.590 1235.090 53.367 19.376 o
3 3 3 2873.470 2747.720 74.972 8.736 o
3 4 0 1254.090 1230.130 40.660 28.154 o
3 4 1 1224.580 1287.990 41.973 27.103 o
3 4 2 4238.110 4238.800 83.720 5.997 o
3 4 3 2072.780 1993.400 58.797 13.999 o
3 5 0 13885.900 14122.300 405.214 0.377 o
3 5 1 5969.460 6040.930 102.121 3.762 o
3 5 2 1031.180 928.119 40.998 30.841 o
3 6 0 11.102 20.910 6.827 1386.990 o
3 6 1 1815.620 1748.020 46.661 19.713 o
4 -9 1 9039.590 9155.960 280.672 0.789 o
4 -9 2 5899.210 5739.080 95.060 4.117 o
4 -9 3 1151.070 1159.630 56.088 18.787 o
4 -9 4 3041.270 2922.330 88.006 6.885 o
4 -8 0 206.397 230.823 15.265 201.436 o
4 -8 1 97.890 119.106 11.246 390.336 o
4 -8 2 1679.010 1624.250 39.039 24.863 o
4 -8 3 2916.260 2868.250 63.650 10.421 o
4 -8 4 334.590 298.953 26.125 84.925 o
4 -8 5 33.982 46.345 9.268 697.513 o
4 -7 0 212.973 264.973 18.091 158.232 o
4 -7 1 488.097 496.954 40.892 38.207 o
4 -7 2 4841.430 4722.920 94.993 4.791 o
4 -7 3 3202.880 3138.780 69.983 8.847 o
4 -7 4 164.525 159.271 13.338 265.819 o
4 -7 5 367.828 387.431 30.648 64.175 o
4 -7 6 2986.340 2775.820 126.322 4.033 o
4 -6 0 11685.500 11817.600 185.013 1.182 o
4 -6 1 7955.350 7877.710 122.711 2.488 o
4 -6 2 1550.460 1477.760 45.540 22.182 o
4 -6 3 5309.680 5049.950 131.235 3.064 o
4 -6 4 11590.000 11615.100 168.744 1.307 o
4 -6 5 3537.710 3333.580 83.700 6.816 o
4 -6 6 1083.090 1097.430 36.025 34.756 o
4 -5 0 184.525 215.400 15.307 208.824 o
4 -5 1 4452.840 4567.260 85.222 5.646 o
4 -5 2 7108.450 6967.900 157.720 2.039 o
4 -5 3 708.068 728.301 25.219 64.312 o
4 -5 4 603.890 638.767 28.610 59.866 o
4 -5 5 3680.120 3611.370 73.627 7.625 o
4 -5 6 2304.160 2259.110 61.783 12.421 o
4 -4 0 2495.400 2577.010 51.120 14.339 o
4 -4 1 7661.250 7756.350 126.411 2.479 o
4 -4 2 1221.440 1123.380 31.301 38.281 o
4 -4 3 465.051 474.178 23.680 85.013 o
4 -4 4 530.794 602.578 40.648 37.552 o
4 -4 5 3480.300 3452.100 68.555 8.521 o
4 -4 6 138.604 138.055 17.742 189.599 o
4 -3 0 8465.400 8233.870 167.714 1.697 o
4 -3 1 3271.100 3208.090 60.469 10.120 o
4 -3 2 12839.100 12573.000 248.545 0.792 o
4 -3 3 15903.200 16186.600 221.142 0.749 o
4 -3 4 2005.310 2078.450 61.185 13.371 o
4 -3 5 1618.590 1630.100 51.755 18.413 o
4 -3 6 6340.940 6197.220 116.105 3.169 o
4 -2 0 13291.400 13328.800 318.871 0.553 o
4 -2 1 5442.680 5284.590 86.359 4.823 o
4 -2 2 124.951 123.777 12.296 326.822 o
4 -2 3 2005.450 1960.740 74.957 10.206 o
4 -2 4 7294.530 7300.080 119.287 2.745 o
4 -2 5 2892.170 2952.330 70.925 9.200 o
4 -1 0 16132.100 15842.900 478.043 0.276 o
4 -1 1 193.474 181.824 18.280 166.391 o
4 -1 2 159.410 196.907 17.537 181.794 o
4 -1 3 1254.030 1262.530 44.693 24.963 o
4 -1 4 2801.910 2865.310 66.782 10.051 o
4 -1 5 9.520 16.276 9.230 840.685 o
4 0 0 3910.390 3952.170 69.888 7.623 o
4 0 2 12109.700 12139.500 175.746 1.208 o
4 0 3 1705.780 1699.840 47.212 20.039 o
4 0 4 1209.730 1143.800 41.270 28.309 o
4 1 0 7608.050 7598.250 140.127 2.241 o
4 1 1 753.140 733.186 37.435 38.937 o
4 1 2 3549.170 3548.490 77.393 7.369 o
4 1 3 5556.600 5683.850 101.806 3.979 o
4 1 4 2025.240 1984.470 77.077 9.760 o
4 2 0 180.758 178.364 16.792 190.391 o
4 2 1 568.856 569.849 27.273 65.698 o
4 2 2 886.139 836.919 54.836 20.978 o
4 2 3 870.736 832.443 37.426 36.959 o
4 3 0 12586.000 12780.500 281.411 0.677 o
4 3 1 8434.680 8810.700 156.205 1.819 o
4 3 2 1039.880 1034.450 39.831 31.473 o
4 3 3 2046.730 1904.370 58.178 14.353 o
4 4 0 965.117 938.042 36.493 36.442 o
4 4 1 4900.300 4837.480 92.820 4.857 o
4 4 2 6673.030 6467.770 119.202 2.971 o
4 5 0 118.553 122.362 15.573 239.294 o
4 5 1 1037.420 990.014 46.057 26.065 o
4 6 0 2518.790 2378.910 84.482 7.914 o
5 -8 0 6379.270 6444.780 99.226 3.659 o
5 -8 1 4385.280 4374.750 79.606 6.165 o
5 -8 2 1011.490 979.928 37.774 34.195 o
5 -8 3 1508.750 1454.910 50.712 19.657 o
5 -8 4 6009.030 5619.280 214.100 1.403 o
5 -7 0 1327.790 1291.840 38.889 28.787 o
5 -7 1 3799.230 3845.640 71.291 7.642 o
5 -7 2 6286.640 6409.900 124.206 2.927 o
5 -7 3 1416.960 1388.460 48.997 21.088 o
5 -7 4 605.020 480.370 42.041 35.466 o
5 -6 0 513.175 496.608 27.371 68.502 o
5 -6 1 1034.200 1029.150 35.841 35.903 o
5 -6 2 227.469 265.364 30.441 71.163 o
5 -6 3 1309.490 1297.670 63.160 15.120 o
5 -6 4 144.452 154.271 15.373 229.206 o
5 -6 5 603.133 642.485 36.281 43.377 o
5 -5 0 4440.220 4467.050 82.295 5.894 o
5 -5 1 990.152 1038.540 36.857 35.158 o
5 -5 2 5109.350 5166.740 102.546 4.204 o
5 -5 3 8301.200 8312.490 133.234 2.206 o
5 -5 4 1911.880 1913.780 49.388 17.823 o
5 -5 5 277.327 265.095 26.317 87.714 o
5 -4 0 15476.500 15275.300 252.494 0.677 o
5 -4 1 11509.700 11515.900 203.074 1.084 o
5 -4 2 1747.330 1858.910 52.033 17.440 o
5 -4 3 2324.770 2301.480 53.148 14.620 o
5 -4 4 8286.740 8094.690 152.757 1.921 o
5 -4 5 4968.390 4763.720 88.626 5.080 o
5 -3 0 2359.430 2343.780 50.098 15.360 o
5 -3 1 145.425 183.511 16.410 204.859 o
5 -3 2 3303.920 3465.800 72.177 8.255 o
5 -3 3 52.029 77.231 12.566 391.717 o
5 -3 4 450.770 453.234 33.116 54.317 o
5 -3 5 93.687 102.019 15.991 242.153 o
5 -2 0 352.620 373.239 24.165 91.749 o
5 -2 1 7159.890 7479.500 119.112 2.758 o
5 -2 2 8181.560 8257.030 133.357 2.226 o
5 -2 3 2261.020 2408.630 60.306 12.720 o
5 -2 4 609.800 618.084 38.111 40.411 o
5 -1 0 9082.070 9056.720 148.847 1.832 o
5 -1 1 1518.960 1620.180 44.989 22.291 o
5 -1 2 3243.520 3348.370 90.222 6.386 o
5 -1 3 8775.580 8672.800 148.534 1.892 o
5 -1 4 4743.080 4891.770 98.589 4.601 o
5 0 0 602.027 626.118 31.020 54.138 o
5 0 1 4891.700 5068.530 101.846 4.339 o
5 0 2 106.336 122.531 17.107 210.887 o
5 0 3 81.695 77.733 14.965 279.581 o
5 1 0 5906.410 6242.880 128.954 2.893 o
5 1 1 4623.210 4657.890 97.975 4.738 o
5 1 2 230.198 231.492 21.735 122.370 o
5 1 3 389.051 421.508 35.174 50.901 o
5 2 0 2052.200 2083.690 57.076 14.453 o
5 2 1 4464.240 4644.050 93.648 5.069 o
5 2 2 8958.640 9053.520 157.009 1.743 o
5 3 0 3477.520 3373.020 82.731 6.944 o
5 3 1 15.521 17.663 8.242 990.775 o
5 3 2 15.855 23.480 10.640 622.931 o
5 4 0 2202.860 2191.460 64.999 11.903 o
5 4 1 81.077 102.484 15.119 269.705 o
5 5 0 5637.650 5482.390 104.775 3.865 o
6 -7 0 1345.560 1375.340 44.838 23.998 o
6 -7 1 42.451 40.437 12.048 450.090 o
6 -7 2 914.943 927.934 66.781 14.968 o
6 -7 3 2989.090 2854.400 77.597 8.196 o
6 -6 0 7770.900 7720.670 120.645 2.578 o
6 -6 1 8699.540 8756.370 153.769 1.826 o
6 -6 2 1962.070 1972.740 60.142 13.881 o
6 -6 3 1952.880 1878.670 62.316 13.373 o
6 -5 0 24.894 27.254 9.048 786.710 o
6 -5 1 402.786 428.110 30.997 61.554 o
6 -5 2 5400.150 5370.680 97.665 4.276 o
6 -5 3 3038.200 2833.810 75.574 8.429 o
6 -5 4 314.086 328.089 29.845 69.508 o
6 -4 0 13.108 25.624 9.172 816.451 o
6 -4 1 1619.170 1548.930 56.194 16.670 o
6 -4 2 3637.740 3553.610 79.926 7.028 o
6 -4 3 331.154 337.114 30.325 67.104 o
6 -4 4 9.029 10.999 9.066 882.756 o
6 -3 0 10290.800 10278.000 178.629 1.364 o
6 -3 1 2077.250 2046.680 58.175 14.108 o
6 -3 2 2405.870 2482.150 78.362 8.860 o
6 -3 3 7230.660 7147.060 130.788 2.518 o
6 -2 0 998.249 1041.890 35.449 36.720 o
6 -2 1 5576.960 5817.450 105.977 3.783 o
6 -2 2 2328.460 2287.850 81.510 8.546 o
6 -2 3 107.130 126.753 18.218 190.111 o
6 -1 0 1209.100 1220.570 39.764 29.302 o
6 -1 1 2975.170 3162.710 80.977 7.639 o
6 -1 2 3.035 30.179 21.225 171.058 o
6 -1 3 19.335 31.732 10.945 576.573 o
6 0 0 1294.040 1325.960 51.912 20.145 o
6 0 1 3827.720 3907.960 84.824 6.297 o
6 0 2 8696.600 9021.620 157.563 1.764 o
6 1 0 8456.660 8349.360 150.805 1.915 o
6 1 1 1885.460 1875.520 55.923 15.540 o
6 1 2 288.826 324.348 32.395 61.639 o
6 2 0 851.850 874.681 49.508 24.719 o
6 2 1 358.584 392.877 34.595 53.144 o
6 3 0 4618.300 4542.930 107.663 4.251 o
7 -6 0 543.446 485.619 36.819 44.429 o
7 -6 1 57.620 63.556 15.230 286.635 o
7 -6 2 467.791 500.325 60.321 19.574 o
7 -5 0 7846.490 8291.010 217.954 1.222 o
7 -5 1 2196.890 2201.490 67.262 11.388 o
7 -5 2 841.145 869.993 38.636 35.540 o
7 -4 0 2182.330 2168.310 58.771 13.552 o
7 -4 1 7332.990 7214.090 125.900 2.598 o
7 -4 2 5867.930 5957.230 174.382 1.934 o
7 -3 0 19.224 28.749 11.318 546.256 o
7 -3 1 223.989 216.701 22.034 121.222 o
7 -3 2 436.303 534.700 38.860 41.897 o
7 -2 0 393.852 419.056 29.236 67.571 o
7 -2 1 783.993 865.121 43.850 30.194 o
7 -2 2 5061.620 4962.510 107.268 4.043 o
7 -1 0 10188.800 10303.400 165.396 1.488 o
7 -1 1 3507.200 3447.390 141.717 3.187 o
7 0 0 17.661 26.650 9.634 732.291 o
7 0 1 1883.270 1946.660 60.439 14.000 o
7 1 0 1434.180 1379.660 52.577 19.164 o
7 2 0 2386.460 2239.090 63.871 11.796 o
8 -5 0 938.638 1018.050 75.546 12.005 o
8 -4 0 58.105 60.137 12.775 383.814 o
8 -3 0 8388.660 8510.890 151.089 1.910 o
8 -2 0 326.832 343.451 28.912 72.315 o
8 -1 0 40.654 63.899 15.608 282.815 o
;
_olex2_submission_special_instructions 'No special instructions were received'
loop_
_space_group_symop_id
_space_group_symop_operation_xyz
1 x,y,z
2 -x,-y,-z
loop_
_atom_site_label
_atom_site_type_symbol
_atom_site_fract_x
_atom_site_fract_y
_atom_site_fract_z
_atom_site_U_iso_or_equiv
_atom_site_adp_type
_atom_site_occupancy
_atom_site_refinement_flags_posn
Re1 Re 0.25696(2) 0.34094(2) 0.50570(2) 0.00916(6) Uani 1.000000 .
Ag1 Ag 0.65756(4) 0.10481(4) 0.75647(4) 0.01187(8) Uani 1.000000 .
O3 O 0.2372(5) 0.5722(4) 0.6228(5) 0.0189(6) Uani 1.000000 .
O1 O 0.1315(4) 0.1951(4) 0.5518(4) 0.0156(6) Uani 1.000000 .
O2 O 0.5182(5) 0.3551(4) 0.6163(5) 0.0198(6) Uani 1.000000 .
N1 N 0.9648(5) 0.2332(5) 0.8376(6) 0.0112(6) Uani 1.000000 .
N2 N 0.3826(5) -0.0247(5) 0.7308(5) 0.0118(6) Uani 1.000000 .
O4 O 0.1462(5) 0.2345(4) 0.2329(5) 0.0203(6) Uani 1.000000 .
C2 C 0.4046(6) 0.0215(6) 0.9380(6) 0.0114(7) Uani 1.000000 .
C1 C 1.0240(6) 0.4423(6) 0.9122(6) 0.0109(7) Uani 1.000000 .
H7 H 1.157(7) 0.491(6) 0.952(7) 0.002(9) Uiso 1.000000 .
H8 H 0.943(8) 0.455(7) 0.783(8) 0.016(12) Uiso 1.000000 .
H3 H 0.273(9) 0.024(8) 0.667(9) 0.031(15) Uiso 1.000000 .
H6 H 0.990(7) 0.175(7) 0.737(8) 0.012(11) Uiso 1.000000 .
H2 H 0.415(8) 0.158(8) 1.013(8) 0.023(13) Uiso 1.000000 .
H1 H 0.274(8) -0.059(7) 0.908(8) 0.021(12) Uiso 1.000000 .
H4 H 0.340(7) -0.158(8) 0.645(8) 0.014(11) Uiso 1.000000 .
H5 H 1.031(7) 0.216(6) 0.937(8) 0.008(11) Uiso 1.000000 .
loop_
_atom_site_aniso_label
_atom_site_aniso_U_11
_atom_site_aniso_U_22
_atom_site_aniso_U_33
_atom_site_aniso_U_12
_atom_site_aniso_U_13
_atom_site_aniso_U_23
Re1 0.00963(9) 0.00849(9) 0.00962(9) 0.00258(6) 0.00436(6) 0.00554(6)
Ag1 0.01277(15) 0.01117(15) 0.01253(15) 0.00249(11) 0.00711(12) 0.00647(12)
O3 0.0207(16) 0.0117(14) 0.0248(16) 0.0044(12) 0.0126(13) 0.0092(12)
O1 0.0182(15) 0.0161(14) 0.0189(14) 0.0066(12) 0.0121(12) 0.0114(12)
O2 0.0119(14) 0.0231(16) 0.0274(16) 0.0056(12) 0.0076(13) 0.0177(14)
N1 0.0137(17) 0.0131(17) 0.0112(16) 0.0063(13) 0.0072(14) 0.0086(14)
N2 0.0114(16) 0.0102(17) 0.0128(16) 0.0027(13) 0.0050(13) 0.0065(14)
O4 0.0275(17) 0.0178(15) 0.0129(14) 0.0039(12) 0.0085(13) 0.0082(12)
C2 0.014(2) 0.0067(18) 0.0139(18) 0.0041(15) 0.0074(16) 0.0055(15)
C1 0.0104(19) 0.0104(18) 0.0096(18) -0.0003(15) 0.0062(16) 0.0032(15)
loop_
_atom_type_symbol
_atom_type_description
_atom_type_scat_dispersion_real
_atom_type_scat_dispersion_imag
_atom_type_scat_source
C C 0.0033 0.0016 'International Tables Vol C Tables 4.2.6.8 and 6.1.1.4'
H H 0.0000 0.0000 'International Tables Vol C Tables 4.2.6.8 and 6.1.1.4'
Ag Ag -0.8971 1.1015 'International Tables Vol C Tables 4.2.6.8 and 6.1.1.4'
N N 0.0061 0.0033 'International Tables Vol C Tables 4.2.6.8 and 6.1.1.4'
O O 0.0106 0.0060 'International Tables Vol C Tables 4.2.6.8 and 6.1.1.4'
Re Re -1.0185 7.2310 'International Tables Vol C Tables 4.2.6.8 and 6.1.1.4'
loop_
_geom_angle_atom_site_label_1
_geom_angle_atom_site_label_2
_geom_angle_atom_site_label_3
_geom_angle
_geom_angle_site_symmetry_1
_geom_angle_site_symmetry_3
_geom_angle_publ_flag
O1 Re1 O3 110.42(13) . . ?
O2 Re1 O3 109.05(14) . . ?
O2 Re1 O1 108.82(13) . . ?
O4 Re1 O3 110.88(14) . . ?
O4 Re1 O1 108.64(14) . . ?
O4 Re1 O2 108.99(15) . . ?
N2 Ag1 N1 168.79(13) . . ?
C1 N1 Ag1 116.7(2) . . ?
H6 N1 Ag1 114(3) . . ?
H6 N1 C1 106(3) . . ?
H5 N1 Ag1 97(3) . . ?
H5 N1 C1 111(3) . . ?
H5 N1 H6 111(4) . . ?
C2 N2 Ag1 114.6(2) . . ?
H3 N2 Ag1 108(3) . . ?
H3 N2 C2 108(3) . . ?
H4 N2 Ag1 111(3) . . ?
H4 N2 C2 106(3) . . ?
H4 N2 H3 109(4) . . ?
C2 C2 N2 110.3(4) 2_657 . ?
H2 C2 N2 106(3) . . ?
H1 C2 N2 109(3) . . ?
H1 C2 H2 109(4) . . ?
C1 C1 N1 109.7(4) 2_767 . ?
H7 C1 N1 113(3) . . ?
H8 C1 N1 108(3) . . ?
H8 C1 H7 102(4) . . ?
loop_
_geom_bond_atom_site_label_1
_geom_bond_atom_site_label_2
_geom_bond_distance
_geom_bond_site_symmetry_2
_geom_bond_publ_flag
Re1 O3 1.723(3) . ?
Re1 O1 1.735(3) . ?
Re1 O2 1.732(3) . ?
Re1 O4 1.723(3) . ?
Ag1 Ag1 3.2484(6) 2_656 ?
Ag1 N1 2.141(3) . ?
Ag1 N2 2.134(3) . ?
N1 C1 1.481(5) . ?
N1 H6 0.85(5) . ?
N1 H5 0.83(5) . ?
N2 C2 1.483(5) . ?
N2 H3 0.98(6) . ?
N2 H4 0.92(5) . ?
C2 C2 1.522(8) 2_657 ?
C2 H2 0.97(5) . ?
C2 H1 1.01(5) . ?
C1 C1 1.518(7) 2_767 ?
C1 H7 0.90(4) . ?
C1 H8 1.03(5) . ?
loop_
_refln_index_h
_refln_index_k
_refln_index_l
_refln_F_squared_meas
_refln_F_squared_sigma
-1 0 0 400.76 14.9
-2 0 0 4915.51 169.08
-2 0 0 4752.72 305.37
2 0 0 5516.95 320.37
2 0 0 4943.71 168.18
-3 0 0 1418.36 51.29
3 0 0 1410.46 51.09
-4 0 0 1040.8 43.6
-4 0 0 979.7 43.1
-4 0 0 986.1 43.4
-4 0 0 1016.1 45.3
4 0 0 996.2 42.9
4 0 0 993.3 42.3
-5 0 0 174.98 20.6
-5 0 0 144.79 19.7
-5 0 0 189.58 17.4
-5 0 0 154.38 15.6
5 0 0 125.49 16.5
5 0 0 151.88 19.7
-6 0 0 345.27 27
-6 0 0 321.17 26
6 0 0 304.97 24.7
6 0 0 372.06 26.9
-7 0 0 7.8 7.1
-7 0 0 10.2 7.1
-7 0 0 4.4 5.2
-7 0 0 9 6.8
7 0 0 11.6 8.1
7 0 0 2 4.3
8 -1 0 22.1 10.2
8 -1 0 13.8 8.3
-8 1 0 31.4 11.6
-8 1 0 13 8.3
-8 1 0 7.1 7.5
7 -1 0 2547.05 101.49
7 -1 0 2651.73 102.29
-7 1 0 2577.14 105.39
-7 1 0 2663.73 103.79
-7 1 0 2604.04 103.09
-7 1 0 2626.54 100.49
6 -1 0 304.67 24.6
6 -1 0 269.27 23.1
-6 1 0 306.67 25.8
-6 1 0 291.77 24.6
-6 1 0 337.67 25.9
-6 1 0 341.67 24.5
5 -1 0 2243.78 83.29
5 -1 0 2222.78 82.99
-5 1 0 2285.17 85.99
-5 1 0 2399.96 84.89
-5 1 0 2326.07 84.89
4 -1 0 3445.86 354.06
4 -1 0 3980.7 162.28
4 -1 0 4162.28 168.28
-4 1 0 4707.63 409.96
-4 1 0 4035.2 166.58
-4 1 0 3852.41 168.88
3 -1 0 519.75 24.8
-3 1 0 518.15 25.1
-3 1 0 557.94 23.6
-3 1 0 548.95 26.4
2 -1 0 2720.03 213.68
2 -1 0 2474.45 97.49
-2 1 0 2599.34 99.99
-2 1 0 2503.05 204.78
1 -1 0 326.77 12.5
1 -1 0 329.07 13.2
1 -1 0 322.07 12.4
-1 1 0 305.77 12.3
-1 1 0 323.97 13.2
0 -1 0 18.9 3.4
0 -1 0 16.9 2.3
0 -1 0 13 3.2
0 1 0 18.9 2.9
0 1 0 20.3 4
-1 -1 0 3541.15 206.78
-1 -1 0 3861.11 126.19
1 1 0 4223.08 126.99
1 1 0 4065.59 213.48
-2 -1 0 44.8 6.9
-2 -1 0 33.2 5.5
2 1 0 38.6 5.7
2 1 0 39.6 6.1
-3 -1 0 5061.19 184.68
-3 -1 0 4986.6 379.16
3 1 0 4404.06 354.66
3 1 0 4649.94 178.08
-4 -1 0 1948.51 73.89
-4 -1 0 1965.1 70.89
-4 -1 0 1941.41 70.19
4 1 0 1851.31 69.49
-5 -1 0 1522.35 63.99
-5 -1 0 1594.64 65.19
-5 -1 0 1586.94 67.89
5 1 0 1625.74 64.69
-6 -1 0 2177.58 85.69
-6 -1 0 2083.99 85.09
-6 -1 0 2063.29 88.09
6 1 0 2127.59 84.49
6 1 0 2125.59 84.29
-7 -1 0 317.57 28.7
-7 -1 0 358.96 31.7
-7 -1 0 331.67 29.1
7 1 0 373.66 30
7 1 0 365.26 29.8
8 -2 0 74.49 16.5
8 -2 0 94.49 18.8
-8 2 0 82.79 19
-8 2 0 86.59 16.8
-8 2 0 87.49 18.1
-8 2 0 96.49 19.1
7 -2 0 98.09 18.4
7 -2 0 126.19 19.5
-7 2 0 90.69 15.2
-7 2 0 124.69 20.5
-7 2 0 96.49 18.3
-7 2 0 103.59 18.5
6 -2 0 259.17 22.1
6 -2 0 281.57 22.9
-6 2 0 228.28 21.4
-6 2 0 280.27 23.2
-6 2 0 261.67 23.2
-6 2 0 270.07 19.9
5 -2 0 98.39 14.5
5 -2 0 85.19 13.7
-5 2 0 66.99 12.6
-5 2 0 89.39 14.3
-5 2 0 104.99 13.6
-5 2 0 120.39 17.1
4 -2 0 3438.66 143.49
4 -2 0 3402.56 146.99
4 -2 0 3407.16 333.17
-4 2 0 2510.85 327.37
-4 2 0 3343.77 149.69
-4 2 0 3449.85 146.59
3 -2 0 3499.25 138.09
3 -2 0 3745.23 305.07
-3 2 0 3246.88 297.27
-3 2 0 3518.95 140.59
2 -2 0 3416.86 118.19
2 -2 0 3425.76 233.68
-2 2 0 3444.86 241.38
-2 2 0 2892.11 135.19
1 -2 0 9154.18 270.77
1 -2 0 9429.36 350.36
-1 2 0 9268.77 271.67
-1 2 0 9999 357.26
0 -2 0 336.37 15.6
0 -2 0 341.77 19.3
0 -2 0 371.26 20.7
0 -2 0 331.57 15.4
0 2 0 326.17 19.7
0 2 0 345.47 19.6
-1 -2 0 3782.92 122.19
-1 -2 0 3459.45 213.88
1 2 0 3844.22 210.48
1 2 0 3721.23 120.59
-2 -2 0 436.26 24
-2 -2 0 380.36 18.6
-2 -2 0 378.36 18.5
2 2 0 413.56 19
2 2 0 361.16 25.8
-3 -2 0 996.2 45
-3 -2 0 948.91 38.9
-3 -2 0 869.21 37.9
3 2 0 1007.2 39.3
3 2 0 907.61 49.5
3 2 0 970.8 38.8
-4 -2 0 46 9.6
-4 -2 0 42.2 8.9
-4 -2 0 58.49 12.3
4 2 0 34.9 8.6
4 2 0 47 9.3
-5 -2 0 535.85 31.9
-5 -2 0 525.35 35.8
-5 -2 0 485.45 31.1
5 2 0 522.55 31.5
5 2 0 567.84 32.1
-6 -2 0 228.68 30.2
-6 -2 0 261.27 23.3
-6 -2 0 180.18 23.3
-6 -2 0 161.18 24.1
6 2 0 225.88 21.4
6 2 0 237.48 21.8
-7 -2 0 546.85 42.5
-7 -2 0 543.55 39.8
-7 -2 0 596.44 56.79
-7 -2 0 571.74 39.2
7 2 0 517.95 37.6
7 2 0 603.34 53.89
7 2 0 616.74 40.3
8 -3 0 2184.08 93.19
8 -3 0 2090.59 91.59
-8 3 0 2158.78 83.19
-8 3 0 2166.88 112.99
-8 3 0 2068.69 92.69
-8 3 0 2279.37 96.29
7 -3 0 13.4 7.8
7 -3 0 14.2 7.1
-7 3 0 5.3 4.9
-7 3 0 2.6 5.5
-7 3 0 -2.1 4.6
-7 3 0 16.7 6.1
6 -3 0 2573.94 95.99
6 -3 0 2550.64 96.09
-6 3 0 2700.83 99.29
-6 3 0 2594.24 96.79
-6 3 0 2614.84 126.49
5 -3 0 619.54 32.6
5 -3 0 581.64 31.9
-5 3 0 574.34 33.2
-5 3 0 580.04 32.6
-5 3 0 585.84 32.5
-5 3 0 611.14 26
4 -3 0 2070.09 74.29
4 -3 0 2162.18 73.49
-4 3 0 2026.2 73.19
3 -3 0 163.08 13.1
3 -3 0 187.68 12.8
3 -3 0 168.88 12.3
-3 3 0 169.38 12.5
-3 3 0 164.48 13.6
-3 3 0 190.88 13
2 -3 0 679.33 25.4
2 -3 0 648.24 28.8
2 -3 0 671.43 25.4
-2 3 0 679.73 25.6
-2 3 0 714.03 36.6
-2 3 0 677.63 29.3
-2 3 0 681.43 25.7
1 -3 0 1608.04 108.39
1 -3 0 1759.92 59.69
-1 3 0 1964 62.49
-1 3 0 1791.42 113.59
-1 -3 0 241.28 11.3
-1 -3 0 270.37 11.7
-1 -3 0 235.68 21.3
-1 -3 0 235.88 20
-1 -3 0 241.28 17.3
1 3 0 248.68 11.3
1 3 0 269.77 21.6
1 3 0 236.28 11.1
-2 -3 0 3681.13 132.79
-3 -3 0 44.7 10.9
-3 -3 0 32.1 6.9
-3 -3 0 48.1 8.8
3 3 0 34.5 7.4
3 3 0 45 7.8
-4 -3 0 3231.08 108.59
-4 -3 0 3402.46 120.19
4 3 0 3109.09 107.09
-5 -3 0 894.61 51.79
-5 -3 0 835.92 43.1
-5 -3 0 877.61 43.8
5 3 0 817.72 42.2
5 3 0 865.61 59.89
-6 -3 0 1145.09 57.79
-6 -3 0 1167.98 56.99
-6 -3 0 1077.29 62.89
6 3 0 1229.68 78.09
6 3 0 1154.88 56.09
8 -4 0 15.2 8.7
8 -4 0 27.2 11.3
-8 4 0 14.1 5.5
-8 4 0 15.6 9.1
-8 4 0 5.7 7
-8 4 0 20.4 10.7
7 -4 0 577.74 36.7
7 -4 0 509.65 35
-7 4 0 571.64 37.4
-7 4 0 534.75 36.5
-7 4 0 551.94 26
6 -4 0 11.6 5.6
6 -4 0 3.3 4.8
-6 4 0 4.1 4.8
-6 4 0 4.9 5.1
-6 4 0 9.9 6
5 -4 0 3789.72 126.69
-5 4 0 3881.21 127.19
-5 4 0 3885.41 127.69
-5 4 0 3936.81 130.69
4 -4 0 651.83 33
4 -4 0 601.94 30.1
4 -4 0 657.13 30.8
-4 4 0 660.13 31.4
-4 4 0 641.14 33.6
-4 4 0 704.23 32
3 -4 0 5116.69 182.48
3 -4 0 5694.63 376.96
-3 4 0 4991.5 367.16
-3 4 0 5093.39 184.98
2 -4 0 2571.64 95.19
1 -4 0 2582.94 96.29
1 -4 0 2645.14 96.89
0 -4 0 2557.64 97.79
0 -4 0 2701.43 99.19
-1 -4 0 75.99 16.9
-1 -4 0 71.49 14.6
-1 -4 0 81.59 13.8
-1 -4 0 60.59 4.9
-1 -4 0 53.89 4.7
1 4 0 55.89 4.6
1 4 0 57.79 4.8
1 4 0 50.09 12.1
-2 -4 0 1079.59 61.09
-2 -4 0 1134.29 53.19
-2 -4 0 1139.09 41.6
-2 -4 0 1254.17 42.4
2 4 0 1176.78 41.5
2 4 0 1273.47 63.19
2 4 0 1148.19 41.2
-3 -4 0 297.27 30.6
-3 -4 0 316.27 19.2
3 4 0 301.07 18.8
3 4 0 323.07 18.9
-4 -4 0 205.58 17.4
-4 -4 0 222.98 23.7
-4 -4 0 256.07 19.4
4 4 0 242.18 30
4 4 0 257.37 18.8
-5 -4 0 607.84 35.2
-5 -4 0 576.54 42.2
-5 -4 0 504.35 32
5 4 0 559.84 49.9
5 4 0 539.65 32.7
8 -5 0 255.67 31.5
-8 5 0 286.17 37.7
-8 5 0 237.28 31.4
7 -5 0 2218.38 86.59
7 -5 0 1998.6 84.99
-7 5 0 2171.98 87.99
-7 5 0 2008.9 85.99
6 -5 0 10.2 5.8
6 -5 0 -0.5 2.8
6 -5 0 15.8 6.6
-6 5 0 4.2 5
-6 5 0 14.8 6.7
-6 5 0 7.5 6.1
5 -5 0 1102.29 48.3
5 -5 0 1118.79 48.8
5 -5 0 1138.09 51.59
-5 5 0 1203.28 53.79
-5 5 0 1180.28 57.39
-5 5 0 1070.79 48.6
4 -5 0 67.89 10.2
4 -5 0 41 9.7
4 -5 0 46 8.8
-4 5 0 40.5 9.3
-4 5 0 57.59 9.9
-4 5 0 65.49 10.4
-4 5 0 57.69 16.4
3 -5 0 463.95 21.5
3 -5 0 494.15 21.7
3 -5 0 411.46 32.7
3 -5 0 459.45 26.4
-3 5 0 480.75 27.7
-3 5 0 450.25 21.6
-3 5 0 470.25 36.1
-3 5 0 443.76 21.6
2 -5 0 703.03 33.5
2 -5 0 735.63 25
2 -5 0 739.03 28.5
2 -5 0 742.53 24.9
-2 5 0 702.03 34.1
-2 5 0 708.13 25.3
-2 5 0 674.43 43.5
-2 5 0 675.23 24.8
1 -5 0 865.51 36
1 -5 0 799.62 47.3
1 -5 0 837.32 37.8
1 -5 0 826.22 47.3
-1 5 0 817.02 48.8
-1 5 0 849.61 48.6
0 -5 0 712.83 35.4
0 -5 0 693.83 44.2
0 -5 0 629.74 42.4
0 -5 0 783.42 36
0 5 0 741.73 45.3
0 5 0 684.83 45.5
-1 -5 0 2969.7 130.69
-1 -5 0 3072.79 106.29
-1 -5 0 3223.38 109.99
-2 -5 0 388.76 18.2
-2 -5 0 403.96 18.4
-2 -5 0 380.46 31.1
2 5 0 388.66 34.8
2 5 0 365.46 17.5
2 5 0 358.06 17.6
-3 -5 0 3698.03 134.09
-3 -5 0 3492.55 112.89
-4 -5 0 25.6 7.8
-4 -5 0 39.9 11.7
-4 -5 0 29.2 7.3
4 5 0 30.1 12.9
4 5 0 32.8 8
-5 -5 0 1364.96 59.89
-5 -5 0 1317.57 74.49
-5 -5 0 1415.46 61.19
5 5 0 1405.36 59.89
5 5 0 1511.55 89.89
5 5 0 1360.46 58.89
7 -6 0 140.79 20.6
7 -6 0 106.39 26.4
-7 6 0 140.19 21.5
-7 6 0 111.29 19.5
-7 6 0 106.89 18.6
6 -6 0 1950.1 76.39
6 -6 0 1965.7 77.19
6 -6 0 1865.71 79.39
-6 6 0 2057.09 102.49
-6 6 0 1945.01 82.29
-6 6 0 1919.21 77.69
-6 6 0 2028.2 78.49
5 -6 0 133.69 13.4
5 -6 0 130.09 18.8
5 -6 0 115.89 15.3
-5 6 0 116.99 18.7
-5 6 0 132.99 26.5
-5 6 0 124.39 16.2
4 -6 0 2866.41 103.29
4 -6 0 3022.4 97.09
-4 6 0 3032.8 125.69
-4 6 0 3052.19 107.49
-4 6 0 3011.4 97.69
3 -6 0 418.36 26.5
3 -6 0 419.56 19.5
3 -6 0 448.86 19.9
-3 6 0 444.96 20.4
-3 6 0 422.16 36.7
-3 6 0 425.46 20
-3 6 0 418.86 27.1
2 -6 0 2095.39 76.89
-2 6 0 2059.39 94.19
1 -6 0 896.71 42
1 -6 0 857.81 39.9
-1 6 0 971.5 56.69
-1 6 0 793.72 53.09
0 -6 0 594.84 33.2
0 -6 0 555.54 32.8
0 6 0 576.34 64.49
-1 -6 0 555.24 34.9
-1 -6 0 658.23 38.5
1 6 0 677.13 48.8
-2 -6 0 343.67 28.7
-2 -6 0 317.47 26.2
-2 -6 0 323.77 13.9
2 6 0 315.17 13.9
2 6 0 325.47 35.1
2 6 0 327.37 13.8
-3 -6 0 7 4.2
-3 -6 0 5.2 3.8
-3 -6 0 7 6.7
3 6 0 6.4 3.4
3 6 0 1.4 6.2
3 6 0 4.1 3.7
-4 -6 0 581.84 45.3
-4 -6 0 569.34 30.8
-4 -6 0 491.85 32.5
4 6 0 639.64 31.4
4 6 0 680.53 31.5
4 6 0 610.24 54.59
6 -7 0 352.06 27.9
6 -7 0 374.36 25.5
6 -7 0 347.87 25.2
-6 7 0 366.36 40.8
-6 7 0 331.27 25.2
-6 7 0 320.27 29.3
5 -7 0 339.67 21.7
5 -7 0 341.87 22.1
-5 7 0 327.17 36.8
-5 7 0 330.87 23.4
-5 7 0 307.57 26.3
-5 7 0 309.37 21.8
4 -7 0 51.49 8.2
4 -7 0 70.89 14.2
4 -7 0 83.89 10.5
-4 7 0 62.19 13.2
-4 7 0 59.49 18.6
-4 7 0 68.79 10
3 -7 0 498.55 30.6
-3 7 0 481.85 30.8
-3 7 0 477.25 19.4
-3 7 0 556.54 46.5
2 -7 0 93.69 15.5
2 -7 0 94.19 13
-2 7 0 80.59 20.2
1 -7 0 1761.82 68.09
1 -7 0 1698.23 69.79
-1 7 0 1565.24 85.49
-1 7 0 1749.32 89.39
0 -7 0 930.11 47.5
0 -7 0 887.71 47.3
0 7 0 895.91 60.29
-1 -7 0 1304.97 64.39
-1 -7 0 1332.77 62.29
1 7 0 1307.67 77.79
-2 -7 0 1383.96 71.79
-2 -7 0 1469.65 69.99
2 7 0 1513.55 87.99
5 -8 0 1557.34 59.49
5 -8 0 1699.33 60.69
5 -8 0 1615.44 70.89
-5 8 0 1679.43 61.99
-5 8 0 1582.34 61.19
-5 8 0 1611.54 72.79
-5 8 0 1730.33 94.99
4 -8 0 54.89 6.8
4 -8 0 30.4 9.3
-4 8 0 55.99 20.2
-4 8 0 70.19 7
-4 8 0 58.49 7.2
-4 8 0 52.59 12.2
3 -8 0 2009.1 88.29
-3 8 0 1992.8 103.09
2 -8 0 85.09 13.9
-2 8 0 66.69 20.7
1 -8 0 939.21 49.3
1 -8 0 867.41 46.3
-1 8 0 1009.6 68.49
0 -8 0 27.7 8.7
0 -8 0 18.2 8.1
0 8 0 12.4 11.3
-1 -8 0 237.78 29.5
-1 -8 0 261.17 26.9
1 8 0 269.27 43
0 9 -1 430.06 44.2
0 -9 1 411.96 30.7
0 -9 1 452.55 33.4
-1 9 -1 544.85 52.59
1 -9 1 542.35 38.6
1 -9 1 504.15 32.3
-2 9 -1 1693.73 96.99
2 -9 1 1516.25 64.99
2 -9 1 1538.35 60.29
-3 9 -1 225.58 42.8
3 -9 1 219.48 19.3
-4 9 -1 2249.68 121.79
4 -9 1 2356.96 87.69
2 8 -1 229.88 40.4
-2 -8 1 148.69 21.7
-2 -8 1 164.08 25.4
1 8 -1 1124.69 71.59
-1 -8 1 1136.79 58.29
-1 -8 1 1153.68 55.49
0 8 -1 577.14 48.9
0 8 -1 712.93 57.79
0 -8 1 650.33 37.1
0 -8 1 688.93 40.1
-1 8 -1 396.56 42.2
1 -8 1 360.46 25.1
1 -8 1 378.96 25.3
-2 8 -1 169.98 35.6
2 -8 1 137.19 12.4
2 -8 1 171.68 20.7
-3 8 -1 405.86 42.7
3 -8 1 400.16 25.7
-4 8 -1 43.8 18.8
-4 8 -1 16 5.7
-4 8 -1 30.7 9.1
-4 8 -1 32.8 7.1
4 -8 1 28.6 8.6
4 -8 1 33.4 6.9
4 -8 1 32.6 6.6
-5 8 -1 1066.89 48.6
-5 8 -1 1108.69 52.29
-5 8 -1 1128.79 61.49
-5 8 -1 1285.47 81.19
5 -8 1 1117.59 48.3
5 -8 1 1093.49 47.1
5 -8 1 1065.59 51.99
3 7 -1 15.5 10.1
-3 -7 1 33.2 11.6
2 7 -1 770.92 56.19
-2 -7 1 721.13 41.6
-2 -7 1 732.03 45.3
1 7 -1 58.29 16.8
-1 -7 1 53.39 12.2
0 7 -1 2481.25 115.09
0 7 -1 2387.86 107.69
0 -7 1 2609.34 92.99
0 -7 1 2575.64 90.59
-1 7 -1 1362.16 77.59
1 -7 1 1424.46 55.09
1 -7 1 1367.66 55.79
-2 7 -1 1446.46 79.79
2 -7 1 1289.27 53.39
2 -7 1 1345.97 48.7
-3 7 -1 2853.61 91.29
-3 7 -1 3032.4 129.29
-3 7 -1 2969.1 101.79
-3 7 -1 2981.3 92.69
3 -7 1 2940.81 99.69
-4 7 -1 170.28 32.7
-4 7 -1 103.99 15.7
4 -7 1 109.19 11
4 -7 1 128.59 17.5
4 -7 1 143.99 12.6
-5 7 -1 997.1 68.89
-5 7 -1 995.3 49.2
-5 7 -1 967 45.6
-5 7 -1 986.3 45.6
5 -7 1 950.4 44.5
5 -7 1 978.2 46.6
5 -7 1 966.6 44.3
-6 7 -1 7 10
-6 7 -1 2 4.4
-6 7 -1 24.8 9.4
6 -7 1 13.5 6.8
6 -7 1 11.5 7.1
4 6 -1 2449.05 116.89
4 6 -1 2391.06 80.39
4 6 -1 2339.77 80.79
-4 -6 1 2352.06 82.09
-4 -6 1 2315.87 101.69
-4 -6 1 2321.77 80.69
3 6 -1 46.2 8.1
3 6 -1 51.89 18.9
3 6 -1 42.3 6.8
-3 -6 1 52.99 13.7
-3 -6 1 34.3 6.6
-3 -6 1 31.3 6.1
2 6 -1 1950.2 94.09
-2 -6 1 2097.89 84.49
1 6 -1 153.48 27.2
-1 -6 1 129.99 18.8
-1 -6 1 124.69 16.1
0 6 -1 876.41 50.49
0 6 -1 870.81 55.49
0 -6 1 789.62 48.6
0 -6 1 876.01 40.3
0 -6 1 861.41 38.6
-1 6 -1 33.4 12.6
1 -6 1 46.2 9
1 -6 1 42.5 12.1
1 -6 1 52.09 9
1 -6 1 27.8 10.9
-2 6 -1 251.77 12.1
-2 6 -1 238.48 12.6
-2 6 -1 239.98 27.6
-2 6 -1 254.07 17.5
2 -6 1 227.98 16.4
2 -6 1 230.78 11.5
2 -6 1 228.78 23.6
2 -6 1 230.48 13
2 -6 1 271.87 12.5
-3 6 -1 840.92 35
-3 6 -1 932.81 58.09
-3 6 -1 856.01 39.2
-3 6 -1 922.71 35
3 -6 1 804.92 33.8
3 -6 1 839.32 37.3
3 -6 1 827.22 33.6
3 -6 1 760.42 47.4
-4 6 -1 1916.41 71.69
-4 6 -1 2064.29 72.09
-4 6 -1 2070.59 106.59
-4 6 -1 1973 75.59
4 -6 1 2014.4 71.09
4 -6 1 1975.1 73.49
-5 6 -1 283.27 22.6
-5 6 -1 275.27 21.7
-5 6 -1 270.27 41.9
5 -6 1 247.58 19.9
5 -6 1 226.08 19
5 -6 1 274.37 21.5
-6 6 -1 2118.09 86.89
-6 6 -1 2320.87 87.59
-6 6 -1 2180.18 88.39
6 -6 1 2206.48 85.89
6 -6 1 2265.07 87.19
-7 6 -1 20.2 9.8
-7 6 -1 19.6 8.5
-7 6 -1 27.6 9.7
7 -6 1 8.3 9
7 -6 1 8 7.1
5 5 -1 318.47 48
5 5 -1 238.58 19.8
5 5 -1 301.77 22
-5 -5 1 298.67 22.9
-5 -5 1 246.78 20.5
-5 -5 1 279.47 28.6
4 5 -1 97.29 13
4 5 -1 121.09 28
-4 -5 1 120.49 15.2
-4 -5 1 101.89 13.7
-4 -5 1 138.69 23.3
3 5 -1 1419.06 74.89
3 5 -1 1541.85 57.69
3 5 -1 1443.56 52.09
-3 -5 1 1449.95 56.39
-3 -5 1 1522.55 60.69
-3 -5 1 1412.06 66.29
2 5 -1 141.99 9.1
2 5 -1 107.69 21
2 5 -1 174.18 10.3
-2 -5 1 163.28 16.8
-2 -5 1 152.68 9.5
-2 -5 1 160.18 10.3
0 5 -1 404.96 29.9
0 5 -1 441.06 34.6
0 -5 1 469.95 24.9
0 -5 1 487.85 23.7
0 -5 1 451.65 31.2
0 -5 1 429.26 33.1
1 -5 1 4527.15 156.18
-2 5 -1 2236.48 93.99
2 -5 1 2181.68 86.29
-3 5 -1 1458.25 57.39
-3 5 -1 1518.35 74.69
-3 5 -1 1555.24 55.59
-3 5 -1 1480.85 54.29
3 -5 1 1458.95 67.99
3 -5 1 1584.74 55.19
3 -5 1 1617.74 56.89
3 -5 1 1597.64 54.79
-4 5 -1 1178.38 48.1
-4 5 -1 1160.28 49.7
-4 5 -1 1166.78 48.7
4 -5 1 1166.18 48.2
4 -5 1 1118.79 47
-5 5 -1 259.17 21.1
-5 5 -1 247.98 21.1
-5 5 -1 242.88 20.1
5 -5 1 259.67 20.5
5 -5 1 303.27 21.8
-6 5 -1 102.69 17.8
-6 5 -1 113.89 18.8
-6 5 -1 79.09 14.3
6 -5 1 122.59 19.5
6 -5 1 128.89 19.3
-7 5 -1 551.94 38.1
-7 5 -1 547.45 38.2
-7 5 -1 566.94 38.8
7 -5 1 610.44 39
7 -5 1 511.05 36.7
6 4 -1 1343.07 82.59
6 4 -1 1389.86 60.09
-6 -4 1 1274.57 66.99
-6 -4 1 1243.08 68.39
-6 -4 1 1224.58 58.89
-6 -4 1 1204.88 58.89
5 4 -1 2197.28 103.99
-5 -4 1 1931.01 76.49
-5 -4 1 2044.5 88.99
-5 -4 1 2025.8 78.19
4 4 -1 809.92 36.4
4 4 -1 757.02 35.8
4 4 -1 756.52 51.69
-4 -4 1 830.02 36.9
-4 -4 1 768.22 44.7
-4 -4 1 772.42 36.7
-3 -4 1 2542.35 82.89
-3 -4 1 2606.54 96.19
2 4 -1 54.19 13.7
2 4 -1 68.79 8.1
2 4 -1 49.99 6.4
-2 -4 1 47 9.9
-2 -4 1 67.89 8
-2 -4 1 55.19 7
1 4 -1 967.7 51.39
1 4 -1 990.3 47.4
-1 -4 1 995.4 47.2
-1 -4 1 940.51 40.9
-1 -4 1 936.11 50.09
0 4 -1 727.43 41.5
0 4 -1 679.13 36.6
0 -4 1 736.33 29
0 -4 1 752.22 40.7
0 -4 1 728.53 30.5
0 -4 1 756.02 37.6
-1 4 -1 201.28 10.1
-1 4 -1 210.48 21.1
-1 4 -1 205.18 12.3
-1 4 -1 196.48 9.4
1 -4 1 182.38 16.6
1 -4 1 206.78 9.8
1 -4 1 218.78 20.1
1 -4 1 192.48 9.3
1 -4 1 191.98 11.9
-2 4 -1 2214.38 86.39
2 -4 1 1997.7 78.09
-3 4 -1 1970.6 67.79
-3 4 -1 1970.7 67.09
3 -4 1 1934.61 66.59
-4 4 -1 1919.71 71.69
-4 4 -1 2039.5 72.19
-4 4 -1 1933.41 71.79
4 -4 1 1931.71 71.29
4 -4 1 2003.9 71.39
-5 4 -1 3006.4 103.69
-5 4 -1 2973 103.99
5 -4 1 2792.92 101.59
5 -4 1 2903.41 102.69
-6 4 -1 423.96 30.3
-6 4 -1 342.47 27.3
-6 4 -1 416.86 30.1
-6 4 -1 411.46 22.2
6 -4 1 339.77 26.9
6 -4 1 406.56 28.8
-7 4 -1 1795.02 80.99
-7 4 -1 1884.01 69.29
-7 4 -1 1898.41 81.99
-7 4 -1 1899.51 82.19
7 -4 1 1759.92 79.09
7 -4 1 1714.83 78.09
7 3 -1 8.8 7.7
7 3 -1 19.6 8.9
7 3 -1 5.7 8.5
-7 -3 1 2.2 5.9
-7 -3 1 30.5 11.1
-7 -3 1 14.5 9.1
6 3 -1 82.59 23.7
6 3 -1 63.29 13
6 3 -1 85.49 15.3
-6 -3 1 109.29 20.9
-6 -3 1 93.99 18.8
-6 -3 1 66.09 13.8
-6 -3 1 72.29 14.2
5 3 -1 693.23 36.7
5 3 -1 729.63 36.9
-5 -3 1 674.03 42.2
-5 -3 1 695.03 36.3
-5 -3 1 746.63 38.6
4 3 -1 1356.26 54.19
4 3 -1 1380.96 53.99
4 3 -1 1455.45 71.89
-4 -3 1 1427.06 62.79
-4 -3 1 1404.56 54.79
-4 -3 1 1477.45 56.39
3 3 -1 1603.74 71.79
3 3 -1 1586.04 56.79
-3 -3 1 1633.84 65.29
-3 -3 1 1601.64 56.69
-3 -3 1 1742.23 58.39
2 3 -1 5087.79 305.77
2 3 -1 5103.39 169.88
-2 -3 1 4939.01 172.38
-2 -3 1 5299.97 314.97
1 3 -1 96.29 5.9
1 3 -1 94.39 15.4
1 3 -1 96.69 6.1
1 3 -1 98.69 11.4
-1 -3 1 85.89 6.1
-1 -3 1 106.59 11.7
-1 -3 1 94.39 5.8
-1 -3 1 104.59 16.5
0 3 -1 8892.81 251.97
0 -3 1 8878.21 318.37
-1 3 -1 1419.16 57.79
1 -3 1 1366.66 51.69
-2 3 -1 2475.25 236.18
-2 3 -1 2502.05 100.09
-2 3 -1 2687.93 104.79
2 -3 1 2494.05 229.98
2 -3 1 2534.75 102.69
2 -3 1 2631.54 101.79
-3 3 -1 308.77 18.7
-3 3 -1 319.57 18.9
-3 3 -1 319.07 19.3
-3 3 -1 350.56 15.2
3 -3 1 292.07 18.4
3 -3 1 315.47 18.8
-4 3 -1 845.12 38.5
-4 3 -1 789.72 32.5
-4 3 -1 802.92 37.9
-4 3 -1 767.02 42.3
4 -3 1 823.52 38
4 -3 1 847.12 38.2
-5 3 -1 53.09 9.6
-5 3 -1 48.4 10.7
-5 3 -1 38.5 9.8
-5 3 -1 56.59 12.2
5 -3 1 41.4 9.9
5 -3 1 39.5 9.6
-6 3 -1 533.45 29.9
-6 3 -1 471.55 32.8
-6 3 -1 554.34 35.3
-6 3 -1 489.65 33.6
6 -3 1 538.45 34.1
-7 3 -1 48.9 12.7
-7 3 -1 48 11.3
-7 3 -1 75.69 16.9
-7 3 -1 49.9 14.2
7 -3 1 61.19 16.2
7 -3 1 50.59 13.2
7 2 -1 2407.46 96.99
7 2 -1 2390.06 95.99
-7 -2 1 2338.77 97.69
-7 -2 1 2455.65 97.49
-7 -2 1 2438.76 103.29
-7 -2 1 2560.44 104.19
6 2 -1 581.64 34.8
6 2 -1 602.74 35.4
-6 -2 1 552.54 35.2
-6 -2 1 575.64 34.6
-6 -2 1 525.55 36.6
-6 -2 1 570.54 38.3
5 2 -1 2086.69 79.29
5 2 -1 1951.4 73.29
-5 -2 1 1894.51 74.29
-5 -2 1 1825.02 72.79
-5 -2 1 1967.1 92.59
-5 -2 1 1933.91 79.09
4 2 -1 1153.48 46.9
4 2 -1 1152.98 47.1
-4 -2 1 1149.39 47.1
-4 -2 1 1215.88 52.79
-4 -2 1 1193.88 48.4
3 2 -1 276.47 16.5
3 2 -1 293.47 16.8
-3 -2 1 281.47 19.3
-3 -2 1 238.08 16
-3 -2 1 281.67 16.4
2 2 -1 8.1 3.1
-2 -2 1 19.9 7.6
-2 -2 1 22.4 4.4
-2 -2 1 15.5 4
1 2 -1 1740.93 64.59
1 2 -1 1796.82 128.99
-1 -2 1 1599.64 126.29
-1 -2 1 1793.62 73.79
0 2 -1 6.9 1.7
0 2 -1 5.7 3.7
0 2 -1 13.2 3.6
0 2 -1 5.9 1.9
0 -2 1 5.5 1.6
0 -2 1 11.1 4.3
0 -2 1 8 1.7
0 -2 1 7.3 2.9
-1 2 -1 4562.14 267.67
1 -2 1 4092.59 252.57
1 -2 1 4572.44 145.89
-2 2 -1 25.5 6.3
-2 2 -1 19.6 4.7
-2 2 -1 18.9 4.7
-2 2 -1 36.7 5.3
2 -2 1 21 5
2 -2 1 20.5 3.6
2 -2 1 29.3 5.8
-3 2 -1 5712.53 431.96
-3 2 -1 5470.35 202.68
3 -2 1 5014 396.66
3 -2 1 5574.74 201.58
-4 2 -1 1376.96 55.09
-4 2 -1 1406.26 51.49
-4 2 -1 1310.97 54.29
-4 2 -1 1368.46 54.49
4 -2 1 1250.57 52.99
4 -2 1 1312.27 53.69
-5 2 -1 1891.31 75.49
-5 2 -1 1923.31 75.09
-5 2 -1 1933.31 75.19
-5 2 -1 1831.12 70.39
5 -2 1 1858.51 73.49
5 -2 1 1945.11 74.59
-6 2 -1 1489.45 66.89
-6 2 -1 1437.16 66.79
-6 2 -1 1475.15 66.79
-6 2 -1 1493.25 63.19
6 -2 1 1465.85 65.69
6 -2 1 1485.45 65.79
-7 2 -1 206.38 28.3
-7 2 -1 205.48 28.6
-7 2 -1 243.68 22.9
-7 2 -1 189.18 26.6
7 -2 1 216.48 29.3
7 -2 1 235.48 29.7
8 1 -1 135.49 31.6
8 1 -1 155.98 25.1
-8 -1 1 153.38 26.4
-8 -1 1 230.18 30.1
-8 -1 1 184.08 26.6
-8 -1 1 171.28 28
7 1 -1 67.39 15
7 1 -1 65.49 14.2
-7 -1 1 46.3 11.6
-7 -1 1 41.2 11.4
-7 -1 1 58.99 15.2
-7 -1 1 43.8 13.1
6 1 -1 1507.15 62.99
6 1 -1 1468.45 63.09
-6 -1 1 1530.55 79.89
-6 -1 1 1400.46 63.69
-6 -1 1 1403.56 69.09
5 1 -1 307.27 22.4
5 1 -1 379.06 24.2
-5 -1 1 382.66 24.4
-5 -1 1 349.57 24.1
-5 -1 1 330.67 24.7
-5 -1 1 306.07 23.5
4 1 -1 4075.39 159.88
4 1 -1 3113.19 336.47
4 1 -1 3925.41 162.78
-4 -1 1 3825.42 164.98
-4 -1 1 3728.83 364.86
-4 -1 1 4226.08 166.38
3 1 -1 5428.36 186.98
3 1 -1 4916.91 355.76
-3 -1 1 5193.58 187.28
-3 -1 1 5058.29 183.78
-3 -1 1 4683.23 348.37
2 1 -1 3061.89 226.38
2 1 -1 3203.48 115.89
-2 -1 1 3114.89 116.29
-2 -1 1 3258.97 225.98
1 1 -1 7215.08 210.98
-1 -1 1 7052.69 211.08
-1 -1 1 6587.54 290.97
0 1 -1 204.48 9.3
0 1 -1 212.28 9.1
0 1 -1 219.78 10
0 -1 1 207.38 9.1
0 -1 1 220.18 10
0 -1 1 182.48 8.9
-1 1 -1 7364.16 226.98
-1 1 -1 6900.51 361.66
1 -1 1 7650.93 228.88
1 -1 1 7135.19 363.56
-2 1 -1 351.06 18.3
-2 1 -1 339.97 17.6
-2 1 -1 336.67 17.9
2 -1 1 343.27 18.1
2 -1 1 367.66 17.8
2 -1 1 362.46 18.3
-3 1 -1 771.12 33.3
-3 1 -1 785.82 34.1
-3 1 -1 729.73 33.2
3 -1 1 714.43 32
3 -1 1 683.43 32.3
3 -1 1 758.62 33.4
-4 1 -1 45.9 9.4
-4 1 -1 43.6 8.7
-4 1 -1 35.7 8.2
-4 1 -1 28.8 7.5
4 -1 1 68.49 11.8
4 -1 1 55.49 10.3
-5 1 -1 400.66 27.4
-5 1 -1 393.06 27.5
-5 1 -1 450.75 29.1
-5 1 -1 407.86 29.5
5 -1 1 370.76 26.4
5 -1 1 439.56 28.1
-6 1 -1 781.62 44.3
-6 1 -1 806.22 52.09
-6 1 -1 821.72 45.8
6 -1 1 838.92 45
6 -1 1 760.92 43.7
-7 1 -1 800.22 51.49
-7 1 -1 929.01 52.39
-7 1 -1 991.6 52.89
7 -1 1 838.72 49.7
7 -1 1 796.42 48.8
8 0 -1 2032.2 90.89
8 0 -1 2320.47 94.29
-8 0 1 2153.18 92.59
-8 0 1 2007.2 94.39
-8 0 1 2204.78 92.59
7 0 -1 43.9 11.3
7 0 -1 81.39 15.7
-7 0 1 72.49 14.9
-7 0 1 47.4 11.4
-7 0 1 74.99 15.7
6 0 -1 2002 79.29
6 0 -1 2058.59 79.79
-6 0 1 2074.29 81.39
-6 0 1 2033.7 79.29
-6 0 1 2036.3 79.69
-6 0 1 2074.69 83.29
5 0 -1 94.99 13.8
-5 0 1 75.39 12.2
-5 0 1 88.79 12.8
-5 0 1 102.29 14.6
-5 0 1 93.79 14.4
4 0 -1 1049.3 43
4 0 -1 1105.39 43.6
-4 0 1 1058.49 44.9
-4 0 1 1049.4 43.3
-4 0 1 980 42.1
3 0 -1 330.37 18.2
3 0 -1 356.36 18.6
-3 0 1 315.67 18.1
-3 0 1 339.27 20.5
-3 0 1 355.36 19.5
2 0 -1 2436.16 94.79
2 0 -1 2405.56 194.08
-2 0 1 2472.45 96.19
-2 0 1 2274.87 186.28
1 0 -1 1224.08 103.49
1 0 -1 1194.28 50.29
1 0 -1 1141.59 48.3
-1 0 1 1291.27 105.19
-1 0 1 1264.17 50.49
0 0 -1 4979.1 157.58
0 0 -1 5419.06 260.37
0 0 1 5255.37 157.78
-1 0 -1 379.16 18
-1 0 -1 352.76 16.1
-1 0 -1 386.16 16.6
1 0 1 353.66 16.2
1 0 1 344.77 15.8
1 0 1 348.77 17.5
-2 0 -1 7552.14 248.98
-2 0 -1 8026.3 461.75
2 0 1 7202.38 245.08
2 0 1 7646.14 448.56
-3 0 -1 30.7 7
-3 0 -1 38.2 8.2
-3 0 -1 24.8 6.6
3 0 1 33.5 7.8
3 0 1 39.2 8.1
3 0 1 30.6 7.9
-5 0 -1 1319.97 58.29
-5 0 -1 1270.27 59.39
-5 0 -1 1255.77 57.49
5 0 1 1348.57 57.49
5 0 1 1225.98 56.19
-6 0 -1 1044.1 55.89
-6 0 -1 967 51.89
-6 0 -1 1019.2 52.59
-6 0 -1 1002.1 54.39
6 0 1 976.9 51.29
6 0 1 941.01 50.59
-7 0 -1 509.35 38.2
-7 0 -1 517.95 39.3
-7 0 -1 463.15 36.2
-7 0 -1 486.45 38.9
7 0 1 498.55 36.9
7 0 1 486.95 36.1
8 -1 -1 22.5 9.3
8 -1 -1 42.5 12.3
-8 1 1 44.5 12.6
-8 1 1 18.6 11
-8 1 1 73.69 17
-8 1 1 42.6 12.1
7 -1 -1 1136.79 56.19
7 -1 -1 1197.58 56.79
-7 1 1 1176.18 57.59
-7 1 1 1105.19 53.09
-7 1 1 1236.68 59.49
6 -1 -1 19.5 6.7
6 -1 -1 29.4 9.2
-6 1 1 12 6.5
-6 1 1 22.5 8.3
-6 1 1 26.4 9.1
-6 1 1 25.1 7.5
4 -1 -1 1251.87 49.8
4 -1 -1 1215.88 47.4
4 -1 -1 1234.98 47.4
-4 1 1 1189.48 48.6
-4 1 1 1140.29 47.1
-4 1 1 1176.08 46.8
3 -1 -1 4898.31 177.08
3 -1 -1 4626.44 336.97
-3 1 1 4976.8 178.38
2 -1 -1 3428.66 228.08
2 -1 -1 3378.96 119.29
-2 1 1 2994.1 217.48
1 -1 -1 3248.97 109.79
1 -1 -1 3273.37 182.08
-1 1 1 3416.46 184.58
-1 1 1 3325.77 110.29
0 -1 -1 5059.89 156.38
0 -1 -1 4830.32 260.57
0 1 1 4949.7 154.88
0 1 1 5372.96 267.77
-1 -1 -1 54.19 6.9
-1 -1 -1 58.29 7
-1 -1 -1 51.39 7.9
1 1 1 39 6.4
1 1 1 68.19 11.4
1 1 1 61.59 6.1
-2 -1 -1 267.47 15.7
-2 -1 -1 277.87 18.6
-2 -1 -1 239.98 15.3
2 1 1 216.98 19.2
2 1 1 266.87 18.5
2 1 1 223.98 14.5
2 1 1 237.38 15.2
-3 -1 -1 289.77 21.4
-3 -1 -1 275.47 18.6
-3 -1 -1 280.07 18.7
3 1 1 261.87 18.1
3 1 1 287.67 18.8
-4 -1 -1 175.48 16.5
-4 -1 -1 225.08 18.2
-4 -1 -1 194.18 19.4
4 1 1 169.18 16
4 1 1 165.58 16
-5 -1 -1 1139.79 54.29
-5 -1 -1 1144.99 58.59
-5 -1 -1 1146.09 54.69
5 1 1 1206.68 54.69
5 1 1 1257.57 55.79
-6 -1 -1 488.25 37.6
-6 -1 -1 471.95 34.3
-6 -1 -1 457.55 33.3
-6 -1 -1 455.35 36.2
6 1 1 502.75 34.3
6 1 1 475.15 33.3
8 -2 -1 265.37 25.9
8 -2 -1 294.97 27.1
-8 2 1 282.07 26.5
-8 2 1 227.68 20.7
-8 2 1 273.47 34
-8 2 1 245.58 30.9
7 -2 -1 1585.14 75.79
7 -2 -1 1473.15 66.19
-7 2 1 1481.85 67.99
-7 2 1 1461.25 59.99
-7 2 1 1469.65 67.09
6 -2 -1 39.8 10
6 -2 -1 62.19 12.3
-6 2 1 45 12.4
-6 2 1 56.29 12
-6 2 1 39.7 10.1
5 -2 -1 685.13 34.6
5 -2 -1 587.24 34.6
5 -2 -1 760.32 35.7
-5 2 1 705.43 29.5
-5 2 1 643.04 33.8
-5 2 1 705.03 36.6
-5 2 1 675.83 35.2
4 -2 -1 130.79 12
4 -2 -1 110.79 11.3
4 -2 -1 156.88 14.1
-4 2 1 123.49 11.8
-4 2 1 113.09 14.8
-4 2 1 138.69 12.7
3 -2 -1 508.45 23.9
3 -2 -1 540.95 26.8
3 -2 -1 538.65 24.5
-3 2 1 525.95 24.1
-3 2 1 548.45 20.5
-3 2 1 578.44 27.5
-3 2 1 539.95 24.7
2 -2 -1 3149.78 224.88
2 -2 -1 3202.58 116.99
-2 2 1 3487.95 231.68
-2 2 1 3309.27 119.19
1 -2 -1 911.21 33.7
1 -2 -1 906.51 36.7
1 -2 -1 1001.6 41.8
-1 2 1 888.91 35.3
-1 2 1 977.9 37.8
-1 2 1 817.72 39.7
0 -2 -1 3767.22 228.08
0 -2 -1 3897.11 123.39
0 2 1 3634.24 120.99
0 2 1 3774.22 225.88
-1 -2 -1 3281.67 267.27
-1 -2 -1 3591.24 131.59
1 2 1 3910.81 132.69
1 2 1 3907.61 271.77
-2 -2 -1 367.26 20.1
-2 -2 -1 377.66 20.1
-2 -2 -1 383.16 24.8
2 2 1 373.76 19.9
2 2 1 382.86 24.8
2 2 1 409.26 29.5
-4 -2 -1 125.89 16.7
-4 -2 -1 155.68 15.5
-4 -2 -1 124.09 19.6
4 2 1 140.09 24.9
4 2 1 149.79 14.9
4 2 1 152.08 15
-5 -2 -1 1177.98 62.29
-5 -2 -1 1161.28 55.39
-5 -2 -1 1193.28 55.49
5 2 1 1169.68 54.79
5 2 1 1148.29 71.09
5 2 1 1201.18 54.69
-6 -2 -1 99.49 18.4
-6 -2 -1 92.59 17.1
-6 -2 -1 102.59 21.2
6 2 1 94.29 26.6
6 2 1 106.79 18.3
8 -3 -1 720.03 44.7
8 -3 -1 773.72 45.7
-8 3 1 693.23 46.1
-8 3 1 677.83 44.7
-8 3 1 645.94 42.7
-8 3 1 693.83 35.8
7 -3 -1 289.77 24.3
7 -3 -1 288.77 24.6
-7 3 1 251.47 23.6
-7 3 1 270.37 18
-7 3 1 250.87 23.7
6 -3 -1 3027.4 104.09
6 -3 -1 2945.01 103.39
-6 3 1 2935.61 103.89
-6 3 1 2670.93 129.99
-6 3 1 2834.32 109.99
5 -3 -1 107.19 14.9
5 -3 -1 103.29 14.2
5 -3 -1 115.99 17.3
-5 3 1 107.49 14.7
-5 3 1 88.59 7.2
-5 3 1 120.19 17.9
-5 3 1 115.19 15.4
4 -3 -1 8011.1 507.55
4 -3 -1 7172.18 254.17
-4 3 1 6691.93 474.85
3 -3 -1 418.66 20.2
3 -3 -1 406.56 23.7
3 -3 -1 425.26 20.6
-3 3 1 433.46 27.9
-3 3 1 389.86 23.8
-3 3 1 431.66 21.1
2 -3 -1 3354.06 119.59
2 -3 -1 3301.17 228.88
-2 3 1 3287.77 224.78
-2 3 1 3559.74 123.39
1 -3 -1 815.32 38.3
1 -3 -1 881.31 37.7
1 -3 -1 904.21 41.7
1 -3 -1 903.81 44.7
-1 3 1 865.21 44.3
-1 3 1 958.5 42.6
-1 3 1 911.61 35.4
0 -3 -1 752.52 25.8
0 -3 -1 761.82 34.5
0 -3 -1 766.22 39.7
0 -3 -1 765.22 25.5
0 -3 -1 708.33 39.8
0 -3 -1 756.02 34.4
0 3 1 698.43 33.4
0 3 1 725.83 25.4
0 3 1 720.73 40.4
-1 -3 -1 55.99 14.2
-1 -3 -1 62.09 8
-1 -3 -1 33.6 9.3
-1 -3 -1 29.1 5
-1 -3 -1 36.4 8.2
1 3 1 22.3 6.2
1 3 1 42.4 6.1
1 3 1 62.89 14.8
1 3 1 38.7 6
-2 -3 -1 443.86 35.3
-2 -3 -1 467.75 23.2
-2 -3 -1 463.25 30.2
-2 -3 -1 486.35 23.8
2 3 1 483.45 23.3
2 3 1 473.75 23.2
2 3 1 457.75 34.7
-3 -3 -1 34.4 14.9
-3 -3 -1 38.3 8.7
3 3 1 44.3 8.9
3 3 1 49.3 9.4
-4 -3 -1 2210.18 82.89
-4 -3 -1 2202.78 82.89
-4 -3 -1 2260.67 94.69
4 3 1 2247.08 82.79
4 3 1 2266.37 105.99
-5 -3 -1 8 5.6
-5 -3 -1 -0.3 3.8
-5 -3 -1 8.5 7.2
5 3 1 8 9.1
5 3 1 1.9 4.1
5 3 1 6.1 5.2
8 -4 -1 652.13 42.6
8 -4 -1 690.03 43
-8 4 1 616.34 42.6
-8 4 1 718.43 46.8
-8 4 1 716.73 44.4
7 -4 -1 265.27 23.2
7 -4 -1 279.67 23.6
-7 4 1 270.87 23.8
-7 4 1 189.98 24.4
6 -4 -1 388.16 33.5
6 -4 -1 396.16 29
6 -4 -1 403.76 26.9
-6 4 1 397.86 26.9
-6 4 1 395.66 27.4
-6 4 1 381.76 29.1
5 -4 -1 558.84 34
5 -4 -1 646.94 32.5
5 -4 -1 605.74 31.5
-5 4 1 580.04 34.9
-5 4 1 616.94 32
-5 4 1 588.04 36.2
4 -4 -1 25.7 7
4 -4 -1 52.99 8.9
4 -4 -1 41.3 8.1
-4 4 1 54.19 11.7
-4 4 1 34.5 7.4
-4 4 1 67.49 15.7
3 -4 -1 2371.66 82.89
-3 4 1 2359.36 83.79
-3 4 1 2224.78 88.99
2 -4 -1 34.6 10.5
2 -4 -1 42.2 5.6
2 -4 -1 72.09 9.8
2 -4 -1 40.3 5.3
2 -4 -1 34.4 9
2 -4 -1 44 10
-2 4 1 38.1 7.6
-2 4 1 52.99 6.6
-2 4 1 43.9 5.4
-2 4 1 22.3 8
-2 4 1 43.4 9.9
1 -4 -1 4942.61 166.88
0 -4 -1 2580.84 89.79
0 -4 -1 2435.76 100.59
0 -4 -1 2643.04 100.89
-1 -4 -1 1661.33 55.69
-1 -4 -1 1815.02 70.99
-1 -4 -1 1604.94 77.49
1 4 1 1765.52 80.49
-2 -4 -1 3436.66 125.09
-3 -4 -1 338.57 29.3
-3 -4 -1 321.07 21.1
-3 -4 -1 314.37 20.9
3 4 1 333.57 20.9
3 4 1 335.97 34.5
-4 -4 -1 1184.58 53.29
-4 -4 -1 1217.68 53.89
-4 -4 -1 1170.08 65.39
4 4 1 1258.87 53.49
4 4 1 1285.47 53.69
4 4 1 1208.58 74.79
-5 -4 -1 12.7 6.4
-5 -4 -1 34.8 10.5
-5 -4 -1 18.7 11.2
5 4 1 37.7 10.5
5 4 1 32.9 15.8
5 4 1 26.2 8.6
8 -5 -1 742.03 46.2
8 -5 -1 777.72 46
-8 5 1 751.42 49.4
-8 5 1 790.82 47.8
-8 5 1 793.42 47.6
7 -5 -1 1072.89 53.29
7 -5 -1 1139.19 58.19
7 -5 -1 1144.29 60.79
-7 5 1 1066.89 58.69
-7 5 1 1151.48 55.39
-7 5 1 923.91 54.79
6 -5 -1 762.72 43.7
6 -5 -1 767.22 39.4
6 -5 -1 742.93 38.8
-6 5 1 753.52 40
-6 5 1 777.72 44.6
5 -5 -1 3614.04 124.29
5 -5 -1 3621.54 117.09
-5 5 1 3602.94 137.19
-5 5 1 3420.66 124.99
4 -5 -1 84.29 11.4
4 -5 -1 78.49 10.7
4 -5 -1 63.99 13.5
-4 5 1 63.79 9.6
-4 5 1 73.09 14.3
-4 5 1 40.6 12.9
3 -5 -1 1817.52 70.59
3 -5 -1 1792.02 60.49
-3 5 1 1881.11 80.79
-3 5 1 1867.31 69.79
-3 5 1 1735.73 70.59
-3 5 1 1794.72 59.99
2 -5 -1 338.77 20.1
2 -5 -1 334.77 30.7
2 -5 -1 250.67 24.2
2 -5 -1 313.57 22.6
2 -5 -1 295.97 12.2
2 -5 -1 312.17 12.7
-2 5 1 331.57 28.8
-2 5 1 307.97 12.5
-2 5 1 318.37 13.2
1 -5 -1 794.62 38.5
1 -5 -1 823.92 52.29
-1 5 1 828.42 51.29
-1 5 1 792.72 48.4
0 -5 -1 18.1 7
0 -5 -1 12.5 7.5
0 5 1 0.8 4.7
-1 -5 -1 386.36 28.2
-1 -5 -1 396.56 17.2
-1 -5 -1 425.26 30.5
-1 -5 -1 383.86 16.4
1 5 1 372.06 16.4
1 5 1 409.86 16.8
1 5 1 377.66 35.6
-2 -5 -1 418.56 32.7
-2 -5 -1 425.86 20.7
-2 -5 -1 395.26 20.8
2 5 1 380.26 19.8
2 5 1 385.36 38
2 5 1 384.76 20
-3 -5 -1 1583.84 59.09
-3 -5 -1 1486.25 57.79
-3 -5 -1 1523.85 76.39
3 5 1 1480.75 57.09
3 5 1 1526.25 57.69
3 5 1 1647.04 88.69
-4 -5 -1 307.77 41.7
-4 -5 -1 218.88 19.4
-4 -5 -1 266.27 21
4 5 1 289.37 36.5
4 5 1 244.18 19.6
4 5 1 243.68 19.8
7 -6 -1 6.2 6.3
7 -6 -1 -2 3.5
-7 6 1 8.3 6.3
-7 6 1 5.5 8.4
-7 6 1 9.5 5.9
-7 6 1 9.3 7.7
6 -6 -1 230.18 19.6
6 -6 -1 243.88 20.1
6 -6 -1 229.98 22.6
-6 6 1 238.78 20.6
-6 6 1 223.08 27.4
-6 6 1 175.58 23.2
-6 6 1 287.47 32.5
5 -6 -1 192.58 15.8
5 -6 -1 206.68 29.6
5 -6 -1 192.08 16
-5 6 1 220.78 21.9
-5 6 1 189.98 32.4
-5 6 1 213.58 16.6
4 -6 -1 1478.85 62.99
4 -6 -1 1326.27 50.29
4 -6 -1 1397.36 51.19
-4 6 1 1454.25 73.89
-4 6 1 1272.77 61.59
-4 6 1 1432.46 52.19
-4 6 1 1493.45 51.69
3 -6 -1 195.28 10.8
3 -6 -1 191.18 11.1
3 -6 -1 222.68 15.8
3 -6 -1 212.48 19.8
-3 6 1 232.78 20.8
-3 6 1 204.68 12.7
-3 6 1 194.88 11.1
-3 6 1 207.18 31.4
2 -6 -1 2505.65 119.79
2 -6 -1 2782.52 92.79
2 -6 -1 2620.74 97.69
-2 6 1 2707.13 111.69
1 -6 -1 331.77 25.7
1 -6 -1 344.17 24.6
-1 6 1 352.76 35.1
0 -6 -1 2577.74 98.79
0 -6 -1 2529.55 107.19
0 6 1 2691.63 116.49
-1 -6 -1 881.31 50.89
-1 -6 -1 944.61 50.69
1 6 1 980.7 64.69
-2 -6 -1 665.83 26.3
-2 -6 -1 656.53 45.3
-2 -6 -1 634.14 42.5
-2 -6 -1 700.33 26.9
2 6 1 655.13 26.1
2 6 1 681.13 26.3
2 6 1 712.33 56.49
-3 -6 -1 435.46 24
-3 -6 -1 413.56 37.8
-3 -6 -1 453.25 23.7
-3 -6 -1 447.86 41.2
3 6 1 465.15 23.5
3 6 1 375.76 43.5
6 -7 -1 943.31 47
6 -7 -1 929.21 43.4
6 -7 -1 860.31 49.5
-6 7 1 855.31 61.09
-6 7 1 873.01 43
-6 7 1 804.52 48.6
5 -7 -1 544.95 27.9
5 -7 -1 530.65 35.6
5 -7 -1 517.85 27.3
-5 7 1 566.94 28.6
-5 7 1 553.24 28.6
-5 7 1 506.55 36.3
-5 7 1 447.76 41.7
4 -7 -1 1175.38 40.7
4 -7 -1 1108.69 55.19
4 -7 -1 1129.89 40.7
-4 7 1 1092.99 40.7
-4 7 1 1088.69 67.49
-4 7 1 1084.39 56.29
3 -7 -1 50.79 9.2
3 -7 -1 40.8 10.3
-3 7 1 20.5 11.3
2 -7 -1 288.67 25
2 -7 -1 327.97 23.3
-2 7 1 311.77 33.8
1 -7 -1 303.27 25.8
1 -7 -1 260.57 22.9
-1 7 1 268.67 32.8
0 -7 -1 169.28 25
0 -7 -1 191.78 27.3
0 7 1 124.19 27
-1 -7 -1 918.11 54.49
-1 -7 -1 943.91 56.49
1 7 1 1195.58 74.99
5 -8 -1 582.94 26.3
5 -8 -1 473.05 35.9
5 -8 -1 551.74 26
-5 8 1 576.94 40.4
-5 8 1 623.34 30.1
-5 8 1 631.24 52.59
-5 8 1 559.24 26.8
4 -8 -1 419.86 32
-4 8 1 382.56 39.6
3 -8 -1 1817.12 67.99
3 -8 -1 1831.22 79.99
-3 8 1 1899.91 97.59
2 -8 -1 106.39 17.4
2 -8 -1 116.79 20.3
1 -8 -1 2296.17 93.39
1 -8 -1 2263.17 95.79
1 9 -2 15.4 12
-1 -9 2 17.5 7
-1 -9 2 13.4 7.2
0 9 -2 300.87 51.39
0 9 -2 247.88 30.9
0 -9 2 224.08 21.4
0 -9 2 207.28 18.4
-1 9 -2 105.09 30
1 -9 2 108.39 14.7
1 -9 2 86.49 13.9
-2 9 -2 680.53 59.39
2 -9 2 638.24 29.7
2 -9 2 622.44 31.4
3 -9 2 452.25 25.6
-4 9 -2 1547.65 95.39
-4 9 -2 1408.16 55.59
-4 9 -2 1432.16 58.59
4 -9 2 1464.05 54.29
4 -9 2 1491.65 53.09
4 -9 2 1435.46 57.49
3 8 -2 1193.28 76.49
-3 -8 2 1041.7 61.59
-3 -8 2 1163.78 57.19
2 8 -2 20.7 10.5
-2 -8 2 9.9 6.8
-2 -8 2 11.4 6.7
1 8 -2 2366.46 109.59
-1 -8 2 2501.65 96.39
-1 -8 2 2503.85 89.59
0 8 -2 480.45 40.4
0 8 -2 478.85 46.9
0 -8 2 487.55 30.5
0 -8 2 498.95 27.8
-1 8 -2 1656.03 93.39
1 -8 2 1716.33 61.89
1 -8 2 1676.63 63.89
-2 8 -2 891.91 65.29
2 -8 2 794.22 32.6
2 -8 2 757.92 34.3
-3 8 -2 807.32 61.89
-3 8 -2 774.12 33.6
3 -8 2 773.42 32.2
3 -8 2 768.72 31.2
3 -8 2 758.52 34.6
-4 8 -2 409.86 25.6
-4 8 -2 427.26 24.7
-4 8 -2 413.16 26.2
-4 8 -2 419.76 45.4
4 -8 2 380.16 24
4 -8 2 416.16 23.9
4 -8 2 420.26 24.9
-5 8 -2 245.88 21.3
-5 8 -2 286.07 23
-5 8 -2 225.78 22.9
-5 8 -2 268.77 43.5
5 -8 2 231.28 19.7
5 -8 2 244.28 23.6
4 7 -2 236.68 39.3
4 7 -2 249.38 16.2
4 7 -2 251.07 15.8
-4 -7 2 254.97 27.5
-4 -7 2 241.38 16.6
-4 -7 2 263.27 16.3
3 7 -2 484.85 19.5
3 7 -2 475.95 42.8
-3 -7 2 488.05 19.5
-3 -7 2 444.26 35.1
-3 -7 2 463.65 20
2 7 -2 58.59 17.6
-2 -7 2 92.69 14
-2 -7 2 102.69 18.1
1 7 -2 147.59 30.9
1 7 -2 176.18 31.4
-1 -7 2 163.88 22.3
-1 -7 2 188.18 15.7
0 7 -2 665.03 51.59
0 7 -2 727.83 45.8
0 -7 2 691.63 31.3
0 -7 2 577.24 33
-1 7 -2 216.58 34.9
1 -7 2 309.87 17.8
1 -7 2 258.77 25.5
1 -7 2 309.27 19.1
-2 7 -2 2210.48 70.89
-2 7 -2 2130.19 103.89
2 -7 2 2087.09 91.39
2 -7 2 2274.67 72.79
-3 7 -2 633.44 29.5
-3 7 -2 650.23 52.49
-3 7 -2 641.94 31.5
-3 7 -2 637.74 35.1
3 -7 2 716.93 31.4
3 -7 2 622.84 28.9
3 -7 2 643.84 30
3 -7 2 607.04 42.2
-4 7 -2 1144.49 75.09
-4 7 -2 1191.48 51.29
-4 7 -2 1168.78 51.39
4 -7 2 1234.08 49.9
4 -7 2 1214.58 50.89
-5 7 -2 1564.04 66.79
-5 7 -2 1587.94 93.29
-5 7 -2 1677.63 67.59
5 -7 2 1620.14 66.79
5 -7 2 1654.13 66.49
-6 7 -2 222.68 21.7
-6 7 -2 195.68 25.2
-6 7 -2 339.97 50.99
-6 7 -2 267.87 24.7
6 -7 2 211.18 39.1
6 -7 2 221.68 21.5
5 6 -2 804.72 62.39
5 6 -2 1033.2 50.69
5 6 -2 889.31 42.1
-5 -6 2 913.01 57.69
-5 -6 2 951.8 43.2
4 6 -2 1141.59 46.9
4 6 -2 1221.78 48.4
4 6 -2 1225.48 72.89
-4 -6 2 1243.88 49.7
-4 -6 2 1278.77 48.5
-4 -6 2 1241.28 63.99
3 6 -2 588.94 25.6
3 6 -2 598.44 45.1
3 6 -2 617.64 26.4
-3 -6 2 586.14 26.7
-3 -6 2 610.24 25.9
-3 -6 2 623.04 39.2
-2 -6 2 3448.35 121.49
1 6 -2 78.49 16.3
1 6 -2 91.49 21.5
-1 -6 2 83.99 17.2
-1 -6 2 106.19 10.5
-1 -6 2 125.79 16.9
0 -6 2 4331.17 158.38
-1 6 -2 77.59 5.9
-1 6 -2 73.39 6.6
-1 6 -2 49.4 15.7
1 -6 2 72.39 7.3
1 -6 2 70.19 14.5
1 -6 2 81.39 6.3
1 -6 2 71.69 5.8
-2 6 -2 1640.44 54.89
-2 6 -2 1674.93 82.89
-2 6 -2 1601.94 55.69
-2 6 -2 1620.74 56.69
2 -6 2 1572.84 69.49
2 -6 2 1624.54 55.09
2 -6 2 1564.14 52.69
2 -6 2 1574.84 54.39
2 -6 2 1653.63 55.79
-3 6 -2 35 7.8
-3 6 -2 31.3 8
-3 6 -2 14.3 10.4
3 -6 2 41.4 7.9
3 -6 2 29.6 9.5
3 -6 2 41.5 8.1
3 -6 2 32.9 7.8
-4 6 -2 356.76 23.5
-4 6 -2 379.56 38.8
-4 6 -2 357.66 24.6
4 -6 2 388.06 24.4
4 -6 2 392.26 24.3
-5 6 -2 52.09 11.6
-5 6 -2 89.79 15
-5 6 -2 61.09 12.7
5 -6 2 82.99 14.2
5 -6 2 49.7 11
-6 6 -2 520.45 34.9
-6 6 -2 514.05 35.4
-6 6 -2 462.95 32.6
6 -6 2 498.05 33.6
6 -6 2 506.65 34.2
-7 6 -2 117.89 21.1
7 -6 2 135.49 22.2
6 5 -2 203.98 39.7
6 5 -2 187.58 23.3
6 5 -2 194.78 19.5
-6 -5 2 164.28 27.5
-6 -5 2 187.28 29.6
-6 -5 2 203.38 19.9
-6 -5 2 201.58 28.3
5 5 -2 695.63 35.1
5 5 -2 635.34 34.5
5 5 -2 640.24 50.99
-5 -5 2 605.54 42.8
-5 -5 2 728.73 35.7
-5 -5 2 661.93 35.7
4 5 -2 648.84 47.7
4 5 -2 617.44 30.8
4 5 -2 684.33 32.4
-4 -5 2 679.23 33.2
-4 -5 2 685.03 32.2
-4 -5 2 741.03 43.4
3 5 -2 590.64 27.1
3 5 -2 669.73 44.2
3 5 -2 621.84 26.9
-3 -5 2 620.84 28.3
-3 -5 2 604.84 26.8
-3 -5 2 574.24 35.8
2 5 -2 8.1 5.2
2 5 -2 15 5.5
-2 -5 2 14.6 4.3
-2 -5 2 17.7 3.9
-2 -5 2 17.7 8.6
1 5 -2 1715.53 77.69
1 5 -2 1622.24 68.29
-1 -5 2 1561.44 67.09
0 5 -2 8 5.2
0 5 -2 2.6 1.5
0 5 -2 -1.3 4.6
0 5 -2 2.9 2.1
0 -5 2 4.8 3.1
0 -5 2 6.2 2.4
0 -5 2 2.7 3.5
0 -5 2 2.6 2.3
0 -5 2 19.9 8.6
-1 5 -2 4943.61 342.97
1 -5 2 4865.91 304.57
1 -5 2 5065.39 168.08
-2 5 -2 9 4.8
-2 5 -2 11.6 4
-2 5 -2 10.7 4.3
-2 5 -2 10.4 7.6
2 -5 2 9.4 3.3
2 -5 2 9.1 3.1
2 -5 2 26 7.5
2 -5 2 5.8 3.4
2 -5 2 6.1 3.3
-4 5 -2 1539.45 72.29
-4 5 -2 1790.92 66.79
-4 5 -2 1849.71 69.39
4 -5 2 1806.72 68.49
4 -5 2 1792.02 67.79
-5 5 -2 1267.57 56.99
-5 5 -2 1293.37 58.99
-5 5 -2 1273.67 57.99
5 -5 2 1321.37 58.09
5 -5 2 1389.46 58.69
-6 5 -2 1368.86 50.39
-6 5 -2 1412.06 63.39
-6 5 -2 1311.17 63.99
-6 5 -2 1310.87 63.49
6 -5 2 1461.15 64.69
6 -5 2 1290.67 62.39
-7 5 -2 203.68 26.7
-7 5 -2 231.58 29.8
-7 5 -2 195.78 16
-7 5 -2 231.08 29.7
7 -5 2 271.67 25.9
7 -5 2 211.88 27.1
7 4 -2 39.3 11.8
7 4 -2 20.4 11.4
7 4 -2 7.3 6.4
-7 -4 2 24.6 9.5
-7 -4 2 19.4 7.9
-7 -4 2 35.5 13.3
-7 -4 2 31.3 11.6
6 4 -2 1159.88 73.99
6 4 -2 1175.98 54.49
6 4 -2 1278.17 56.69
-6 -4 2 1191.48 54.99
-6 -4 2 1199.68 56.99
-6 -4 2 1300.17 62.79
-6 -4 2 1234.18 65.09
5 4 -2 252.47 29.4
5 4 -2 282.97 20.5
-5 -4 2 266.47 25.1
-5 -4 2 317.17 21.6
-5 -4 2 260.07 23.3
-5 -4 2 228.28 19.9
4 4 -2 1993.7 88.49
4 4 -2 1934.91 74.99
-4 -4 2 1943.51 68.59
-4 -4 2 1866.41 77.89
-4 -4 2 1924.31 70.19
-3 -4 2 3579.24 134.09
-2 -4 2 2210.38 89.99
1 4 -2 5588.44 172.18
1 4 -2 5051.39 172.98
-1 -4 2 5498.05 305.77
-1 -4 2 5756.82 298.77
0 4 -2 55.29 9.9
0 4 -2 50.09 5.1
0 4 -2 50.49 12.7
0 4 -2 65.19 7.3
0 -4 2 49.4 4.3
0 -4 2 42.1 10.5
0 -4 2 49.5 6
0 -4 2 55.89 6.3
0 -4 2 69.79 11.4
-1 4 -2 2104.29 85.29
-2 4 -2 20.3 5.1
-2 4 -2 29.5 5.7
-2 4 -2 19.9 5.5
2 -4 2 21.7 5.3
2 -4 2 33.6 5.7
2 -4 2 16.1 4.6
-3 4 -2 379.36 21.5
-3 4 -2 416.66 24.1
-3 4 -2 392.36 23
-3 4 -2 421.86 19.5
3 -4 2 392.46 23
3 -4 2 395.66 23.2
3 -4 2 394.26 17.8
-4 4 -2 318.47 21.3
-4 4 -2 294.87 17.9
-4 4 -2 287.57 21.2
4 -4 2 286.57 15.8
4 -4 2 269.47 20.5
4 -4 2 241.88 19.7
-5 4 -2 491.75 30.7
-5 4 -2 482.45 31.6
-5 4 -2 425.66 25.1
-5 4 -2 465.05 30.5
5 -4 2 506.05 31.3
-6 4 -2 938.51 50.39
-6 4 -2 968.3 49.9
-6 4 -2 925.41 43.1
-6 4 -2 868.91 49.2
6 -4 2 800.62 46.7
6 -4 2 890.81 48.7
-7 4 -2 1700.13 76.69
-7 4 -2 1330.17 77.79
-7 4 -2 1586.84 73.69
-7 4 -2 1505.55 64.69
7 -4 2 1423.66 78.69
7 -4 2 1455.25 71.19
7 3 -2 2.4 5.3
7 3 -2 5.5 5.3
-7 -3 2 14.6 7.9
-7 -3 2 12.3 7.5
-7 -3 2 15.9 9.3
-7 -3 2 2.1 4.4
6 3 -2 1125.59 51.99
6 3 -2 1119.09 51.59
-6 -3 2 1019.8 51.49
-6 -3 2 1130.69 58.29
-6 -3 2 1060.49 55.39
-6 -3 2 1132.99 51.79
5 3 -2 40.7 9.4
5 3 -2 32 8.4
-5 -3 2 32.2 10.8
-5 -3 2 53.09 10.7
-5 -3 2 46.2 10.8
4 3 -2 1041.7 41.3
4 3 -2 903.01 39.5
-4 -3 2 916.11 43
-4 -3 2 953.3 41.4
-4 -3 2 947.81 40.1
-4 -3 2 910.01 53.29
3 3 -2 133.79 11.1
-3 -3 2 136.89 11.7
-3 -3 2 150.28 11.5
-3 -3 2 141.89 21.3
2 3 -2 651.83 25.6
2 3 -2 658.83 32.9
2 3 -2 592.14 24.9
-2 -3 2 599.24 34.9
-2 -3 2 608.14 24.8
-2 -3 2 603.64 25.5
1 3 -2 2880.51 103.99
1 3 -2 2785.82 99.49
-1 -3 2 2553.24 205.68
-1 -3 2 2671.13 195.78
0 3 -2 3940.91 268.47
0 3 -2 3934.71 133.59
0 -3 2 3772.12 259.37
0 -3 2 4041.4 135.19
-1 3 -2 867.21 32.9
-1 3 -2 868.21 33.6
1 -3 2 890.11 33.2
1 -3 2 868.51 32.6
1 -3 2 854.91 33
-2 3 -2 6638.14 225.68
-2 3 -2 7137.89 479.05
2 -3 2 5918.81 221.18
2 -3 2 6755.72 456.25
-3 3 -2 448.06 24.5
-3 3 -2 452.35 25.5
-3 3 -2 481.45 26.7
-3 3 -2 498.45 24.5
3 -3 2 421.96 28.2
3 -3 2 507.75 23.2
-4 3 -2 3159.78 109.29
-4 3 -2 3219.08 109.99
-4 3 -2 3184.48 108.19
-5 3 -2 945.01 43.7
-5 3 -2 881.21 45.1
-5 3 -2 910.61 46.5
-5 3 -2 835.12 44.8
5 -3 2 843.02 44.5
5 -3 2 846.12 44.5
-6 3 -2 632.74 37.2
-6 3 -2 651.53 40.9
-6 3 -2 702.93 42
6 -3 2 575.24 38
6 -3 2 583.94 38.4
-7 3 -2 138.69 24.3
-7 3 -2 95.49 19.4
-7 3 -2 133.89 22.2
-7 3 -2 112.79 20.9
7 -3 2 141.99 23.7
7 -3 2 193.68 28.2
8 2 -2 35.9 12.1
8 2 -2 30.5 10.2
-8 -2 2 66.69 17
-8 -2 2 42 12.9
-8 -2 2 27.7 11.2
7 2 -2 1363.96 62.69
7 2 -2 1326.87 62.49
-7 -2 2 1371.06 67.29
-7 -2 2 1400.36 63.79
-7 -2 2 1418.56 65.29
-7 -2 2 1260.27 65.49
6 2 -2 36.8 8.7
6 2 -2 47.1 11.3
-6 -2 2 46.7 11.1
-6 -2 2 47.1 12.3
-6 -2 2 30.3 9.6
4 2 -2 854.61 37.2
4 2 -2 779.82 35.9
-4 -2 2 871.81 38
-4 -2 2 841.92 38.9
-4 -2 2 837.02 36.6
3 2 -2 6080.99 211.08
3 2 -2 5709.53 388.06
-3 -2 2 5832.12 386.26
-3 -2 2 6092.99 214.08
2 2 -2 2380.66 97.59
-2 -2 2 2363.66 97.29
-2 -2 2 2093.79 197.68
-2 -2 2 2303.37 94.59
1 2 -2 2072.49 85.99
-1 -2 2 2482.85 197.18
-1 -2 2 2205.48 175.88
0 2 -2 1440.66 158.98
0 -2 2 1507.45 65.59
0 -2 2 1454.95 160.28
0 -2 2 1546.05 64.29
-1 2 -2 49.1 7.5
-1 2 -2 37.7 6.2
-1 2 -2 49.7 7.9
1 -2 2 40.7 6.4
1 -2 2 63.39 9.6
1 -2 2 35.8 6.4
-2 2 -2 27.5 6.6
-2 2 -2 23.8 6
-2 2 -2 35.3 7.6
2 -2 2 17.1 6.1
2 -2 2 21.5 5.4
-3 2 -2 2148.19 77.59
3 -2 2 2228.58 77.29
-4 2 -2 29 8.2
-4 2 -2 33 8.4
-4 2 -2 41.5 10.4
-4 2 -2 26.4 7.5
4 -2 2 28.5 7.7
4 -2 2 35 8.6
4 -2 2 27.9 7.8
-5 2 -2 2142.69 83.79
-5 2 -2 2010 80.99
-5 2 -2 2113.89 83.69
-5 2 -2 2112.39 83.59
5 -2 2 2094.09 82.59
5 -2 2 2088.89 82.39
-6 2 -2 585.54 38.9
-6 2 -2 542.05 38.3
-6 2 -2 620.14 44.4
-6 2 -2 499.05 36.8
6 -2 2 671.03 40.1
6 -2 2 558.34 37.2
-7 2 -2 1280.47 67.29
-7 2 -2 1297.07 66.89
-7 2 -2 1301.87 73.59
-7 2 -2 1205.58 63.89
7 -2 2 1223.18 64.79
7 -2 2 1250.57 64.59
8 1 -2 197.88 26.4
8 1 -2 212.08 26.9
-8 -1 2 145.99 23
-8 -1 2 232.88 29.8
-8 -1 2 185.18 26.7
-8 -1 2 230.18 44.2
7 1 -2 1344.67 61.69
7 1 -2 1223.88 59.69
-7 -1 2 1378.26 65.59
-7 -1 2 1301.97 62.29
-7 -1 2 1348.07 61.89
-7 -1 2 1315.07 62.79
6 1 -2 43.9 10.9
6 1 -2 39.2 10
-6 -1 2 47.8 10.8
-6 -1 2 54.79 11.9
-6 -1 2 53.49 11.7
-6 -1 2 58.49 13.1
5 1 -2 772.22 37.3
5 1 -2 747.63 37
-5 -1 2 722.13 36.5
-5 -1 2 843.72 39.3
-5 -1 2 775.42 39.5
4 1 -2 1061.29 44.3
4 1 -2 1187.68 45.1
-4 -1 2 1097.99 44.3
-4 -1 2 1078.69 45.8
-4 -1 2 1114.59 49.7
3 1 -2 35.3 7
3 1 -2 34.2 6.4
3 1 -2 45 7.7
-3 -1 2 52.69 9.1
-3 -1 2 40.2 7.2
-3 -1 2 34.5 6.9
2 1 -2 4919.61 306.97
2 1 -2 5121.49 178.58
-2 -1 2 5699.13 328.57
-2 -1 2 5177.48 179.68
1 1 -2 4817.92 158.58
1 1 -2 4694.03 294.67
-1 -1 2 4774.32 295.07
-1 -1 2 4929.51 158.98
0 1 -2 4522.95 155.88
0 1 -2 4643.44 308.07
0 -1 2 4830.72 156.78
0 -1 2 4362.66 299.67
-1 1 -2 7587.54 244.58
-1 1 -2 6903.91 438.26
1 -1 2 7538.15 242.88
1 -1 2 7175.38 438.56
-2 1 -2 224.68 16
-2 1 -2 255.67 17.7
2 -1 2 252.07 17.3
2 -1 2 234.28 16.3
-3 1 -2 6398.46 237.78
-3 1 -2 6290.77 522.15
-3 1 -2 6438.36 242.58
3 -1 2 6224.88 237.58
3 -1 2 6700.63 627.24
-4 1 -2 42.6 10
-4 1 -2 44 10
-4 1 -2 46.7 10.6
4 -1 2 50.89 11.6
4 -1 2 56.99 11.7
4 -1 2 59.09 12
-5 1 -2 862.61 47.1
-5 1 -2 819.72 45.2
-5 1 -2 895.71 46.8
5 -1 2 818.82 44.1
-6 1 -2 3.1 5.3
-6 1 -2 -1.7 4.4
-6 1 -2 -0.3 4.9
-6 1 -2 32.3 10.8
6 -1 2 7.8 6.4
6 -1 2 33.2 11.1
8 0 -2 854.21 50.59
8 0 -2 973.1 52.69
-8 0 2 915.91 52.19
-8 0 2 943.91 54.99
-8 0 2 984.2 52.29
7 0 -2 592.04 36.3
-7 0 2 545.95 34.2
-7 0 2 581.34 36.2
-7 0 2 516.45 35.2
6 0 -2 3846.22 130.09
6 0 -2 3874.11 129.89
-6 0 2 3864.81 131.59
5 0 -2 54.19 10.9
5 0 -2 33.9 8.3
-5 0 2 35.5 8.1
-5 0 2 29.3 7.7
-5 0 2 28.1 7.2
4 0 -2 5947.71 247.18
4 0 -2 7020.4 470.25
-4 0 2 6581.74 238.58
3 0 -2 1499.85 76.39
3 0 -2 1301.87 215.58
3 0 -2 1457.55 77.79
-3 0 2 1487.55 191.58
-3 0 2 1522.45 79.69
-3 0 2 1480.55 76.19
2 0 -2 1700.63 78.79
2 0 -2 1783.02 77.39
2 0 -2 1451.25 158.48
-2 0 2 1660.43 75.69
-2 0 2 1732.73 174.78
-2 0 2 1745.73 78.89
1 0 -2 1437.16 155.18
1 0 -2 1272.97 58.89
-1 0 2 1284.17 58.39
-1 0 2 1344.97 159.48
-1 0 2 1304.97 56.59
0 0 -2 529.55 22.7
0 0 -2 590.54 25.5
0 0 -2 587.84 23.9
0 0 -2 470.65 28.2
0 0 2 560.24 23
0 0 2 549.65 25.9
0 0 2 580.04 25.9
-1 0 -2 2.5 2.4
-1 0 -2 2.7 2.7
-1 0 -2 1.3 2.9
1 0 2 1.7 3
1 0 2 0.8 2.7
1 0 2 1.9 3
1 0 2 2.9 2.6
-2 0 -2 2022.2 73.69
2 0 2 1975 72.69
2 0 2 1980 69.39
-3 0 -2 222.78 19.4
-3 0 -2 199.18 16.9
-3 0 -2 224.98 17.7
3 0 2 217.78 19.1
3 0 2 217.88 17.4
3 0 2 204.28 17
-4 0 -2 3108.19 112.79
-4 0 -2 3102.09 108.39
-4 0 -2 3129.79 108.69
4 0 2 3018.9 106.79
4 0 2 3062.79 107.49
4 0 2 3045.9 111.09
-5 0 -2 15.3 8.4
-5 0 -2 30.2 9.7
-5 0 -2 31.6 9.7
5 0 2 38.5 10.2
5 0 2 40.2 11.1
-6 0 -2 2330.57 95.79
-6 0 -2 2267.27 95.59
-6 0 -2 2338.87 100.19
6 0 2 2302.97 110.99
6 0 2 2193.08 93.59
6 0 2 2297.87 93.99
8 -1 -2 400.26 31.6
8 -1 -2 439.46 32.8
-8 1 2 400.16 32.6
-8 1 2 433.96 33
-8 1 2 366.16 32.3
7 -1 -2 185.18 24.4
7 -1 -2 235.98 21.4
-7 1 2 154.18 15.9
-7 1 2 168.48 22.1
-7 1 2 201.58 24.7
6 -1 -2 18.2 7.6
6 -1 -2 14.8 6.5
-6 1 2 3.5 4.4
-6 1 2 16 6.9
-6 1 2 11.9 5.7
5 -1 -2 1238.38 53.99
5 -1 -2 1297.67 52.39
5 -1 -2 1146.39 49.99
-5 1 2 1304.67 54.89
-5 1 2 1327.47 52.19
-5 1 2 1168.08 51.29
4 -1 -2 247.58 17.1
4 -1 -2 228.28 16.5
4 -1 -2 249.68 18.5
-4 1 2 217.08 16.5
-4 1 2 212.18 15.7
-4 1 2 218.08 17.3
3 -1 -2 3087.59 126.89
3 -1 -2 3024.5 123.39
3 -1 -2 3339.57 275.57
-3 1 2 3008.4 127.49
-3 1 2 2691.83 258.67
-3 1 2 3101.09 124.49
2 -1 -2 418.66 21.6
2 -1 -2 415.56 18.9
2 -1 -2 387.56 19
2 -1 -2 377.76 19.5
-2 1 2 388.26 19.1
-2 1 2 424.26 20.4
-2 1 2 407.96 21.5
-2 1 2 374.16 18.3
-2 1 2 441.76 16.9
1 -1 -2 7628.14 247.98
1 -1 -2 8116.19 420.46
-1 1 2 8001.6 247.58
-1 1 2 8723.53 437.66
0 -1 -2 4553.44 322.47
0 -1 -2 4236.78 153.08
0 1 2 4308.97 312.67
0 1 2 4558.14 153.18
-1 -1 -2 1581.14 55.49
-2 -1 -2 3493.45 147.29
-2 -1 -2 3299.27 352.86
-2 -1 -2 3490.35 142.19
2 1 2 3366.36 142.69
2 1 2 3160.38 136.19
-3 -1 -2 156.58 14.8
-3 -1 -2 95.29 14.8
3 1 2 149.69 14.1
3 1 2 113.49 19.8
3 1 2 177.98 23.5
3 1 2 148.79 14.5
-4 -1 -2 933.61 45.7
-4 -1 -2 888.81 51.59
-4 -1 -2 894.31 49.8
4 1 2 830.72 43
4 1 2 938.51 45.3
4 1 2 912.61 56.69
-5 -1 -2 79.29 15.7
-5 -1 -2 56.49 15.5
-5 -1 -2 64.59 13.5
5 1 2 58.59 12.5
5 1 2 50.29 12.2
5 1 2 36 12.8
-6 -1 -2 93.29 29.6
-6 -1 -2 81.29 21.6
-6 -1 -2 77.79 17.6
6 1 2 78.49 17.2
6 1 2 81.69 17.2
6 1 2 91.09 25.4
8 -2 -2 1808.92 80.49
8 -2 -2 1929.51 81.49
-8 2 2 1834.62 72.29
-8 2 2 1850.41 81.39
-8 2 2 1912.61 85.49
-8 2 2 1877.61 82.89
7 -2 -2 1788.02 73.99
7 -2 -2 1627.14 70.99
-7 2 2 1677.23 64.39
-7 2 2 1719.23 72.49
-7 2 2 1776.72 74.59
6 -2 -2 987.2 48.8
6 -2 -2 912.41 44.8
6 -2 -2 861.31 43.5
-6 2 2 958.9 46.2
-6 2 2 946.81 45.3
4 -2 -2 19.6 5.5
4 -2 -2 16.4 5.3
4 -2 -2 26.3 6.9
-4 2 2 33.6 6.8
-4 2 2 23.1 6.4
-4 2 2 17 6.4
-4 2 2 10.2 4.6
-3 2 2 1619.94 61.49
2 -2 -2 2.5 3.4
2 -2 -2 12.8 5.1
2 -2 -2 10.8 4
2 -2 -2 5.4 3.8
2 -2 -2 11.6 3.9
-2 2 2 5.6 3.9
-2 2 2 2 3.1
-2 2 2 2.6 3.3
-2 2 2 10.4 3.4
1 -2 -2 616.14 30.2
1 -2 -2 641.94 25.2
1 -2 -2 621.74 30.1
1 -2 -2 664.53 25.8
1 -2 -2 657.53 35.5
1 -2 -2 598.14 29.6
-1 2 2 596.24 25.4
-1 2 2 616.54 29.7
-1 2 2 645.04 25
-1 2 2 658.13 35.9
0 -2 -2 532.15 29.2
0 -2 -2 536.15 23.5
0 -2 -2 524.75 30.6
0 -2 -2 605.74 29.6
0 -2 -2 552.74 33.3
0 -2 -2 524.95 23.9
0 2 2 573.74 23.6
0 2 2 569.84 29.9
0 2 2 589.14 34.5
0 2 2 539.05 23.8
-1 -2 -2 692.53 29.4
-1 -2 -2 670.13 29.5
-1 -2 -2 597.64 34.3
-1 -2 -2 650.53 38.8
1 2 2 667.03 35.8
1 2 2 681.23 40
1 2 2 630.04 28.2
1 2 2 673.73 29.4
-2 -2 -2 2021.3 80.49
-2 -2 -2 1982.9 71.79
2 2 2 2038.3 86.89
2 2 2 2134.49 72.39
2 2 2 1957.6 80.09
-3 -2 -2 2294.57 82.79
-3 -2 -2 2353.66 92.89
-3 -2 -2 2368.56 83.19
3 2 2 2149.48 90.09
3 2 2 2296.57 81.69
3 2 2 2119.99 80.79
-4 -2 -2 187.78 18.7
-4 -2 -2 244.18 20.8
-4 -2 -2 176.58 24.9
4 2 2 246.08 20.4
4 2 2 206.88 19.1
4 2 2 156.88 27.1
-5 -2 -2 2239.28 101.59
-5 -2 -2 2345.27 92.59
-5 -2 -2 2290.57 99.79
5 2 2 2538.55 116.59
5 2 2 2237.68 91.39
5 2 2 2183.68 89.89
8 -3 -2 395.26 31
8 -3 -2 394.36 31
-8 3 2 397.16 33.4
-8 3 2 346.47 29.3
-8 3 2 424.66 33.5
-8 3 2 355.96 22.4
7 -3 -2 58.19 12.7
7 -3 -2 46.1 12.5
7 -3 -2 61.79 12.9
-7 3 2 48.9 8.3
-7 3 2 22.9 8.7
-7 3 2 64.99 14.4
6 -3 -2 638.24 35.2
-6 3 2 656.53 39.5
-6 3 2 666.63 39.4
-6 3 2 593.64 35.3
-6 3 2 626.64 27.7
5 -3 -2 566.54 30.4
5 -3 -2 597.84 30.9
5 -3 -2 591.84 34.5
-5 3 2 516.25 29.1
-5 3 2 576.24 31.3
-5 3 2 564.14 33.9
-5 3 2 535.65 23.9
3 -3 -2 130.89 10.6
3 -3 -2 121.49 10.5
3 -3 -2 117.29 15.7
3 -3 -2 139.49 10.9
-3 3 2 136.79 11.2
-3 3 2 106.49 11
-3 3 2 95.49 13.4
-3 3 2 121.59 13.2
-3 3 2 139.09 10.7
2 -3 -2 6489.85 224.58
2 -3 -2 7217.98 232.28
-2 3 2 8167.08 440.46
1 -3 -2 523.65 29.2
1 -3 -2 492.25 29.7
1 -3 -2 527.75 22
1 -3 -2 507.75 22.1
1 -3 -2 577.94 29.8
1 -3 -2 543.25 35
-1 3 2 503.05 22.2
-1 3 2 517.35 35
-1 3 2 549.25 22
-1 3 2 518.75 28
0 -3 -2 4221.68 149.39
-1 -3 -2 1262.97 57.39
-1 -3 -2 1257.27 47.4
-1 -3 -2 1144.69 61.79
-1 -3 -2 1313.67 46.9
1 3 2 1267.37 64.79
1 3 2 1281.77 46.7
1 3 2 1246.38 46.6
1 3 2 1290.87 57.89
-2 -3 -2 882.71 59.59
-2 -3 -2 836.42 37.4
-2 -3 -2 770.82 41.6
2 3 2 885.71 37.8
2 3 2 894.41 47.8
2 3 2 801.62 36.4
2 3 2 804.12 65.69
-3 -3 -2 327.77 29
-3 -3 -2 348.07 23.6
-3 -3 -2 326.17 22.7
3 3 2 245.78 22
3 3 2 307.77 32.7
-4 -3 -2 258.07 36.4
-4 -3 -2 246.58 22
-4 -3 -2 273.37 22.8
4 3 2 262.17 21.9
4 3 2 258.87 31.9
4 3 2 269.57 22.4
-5 -3 -2 10.9 6.7
-5 -3 -2 8.7 5.9
-5 -3 -2 5.8 7.5
5 3 2 -3.1 3
5 3 2 24.2 11.1
5 3 2 7 5.5
8 -4 -2 432.16 33.2
8 -4 -2 488.75 35.1
8 -4 -2 487.65 38
-8 4 2 504.55 36.6
-8 4 2 446.06 33.9
-8 4 2 498.95 38.3
7 -4 -2 1302.47 59.39
7 -4 -2 1248.98 58.69
7 -4 -2 1368.96 65.29
-7 4 2 1297.27 60.79
-7 4 2 1173.18 57.59
6 -4 -2 1504.55 67.49
6 -4 -2 1499.05 61.79
6 -4 -2 1475.05 61.59
-6 4 2 1431.26 62.19
-6 4 2 1515.95 61.59
-6 4 2 1388.86 66.29
5 -4 -2 418.66 29.6
5 -4 -2 437.46 25.7
-5 4 2 419.36 25.4
-5 4 2 440.56 30.9
-5 4 2 423.96 26.2
-5 4 2 469.05 33.4
4 -4 -2 1621.34 59.19
4 -4 -2 1695.33 68.19
-4 4 2 1557.64 53.09
-4 4 2 1631.14 60.19
-4 4 2 1587.54 68.09
-4 4 2 1673.83 70.19
-4 4 2 1696.93 59.49
3 -4 -2 192.78 13
3 -4 -2 175.58 13.5
3 -4 -2 187.88 17.8
3 -4 -2 172.88 12.2
-3 4 2 182.68 13.1
-3 4 2 190.78 18.1
-3 4 2 174.68 12.1
-3 4 2 166.18 18
-3 4 2 166.78 12.8
2 -4 -2 126.89 18.5
2 -4 -2 86.69 7.7
2 -4 -2 96.59 20.9
2 -4 -2 99.89 8.1
2 -4 -2 122.79 16.5
2 -4 -2 117.69 14.1
-2 4 2 104.29 11.1
-2 4 2 97.29 15
-2 4 2 85.29 8.2
-2 4 2 79.79 15
1 -4 -2 682.83 46
1 -4 -2 822.82 29.3
1 -4 -2 808.22 43.9
1 -4 -2 826.32 40.2
1 -4 -2 776.32 29.5
1 -4 -2 766.62 40.3
-1 4 2 818.42 39.4
-1 4 2 757.32 29.2
-1 4 2 903.01 51.79
-1 4 2 793.72 29
0 -4 -2 312.47 31.9
0 -4 -2 288.97 15.8
0 -4 -2 302.57 15.5
0 -4 -2 314.97 24.2
0 -4 -2 285.47 23.1
0 4 2 297.97 15.5
0 4 2 297.07 15.3
0 4 2 271.87 28.3
0 4 2 248.48 21.8
-1 -4 -2 2177.38 84.19
-1 -4 -2 2350.16 100.29
-1 -4 -2 2255.47 101.89
1 4 2 2397.36 79.49
1 4 2 2394.56 76.39
1 4 2 2311.97 92.09
1 4 2 2371.56 104.39
-2 -4 -2 935.61 40.2
-2 -4 -2 909.91 52.09
-2 -4 -2 908.31 39.1
2 4 2 733.83 55.19
2 4 2 973.3 39.5
-3 -4 -2 1049.2 60.89
-3 -4 -2 1131.89 48.9
-3 -4 -2 1049 48.2
3 4 2 1043.2 46.7
3 4 2 1112.09 70.19
3 4 2 1071.39 47.7
-4 -4 -2 1621.74 69.19
-4 -4 -2 1680.33 85.69
-4 -4 -2 1672.73 69.99
4 4 2 1651.73 68.49
4 4 2 1622.94 94.69
4 4 2 1596.04 67.29
8 -5 -2 114.99 19.7
8 -5 -2 75.49 16.8
8 -5 -2 104.99 18.2
-8 5 2 117.89 21.3
-8 5 2 114.09 19.9
7 -5 -2 160.48 25.8
7 -5 -2 184.18 23.2
7 -5 -2 188.28 23.3
-7 5 2 244.58 35.7
-7 5 2 173.98 22
-7 5 2 227.38 30.5
-7 5 2 215.18 21.1
6 -5 -2 1189.28 51.79
6 -5 -2 1161.38 51.29
6 -5 -2 1081.79 56.79
-6 5 2 1103.89 50.59
-6 5 2 1052.89 58.29
-6 5 2 1198.28 64.19
5 -5 -2 993.1 44.3
5 -5 -2 1017.8 52.69
-5 5 2 942.91 52.19
-5 5 2 1126.69 47.7
-5 5 2 1042.3 44.6
-5 5 2 1133.59 58.99
4 -5 -2 795.52 33.9
4 -5 -2 717.33 41.4
4 -5 -2 773.12 33.4
-4 5 2 686.33 41.5
-4 5 2 759.72 34.1
-4 5 2 778.62 29.9
-4 5 2 817.32 46.7
3 -5 -2 3513.75 125.39
-3 5 2 3770.52 132.09
-3 5 2 3568.74 126.99
2 -5 -2 148.89 23.3
2 -5 -2 126.69 8.2
2 -5 -2 129.89 8.5
2 -5 -2 153.78 20.8
2 -5 -2 134.19 14.5
-2 5 2 130.09 22
-2 5 2 159.08 14.8
-2 5 2 148.39 8.7
1 -5 -2 2546.15 106.59
1 -5 -2 2770.12 99.29
1 -5 -2 2717.23 101.09
-1 5 2 2596.04 114.69
-1 5 2 2723.83 97.39
0 -5 -2 310.47 14.9
0 -5 -2 307.07 14.2
0 -5 -2 310.17 26.6
0 -5 -2 279.27 24.8
0 5 2 322.87 14.7
0 5 2 295.87 32
0 5 2 303.47 14.7
-1 -5 -2 862.71 34.1
-1 -5 -2 841.32 33.1
-1 -5 -2 834.42 48.2
-1 -5 -2 790.72 48.5
1 5 2 862.81 33.1
1 5 2 823.32 33.2
1 5 2 847.42 59.29
-2 -5 -2 18.3 9.8
-2 -5 -2 10.5 7.8
-2 -5 -2 14.3 5.8
-2 -5 -2 13.6 5.1
2 5 2 10.6 4.5
2 5 2 7.4 8.8
2 5 2 10.5 5.1
-3 -5 -2 251.67 20.1
-3 -5 -2 233.68 18.7
-3 -5 -2 179.98 28.6
3 5 2 254.77 19.1
3 5 2 196.78 39.8
3 5 2 227.18 18
7 -6 -2 266.87 23.1
7 -6 -2 242.88 21.7
7 -6 -2 282.67 35
-7 6 2 279.37 36
-7 6 2 321.47 33.9
-7 6 2 259.27 23.6
6 -6 -2 798.32 39.7
6 -6 -2 816.02 40
6 -6 -2 713.13 45.4
-6 6 2 827.52 40.3
-6 6 2 669.83 45.6
-6 6 2 798.62 40.9
5 -6 -2 181.28 25.9
5 -6 -2 162.48 14.1
5 -6 -2 194.58 16.7
-5 6 2 186.98 15.9
-5 6 2 177.98 27.9
-5 6 2 174.68 25.8
4 -6 -2 250.17 20.1
4 -6 -2 282.97 24.9
4 -6 -2 263.77 16.2
4 -6 -2 251.57 15.6
-4 6 2 258.67 15.9
-4 6 2 259.87 27.7
-4 6 2 284.87 25.7
3 -6 -2 16.9 3.6
3 -6 -2 12.5 3.1
3 -6 -2 13.3 7.6
3 -6 -2 28.9 7.6
-3 6 2 14 3.6
-3 6 2 18.4 10.8
-3 6 2 19.4 4.1
2 -6 -2 874.01 47.3
2 -6 -2 758.22 41.4
1 -6 -2 58.59 14.5
1 -6 -2 58.29 13.7
-1 6 2 38.1 14
0 -6 -2 1840.12 81.29
0 -6 -2 1741.73 79.69
0 6 2 1859.01 97.09
-1 -6 -2 44.3 14.1
-1 -6 -2 46.6 13.2
1 6 2 64.79 22.4
6 -7 -2 167.38 15.6
6 -7 -2 170.88 15.8
6 -7 -2 134.49 21.2
-6 7 2 189.88 33.2
-6 7 2 150.08 15
-6 7 2 176.78 27.7
5 -7 -2 1528.45 56.39
5 -7 -2 1529.35 73.19
5 -7 -2 1580.34 57.09
-5 7 2 1501.55 73.99
-5 7 2 1721.23 83.89
-5 7 2 1454.65 57.39
-5 7 2 1512.15 56.59
4 -7 -2 1321.67 44.3
4 -7 -2 1373.36 44.9
4 -7 -2 1326.27 65.79
4 -7 -2 1380.66 50.59
-4 7 2 1277.37 44.8
-4 7 2 1298.57 45.9
-4 7 2 1465.35 75.49
3 -7 -2 563.54 38.7
3 -7 -2 573.04 32.4
-3 7 2 535.75 44.1
2 -7 -2 1520.75 73.49
2 -7 -2 1670.73 70.89
1 -7 -2 84.49 17.9
1 -7 -2 109.99 20.7
-1 7 2 73.99 23.1
0 -7 -2 490.75 38.6
0 -7 -2 502.85 39.1
0 7 2 507.15 49.7
2 9 -3 1528.05 85.69
-2 -9 3 1419.56 72.49
-2 -9 3 1638.94 64.59
1 9 -3 5.7 11.4
1 9 -3 13.9 11
-1 -9 3 9.5 5.1
-1 -9 3 19.3 8.4
0 9 -3 1897.91 108.09
0 -9 3 1973.5 77.29
0 -9 3 1851.61 65.39
-1 9 -3 125.49 30.2
1 -9 3 143.09 13
1 -9 3 137.99 13.9
-2 9 -3 544.85 54.89
2 -9 3 618.74 28.4
2 -9 3 555.84 26.3
-3 9 -3 3.6 3.9
-3 9 -3 -2.1 8
-3 9 -3 2.7 2.8
3 -9 3 2.4 3.3
3 -9 3 1 2.9
-4 9 -3 269.77 18.7
-4 9 -3 414.36 60.89
-4 9 -3 302.37 21.3
-4 9 -3 297.67 22.6
4 -9 3 308.27 21
4 -9 3 274.07 21
3 8 -3 132.89 25.9
-3 -8 3 193.78 27.3
-3 -8 3 211.18 19.1
2 8 -3 75.89 19.6
-2 -8 3 117.99 15.8
-2 -8 3 91.49 18
1 8 -3 1013.1 58.59
1 8 -3 987.6 69.39
-1 -8 3 964.6 40.6
-1 -8 3 981.5 49.8
0 8 -3 46.1 18.3
0 8 -3 54.79 16.1
0 -8 3 65.69 13.6
0 -8 3 70.49 9.4
-1 8 -3 2697.43 126.99
1 -8 3 2811.62 89.79
1 -8 3 2213.08 113.99
-2 8 -3 142.49 13.2
-2 8 -3 166.78 13.3
-2 8 -3 121.49 26.8
2 -8 3 121.69 21.7
2 -8 3 169.08 12.6
2 -8 3 173.18 10.5
2 -8 3 168.38 11.9
2 -8 3 185.38 13.3
2 -8 3 207.98 13
-3 8 -3 2588.94 88.49
-3 8 -3 2662.03 84.99
-3 8 -3 2675.53 92.09
-3 8 -3 2571.84 128.19
3 -8 3 2602.64 89.89
-4 8 -3 690.93 34.5
-4 8 -3 684.93 60.89
-4 8 -3 747.43 40
-4 8 -3 706.33 37.1
4 -8 3 756.92 37.7
4 -8 3 755.42 38.5
-5 8 -3 386.66 28
-5 8 -3 371.26 44.1
-5 8 -3 344.47 24.9
5 -8 3 380.16 27.9
5 -8 3 366.56 27.1
5 7 -3 196.18 16.5
5 7 -3 192.38 15.9
5 7 -3 191.08 32
-5 -7 3 174.38 24.5
-5 -7 3 187.68 17
-5 -7 3 135.79 23.4
-5 -7 3 211.98 19.3
4 7 -3 1931.71 65.89
4 7 -3 2062.99 99.49
4 7 -3 1849.42 66.19
-4 -7 3 1856.31 85.89
-4 -7 3 1801.62 67.09
-4 -7 3 1895.41 65.69
3 7 -3 1612.74 53.79
3 7 -3 1568.34 53.79
3 7 -3 1635.64 82.29
-3 -7 3 1664.33 55.69
-3 -7 3 1556.34 72.99
2 7 -3 679.73 25.1
2 7 -3 663.73 53.99
2 7 -3 740.53 48
-2 -7 3 713.63 33.5
-2 -7 3 719.83 25.1
-2 -7 3 739.93 26
-2 -7 3 718.53 47.4
1 7 -3 2439.66 114.99
1 7 -3 2595.94 102.29
-1 -7 3 2522.85 81.29
0 7 -3 75.09 5.7
0 7 -3 59.29 14.4
0 7 -3 48.3 16.2
0 7 -3 71.99 6.4
0 -7 3 78.59 5.8
0 -7 3 76.49 6.1
0 -7 3 72.99 6.5
-1 7 -3 468.65 20.9
-1 7 -3 462.15 22.3
-1 7 -3 455.15 42
1 -7 3 470.15 20.8
1 -7 3 436.46 30.9
1 -7 3 444.06 21.2
-2 7 -3 331.27 37
-2 7 -3 395.66 23.3
-2 7 -3 427.16 21.8
2 -7 3 402.16 22.3
2 -7 3 387.76 21
2 -7 3 412.76 30
2 -7 3 376.36 20.2
-3 7 -3 109.19 13
-3 7 -3 136.79 17.4
-3 7 -3 124.29 28.2
3 -7 3 122.99 15.6
3 -7 3 104.39 13.9
-4 7 -3 748.23 36.9
-4 7 -3 849.12 63.29
-4 7 -3 800.72 43
4 -7 3 747.13 47
4 -7 3 841.02 40.7
4 -7 3 808.82 41
-5 7 -3 313.47 23.9
-5 7 -3 371.46 28.8
-5 7 -3 371.46 27.8
-5 7 -3 340.87 41.2
5 -7 3 395.36 28.1
5 -7 3 317.27 26
-6 7 -3 701.73 45.3
-6 7 -3 735.63 44.8
-6 7 -3 733.03 42
6 -7 3 714.33 43.6
6 -7 3 731.33 44.5
6 6 -3 517.95 32.6
6 6 -3 478.85 30.9
-6 -6 3 524.85 33.9
-6 -6 3 545.05 32.4
-6 -6 3 579.54 39.3
-6 -6 3 469.05 40.4
5 6 -3 13.6 4.9
5 6 -3 9.7 9.6
5 6 -3 10.7 6.1
-5 -6 3 23.8 8
-5 -6 3 11.1 6.9
-5 -6 3 12.5 7.6
-5 -6 3 6.6 4.6
4 6 -3 232.38 16.3
4 6 -3 206.78 34.4
-4 -6 3 194.48 21.5
-4 -6 3 203.18 16.7
-4 -6 3 218.08 15.7
-4 -6 3 241.48 20.1
3 6 -3 337.57 18.7
3 6 -3 357.76 18.7
3 6 -3 320.47 30
-3 -6 3 345.17 20.8
2 6 -3 1502.75 79.49
2 6 -3 1378.96 49.1
2 6 -3 1488.75 68.19
-2 -6 3 1581.54 51.49
-2 -6 3 1480.65 49.2
1 6 -3 1817.72 86.39
1 6 -3 1733.33 56.29
-1 -6 3 1703.43 56.19
-1 -6 3 1735.73 55.99
0 -6 3 4288.47 156.68
-1 6 -3 218.28 15.3
-1 6 -3 231.58 34.2
-1 6 -3 232.98 14.2
1 -6 3 241.08 15
1 -6 3 203.98 18
1 -6 3 229.18 16.2
1 -6 3 204.48 13.8
-3 6 -3 106.19 15.3
-3 6 -3 123.89 25.4
-3 6 -3 112.49 14.4
-3 6 -3 101.29 12.7
3 -6 3 75.49 12.2
3 -6 3 119.19 14.9
3 -6 3 89.29 13
3 -6 3 91.39 7.7
-4 6 -3 1293.37 55.89
-4 6 -3 1244.68 52.09
-4 6 -3 1398.96 59.19
4 -6 3 1148.79 54.69
4 -6 3 1314.27 55.99
-5 6 -3 283.37 22.9
-5 6 -3 406.16 28.4
-5 6 -3 301.07 26.1
5 -6 3 322.47 25.7
5 -6 3 331.87 26.3
-6 6 -3 500.55 39.6
-6 6 -3 452.65 32.6
-6 6 -3 471.35 35.8
6 -6 3 450.05 33.8
6 -6 3 513.05 36
6 5 -3 4.6 5.4
6 5 -3 2.8 4.7
6 5 -3 1.7 6.9
-6 -5 3 -1.7 2.7
-6 -5 3 -1.1 3.5
-6 -5 3 4.4 6.1
-6 -5 3 1 4.9
5 5 -3 3500.25 118.39
5 5 -3 3455.35 143.69
-5 -5 3 3632.24 121.59
-5 -5 3 3652.73 118.49
-5 -5 3 3587.34 124.59
-5 -5 3 3544.75 131.79
4 5 -3 984.7 42.2
4 5 -3 1066.29 59.69
4 5 -3 984.1 43
-4 -5 3 1100.09 45
-4 -5 3 997 42.1
-4 -5 3 1015.6 46.5
3 5 -3 1805.42 62.59
3 5 -3 1813.72 62.39
3 5 -3 1889.61 79.49
-3 -5 3 1709.13 62.99
-3 -5 3 1831.92 65.29
-3 -5 3 1669.53 100.39
-3 -5 3 1863.61 61.99
2 5 -3 2400.46 99.19
-2 -5 3 2262.87 95.49
1 5 -3 1328.87 54.29
1 5 -3 1244.88 44.3
1 5 -3 1330.87 65.79
-1 -5 3 1269.97 63.09
-1 -5 3 1293.27 45
-1 -5 3 1342.07 45.5
0 5 -3 240.48 15
0 5 -3 246.78 17.7
0 5 -3 240.18 25
0 5 -3 215.18 13.4
0 -5 3 267.87 14.8
0 -5 3 221.38 22.5
0 -5 3 239.08 14.3
0 -5 3 253.37 17.2
-1 5 -3 384.96 33.2
-1 5 -3 365.26 20.9
-1 5 -3 382.56 19.9
1 -5 3 351.36 21.2
1 -5 3 363.26 20.7
1 -5 3 349.77 19.6
-2 5 -3 30 5.8
-2 5 -3 26.9 10.9
-2 5 -3 6.5 4
-2 5 -3 17.8 6.4
2 -5 3 14.3 5.3
2 -5 3 15.9 4.9
2 -5 3 21.1 6.7
2 -5 3 21.9 6.3
-3 5 -3 1915.51 70.69
-3 5 -3 1779.22 70.99
-3 5 -3 1832.22 65.39
3 -5 3 1918.41 70.59
3 -5 3 1959.1 71.69
-4 5 -3 186.78 22.7
-4 5 -3 184.58 18.4
-4 5 -3 196.98 15.1
-4 5 -3 180.88 15.9
4 -5 3 186.98 13.3
4 -5 3 168.28 21
4 -5 3 176.28 17.4
-5 5 -3 2171.88 85.89
-5 5 -3 2084.89 86.09
-5 5 -3 2078.09 81.29
-5 5 -3 2110.49 75.89
5 -5 3 2155.88 84.99
5 -5 3 2043.2 83.79
-6 5 -3 673.53 36.4
-6 5 -3 705.23 44.7
-6 5 -3 777.02 47.2
6 -5 3 750.42 44.8
6 -5 3 705.43 43.8
7 4 -3 263.27 23.3
-7 -4 3 205.18 20.9
-7 -4 3 227.68 30.1
-7 -4 3 262.97 27.7
-7 -4 3 200.48 30.8
6 4 -3 81.99 14.5
6 4 -3 68.79 13.9
-6 -4 3 59.19 11.7
-6 -4 3 87.29 16.1
-6 -4 3 70.59 14.7
5 4 -3 87.79 13.9
5 4 -3 70.69 12
-5 -4 3 89.39 14.7
-5 -4 3 84.49 13.2
-5 -4 3 113.49 16.4
4 4 -3 1383.96 52.99
4 4 -3 1294.17 51.69
-4 -4 3 1311.67 52.99
-4 -4 3 1293.07 67.39
-4 -4 3 1337.37 51.39
-4 -4 3 1290.77 53.59
3 4 -3 311.47 24.6
3 4 -3 309.67 18.4
-3 -4 3 281.17 18.3
-3 -4 3 303.47 26.9
-3 -4 3 290.17 18
-3 -4 3 298.97 17.6
2 4 -3 5387.76 187.88
2 4 -3 4944.91 178.28
-2 -4 3 5481.75 382.96
-2 -4 3 4864.51 344.27
-1 -4 3 2956 106.99
0 4 -3 1995.5 89.39
0 4 -3 2000.8 85.79
0 4 -3 1778.12 224.88
0 -4 3 2026.5 87.59
0 -4 3 2400.76 249.58
0 -4 3 1996.2 90.49
-1 4 -3 4365.96 381.56
1 -4 3 4088.29 153.98
1 -4 3 3808.42 345.97
-2 4 -3 62.69 10.5
-2 4 -3 62.59 10.3
-2 4 -3 49.99 9.3
-2 4 -3 62.29 8.6
2 -4 3 69.39 10.2
2 -4 3 67.39 11.1
2 -4 3 89.19 12.8
-3 4 -3 2843.22 94.79
-3 4 -3 2682.43 107.89
3 -4 3 2923.51 98.39
-4 4 -3 113.59 17.3
-4 4 -3 121.59 16.5
-4 4 -3 157.98 19.8
-4 4 -3 111.49 16.5
4 -4 3 120.69 12
4 -4 3 96.59 15.4
4 -4 3 118.99 17.3
-5 4 -3 632.14 39
-5 4 -3 608.94 37.8
-5 4 -3 557.44 37.1
-5 4 -3 598.54 34.3
5 -4 3 564.84 31.1
5 -4 3 581.04 36.4
5 -4 3 545.95 35.7
-6 4 -3 90.49 16.4
-6 4 -3 79.19 16.9
-6 4 -3 78.89 17.3
6 -4 3 86.69 18.1
6 -4 3 90.39 17.4
8 3 -3 997.5 54.49
8 3 -3 937.31 53.99
-8 -3 3 987.5 62.89
-8 -3 3 981.3 55.99
-8 -3 3 996.1 54.59
-8 -3 3 941.71 57.39
7 3 -3 356.66 28.3
7 3 -3 391.66 29.1
-7 -3 3 358.36 30.2
-7 -3 3 335.77 30.5
-7 -3 3 363.66 29.3
-7 -3 3 377.96 28.4
6 3 -3 3405.06 123.19
-6 -3 3 3711.63 126.39
-6 -3 3 3607.44 123.39
-6 -3 3 3733.83 128.69
5 3 -3 3.9 4.4
5 3 -3 -3 1.7
-5 -3 3 6.1 4.5
-5 -3 3 -2 2
-5 -3 3 -0.6 3.1
-5 -3 3 1.8 5.1
-4 -3 3 3888.31 138.29
3 3 -3 234.58 15.9
3 3 -3 215.48 15.3
-3 -3 3 216.08 15.6
-3 -3 3 225.78 14.9
-3 -3 3 230.48 15.3
-3 -3 3 234.98 20.9
2 3 -3 1236.58 53.89
2 3 -3 1234.98 46
-2 -3 3 1274.27 46
-2 -3 3 1191.38 44.8
-2 -3 3 1258.77 52.99
1 3 -3 67.69 6.2
1 3 -3 82.09 8
1 3 -3 83.89 10.1
1 3 -3 104.29 16.2
1 3 -3 88.49 5.1
-1 -3 3 70.39 12.2
-1 -3 3 89.09 8.6
-1 -3 3 65.69 9.3
-1 -3 3 77.99 5
0 3 -3 231.88 15.4
0 3 -3 211.38 19.4
0 3 -3 240.88 9.7
0 3 -3 235.38 14.5
0 -3 3 241.08 15.2
0 -3 3 229.78 16.1
0 -3 3 225.78 14.5
-1 3 -3 686.63 32.1
-1 3 -3 729.53 31.6
-1 3 -3 733.43 32.8
1 -3 3 717.03 31.8
1 -3 3 697.23 31.5
1 -3 3 698.73 32.3
-2 3 -3 1823.02 66.99
-2 3 -3 1838.92 67.49
2 -3 3 1869.91 67.49
2 -3 3 1841.42 66.99
-3 3 -3 101.29 14.8
-3 3 -3 106.79 15
-3 3 -3 71.09 11.9
3 -3 3 69.59 11.6
3 -3 3 84.19 12.8
3 -3 3 96.59 14.4
-4 3 -3 4111.89 138.59
-4 3 -3 4049.09 138.99
-4 3 -3 4149.38 136.69
4 -3 3 4090.69 134.19
4 -3 3 4228.78 138.89
4 -3 3 3988.6 136.89
-5 3 -3 11.9 7.9
-5 3 -3 13.5 7.2
-5 3 -3 36.2 10.6
5 -3 3 20.6 7.8
5 -3 3 17.8 7.7
5 -3 3 20.5 6.9
-6 3 -3 1808.02 82.59
-6 3 -3 1814.72 81.79
-6 3 -3 1827.82 80.19
-6 3 -3 1787.92 80.99
6 -3 3 1785.52 80.29
6 -3 3 1847.62 81.59
8 2 -3 130.69 21.4
8 2 -3 128.39 21.2
-8 -2 3 153.08 23.3
-8 -2 3 155.48 32.4
-8 -2 3 184.48 27.1
-8 -2 3 164.58 26.2
7 2 -3 288.77 24.5
7 2 -3 212.88 21.4
-7 -2 3 271.27 25.2
-7 -2 3 259.27 22.9
-7 -2 3 282.57 25.4
-7 -2 3 249.88 24.1
6 2 -3 31.6 8.9
-6 -2 3 22.2 7.7
-6 -2 3 26.5 8.8
-6 -2 3 42.9 11.7
5 2 -3 2910.51 96.99
5 2 -3 2674.53 96.29
-5 -2 3 2735.93 97.49
4 2 -3 18.2 5.8
4 2 -3 29.3 7.4
-4 -2 3 13.6 5.4
-4 -2 3 19.7 7.8
-4 -2 3 29.1 7.4
-4 -2 3 15.2 5.8
3 2 -3 7931.61 469.85
3 2 -3 7587.94 264.37
-3 -2 3 7397.16 464.85
-3 -2 3 7560.94 263.07
2 2 -3 131.09 12.2
2 2 -3 106.49 10.6
2 2 -3 117.89 9.1
2 2 -3 120.89 10.4
-2 -2 3 120.19 9.1
-2 -2 3 129.19 11.3
-2 -2 3 152.58 11.6
-2 -2 3 112.59 11.2
1 2 -3 5498.15 387.96
1 2 -3 6581.14 215.88
-1 -2 3 6679.33 216.78
0 2 -3 4904.31 394.16
0 2 -3 5938.01 203.98
0 -2 3 5906.01 201.88
-1 2 -3 1697.93 60.09
1 -2 3 1653.63 60.09
-2 2 -3 2139.49 360.96
-2 2 -3 2446.06 123.19
-2 2 -3 2619.24 122.59
2 -2 3 2289.57 369.26
2 -2 3 2725.03 120.99
2 -2 3 2524.35 123.39
-3 2 -3 272.97 20.7
-3 2 -3 248.78 20.2
-3 2 -3 233.08 20.1
3 -2 3 237.98 19.5
3 -2 3 228.18 19
3 -2 3 241.78 19.4
-4 2 -3 503.75 32.1
-4 2 -3 392.96 29.7
-4 2 -3 483.35 32
4 -2 3 568.44 33
4 -2 3 479.45 31.3
4 -2 3 538.55 32.5
-5 2 -3 629.14 53.09
-5 2 -3 569.34 38
-5 2 -3 558.94 38.3
-5 2 -3 620.84 43.7
5 -2 3 621.34 37.9
5 -2 3 699.53 40.5
5 -2 3 577.24 37.3
-6 2 -3 34.5 11.6
-6 2 -3 21 10.7
-6 2 -3 26.3 9.7
-6 2 -3 41.3 13.2
6 -2 3 34.2 11.3
6 -2 3 38.5 12.4
8 1 -3 1084.69 57.49
8 1 -3 1096.49 57.49
-8 -1 3 1068.89 58.79
-8 -1 3 1193.38 58.79
-8 -1 3 1098.09 60.29
-8 -1 3 1055.09 57.09
7 1 -3 2345.77 92.19
7 1 -3 2322.47 91.79
-7 -1 3 2513.05 95.69
-7 -1 3 2362.66 92.49
-7 -1 3 2267.87 93.79
6 1 -3 799.52 40.4
6 1 -3 707.83 38.8
-6 -1 3 720.63 38.6
-6 -1 3 748.93 40.6
-6 -1 3 667.03 45.6
4 1 -3 7.4 3.9
4 1 -3 13.8 5.2
4 1 -3 14.4 5.7
-4 -1 3 18.5 6.3
-4 -1 3 11.3 4.9
-4 -1 3 21.6 6.6
3 1 -3 726.83 31.7
3 1 -3 698.53 31.8
3 1 -3 770.72 33.2
-3 -1 3 747.93 31.2
-3 -1 3 721.53 31.7
-3 -1 3 675.43 32
-3 -1 3 729.43 31.8
2 1 -3 167.08 12.4
2 1 -3 146.49 9.4
2 1 -3 157.88 11.9
2 1 -3 138.59 13
-2 -1 3 144.19 12.8
-2 -1 3 149.09 9.5
-2 -1 3 122.19 10.9
-2 -1 3 147.99 11.3
-2 -1 3 147.09 12.1
1 1 -3 389.16 18.1
1 1 -3 404.86 19.4
1 1 -3 396.36 19.9
1 1 -3 383.06 20.3
1 1 -3 400.16 22.5
-1 -1 3 407.16 20
-1 -1 3 363.86 22.7
-1 -1 3 402.46 22.7
0 1 -3 922.41 34.2
0 1 -3 869.91 39.3
0 1 -3 897.01 36
0 1 -3 887.11 36.8
0 1 -3 907.21 35
0 -1 3 897.01 35.9
0 -1 3 899.71 39.5
0 -1 3 875.31 36.4
-1 1 -3 2398.66 84.59
1 -1 3 2294.47 82.69
-2 1 -3 2482.15 90.59
-2 1 -3 2518.85 86.99
2 -1 3 2467.65 89.29
2 -1 3 2510.35 86.39
-4 1 -3 308.27 24.9
-4 1 -3 330.07 25.7
-4 1 -3 325.67 27.3
4 -1 3 283.37 43.2
4 -1 3 346.67 25.6
4 -1 3 292.97 28.2
-5 1 -3 2224.48 94.19
-5 1 -3 2169.48 90.39
-5 1 -3 2148.98 90.19
5 -1 3 2093.99 88.69
5 -1 3 2336.37 90.59
5 -1 3 2214.78 100.99
-6 1 -3 18.1 10.2
-6 1 -3 6.3 6.6
-6 1 -3 9.9 7.8
-6 1 -3 10.3 8
6 -1 3 2.9 5.9
6 -1 3 5.8 8.2
6 -1 3 7.4 6.8
9 0 -3 -1.7 5
9 0 -3 1.1 4.5
-9 0 3 9.2 7.8
-9 0 3 -2.1 3.1
-9 0 3 7.7 7.9
-9 0 3 5.6 6.2
8 0 -3 326.27 28.2
8 0 -3 281.77 35.8
-8 0 3 316.67 28
-8 0 3 307.67 28.8
-8 0 3 310.67 28.9
-8 0 3 354.96 27.8
7 0 -3 333.57 26.9
7 0 -3 346.47 27.5
-7 0 3 368.26 27.7
-7 0 3 384.76 29.3
6 0 -3 944.01 49.6
6 0 -3 1089.39 49.1
6 0 -3 1095.59 49.5
-6 0 3 949.11 46.8
-6 0 3 987.9 48.9
-6 0 3 1010.7 50.29
5 0 -3 1170.98 52.79
5 0 -3 1202.58 50.39
5 0 -3 1220.48 51.19
-5 0 3 1172.08 50.89
-5 0 3 1225.08 50.49
-5 0 3 1161.48 51.89
4 0 -3 4693.23 185.58
4 0 -3 4652.13 191.48
4 0 -3 4472.25 380.46
-4 0 3 4261.07 388.36
-4 0 3 4576.54 190.28
-4 0 3 4975 189.88
3 0 -3 192.58 15.2
3 0 -3 202.28 14.8
3 0 -3 182.28 14.1
-3 0 3 164.68 14.2
-3 0 3 178.28 13.7
-3 0 3 184.78 14.7
-3 0 3 194.78 14.9
2 0 -3 5460.25 203.68
2 0 -3 5834.72 199.18
-2 0 3 5918.41 408.86
-2 0 3 5954.4 375.66
1 0 -3 2918.91 279.77
1 0 -3 3068.09 122.79
-1 0 3 3119.99 122.59
-1 0 3 3138.99 295.87
0 0 -3 3697.53 145.09
0 0 -3 3633.14 139.69
0 0 -3 3750.02 335.97
0 0 3 3515.45 140.99
0 0 3 4003 347.97
0 0 3 3529.65 137.89
-1 0 -3 1166.28 46.5
-1 0 -3 1146.99 46.6
-1 0 -3 1165.28 51.39
1 0 3 1198.88 47
1 0 3 1195.08 51.59
1 0 3 1112.39 50.09
1 0 3 1133.09 45.5
-2 0 -3 1032.5 44.1
-2 0 -3 934.71 43.1
-2 0 -3 1006.4 48.4
2 0 3 987.3 47.6
2 0 3 924.41 42.7
2 0 3 934.11 48.4
2 0 3 910.21 41.8
-3 0 -3 87.79 15.3
-3 0 -3 79.29 13.6
-3 0 -3 99.29 15.1
3 0 3 139.89 19.1
3 0 3 113.59 20.3
3 0 3 66.49 12.2
3 0 3 63.39 13.2
-4 0 -3 387.76 29.2
-4 0 -3 456.95 34.3
-4 0 -3 424.96 30.4
4 0 3 388.16 31.7
4 0 3 428.06 29.9
4 0 3 498.95 31.6
4 0 3 419.46 36.3
-5 0 -3 13.8 8.9
-5 0 -3 16.1 8.2
-5 0 -3 20.4 9.3
5 0 3 22.7 11.4
5 0 3 15.6 8.2
5 0 3 34 11.3
9 -1 -3 1795.12 82.39
9 -1 -3 1825.12 82.99
-9 1 3 1760.22 75.69
-9 1 3 1754.42 85.79
-9 1 3 1799.72 82.69
-9 1 3 1591.74 81.79
8 -1 -3 795.02 64.79
8 -1 -3 691.33 43.5
-8 1 3 701.83 39.5
-8 1 3 733.23 45.7
-8 1 3 740.33 47.1
-8 1 3 736.63 44.4
7 -1 -3 1941.41 77.49
7 -1 -3 1830.62 76.19
7 -1 -3 1780.12 79.89
-7 1 3 1855.31 76.39
-7 1 3 1814.02 78.49
6 -1 -3 708.23 37.9
6 -1 -3 650.83 39.4
6 -1 -3 656.23 36.7
-6 1 3 716.13 46.2
-6 1 3 741.03 38.3
-6 1 3 651.13 37.2
5 -1 -3 245.78 20.8
5 -1 -3 276.67 20.2
5 -1 -3 266.67 19.8
-5 1 3 284.87 21
-5 1 3 254.67 19.3
-5 1 3 254.17 21
4 -1 -3 500.35 28.5
4 -1 -3 467.85 25.9
4 -1 -3 524.95 26.5
-4 1 3 443.76 24.6
-4 1 3 445.86 24.9
-4 1 3 424.36 25.3
-4 1 3 454.65 27.4
3 -1 -3 290.57 20.4
3 -1 -3 296.07 18.2
3 -1 -3 328.37 19.5
-3 1 3 309.37 20.8
-3 1 3 301.57 13.3
-3 1 3 324.17 18.8
-3 1 3 299.17 18.7
-3 1 3 287.47 19.2
2 -1 -3 14.5 5.9
2 -1 -3 11.2 4.8
2 -1 -3 16 4.8
2 -1 -3 31.7 9.3
2 -1 -3 26 6.2
-2 1 3 21.8 6.1
-2 1 3 28.5 8.1
-2 1 3 20.7 5.7
-2 1 3 19.4 5.5
1 -1 -3 2594.14 92.39
0 -1 -3 416.56 27.3
0 -1 -3 388.96 21.7
0 -1 -3 465.95 23.8
0 -1 -3 446.16 25.5
0 1 3 423.56 22
0 1 3 417.26 26.8
0 1 3 397.76 22.2
0 1 3 403.66 27.8
-1 -1 -3 4461.65 176.68
-1 -1 -3 4366.96 420.46
-1 -1 -3 4485.35 173.28
1 1 3 4049.29 168.58
1 1 3 4298.37 166.38
-2 -1 -3 1334.07 54.89
-2 -1 -3 1158.78 58.69
-2 -1 -3 1333.27 54.49
2 1 3 1275.37 53.79
2 1 3 1330.67 61.59
2 1 3 1394.76 65.19
2 1 3 1285.27 53.19
-3 -1 -3 1655.03 66.19
-3 -1 -3 1471.85 64.39
3 1 3 1537.75 63.89
3 1 3 1579.54 65.39
3 1 3 1685.13 74.09
3 1 3 1512.25 77.49
-4 -1 -3 1489.75 65.89
-4 -1 -3 1453.75 72.79
-4 -1 -3 1461.65 65.59
4 1 3 1489.45 72.39
4 1 3 1440.66 63.99
4 1 3 1449.65 78.89
4 1 3 1312.87 62.79
-5 -1 -3 111.89 20.2
-5 -1 -3 109.79 23.9
-5 -1 -3 94.29 19.6
5 1 3 77.69 19.7
5 1 3 128.69 22
5 1 3 115.99 29.8
9 -2 -3 117.89 20.8
9 -2 -3 119.59 21.8
-9 2 3 121.99 22.2
-9 2 3 109.69 21
-9 2 3 138.89 19.7
-9 2 3 152.48 26.6
8 -2 -3 658.43 41.2
8 -2 -3 544.35 37.9
-8 2 3 593.64 42.1
-8 2 3 652.43 34.3
-8 2 3 640.54 40.5
-8 2 3 576.44 40
7 -2 -3 203.58 20.1
7 -2 -3 268.07 23.3
7 -2 -3 263.27 31.4
-7 2 3 281.17 23.4
-7 2 3 212.18 21.3
6 -2 -3 2586.64 93.69
6 -2 -3 2650.43 93.39
-6 2 3 2565.74 97.79
-6 2 3 2536.05 87.89
-6 2 3 2498.45 92.49
-6 2 3 2464.85 93.59
5 -2 -3 2303.37 83.99
5 -2 -3 2441.46 85.39
5 -2 -3 2430.96 90.09
-5 2 3 2296.27 80.89
-5 2 3 2309.37 88.99
-5 2 3 2473.05 86.49
4 -2 -3 975.7 42.3
4 -2 -3 1000.8 41.9
-4 2 3 984.5 41.4
-4 2 3 889.41 45.2
-4 2 3 992.2 41.5
-4 2 3 983.7 42.1
-4 2 3 1029.8 40.6
3 -2 -3 5101.99 199.48
3 -2 -3 5334.67 194.28
-3 2 3 6170.48 449.06
-3 2 3 5468.95 400.36
2 -2 -3 67.29 12.7
2 -2 -3 95.89 9.5
2 -2 -3 104.39 10.1
2 -2 -3 78.09 12
2 -2 -3 81.89 10.4
2 -2 -3 59.69 11.7
-2 2 3 82.19 14.1
-2 2 3 95.49 14.5
-2 2 3 82.79 10.8
1 -2 -3 4789.72 176.88
1 -2 -3 4629.94 377.86
-1 2 3 4882.31 397.16
-1 2 3 4928.51 174.48
0 -2 -3 4.6 3.4
0 -2 -3 13.4 5
0 -2 -3 2.9 4.6
0 -2 -3 6 4.2
0 -2 -3 14.3 6.4
0 -2 -3 6 5.9
0 2 3 14.1 7.5
0 2 3 5.9 3.5
0 2 3 10.2 5.4
0 2 3 12.5 4.8
-1 -2 -3 756.62 36.2
-1 -2 -3 766.22 35.7
-1 -2 -3 703.53 42
1 2 3 775.22 43.4
1 2 3 832.02 48.8
1 2 3 811.72 36.6
-2 -2 -3 43.9 11.4
-2 -2 -3 78.29 13.1
-2 -2 -3 80.49 13.6
2 2 3 68.79 17.9
2 2 3 90.19 20.4
2 2 3 70.99 11.8
-3 -2 -3 300.97 29
-3 -2 -3 336.17 25.4
-3 -2 -3 335.07 25.1
3 2 3 327.37 33.3
3 2 3 317.07 23.8
-4 -2 -3 218.18 21.7
-4 -2 -3 228.08 22
-4 -2 -3 162.78 26.6
4 2 3 209.38 20.4
4 2 3 224.18 21.8
4 2 3 180.08 31.7
8 -3 -3 1502.75 69.09
8 -3 -3 1423.06 68.59
8 -3 -3 1413.16 72.99
-8 3 3 1499.95 73.89
-8 3 3 1446.06 55.69
-8 3 3 1505.05 57.89
-8 3 3 1458.75 68.59
-8 3 3 1542.85 71.09
7 -3 -3 256.07 22.6
7 -3 -3 176.38 24.5
7 -3 -3 215.08 21.2
-7 3 3 228.28 16.6
-7 3 3 231.58 21.4
-7 3 3 263.17 23.4
6 -3 -3 537.85 32.5
6 -3 -3 594.54 37.8
6 -3 -3 525.15 32.3
-6 3 3 549.15 33.4
-6 3 3 542.55 32.3
-6 3 3 565.54 36.9
-6 3 3 569.84 27.7
5 -3 -3 175.98 15.9
5 -3 -3 208.98 26.3
5 -3 -3 187.58 16.4
-5 3 3 185.38 24.7
-5 3 3 186.88 22.8
-5 3 3 161.38 13.4
-5 3 3 156.48 15.1
-5 3 3 166.28 16.8
4 -3 -3 548.95 28.3
4 -3 -3 547.25 33.9
4 -3 -3 607.04 30
-4 3 3 567.04 28.4
-4 3 3 556.14 29.8
-4 3 3 603.24 30.1
-4 3 3 556.94 34.6
3 -3 -3 38.9 7.8
3 -3 -3 44.9 8.3
3 -3 -3 30.7 8.9
3 -3 -3 57.49 11.1
3 -3 -3 39.2 9.2
-3 3 3 51.09 9.2
-3 3 3 44.9 8.9
-3 3 3 46.1 9.3
-3 3 3 56.19 9
-3 3 3 54.89 12.7
2 -3 -3 2985.3 103.69
-2 3 3 2846.22 102.99
-2 3 3 2874.41 99.99
1 -3 -3 91.69 14.9
1 -3 -3 125.49 15
1 -3 -3 131.69 19
1 -3 -3 150.58 23.5
1 -3 -3 134.19 11.7
1 -3 -3 130.99 11.1
-1 3 3 93.79 17.3
-1 3 3 123.39 11
-1 3 3 142.19 15.3
-1 3 3 121.39 10.6
0 -3 -3 3660.93 126.29
0 -3 -3 3414.26 129.29
0 -3 -3 3803.22 129.49
-1 -3 -3 63.89 16.7
-1 -3 -3 58.19 10.2
-1 -3 -3 66.69 14.4
-1 -3 -3 75.89 15.3
-1 -3 -3 71.79 11.5
1 3 3 84.39 19.1
1 3 3 67.89 11.1
1 3 3 63.09 13.6
1 3 3 80.89 11.7
-2 -3 -3 2866.61 99.19
-2 -3 -3 2956.4 115.09
-2 -3 -3 2861.11 99.79
2 3 3 2881.31 98.29
2 3 3 2664.03 121.09
-3 -3 -3 694.53 39.1
-3 -3 -3 705.13 39
-3 -3 -3 690.83 48.3
3 3 3 681.43 52.99
3 3 3 701.93 38.6
-4 -3 -3 481.35 33.8
-4 -3 -3 484.25 34
-4 -3 -3 463.55 41.3
4 3 3 479.45 46.9
4 3 3 475.45 33
4 3 3 503.35 33.4
8 -4 -3 0 5
8 -4 -3 10.5 6.8
8 -4 -3 10.6 7.8
-8 4 3 0.5 4.5
-8 4 3 21.5 11.1
7 -4 -3 1508.75 66.09
7 -4 -3 1501.15 66.79
7 -4 -3 1380.46 70.49
-7 4 3 1467.85 71.89
-7 4 3 1494.05 65.49
-7 4 3 1575.94 74.29
-7 4 3 1501.75 67.39
6 -4 -3 547.15 32.4
6 -4 -3 460.95 34.6
6 -4 -3 582.14 32.8
-6 4 3 597.14 33.1
-6 4 3 530.75 38.6
-6 4 3 527.15 36.1
5 -4 -3 2295.57 91.49
5 -4 -3 2327.27 81.99
5 -4 -3 2204.08 80.99
-5 4 3 2226.88 91.49
-5 4 3 2295.87 88.09
-5 4 3 2271.57 75.19
4 -4 -3 2110.89 85.49
4 -4 -3 2168.38 75.39
4 -4 -3 2056.39 74.99
-4 4 3 2210.78 75.19
-4 4 3 2135.79 81.59
-4 4 3 2278.97 75.39
-4 4 3 2145.59 76.49
3 -4 -3 669.53 35.1
3 -4 -3 682.13 30.5
3 -4 -3 698.13 39.9
3 -4 -3 684.33 30.8
-3 4 3 685.73 30
-3 4 3 690.23 37.4
-3 4 3 661.13 39.7
-3 4 3 662.13 34
-3 4 3 674.83 31.9
2 -4 -3 2297.77 89.29
2 -4 -3 2258.87 88.09
2 -4 -3 2420.06 87.69
-2 4 3 2246.98 75.99
-2 4 3 2263.77 84.89
1 -4 -3 216.98 14.9
1 -4 -3 214.88 31
1 -4 -3 191.28 20.8
1 -4 -3 192.88 19.8
-1 4 3 198.18 14.2
-1 4 3 223.28 20.9
-1 4 3 224.58 14.5
-1 4 3 257.57 38.6
0 -4 -3 322.57 30.1
0 -4 -3 336.97 28.5
0 -4 -3 321.87 19.8
0 -4 -3 317.57 27
0 4 3 384.76 29.7
0 4 3 325.67 19
0 4 3 376.56 35.4
0 4 3 352.56 20.2
-1 -4 -3 67.99 11.3
-1 -4 -3 47.6 9.3
-1 -4 -3 60.59 13.4
-1 -4 -3 44 11.9
1 4 3 32 12
-2 -4 -3 162.68 16.1
-2 -4 -3 140.39 17.4
-2 -4 -3 142.79 24.1
-2 -4 -3 140.39 23
2 4 3 155.18 14.9
2 4 3 143.09 14
2 4 3 83.39 21.7
-3 -4 -3 480.65 31.5
-3 -4 -3 535.55 33.4
-3 -4 -3 526.95 43.6
3 4 3 509.55 31.6
3 4 3 485.05 30.6
8 -5 -3 -1 3.9
8 -5 -3 12.8 9.1
8 -5 -3 9.2 5.8
-8 5 3 0.3 4.6
-8 5 3 7 8.5
-8 5 3 6.6 6
7 -5 -3 319.07 25.5
7 -5 -3 366.86 32
7 -5 -3 345.57 26.7
-7 5 3 350.16 31.7
-7 5 3 340.47 32
-7 5 3 335.57 30.1
-7 5 3 345.77 26.6
6 -5 -3 17.2 6.6
6 -5 -3 29.3 8.6
6 -5 -3 38.7 12.1
-6 5 3 25.7 8.5
-6 5 3 15.3 7.6
-6 5 3 41.4 12.6
-6 5 3 38.4 8.9
5 -5 -3 400.36 25.1
-5 5 3 439.96 21.8
-5 5 3 456.15 26
-5 5 3 457.15 33.3
-5 5 3 419.86 41.6
4 -5 -3 484.55 27.5
4 -5 -3 439.76 33.2
4 -5 -3 498.15 25.9
4 -5 -3 537.05 26.5
-4 5 3 515.35 27.2
-4 5 3 513.15 34.4
-4 5 3 478.25 27.1
-4 5 3 501.55 35.7
3 -5 -3 574.34 33.2
3 -5 -3 564.54 37.2
3 -5 -3 605.54 26.4
3 -5 -3 511.55 25.4
-3 5 3 556.44 25.5
-3 5 3 593.24 32.5
-3 5 3 577.84 27.4
2 -5 -3 1008 49.99
2 -5 -3 876.01 50.99
2 -5 -3 953 36.2
2 -5 -3 956.2 36.3
2 -5 -3 957.6 51.89
-2 5 3 978 37.1
-2 5 3 1012 36.2
1 -5 -3 1909.71 63.99
1 -5 -3 1952.9 84.49
1 -5 -3 1950.3 83.09
1 -5 -3 1927.41 63.39
-1 5 3 2022.2 64.09
-1 5 3 1984.6 64.39
-1 5 3 1893.71 97.49
-1 5 3 1875.01 81.09
0 -5 -3 184.38 13.4
0 -5 -3 164.58 12.2
0 -5 -3 194.68 27.6
0 -5 -3 147.99 24
0 5 3 128.19 26.3
0 5 3 184.18 12.8
-1 -5 -3 2052.99 71.39
-1 -5 -3 1950.5 69.69
-1 -5 -3 2011.2 92.69
-1 -5 -3 1902.61 88.69
1 5 3 2089.19 106.69
1 5 3 1932.11 68.99
1 5 3 2111.69 70.59
7 -6 -3 0.7 4.5
7 -6 -3 -4 2.8
7 -6 -3 1.2 3.5
-7 6 3 8.4 6.4
-7 6 3 4.9 4.5
-7 6 3 0.5 5.4
-7 6 3 10.8 6.7
6 -6 -3 2284.77 84.69
6 -6 -3 2212.68 97.59
-6 6 3 2311.27 84.79
-6 6 3 2457.55 102.29
5 -6 -3 210.58 16.4
5 -6 -3 221.08 28.6
5 -6 -3 229.88 17.2
-5 6 3 267.17 26.5
-5 6 3 155.58 24.4
-5 6 3 231.38 18.3
-5 6 3 215.78 16.7
4 -6 -3 1346.67 55.49
4 -6 -3 1359.26 49.7
4 -6 -3 1371.66 50.49
4 -6 -3 1370.86 67.69
-4 6 3 1366.56 51.79
-4 6 3 1446.46 69.69
-4 6 3 1405.26 68.39
-4 6 3 1280.37 49.1
3 -6 -3 453.65 20.6
3 -6 -3 439.76 34.5
3 -6 -3 499.55 31.9
3 -6 -3 471.95 20.3
-3 6 3 505.55 30.6
-3 6 3 462.65 20.3
2 -6 -3 372.46 29.9
2 -6 -3 368.86 31.6
1 -6 -3 134.09 24.3
1 -6 -3 107.39 19.4
-1 6 3 138.99 32.5
0 -6 -3 135.19 24.2
0 -6 -3 129.39 23.1
0 6 3 204.58 39.9
-5 7 3 625.84 45.2
4 -7 -3 76.09 18
4 -7 -3 102.59 15.6
-4 7 3 88.39 7.4
3 -7 -3 1320.37 69.09
3 -7 -3 1315.07 63.99
-1 10 -4 174.88 38.5
1 -10 4 167.88 17
1 -10 4 146.99 14.9
2 9 -4 1002.2 60.89
2 9 -4 892.51 71.89
-2 -9 4 947.61 39.3
-2 -9 4 903.11 37.5
-2 -9 4 857.91 51.09
1 9 -4 674.03 60.09
1 9 -4 705.43 48
-1 -9 4 581.94 37.8
0 9 -4 1973.2 109.99
0 -9 4 1907.71 75.89
-1 9 -4 39.1 6.6
-1 9 -4 37 18.3
-1 9 -4 38.9 5.9
1 -9 4 49.5 6.6
1 -9 4 53.79 7.3
1 -9 4 29.5 8.9
1 -9 4 24.7 7.1
-2 9 -4 1900.21 70.29
-2 9 -4 1810.42 66.39
-2 9 -4 2192.18 115.99
2 -9 4 1935.11 66.69
2 -9 4 1938.41 67.19
2 -9 4 1989.9 68.79
2 -9 4 1962.4 68.79
-3 9 -4 158.48 20.4
-3 9 -4 162.58 38.7
3 -9 4 161.88 15.6
3 -9 4 158.28 14.7
-4 9 -4 708.83 41.7
-4 9 -4 754.22 68.19
-4 9 -4 732.33 39.6
4 -9 4 774.22 41.5
4 8 -4 299.87 18.5
4 8 -4 336.07 35.6
4 8 -4 318.17 18.6
-4 -8 4 345.47 20.6
-4 -8 4 326.17 31.4
-4 -8 4 338.57 19
3 8 -4 823.72 32.5
3 8 -4 848.22 56.09
3 8 -4 894.81 32.8
-3 -8 4 817.12 31.6
-3 -8 4 803.72 37.8
-3 -8 4 865.71 33.5
-3 -8 4 861.41 50.19
2 8 -4 198.68 11.6
2 8 -4 190.78 34.8
2 8 -4 224.38 12.1
2 8 -4 156.78 41.1
-2 -8 4 227.88 12.3
-2 -8 4 246.48 15.3
-2 -8 4 219.88 11.6
-2 -8 4 236.28 14.6
1 8 -4 379.46 30.9
1 8 -4 347.17 16
1 8 -4 335.67 39.7
1 8 -4 358.86 16.7
-1 -8 4 352.96 16.2
-1 -8 4 351.76 16
0 8 -4 21.9 5.4
0 8 -4 9.6 3.4
0 8 -4 8.5 9.8
0 -8 4 15.7 7.2
0 -8 4 22.7 4.9
0 -8 4 17 4.3
-1 8 -4 560.94 28.4
-1 8 -4 563.34 51.59
1 -8 4 562.84 26.6
1 -8 4 528.85 34.8
1 -8 4 610.84 32.4
1 -8 4 588.24 27.7
-2 8 -4 45.5 9.8
-2 8 -4 35.8 7.7
-2 8 -4 52.99 20.3
2 -8 4 64.59 10.6
2 -8 4 44 8.9
2 -8 4 69.19 14.6
2 -8 4 40.7 8
-3 8 -4 1584.54 63.69
-3 8 -4 1657.43 67.89
-3 8 -4 1756.22 101.19
3 -8 4 1393.46 68.99
3 -8 4 1647.44 66.19
3 -8 4 1743.83 65.09
-4 8 -4 76.29 25.2
-4 8 -4 78.89 11.4
4 -8 4 88.19 15.6
4 -8 4 59.09 15.8
4 -8 4 69.19 13.6
-5 8 -4 1396.66 94.29
-5 8 -4 1438.26 66.39
5 7 -4 40.4 14
5 7 -4 35.6 8.5
5 7 -4 44.6 10.8
-5 -7 4 64.29 14.4
-5 -7 4 44.2 10.8
-5 -7 4 47.6 9.7
-5 -7 4 24.4 10.5
4 7 -4 1494.45 56.79
4 7 -4 1572.84 57.79
4 7 -4 1371.16 76.89
-4 -7 4 1454.25 58.49
-4 -7 4 1566.04 56.89
-4 -7 4 1632.24 62.89
3 7 -4 229.88 25.3
3 7 -4 235.68 15.6
3 7 -4 229.78 15.7
-3 -7 4 243.28 15.5
-3 -7 4 262.27 17.6
-3 -7 4 248.28 16.8
2 7 -4 2762.92 107.89
2 7 -4 2745.43 124.19
-2 -7 4 2791.62 86.59
-2 -7 4 2816.52 88.99
1 7 -4 2301.57 88.89
1 7 -4 2246.28 75.89
1 7 -4 2280.07 74.69
1 7 -4 2391.86 110.19
-1 -7 4 2353.56 75.39
-1 -7 4 2343.47 75.59
0 7 -4 1167.38 44.2
0 7 -4 1282.97 49.9
0 7 -4 1203.78 72.89
0 -7 4 1170.58 52.59
0 -7 4 1216.08 45.1
0 -7 4 1172.48 48.8
-1 7 -4 2424.96 114.89
-1 7 -4 2346.17 84.29
-1 7 -4 2323.27 80.89
1 -7 4 2487.85 88.49
1 -7 4 2433.16 83.19
1 -7 4 2420.56 86.09
1 -7 4 2608.04 83.09
-2 7 -4 141.99 18.2
-2 7 -4 111.19 26.9
2 -7 4 104.89 14.6
2 -7 4 103.29 14
2 -7 4 111.99 13.3
2 -7 4 112.99 11.4
-3 7 -4 1335.57 48.4
-3 7 -4 1333.97 59.59
-3 7 -4 1307.57 81.79
3 -7 4 1316.57 59.09
3 -7 4 1327.57 57.79
3 -7 4 1366.06 57.09
3 -7 4 1372.76 48.9
-4 7 -4 31.6 16
-4 7 -4 36.5 10.5
-4 7 -4 36.3 8.2
-4 7 -4 43.6 10.4
4 -7 4 34.7 9.6
4 -7 4 24 8.3
4 -7 4 47.1 7
4 -7 4 60.19 14.8
-5 7 -4 138.19 23.9
-5 7 -4 126.39 21.1
5 -7 4 117.49 22.5
5 -7 4 107.79 18.8
6 6 -4 1981.6 82.79
6 6 -4 1729.73 98.49
6 6 -4 1999.5 78.49
-6 -6 4 1996.4 83.79
-6 -6 4 2410.76 134.99
-6 -6 4 2019 80.89
-6 -6 4 2103.29 101.49
5 6 -4 9.8 5.6
5 6 -4 24.1 11.9
5 6 -4 7 5.7
-5 -6 4 15.5 6
-5 -6 4 39 13
-5 -6 4 20.5 7.6
4 6 -4 1825.62 67.39
4 6 -4 1884.11 68.59
-4 -6 4 1874.71 66.99
-4 -6 4 1822.02 69.19
-4 -6 4 1798.62 68.89
3 6 -4 41.2 13.1
3 6 -4 29.9 6.7
3 6 -4 42.1 8.1
-3 -6 4 27.5 7
-3 -6 4 54.99 11.9
-3 -6 4 35.6 7.2
2 6 -4 455.65 24.7
2 6 -4 535.35 32.5
2 6 -4 484.55 24.1
2 6 -4 509.45 41.6
-2 -6 4 532.05 25.2
-2 -6 4 505.45 25.7
-2 -6 4 533.75 21.5
1 6 -4 25.6 5.7
1 6 -4 32.5 8.7
1 6 -4 14.1 9.2
1 6 -4 13.6 5.3
-1 -6 4 24.4 6.2
-1 -6 4 22.4 6.1
-1 -6 4 14.9 9.3
0 6 -4 1009.5 43.9
0 6 -4 1162.18 64.89
0 6 -4 1068.09 42.4
0 -6 4 1163.28 49.3
0 -6 4 1119.69 43.7
0 -6 4 1127.79 44.8
0 -6 4 1091.09 43.8
-1 6 -4 961.6 41.1
-1 6 -4 940.01 60.89
1 -6 4 982.3 40.4
1 -6 4 1000.2 42.4
1 -6 4 1017.9 43.8
1 -6 4 955.7 41.5
-2 6 -4 2464.55 75.49
-2 6 -4 2276.87 126.09
-2 6 -4 2445.76 88.99
-2 6 -4 2493.35 86.79
2 -6 4 2439.86 85.19
2 -6 4 2575.74 87.59
2 -6 4 2435.96 84.09
-3 6 -4 107.39 15.9
-3 6 -4 76.79 14
-3 6 -4 112.29 13.1
3 -6 4 98.59 15.8
3 -6 4 64.39 13
3 -6 4 82.89 11.6
-4 6 -4 3050.39 111.29
-4 6 -4 2934.01 100.49
-4 6 -4 2889.71 107.39
4 -6 4 2851.81 106.89
4 -6 4 2982.8 96.59
4 -6 4 2953.7 108.39
-5 6 -4 35.1 11
-5 6 -4 36.5 11.2
-5 6 -4 44.9 11.9
-5 6 -4 41.9 9.4
5 -6 4 31.6 7.6
5 -6 4 47.9 12.7
5 -6 4 40 11.4
7 5 -4 324.37 38.3
7 5 -4 309.07 26.7
7 5 -4 311.77 26.3
-7 -5 4 324.67 28.3
-7 -5 4 296.57 25.2
-7 -5 4 353.76 33.6
-7 -5 4 346.87 29.8
6 5 -4 217.38 19.9
6 5 -4 224.68 20.6
6 5 -4 227.28 36.6
-6 -5 4 214.28 20.9
-6 -5 4 197.18 18.8
-6 -5 4 196.78 24.3
5 5 -4 1585.04 82.19
5 5 -4 1677.73 66.09
-5 -5 4 1661.83 65.19
-5 -5 4 1700.23 67.89
4 5 -4 0.5 4.3
4 5 -4 10.2 4.5
-4 -5 4 0.9 4.1
-4 -5 4 -0.9 2.4
-3 -5 4 4221.18 152.08
2 5 -4 744.73 46.3
2 5 -4 717.43 33
2 5 -4 688.33 34.9
2 5 -4 730.53 31.5
-2 -5 4 719.93 26.3
-2 -5 4 678.73 32.1
-2 -5 4 714.13 32.1
-1 -5 4 3476.15 127.69
0 5 -4 2634.74 107.09
0 -5 4 2606.84 90.99
-1 5 -4 770.32 50.09
-1 5 -4 781.92 37.8
-1 5 -4 756.62 35.5
1 -5 4 767.72 36.1
1 -5 4 782.72 37.1
1 -5 4 807.42 30.6
1 -5 4 832.92 37.4
-2 5 -4 1209.78 51.59
-2 5 -4 1112.89 48.6
-2 5 -4 1062.69 40.8
2 -5 4 1179.58 49.8
2 -5 4 1098.79 47.2
2 -5 4 1160.08 49.6
-3 5 -4 205.28 18.2
-3 5 -4 237.68 20
-3 5 -4 254.67 21.9
-3 5 -4 199.58 15.9
3 -5 4 287.97 25.3
3 -5 4 237.28 20.1
3 -5 4 224.48 17.5
-4 5 -4 153.78 15.5
-4 5 -4 171.48 22.6
-4 5 -4 141.09 18.9
-4 5 -4 194.88 25.3
4 -5 4 174.18 23
4 -5 4 138.49 21.1
4 -5 4 166.78 15.1
-5 5 -4 447.86 34.1
-5 5 -4 428.36 30.8
-5 5 -4 517.75 36.8
-5 5 -4 486.95 31.5
5 -5 4 557.54 37.1
5 -5 4 478.35 29.3
5 -5 4 488.55 34.8
-6 5 -4 66.09 26.4
-6 5 -4 68.49 14.8
-6 5 -4 100.79 19.4
-6 5 -4 108.69 21.9
6 -5 4 72.69 17.2
6 -5 4 77.89 17.3
7 4 -4 1115.59 56.19
7 4 -4 1131.29 55.69
-7 -4 4 1047.6 56.49
-7 -4 4 1166.98 58.99
-7 -4 4 1117.29 55.19
6 4 -4 293.07 23.9
6 4 -4 344.47 25.5
-6 -4 4 352.36 25.3
-6 -4 4 339.57 26.6
-6 -4 4 328.17 26
5 4 -4 1649.73 66.29
5 4 -4 1698.63 66.79
-5 -4 4 1697.03 67.79
-5 -4 4 1687.63 66.89
-5 -4 4 1655.23 72.09
4 4 -4 38 8.3
4 4 -4 51.79 10.2
-4 -4 4 53.49 10.5
-4 -4 4 45.5 8.9
-4 -4 4 60.09 11.1
-4 -4 4 56.59 14
3 4 -4 164.58 19.6
3 4 -4 149.09 13.8
3 4 -4 145.59 13.1
-3 -4 4 146.99 11.5
-3 -4 4 153.78 13.5
-3 -4 4 159.38 14.2
-3 -4 4 178.68 18.8
2 4 -4 721.83 32.6
2 4 -4 828.02 34.9
2 4 -4 780.62 43.2
2 4 -4 717.83 32.9
-2 -4 4 722.93 33.8
-2 -4 4 801.12 34.3
-2 -4 4 792.82 28
-2 -4 4 707.93 40.7
1 4 -4 342.97 27.2
1 4 -4 354.06 20.2
1 4 -4 338.07 20.7
1 4 -4 357.46 15.4
-1 -4 4 340.67 20.6
-1 -4 4 366.96 20.8
-1 -4 4 367.96 23.7
0 4 -4 2147.69 73.79
0 -4 4 2139.19 74.49
-1 4 -4 1225.18 50.89
-1 4 -4 1218.18 49.4
-1 4 -4 1285.37 52.49
1 -4 4 1234.08 49.99
1 -4 4 1270.37 50.49
1 -4 4 1126.49 50.09
-2 4 -4 1801.92 70.99
-2 4 -4 1834.02 70.49
-2 4 -4 1829.32 71.89
2 -4 4 1880.11 70.79
2 -4 4 1878.31 71.09
2 -4 4 1850.71 69.79
-3 4 -4 3194.28 110.99
-3 4 -4 3138.59 105.89
-3 4 -4 3112.69 112.49
3 -4 4 3181.88 111.09
3 -4 4 3178.28 111.29
3 -4 4 3165.38 108.29
-4 4 -4 120.59 19.9
-4 4 -4 122.19 18.7
-4 4 -4 172.98 23.7
-4 4 -4 183.98 17.4
4 -4 4 156.08 15.9
4 -4 4 131.99 20.2
-5 4 -4 2101.49 89.29
-5 4 -4 2011.2 87.39
-5 4 -4 2104.39 85.69
-5 4 -4 2039 84.49
5 -4 4 2003.2 86.39
-6 4 -4 -0.8 4.6
-6 4 -4 4 5.4
-6 4 -4 -2.4 4.1
-6 4 -4 6 7.6
6 -4 4 10.2 8.2
6 -4 4 6.7 7.9
8 3 -4 298.57 27.2
8 3 -4 239.28 30.9
-8 -3 4 305.27 28.6
-8 -3 4 284.87 28.7
-8 -3 4 298.77 29.4
-8 -3 4 272.67 26
7 3 -4 816.92 44.7
7 3 -4 701.13 42.7
-7 -3 4 766.32 43.4
-7 -3 4 828.52 46.4
-7 -3 4 788.92 45.6
6 3 -4 1488.75 61.89
6 3 -4 1304.37 59.59
-6 -3 4 1388.36 62.39
-6 -3 4 1350.56 61.49
-6 -3 4 1362.96 59.59
5 3 -4 900.71 43
5 3 -4 894.11 42.7
-5 -3 4 1046.6 44.6
-5 -3 4 750.22 46.6
-5 -3 4 855.91 55.49
-5 -3 4 955.4 43.7
3 3 -4 159.08 14.4
3 3 -4 169.08 12.6
3 3 -4 173.38 14.2
-3 -3 4 166.38 14.7
-3 -3 4 178.38 14.6
-3 -3 4 164.88 12.4
-3 -3 4 153.78 15.7
2 3 -4 6919.21 234.58
2 3 -4 6406.06 239.98
-2 -3 4 6311.17 430.96
-2 -3 4 6701.23 487.15
1 3 -4 430.66 22.8
1 3 -4 427.06 18.3
1 3 -4 394.36 23.2
1 3 -4 426.76 27.4
-1 -3 4 407.46 25.4
-1 -3 4 413.06 23.5
-1 -3 4 392.46 22.4
0 3 -4 1723.73 62.39
0 3 -4 1645.14 65.79
0 3 -4 1760.62 64.19
0 -3 4 1781.62 63.69
0 -3 4 1676.63 62.19
-1 3 -4 418.26 25.3
-1 3 -4 480.05 27.5
-1 3 -4 434.26 27.7
1 -3 4 448.26 27.6
1 -3 4 441.66 25.8
1 -3 4 447.36 26.2
1 -3 4 474.65 20.2
-2 3 -4 1038.9 47.8
-2 3 -4 1010.6 49.3
-2 3 -4 1122.89 50.09
2 -3 4 1071.39 48.6
2 -3 4 1109.59 49.2
2 -3 4 1115.59 48.8
-3 3 -4 16.3 6.7
-3 3 -4 4.9 5.5
-3 3 -4 15.4 7.2
3 -3 4 3.9 4.4
3 -3 4 5.5 4.5
3 -3 4 10.3 6.3
-4 3 -4 531.95 35.6
-4 3 -4 563.34 35.9
4 -3 4 555.94 35.3
4 -3 4 493.85 33.2
4 -3 4 489.75 33.7
-5 3 -4 130.39 21.6
-5 3 -4 97.59 19.8
-5 3 -4 121.49 21.7
5 -3 4 93.09 17.8
5 -3 4 120.69 21.5
5 -3 4 127.19 22.1
8 2 -4 621.84 41.1
8 2 -4 667.23 42.3
-8 -2 4 612.04 42.4
-8 -2 4 597.44 41.6
-8 -2 4 655.13 41.7
7 2 -4 913.11 48.7
7 2 -4 942.61 49.5
-7 -2 4 895.11 49.7
-7 -2 4 900.41 49.7
-7 -2 4 1032.3 50.39
6 2 -4 862.01 44
6 2 -4 815.42 43.2
-6 -2 4 834.22 42.6
-6 -2 4 957.4 49
-6 -2 4 845.12 44.8
-6 -2 4 786.62 48.3
5 2 -4 622.34 34.3
5 2 -4 577.24 33.5
5 2 -4 609.34 33.1
-5 -2 4 632.74 37.1
-5 -2 4 597.04 32.6
-5 -2 4 601.64 33.3
-5 -2 4 615.44 34.3
4 2 -4 119.49 15
4 2 -4 100.59 13.4
4 2 -4 121.59 15.6
-4 -2 4 138.29 12.9
-4 -2 4 123.99 13.5
-4 -2 4 117.59 15.5
-4 -2 4 105.39 14.5
3 2 -4 1034.4 45.4
3 2 -4 1040.3 43.4
3 2 -4 1099.99 42.9
-3 -2 4 1017.9 44.4
-3 -2 4 1112.69 42.7
-3 -2 4 1146.89 45.3
2 2 -4 1.8 4.4
2 2 -4 13.7 4.8
2 2 -4 3.2 3.6
2 2 -4 9.3 4.2
-2 -2 4 10.4 4
-2 -2 4 2.9 3.6
-2 -2 4 10.6 6.3
-2 -2 4 6.8 4.9
1 2 -4 4215.58 160.88
1 2 -4 4047.7 450.25
1 2 -4 4125.19 163.88
-1 -2 4 4270.57 165.88
-1 -2 4 3918.41 386.76
-1 -2 4 4223.58 162.08
0 2 -4 271.67 16.9
0 2 -4 298.07 19.5
0 2 -4 291.47 22
0 2 -4 235.18 18.5
0 -2 4 294.77 19.5
0 -2 4 308.07 20.3
0 -2 4 329.87 23
0 -2 4 306.77 15.2
-1 2 -4 4820.32 194.78
-1 2 -4 4767.52 187.78
-1 2 -4 4896.61 469.35
1 -2 4 4503.75 183.18
1 -2 4 4769.72 191.28
1 -2 4 4298.97 442.86
-2 2 -4 2354.66 92.19
-2 2 -4 2506.45 90.49
-2 2 -4 2454.05 89.19
2 -2 4 2443.46 88.59
2 -2 4 2549.65 92.49
2 -2 4 2388.36 88.89
-3 2 -4 2055.19 83.29
-3 2 -4 1926.81 79.09
-3 2 -4 2059.29 79.89
3 -2 4 1929.31 77.99
3 -2 4 1921.11 79.69
3 -2 4 1944.91 80.29
3 -2 4 1981.5 78.09
-4 2 -4 1845.32 82.19
-4 2 -4 1876.51 80.49
-4 2 -4 1812.72 78.49
4 -2 4 1902.71 80.39
4 -2 4 1830.62 78.29
4 -2 4 1911.61 83.69
4 -2 4 1782.62 77.19
-5 2 -4 165.88 25.2
-5 2 -4 180.08 29.4
-5 2 -4 133.99 24.6
5 -2 4 166.58 26.1
5 -2 4 149.79 27.3
5 -2 4 154.48 23.8
5 -2 4 146.39 23.9
9 1 -4 50.19 14.2
9 1 -4 49.8 14.1
-9 -1 4 62.49 16.7
-9 -1 4 50.99 14.8
-9 -1 4 47.6 14.6
8 1 -4 830.62 48.5
8 1 -4 832.12 48.2
-8 -1 4 852.41 48.7
-8 -1 4 877.61 50.59
-8 -1 4 762.62 49
7 1 -4 438.56 31
7 1 -4 375.86 33.2
-7 -1 4 396.56 29.3
-7 -1 4 400.66 30.9
-7 -1 4 450.05 32.3
6 1 -4 2477.25 96.79
6 1 -4 2669.23 96.29
6 1 -4 2595.94 95.09
-6 -1 4 2654.53 97.19
-6 -1 4 2478.75 93.49
-6 -1 4 2580.74 96.59
5 1 -4 3081.89 106.69
5 1 -4 3015.3 105.49
-5 -1 4 3104.19 104.39
-5 -1 4 2917.01 104.39
4 1 -4 996.3 43.1
4 1 -4 959.3 43.5
4 1 -4 1018.5 44.5
-4 -1 4 981 43.8
-4 -1 4 987 42.9
-4 -1 4 941.41 42.6
-4 -1 4 988.7 39.8
3 1 -4 4976.2 200.38
3 1 -4 5014.2 196.38
3 1 -4 5139.09 191.78
-3 -1 4 4851.11 438.76
-3 -1 4 4745.43 394.66
2 1 -4 36.5 7.6
2 1 -4 47.9 8.9
2 1 -4 52.09 9.3
2 1 -4 50.99 10.2
2 1 -4 39.2 7.9
2 1 -4 46.8 5.2
-2 -1 4 31.8 7.7
-2 -1 4 56.49 9.7
-2 -1 4 54.79 9.2
1 1 -4 3681.03 149.59
1 1 -4 3701.93 154.28
1 1 -4 4034.4 372.96
-1 -1 4 3706.73 380.26
-1 -1 4 3979.7 151.88
-1 -1 4 3828.62 155.28
0 1 -4 342.87 21.5
0 1 -4 359.66 25.2
0 1 -4 344.87 21
0 1 -4 324.67 21.9
0 1 -4 342.27 20.5
0 -1 4 316.17 20.5
0 -1 4 356.06 22
0 -1 4 330.87 24.2
-1 1 -4 864.71 44.3
-1 1 -4 905.71 40.3
-1 1 -4 852.81 40.3
1 -1 4 785.42 42.5
1 -1 4 844.92 39.1
1 -1 4 781.92 39.4
1 -1 4 824.32 39.4
-2 1 -4 424.66 27
-2 1 -4 290.87 23.5
-2 1 -4 361.66 28.1
2 -1 4 320.17 25.7
2 -1 4 333.27 25.8
2 -1 4 294.37 22.8
-3 1 -4 487.85 32.2
-3 1 -4 461.25 30.9
-3 1 -4 420.16 32.7
3 -1 4 433.76 29.4
3 -1 4 415.46 31.6
3 -1 4 404.26 34
3 -1 4 468.75 34.3
-4 1 -4 754.52 44.6
-4 1 -4 733.43 47.3
-4 1 -4 662.93 42
4 -1 4 792.72 44.1
4 -1 4 708.73 45.5
4 -1 4 708.93 47.9
4 -1 4 714.73 43.1
-5 1 -4 1317.37 70.49
-5 1 -4 1225.18 64.89
-5 1 -4 1190.98 63.89
5 -1 4 1199.08 70.99
5 -1 4 1261.87 64.19
5 -1 4 1258.17 63.59
5 -1 4 1225.88 66.19
9 0 -4 4.6 5.8
9 0 -4 2.6 6.9
-9 0 4 0.6 5
-9 0 4 9.3 7
-9 0 4 16.2 10.5
-9 0 4 14.7 8.1
8 0 -4 946.31 51.69
8 0 -4 896.91 50.39
-8 0 4 891.41 51.89
-8 0 4 909.91 53.19
-8 0 4 920.31 51.09
7 0 -4 87.09 16.5
7 0 -4 114.79 18.2
7 0 -4 106.69 17.6
-7 0 4 103.39 18.6
-7 0 4 133.29 20.1
-7 0 4 104.99 17.3
6 0 -4 751.52 40.7
6 0 -4 742.83 40.3
6 0 -4 743.43 42.7
-6 0 4 793.12 42.5
-6 0 4 764.32 40.2
5 0 -4 58.99 11.5
5 0 -4 39.4 9.5
5 0 -4 80.09 14.2
-5 0 4 69.19 12.6
-5 0 4 101.39 16
-5 0 4 66.99 12.9
-5 0 4 69.19 12.5
4 0 -4 169.48 16.5
4 0 -4 143.09 14.8
4 0 -4 185.58 15.8
-4 0 4 204.68 11.3
-4 0 4 170.88 15.4
-4 0 4 177.38 16.1
-4 0 4 198.78 17.2
-4 0 4 171.58 16
3 0 -4 510.85 26.5
3 0 -4 476.45 26.9
3 0 -4 461.85 27.3
-3 0 4 488.75 27.8
-3 0 4 518.05 27.5
-3 0 4 449.46 25.4
-3 0 4 444.46 27.8
2 0 -4 3765.82 155.48
2 0 -4 3755.92 150.08
-2 0 4 3873.61 391.26
1 0 -4 268.27 20
1 0 -4 262.97 19.2
1 0 -4 289.97 18.7
1 0 -4 250.87 21.1
1 0 -4 263.87 18.7
-1 0 4 249.48 18.3
-1 0 4 322.57 22.6
-1 0 4 239.28 20.8
-1 0 4 275.27 18.1
0 0 -4 5781.92 221.68
0 0 -4 5607.14 497.95
0 0 -4 5831.02 216.58
0 0 4 5682.73 217.78
0 0 4 6482.15 531.25
-1 0 -4 263.07 20.1
-1 0 -4 238.18 19.5
1 0 4 277.87 24
1 0 4 260.27 22.6
1 0 4 269.17 20.3
1 0 4 279.07 20.1
-2 0 -4 3281.67 134.59
-2 0 -4 3258.17 114.99
-2 0 -4 3480.35 115.99
2 0 4 3467.05 114.99
2 0 4 2972.2 127.89
2 0 4 3291.37 121.69
-3 0 -4 1050.39 51.19
-3 0 -4 976.6 55.99
-3 0 -4 1025.2 51.69
3 0 4 997 55.59
3 0 4 1007.7 49.99
3 0 4 1035 59.39
3 0 4 968 50.09
-4 0 -4 284.87 26.3
-4 0 -4 281.87 29.4
-4 0 -4 289.77 26.5
4 0 4 302.57 31.9
4 0 4 274.97 25
4 0 4 289.97 26.4
4 0 4 312.77 30.3
9 -1 -4 1207.28 63.69
9 -1 -4 1118.09 61.99
-9 1 4 1105.59 64.99
-9 1 4 1231.58 57.59
-9 1 4 1221.88 65.89
-9 1 4 1152.48 62.19
8 -1 -4 6.5 5.8
8 -1 -4 9.2 7.7
8 -1 -4 9 6.4
-8 1 4 17 8.9
-8 1 4 4.5 4.1
-8 1 4 1.9 4.8
7 -1 -4 2530.65 110.39
7 -1 -4 2688.43 106.89
7 -1 -4 2626.94 101.59
-7 1 4 2855.01 103.09
-7 1 4 2803.02 104.69
6 -1 -4 558.74 33
6 -1 -4 504.25 31.9
-6 1 4 529.05 34.5
-6 1 4 507.35 31.5
-6 1 4 521.75 33.2
-6 1 4 529.45 31.4
5 -1 -4 3098.09 110.19
5 -1 -4 3419.06 117.19
-5 1 4 3322.87 112.09
-5 1 4 3313.77 116.09
4 -1 -4 2533.35 89.49
4 -1 -4 2360.56 84.79
-4 1 4 2411.96 86.39
-4 1 4 2264.87 83.89
-4 1 4 2372.76 87.99
3 -1 -4 697.83 33
3 -1 -4 673.23 39.7
3 -1 -4 670.43 33.6
3 -1 -4 726.73 36.8
3 -1 -4 662.03 35.8
-3 1 4 728.73 37.1
-3 1 4 702.93 33
-3 1 4 639.74 35.2
-3 1 4 689.43 33.9
2 -1 -4 2537.65 90.29
2 -1 -4 2337.57 87.09
2 -1 -4 2510.15 93.29
-2 1 4 2357.56 89.39
-2 1 4 2449.25 87.69
-2 1 4 2440.46 84.29
1 -1 -4 136.59 12.9
1 -1 -4 163.48 23.1
1 -1 -4 148.69 19.2
1 -1 -4 125.19 15.3
1 -1 -4 148.59 14
-1 1 4 148.79 13.9
-1 1 4 139.69 17
-1 1 4 150.38 13.3
-1 1 4 167.48 22.3
0 -1 -4 95.29 14.3
0 -1 -4 128.59 12.8
0 -1 -4 134.29 20.8
0 -1 -4 76.39 12.7
0 -1 -4 125.49 20.7
0 1 4 102.39 13.5
0 1 4 116.49 19.3
0 1 4 125.79 16.1
0 1 4 179.38 24.5
-1 -1 -4 969.6 46.2
-1 -1 -4 965.7 52.59
-1 -1 -4 1039.2 46.5
1 1 4 964.3 44.5
1 1 4 1067.69 56.09
-2 -1 -4 24.2 8.5
-2 -1 -4 22 7.5
-2 -1 -4 34.4 9.4
2 1 4 31.2 8.8
2 1 4 13.9 7.8
2 1 4 27.8 8.7
-3 -1 -4 1476.05 74.49
-3 -1 -4 1298.77 69.59
-3 -1 -4 1450.85 65.19
3 1 4 1422.76 76.39
3 1 4 1387.46 63.69
3 1 4 1477.05 73.59
3 1 4 1395.16 63.09
-4 -1 -4 382.06 62.09
-4 -1 -4 464.55 35.4
4 1 4 535.15 36.1
4 1 4 489.15 40.7
4 1 4 525.35 37
4 1 4 537.45 45.8
9 -2 -4 965.9 55.19
-9 2 4 863.41 52.69
-9 2 4 908.41 47.3
-9 2 4 904.01 57.39
-9 2 4 918.81 45.3
-9 2 4 914.91 56.09
8 -2 -4 13.1 8.9
8 -2 -4 31.1 10.7
8 -2 -4 21.8 11.4
-8 2 4 6.7 7.5
-8 2 4 12 7.7
-8 2 4 23.5 10.3
-8 2 4 22.5 8.4
7 -2 -4 406.56 28.9
7 -2 -4 335.27 27
7 -2 -4 298.47 27.9
-7 2 4 312.87 26.8
-7 2 4 334.47 23.9
-7 2 4 356.36 27.3
6 -2 -4 236.48 20.8
6 -2 -4 229.48 29.4
6 -2 -4 232.78 20.7
-6 2 4 222.68 30.2
-6 2 4 231.28 19.9
-6 2 4 231.98 21.6
-6 2 4 196.88 17.7
5 -2 -4 307.67 22.4
5 -2 -4 283.27 24.4
5 -2 -4 257.67 20.4
-5 2 4 292.47 22.2
-5 2 4 289.67 21.2
-5 2 4 285.27 21.2
-5 2 4 296.47 18.1
-5 2 4 239.38 23
4 -2 -4 1253.47 64.19
4 -2 -4 1194.88 50.39
4 -2 -4 1213.78 56.29
4 -2 -4 1238.18 51.79
-4 2 4 1192.28 56.59
-4 2 4 1263.97 52.19
-4 2 4 1209.08 40.9
-4 2 4 1281.57 50.69
3 -2 -4 1957.3 69.89
3 -2 -4 1870.71 75.29
3 -2 -4 1701.33 79.59
3 -2 -4 1936.71 74.19
3 -2 -4 1867.31 68.19
-3 2 4 2028.6 76.89
-3 2 4 1926.11 70.29
-3 2 4 1819.92 67.69
-3 2 4 1960.3 74.59
2 -2 -4 2295.37 76.69
2 -2 -4 2232.08 84.49
2 -2 -4 2122.39 83.59
2 -2 -4 2042 74.39
2 -2 -4 2006 88.69
2 -2 -4 2344.37 77.69
-2 2 4 2215.38 77.59
-2 2 4 2168.78 83.69
1 -2 -4 5204.08 177.68
0 -2 -4 240.08 33.6
0 -2 -4 192.58 16
0 -2 -4 215.28 26.8
0 -2 -4 169.58 19.4
0 2 4 168.18 15.3
0 2 4 121.29 20.9
0 2 4 222.08 30.9
-1 -2 -4 2757.82 109.69
-1 -2 -4 2781.32 98.39
-1 -2 -4 2884.71 98.29
-1 -2 -4 2617.44 104.09
1 2 4 2824.02 96.69
1 2 4 2719.53 109.19
1 2 4 2665.93 127.69
-2 -2 -4 115.09 16.8
-2 -2 -4 140.29 19.7
-2 -2 -4 104.89 20
2 2 4 127.49 17.7
2 2 4 138.69 28.8
-3 -2 -4 695.03 49.4
-3 -2 -4 566.34 37.4
-3 -2 -4 627.64 38.8
3 2 4 617.04 49.7
3 2 4 600.24 52.89
3 2 4 646.54 45
3 2 4 609.84 37.2
8 -3 -4 1622.04 74.49
8 -3 -4 1800.92 76.99
8 -3 -4 1601.94 80.99
-8 3 4 1668.43 80.89
-8 3 4 1669.53 65.19
-8 3 4 1647.94 76.99
-8 3 4 1678.83 74.99
7 -3 -4 5.5 5.2
7 -3 -4 4.3 5.8
7 -3 -4 3.7 6.6
-7 3 4 -1.9 3.6
-7 3 4 -2 3.1
-7 3 4 -4.5 3.4
-7 3 4 2 4.6
-7 3 4 4.5 4.2
6 -3 -4 2845.12 103.59
6 -3 -4 2915.01 111.99
6 -3 -4 2926.71 103.59
-6 3 4 2981 101.99
-6 3 4 2834.32 103.69
-6 3 4 2829.02 98.39
-6 3 4 2764.82 144.49
-6 3 4 2873.41 102.79
5 -3 -4 1134.09 55.49
5 -3 -4 963.7 46.6
-5 3 4 1080.19 47
-5 3 4 1049.59 48.4
-5 3 4 1046.6 43.6
-5 3 4 950.7 52.69
-5 3 4 1041.9 46.5
4 -3 -4 1388.86 57.99
4 -3 -4 1412.26 55.49
4 -3 -4 1303.27 81.99
-4 3 4 1439.76 51.59
-4 3 4 1348.17 57.49
-4 3 4 1368.26 56.69
-4 3 4 1441.86 65.29
3 -3 -4 446.56 32
3 -3 -4 516.25 27.2
3 -3 -4 502.05 27.8
3 -3 -4 494.45 31.2
-3 3 4 510.45 26.7
-3 3 4 383.26 56.39
-3 3 4 508.05 32
-3 3 4 533.15 31.9
2 -3 -4 381.36 29
2 -3 -4 386.16 28.4
2 -3 -4 389.96 22.7
2 -3 -4 344.07 23.8
-2 3 4 350.76 22.5
-2 3 4 416.26 28.9
-2 3 4 371.56 22.2
1 -3 -4 4.1 4.2
1 -3 -4 10.6 6.3
1 -3 -4 2.8 3.7
1 -3 -4 1.1 4.6
1 -3 -4 4.1 4.7
-1 3 4 2.1 3.5
-1 3 4 7.5 4.8
-1 3 4 8.6 6.5
0 -3 -4 894.51 50.69
0 -3 -4 831.82 39.2
0 -3 -4 781.92 38.8
0 -3 -4 861.61 48.1
0 -3 -4 773.72 48.5
0 3 4 885.81 55.99
0 3 4 851.91 48.7
0 3 4 784.52 37.2
-1 -3 -4 127.09 17.2
-1 -3 -4 108.69 15.6
-1 -3 -4 139.39 25.8
-1 -3 -4 72.99 15.1
1 3 4 136.99 17.3
1 3 4 148.09 18.5
1 3 4 80.09 19.1
1 3 4 124.19 21.8
-2 -3 -4 1451.65 76.49
-2 -3 -4 1466.15 62.49
-2 -3 -4 1493.65 73.19
-2 -3 -4 1412.26 62.59
2 3 4 1417.76 82.09
2 3 4 1375.76 61.89
2 3 4 1321.17 73.89
2 3 4 1352.56 59.79
8 -4 -4 87.79 20.8
8 -4 -4 90.59 17.9
8 -4 -4 95.09 17.6
-8 4 4 94.19 19.2
-8 4 4 90.29 19.5
-8 4 4 80.09 16.8
-8 4 4 97.49 9.7
-8 4 4 92.69 18.1
7 -4 -4 220.08 21.4
7 -4 -4 226.98 21.7
7 -4 -4 276.47 35.6
-7 4 4 197.68 20.2
-7 4 4 233.78 16.3
-7 4 4 243.38 22.6
-7 4 4 162.48 24.2
-7 4 4 285.87 24.5
6 -4 -4 5.6 5.5
6 -4 -4 10.6 6.2
6 -4 -4 7.3 5.3
-6 4 4 8.5 6
-6 4 4 4.4 3.5
-6 4 4 4.8 5.3
-6 4 4 5.6 5.6
5 -4 -4 1398.16 58.79
5 -4 -4 1424.96 68.19
5 -4 -4 1422.96 58.79
-5 4 4 1498.85 58.39
-5 4 4 1447.36 58.39
-5 4 4 1441.26 58.39
4 -4 -4 376.86 26.2
4 -4 -4 366.86 23.7
4 -4 -4 425.06 24.9
4 -4 -4 368.16 30
-4 4 4 367.06 25.4
-4 4 4 430.56 24.5
-4 4 4 426.26 32.6
-4 4 4 401.16 29
3 -4 -4 2797.72 110.09
3 -4 -4 3009.3 97.09
3 -4 -4 3032.8 107.49
3 -4 -4 2861.71 96.89
-3 4 4 2805.92 104.49
-3 4 4 2876.71 97.99
-3 4 4 2851.31 95.39
2 -4 -4 1492.85 57.59
2 -4 -4 1524.15 56.99
2 -4 -4 1493.95 70.19
2 -4 -4 1437.96 67.79
2 -4 -4 1598.04 67.39
-2 4 4 1410.16 57.39
-2 4 4 1653.03 66.79
-2 4 4 1447.36 68.69
1 -4 -4 455.45 35.5
1 -4 -4 587.34 39.4
1 -4 -4 473.55 35.8
1 -4 -4 519.15 28.1
-1 4 4 525.55 37.3
-1 4 4 501.55 44.4
-1 4 4 614.24 31
0 -4 -4 1562.44 75.59
0 -4 -4 1508.15 59.39
0 -4 -4 1533.25 73.79
0 4 4 1450.35 73.49
0 4 4 1478.65 59.19
0 4 4 1461.55 82.89
0 4 4 1494.15 58.99
-1 -4 -4 20.6 7.6
-1 -4 -4 45.1 15.1
-1 -4 -4 51.79 15.2
1 4 4 31.2 8.5
1 4 4 12.2 10.1
1 4 4 35 12.9
7 -5 -4 1911.11 91.59
7 -5 -4 1621.24 71.19
7 -5 -4 1763.02 73.49
-7 5 4 1779.02 79.49
-7 5 4 1742.43 99.09
-7 5 4 1709.93 75.19
-7 5 4 1570.24 71.69
6 -5 -4 9.6 6.4
6 -5 -4 3.9 5.6
6 -5 -4 1.1 3.7
-6 5 4 4.8 3.7
-6 5 4 4.8 5.9
-6 5 4 7.3 6.9
-6 5 4 14.1 9.2
-6 5 4 2.7 4.4
5 -5 -4 1083.69 48.7
5 -5 -4 1100.79 60.39
5 -5 -4 1183.78 49.4
-5 5 4 1118.59 61.39
-5 5 4 1120.09 52.59
-5 5 4 1118.09 50.49
-5 5 4 1136.49 48.4
-5 5 4 1088.69 47.8
4 -5 -4 3.1 3.8
4 -5 -4 5.1 4.2
4 -5 -4 6 6.6
4 -5 -4 -0.8 3.4
-4 5 4 10 7.5
-4 5 4 2 3.7
-4 5 4 11.2 5.1
-4 5 4 8.1 4.7
3 -5 -4 203.08 15.4
3 -5 -4 205.78 20.9
3 -5 -4 208.38 28.3
3 -5 -4 188.68 15
-3 5 4 185.88 14.4
-3 5 4 209.28 16.1
-3 5 4 213.08 21.2
2 -5 -4 222.68 15.7
2 -5 -4 230.78 29.9
2 -5 -4 160.48 23
2 -5 -4 166.08 24.8
2 -5 -4 203.18 14.9
-2 5 4 184.38 14.2
-2 5 4 224.18 22.7
-2 5 4 220.28 15.9
1 -5 -4 345.27 21.2
1 -5 -4 369.96 21.1
1 -5 -4 333.27 31.1
1 -5 -4 363.86 32.6
-1 5 4 323.77 20.4
-1 5 4 368.56 20.8
-1 5 4 407.26 42.2
-1 5 4 358.86 31.5
0 -5 -4 277.87 38.7
0 -5 -4 299.27 19.9
0 -5 -4 340.67 40.2
0 -5 -4 278.57 18.7
0 5 4 261.57 18.1
0 5 4 201.98 34.8
0 5 4 256.27 28.2
-6 6 4 1271.37 61.79
5 -6 -4 5.7 4.6
5 -6 -4 4.7 5.9
-5 6 4 11 5.2
-5 6 4 2.6 3.4
-5 6 4 -0.4 3.7
4 -6 -4 2179.58 95.49
4 -6 -4 2117.49 72.79
4 -6 -4 2095.99 72.29
4 -6 -4 2042.9 83.59
-4 6 4 2142.19 82.69
-4 6 4 2069.19 71.79
-4 6 4 2082.69 74.19
3 -6 -4 153.88 11.4
3 -6 -4 137.59 24.8
3 -6 -4 144.39 11.3
3 -6 -4 158.28 23.7
-3 6 4 135.89 11.4
-3 6 4 154.68 22.4
-3 6 4 143.29 11
2 -6 -4 1058.39 59.19
2 -6 -4 1030.8 37.6
2 -6 -4 1002.7 61.19
-2 6 4 1114.39 58.49
-2 6 4 1051.99 38.4
0 10 -5 438.26 18.4
0 10 -5 497.95 54.59
0 -10 5 461.75 32.9
3 9 -5 33.8 6.2
3 9 -5 13.3 9.4
3 9 -5 34.9 6.2
-3 -9 5 17.9 4.6
-3 -9 5 32.8 7.1
-3 -9 5 32.8 6.3
-3 -9 5 22.4 5.6
2 9 -5 199.58 12.4
2 9 -5 211.38 24.1
2 9 -5 211.58 13.1
2 9 -5 179.38 40.1
-2 -9 5 199.28 12.6
-2 -9 5 231.78 13
1 9 -5 286.37 17.1
1 9 -5 304.17 16.4
1 9 -5 364.06 53.99
-1 -9 5 299.27 16.6
-1 -9 5 293.87 16.3
0 9 -5 446.36 48.8
0 9 -5 363.66 20.4
0 -9 5 399.96 21.2
0 -9 5 368.36 28.3
0 -9 5 393.26 21.8
-1 9 -5 449.26 27.3
-1 9 -5 436.46 24.4
-1 9 -5 468.15 50.49
1 -9 5 413.06 29.4
1 -9 5 476.65 26.6
1 -9 5 488.25 26.1
1 -9 5 469.65 29.8
-2 9 -5 1632.44 101.69
-2 9 -5 1528.45 66.79
2 -9 5 1586.04 64.49
2 -9 5 1552.94 65.39
2 -9 5 1614.94 61.79
2 -9 5 1663.03 68.69
-3 9 -5 57.39 12.9
-3 9 -5 48.9 10.9
-3 9 -5 46.4 20.8
3 -9 5 59.89 12.7
3 -9 5 55.89 12.6
4 8 -5 15.3 8.9
4 8 -5 14.7 5
4 8 -5 11.4 5.3
-4 -8 5 9.9 4.9
-4 -8 5 7.6 5.3
-4 -8 5 13.4 6
3 8 -5 2701.13 91.99
3 8 -5 2874.81 126.09
3 8 -5 2843.62 92.79
3 8 -5 2836.22 134.59
-3 -8 5 2859.51 89.79
-3 -8 5 2841.92 88.99
-3 -8 5 2677.23 90.99
-3 -8 5 2841.52 93.99
2 8 -5 240.68 16.7
2 8 -5 177.18 33.1
2 8 -5 245.18 23.8
-2 -8 5 224.98 16.1
-2 -8 5 256.77 16.3
1 8 -5 1565.64 67.39
1 8 -5 1554.94 58.49
1 8 -5 1530.65 89.69
-1 -8 5 1492.85 56.59
-1 -8 5 1540.75 56.69
0 8 -5 747.53 47.8
0 8 -5 824.02 63.79
0 -8 5 874.61 37.9
0 -8 5 883.71 45.5
-1 8 -5 487.15 48.3
-1 8 -5 422.76 25
-1 8 -5 392.76 26.7
1 -8 5 450.15 26.1
1 -8 5 451.75 28.5
1 -8 5 409.06 25.7
1 -8 5 388.66 25
-2 8 -5 371.46 42.6
-2 8 -5 299.37 24.2
-2 8 -5 291.27 21.5
2 -8 5 305.27 23.1
2 -8 5 315.17 21.7
2 -8 5 284.87 20.7
2 -8 5 259.27 21.1
-3 8 -5 204.38 37.9
-3 8 -5 293.67 25.5
-3 8 -5 249.38 21.4
3 -8 5 252.37 20.7
3 -8 5 249.78 21.8
3 -8 5 247.58 22.4
3 -8 5 228.88 16.6
-4 8 -5 14.7 8.9
-4 8 -5 14.3 7.7
-4 8 -5 8.5 4.3
-4 8 -5 15.9 15.5
4 -8 5 9.1 7.1
4 -8 5 7.1 5.6
4 -8 5 16.3 4.9
6 7 -5 277.77 33.9
6 7 -5 254.37 22
6 7 -5 231.48 20.8
-6 -7 5 256.67 21.7
-6 -7 5 229.28 22.1
-6 -7 5 241.38 22.7
5 7 -5 590.14 46.7
5 7 -5 572.54 32.6
5 7 -5 539.75 32
-5 -7 5 547.95 32.7
-5 -7 5 638.74 35.6
-5 -7 5 575.44 32.2
4 7 -5 161.48 15.2
4 7 -5 151.48 14.5
4 7 -5 179.88 38.4
-4 -7 5 155.48 13.7
-4 -7 5 154.68 19.3
-4 -7 5 148.39 14.1
3 7 -5 80.49 12.4
3 7 -5 91.29 24.5
3 7 -5 93.29 18.1
-3 -7 5 87.79 8.3
-3 -7 5 98.69 14.2
-3 -7 5 101.89 13.5
2 7 -5 1088.99 44.8
2 7 -5 1149.29 70.49
2 7 -5 1117.29 47
2 7 -5 1138.59 52.89
-2 -7 5 1104.79 46.3
-2 -7 5 1136.09 45.9
1 7 -5 177.38 16
1 7 -5 151.68 28.6
1 7 -5 156.78 13.5
-1 -7 5 189.08 15.1
-1 -7 5 186.58 15.6
0 7 -5 1449.35 59.69
0 7 -5 1443.86 56.89
0 7 -5 1442.16 81.79
0 -7 5 1580.54 59.19
0 -7 5 1500.85 58.19
0 -7 5 1526.35 63.79
-1 7 -5 2044.2 101.79
1 -7 5 1826.42 70.89
1 -7 5 1864.81 71.69
1 -7 5 1831.52 73.09
-2 7 -5 1838.82 74.79
-2 7 -5 1727.53 96.89
2 -7 5 1766.12 71.59
2 -7 5 1736.53 68.49
2 -7 5 1728.73 62.89
2 -7 5 1925.11 72.39
-3 7 -5 2288.07 78.79
-3 7 -5 2418.06 123.09
-3 7 -5 2486.85 96.59
-3 7 -5 2495.85 92.89
3 -7 5 2381.96 93.29
3 -7 5 2518.95 86.29
3 -7 5 2469.75 86.89
3 -7 5 2507.15 93.99
-4 7 -5 122.29 15.9
-4 7 -5 123.79 19.3
-4 7 -5 111.09 20
4 -7 5 92.89 13.4
4 -7 5 70.39 14.2
4 -7 5 74.69 15.6
4 -7 5 84.19 17.2
6 6 -5 1616.54 85.79
6 6 -5 1501.35 64.99
6 6 -5 1392.56 64.19
-6 -6 5 1578.84 67.79
-6 -6 5 1377.26 62.49
-6 -6 5 1510.75 65.99
5 6 -5 650.53 47.2
-5 -6 5 680.13 35.8
-5 -6 5 688.23 38.1
-5 -6 5 646.14 35.4
4 6 -5 2964.4 109.29
4 6 -5 2345.27 94.49
-4 -6 5 2673.03 89.89
-4 -6 5 2689.23 95.49
-4 -6 5 2736.33 93.39
3 6 -5 5.8 5.5
3 6 -5 6.9 3.4
3 6 -5 3 7.7
3 6 -5 6.4 3.3
-3 -6 5 4.9 4.3
-3 -6 5 2.6 4.1
-3 -6 5 3.8 2.9
1 6 -5 615.24 31.1
1 6 -5 701.13 48.5
-1 -6 5 631.64 36.8
-1 -6 5 603.44 32
-1 -6 5 668.73 32.7
0 6 -5 1084.09 47.2
0 6 -5 981 61.19
0 -6 5 1017.5 48.5
0 -6 5 967.8 44.1
0 -6 5 1006.9 44.6
-1 6 -5 138.19 29.6
-1 6 -5 98.99 15.7
-1 6 -5 92.89 13.9
1 -6 5 138.39 21.6
1 -6 5 95.89 14.9
1 -6 5 84.59 13.7
-2 6 -5 660.43 38.4
-2 6 -5 611.14 51.19
-2 6 -5 725.23 37.8
-2 6 -5 658.93 36.5
2 -6 5 657.53 28.5
2 -6 5 649.14 35.5
2 -6 5 689.73 37.8
2 -6 5 636.54 36.4
-3 6 -5 158.48 13.7
-3 6 -5 163.28 21.5
3 -6 5 222.48 20.9
3 -6 5 202.38 19.8
3 -6 5 174.18 16.5
-4 6 -5 921.01 49.4
-4 6 -5 772.32 48.1
-4 6 -5 845.22 41.4
-4 6 -5 768.02 42.6
4 -6 5 856.71 48
4 -6 5 944.01 49.9
4 -6 5 817.52 41.2
-5 6 -5 155.58 37.7
-5 6 -5 175.18 18.9
-5 6 -5 140.89 23.8
-5 6 -5 216.78 26.3
5 -6 5 119.79 21.2
5 -6 5 162.68 16.6
5 -6 5 143.99 23.3
7 5 -5 523.95 36.3
-7 -5 5 690.23 47.1
-7 -5 5 552.74 37.8
-7 -5 5 590.14 37.6
6 5 -5 111.99 18
6 5 -5 112.79 17.2
-6 -5 5 139.09 19.3
-6 -5 5 98.59 16.6
-6 -5 5 154.48 20.7
5 5 -5 188.48 18.2
-5 -5 5 264.07 22.1
-5 -5 5 219.98 19.1
-5 -5 5 228.58 18.6
4 5 -5 24.5 7.8
4 5 -5 20.7 7.2
-4 -5 5 22.4 6.2
-4 -5 5 18.5 7.5
-4 -5 5 26.6 11.1
3 5 -5 940.71 53.69
3 5 -5 872.31 41.9
3 5 -5 869.51 43
3 5 -5 945.31 41.1
-3 -5 5 931.11 35.4
-3 -5 5 969.7 43.2
-3 -5 5 957.3 42
-3 -5 5 828.02 49.8
2 5 -5 59.29 9.5
2 5 -5 51.49 15.2
2 5 -5 60.19 10.8
2 5 -5 41.7 9.5
-2 -5 5 44.6 9.6
-2 -5 5 59.89 16.1
-2 -5 5 47.2 10.1
1 5 -5 3607.84 118.99
0 5 -5 538.35 40.5
0 5 -5 505.15 28.7
0 5 -5 535.25 30.8
0 -5 5 536.55 32.5
0 -5 5 536.45 29.9
0 -5 5 505.55 29.2
-2 5 -5 1821.42 75.69
-2 5 -5 1912.41 65.19
-2 5 -5 1854.21 75.19
-2 5 -5 1670.53 80.89
2 -5 5 1986.4 75.69
2 -5 5 1905.41 75.19
2 -5 5 1849.11 73.49
-3 5 -5 667.03 33.7
-3 5 -5 725.03 42.1
-3 5 -5 642.24 38.1
-3 5 -5 644.14 39
3 -5 5 638.94 38.7
3 -5 5 662.83 37.2
-4 5 -5 944.21 51.59
-4 5 -5 978.9 46.9
-4 5 -5 929.51 49.7
-4 5 -5 926.91 52.69
4 -5 5 846.22 49.4
4 -5 5 876.91 46.1
4 -5 5 895.21 50.39
-5 5 -5 75.99 29.6
-5 5 -5 82.19 16.9
-5 5 -5 71.09 17
5 -5 5 57.99 15.4
5 -5 5 44.4 13.8
5 -5 5 71.29 14.3
8 4 -5 1105.89 58.79
8 4 -5 1060.19 57.79
-8 -4 5 1039.8 59.99
-8 -4 5 1069.69 59.69
-8 -4 5 1123.39 58.49
7 4 -5 369.26 29
7 4 -5 367.46 29.2
-7 -4 5 322.37 27.3
-7 -4 5 405.16 30.6
6 4 -5 2601.44 97.79
6 4 -5 2656.03 97.69
-6 -4 5 2412.56 102.69
-6 -4 5 2532.75 97.59
-6 -4 5 2736.73 97.49
5 4 -5 2121.19 81.09
5 4 -5 2099.59 79.19
-5 -4 5 2164.78 81.59
-5 -4 5 2069.19 77.59
-5 -4 5 1968 89.29
4 4 -5 517.65 30.7
4 4 -5 492.65 28.9
-4 -4 5 525.85 29.9
-4 -4 5 488.85 33.9
-4 -4 5 513.95 26.9
-4 -4 5 522.25 30.8
-3 -4 5 3938.71 135.99
2 4 -5 11.6 4.8
2 4 -5 15.4 8
2 4 -5 17.3 7.1
2 4 -5 24.4 5
2 4 -5 17.5 4.3
-2 -4 5 5.8 5.2
-2 -4 5 17.4 6.2
-2 -4 5 14 6.2
-2 -4 5 22.7 5
1 4 -5 1411.76 55.09
1 4 -5 1382.26 64.09
1 4 -5 1445.76 46.4
1 4 -5 1406.36 56.89
-1 -4 5 1302.47 55.29
-1 -4 5 1423.16 60.49
-1 -4 5 1345.97 55.09
0 4 -5 133.99 22.3
0 4 -5 112.19 9.3
0 4 -5 139.09 13.9
0 -4 5 153.28 21.1
0 -4 5 146.99 18.5
0 -4 5 149.88 17.9
-1 4 -5 116.49 17.8
-1 4 -5 87.69 13.7
-1 4 -5 92.09 17
1 -4 5 80.89 14
1 -4 5 81.59 13.6
1 -4 5 95.39 16.2
-2 4 -5 1067.29 53.19
-2 4 -5 1050.19 51.99
-2 4 -5 1085.99 51.09
2 -4 5 1076.39 42.8
2 -4 5 1140.49 52.59
2 -4 5 1083.29 50.89
2 -4 5 1033.7 50.99
-3 4 -5 740.83 43.8
-3 4 -5 729.33 43.5
-3 4 -5 673.43 51.99
3 -4 5 753.72 43.2
3 -4 5 762.52 43.2
3 -4 5 770.62 38.8
3 -4 5 764.72 42.2
-4 4 -5 930.21 51.59
-4 4 -5 833.02 45.8
-4 4 -5 816.12 48.8
-4 4 -5 914.81 52.19
4 -4 5 881.81 48
4 -4 5 832.42 49.6
4 -4 5 919.81 48.6
4 -4 5 873.01 49.6
-5 4 -5 1206.78 65.79
-5 4 -5 1192.58 61.09
-5 4 -5 1265.97 66.09
-5 4 -5 1122.09 62.69
5 -4 5 1269.87 64.89
5 -4 5 1196.88 63.69
5 -4 5 1192.68 60.79
5 -4 5 1215.18 64.09
8 3 -5 641.74 42.4
8 3 -5 633.94 41.8
-8 -3 5 636.34 43.3
-8 -3 5 627.04 41.4
-8 -3 5 639.94 43.4
7 3 -5 7.2 6.2
7 3 -5 45.2 11.6
-7 -3 5 41 11.4
-7 -3 5 30.4 10.5
-7 -3 5 23 8.8
6 3 -5 304.67 24.7
6 3 -5 311.67 25.1
-6 -3 5 307.37 28.1
-6 -3 5 324.87 28.6
-6 -3 5 338.27 26.1
-6 -3 5 351.36 30.4
5 3 -5 152.98 19.4
5 3 -5 165.38 16.3
5 3 -5 170.88 17.2
-5 -3 5 185.78 19.3
-5 -3 5 199.28 18.1
-5 -3 5 205.68 17.6
-5 -3 5 144.39 18.6
4 3 -5 1005.9 46.5
4 3 -5 1007.9 43.7
4 3 -5 1035 45.4
-4 -3 5 954.9 42
-4 -3 5 944.91 46
-4 -3 5 975.1 45
-4 -3 5 1033.5 46.8
3 3 -5 1548.15 55.29
3 3 -5 1265.17 63.99
3 3 -5 1478.75 57.89
3 3 -5 1507.05 60.39
-3 -3 5 1511.15 63.79
-3 -3 5 1507.05 59.19
-3 -3 5 1476.15 54.49
-3 -3 5 1440.16 58.79
-3 -3 5 1640.94 61.49
2 3 -5 6544.35 539.65
2 3 -5 6976.1 254.07
-2 -3 5 6768.82 568.24
-2 -3 5 6970.8 253.97
1 3 -5 53.59 8.8
1 3 -5 71.09 12
1 3 -5 55.49 11
1 3 -5 52.89 11.6
-1 -3 5 74.69 12.6
-1 -3 5 46.9 10.2
-1 -3 5 80.19 12.9
-1 3 -5 245.38 20
-1 3 -5 216.38 19.9
-1 3 -5 266.37 23.1
1 -3 5 187.48 18.2
1 -3 5 223.78 21
1 -3 5 243.28 20.1
1 -3 5 220.58 14.4
-2 3 -5 1879.21 74.99
-2 3 -5 1851.11 76.09
-2 3 -5 1634.54 75.99
2 -3 5 1877.21 69.29
2 -3 5 1898.81 77.59
-3 3 -5 635.44 41.9
-3 3 -5 612.64 38.8
-3 3 -5 643.94 40.4
3 -3 5 657.83 39.7
3 -3 5 629.84 37
3 -3 5 612.84 39.3
3 -3 5 576.74 37.2
-4 3 -5 462.45 36
-4 3 -5 407.96 33.2
-4 3 -5 398.66 32.4
4 -3 5 405.06 32.5
4 -3 5 467.55 59.59
4 -3 5 385.56 31.7
4 -3 5 404.66 32.4
-5 3 -5 27.2 11
-5 3 -5 34.4 12.6
-5 3 -5 27.9 11.9
5 -3 5 30.3 11
5 -3 5 16.1 9.1
5 -3 5 19.4 9.3
5 -3 5 30.5 11.7
8 2 -5 9.1 6.9
8 2 -5 6.5 8
-8 -2 5 5 6.2
-8 -2 5 7 7.1
-8 -2 5 7.1 6.8
7 2 -5 2746.33 105.39
7 2 -5 2815.52 105.29
-7 -2 5 2901.91 107.09
-7 -2 5 2545.75 108.29
-7 -2 5 2721.63 103.99
-7 -2 5 2803.02 106.89
6 2 -5 1280.27 56.59
6 2 -5 1157.18 55.79
6 2 -5 1225.98 57.19
-6 -2 5 1149.58 54.29
-6 -2 5 1155.28 55.29
-6 -2 5 1198.28 56.59
-6 -2 5 1133.59 56.19
5 2 -5 2020.1 78.19
5 2 -5 1916.01 76.19
5 2 -5 2062.49 79.19
-5 -2 5 1997.2 76.39
-5 -2 5 2071.19 79.09
-5 -2 5 2095.19 77.89
-5 -2 5 2077.69 77.69
4 2 -5 2970.4 103.99
-4 -2 5 2892.41 106.69
-4 -2 5 3085.89 101.49
3 2 -5 442.06 26
3 2 -5 444.16 22.8
3 2 -5 443.36 27
3 2 -5 448.06 25.5
-3 -2 5 419.86 28.5
-3 -2 5 498.45 26.2
-3 -2 5 472.45 28.2
-3 -2 5 416.56 26.1
2 2 -5 863.61 35.9
2 2 -5 826.62 34.4
2 2 -5 815.42 39.4
2 2 -5 834.92 36.8
2 2 -5 766.92 37.5
-2 -2 5 844.42 40.1
-2 -2 5 790.82 42.5
-2 -2 5 813.12 38.3
-2 -2 5 820.02 35.9
1 2 -5 586.74 25.2
1 2 -5 564.34 30.1
1 2 -5 531.45 27.9
1 2 -5 455.25 28.9
1 2 -5 575.14 34.6
-1 -2 5 553.14 29.8
-1 -2 5 529.45 33.5
-1 -2 5 513.05 30.1
0 2 -5 13.1 5.1
0 2 -5 5.7 5.4
0 2 -5 15.3 7
0 2 -5 18.2 6.7
0 -2 5 11.2 6.3
0 -2 5 14.2 5.9
0 -2 5 9 4.5
0 -2 5 21.4 8.2
-1 2 -5 1806.72 74.19
-1 2 -5 1885.01 79.59
-1 2 -5 1981.6 74.19
1 -2 5 1833.32 73.29
1 -2 5 1792.62 72.39
1 -2 5 1913.31 78.89
1 -2 5 1854.21 69.79
-2 2 -5 259.67 23.6
-2 2 -5 324.87 25.3
-2 2 -5 278.37 26.9
2 -2 5 370.86 29.2
2 -2 5 330.57 25.1
2 -2 5 287.07 24.1
2 -2 5 339.37 25
-3 2 -5 1827.52 78.99
-3 2 -5 1833.02 78.69
-3 2 -5 1798.82 82.69
3 -2 5 1819.72 79.19
3 -2 5 1856.01 77.49
3 -2 5 1752.72 77.29
3 -2 5 1824.62 80.99
-4 2 -5 694.53 48.4
-4 2 -5 763.32 47.2
-4 2 -5 785.92 48.5
4 -2 5 773.72 49.9
4 -2 5 747.53 46.4
4 -2 5 756.72 45.9
4 -2 5 711.33 47.1
9 1 -5 485.75 37.8
9 1 -5 459.05 36.9
-9 -1 5 471.95 38.6
-9 -1 5 430.46 37.3
-9 -1 5 470.85 37.2
8 1 -5 23.3 14.6
8 1 -5 27.9 9.7
-8 -1 5 12.4 8.2
-8 -1 5 20.4 9.3
-8 -1 5 31.1 12.1
7 1 -5 49.3 12
7 1 -5 39.8 12.7
7 1 -5 43.6 12
-7 -1 5 36.4 10.4
-7 -1 5 41.7 11.9
-7 -1 5 28.8 10.5
6 1 -5 630.94 38.3
6 1 -5 617.64 36.5
6 1 -5 516.45 34.5
-6 -1 5 595.54 43.6
-6 -1 5 676.03 35.4
-6 -1 5 577.74 35
5 1 -5 556.44 33.7
5 1 -5 522.75 31.6
5 1 -5 597.54 34.4
-5 -1 5 525.45 32.5
-5 -1 5 585.94 33.2
-5 -1 5 566.34 34.7
-5 -1 5 569.04 33.3
3 1 -5 2580.54 92.29
3 1 -5 2663.93 92.49
-3 -1 5 2777.32 98.79
-3 -1 5 2592.04 91.69
-3 -1 5 2605.54 93.19
2 1 -5 1180.38 41.4
2 1 -5 1148.49 50.19
2 1 -5 1235.88 50.69
2 1 -5 1170.48 49.7
2 1 -5 1109.69 54.49
-2 -1 5 1156.58 49.4
-2 -1 5 1215.28 55.79
-2 -1 5 1174.58 49.1
-2 -1 5 1260.87 52.29
0 1 -5 36.9 9.1
0 1 -5 32.5 8.6
0 1 -5 36.4 11.5
0 1 -5 43.2 10.7
0 -1 5 37.2 8.9
0 -1 5 22.8 9.1
0 -1 5 40.2 10
0 -1 5 43.3 10.3
-1 1 -5 2073.39 86.59
-1 1 -5 1930.51 79.29
-1 1 -5 2073.59 79.19
1 -1 5 2096.09 80.09
1 -1 5 1953.9 94.39
-2 1 -5 72.59 14.4
-2 1 -5 104.99 16.8
-2 1 -5 89.29 17.2
2 -1 5 82.09 16.9
2 -1 5 96.09 16.9
2 -1 5 103.69 16.5
2 -1 5 99.39 18.5
-3 1 -5 752.92 44.3
-3 1 -5 765.42 45.1
-3 1 -5 726.33 48.4
3 -1 5 695.13 42.4
3 -1 5 680.13 45.9
3 -1 5 621.64 40
3 -1 5 735.73 47.1
-4 1 -5 3.6 5
-4 1 -5 15.5 10.6
-4 1 -5 15.4 9.6
4 -1 5 1.9 5.5
4 -1 5 -0.9 3.7
4 -1 5 9.1 6.9
4 -1 5 -0.6 4.3
9 0 -5 239.18 31.9
9 0 -5 190.28 27.5
-9 0 5 212.38 28.5
-9 0 5 213.38 30.9
-9 0 5 243.68 33.8
8 0 -5 2709.03 112.39
8 0 -5 3118.39 145.39
8 0 -5 2712.73 108.39
-8 0 5 2584.44 109.09
-8 0 5 2690.63 107.49
-8 0 5 2663.83 108.69
7 0 -5 5.3 5.8
7 0 -5 8.7 7
7 0 -5 6.5 6.1
-7 0 5 5.7 5.4
-7 0 5 5.7 5.9
-7 0 5 8.6 7.6
-7 0 5 7.2 6.8
6 0 -5 2620.34 102.39
6 0 -5 2716.13 100.49
6 0 -5 2643.94 98.39
-6 0 5 2717.93 98.59
-6 0 5 2722.83 100.59
-6 0 5 2636.24 99.19
-6 0 5 2552.14 100.09
5 0 -5 627.24 37.4
5 0 -5 757.72 41.1
-5 0 5 734.43 38.3
-5 0 5 683.73 39.4
-5 0 5 738.93 26.3
-5 0 5 719.53 40.1
4 0 -5 903.71 43.7
4 0 -5 868.21 41.7
4 0 -5 931.61 45.4
-4 0 5 848.52 43.8
-4 0 5 885.01 43.2
-4 0 5 833.32 41.2
-4 0 5 960.2 46.9
3 0 -5 8.7 5.5
3 0 -5 6.8 4.8
3 0 -5 16 6.8
3 0 -5 10.2 5
3 0 -5 11.9 6.2
-3 0 5 10.4 5.5
-3 0 5 7.4 5.5
-3 0 5 7.2 5.2
-3 0 5 10.1 5.5
2 0 -5 513.15 32.2
2 0 -5 512.75 29.3
2 0 -5 465.55 32.5
2 0 -5 557.34 32
2 0 -5 558.84 31.1
-2 0 5 537.65 29.5
-2 0 5 533.65 30.9
-2 0 5 556.44 35
1 0 -5 103.59 15.4
1 0 -5 125.99 17.6
1 0 -5 87.39 16.1
1 0 -5 88.89 14.6
1 0 -5 128.79 20
-1 0 5 68.39 13.4
-1 0 5 97.49 18
-1 0 5 93.59 14.9
-1 0 5 113.69 15.6
0 0 -5 1339.07 58.89
0 0 -5 1251.27 62.79
0 0 -5 1361.36 58.09
0 0 -5 1327.37 60.79
0 0 5 1288.47 60.89
0 0 5 1328.47 55.59
0 0 5 1336.67 57.29
-1 0 -5 102.99 20.5
-1 0 -5 98.99 16.8
-1 0 -5 118.29 17.7
-1 0 -5 98.79 17.5
1 0 5 98.99 20.8
1 0 5 120.79 18.5
1 0 5 86.29 14.9
1 0 5 92.49 17.7
-2 0 -5 2317.77 100.89
-2 0 -5 2343.67 91.89
-2 0 -5 2467.65 93.79
2 0 5 2352.36 99.99
2 0 5 2218.78 90.89
2 0 5 2340.47 90.69
2 0 5 2338.17 100.29
-3 0 -5 94.49 22.2
-3 0 -5 115.89 20
-3 0 -5 74.29 15.6
3 0 5 51.19 13.6
3 0 5 68.79 17
3 0 5 97.89 18
3 0 5 81.69 19.8
9 -1 -5 105.09 20
9 -1 -5 163.18 29.3
9 -1 -5 123.09 21.7
-9 1 5 136.19 22.3
-9 1 5 137.59 23.3
-9 1 5 96.49 20.5
-9 1 5 112.79 22.2
8 -1 -5 3.9 6.3
8 -1 -5 0.8 5.5
8 -1 -5 11.9 8.8
-8 1 5 0 5.5
-8 1 5 3.2 5.8
-8 1 5 19.4 9.5
-8 1 5 -0.9 3.8
7 -1 -5 1134.19 56.69
7 -1 -5 1200.78 61.99
7 -1 -5 1166.28 57.59
-7 1 5 1105.59 56.49
-7 1 5 1155.68 56.29
-7 1 5 1204.98 56.09
6 -1 -5 4.8 5.3
6 -1 -5 10.3 6.7
-6 1 5 13.6 7.9
-6 1 5 15 6.6
-6 1 5 7.1 5.7
-6 1 5 8.4 6.2
5 -1 -5 3496.35 119.89
5 -1 -5 3523.25 118.39
-5 1 5 3501.35 120.39
-5 1 5 3484.75 121.59
-5 1 5 3451.55 117.89
-5 1 5 3269.57 127.09
4 -1 -5 476.05 35.7
4 -1 -5 480.85 28.9
4 -1 -5 530.95 31.2
4 -1 -5 514.85 33.4
-4 1 5 496.85 32.6
-4 1 5 513.85 29.7
-4 1 5 483.85 30.2
-4 1 5 527.65 33.2
3 -1 -5 3222.88 115.89
3 -1 -5 3212.88 110.19
3 -1 -5 3148.08 120.49
3 -1 -5 3254.57 109.39
-3 1 5 3409.46 118.39
-3 1 5 3273.87 115.69
2 -1 -5 2257.57 80.59
2 -1 -5 2233.78 90.59
2 -1 -5 2309.97 89.69
2 -1 -5 2154.68 71.69
2 -1 -5 2218.58 81.39
-2 1 5 2187.78 81.39
-2 1 5 2204.88 88.89
-2 1 5 2169.98 79.49
1 -1 -5 853.51 48.8
1 -1 -5 946.41 43.7
1 -1 -5 936.91 44
1 -1 -5 899.71 47
1 -1 -5 900.31 50.39
1 -1 -5 937.11 43.4
-1 1 5 975.4 53.29
-1 1 5 853.81 49
-1 1 5 843.22 41.3
0 -1 -5 1493.05 72.39
0 -1 -5 1555.74 64.09
0 -1 -5 1528.55 84.59
0 -1 -5 1504.55 64.49
0 -1 -5 1619.94 69.79
0 1 5 1506.95 62.69
0 1 5 1790.72 77.09
0 1 5 1487.55 63.89
0 1 5 1518.05 72.79
-1 -1 -5 177.48 22.7
-1 -1 -5 191.18 26.8
-1 -1 -5 209.58 30.5
-1 -1 -5 193.18 19
1 1 5 189.58 23.5
1 1 5 183.88 18
-2 -1 -5 537.85 39.8
-2 -1 -5 510.05 35.4
-2 -1 -5 554.94 42.9
2 1 5 501.85 40.9
2 1 5 493.55 34.4
2 1 5 550.14 34.6
2 1 5 555.34 43.9
-3 -1 -5 87.99 18
-3 -1 -5 90.09 18
-3 -1 -5 61.39 15.6
3 1 5 68.59 19
3 1 5 75.99 16.9
3 1 5 78.69 19.6
3 1 5 85.69 17.2
8 -2 -5 162.98 24.2
8 -2 -5 173.68 23.8
8 -2 -5 183.08 29.6
-8 2 5 156.18 23.2
-8 2 5 163.38 24.6
-8 2 5 191.18 19.2
-8 2 5 184.38 28.7
7 -2 -5 1678.83 73.29
7 -2 -5 1661.33 73.79
7 -2 -5 1696.93 79.59
-7 2 5 1638.44 73.79
-7 2 5 1672.03 72.59
-7 2 5 1700.13 65.39
-7 2 5 1816.32 72.29
6 -2 -5 6 5.9
6 -2 -5 8 6.1
6 -2 -5 -0.2 4
-6 2 5 0.9 5.1
-6 2 5 8.4 3.6
-6 2 5 1.6 4.3
-6 2 5 11.7 6.8
5 -2 -5 1026.1 48.1
5 -2 -5 926.01 45.6
5 -2 -5 971.1 51.79
-5 2 5 922.31 46.7
-5 2 5 1028.6 46.4
-5 2 5 889.11 47.2
4 -2 -5 17.7 7.5
4 -2 -5 50.19 10.8
4 -2 -5 29.1 10.2
4 -2 -5 17 6.3
-4 2 5 20.9 8
-4 2 5 28.1 8.8
-4 2 5 41.7 9.2
-4 2 5 32.7 10.9
3 -2 -5 474.35 33.7
3 -2 -5 451.95 32.4
3 -2 -5 476.35 29.5
3 -2 -5 514.05 29.4
-3 2 5 481.85 28.5
-3 2 5 585.74 35.9
-3 2 5 472.45 33
-3 2 5 472.35 29.6
2 -2 -5 415.36 23.7
2 -2 -5 434.46 32.5
2 -2 -5 419.06 26.5
2 -2 -5 394.06 30.4
2 -2 -5 448.26 26.9
-2 2 5 411.26 31.6
-2 2 5 446.16 31.5
-2 2 5 387.26 25.3
1 -2 -5 815.12 45.6
1 -2 -5 725.83 38.3
1 -2 -5 759.92 46.4
1 -2 -5 729.83 37.8
1 -2 -5 699.13 39.8
-1 2 5 780.22 52.49
-1 2 5 730.13 45.5
-1 2 5 727.03 37.2
0 -2 -5 551.64 33.6
0 -2 -5 519.15 38.4
0 -2 -5 602.94 34.4
0 -2 -5 585.64 41.8
0 -2 -5 624.44 40.4
0 2 5 660.13 34.5
0 2 5 595.14 44.4
-1 -2 -5 2055.39 82.69
-1 -2 -5 2114.49 82.59
-1 -2 -5 2004 89.89
-1 -2 -5 2003.5 94.19
1 2 5 2058.89 94.99
1 2 5 2069.09 80.19
1 2 5 2071.99 82.69
1 2 5 2058.19 99.19
-2 -2 -5 190.78 24.5
-2 -2 -5 154.88 26.2
-2 -2 -5 208.68 35.7
-2 -2 -5 143.89 24.6
2 2 5 220.88 21.1
2 2 5 207.78 36.5
2 2 5 230.88 27.8
2 2 5 173.68 30
8 -3 -5 489.45 61.09
8 -3 -5 477.75 35.3
8 -3 -5 501.25 41.3
-8 3 5 546.45 33
-8 3 5 471.15 30.2
-8 3 5 519.75 36.4
-8 3 5 412.56 38
-8 3 5 504.05 40.6
7 -3 -5 145.39 22.7
7 -3 -5 165.08 23
7 -3 -5 215.18 21.5
-7 3 5 229.68 32.2
-7 3 5 241.18 20.3
-7 3 5 182.18 23.3
-7 3 5 256.77 34.2
-7 3 5 196.18 16.1
6 -3 -5 2014.2 79.79
6 -3 -5 2095.39 90.49
6 -3 -5 1973.1 80.19
-6 3 5 1910.51 78.49
-6 3 5 2104.49 82.49
-6 3 5 2021.9 79.19
-6 3 5 1978.5 88.89
5 -3 -5 2 4.8
5 -3 -5 14.4 6.3
5 -3 -5 15.7 6.6
-5 3 5 7.4 5.4
4 -3 -5 2567.64 88.79
4 -3 -5 2260.07 92.79
4 -3 -5 2434.26 98.69
4 -3 -5 2402.96 88.99
-4 3 5 2457.55 94.09
3 -3 -5 447.16 32.3
3 -3 -5 412.46 26.9
3 -3 -5 406.46 32.2
-3 3 5 385.96 30.5
-3 3 5 417.66 25.9
2 -3 -5 1920.21 73.19
2 -3 -5 1894.51 83.99
2 -3 -5 1916.01 72.79
2 -3 -5 1888.01 84.09
2 -3 -5 1966.9 75.29
-2 3 5 1985.8 84.19
-2 3 5 1893.21 71.99
1 -3 -5 652.63 35.9
1 -3 -5 706.23 45.3
1 -3 -5 686.23 37.2
1 -3 -5 704.53 46.3
-1 3 5 719.83 37.7
-1 3 5 752.32 36.8
-1 3 5 691.83 52.29
0 -3 -5 203.78 29.2
0 -3 -5 291.27 23
0 -3 -5 249.28 21.1
0 -3 -5 273.57 27.5
0 3 5 244.58 30.6
0 3 5 220.98 30.4
0 3 5 248.88 20.2
0 3 5 259.67 21.7
-1 -3 -5 215.88 21.3
-1 -3 -5 227.88 30.8
-1 -3 -5 214.48 20.8
1 3 5 218.48 31.9
1 3 5 248.68 21.1
1 3 5 251.87 39.5
1 3 5 229.38 21.2
7 -4 -5 239.38 22.4
7 -4 -5 238.28 36.6
-7 4 5 222.88 21.6
-7 4 5 182.88 28.2
-7 4 5 199.78 16.6
-7 4 5 238.48 19
-7 4 5 234.18 23.2
6 -4 -5 397.46 34.2
6 -4 -5 430.86 28.7
6 -4 -5 381.46 28
-6 4 5 389.86 34.3
-6 4 5 355.96 27.8
-6 4 5 432.86 34.4
-6 4 5 377.66 26.1
5 -4 -5 141.09 19.3
5 -4 -5 171.88 27.1
5 -4 -5 110.29 16.8
-5 4 5 131.79 19.2
-5 4 5 106.99 15.7
-5 4 5 125.39 18
-5 4 5 142.99 23.4
4 -4 -5 50.69 10.5
4 -4 -5 42.2 12.3
4 -4 -5 44.2 13.2
4 -4 -5 47.9 10.1
-4 4 5 56.19 12.5
-4 4 5 58.59 11.3
-4 4 5 64.99 15.7
-4 4 5 96.49 17.8
3 -4 -5 642.34 34.1
3 -4 -5 670.23 34.3
3 -4 -5 634.44 43.5
3 -4 -5 686.33 42.8
-3 4 5 645.64 33.1
-3 4 5 617.54 40.3
-3 4 5 550.74 33.2
2 -4 -5 87.69 19.6
2 -4 -5 88.79 14
2 -4 -5 92.49 14.3
2 -4 -5 59.89 13.9
2 -4 -5 106.99 18.7
-2 4 5 107.99 15.6
1 -4 -5 1170.78 51.99
1 -4 -5 1180.08 65.69
1 -4 -5 1157.98 65.09
-1 4 5 1097.69 63.69
-1 4 5 1127.79 53.19
-1 4 5 1405.16 81.79
-1 4 5 1181.58 52.09
0 -4 -5 678.43 43.2
0 -4 -5 653.63 46.9
0 -4 -5 620.74 35.6
0 4 5 610.74 46.9
0 4 5 641.14 54.39
0 4 5 570.84 33.1
0 4 5 582.84 34.5
6 -5 -5 559.44 34.1
6 -5 -5 541.55 33.1
6 -5 -5 511.95 41.4
-6 5 5 521.75 42
-6 5 5 533.05 31.2
-6 5 5 494.95 31.6
-6 5 5 509.05 33.7
5 -5 -5 1565.94 72.19
5 -5 -5 1247.28 77.29
-5 5 5 1578.64 66.49
-5 5 5 1623.34 66.19
-5 5 5 1572.04 79.29
4 -5 -5 14.2 8.3
4 -5 -5 4.7 4.2
4 -5 -5 29.1 13.6
4 -5 -5 12.6 6
-4 5 5 17.2 6.5
-4 5 5 11.4 6.9
3 -5 -5 1539.05 60.59
3 -5 -5 1580.84 61.39
3 -5 -5 1535.85 74.49
3 -5 -5 1497.55 95.29
-3 5 5 1540.55 59.39
2 -5 -5 64.69 13.5
2 -5 -5 77.99 12
2 -5 -5 41 13.1
2 -5 -5 64.79 16.5
-2 5 5 59.79 11.2
-2 5 5 72.09 16.9
-2 5 5 71.59 11.9
3 9 -6 18.4 6.5
3 9 -6 3.1 10
3 9 -6 14.4 6.6
-3 -9 6 7.9 5
-3 -9 6 7.2 4.6
2 9 -6 1238.38 48.1
2 9 -6 1224.68 83.09
2 9 -6 1222.48 58.99
2 9 -6 1089.49 48.4
-2 -9 6 1120.19 47.1
-2 -9 6 1129.59 47.9
1 9 -6 88.49 28.1
1 9 -6 75.19 11.6
1 9 -6 70.59 12.5
-1 -9 6 89.39 13.3
-1 -9 6 69.99 11.7
-1 -9 6 89.39 17.6
0 9 -6 177.18 15.8
0 9 -6 252.77 37.5
0 9 -6 247.58 46.3
0 -9 6 193.48 20.9
-1 9 -6 52.79 19.7
-1 9 -6 77.19 15.4
1 -9 6 66.09 12.8
1 -9 6 66.79 12.9
1 -9 6 61.69 13.7
-2 9 -6 432.26 32.4
-2 9 -6 426.76 50.29
-2 9 -6 453.55 29.6
2 -9 6 402.36 29.9
2 -9 6 439.96 28.3
2 -9 6 434.36 29.8
5 8 -6 308.37 23.6
5 8 -6 300.57 32.4
5 8 -6 304.87 43.3
-5 -8 6 324.17 25.5
-5 -8 6 352.06 24.4
-5 -8 6 317.87 22.4
4 8 -6 188.18 16.9
4 8 -6 190.58 30.4
4 8 -6 182.48 23
-4 -8 6 198.38 14
-4 -8 6 177.98 17.7
-4 -8 6 190.48 17.1
3 8 -6 1552.24 90.39
3 8 -6 1523.25 61.49
3 8 -6 1467.85 58.99
3 8 -6 1529.45 69.29
-3 -8 6 1442.06 58.89
-3 -8 6 1536.05 61.59
2 8 -6 23.5 7.7
2 8 -6 21.6 14.2
2 8 -6 28.5 8.8
2 8 -6 40.6 8.9
-2 -8 6 33 8.2
-2 -8 6 38.2 9
1 8 -6 3058.89 139.49
1 8 -6 2887.31 104.59
1 8 -6 3026.7 102.29
-1 -8 6 2991.1 114.29
-1 -8 6 2962.7 103.69
-1 -8 6 3097.99 103.79
0 8 -6 295.07 21.8
0 8 -6 318.27 24.7
0 8 -6 363.96 41
0 -8 6 317.27 26.5
0 -8 6 323.27 23.3
0 -8 6 357.76 24.9
-1 8 -6 1797.62 101.79
-1 8 -6 1639.44 68.19
1 -8 6 1693.43 70.29
1 -8 6 1628.04 71.09
1 -8 6 1780.72 70.49
-2 8 -6 1252.67 85.09
-2 8 -6 1232.08 60.49
-2 8 -6 1144.09 55.39
2 -8 6 1137.19 56.19
2 -8 6 1182.68 54.29
2 -8 6 1196.28 56.29
-3 8 -6 557.14 56.29
-3 8 -6 610.94 41.4
-3 8 -6 553.64 36.8
3 -8 6 528.15 40.8
3 -8 6 614.74 33.9
3 -8 6 619.34 39.5
6 7 -6 1391.36 78.09
6 7 -6 1382.76 61.79
-6 -7 6 1370.16 63.79
-6 -7 6 1236.78 59.39
-6 -7 6 1328.77 59.99
5 7 -6 1846.72 75.99
5 7 -6 1736.23 88.19
5 7 -6 1984.4 76.69
-5 -7 6 1950.4 76.19
-5 -7 6 2052.89 73.49
-5 -7 6 2030.3 80.09
4 7 -6 284.17 22.5
4 7 -6 271.27 21.4
4 7 -6 262.17 25.4
-4 -7 6 320.07 24.1
-4 -7 6 307.37 22.5
-4 -7 6 289.07 17.8
3 7 -6 1022.9 67.09
3 7 -6 1220.48 52.79
3 7 -6 973.1 48
-3 -7 6 1111.69 50.29
-3 -7 6 1029.9 47.8
2 7 -6 26.8 7.1
2 7 -6 9.8 10.5
-2 -7 6 15 7
-2 -7 6 29.2 8.7
-2 -7 6 9.1 7.1
1 7 -6 482.05 44.5
-1 -7 6 534.45 30.8
-1 -7 6 502.25 30.3
-1 -7 6 534.45 35.5
0 7 -6 400.26 41.2
0 7 -6 459.95 30.5
0 -7 6 384.16 27.1
0 -7 6 423.46 30.8
0 -7 6 506.65 30.1
-1 7 -6 354.26 39.8
-1 7 -6 367.76 26
-1 7 -6 332.17 26.9
1 -7 6 322.47 25.9
1 -7 6 330.17 25.5
1 -7 6 364.86 26.3
-2 7 -6 1002.3 50.19
-2 7 -6 1018.5 60.19
-2 7 -6 884.91 67.09
2 -7 6 915.81 47.6
2 -7 6 1098.79 52.79
2 -7 6 914.61 49.7
-3 7 -6 849.02 51.09
-3 7 -6 895.21 49.1
-3 7 -6 840.52 36.6
-3 7 -6 912.91 70.49
3 -7 6 871.11 44.9
3 -7 6 878.61 48.8
3 -7 6 912.21 50.19
-4 7 -6 693.73 44.9
4 -7 6 713.93 45.7
7 6 -6 42.9 15.4
7 6 -6 66.69 15.2
-7 -6 6 48.9 13.8
-7 -6 6 78.89 16.6
-7 -6 6 57.19 13.3
6 6 -6 237.58 28.3
6 6 -6 192.28 24.6
6 6 -6 228.28 22
-6 -6 6 191.18 23.9
-6 -6 6 255.27 23.7
-6 -6 6 232.88 21.6
5 6 -6 614.64 37.7
5 6 -6 756.12 47.1
-5 -6 6 615.34 33.3
-5 -6 6 660.43 38.7
-5 -6 6 667.13 37.4
4 6 -6 1055.29 49.5
4 6 -6 938.41 50.09
-4 -6 6 1014.3 40.8
-4 -6 6 1020.6 47.3
-4 -6 6 936.21 47.5
3 6 -6 639.64 33.3
3 6 -6 601.64 45.8
3 6 -6 607.34 35.8
-3 -6 6 621.44 27
-3 -6 6 640.24 35.2
-3 -6 6 676.63 36.7
2 6 -6 3756.82 127.59
2 6 -6 3715.43 124.39
-2 -6 6 3864.11 126.69
-2 -6 6 3787.62 134.89
1 6 -6 56.99 17.6
1 6 -6 12.5 6
1 6 -6 23.5 8.4
-1 -6 6 33.6 9
-1 -6 6 51.99 13.6
-1 -6 6 7 5.6
0 6 -6 3204.88 115.39
0 6 -6 3355.86 136.69
0 6 -6 3188.08 111.49
0 -6 6 3155.68 112.59
0 -6 6 3227.98 113.29
0 -6 6 3334.27 118.79
-1 6 -6 169.28 21.4
-1 6 -6 165.68 22.4
-1 6 -6 192.38 33.6
1 -6 6 209.08 19.5
1 -6 6 201.58 20.3
1 -6 6 187.38 18.5
-2 6 -6 1623.74 72.59
-2 6 -6 1588.54 69.19
-2 6 -6 1525.95 55.69
2 -6 6 1522.25 68.49
2 -6 6 1633.04 69.09
2 -6 6 1495.75 68.39
-3 6 -6 121.99 19.4
-3 6 -6 141.99 17.3
-3 6 -6 138.19 22.7
-3 6 -6 125.49 20.6
3 -6 6 137.99 11.7
3 -6 6 172.88 27.5
3 -6 6 120.89 21.1
3 -6 6 161.68 23.2
-4 6 -6 296.57 26.9
-4 6 -6 275.67 27.7
-4 6 -6 300.47 29.5
-4 6 -6 286.97 27.2
4 -6 6 298.57 25
4 -6 6 240.38 20.1
4 -6 6 264.87 26.7
4 -6 6 278.67 27.5
7 5 -6 1946.61 87.09
7 5 -6 1911.01 83.59
-7 -5 6 1980.9 82.39
-7 -5 6 2011.2 85.39
-7 -5 6 1898.01 81.89
6 5 -6 678.93 39.4
-6 -5 6 641.64 38.8
-6 -5 6 664.93 40.7
5 5 -6 919.21 45.9
5 5 -6 973.4 48.1
-5 -5 6 897.71 47.2
-5 -5 6 868.31 45
-5 -5 6 939.51 42.9
4 5 -6 533.15 30.9
4 5 -6 484.65 31.3
-4 -5 6 501.55 25.9
-4 -5 6 454.35 30.8
-4 -5 6 456.85 35.3
-4 -5 6 511.95 31.3
3 5 -6 255.07 17.7
3 5 -6 213.78 20.3
3 5 -6 280.87 23.8
3 5 -6 231.68 25
-3 -5 6 235.48 26.7
-3 -5 6 252.17 24.7
-3 -5 6 247.08 20.6
-3 -5 6 258.47 15.4
-3 -5 6 265.77 21.8
2 5 -6 246.38 21.8
2 5 -6 283.47 27.8
2 5 -6 285.47 14.2
2 5 -6 306.17 21.8
-2 -5 6 248.58 21.5
-2 -5 6 296.17 25.3
1 5 -6 845.22 44.3
1 5 -6 853.11 51.89
1 5 -6 877.81 31
1 5 -6 883.61 42.6
-1 -5 6 858.01 47
-1 -5 6 938.61 44
-1 -5 6 850.31 49.2
0 5 -6 10.6 3.8
0 5 -6 9.6 8.1
0 5 -6 11 4.9
0 5 -6 5.6 6.2
0 -5 6 10.8 6.8
0 -5 6 6.9 4.8
0 -5 6 22.3 7.9
-1 5 -6 2154.58 71.79
-1 5 -6 2017.7 84.69
-1 5 -6 2222.38 83.39
-1 5 -6 2009.1 86.19
1 -5 6 2111.29 85.89
-2 5 -6 69.89 15.3
-2 5 -6 65.39 14.8
-2 5 -6 111.69 19.4
2 -5 6 68.89 18.3
2 -5 6 89.19 16.7
2 -5 6 91.39 16.1
-3 5 -6 1497.55 70.69
-3 5 -6 1557.94 71.79
-3 5 -6 1532.05 63.29
-3 5 -6 1522.65 72.29
3 -5 6 1448.36 69.09
3 -5 6 1404.76 57.59
3 -5 6 1556.64 71.19
3 -5 6 1528.75 69.09
-4 5 -6 520.65 39.5
-4 5 -6 528.45 35.4
-4 5 -6 516.15 40.5
-4 5 -6 594.54 41.8
4 -5 6 555.94 40.8
4 -5 6 583.04 35.2
4 -5 6 622.64 40.1
4 -5 6 652.53 43.1
8 4 -6 319.07 29.4
8 4 -6 304.27 29
-8 -4 6 355.86 31.6
-8 -4 6 335.27 29.9
7 4 -6 0.5 4.9
7 4 -6 9.4 6.3
-7 -4 6 6.5 6.4
-7 -4 6 14.2 7.7
-7 -4 6 8.7 8.2
6 4 -6 1292.67 61.69
-6 -4 6 1300.37 60.09
-6 -4 6 1272.57 61.19
-6 -4 6 1321.37 65.69
5 4 -6 655.23 35
5 4 -6 636.24 37.8
5 4 -6 592.34 35.1
-5 -4 6 639.44 33.8
-5 -4 6 539.45 40.6
-5 -4 6 625.64 37.4
4 4 -6 2132.49 81.99
4 4 -6 2058.99 74.59
-4 -4 6 2141.99 74.29
-4 -4 6 1964.6 82.39
-4 -4 6 2020.1 80.69
-4 -4 6 2141.09 80.49
3 4 -6 2854.71 101.89
3 4 -6 2798.72 99.99
3 4 -6 2820.22 105.19
-3 -4 6 2855.61 102.89
-3 -4 6 3095.29 103.39
-3 -4 6 2817.12 108.19
2 4 -6 1399.76 58.29
2 4 -6 1374.86 59.89
2 4 -6 1405.46 51.09
2 4 -6 1371.46 62.49
-2 -4 6 1338.27 57.89
-2 -4 6 1475.75 60.99
-2 -4 6 1398.56 64.19
1 4 -6 3653.43 128.49
-1 -4 6 3928.41 129.69
0 4 -6 197.38 15.2
0 4 -6 192.78 18.6
0 4 -6 225.68 21
0 4 -6 204.28 28
0 -4 6 229.98 22.5
0 -4 6 189.08 19.2
0 -4 6 188.08 18.7
-1 4 -6 1831.32 80.09
-1 4 -6 1769.02 74.39
-1 4 -6 1924.01 68.99
-1 4 -6 1860.01 78.39
1 -4 6 1876.01 79.99
1 -4 6 1804.42 75.59
1 -4 6 1858.31 76.19
-2 4 -6 0.1 4.8
-2 4 -6 10.7 7.5
-2 4 -6 1.7 4.8
2 -4 6 4.2 3.7
2 -4 6 13.2 6.8
2 -4 6 8.8 6.9
2 -4 6 1.4 4
-3 4 -6 178.48 24.8
-3 4 -6 218.48 43.4
-3 4 -6 199.08 27.1
3 -4 6 213.78 22.6
3 -4 6 209.08 27.1
3 -4 6 227.48 19.5
3 -4 6 169.28 25
-4 4 -6 29.9 10.9
-4 4 -6 45.6 14.5
-4 4 -6 30 11.5
4 -4 6 56.09 15.2
4 -4 6 18.5 10.2
4 -4 6 36.1 11.5
4 -4 6 34.4 11.8
8 3 -6 1784.82 82.09
8 3 -6 1771.62 82.69
-8 -3 6 1879.11 84.19
-8 -3 6 1826.02 82.49
-8 -3 6 1967.2 84.99
7 3 -6 23.5 9.3
7 3 -6 28.7 9.9
-7 -3 6 18 10.1
-7 -3 6 13.3 7.6
-7 -3 6 37.8 10.6
6 3 -6 1687.33 73.19
6 3 -6 1633.04 70.89
6 3 -6 1814.42 73.39
-6 -3 6 1637.54 79.09
-6 -3 6 1533.35 71.69
-6 -3 6 1731.03 73.59
5 3 -6 336.37 26.2
5 3 -6 343.57 25.7
-5 -3 6 327.77 25.7
-5 -3 6 367.76 27.3
-5 -3 6 318.07 24.1
-5 -3 6 343.27 24.1
4 3 -6 908.31 43.1
4 3 -6 961.8 47.9
4 3 -6 1009.2 46.5
-4 -3 6 1014.2 48.4
-4 -3 6 889.21 49.4
-4 -3 6 914.11 42.5
-4 -3 6 968 43
-4 -3 6 873.71 45.1
3 3 -6 0.7 3.1
3 3 -6 2.2 4.4
3 3 -6 4.9 4.9
3 3 -6 0.1 4.9
-3 -3 6 9.4 5.9
-3 -3 6 -0.3 2.9
-3 -3 6 0.7 4.5
-3 -3 6 5.4 5.4
2 3 -6 1296.57 51.79
2 3 -6 1306.67 57.39
2 3 -6 1302.17 55.89
2 3 -6 1342.07 45.8
2 3 -6 1247.48 55.19
-2 -3 6 1313.67 61.99
-2 -3 6 1306.37 56.39
-2 -3 6 1352.26 58.39
1 3 -6 455.25 31.2
1 3 -6 440.26 25.5
1 3 -6 431.26 29.3
1 3 -6 407.86 31.4
1 3 -6 441.06 28.3
-1 -3 6 434.56 29.2
-1 -3 6 432.56 32
-1 -3 6 420.96 27.6
0 3 -6 1880.81 75.59
0 3 -6 1936.11 82.49
0 3 -6 1876.81 70.59
0 3 -6 1932.61 78.19
0 -3 6 1862.91 81.39
0 -3 6 1910.81 75.69
0 -3 6 1936.21 77.09
-1 3 -6 276.27 21.2
-1 3 -6 267.37 23.1
-1 3 -6 308.17 26.2
1 -3 6 271.17 23.6
1 -3 6 258.67 23.1
1 -3 6 282.47 19
1 -3 6 293.67 26.6
-2 3 -6 3016.4 119.09
-2 3 -6 2895.31 113.39
-2 3 -6 3033.2 113.09
2 -3 6 2869.41 111.09
2 -3 6 3034.7 104.49
2 -3 6 3045.3 117.19
-3 3 -6 178.98 25.6
-3 3 -6 219.98 32.8
-3 3 -6 226.18 30.4
3 -3 6 196.08 40.8
3 -3 6 183.88 25.5
3 -3 6 191.78 20.1
3 -3 6 245.08 32.3
-4 3 -6 1648.34 80.09
-4 3 -6 1528.85 80.49
-4 3 -6 1533.65 77.29
4 -3 6 1572.94 77.59
4 -3 6 1584.04 76.39
4 -3 6 1496.55 77.59
4 -3 6 1623.14 76.09
8 2 -6 35.4 12.4
8 2 -6 15.7 9.1
-8 -2 6 35.7 12.3
-8 -2 6 25.9 10
7 2 -6 1060.49 56.49
7 2 -6 1143.79 58.79
7 2 -6 1112.69 56.19
-7 -2 6 1096.69 56.09
-7 -2 6 1115.19 56.79
-7 -2 6 1102.39 57.19
-7 -2 6 1098.19 55.19
6 2 -6 33.5 12.5
6 2 -6 32.2 10.9
-6 -2 6 41.6 11.2
-6 -2 6 43.4 11.1
-6 -2 6 43.9 13.3
-6 -2 6 34.1 11
-6 -2 6 34.7 9.3
5 2 -6 2985 104.09
5 2 -6 2883.41 105.89
5 2 -6 2827.62 103.89
-5 -2 6 2791.42 94.29
-5 -2 6 2812.12 104.79
-5 -2 6 2715.43 102.99
-5 -2 6 2772.42 108.59
-5 -2 6 3117.29 104.49
4 2 -6 911.21 43.9
4 2 -6 888.51 45.6
4 2 -6 856.51 43.3
-4 -2 6 821.22 41.8
-4 -2 6 902.71 48.7
-4 -2 6 935.31 45
-4 -2 6 862.31 45
-3 -2 6 4216.08 141.39
2 2 -6 2168.28 75.79
2 2 -6 2213.18 76.29
2 2 -6 2105.69 88.39
2 2 -6 2246.68 82.39
2 2 -6 2155.38 79.79
2 2 -6 2168.58 82.99
-2 -2 6 2111.89 88.19
-2 -2 6 2187.98 83.89
-2 -2 6 2140.59 81.19
1 2 -6 513.55 30.6
1 2 -6 546.65 27.8
1 2 -6 521.15 36.3
1 2 -6 539.15 33.6
1 2 -6 533.45 32.3
-1 -2 6 492.05 32.2
-1 -2 6 548.95 32.1
-1 -2 6 567.54 37.8
0 2 -6 1415.36 59.79
0 2 -6 1461.25 78.59
0 2 -6 1344.17 62.49
0 2 -6 1384.26 61.69
0 -2 6 1392.36 61.09
0 -2 6 1499.85 69.39
0 -2 6 1483.55 63.49
0 -2 6 1397.36 57.39
-1 2 -6 96.99 17.2
-1 2 -6 89.59 16.9
-1 2 -6 94.89 15.7
-1 2 -6 66.89 15.8
1 -2 6 118.59 18
1 -2 6 72.49 15.5
1 -2 6 87.49 16.1
-2 2 -6 199.58 26.4
-2 2 -6 210.78 30.5
-2 2 -6 213.98 28.5
2 -2 6 186.08 25.2
2 -2 6 255.77 23.3
2 -2 6 230.68 22.5
2 -2 6 198.28 28.4
-3 2 -6 202.28 27.5
-3 2 -6 260.47 37.1
-3 2 -6 175.08 24.9
3 -2 6 195.18 25.9
3 -2 6 169.68 26.4
3 -2 6 174.78 27.2
3 -2 6 182.78 21.5
9 1 -6 866.91 53.79
9 1 -6 818.42 52.09
-9 -1 6 896.11 53.99
-9 -1 6 791.32 53.09
8 1 -6 85.39 17.4
8 1 -6 92.09 18.2
8 1 -6 124.89 20.5
-8 -1 6 92.09 18.2
-8 -1 6 97.09 19.2
-8 -1 6 135.59 22
-8 -1 6 104.59 19.3
7 1 -6 1568.64 70.29
7 1 -6 1569.54 72.69
7 1 -6 1630.24 74.89
-7 -1 6 1572.94 64.29
-7 -1 6 1622.94 73.59
-7 -1 6 1471.65 69.19
6 1 -6 45.7 11.8
6 1 -6 43.8 12.2
-6 -1 6 41.1 11.8
-6 -1 6 27.8 9.1
-6 -1 6 28 10.7
-6 -1 6 33.2 10.4
5 1 -6 517.85 34.2
5 1 -6 588.44 36
5 1 -6 509.45 32.8
-5 -1 6 606.84 35.5
-5 -1 6 582.24 35.7
-5 -1 6 552.44 34.5
-5 -1 6 578.84 37.4
4 1 -6 163.28 20.3
4 1 -6 208.98 25.6
4 1 -6 164.28 21.4
-4 -1 6 143.29 19.2
-4 -1 6 130.49 19.2
-4 -1 6 200.28 24.1
-4 -1 6 192.28 23.6
3 1 -6 249.68 20.4
3 1 -6 275.57 22.1
3 1 -6 251.37 21.8
3 1 -6 270.57 21.7
3 1 -6 239.78 23.6
-3 -1 6 220.68 22.6
-3 -1 6 273.57 21.6
-3 -1 6 247.18 21.6
-3 -1 6 251.17 21
2 1 -6 1589.94 72.99
2 1 -6 1685.23 67.99
2 1 -6 1635.64 67.89
2 1 -6 1571.84 61.59
2 1 -6 1701.33 67.29
2 1 -6 1687.43 66.79
-2 -1 6 1557.34 65.49
-2 -1 6 1633.94 74.39
-2 -1 6 1698.73 68.69
1 1 -6 574.24 34.1
1 1 -6 562.94 39
1 1 -6 595.84 34.1
1 1 -6 556.34 32.8
1 1 -6 530.25 33.8
-1 -1 6 437.96 39.3
-1 -1 6 570.44 34.3
-1 -1 6 537.75 32.3
0 1 -6 931.71 53.39
0 1 -6 887.91 47.2
0 1 -6 928.11 54.59
0 1 -6 985.1 49.3
0 -1 6 1018.7 49
0 -1 6 1051.19 51.39
0 -1 6 1083.19 60.49
0 -1 6 1004.2 50.19
-1 1 -6 3019.8 118.39
-1 1 -6 2731.93 107.09
-1 1 -6 2831.22 108.69
-1 1 -6 2855.81 107.79
1 -1 6 3097.39 110.19
1 -1 6 2804.52 115.79
1 -1 6 2900.61 106.89
1 -1 6 2778.62 109.19
-2 1 -6 31.9 12.1
-2 1 -6 45.3 12.3
-2 1 -6 47.1 12.6
2 -1 6 44 11.6
2 -1 6 24.7 11.2
2 -1 6 20.6 9.9
2 -1 6 15.2 9
-3 1 -6 1907.91 86.09
-3 1 -6 1782.92 82.99
3 -1 6 1872.81 88.69
3 -1 6 1767.82 92.39
3 -1 6 1772.72 81.89
3 -1 6 1889.01 91.79
9 0 -6 123.19 23.4
9 0 -6 188.38 28.5
9 0 -6 108.39 20.8
-9 0 6 120.09 24
-9 0 6 213.08 29.5
-9 0 6 122.19 21.8
-9 0 6 156.28 26.3
8 0 -6 558.54 46.9
8 0 -6 630.24 45.2
8 0 -6 619.64 42.5
-8 0 6 650.43 44.4
-8 0 6 695.53 43.5
-8 0 6 649.14 37
-8 0 6 637.14 42.1
7 0 -6 367.16 30.2
7 0 -6 358.06 28.8
7 0 -6 441.16 34.2
-7 0 6 353.16 28.5
-7 0 6 372.26 30
-7 0 6 375.26 21.8
-7 0 6 342.57 29.9
-7 0 6 355.46 29.5
6 0 -6 3610.14 136.09
6 0 -6 3579.94 129.59
6 0 -6 3367.26 122.79
-6 0 6 3486.65 123.69
-6 0 6 3612.94 128.59
-6 0 6 3479.95 127.29
-6 0 6 3381.86 125.29
5 0 -6 60.29 13
5 0 -6 50.49 11.4
5 0 -6 51.69 14.1
-5 0 6 49.7 12.8
-5 0 6 52.29 12.4
-5 0 6 66.79 13.6
-5 0 6 57.99 13.3
4 0 -6 4091.59 141.79
4 0 -6 4079.69 145.49
-4 0 6 4044.3 139.29
-4 0 6 4242.38 145.59
-4 0 6 4037.4 142.29
3 0 -6 328.47 25.9
3 0 -6 279.67 23.7
3 0 -6 334.37 24.4
3 0 -6 362.26 29.7
-3 0 6 340.37 28.9
-3 0 6 303.07 23.7
-3 0 6 296.57 24.4
-3 0 6 345.57 26.1
2 0 -6 1372.16 59.49
2 0 -6 1383.46 61.79
2 0 -6 1328.07 47.6
2 0 -6 1259.97 69.19
2 0 -6 1367.96 58.29
2 0 -6 1366.36 66.09
-2 0 6 1349.47 67.39
-2 0 6 1105.79 62.49
1 0 -6 497.25 38
1 0 -6 514.55 35.6
1 0 -6 570.24 34.8
1 0 -6 576.44 36.3
1 0 -6 525.35 33
-1 0 6 603.44 35.7
-1 0 6 518.45 32.9
-1 0 6 603.24 41.1
0 0 -6 235.68 22.7
0 0 -6 260.97 22.6
0 0 -6 214.18 21.1
0 0 6 227.88 21.2
0 0 6 207.58 23
0 0 6 242.38 28.4
-1 0 -6 15.5 9
-1 0 -6 3.3 6.8
-1 0 -6 24.5 9.4
-1 0 -6 7.4 6.4
1 0 6 2.6 6.1
1 0 6 26.1 9.5
1 0 6 6 7.5
1 0 6 4.7 5
-2 0 -6 503.45 38.3
-2 0 -6 566.94 44.8
-2 0 -6 508.05 37.7
-2 0 -6 552.54 38.4
2 0 6 528.95 36.6
2 0 6 517.85 37.3
2 0 6 517.55 41.7
8 -1 -6 787.12 49.3
8 -1 -6 826.52 49.1
8 -1 -6 852.11 54.29
-8 1 6 825.02 49.1
-8 1 6 875.91 49.3
-8 1 6 985.7 77.39
-8 1 6 871.21 40.2
7 -1 -6 341.47 29
7 -1 -6 360.76 31.9
-7 1 6 396.86 38.5
-7 1 6 345.67 30.7
-7 1 6 298.47 27.3
-7 1 6 373.96 29.1
6 -1 -6 229.48 21.9
6 -1 -6 159.68 22.7
6 -1 -6 243.38 21.8
-6 1 6 183.58 25.3
-6 1 6 172.88 23.6
-6 1 6 225.18 22.2
5 -1 -6 326.57 28.7
5 -1 -6 371.26 27.9
5 -1 -6 316.57 25.2
-5 1 6 347.27 28.5
-5 1 6 342.57 28.6
-5 1 6 344.67 26.3
-5 1 6 377.76 28.1
4 -1 -6 37.4 11.8
4 -1 -6 18.5 9.4
4 -1 -6 14.6 7.6
-4 1 6 25 9.1
-4 1 6 32.7 9
-4 1 6 23 9.1
-4 1 6 39.1 10.9
3 -1 -6 1929.71 93.19
3 -1 -6 1925.71 81.69
3 -1 -6 1918.51 76.39
3 -1 -6 1944.01 76.29
-3 1 6 1857.11 83.69
-3 1 6 1959 75.89
-3 1 6 1967 78.69
2 -1 -6 291.17 23
2 -1 -6 265.67 25.1
2 -1 -6 303.87 28.2
2 -1 -6 271.07 23.2
-2 1 6 280.27 23.8
-2 1 6 295.37 22.9
-2 1 6 279.27 27.1
1 -1 -6 2002 80.19
1 -1 -6 2138.69 92.29
1 -1 -6 1918.11 78.59
1 -1 -6 2011.1 79.59
1 -1 -6 1993.2 85.29
-1 1 6 2078.39 78.69
-1 1 6 1851.51 89.79
-1 1 6 1994.6 80.59
0 -1 -6 1408.06 64.99
0 -1 -6 1521.05 67.19
0 -1 -6 1573.94 72.69
0 1 6 1424.56 65.99
0 1 6 1429.56 74.99
0 1 6 1552.54 78.09
0 1 6 1529.65 65.39
-1 -1 -6 752.92 51.29
-1 -1 -6 690.83 46.1
-1 -1 -6 677.03 49.7
-1 -1 -6 702.53 43.1
1 1 6 733.43 41.9
1 1 6 672.33 42.1
1 1 6 662.93 49.5
1 1 6 706.13 50.89
8 -2 -6 927.01 53.69
8 -2 -6 1014.7 60.49
8 -2 -6 980.3 53.89
-8 2 6 868.61 51.29
-8 2 6 957.7 50.89
-8 2 6 865.11 55.99
-8 2 6 947.51 37.2
7 -2 -6 1521.65 76.39
7 -2 -6 1533.15 69.39
7 -2 -6 1572.94 71.49
-7 2 6 1483.65 70.99
-7 2 6 1594.14 70.49
-7 2 6 1513.55 70.29
-7 2 6 1503.55 75.99
6 -2 -6 478.85 37.9
6 -2 -6 534.85 34.6
6 -2 -6 599.04 37.7
-6 2 6 611.04 40.2
-6 2 6 541.15 36.8
-6 2 6 605.74 37.6
5 -2 -6 2560.14 102.99
5 -2 -6 2568.24 96.29
5 -2 -6 2561.74 94.19
-5 2 6 2340.97 92.09
-5 2 6 2467.05 95.69
-5 2 6 2424.16 108.89
4 -2 -6 9.3 7.2
4 -2 -6 24.9 8.1
4 -2 -6 14.8 7.5
4 -2 -6 0 7.2
-4 2 6 -0.8 3.4
-4 2 6 5.8 5.7
-4 2 6 3.8 5.1
3 -2 -6 1184.58 55.19
3 -2 -6 1200.48 62.19
3 -2 -6 1197.48 54.59
3 -2 -6 1232.28 63.29
-3 2 6 1175.98 53.89
-3 2 6 1237.18 63.19
2 -2 -6 191.58 22.6
2 -2 -6 162.48 20.5
2 -2 -6 184.98 28.7
2 -2 -6 207.38 16.7
2 -2 -6 199.18 26.9
-2 2 6 142.39 19.1
1 -2 -6 437.06 30
1 -2 -6 481.35 38.5
1 -2 -6 429.46 35
1 -2 -6 398.66 30.4
1 -2 -6 448.86 30.9
-1 2 6 485.05 38.6
-1 2 6 448.16 40.5
-1 2 6 418.56 28.9
-1 2 6 424.46 30.4
0 -2 -6 124.79 19.7
0 -2 -6 60.59 14.8
0 -2 -6 117.19 19.5
0 2 6 94.09 15.9
0 2 6 95.69 25.2
0 2 6 114.19 23.2
0 2 6 91.79 23.1
-1 -2 -6 418.26 36.4
-1 -2 -6 373.66 37.4
-1 -2 -6 381.66 30.8
-1 -2 -6 376.66 30.3
1 2 6 383.36 29.3
1 2 6 303.37 35
1 2 6 415.96 39.5
1 2 6 404.46 31.2
7 -3 -6 2.1 5.5
7 -3 -6 1 5.8
-7 3 6 9.3 7.5
-7 3 6 12.7 8.6
-7 3 6 25.4 9.4
-7 3 6 18.5 7.9
6 -3 -6 208.18 25.7
6 -3 -6 210.48 30.8
6 -3 -6 240.58 21.6
-6 3 6 182.18 23.7
-6 3 6 211.68 20.8
-6 3 6 163.38 24.7
5 -3 -6 186.18 22.8
5 -3 -6 166.18 25.6
5 -3 -6 139.49 20.1
-5 3 6 179.88 24.1
-5 3 6 122.19 17.9
-5 3 6 117.89 22.6
-5 3 6 180.38 25.4
4 -3 -6 1071.69 52.49
4 -3 -6 1179.78 63.19
4 -3 -6 1270.67 55.79
4 -3 -6 1113.29 59.69
-4 3 6 1132.49 59.79
-4 3 6 1103.09 54.89
3 -3 -6 8.9 6.4
3 -3 -6 10.9 8.4
3 -3 -6 12.5 9.4
3 -3 -6 15.4 7.3
-3 3 6 13.7 7.4
-3 3 6 19.1 7.5
2 -3 -6 2072.89 80.19
2 -3 -6 1859.11 77.29
2 -3 -6 1988.1 92.19
2 -3 -6 2088.99 80.59
2 -3 -6 1939.71 90.69
-2 3 6 2022.6 78.49
-2 3 6 2092.79 81.29
-2 3 6 1977.4 92.19
1 -3 -6 276.97 23.6
1 -3 -6 237.08 25.9
1 -3 -6 268.47 33.6
1 -3 -6 305.87 28
1 -3 -6 277.77 30.1
-1 3 6 332.87 25.9
-1 3 6 287.87 38.3
-1 3 6 304.17 35.6
6 -4 -6 1050.09 54.39
6 -4 -6 1098.09 64.69
6 -4 -6 1110.89 54.59
-6 4 6 1191.68 57.89
-6 4 6 1157.48 66.39
-6 4 6 1040.3 54.49
5 -4 -6 283.47 36.9
5 -4 -6 197.28 19.9
5 -4 -6 158.98 20.7
-5 4 6 183.18 18.4
-5 4 6 253.17 35
-5 4 6 195.18 26.8
-5 4 6 220.58 21.7
4 -4 -6 537.35 42.4
4 -4 -6 499.35 32.6
4 -4 -6 616.34 41.6
4 -4 -6 607.44 36
-4 4 6 562.34 33.2
-4 4 6 568.04 35.5
3 -4 -6 35.4 12.1
3 -4 -6 30.3 9.4
3 -4 -6 39.9 10.1
3 -4 -6 47.8 14.7
-3 4 6 23.5 8.5
-3 4 6 27.3 8.6
-3 4 6 42.9 12.5
3 9 -7 451.85 30.7
3 9 -7 418.16 27.3
3 9 -7 377.56 45
-3 -9 7 425.36 27.8
2 9 -7 2136.19 84.49
2 9 -7 2465.65 122.69
2 9 -7 2102.19 80.69
-2 -9 7 2093.79 94.79
-2 -9 7 2081.29 81.89
1 9 -7 6.5 6.1
1 9 -7 14.5 13
1 9 -7 25.8 7.7
-1 -9 7 21.8 7.6
-1 -9 7 28.1 10.2
0 9 -7 1716.63 71.89
0 9 -7 1708.13 75.59
0 9 -7 1718.63 104.89
0 -9 7 1881.81 81.39
0 -9 7 1904.71 74.89
0 -9 7 1764.62 74.89
-1 9 -7 30.3 16.9
-1 9 -7 51.99 11.8
1 -9 7 57.29 13.7
1 -9 7 62.29 13.6
1 -9 7 51.49 13.5
5 8 -7 551.74 34.4
5 8 -7 594.24 42.9
5 8 -7 578.04 36.5
-5 -8 7 553.24 28.2
-5 -8 7 558.54 34.6
-5 -8 7 464.85 34.4
4 8 -7 288.87 25.5
4 8 -7 287.07 23.9
4 8 -7 260.27 31.9
-4 -8 7 261.67 25.6
-4 -8 7 293.87 24.9
3 8 -7 484.05 32.2
3 8 -7 499.95 29.8
3 8 -7 555.94 50.29
3 8 -7 479.95 30.2
-3 -8 7 462.65 37.8
-3 -8 7 456.45 30.3
-3 -8 7 510.55 32.6
2 8 -7 7.9 11
2 8 -7 4.4 4.6
-2 -8 7 5 4.8
-2 -8 7 5.7 5.8
-2 -8 7 6.2 6.6
1 8 -7 596.04 38.3
1 8 -7 600.14 53.99
1 8 -7 575.74 34.1
-1 -8 7 548.85 39.3
-1 -8 7 562.44 34.7
0 8 -7 33.6 9.9
0 8 -7 18.7 14.9
0 8 -7 16.8 9
0 -8 7 26 9.6
0 -8 7 28.7 10.3
0 -8 7 24.2 9
-1 8 -7 2144.69 91.99
-1 8 -7 2346.67 106.19
-1 8 -7 2146.39 117.89
1 -8 7 2230.58 89.59
1 -8 7 2253.67 91.79
1 -8 7 2160.98 89.39
-2 8 -7 97.09 18.1
-2 8 -7 70.19 17.1
-2 8 -7 107.59 27.7
2 -8 7 146.69 22
2 -8 7 108.39 19.2
2 -8 7 119.79 19.9
6 7 -7 971.6 52.29
6 7 -7 979.8 61.29
6 7 -7 1013.8 51.99
-6 -7 7 995 53.99
-6 -7 7 979 51.49
5 7 -7 456.25 34.7
5 7 -7 398.76 30
5 7 -7 387.26 28.8
-5 -7 7 353.06 27.6
-5 -7 7 381.66 23.4
-5 -7 7 372.66 29.7
4 7 -7 1790.82 70.79
4 7 -7 1565.94 86.69
4 7 -7 1607.74 67.79
-4 -7 7 1538.95 67.79
-4 -7 7 1583.94 70.29
-4 -7 7 1618.54 55.69
3 7 -7 2038.9 80.69
3 7 -7 1933.31 68.69
3 7 -7 1963.4 96.79
-3 -7 7 1805.82 76.29
-3 -7 7 1878.31 78.09
-3 -7 7 1909.11 86.59
2 7 -7 565.94 48.1
-2 -7 7 626.24 36.8
-2 -7 7 638.84 37.7
-2 -7 7 633.64 41.8
1 7 -7 2293.87 110.49
1 7 -7 2274.27 88.49
1 7 -7 2326.77 92.49
-1 -7 7 2453.15 91.49
-1 -7 7 2449.85 91.29
-1 -7 7 2262.67 96.29
0 7 -7 10.4 6.5
0 7 -7 17.1 8.8
0 7 -7 12.2 11.9
0 -7 7 26.4 9.3
0 -7 7 4.4 5.9
-1 7 -7 738.13 43.3
-1 7 -7 804.62 62.89
-1 7 -7 823.92 48.1
1 -7 7 740.03 44
1 -7 7 778.32 46.3
1 -7 7 767.12 44.8
-2 7 -7 42.4 17.7
-2 7 -7 15.6 4.9
-2 7 -7 8.6 7.3
-2 7 -7 15.4 7.5
-2 7 -7 10.4 4.2
2 -7 7 11.1 7.1
2 -7 7 18.4 8.7
2 -7 7 11.1 7.5
7 6 -7 4 5.8
7 6 -7 -2.7 4.1
-7 -6 7 5.9 6.7
-7 -6 7 6.6 6
-7 -6 7 6.4 6.3
6 6 -7 886.61 50.89
6 6 -7 864.41 47.7
-6 -6 7 1045.1 61.59
-6 -6 7 804.02 48.5
-6 -6 7 910.11 49
5 6 -7 118.69 19.5
5 6 -7 82.99 16.8
5 6 -7 80.79 14.7
-5 -6 7 64.19 13.2
-5 -6 7 106.99 14.7
-5 -6 7 91.29 16.9
4 6 -7 331.07 26.6
4 6 -7 306.97 24.2
4 6 -7 303.17 31.9
-4 -6 7 326.07 19.1
-4 -6 7 295.37 25.5
-4 -6 7 271.07 23.7
-4 -6 7 319.17 29.9
3 6 -7 238.68 20.6
3 6 -7 230.48 27.1
3 6 -7 224.28 14.2
-3 -6 7 171.98 21.7
-3 -6 7 230.48 21.8
-3 -6 7 227.78 24.6
2 6 -7 492.65 31.6
2 6 -7 517.85 34
2 6 -7 499.15 41.3
-2 -6 7 539.55 38
1 6 -7 476.45 41.5
1 6 -7 465.45 32.7
1 6 -7 533.55 32.7
-1 -6 7 466.65 31.7
-1 -6 7 467.95 32.2
-1 -6 7 477.85 35.6
0 6 -7 2338.47 95.69
0 6 -7 2496.75 113.89
0 6 -7 2378.36 92.29
0 -6 7 2282.97 92.69
0 -6 7 2528.75 95.29
0 -6 7 2436.36 99.09
-1 6 -7 73.29 15.4
-1 6 -7 101.09 9.8
-1 6 -7 102.49 19.2
-1 6 -7 51.79 16.7
1 -6 7 74.39 15
1 -6 7 96.69 19.4
1 -6 7 97.39 18.7
-2 6 -7 2433.76 84.79
-2 6 -7 2497.15 99.69
-2 6 -7 2374.66 101.79
-2 6 -7 2379.56 84.19
2 -6 7 2516.15 100.19
2 -6 7 2447.66 99.59
2 -6 7 2310.27 97.99
-3 6 -7 234.48 19.7
-3 6 -7 293.47 34.7
-3 6 -7 163.98 26.7
-3 6 -7 246.68 34.2
3 -6 7 215.08 28.2
3 -6 7 197.58 28.4
3 -6 7 185.78 26.7
7 5 -7 1711.33 78.19
7 5 -7 1804.72 79.19
-7 -5 7 1681.03 73.69
-7 -5 7 1565.14 75.19
-7 -5 7 1789.42 80.19
6 5 -7 15 8.7
6 5 -7 13.1 8.3
-6 -5 7 18 9.2
-6 -5 7 5.9 7.1
-6 -5 7 27.7 10.3
5 5 -7 2893.81 106.89
5 5 -7 2953.6 110.99
-5 -5 7 2697.23 113.29
-5 -5 7 2901.91 108.29
-5 -5 7 3030.5 111.09
-5 -5 7 3019.9 101.39
4 5 -7 614.04 39.4
4 5 -7 684.03 38.6
4 5 -7 685.33 32.8
4 5 -7 675.43 43.8
-4 -5 7 698.63 32.8
-4 -5 7 639.94 39.3
-4 -5 7 750.12 46
-4 -5 7 634.94 41.5
-4 -5 7 624.74 38.4
3 5 -7 2492.85 95.59
3 5 -7 2459.95 100.69
3 5 -7 2459.45 82.29
3 5 -7 2442.96 93.09
-3 -5 7 2663.03 96.39
-3 -5 7 2502.15 101.39
-3 -5 7 2441.26 81.69
2 5 -7 1670.93 68.59
2 5 -7 1595.94 70.49
2 5 -7 1563.34 75.09
2 5 -7 1712.43 57.49
-2 -5 7 1690.43 70.79
-2 -5 7 1485.85 73.09
1 5 -7 255.57 22.5
1 5 -7 251.47 27.8
1 5 -7 276.17 25
1 5 -7 273.17 16.9
-1 -5 7 266.37 25.9
-1 -5 7 353.76 46.2
-1 -5 7 240.48 22.6
0 5 -7 302.97 19.7
0 5 -7 312.37 27.3
0 5 -7 348.57 34.1
0 5 -7 305.27 25.2
0 -5 7 305.57 28.3
0 -5 7 318.97 26.4
0 -5 7 301.77 25.6
-1 5 -7 245.08 18.5
-1 5 -7 250.37 24.8
-1 5 -7 239.08 25.5
-1 5 -7 224.48 22.3
1 -5 7 277.87 26.6
1 -5 7 239.98 23.6
1 -5 7 224.88 27.7
-2 5 -7 29.6 11.1
-2 5 -7 37.3 12.3
-2 5 -7 26.5 10.4
-2 5 -7 35.5 9.6
2 -5 7 31.2 11
2 -5 7 38.5 12.1
2 -5 7 27.6 10.4
-3 5 -7 571.34 42.3
-3 5 -7 652.63 45.7
-3 5 -7 677.13 47
3 -5 7 640.44 43.5
3 -5 7 621.54 31.4
3 -5 7 625.24 43.7
3 -5 7 624.14 43.3
8 4 -7 138.89 23.9
-8 -4 7 117.29 21.7
-8 -4 7 152.58 25.6
-8 -4 7 117.09 25.9
7 4 -7 883.31 49.99
7 4 -7 891.31 52.19
-7 -4 7 853.41 49.7
-7 -4 7 924.51 52.89
-7 -4 7 891.01 48.6
6 4 -7 29 9.2
6 4 -7 37.4 11.7
6 4 -7 48.4 12.8
-6 -4 7 22.9 9.8
-6 -4 7 41.8 12.7
-6 -4 7 49.4 12.6
-6 -4 7 49.3 14
5 4 -7 134.19 19.7
5 4 -7 122.29 19.5
5 4 -7 174.48 21.8
-5 -4 7 141.49 16.7
-5 -4 7 126.69 17.5
-5 -4 7 158.48 22.8
-5 -4 7 116.19 19.4
4 4 -7 673.13 41.4
4 4 -7 726.53 36.7
-4 -4 7 715.83 35.6
-4 -4 7 688.33 40.3
-4 -4 7 763.92 43
3 4 -7 386.06 27.2
3 4 -7 351.96 27.6
3 4 -7 330.97 18.2
3 4 -7 295.67 25
3 4 -7 327.87 22
-3 -4 7 334.37 26.7
-3 -4 7 311.17 28.2
-3 -4 7 352.96 21.7
2 4 -7 2148.09 75.69
2 4 -7 2032.8 83.79
2 4 -7 2067.89 82.09
2 4 -7 2128.79 85.69
-2 -4 7 2058.79 82.79
-2 -4 7 2104.09 90.09
-2 -4 7 2070.89 84.09
1 4 -7 1824.32 68.49
1 4 -7 1819.82 75.39
1 4 -7 1870.21 81.59
1 4 -7 1754.62 76.99
-1 -4 7 1830.92 82.39
-1 -4 7 1898.61 76.59
-1 -4 7 1791.92 76.59
0 4 -7 1166.48 56.39
0 4 -7 1120.49 61.69
0 4 -7 1211.58 59.39
0 4 -7 1140.29 49.9
0 -4 7 1105.49 60.59
0 -4 7 1128.89 56.09
0 -4 7 1154.38 57.09
-1 4 -7 2628.14 94.29
-1 4 -7 2635.94 108.39
-1 4 -7 2674.63 105.39
-1 4 -7 2585.74 101.79
1 -4 7 2239.88 116.59
1 -4 7 2565.24 102.29
1 -4 7 2708.83 108.09
-2 4 -7 35.2 9.8
-2 4 -7 32.9 11.9
-2 4 -7 46.4 13.3
-2 4 -7 23.2 9.8
2 -4 7 30.1 11.1
2 -4 7 17.2 9
2 -4 7 39.2 12.3
2 -4 7 30.5 7.8
-3 4 -7 1188.68 66.59
-3 4 -7 1129.59 67.29
-3 4 -7 1292.17 67.49
3 -4 7 1271.17 68.19
3 -4 7 1187.48 65.09
3 -4 7 1170.28 63.79
3 -4 7 1195.88 55.29
8 3 -7 905.51 53.89
8 3 -7 864.91 53.99
-8 -3 7 1053.79 56.59
-8 -3 7 1009.9 56.39
7 3 -7 450.95 34.6
7 3 -7 498.35 37.1
7 3 -7 499.45 35.4
-7 -3 7 476.65 36.2
-7 -3 7 464.75 33.7
-7 -3 7 561.24 41.3
-7 -3 7 435.76 33.9
6 3 -7 3390.06 128.09
6 3 -7 3641.94 128.09
6 3 -7 3365.16 124.89
-6 -3 7 3637.54 129.09
-6 -3 7 3311.57 118.99
-6 -3 7 3646.84 124.69
-6 -3 7 3458.95 126.29
5 3 -7 81.79 15
5 3 -7 81.39 16.6
5 3 -7 83.89 14.8
-5 -3 7 48.9 12.6
-5 -3 7 78.09 13.1
-5 -3 7 65.19 14.8
-5 -3 7 62.99 13.1
-5 -3 7 119.99 21.8
4 3 -7 3080.69 109.39
4 3 -7 3027 106.39
-4 -3 7 2865.11 108.69
-4 -3 7 2961 104.09
-4 -3 7 2998.5 111.29
-4 -3 7 3035.5 116.79
3 3 -7 562.94 35.5
3 3 -7 600.14 30
3 3 -7 600.24 31.5
3 3 -7 578.34 33.2
3 3 -7 585.14 36.8
-3 -3 7 630.74 38.7
-3 -3 7 630.34 33.1
-3 -3 7 604.14 41.1
-3 -3 7 583.74 35.9
2 3 -7 1087.79 52.09
2 3 -7 1151.28 54.99
2 3 -7 981.3 40
2 3 -7 1065.79 49.8
2 3 -7 1074.19 48.8
-2 -3 7 1067.39 58.09
-2 -3 7 1101.69 54.09
-2 -3 7 1123.49 53.19
1 3 -7 55.49 14
1 3 -7 79.19 13.1
1 3 -7 59.19 14.6
1 3 -7 65.59 13.7
1 3 -7 43.4 11.8
-1 -3 7 67.59 15.3
-1 -3 7 48.1 12.1
-1 -3 7 76.49 15.7
0 3 -7 283.27 28.9
0 3 -7 304.77 23.5
0 3 -7 299.17 25.7
0 3 -7 322.37 27.6
0 -3 7 306.97 26.4
0 -3 7 325.27 30.1
0 -3 7 317.17 27
-1 3 -7 11.5 9.1
-1 3 -7 5.9 6.9
-1 3 -7 7.6 5.9
-1 3 -7 4.8 5.6
1 -3 7 5.3 5.8
1 -3 7 8.7 6.4
1 -3 7 13.2 7.7
1 -3 7 16.9 6.6
-2 3 -7 881.61 49.2
-2 3 -7 925.21 58.69
-2 3 -7 908.41 53.69
-2 3 -7 953.8 56.09
2 -3 7 947.71 47.6
2 -3 7 955.8 54.69
2 -3 7 932.21 57.29
8 2 -7 186.88 26.5
8 2 -7 235.28 30.6
8 2 -7 170.28 25.2
-8 -2 7 196.18 28.6
-8 -2 7 197.88 25.7
-8 -2 7 257.07 32.2
-8 -2 7 216.88 30.1
7 2 -7 112.09 19.5
7 2 -7 92.29 20.9
7 2 -7 108.69 19.3
-7 -2 7 80.49 16.7
-7 -2 7 152.38 23.5
-7 -2 7 153.98 29.6
-7 -2 7 104.59 12.7
6 2 -7 35 9.7
6 2 -7 33.7 11.1
6 2 -7 38.9 11.9
-6 -2 7 14.7 7.5
-6 -2 7 34.8 10.5
-6 -2 7 44.8 12.2
-6 -2 7 16.8 9.2
5 2 -7 904.21 48.2
5 2 -7 892.51 47.2
5 2 -7 894.01 49.5
-5 -2 7 990.7 54.29
-5 -2 7 906.51 48.3
-5 -2 7 939.91 50.29
4 2 -7 78.59 15.6
4 2 -7 36.8 10.1
4 2 -7 54.79 12.2
4 2 -7 43.3 11.7
-4 -2 7 53.69 12.5
-4 -2 7 44.6 11.9
-4 -2 7 49.7 12.4
-4 -2 7 42.7 11.6
3 2 -7 2655.73 97.69
3 2 -7 2540.05 81.79
3 2 -7 2683.93 98.79
3 2 -7 2583.94 94.09
3 2 -7 2764.32 100.89
-3 -2 7 2705.93 99.19
-3 -2 7 2614.24 106.59
-3 -2 7 2551.54 100.49
-3 -2 7 2592.74 95.59
2 2 -7 643.04 43.4
2 2 -7 585.54 32
2 2 -7 661.23 37.1
2 2 -7 546.75 36.4
2 2 -7 541.95 35
2 2 -7 588.44 31.1
-2 -2 7 657.23 39.1
-2 -2 7 556.44 35.3
1 2 -7 2380.76 90.99
1 2 -7 2371.06 93.99
1 2 -7 2325.17 91.79
1 2 -7 2327.37 100.29
-1 -2 7 2307.47 90.89
0 2 -7 1214.68 57.79
0 2 -7 1089.49 58.59
0 2 -7 1208.18 58.99
0 2 -7 1171.78 65.79
0 -2 7 1288.17 61.29
0 -2 7 1229.38 59.19
0 -2 7 1181.28 65.29
-1 2 -7 418.66 33
-1 2 -7 403.16 33.3
-1 2 -7 453.85 38.6
-1 2 -7 447.06 32.6
1 -2 7 440.26 32.8
1 -2 7 478.45 35.2
1 -2 7 394.46 36
1 -2 7 431.56 30.5
-2 2 -7 1301.47 67.49
-2 2 -7 1327.97 74.69
-2 2 -7 1398.96 67.09
-2 2 -7 1277.67 68.49
2 -2 7 1366.66 68.69
2 -2 7 1328.57 66.89
2 -2 7 1107.89 94.39
2 -2 7 1337.37 65.79
8 1 -7 1242.68 68.39
8 1 -7 1285.57 66.49
-8 -1 7 1246.78 66.39
-8 -1 7 1187.38 52.99
-8 -1 7 1239.68 66.19
-8 -1 7 1360.76 66.89
-8 -1 7 1291.17 66.99
7 1 -7 1750.72 82.79
7 1 -7 1962.9 82.09
7 1 -7 1842.92 82.79
-7 -1 7 1819.12 82.19
-7 -1 7 1836.12 82.49
-7 -1 7 1874.31 81.39
6 1 -7 267.77 25.8
6 1 -7 307.97 27.1
6 1 -7 267.37 24.3
-6 -1 7 294.77 27.8
-6 -1 7 248.98 24
-6 -1 7 248.18 24.5
-6 -1 7 337.27 28
5 1 -7 2310.17 90.79
5 1 -7 2471.35 127.99
5 1 -7 2356.66 94.49
-5 -1 7 2421.96 92.69
-5 -1 7 2265.77 97.39
-5 -1 7 2243.38 91.69
-5 -1 7 2370.56 94.29
4 1 -7 21.6 7.6
4 1 -7 27.4 9.7
4 1 -7 20.8 8.1
-4 -1 7 26.7 8.3
-4 -1 7 40.3 15.8
-4 -1 7 23.7 8.4
-4 -1 7 17.2 8.4
3 1 -7 765.52 50.49
3 1 -7 717.43 42.7
3 1 -7 873.81 51.39
3 1 -7 910.31 62.69
3 1 -7 866.91 45
-3 -1 7 783.22 45.3
-3 -1 7 767.82 43.1
-3 -1 7 822.02 50.59
2 1 -7 0.6 4.9
2 1 -7 0 3.7
2 1 -7 6.8 5.8
2 1 -7 -4.6 3.7
2 1 -7 2.3 4.4
-2 -1 7 8.6 6.8
-2 -1 7 7.6 7.6
-2 -1 7 3.5 5.6
1 1 -7 150.68 21
1 1 -7 145.49 23.8
1 1 -7 187.68 23.9
1 1 -7 188.68 25.2
-1 -1 7 185.28 24.1
-1 -1 7 155.98 23.1
0 1 -7 301.57 27.1
0 1 -7 299.57 30.7
0 1 -7 259.17 25.1
0 1 -7 331.07 27.6
0 -1 7 271.47 24.7
0 -1 7 237.78 34.5
0 -1 7 263.17 25.2
-1 1 -7 582.04 39.7
-1 1 -7 513.15 37.7
-1 1 -7 470.05 36.9
-1 1 -7 527.35 43.5
1 -1 7 535.25 37
1 -1 7 564.34 39.4
1 -1 7 472.55 41
1 -1 7 537.45 38.4
8 0 -7 232.28 37.2
8 0 -7 157.68 24.7
-8 0 7 176.98 28.9
-8 0 7 197.58 27.5
-8 0 7 239.68 31.6
7 0 -7 87.19 17.7
7 0 -7 61.49 13.6
7 0 -7 51.19 13.6
-7 0 7 107.59 19.7
-7 0 7 92.89 20
-7 0 7 65.59 19.9
-7 0 7 77.49 15.8
6 0 -7 893.81 48.8
6 0 -7 911.11 51.39
6 0 -7 877.21 52.49
-6 0 7 1018.3 54.79
-6 0 7 879.81 48.9
-6 0 7 917.31 53.39
-6 0 7 1049 53.89
5 0 -7 410.36 30.1
5 0 -7 391.16 31.9
5 0 -7 391.26 30.7
-5 0 7 432.96 31
-5 0 7 439.16 32.5
-5 0 7 438.96 34.7
-5 0 7 490.45 34.7
4 0 -7 2233.38 87.99
4 0 -7 2201.48 89.99
4 0 -7 2183.48 85.79
-4 0 7 1930.71 85.49
-4 0 7 2130.99 93.79
-4 0 7 2230.28 90.19
-4 0 7 2075.49 84.89
3 0 -7 19.1 9
3 0 -7 10.6 7.6
3 0 -7 24.6 8.7
3 0 -7 28 11.6
3 0 -7 29 9.7
-3 0 7 23.1 8
-3 0 7 24.3 10.2
-3 0 7 35.3 11.1
2 0 -7 2876.31 110.09
2 0 -7 2717.63 115.19
2 0 -7 2754.22 105.89
2 0 -7 2831.42 105.79
-2 0 7 2776.82 106.99
-2 0 7 2800.72 104.19
1 0 -7 382.76 31.5
1 0 -7 305.07 27.3
1 0 -7 351.36 28.5
1 0 -7 366.56 34.1
-1 0 7 357.06 27.7
-1 0 7 352.66 33.6
-1 0 7 352.26 28.9
0 0 -7 1423.96 76.79
0 0 -7 1353.46 65.79
0 0 -7 1349.07 66.79
0 0 -7 1314.67 68.39
0 0 7 1519.95 69.19
0 0 7 1309.07 74.49
0 0 7 1390.66 65.09
0 0 7 1452.55 73.69
-1 0 -7 467.05 45.6
-1 0 -7 478.15 42.7
-1 0 -7 499.95 37.8
-1 0 -7 499.45 37.2
1 0 7 437.16 35.7
1 0 7 448.56 41.4
1 0 7 549.05 42.5
1 0 7 496.65 36.1
8 -1 -7 474.35 36.7
8 -1 -7 500.15 38.7
8 -1 -7 517.05 42.2
-8 1 7 526.15 41.7
-8 1 7 527.25 38.3
7 -1 -7 926.21 52.59
7 -1 -7 962.3 58.39
7 -1 -7 1023 56.09
-7 1 7 1014.8 59.19
-7 1 7 1035.1 54.99
-7 1 7 1012.8 56.09
-7 1 7 1027.9 58.09
6 -1 -7 1299.67 60.59
6 -1 -7 1227.48 65.49
6 -1 -7 1155.78 60.69
-6 1 7 1252.57 60.19
-6 1 7 1188.38 63.89
-6 1 7 1251.57 64.79
-6 1 7 1210.68 61.69
5 -1 -7 228.08 22.6
5 -1 -7 225.98 21.8
5 -1 -7 166.78 23.8
-5 1 7 231.98 23.2
-5 1 7 228.88 24.9
-5 1 7 247.38 22.6
-5 1 7 211.58 27.3
4 -1 -7 427.76 35.4
4 -1 -7 504.35 37
4 -1 -7 468.85 33.2
4 -1 -7 481.95 32.5
-4 1 7 418.26 33.8
-4 1 7 451.85 35.8
-4 1 7 461.75 33.5
3 -1 -7 136.89 22.3
3 -1 -7 145.99 24.7
3 -1 -7 89.09 15.8
-3 1 7 89.29 17
-3 1 7 122.59 19.5
2 -1 -7 97.19 19.1
2 -1 -7 129.19 20.1
2 -1 -7 93.59 17.3
2 -1 -7 121.99 12.1
2 -1 -7 87.19 16.2
-2 1 7 118.29 20.6
-2 1 7 80.99 17
1 -1 -7 436.86 34.7
1 -1 -7 490.25 37.9
1 -1 -7 414.96 32
1 -1 -7 391.26 29.9
1 -1 -7 422.86 38.3
-1 1 7 417.66 32.1
-1 1 7 424.36 38.3
-1 1 7 418.06 30.9
0 -1 -7 192.38 28.8
0 -1 -7 151.18 28.8
0 -1 -7 258.57 25.3
0 -1 -7 195.78 29
0 1 7 218.18 27.7
0 1 7 129.39 25.3
0 1 7 241.98 29.5
0 1 7 182.88 28
7 -2 -7 141.19 23.4
7 -2 -7 192.08 29.5
7 -2 -7 247.88 24.2
-7 2 7 183.88 25.3
-7 2 7 206.98 34
-7 2 7 220.78 30
-7 2 7 161.58 26.6
6 -2 -7 686.73 47.9
6 -2 -7 615.84 41.2
6 -2 -7 768.72 44
-6 2 7 570.84 75.29
-6 2 7 685.23 41.2
-6 2 7 691.93 65.09
-6 2 7 786.72 58.89
5 -2 -7 855.11 52.89
5 -2 -7 801.82 46.3
5 -2 -7 834.72 45.7
-5 2 7 768.22 44.3
-5 2 7 785.22 51.19
-5 2 7 773.12 46.7
4 -2 -7 378.36 33.8
4 -2 -7 408.16 34.9
4 -2 -7 445.36 31.9
4 -2 -7 357.56 28.6
-4 2 7 378.36 28.9
-4 2 7 372.36 33.8
-4 2 7 432.56 32.2
3 -2 -7 2155.08 99.19
3 -2 -7 2191.38 88.59
3 -2 -7 2215.38 98.49
3 -2 -7 2103.89 87.59
-3 2 7 2095.59 98.49
-3 2 7 2280.07 88.39
-3 2 7 2353.66 93.19
2 -2 -7 3.9 4.9
2 -2 -7 -0.9 2.9
2 -2 -7 7.4 7.4
-2 2 7 13.7 9.3
-2 2 7 10.8 7.3
-2 2 7 6.8 6
1 -2 -7 1269.97 62.49
1 -2 -7 1406.16 77.29
1 -2 -7 1437.16 65.99
1 -2 -7 1106.49 60.49
1 -2 -7 1332.57 72.69
-1 2 7 1355.46 62.69
-1 2 7 1321.47 64.19
-1 2 7 1305.57 75.59
-6 3 7 271.67 34.4
-6 3 7 334.07 29.2
5 -3 -7 144.99 22
5 -3 -7 169.38 23.3
5 -3 -7 182.38 29.7
-5 3 7 169.28 28.2
-5 3 7 129.79 19.9
-5 3 7 186.18 25.2
4 -3 -7 150.88 26
4 -3 -7 197.28 25.6
4 -3 -7 213.68 31
4 -3 -7 216.58 21.4
-4 3 7 209.28 26.7
-4 3 7 169.28 27.7
2 9 -8 1028.4 50.79
2 9 -8 982.2 73.69
-2 -9 8 933.41 50.69
-2 -9 8 950.6 50.79
-2 -9 8 981.4 59.59
1 9 -8 582.84 36
1 9 -8 516.35 37.7
1 9 -8 527.65 55.19
-1 -9 8 507.15 35.6
-1 -9 8 493.45 39.7
-1 -9 8 569.54 36.8
4 8 -8 519.75 37.1
4 8 -8 630.34 33.7
4 8 -8 504.05 35.2
4 8 -8 645.64 53.69
-4 -8 8 629.44 40.3
-4 -8 8 599.04 38.3
-4 -8 8 607.94 47.4
3 8 -8 1058.79 55.59
3 8 -8 1070.29 71.59
3 8 -8 992.3 51.59
-3 -8 8 999.7 60.49
-3 -8 8 1056.59 54.39
2 8 -8 562.84 50.79
-2 -8 8 617.04 44.3
-2 -8 8 585.54 38.4
-2 -8 8 609.34 38.9
1 8 -8 273.17 26.7
1 8 -8 331.77 38.9
-1 -8 8 340.57 31.4
-1 -8 8 246.58 24.2
-1 -8 8 308.07 27.2
0 8 -8 40.5 11
0 8 -8 44.6 18.4
0 8 -8 46.3 13.9
0 -8 8 48.9 14.6
0 -8 8 51.99 13.8
0 -8 8 47.7 14.2
-1 8 -8 348.77 54.59
-1 8 -8 306.27 27.7
1 -8 8 288.27 27.7
1 -8 8 316.77 29.6
5 7 -8 52.39 13.1
5 7 -8 70.19 15.8
5 7 -8 41.3 11.5
-5 -7 8 45.4 14.5
-5 -7 8 57.49 10
-5 -7 8 51.39 13.8
4 7 -8 981.2 64.29
4 7 -8 942.31 50.49
4 7 -8 990.9 43
4 7 -8 888.51 51.79
-4 -7 8 1055.09 55.89
-4 -7 8 1096.79 54.39
-4 -7 8 1073.99 62.29
-4 -7 8 980.6 36.6
3 7 -8 500.45 43.4
3 7 -8 387.46 29.7
-3 -7 8 423.56 36.2
-3 -7 8 455.35 33
2 7 -8 1446.16 68.89
2 7 -8 1388.36 65.19
2 7 -8 1492.05 83.49
-2 -7 8 1540.15 68.79
-2 -7 8 1386.06 72.89
-2 -7 8 1497.15 68.49
1 7 -8 956.3 51.39
1 7 -8 1059.69 68.19
1 7 -8 1002.6 54.89
-1 -7 8 952.4 52.49
-1 -7 8 984.9 57.59
0 7 -8 442.06 35.2
0 7 -8 450.55 45
0 7 -8 432.16 32.6
0 -7 8 455.35 34
0 -7 8 414.86 32.6
0 -7 8 420.56 35.6
-1 7 -8 1861.51 86.09
1 -7 8 1860.91 82.79
1 -7 8 1807.22 82.59
1 -7 8 1720.43 83.29
6 6 -8 2438.16 102.19
-6 -6 8 2404.76 100.09
-6 -6 8 2531.35 112.69
-6 -6 8 2656.43 104.79
-6 -6 8 2461.45 92.69
5 6 -8 2.9 5.1
5 6 -8 -2.2 5.1
-5 -6 8 4.7 6.5
-5 -6 8 -0.5 3
-5 -6 8 1.9 4.9
-5 -6 8 3.2 6.8
4 6 -8 1337.47 70.09
4 6 -8 1280.97 49.9
4 6 -8 1310.87 61.69
4 6 -8 1336.67 65.09
-4 -6 8 1234.88 48.8
-4 -6 8 1256.27 61.79
-4 -6 8 1291.07 64.09
-4 -6 8 1303.57 69.29
3 6 -8 88.09 20.5
3 6 -8 96.29 16.9
3 6 -8 110.69 9.6
3 6 -8 118.59 19.5
-3 -6 8 110.69 18.4
-3 -6 8 91.89 17.9
-3 -6 8 103.89 21.2
2 6 -8 448.76 34.4
2 6 -8 497.75 33.9
2 6 -8 495.25 40.7
-2 -6 8 495.85 34.5
-2 -6 8 477.05 38.1
-2 -6 8 493.75 35.2
1 6 -8 0.2 6.3
1 6 -8 7.3 7.1
1 6 -8 4.5 3.4
1 6 -8 -0.8 4.6
-1 -6 8 7.1 6.7
-1 -6 8 0.6 5.1
-1 -6 8 8.8 8.2
0 6 -8 309.37 19.2
0 6 -8 249.88 24.9
0 6 -8 332.67 36.3
0 6 -8 324.77 29.9
0 -6 8 334.97 31.2
0 -6 8 300.17 27.3
0 -6 8 313.57 28.2
-1 6 -8 48.4 16.8
-1 6 -8 92.59 18.3
-1 6 -8 69.09 12.1
-1 6 -8 52.09 14.8
1 -6 8 88.09 19.8
1 -6 8 78.79 17.2
1 -6 8 65.59 15.3
7 5 -8 362.56 32.7
-7 -5 8 408.26 30.1
-7 -5 8 339.87 34.9
-7 -5 8 337.97 31.2
-7 -5 8 358.26 32.4
6 5 -8 11.2 8.5
6 5 -8 18.9 8.5
-6 -5 8 16 9.7
-6 -5 8 13.4 8.5
-6 -5 8 27.8 8.4
-6 -5 8 4.9 6.3
5 5 -8 1439.86 68.89
5 5 -8 1393.46 59.39
5 5 -8 1426.96 66.29
-5 -5 8 1504.65 67.99
-5 -5 8 1441.76 68.79
-5 -5 8 1428.46 59.29
-5 -5 8 1217.58 78.89
4 5 -8 56.19 13
4 5 -8 17 6.9
4 5 -8 27.7 10.2
4 5 -8 39.2 12.8
-4 -5 8 36.8 11.8
-4 -5 8 30.4 11.3
-4 -5 8 42.5 9.3
-4 -5 8 36.1 10.6
3 5 -8 2573.94 101.09
3 5 -8 2784.62 106.59
3 5 -8 2534.75 102.89
-3 -5 8 2697.33 111.29
-3 -5 8 2630.14 103.79
-3 -5 8 2592.64 101.89
2 5 -8 406.96 30.8
2 5 -8 414.86 24.7
2 5 -8 435.86 33
2 5 -8 445.36 35
-2 -5 8 429.56 32.3
-2 -5 8 432.36 36.1
-2 -5 8 442.66 33.3
1 5 -8 1757.12 79.29
1 5 -8 1762.42 76.99
1 5 -8 1758.72 85.69
1 5 -8 1749.43 66.29
-1 -5 8 1782.42 77.59
-1 -5 8 1655.73 76.69
0 5 -8 1271.07 54.99
0 5 -8 1346.27 64.89
0 5 -8 1428.06 77.09
0 5 -8 1174.28 64.29
0 -5 8 1285.97 65.19
0 -5 8 1260.47 69.19
0 -5 8 1300.17 64.59
-1 5 -8 530.25 38.6
-1 5 -8 522.05 31.8
-1 5 -8 532.45 40.7
-1 5 -8 546.05 42.8
1 -5 8 506.45 37.5
1 -5 8 527.05 41.1
1 -5 8 423.16 35.3
7 4 -8 1733.23 77.59
7 4 -8 1813.92 81.99
7 4 -8 1543.05 74.99
-7 -4 8 1700.23 78.49
-7 -4 8 1567.14 73.59
-7 -4 8 1589.64 73.19
-7 -4 8 1851.01 104.89
-7 -4 8 1656.53 79.29
6 4 -8 281.97 25.7
6 4 -8 272.27 27.1
6 4 -8 257.57 23.9
-6 -4 8 285.47 27.3
-6 -4 8 262.57 23
-6 -4 8 305.37 30.7
-6 -4 8 303.17 27.4
-6 -4 8 262.57 23
5 4 -8 1392.36 66.39
5 4 -8 1289.17 62.19
5 4 -8 1323.17 59.29
-5 -4 8 1279.17 57.19
-5 -4 8 1200.58 63.09
-5 -4 8 1265.57 62.89
4 4 -8 9.6 7.1
4 4 -8 33.5 10.2
4 4 -8 14.9 8.2
4 4 -8 16.7 6.5
4 4 -8 5.8 4.9
-4 -4 8 21 10.2
-4 -4 8 19.8 7
-4 -4 8 15.8 9.5
3 4 -8 542.05 33.9
3 4 -8 536.05 31.8
3 4 -8 590.94 38.7
3 4 -8 589.24 37.6
-3 -4 8 481.95 35.7
2 4 -8 27.1 9.6
2 4 -8 40.5 9.6
2 4 -8 37 12
2 4 -8 37 11.5
-2 -4 8 50.49 13.6
-2 -4 8 58.29 13.8
1 4 -8 274.57 27.2
1 4 -8 332.47 32.3
1 4 -8 299.67 23.2
1 4 -8 266.07 26
1 4 -8 291.47 26.2
-1 -4 8 276.07 26.2
-1 -4 8 260.57 28.3
-1 -4 8 252.17 24.9
0 4 -8 774.62 46.6
0 4 -8 737.03 40.9
0 4 -8 748.13 47.8
0 4 -8 718.23 50.89
0 -4 8 712.83 49.7
0 -4 8 750.32 45.8
0 -4 8 726.23 46.4
-1 4 -8 765.62 48
-1 4 -8 728.93 42
-1 4 -8 688.43 47.6
-1 4 -8 735.93 51.79
1 -4 8 728.53 46.5
1 -4 8 671.53 48.8
1 -4 8 747.43 48.2
8 3 -8 226.58 31.5
8 3 -8 205.28 28.9
8 3 -8 227.28 30.5
-8 -3 8 213.08 30.6
-8 -3 8 258.57 38.8
-8 -3 8 218.68 31
-8 -3 8 177.48 27.5
7 3 -8 276.67 27.2
7 3 -8 307.97 41
7 3 -8 294.67 27.3
-7 -3 8 316.37 28.4
-7 -3 8 318.57 27.7
-7 -3 8 283.07 28.2
-7 -3 8 225.38 19.3
-7 -3 8 286.17 29.9
6 3 -8 640.94 43.6
6 3 -8 677.93 42.2
6 3 -8 631.44 41
-6 -3 8 696.03 41.4
-6 -3 8 732.03 49
-6 -3 8 662.03 42.6
-6 -3 8 681.83 48
5 3 -8 288.47 26.3
5 3 -8 326.17 28.7
-5 -3 8 363.96 26.8
-5 -3 8 346.37 29.5
-5 -3 8 303.97 30.1
4 3 -8 2754.82 104.89
4 3 -8 2497.45 93.69
4 3 -8 2746.43 103.09
4 3 -8 2532.45 98.49
-4 -3 8 2603.34 104.69
-4 -3 8 2611.34 102.99
-4 -3 8 2719.03 98.49
3 3 -8 -0.3 2.1
3 3 -8 0.4 3.8
3 3 -8 -0.6 3.6
3 3 -8 -2.4 3.3
3 3 -8 2.4 6.9
-3 -3 8 -1.1 4.8
-3 -3 8 2.3 5.6
2 3 -8 2374.76 92.09
2 3 -8 2404.96 107.69
2 3 -8 2457.95 107.39
2 3 -8 2482.65 98.49
2 3 -8 2549.04 95.09
-2 -3 8 2466.45 107.89
-2 -3 8 2623.04 99.79
1 3 -8 592.34 42.5
1 3 -8 525.55 37.2
1 3 -8 460.75 40.2
1 3 -8 551.94 37.8
-1 -3 8 551.14 38.3
-1 -3 8 563.84 43.3
-1 -3 8 505.95 36.3
0 3 -8 1274.77 67.09
0 3 -8 1389.26 63.59
0 3 -8 1304.87 72.59
0 -3 8 1277.47 72.09
0 -3 8 1300.77 65.29
0 -3 8 1304.67 66.79
-1 3 -8 206.68 28.7
-1 3 -8 236.88 29.9
-1 3 -8 254.97 33.6
1 -3 8 224.58 29.6
1 -3 8 299.87 40.2
1 -3 8 200.18 30.1
8 2 -8 364.36 34.3
8 2 -8 454.55 36.1
8 2 -8 376.76 34.6
-8 -2 8 408.06 23.6
-8 -2 8 350.66 33.5
-8 -2 8 503.85 43.4
-8 -2 8 433.96 35.4
7 2 -8 867.01 53.09
7 2 -8 905.11 53.99
7 2 -8 861.01 50.79
-7 -2 8 938.61 57.29
-7 -2 8 915.01 52.49
-7 -2 8 887.61 51.89
-7 -2 8 940.41 54.79
6 2 -8 690.53 44.8
6 2 -8 690.33 43.7
-6 -2 8 674.83 44.3
-6 -2 8 649.34 46.1
-6 -2 8 592.64 40.1
-6 -2 8 703.43 43.9
5 2 -8 101.69 18.1
5 2 -8 87.19 17.5
5 2 -8 116.29 22
5 2 -8 60.59 15.2
-5 -2 8 61.39 14.8
-5 -2 8 95.99 19.2
-5 -2 8 78.29 15.9
-5 -2 8 99.29 16.6
4 2 -8 246.58 23.7
4 2 -8 211.28 26.4
4 2 -8 216.68 21.4
4 2 -8 257.17 23.8
-4 -2 8 238.78 22.1
-4 -2 8 199.68 25.3
-4 -2 8 243.08 30.9
3 2 -8 320.17 27.8
3 2 -8 341.47 28.4
3 2 -8 361.36 28.5
3 2 -8 334.47 25.3
-3 -2 8 302.67 31.3
-3 -2 8 353.26 29.7
-3 -2 8 320.77 27.3
2 2 -8 14.9 5.9
2 2 -8 14 8
2 2 -8 25.6 9.6
2 2 -8 25.9 10.6
2 2 -8 14.8 7.1
2 2 -8 22.1 9.3
-2 -2 8 22.9 9.6
-2 -2 8 19.4 9.7
1 2 -8 1114.59 64.39
1 2 -8 1004 55.09
1 2 -8 920.41 54.39
1 2 -8 1044.3 54.89
-1 -2 8 923.21 54.39
-1 -2 8 1117.59 56.39
-1 -2 8 945.01 60.49
0 2 -8 138.29 22.9
0 2 -8 169.78 25.8
0 2 -8 174.58 30.7
0 2 -8 155.68 22.8
0 -2 8 175.18 26.9
0 -2 8 144.09 22.4
8 1 -8 635.74 46.6
8 1 -8 631.74 43.7
8 1 -8 564.74 43.2
-8 -1 8 581.04 44.3
-8 -1 8 628.94 45
-8 -1 8 637.84 45
-8 -1 8 537.85 41
7 1 -8 223.18 29.7
7 1 -8 247.08 33.2
-7 -1 8 250.97 31.4
-7 -1 8 233.88 29.2
-7 -1 8 214.78 30.4
-7 -1 8 212.08 28.5
6 1 -8 1016.2 56.89
6 1 -8 1043.8 57.29
6 1 -8 937.11 52.59
-6 -1 8 1098.69 56.69
-6 -1 8 975.6 54.79
-6 -1 8 932.21 57.69
-6 -1 8 1002 56.09
5 1 -8 1473.85 71.89
5 1 -8 1508.45 72.19
5 1 -8 1528.75 70.19
-5 -1 8 1542.15 77.69
-5 -1 8 1506.25 70.99
-5 -1 8 1625.24 72.39
-5 -1 8 1492.75 72.39
4 1 -8 710.23 43.7
4 1 -8 641.24 41.4
4 1 -8 697.53 41.9
-4 -1 8 620.14 40.5
-4 -1 8 609.94 39.9
-4 -1 8 589.84 41.2
-4 -1 8 608.64 45.6
3 1 -8 2391.16 98.59
3 1 -8 2456.55 98.19
3 1 -8 2297.67 95.99
3 1 -8 2342.27 96.09
3 1 -8 2506.65 108.19
-3 -1 8 2326.27 106.19
-3 -1 8 2487.65 97.19
-3 -1 8 2454.65 99.69
2 1 -8 14 9
2 1 -8 8.7 4.8
2 1 -8 1.1 5.3
2 1 -8 19.9 10
2 1 -8 6.8 6.8
2 1 -8 5.2 4.9
-2 -1 8 5.8 7
-2 -1 8 5 6.5
-2 -1 8 5.1 7
1 1 -8 1188.88 69.99
1 1 -8 1030.8 58.89
1 1 -8 1110.19 59.39
1 1 -8 1138.39 61.19
-1 -1 8 1147.59 58.99
-1 -1 8 1180.78 74.39
-1 -1 8 1170.98 61.49
0 1 -8 14.1 8.4
0 1 -8 0.6 5.4
0 1 -8 3.1 5.5
0 -1 8 11.1 8.5
0 -1 8 1 5.6
0 -1 8 2.6 6.5
7 0 -8 157.08 25.5
7 0 -8 168.28 31.3
7 0 -8 212.38 29.3
-7 0 8 191.58 26.9
-7 0 8 130.99 22.3
-7 0 8 170.68 28.6
-7 0 8 195.68 28.1
6 0 -8 315.07 28.1
6 0 -8 298.77 28.6
6 0 -8 305.67 29.8
-6 0 8 307.27 27.8
-6 0 8 289.37 28.5
-6 0 8 306.37 30.8
-6 0 8 293.47 28.5
5 0 -8 54.49 13.6
5 0 -8 42.4 12.5
5 0 -8 33.6 11.1
-5 0 8 52.89 15.4
-5 0 8 47.4 13.2
-5 0 8 63.29 15.1
-5 0 8 79.49 16.6
4 0 -8 499.35 38
4 0 -8 491.35 40.8
4 0 -8 500.75 35.9
4 0 -8 508.65 36.9
-4 0 8 533.95 38.3
-4 0 8 402.56 37.5
-4 0 8 527.15 36.4
3 0 -8 71.69 18.7
3 0 -8 65.59 15.4
3 0 -8 60.69 14.3
3 0 -8 66.29 15.4
-3 0 8 70.19 15.7
-3 0 8 85.59 19.8
-3 0 8 99.89 19
2 0 -8 1069.39 59.39
2 0 -8 927.11 61.59
2 0 -8 1075.19 57.39
2 0 -8 1018.8 55.29
2 0 -8 956.9 41.2
-2 0 8 1000.4 55.99
-2 0 8 1038.4 73.69
-2 0 8 1007.8 54.09
1 0 -8 40.5 13.9
1 0 -8 49.4 13.2
1 0 -8 50.99 14.8
-1 0 8 34.9 13
-1 0 8 44.2 12.8
-1 0 8 39.2 12.7
6 -1 -8 476.25 40
6 -1 -8 530.55 37
-6 1 8 527.05 38.8
-6 1 8 459.45 35
-6 1 8 481.05 39.1
-6 1 8 417.26 36.9
5 -1 -8 1114.99 64.89
5 -1 -8 1097.99 57.99
5 -1 -8 1117.69 71.69
-5 1 8 1132.09 65.29
-5 1 8 1042 85.09
-5 1 8 1079.09 56.99
-5 1 8 1144.79 68.19
4 -1 -8 1111.79 58.59
4 -1 -8 1174.28 67.79
4 -1 -8 1377.06 90.99
4 -1 -8 1190.08 69.89
-4 1 8 1054.09 62.69
-4 1 8 1181.38 58.99
-4 1 8 1121.69 66.59
3 -1 -8 320.97 27.9
3 -1 -8 276.07 26.8
3 -1 -8 315.87 32.9
3 -1 -8 302.87 39.8
-3 1 8 313.57 29
-3 1 8 252.77 25.1
3 8 -9 2162.88 107.69
3 8 -9 2117.09 87.89
-3 -8 9 2056.79 89.29
-3 -8 9 1879.51 87.59
-3 -8 9 1977.1 97.09
2 8 -9 391.76 42.5
2 8 -9 364.16 32.6
2 8 -9 411.86 32.2
-2 -8 9 446.56 34.5
-2 -8 9 371.36 32
5 7 -9 734.23 36.9
5 7 -9 825.52 49.99
5 7 -9 735.53 46.2
-5 -7 9 761.42 47.3
-5 -7 9 662.63 46.3
-5 -7 9 716.13 52.79
-5 -7 9 738.03 33.8
4 7 -9 160.98 24.1
4 7 -9 110.59 20.9
4 7 -9 119.49 26.1
-4 -7 9 78.09 17.2
-4 -7 9 105.39 22.4
3 7 -9 89.89 19
3 7 -9 122.39 25.6
-3 -7 9 73.79 16.8
-3 -7 9 84.59 18.8
-3 -7 9 111.99 20.1
2 7 -9 190.08 28.4
2 7 -9 154.48 29.1
2 7 -9 176.68 37.8
-2 -7 9 193.88 27.8
-2 -7 9 227.18 32.5
1 7 -9 243.88 32.8
1 7 -9 163.58 30.2
1 7 -9 197.28 35.8
-1 -7 9 159.18 28.1
-1 -7 9 139.89 25.7
-1 -7 9 136.89 23.1
6 6 -9 838.92 50.99
6 6 -9 857.61 54.09
-6 -6 9 928.31 61.29
-6 -6 9 851.01 53.59
-6 -6 9 897.11 45.5
-6 -6 9 944.31 54.39
5 6 -9 455.45 27.1
5 6 -9 417.56 33.5
5 6 -9 379.06 33.8
-5 -6 9 483.75 37.2
-5 -6 9 418.76 26
-5 -6 9 407.46 38.2
-5 -6 9 405.36 33.6
4 6 -9 2321.37 100.19
4 6 -9 2315.17 96.29
4 6 -9 2415.86 100.59
4 6 -9 2302.47 81.79
-4 -6 9 2203.98 97.89
-4 -6 9 2447.35 99.29
-4 -6 9 2271.57 106.09
3 6 -9 3.5 3.5
3 6 -9 10.6 9.3
3 6 -9 9.8 7.8
3 6 -9 4.7 7.6
-3 -6 9 2.2 5.7
-3 -6 9 5.8 6.5
-3 -6 9 34.4 11.4
2 6 -9 1553.94 71.89
2 6 -9 1303.07 70.49
2 6 -9 1469.95 55.49
2 6 -9 1537.05 79.49
-2 -6 9 1473.85 78.29
-2 -6 9 1448.96 72.09
-2 -6 9 1388.56 70.09
1 6 -9 295.07 36.4
1 6 -9 220.98 28.9
1 6 -9 201.58 32.9
1 6 -9 254.87 18.5
-1 -6 9 253.77 31.6
-1 -6 9 288.27 28.2
-1 -6 9 305.67 41.4
0 6 -9 728.83 56.19
0 6 -9 662.93 45.1
0 6 -9 667.13 34.9
0 -6 9 615.64 44.7
0 -6 9 654.83 45.1
6 5 -9 404.36 34.6
6 5 -9 355.26 27.8
6 5 -9 294.67 28.6
-6 -5 9 354.16 27
-6 -5 9 374.16 33.3
-6 -5 9 342.77 34.7
-6 -5 9 325.17 30.5
5 5 -9 166.08 25.9
5 5 -9 235.98 29.5
5 5 -9 215.48 20
-5 -5 9 148.39 27.4
-5 -5 9 216.68 19.2
-5 -5 9 212.98 29.7
-5 -5 9 236.98 31.8
4 5 -9 7.9 7.5
4 5 -9 4.1 6.6
4 5 -9 11.4 6.3
4 5 -9 5 7.4
-4 -5 9 5.3 8.1
-4 -5 9 16.3 9
-4 -5 9 5.9 6.7
3 5 -9 494.95 35.8
3 5 -9 524.85 31.1
3 5 -9 426.46 34.2
3 5 -9 602.54 40.9
-3 -5 9 528.35 38.1
-3 -5 9 487.05 41.2
-3 -5 9 475.15 37.4
2 5 -9 0.9 7.1
2 5 -9 2.6 4.8
2 5 -9 8.6 8.2
2 5 -9 1.6 4.2
-2 -5 9 7.2 8.1
-2 -5 9 10.8 7
-2 -5 9 2.3 5.8
1 5 -9 1348.17 71.39
1 5 -9 1315.67 74.79
1 5 -9 1303.27 68.09
1 5 -9 1423.16 60.79
-1 -5 9 1429.96 77.59
-1 -5 9 1411.56 69.89
-1 -5 9 1436.46 71.69
0 5 -9 253.17 39.2
0 5 -9 322.47 29.3
0 5 -9 271.07 36.8
0 5 -9 295.87 36.1
0 -5 9 196.98 29
0 -5 9 272.87 36
0 -5 9 266.47 37.6
7 4 -9 406.26 33.4
7 4 -9 382.66 33.1
7 4 -9 400.96 35.5
-7 -4 9 389.36 37.7
-7 -4 9 391.16 35.3
-7 -4 9 395.76 31.6
-7 -4 9 393.26 34.3
6 4 -9 1156.48 59.09
6 4 -9 962.4 65.69
6 4 -9 1285.47 63.89
-6 -4 9 1141.39 56.49
-6 -4 9 1102.69 62.59
-6 -4 9 1257.57 72.59
-6 -4 9 1100.19 61.19
5 4 -9 1378.36 100.79
5 4 -9 1278.07 64.79
5 4 -9 1262.27 57.29
5 4 -9 1379.66 62.59
-5 -4 9 1245.48 71.69
-5 -4 9 1437.86 76.39
-5 -4 9 1236.28 58.69
-5 -4 9 1256.47 65.79
4 4 -9 324.07 28.7
4 4 -9 290.37 28.7
4 4 -9 289.07 44.9
4 4 -9 282.87 19.4
-4 -4 9 233.58 30.8
-4 -4 9 310.87 28.8
3 4 -9 2260.37 96.89
3 4 -9 2256.87 86.49
3 4 -9 2157.68 93.89
3 4 -9 2322.27 89.09
-3 -4 9 2142.99 102.59
-3 -4 9 2284.17 97.89
-3 -4 9 2323.97 96.49
2 4 -9 6.8 6.5
2 4 -9 -0.2 6.3
2 4 -9 3 5.7
-2 -4 9 3.1 5.4
-2 -4 9 5.6 7
-2 -4 9 2.1 5.2
1 4 -9 830.82 45.6
1 4 -9 780.32 50.59
1 4 -9 785.32 49.4
1 4 -9 773.62 49.7
1 4 -9 684.13 54.09
-1 -4 9 716.23 60.69
-1 -4 9 710.23 47
-1 -4 9 832.82 51.49
0 4 -9 2.4 7.2
0 4 -9 -3.6 3
0 -4 9 -0.3 3.8
0 -4 9 9.9 8
7 3 -9 82.39 20.2
7 3 -9 71.89 16.4
7 3 -9 81.99 19.1
-7 -3 9 40.7 13.2
-7 -3 9 60.89 17.2
-7 -3 9 55.19 15.5
-7 -3 9 62.69 15.9
6 3 -9 172.68 25.5
6 3 -9 169.78 25.9
6 3 -9 208.18 29.8
-6 -3 9 163.48 22.5
-6 -3 9 198.08 30.1
-6 -3 9 196.88 36.5
-6 -3 9 200.08 28.3
5 3 -9 45.3 13.2
5 3 -9 37.8 11.1
5 3 -9 35.5 11.3
5 3 -9 22 10.6
-5 -3 9 29.3 12.6
-5 -3 9 28.2 10.9
-5 -3 9 70.09 17.8
-5 -3 9 43.3 12.5
4 3 -9 336.27 29.8
4 3 -9 348.67 30.7
4 3 -9 288.97 26.4
4 3 -9 304.07 23.5
-4 -3 9 306.27 29
-4 -3 9 377.26 35.7
-4 -3 9 283.27 35.3
3 3 -9 89.29 14.6
3 3 -9 81.69 15.5
3 3 -9 115.69 22
3 3 -9 119.09 21
3 3 -9 94.99 10.5
-3 -3 9 90.69 18.7
-3 -3 9 60.79 17.4
-3 -3 9 85.29 22.1
2 3 -9 1660.03 87.89
2 3 -9 1735.43 75.59
2 3 -9 1594.54 78.79
2 3 -9 1679.73 78.39
2 3 -9 1551.14 68.39
-2 -3 9 1632.34 79.59
-2 -3 9 1687.93 81.99
1 3 -9 65.69 15.5
1 3 -9 43.2 13.7
1 3 -9 41.7 12.9
1 3 -9 37.5 13.3
1 3 -9 49 15.4
-1 -3 9 45.6 13.3
-1 -3 9 31 11.7
-1 -3 9 34 13.7
7 2 -9 1635.44 80.89
7 2 -9 1665.03 78.29
7 2 -9 1467.65 77.29
-7 -2 9 1685.53 81.59
-7 -2 9 1525.25 80.19
-7 -2 9 1595.74 83.79
-7 -2 9 1577.94 77.39
6 2 -9 489.85 36.8
6 2 -9 508.45 39.1
6 2 -9 470.45 36.9
-6 -2 9 410.86 33.5
-6 -2 9 469.95 37.8
-6 -2 9 429.06 40.1
-6 -2 9 392.16 33.9
5 2 -9 970.4 55.79
5 2 -9 1023.3 58.99
-5 -2 9 970.3 54.29
-5 -2 9 1012.1 63.19
-5 -2 9 1041.6 57.59
-5 -2 9 1023 59.39
4 2 -9 1457.15 69.39
4 2 -9 1226.08 61.79
4 2 -9 1402.56 68.99
4 2 -9 1474.25 69.69
-4 -2 9 1282.37 66.79
-4 -2 9 1246.78 73.89
-4 -2 9 1310.37 68.59
3 2 -9 255.77 32
3 2 -9 263.97 33.2
3 2 -9 185.88 20
3 2 -9 224.88 30.1
-3 -2 9 310.57 37.1
-3 -2 9 276.27 27.1
2 2 -9 460.15 36.2
2 2 -9 399.96 40.1
2 2 -9 488.65 29.2
2 2 -9 478.75 37.3
2 2 -9 438.06 36.9
-2 -2 9 481.45 38.2
-2 -2 9 507.75 43.9
-2 -2 9 499.65 37.5
6 1 -9 167.18 29.1
6 1 -9 149.49 24
6 1 -9 173.68 27.3
-6 -1 9 193.78 28.5
-6 -1 9 149.88 25.6
5 1 -9 146.59 24.4
5 1 -9 151.08 23.8
5 1 -9 140.29 23.4
-5 -1 9 115.09 20.8
-5 -1 9 161.48 24.4
-5 -1 9 124.29 23.2
4 1 -9 765.12 47.6
4 1 -9 732.53 47.1
4 1 -9 654.23 45.9
-4 -1 9 770.52 47.8
-4 -1 9 736.73 54.99
-4 -1 9 646.44 45.9
3 1 -9 1148.69 70.89
3 1 -9 1020 59.89
3 1 -9 1225.48 65.39
3 1 -9 1176.88 63.89
-3 -1 9 1267.27 63.79
-3 -1 9 1121.49 69.99
4 5 -10 706.73 47.4
4 5 -10 825.62 43.4
4 5 -10 673.73 39.7
-4 -5 10 723.23 49.1
-4 -5 10 687.83 48.7
-4 -5 10 653.73 51.99
3 5 -10 194.78 27.9
3 5 -10 166.88 25.1
3 5 -10 151.18 26.2
3 5 -10 191.28 30
-3 -5 10 185.98 27.9
-3 -5 10 116.29 23.7
-3 -5 10 201.88 35.7
4 4 -10 815.02 52.99
4 4 -10 841.92 48.5
4 4 -10 815.72 51.59
-4 -4 10 922.71 56.59
-4 -4 10 753.42 51.29
-4 -4 10 785.22 57.79
