#------------------------------------------------------------------------------
#$Date: 2022-09-19 02:08:58 +0300 (Mon, 19 Sep 2022) $
#$Revision: 277972 $
#$URL: file:///home/coder/svn-repositories/cod/cif/7/71/12/7711288.cif $
#------------------------------------------------------------------------------
#
# This file is available in the Crystallography Open Database (COD),
# http://www.crystallography.net/
#
# All data on this site have been placed in the public domain by the
# contributors.
#
data_7711288
loop_
_publ_author_name
'Paskaruk, Katarina'
'Emslie, David J. H.'
'Britten, James F.'
_publ_section_title
;
 Coordination chemistry and structural rearrangements of the Me2PCH2AlMe2
 ambiphilic ligand
;
_journal_name_full               'Dalton Transactions'
_journal_paper_doi               10.1039/D2DT02519A
_journal_year                    2022
_chemical_formula_moiety         'C8 H22 Al2 Cl2 P2'
_chemical_formula_sum            'C8 H22 Al2 Cl2 P2'
_chemical_formula_weight         305.05
_space_group_crystal_system      triclinic
_space_group_IT_number           2
_space_group_name_Hall           '-P 1'
_space_group_name_H-M_alt        'P -1'
_atom_sites_solution_hydrogens   geom
_atom_sites_solution_primary     dual
_audit_creation_date             2022-05-19
_audit_creation_method
;
Olex2 1.3
(compiled 2020.11.12 svn.r5f609507 for OlexSys, GUI svn.r6272)
;
_audit_update_record
;
2022-07-05 deposited with the CCDC.	2022-09-14 downloaded from the CCDC.
;
_cell_angle_alpha                76.9990(10)
_cell_angle_beta                 70.5430(10)
_cell_angle_gamma                66.6410(10)
_cell_formula_units_Z            1
_cell_length_a                   6.5589(2)
_cell_length_b                   7.5892(2)
_cell_length_c                   9.2977(2)
_cell_measurement_reflns_used    3959
_cell_measurement_temperature    100.0(1)
_cell_measurement_theta_max      31.66
_cell_measurement_theta_min      2.34
_cell_volume                     398.300(19)
_computing_cell_refinement       'SAINT V8.38A (Bruker, 2018)'
_computing_data_reduction        'SAINT V8.38A (Bruker, 2018)'
_computing_molecular_graphics    'Olex2 1.3 (Dolomanov et al., 2009)'
_computing_publication_material  'Olex2 1.3 (Dolomanov et al., 2009)'
_computing_structure_refinement  'SHELXL n/a (Sheldrick, 2015)'
_computing_structure_solution    'XT  (Sheldrick, 2015)'
_diffrn_ambient_temperature      100.00(10)
_diffrn_measured_fraction_theta_full 0.997
_diffrn_measured_fraction_theta_max 0.928
_diffrn_measurement_device_type  'Bruker APEX-II CCD'
_diffrn_measurement_method       '\f and \w scans'
_diffrn_radiation_type           MoK\a
_diffrn_radiation_wavelength     0.71073
_diffrn_reflns_av_unetI/netI     0.0255
_diffrn_reflns_Laue_measured_fraction_full 0.997
_diffrn_reflns_Laue_measured_fraction_max 0.928
_diffrn_reflns_limit_h_max       9
_diffrn_reflns_limit_h_min       -9
_diffrn_reflns_limit_k_max       11
_diffrn_reflns_limit_k_min       -11
_diffrn_reflns_limit_l_max       14
_diffrn_reflns_limit_l_min       0
_diffrn_reflns_number            8302
_diffrn_reflns_point_group_measured_fraction_full 0.997
_diffrn_reflns_point_group_measured_fraction_max 0.928
_diffrn_reflns_theta_full        25.242
_diffrn_reflns_theta_max         32.740
_diffrn_reflns_theta_min         2.941
_diffrn_source_current           30.0
_diffrn_source_power             1.5
_diffrn_source_voltage           50.0
_diffrn_standards_number         0
_exptl_absorpt_coefficient_mu    0.688
_exptl_absorpt_correction_T_max  0.901
_exptl_absorpt_correction_T_min  0.798
_exptl_absorpt_correction_type   multi-scan
_exptl_absorpt_process_details
;
 TWINABS-2012/1 (Bruker,2012) was used for absorption correction.
 
For component 1:
 wR2(int) was 0.1381 before and 0.0413 after correction.
 
For component 2:
 wR2(int) was 0.1090 before and 0.0453 after correction.
 
For component 3:
 wR2(int) was 0.1324 before and 0.0446 after correction.
 The Ratio of minimum to maximum transmission is 0.89.

Final HKLF 4 output contains 58476 reflections, Rint = 0.0371
 (36614 with I > 3sig(I), Rint = 0.0313)
;
_exptl_crystal_colour            colourless
_exptl_crystal_colour_primary    colourless
_exptl_crystal_density_diffrn    1.272
_exptl_crystal_description       plate
_exptl_crystal_F_000             160
_exptl_crystal_size_max          0.15
_exptl_crystal_size_mid          0.15
_exptl_crystal_size_min          0.08
_refine_diff_density_max         0.550
_refine_diff_density_min         -0.356
_refine_diff_density_rms         0.073
_refine_ls_extinction_method     none
_refine_ls_goodness_of_fit_ref   1.061
_refine_ls_hydrogen_treatment    constr
_refine_ls_matrix_type           full
_refine_ls_number_parameters     69
_refine_ls_number_reflns         8302
_refine_ls_number_restraints     0
_refine_ls_restrained_S_all      1.061
_refine_ls_R_factor_all          0.0407
_refine_ls_R_factor_gt           0.0318
_refine_ls_shift/su_max          0.000
_refine_ls_shift/su_mean         0.000
_refine_ls_structure_factor_coef Fsqd
_refine_ls_weighting_details
'w=1/[\s^2^(Fo^2^)+(0.0408P)^2^+0.0595P] where P=(Fo^2^+2Fc^2^)/3'
_refine_ls_weighting_scheme      calc
_refine_ls_wR_factor_gt          0.0783
_refine_ls_wR_factor_ref         0.0822
_reflns_Friedel_coverage         0.000
_reflns_number_gt                7151
_reflns_number_total             8302
_reflns_threshold_expression     'I > 2\s(I)'
_cod_data_source_file            d2dt02519a2.cif
_cod_data_source_block           PAlMeCl
_cod_database_code               7711288
_shelx_shelxl_version_number     2018/3
_shelx_space_group_comment
;
The symmetry employed for this shelxl refinement is uniquely defined
by the following loop, which should always be used as a source of
symmetry information in preference to the above space-group names.
They are only intended as comments.
;
_shelx_estimated_absorpt_t_max   0.947
_shelx_estimated_absorpt_t_min   0.904
_olex2_refinement_description
;
1. Twinned data refinement
 Scales: 0.45369
 0.26294 0.28337
2. Fixed Uiso
 At 1.2 times of:
  All C(H,H) groups
 At 1.5 times of:
  All C(H,H,H) groups
3.a Secondary CH2 refined with riding coordinates:
 C3(H3A,H3B)
3.b Idealised Me refined as rotating group:
 C1(H1A,H1B,H1C), C2(H2A,H2B,H2C), C4(H4A,H4B,H4C)
;
_shelx_res_file
;
TITL kp1_0m_4_a.res in P-1
    kp1_0m_4.res
    created by SHELXL-2018/3 at 15:56:20 on 17-May-2022
REM Old TITL KP1_0m_4 in P-1
REM SHELXT solution in P-1
REM R1 0.070, Rweak 0.005, Alpha 0.027, Orientation as input
REM Formula found by SHELXT: C1 Al Cl2
CELL 0.71073 6.5589 7.5892 9.2977 76.999 70.543 66.641
ZERR 1 0.0002 0.0002 0.0002 0.001 0.001 0.001
LATT 1
SFAC C H Al Cl P
UNIT 8 22 2 2 2

L.S. 10
PLAN  6
SIZE 0.08 0.15 0.15
TEMP -173.15(10)
CONF
BOND $H
list 4
MORE -1
fmap 2
acta
REM <olex2.extras>
REM <HklSrc "%.\\KP1_0m_5.hkl">
REM </olex2.extras>

WGHT    0.040800    0.059500
BASF   0.26294   0.28337
FVAR       1.71801
CL1   4    0.291086    0.333837    0.302950    11.00000    0.02090    0.02466 =
         0.02752   -0.00207   -0.01002   -0.01088
P1    5    0.511376    0.299294    0.676546    11.00000    0.01504    0.01173 =
         0.01269   -0.00099   -0.00369   -0.00568
AL1   3    0.610704    0.358535    0.305089    11.00000    0.01572    0.01264 =
         0.01342   -0.00307   -0.00331   -0.00532
C1    1    0.646760    0.158090    0.827860    11.00000    0.03013    0.02166 =
         0.01852    0.00246   -0.01195   -0.00904
AFIX 137
H1A   2    0.788728    0.182414    0.813264    11.00000   -1.50000
H1B   2    0.683984    0.020500    0.823920    11.00000   -1.50000
H1C   2    0.540432    0.195359    0.927834    11.00000   -1.50000
AFIX   0
C2    1    0.268644    0.222209    0.710500    11.00000    0.01948    0.02330 =
         0.02100   -0.00448   -0.00087   -0.01226
AFIX 137
H2A   2    0.165320    0.249978    0.813114    11.00000   -1.50000
H2B   2    0.325284    0.083170    0.703270    11.00000   -1.50000
H2C   2    0.184323    0.291877    0.633441    11.00000   -1.50000
AFIX   0
C3    1    0.706876    0.222772    0.495260    11.00000    0.01336    0.01476 =
         0.01618   -0.00293   -0.00286   -0.00420
AFIX  23
H3A   2    0.737594    0.083620    0.497631    11.00000   -1.20000
H3B   2    0.854915    0.236005    0.486427    11.00000   -1.20000
AFIX   0
C4    1    0.849525    0.301464    0.109067    11.00000    0.01589    0.01787 =
         0.00986   -0.00437   -0.00054   -0.00530
AFIX 137
H4A   2    0.886288    0.168359    0.091446    11.00000   -1.50000
H4B   2    0.988829    0.317194    0.112896    11.00000   -1.50000
H4C   2    0.792304    0.390440    0.025311    11.00000   -1.50000
AFIX   0
HKLF 5




REM  kp1_0m_4_a.res in P-1
REM wR2 = 0.082202, GooF = S = 1.06084, Restrained GooF = 1.06084 for all data
REM R1 = 0.031816 for 7151 Fo > 4sig(Fo) and 0.040653 for all 8302 data
REM 69 parameters refined using 0 restraints

END

WGHT      0.0408      0.0595

REM Highest difference peak  0.550,  deepest hole -0.356,  1-sigma level  0.073
Q1    1   0.7979  0.2732  0.1030  11.00000  0.05    0.55
Q2    1   0.8071  0.3549  0.0831  11.00000  0.05    0.52
Q3    1   0.7765  0.3399  0.1549  11.00000  0.05    0.50
Q4    1   0.9047  0.3289  0.0870  11.00000  0.05    0.49
Q5    1   0.4684  0.4193  0.6846  11.00000  0.05    0.47
Q6    1   0.5699  0.2314  0.7523  11.00000  0.05    0.45
;
_shelx_res_checksum              49025
_shelx_hkl_file
;
   1   0   0 4722.37 26.3687  -3
   1   0   0 4722.37 26.3687   2
   1   0   0 3910.31 21.7338   1
   1   0   0 9123.84 103.335  -3
   1   0   0 9123.84 103.335  -2
   1   0   0 9123.84 103.335   1
   2   0   0 691.010 4.77017  -3
   2   0   0 691.010 4.77017   2
   2   0   0 1230.88 16.2081  -3
   2   0   0 1230.88 16.2081  -2
   2   0   0 1230.88 16.2081   1
   2   0   0 571.417 4.64050   1
   3   0   0 86.9208 1.91913  -3
   3   0   0 86.9208 1.91913   2
   3   0   0 173.140 5.17041  -3
   3   0   0 173.140 5.17041  -2
   3   0   0 173.140 5.17041   1
   3   0   0 77.1744 1.69483   1
   4   0   0 116.460 2.35588  -3
   4   0   0 116.460 2.35588   2
   4   0   0 94.5022 2.17693   1
   4   0   0 187.094 5.45644  -3
   4   0   0 187.094 5.45644  -2
   4   0   0 187.094 5.45644   1
   5   0   0 351.549 4.31207   1
   5   0   0 434.086 4.90038  -3
   5   0   0 434.086 4.90038   2
   5   0   0 766.757 21.9135  -3
   5   0   0 766.757 21.9135  -2
   5   0   0 766.757 21.9135   1
   6   0   0 62.4222 3.97793  -3
   6   0   0 62.4222 3.97793   2
   6   0   0 51.5112 2.99350   1
   6   0   0 113.410 11.9212  -3
   6   0   0 113.410 11.9212  -2
   6   0   0 113.410 11.9212   1
   7   0   0 14.4044 2.50241   1
   7   0   0 22.3953 4.69050  -3
   7   0   0 22.3953 4.69050   2
   8   0   0 61.1989 5.19334   1
   8   0   0 69.3413 7.57256  -3
   8   0   0 69.3413 7.57256   2
  -8   1   0 -2.9406 9.80514  -3
  -8   1   0 -2.9406 9.80514   2
  -8   1   0 5.12957 3.47060   1
  -7   1   0 7.69513 4.68321  -3
  -7   1   0 7.69513 4.68321   2
  -7   1   0 4.71131 2.15540   1
  -6   1   0 76.3545 3.58074   1
  -6   1   0 94.8732 5.01884  -3
  -6   1   0 94.8732 5.01884   2
  -5   1   0 100.255 2.77406   1
  -5   1   0 117.927 3.32018  -3
  -5   1   0 117.927 3.32018   2
  -4   1   0 421.532 3.96074  -3
  -4   1   0 421.532 3.96074   2
  -4   1   0 347.344 3.48708   1
  -3   1   0 1254.13 7.58577  -3
  -3   1   0 1254.13 7.58577   2
  -3   1   0 1023.01 6.17560   1
  -2   1   0 25.8191 0.74216   1
  -2   1   0 15.7819 0.91170   3
  -2   1   0 28.3830 1.27250  -3
  -2   1   0 28.3830 1.27250   2
  -2   1   0 15.1581 0.92258   2
  -1   1   0 108.676 1.08629   1
  -1   1   0 59.9811 1.00243   2
  -1   1   0 131.940 2.08835  -3
  -1   1   0 131.940 2.08835   2
  -1   1   0 67.9933 1.05323   3
   0   1   0 1127.29 7.29953   1
   0   1   0 654.152 4.45994   2
   0   1   0 1599.34 28.1210  -3
   0   1   0 1599.34 28.1210   1
   0   1   0 686.675 4.14734   3
   1   1   0 573.630 3.10298   1
   1   1   0 362.972 2.20352   3
   1   1   0 342.057 2.17698   2
   1   1   0 890.356 17.9282  -3
   1   1   0 890.356 17.9282   1
   2   1   0 74.7457 1.99055   3
   2   1   0 73.5739 0.92827   2
   2   1   0 121.872 3.74975   1
   2   1   0 196.376 2.63589  -3
   2   1   0 196.376 2.63589   1
   2   1   0 275.100 9.70162  -3
   2   1   0 275.100 9.70162  -2
   2   1   0 275.100 9.70162   1
   2   1   0 150.904 6.92376  -3
   2   1   0 150.904 6.92376   2
   3   1   0 2223.86 20.1376  -3
   3   1   0 2223.86 20.1376   1
   3   1   0 836.440 5.68700   2
   3   1   0 1416.26 13.6243   1
   3   1   0 852.200 14.5157   3
   3   1   0 1694.54 19.5892  -3
   3   1   0 1694.54 19.5892   2
   4   1   0 748.644 10.2003  -3
   4   1   0 748.644 10.2003   1
   4   1   0 279.012 3.11669   2
   4   1   0 471.868 6.99492   1
   4   1   0 548.432 11.4490  -3
   4   1   0 548.432 11.4490   2
   4   1   0 292.833 6.64754   3
   5   1   0 32.6534 2.79792   3
   5   1   0 85.0642 3.65245  -3
   5   1   0 85.0642 3.65245   1
   5   1   0 30.7040 1.67238   2
   5   1   0 52.8589 2.65945   1
   5   1   0 70.1385 5.50809  -3
   5   1   0 70.1385 5.50809   2
   6   1   0 167.578 4.87571  -3
   6   1   0 167.578 4.87571   1
   6   1   0 57.8269 2.21511   2
   6   1   0 59.4093 3.72409   3
   6   1   0 105.379 3.70193   1
   6   1   0 125.911 7.28079  -3
   6   1   0 125.911 7.28079   2
   7   1   0 -0.1283 1.99357   3
   7   1   0 1.74875 1.81038   2
   7   1   0 4.85302 2.37667   1
   7   1   0 1.18985 8.57630  -3
   7   1   0 1.18985 8.57630   1
   8   1   0 72.7643 4.73022   1
   8   1   0 35.4535 3.56182   2
   8   1   0 45.7688 3.95418   3
   9   1   0 146.757 20.0553   1
   9   1   0 75.3393 15.2693   3
   9   1   0 95.3153 15.2280   2
  -7   2   0 59.5628 5.47790  -3
  -7   2   0 59.5628 5.47790   2
  -7   2   0 58.1135 4.28280   1
  -6   2   0 9.41301 4.24645  -3
  -6   2   0 9.41301 4.24645   2
  -6   2   0 11.0313 2.25380   1
  -5   2   0 192.502 4.77305  -3
  -5   2   0 192.502 4.77305   2
  -5   2   0 159.639 3.97818   1
  -4   2   0 1247.40 11.4625  -3
  -4   2   0 1247.40 11.4625   2
  -4   2   0 1037.74 8.09978   1
  -4   2   0 642.955 8.54319   2
  -4   2   0 679.930 8.92077   3
  -3   2   0 1083.76 10.2969  -3
  -3   2   0 1083.76 10.2969   2
  -3   2   0 529.002 5.73042   2
  -3   2   0 556.456 5.97946   3
  -3   2   0 869.037 5.90638   1
  -2   2   0 7.22205 0.62082   2
  -2   2   0 12.7938 0.70148   1
  -2   2   0 8.54554 0.65593   3
  -2   2   0 10.8996 5.17761  -3
  -2   2   0 10.8996 5.17761   2
  -1   2   0 181.282 1.51945   1
  -1   2   0 107.343 1.55089   2
  -1   2   0 115.520 1.63702   3
  -1   2   0 228.485 4.94439  -3
  -1   2   0 228.485 4.94439   2
   0   2   0 6432.39 29.3168   1
   0   2   0 3791.69 17.6744   2
   0   2   0 4165.49 20.2116   3
   0   2   0 9999.99 163.158  -3
   0   2   0 9999.99 163.158   1
   1   2   0 1805.74 7.84585   1
   1   2   0 1145.07 5.42662   3
   1   2   0 1042.01 5.14123   2
   1   2   0 2873.96 51.7403  -3
   1   2   0 2873.96 51.7403   1
   2   2   0 36.9325 0.71244   3
   2   2   0 59.1243 0.88548   1
   2   2   0 33.8340 0.81136   2
   2   2   0 77.6791 5.11552  -3
   2   2   0 77.6791 5.11552   1
   3   2   0 336.898 2.58998   2
   3   2   0 365.037 3.91803   3
   3   2   0 923.283 10.7342  -3
   3   2   0 923.283 10.7342   1
   3   2   0 581.770 5.43590   1
   4   2   0 57.3816 1.54959   2
   4   2   0 103.870 3.72100   1
   4   2   0 153.200 2.82223  -3
   4   2   0 153.200 2.82223   1
   4   2   0 59.2161 2.77642   3
   5   2   0 907.479 8.71857  -3
   5   2   0 907.479 8.71857   1
   5   2   0 339.492 6.66367   3
   5   2   0 323.743 3.80881   2
   5   2   0 552.360 9.43409   1
   6   2   0 854.029 9.56302  -3
   6   2   0 854.029 9.56302   1
   6   2   0 527.862 11.0639   1
   6   2   0 324.237 7.92104   3
   6   2   0 307.319 4.21001   2
   7   2   0 19.6767 3.04197   1
   7   2   0 34.2960 3.66979  -3
   7   2   0 34.2960 3.66979   1
   7   2   0 11.2359 1.56741   2
   7   2   0 11.0260 2.34950   3
   8   2   0 1.47911 2.25305   2
   8   2   0 19.4130 5.37724  -3
   8   2   0 19.4130 5.37724   1
   8   2   0 6.69031 3.58863   1
   8   2   0 1.78072 2.95115   3
   9   2   0 10.2739 8.58669   1
   9   2   0 14.8400 7.91034   2
   9   2   0 16.5559 8.89935   3
  -7   3   0 47.1691 5.51439   1
  -6   3   0 13.6772 2.45258   1
  -6   3   0 4.56399 5.17618   3
  -5   3   0 42.5741 2.85799   1
  -5   3   0 27.3835 2.88489   3
  -4   3   0 22.8742 1.67615   1
  -4   3   0 16.0461 1.43010   3
  -4   3   0 17.8478 2.07058   2
  -4   3   1 33.4518 10.6984  -2
  -4   3   0 33.4518 10.6984   1
  -3   3   0 15.9476 1.02507   3
  -3   3   0 27.8200 1.44864   1
  -3   3   1 146.363 7.63152  -2
  -3   3   0 146.363 7.63152   1
  -3   3   0 19.2649 1.21606   2
  -2   3   0 80.2541 1.35713   2
  -2   3   0 83.3036 1.40749   3
  -2   3   0 130.081 1.70447   1
  -1   3   0 489.037 3.85504   3
  -1   3   0 446.570 3.62043   2
  -1   3   0 785.319 5.07045   1
   0   3   0 2804.17 13.1437   1
   0   3   0 1622.27 8.52757   2
   0   3   0 1764.14 9.57329   3
   1   3   0 369.508 2.49817   2
   1   3   0 631.922 3.65195   1
   1   3   0 397.391 2.50348   3
   2   3   0 11.8423 0.63237   1
   2   3   0 6.85609 0.53407   3
   2   3   0 7.48539 0.57048   2
   3   3   0 6.36077 0.48480   3
   3   3   0 10.9785 0.58279   1
   3   3   0 7.46957 0.63092   2
   3   3   0 12.1949 3.78444  -3
   3   3   0 12.1949 3.78444   1
   4   3   0 29.7205 1.29134   3
   4   3   0 46.4834 1.49552   1
   4   3   0 28.1137 1.12506   2
   4   3   0 74.5829 4.14555  -3
   4   3   0 74.5829 4.14555   1
   5   3   0 269.932 5.68879  -3
   5   3   0 269.932 5.68879   1
   5   3   0 96.5309 2.51736   2
   5   3   0 167.744 4.34524   1
   5   3   0 108.740 3.58891   3
   6   3   0 139.444 3.16041   2
   6   3   0 233.291 5.58790   1
   6   3   0 381.660 7.32527  -3
   6   3   0 381.660 7.32527   1
   6   3   0 145.935 4.41626   3
   7   3   0 17.7158 1.80789   2
   7   3   0 39.1023 4.40287   1
   7   3   0 52.7108 3.94409  -3
   7   3   0 52.7108 3.94409   1
   7   3   0 18.1259 3.10370   3
   8   3   0 40.8454 3.50801   2
   8   3   0 122.330 5.68283  -3
   8   3   0 122.330 5.68283   1
   8   3   0 52.1635 6.04492   3
   8   3   0 65.8400 6.96823   1
   9   3   0 155.790 13.1197   1
   9   3   0 116.476 8.83777   2
   9   3   0 273.358 18.1573  -3
   9   3   0 273.358 18.1573   1
   9   3   0 123.704 11.2955   3
  -6   4   0 -0.3975 2.13454   3
  -6   4   1 97.8512 14.3675  -2
  -6   4   0 97.8512 14.3675   1
  -6   4   0 -0.7541 2.46878   1
  -5   4   1 67.7054 4.72590  -2
  -5   4   0 67.7054 4.72590   1
  -5   4   0 37.3939 2.84391   3
  -4   4   0 435.211 5.76817   3
  -4   4   1 747.512 8.55317  -2
  -4   4   0 747.512 8.55317   1
  -3   4   0 468.462 5.54753   3
  -3   4   1 768.981 7.56191  -2
  -3   4   0 768.981 7.56191   1
  -2   4   1 110.450 2.66895  -2
  -2   4   0 110.450 2.66895   1
  -2   4   0 0.26838 0.64071   3
  -1   4   0 180.667 2.37234   3
  -1   4   0 163.605 2.52952   2
  -1   4   1 452.617 3.97959  -2
  -1   4   0 452.617 3.97959   1
   0   4   0 89.9122 1.53237   3
   0   4   0 81.1122 1.47467   2
   0   4   1 326.655 3.81903  -2
   0   4   0 326.655 3.81903   1
   0   4   0 141.295 3.18455   1
   1   4   0 0.64033 0.41178   3
   1   4   0 0.20572 0.52448   2
   1   4   1 41.6795 1.79790  -2
   1   4   0 41.6795 1.79790   1
   1   4   0 1.92138 0.59557   1
   2   4   0 113.475 1.57030   3
   2   4   0 179.797 2.73726   1
   2   4   1 1624.24 11.5315  -2
   2   4   0 1624.24 11.5315   1
   2   4   0 127.325 2.31807   2
   3   4   0 0.94349 0.41435   3
   3   4   0 1.11116 0.56394   1
   3   4   0 0.97666 0.52686   2
   3   4   1 2074.60 16.7255  -2
   3   4   0 2074.60 16.7255   1
   4   4   0 18.3907 0.99459   2
   4   4   0 16.4457 0.92847   3
   4   4   0 30.1118 1.31554   1
   4   4   1 465.288 10.4627  -2
   4   4   0 465.288 10.4627   1
   5   4   0 131.163 2.81610   1
   5   4   0 78.9084 2.41979   2
   5   4   0 80.6933 2.38011   3
   6   4   0 181.020 3.50574   1
   6   4   0 117.060 3.10010   2
   6   4   0 116.374 3.02117   3
   7   4   0 23.4000 5.83679  -3
   7   4   0 23.4000 5.83679   1
   7   4   0 4.84126 1.98719   3
   7   4   0 3.23301 1.43968   2
   7   4   0 13.5014 2.18154   1
   8   4   0 43.1303 3.13876   1
   8   4   0 29.2733 2.43811   2
   8   4   0 24.3357 2.54293   3
   8   4   0 67.8163 11.0676  -3
   8   4   0 67.8163 11.0676   1
   9   4   0 130.956 7.42413   1
   9   4   0 220.234 16.5614  -3
   9   4   0 220.234 16.5614   1
   9   4   0 96.2642 7.81073   2
   9   4   0 88.9744 10.0634   3
  -6   5   1 19.4979 12.4283  -3
  -6   5   0 19.4979 12.4283   1
  -6   5   0 -1.2698 4.19512   2
  -5   5   1 59.2220 6.46134  -3
  -5   5   0 59.2220 6.46134   1
  -5   5   0 20.9479 5.94425   2
  -5   5   0 22.2543 8.75152   1
  -4   5   0 351.220 7.70534   1
  -4   5   1 363.927 17.6236  -3
  -4   5   0 363.927 17.6236   1
  -4   5   0 208.294 5.97916   2
  -4   5   1 182.454 10.9183  -2
  -4   5   0 182.454 10.9183   1
  -4   5   0 210.100 5.25952   3
  -3   5   0 854.225 11.5605   1
  -3   5   1 869.948 12.9999  -2
  -3   5   0 869.948 12.9999   1
  -3   5   0 531.151 6.40680   3
  -3   5   0 496.131 7.45555   2
  -2   5   0 195.938 4.25726   2
  -2   5   0 204.154 3.63276   3
  -2   5   1 374.462 6.84356  -2
  -2   5   0 374.462 6.84356   1
  -2   5   0 332.520 7.05450   1
  -1   5   0 53.5448 1.69038   3
  -1   5   0 49.1780 1.65099   2
  -1   5   0 80.8599 2.95206   1
  -1   5   1 341.993 4.76558  -2
  -1   5   0 341.993 4.76558   1
   0   5   1 829.835 9.42670  -2
   0   5   0 829.835 9.42670   1
   0   5   0 178.531 2.39839   3
   0   5   0 169.573 2.22394   2
   0   5   0 285.273 4.13084   1
   1   5   0 86.0964 1.47955   3
   1   5   0 80.4101 1.57629   2
   1   5   1 353.489 4.10951  -2
   1   5   0 353.489 4.10951   1
   1   5   0 143.852 2.82282   1
   2   5   1 152.716 2.74146  -2
   2   5   0 152.716 2.74146   1
   2   5   0 18.2104 1.24253   1
   2   5   0 12.1891 0.75611   3
   2   5   0 10.8526 0.79429   2
   3   5   0 6.84192 0.64344   3
   3   5   0 5.96081 0.69084   2
   3   5   1 117.984 2.45629  -2
   3   5   0 117.984 2.45629   1
   3   5   0 14.3823 1.76706   1
   4   5   0 0.12359 0.60161   3
   4   5   0 -0.0539 0.63893   2
   4   5   0 0.19957 1.03393   1
   4   5   1 12.8866 2.13904  -2
   4   5   0 12.8866 2.13904   1
   5   5   0 419.238 5.10091   3
   5   5   1 661.704 21.2778  -2
   5   5   0 661.704 21.2778   1
   5   5   0 663.616 7.42734   1
   5   5   0 385.705 5.13319   2
   6   5   0 735.732 8.01579   2
   6   5   0 780.052 7.78678   3
   6   5   0 1234.02 10.4918   1
   7   5   0 219.084 4.74323   1
   7   5   0 123.720 4.12042   2
   7   5   0 130.065 4.12019   3
   8   5   0 -0.5996 1.42490   1
   8   5   0 0.19277 1.57914   2
   8   5   0 -0.2249 1.64459   3
   9   5   0 1.51060 2.39988   1
   9   5   0 -3.3963 2.11507   2
   9   5   0 -0.3119 2.77506   3
  -5   6   1 8.81628 8.97270  -3
  -5   6   0 8.81628 8.97270   1
  -5   6   0 -0.6944 3.16121   2
  -4   6   0 4.12061 1.71017   2
  -4   6   1 32.0729 4.15097  -3
  -4   6   0 32.0729 4.15097   1
  -3   6   0 3.66526 1.43569   2
  -3   6   1 16.0123 3.54513  -3
  -3   6   0 16.0123 3.54513   1
  -3   6   0 3.74300 3.81983   3
  -2   6   0 19.1050 1.67412   2
  -2   6   0 23.5740 2.09490   3
  -2   6   0 36.2988 2.26400   1
  -1   6   0 116.075 2.66836   2
  -1   6   0 126.276 3.18203   3
  -1   6   0 210.931 4.11280   1
   0   6   0 578.519 5.44356   1
   0   6   0 333.752 4.02496   2
   0   6   0 370.283 4.29308   3
   0  -6   1 524.691 17.3353  -3
   0   6   0 524.691 17.3353   2
   1   6   0 109.655 2.19516   1
   1   6   0 76.1820 2.01325   3
   1   6   0 69.9270 1.90630   2
   2   6   0 239.784 2.86101   1
   2   6   0 150.137 2.60614   3
   2   6   0 143.056 2.47137   2
  -2  -6   1 268.088 12.5727  -3
   2   6   0 268.088 12.5727   2
   3   6   0 136.913 2.76302   3
   3   6   0 123.606 2.48862   2
   3   6   0 215.122 3.05423   1
  -3  -6   1 481.804 16.9854  -3
   3   6   0 481.804 16.9854   2
   4   6   0 0.13133 0.87750   3
   4   6   0 2.83373 1.02476   2
   4   6   0 1.71346 0.78902   1
  -4  -6   1 76.8134 5.07751  -3
   4   6   0 76.8134 5.07751   2
   5   6   0 156.652 3.91030   1
   5   6   0 94.2824 9.14195   3
  -5  -6   1 165.462 7.43305  -3
   5   6   0 165.462 7.43305   2
   5   6   0 81.7483 3.91686   2
  -6  -6   1 160.858 12.4526  -3
   6   6   0 160.858 12.4526   2
   6   6   0 124.595 6.79659   3
   6   6   0 111.383 4.48181   2
   6   6   0 181.945 4.63956   1
   7   6   0 33.5095 3.01701   1
   7   6   0 14.9530 2.13676   2
   7   6   0 15.1511 4.07747   3
   8   6   0 47.7820 3.71165   1
   8   6   0 33.9487 4.06720   3
   8   6   0 33.1690 3.14772   2
   9   6   0 142.298 12.1596   2
  -4   7   0 63.6884 7.95424   2
  -3   7   0 243.123 6.20870   2
  -2   7   0 59.8324 3.47019   2
  -1   7   0 23.5946 6.16529   3
  -1   7   0 13.7165 1.66404   2
  -1   7   1 71.4747 11.2064  -3
  -1   7   0 71.4747 11.2064   1
  -1   7   0 32.2913 7.16006   1
   0   7   0 24.1995 1.61428   2
   0   7   0 28.9890 2.55701   3
   0   7   0 43.6468 2.79979   1
   1   7   0 22.0367 1.47285   2
   1   7   0 37.3493 1.74126   1
   1   7   0 21.7295 2.10431   3
  -1  -7   1 200.301 13.4225  -3
   1   7   0 200.301 13.4225   2
   2   7   0 539.677 5.17122   1
   2   7   0 310.065 5.35067   2
  -2  -7   1 1198.57 15.7522  -3
   2   7   0 1198.57 15.7522   2
   2   7   0 339.634 6.13567   3
  -3  -7   1 678.824 10.7470  -3
   3   7   0 678.824 10.7470   2
   3   7   0 195.959 3.03449   1
   3   7   0 140.311 3.88795   2
   3   7   0 134.634 7.48278   3
   4   7   0 2.15873 0.88779   1
  -4  -7   1 68.7451 4.00157  -3
   4   7   0 68.7451 4.00157   2
   4   7   0 2.50771 1.80225   2
  -5  -7   1 68.4189 4.11946  -3
   5   7   0 68.4189 4.11946   2
   5   7   0 106.489 3.44950   1
   5   7   0 63.8579 7.73107   2
   6   7   0 278.634 7.62618   2
   6   7   0 464.567 7.55062   1
  -6  -7   1 289.234 8.73942  -3
   6   7   0 289.234 8.73942   2
   7   7   0 88.1798 5.01919   2
   7   7   0 144.167 5.46153   1
  -7  -7   1 185.457 15.4375  -3
   7   7   0 185.457 15.4375   2
   8   7   0 11.8397 2.57442   2
   8   7   0 16.2106 2.82804   1
   8   7   0 11.5790 8.06216   3
  -3   8   1 162.009 12.5499  -3
  -3   8   2 162.009 12.5499  -2
  -3   8   0 162.009 12.5499   1
  -3   8   0 82.2210 16.1805   2
  -2   8   1 138.350 5.65637  -3
  -2   8   2 138.350 5.65637  -2
  -2   8   0 138.350 5.65637   1
  -2   8   0 7.46892 4.68581   2
  -1   8   1 514.417 8.55234  -3
  -1   8   2 514.417 8.55234  -2
  -1   8   0 514.417 8.55234   1
  -1   8   0 4.00355 3.61603   2
   0   8   0 34.7023 3.58638   2
   0   8   1 331.330 8.03220  -3
   0   8   2 331.330 8.03220  -2
   0   8   0 331.330 8.03220   1
   1   8   1 204.537 13.8482  -3
   1   8   2 204.537 13.8482  -2
   1   8   0 204.537 13.8482   1
   1   8   0 66.4407 3.92251   2
   2   8   1 58.2255 5.59568  -3
   2   8   2 58.2255 5.59568  -2
   2   8   0 58.2255 5.59568   1
  -2  -8   1 62.0815 7.25373  -3
   2   8   0 62.0815 7.25373   2
   2   8   0 4.06425 1.82474   2
   2   8   0 3.82877 3.95251   3
   3   8   0 -1.3119 1.23491   2
   3   8   0 1.01745 1.42551   1
   3   8   1 60.5922 7.54126  -3
   3   8   2 60.5922 7.54126  -2
   3   8   0 60.5922 7.54126   1
  -3  -8   1 31.0788 6.56816  -3
   3   8   0 31.0788 6.56816   2
   4   8   0 26.8641 2.22005   2
   4   8   0 45.8705 2.28105   1
  -4  -8   1 38.7817 8.03366  -3
   4   8   0 38.7817 8.03366   2
   5   8   0 435.827 6.69197   1
   5   8   0 249.941 5.76936   2
  -5  -8   1 289.159 13.3028  -3
   5   8   0 289.159 13.3028   2
   6   8   0 351.976 16.1322   3
   6   8   0 560.306 8.05581   1
   6   8   0 319.820 6.12298   2
   7   8   0 62.2316 3.69629   1
   7   8   0 29.5732 2.65235   2
   7   8   0 40.2946 4.49968   3
   8   8   0 -0.8241 2.79185   2
   8   8   0 1.93684 5.05582   1
   8   8   0 0.40768 7.44507   3
  -1   9   1 204.230 6.19816  -3
  -1   9   2 204.230 6.19816  -2
  -1   9   0 204.230 6.19816   1
  -1   9   0 -3.0840 2.13241   2
   0   9   1 288.749 6.69788  -3
   0   9   2 288.749 6.69788  -2
   0   9   0 288.749 6.69788   1
   0   9   0 22.5806 3.14733   2
   1   9   1 127.720 5.49286  -3
   1   9   2 127.720 5.49286  -2
   1   9   0 127.720 5.49286   1
   1   9   0 6.12866 2.03880   2
   2   9   1 672.346 11.7710  -3
   2   9   2 672.346 11.7710  -2
   2   9   0 672.346 11.7710   1
   2   9   0 267.418 5.01705   2
   3   9   0 130.684 3.82275   2
   3   9   1 450.983 7.44500  -3
   3   9   2 450.983 7.44500  -2
   3   9   0 450.983 7.44500   1
   4   9   0 21.1944 2.36318   2
   4   9   1 89.5700 8.17190  -3
   4   9   2 89.5700 8.17190  -2
   4   9   0 89.5700 8.17190   1
   4   9   0 30.0777 6.19847   3
   4   9   1 68.8184 10.5686  -3
   4   9   0 68.8184 10.5686   1
   5   9   0 69.0836 3.80797   2
   5   9   0 76.8006 3.94950   3
   5   9   1 172.008 9.11035  -3
   5   9   2 172.008 9.11035  -2
   5   9   0 172.008 9.11035   1
   5   9   0 125.335 12.1923   1
   6   9   0 15.9918 2.31563   1
   6   9   0 7.53009 2.11678   2
   6   9   0 10.7321 2.27736   3
   7   9   0 4.24510 2.54646   3
   7   9   0 12.4005 2.44178   2
   7   9   0 10.3870 2.47415   1
   0  10   0 1.45319 3.49750   2
   0  10   1 7.94587 11.6886  -3
   0  10   0 7.94587 11.6886   1
   1  10   0 40.4617 3.57900   2
   1  10   1 82.6672 8.94088  -3
   1  10   0 82.6672 8.94088   1
   2  10   0 128.464 4.84774   2
   2  10   1 247.644 7.18301  -3
   2  10   0 247.644 7.18301   1
   3  10   1 237.603 6.48322  -3
   3  10   0 237.603 6.48322   1
   3  10   0 117.054 3.99397   2
   4  10   1 64.2306 4.36084  -3
   4  10   0 64.2306 4.36084   1
   4  10   0 36.7019 2.90115   2
   5  10   0 71.6618 4.83242   2
   5  10   1 176.108 7.33165  -3
   5  10   0 176.108 7.33165   1
   6  10   0 68.1842 8.00214   3
   6  10   1 186.463 16.2060  -3
   6  10   0 186.463 16.2060   1
   6  10   0 78.0967 6.64404   2
   3  11   1 0.92671 11.8075  -3
   3  11   0 0.92671 11.8075   1
   3  11   0 1.54391 4.71360   2
   4  11   0 28.6498 8.22923   2
  -3 -11   1 -2.8602 6.95130   2
  -3 -11   1 3.42485 6.35613   3
  -5 -10   1 -3.3519 2.98747   2
   5  10   0 59.3419 8.52492  -3
  -5 -10   1 59.3419 8.52492   1
  -5 -10   1 3.76311 3.77543   3
  -4 -10   1 36.4158 3.11573   2
  -4 -10   1 41.0382 5.27969   3
   4  10   0 106.762 7.32301  -3
  -4 -10   1 106.762 7.32301   1
  -3 -10   1 92.0998 3.68156   2
   3  10   0 295.634 6.92412  -3
  -3 -10   1 295.634 6.92412   1
  -2 -10   1 74.5248 3.60585   2
   2  10   0 286.261 9.50926  -3
  -2 -10   1 286.261 9.50926   1
   1  10   0 56.0183 7.79429  -3
  -1 -10   1 56.0183 7.79429   1
  -1 -10   1 3.66290 2.90878   2
   0  10   0 -0.1651 13.2210  -3
   0 -10   1 -0.1651 13.2210   1
   0 -10   1 -4.7846 4.04145   2
  -7  -9   1 1.64095 8.60746   2
  -7  -9   1 23.6084 10.4168   3
  -7  -9   1 27.0047 10.2164   1
  -6  -9   1 15.1379 2.47600   1
  -6  -9   1 13.8237 2.48532   2
  -6  -9   1 14.6055 2.51448   3
  -5  -9   1 9.46507 2.40480   2
  -5  -9   1 25.1560 2.59346   1
  -5  -9   1 16.8263 2.46719   3
   4   9   0 119.821 5.71974  -3
  -4  -9   1 119.821 5.71974   1
  -4  -9   1 45.2895 3.14341   2
  -4  -9   1 57.6731 4.65579   3
  -4  -9   1 94.7065 10.5355   1
   3   9   0 420.391 8.15572  -3
  -3  -9   1 420.391 8.15572   1
  -3  -9   1 154.564 4.02469   2
  -2  -9   1 142.690 4.11710   2
   2   9   0 553.152 17.3123  -3
   2   9   1 553.152 17.3123  -2
  -2  -9   1 553.152 17.3123   1
  -1  -9   1 73.1060 3.55876   2
   1   9   0 156.465 13.8230  -3
  -1  -9   1 156.465 13.8230   1
   0  -9   1 28.8874 3.06536   2
   0   9   0 262.370 19.0896  -3
   0   9   1 262.370 19.0896  -2
   0  -9   1 262.370 19.0896   1
   1  -9   1 78.2056 4.23143   2
  -1   9   0 280.610 14.9261  -3
  -1   9   1 280.610 14.9261  -2
   1  -9   1 280.610 14.9261   1
   2  -9   1 69.5787 6.33377   2
  -2   9   0 161.983 17.5883  -3
  -2   9   1 161.983 17.5883  -2
   2  -9   1 161.983 17.5883   1
  -7  -8   1 3.74394 2.01220   1
  -7  -8   1 4.84853 1.85135   2
  -7  -8   1 3.65437 1.87540   3
  -6  -8   1 8.19136 1.83233   2
  -6  -8   1 9.17861 1.89498   3
  -6  -8   1 15.6216 2.07063   1
  -5  -8   1 41.7180 2.67891   1
  -5  -8   1 25.6174 2.70875   3
  -5  -8   1 30.2886 2.40230   2
  -4  -8   1 11.7587 2.05508   3
  -4  -8   1 11.8139 2.01670   2
  -4  -8   1 19.7579 2.02817   1
  -3  -8   1 51.2618 2.98091   1
  -3  -8   1 31.8663 2.58645   3
  -3  -8   1 26.7486 1.99425   2
   2   8   0 120.851 6.33993  -3
   2   8   1 120.851 6.33993  -2
  -2  -8   1 120.851 6.33993   1
  -2  -8   1 51.5972 2.40200   2
   2   8   0 82.6133 11.8514  -3
  -2  -8   1 82.6133 11.8514   1
  -2  -8   1 86.6579 9.74734   1
  -2  -8   1 57.7346 8.70738   3
  -1  -8   1 15.3759 1.66994   2
   1   8   0 96.0429 12.5712  -3
  -1  -8   1 96.0429 12.5712   1
   0  -8   1 159.271 4.46657   2
   0   8   0 347.441 20.2352  -3
   0  -8   1 347.441 20.2352   1
   1  -8   1 96.7442 3.85418   2
  -1   8   0 500.248 24.4945  -3
  -1   8   1 500.248 24.4945  -2
   1  -8   1 500.248 24.4945   1
   2  -8   1 17.2364 2.17840   2
  -2   8   0 141.598 6.45095  -3
  -2   8   1 141.598 6.45095  -2
   2  -8   1 141.598 6.45095   1
   3  -8   1 3.79683 2.44127   2
  -3   8   0 109.853 7.17458  -3
  -3   8   1 109.853 7.17458  -2
   3  -8   1 109.853 7.17458   1
  -8  -7   1 22.6969 4.22827   2
  -8  -7   1 19.9179 4.46958   3
  -8  -7   1 29.6515 4.96590   1
  -7  -7   1 168.374 5.81398   1
  -7  -7   1 103.281 6.27783   3
  -7  -7   1 101.097 4.22599   2
  -6  -7   1 8.31029 1.70659   1
  -6  -7   1 12.7956 2.68287   3
  -6  -7   1 5.65423 1.62098   2
  -5  -7   1 5.35800 1.35352   1
  -5  -7   1 4.44814 1.40174   2
  -5  -7   1 9.13055 3.96934   3
  -4  -7   1 96.1365 2.62802   1
  -4  -7   1 57.0843 2.38440   2
  -4  -7   1 60.1361 4.86129   3
  -3  -7   1 834.570 7.58376   1
  -3  -7   1 492.204 5.47054   2
  -3  -7   1 519.706 7.66252   3
  -2  -7   1 1419.28 10.6681   1
  -2  -7   1 892.936 9.46062   3
  -2  -7   1 833.234 7.58764   2
  -1  -7   1 177.977 3.04781   2
  -1  -7   1 298.255 4.26319   1
  -1  -7   1 184.073 3.53687   3
   1   7   0 307.604 14.4207  -3
   1   7   1 307.604 14.4207  -2
  -1  -7   1 307.604 14.4207   1
   0  -7   1 67.8035 3.13774   1
   0  -7   1 41.2165 2.25631   3
   0  -7   1 40.7054 1.93368   2
   1  -7   1 2.74751 1.22756   2
   1  -7   1 7.04372 4.91507   1
   1  -7   1 0.92230 1.95518   3
  -1   7   0 24.3448 4.74799  -3
   1  -7   1 24.3448 4.74799   1
  -2   7   0 120.750 8.15899  -3
   2  -7   1 120.750 8.15899   1
   2  -7   1 44.5999 2.70347   2
   3  -7   1 21.7614 2.33067   2
  -3   7   0 279.603 12.5610  -3
   3  -7   1 279.603 12.5610   1
   4  -7   1 3.38988 2.04165   2
  -4   7   0 79.6355 12.4298  -3
   4  -7   1 79.6355 12.4298   1
  -8  -6   1 8.99062 2.42499   3
  -8  -6   1 19.2429 2.81548   1
  -8  -6   1 8.15851 2.42093   2
  -7  -6   1 7.19744 1.88277   1
  -7  -6   1 2.33465 1.77337   3
  -7  -6   1 1.53744 1.71697   2
  -6  -6   1 77.2788 3.60387   1
  -6  -6   1 44.3890 3.14077   3
  -6  -6   1 44.6156 2.87280   2
  -5  -6   1 70.1386 2.83048   2
  -5  -6   1 120.204 3.71683   1
  -5  -6   1 71.0327 3.82732   3
  -4  -6   1 120.546 2.65979   1
  -4  -6   1 74.5831 2.32133   2
  -4  -6   1 74.9233 2.70922   3
  -3  -6   1 509.096 4.98856   1
  -3  -6   2 286.283 13.6299  -3
  -3  -6   1 286.283 13.6299   2
  -3  -6   1 300.215 3.90817   2
  -3  -6   1 311.021 4.01067   3
  -2  -6   1 110.042 2.37690   2
  -2  -6   1 176.964 2.67556   1
  -2  -6   1 111.516 2.44359   3
  -2  -6   2 142.926 10.9839  -3
  -2  -6   1 142.926 10.9839   2
  -1  -6   1 80.6351 2.08564   2
  -1  -6   1 129.097 2.36436   1
  -1  -6   1 78.5223 2.15645   3
   0  -6   1 146.152 2.81147   3
   0  -6   1 221.121 3.15035   1
   0  -6   1 127.131 2.47104   2
   1  -6   1 236.793 3.54784   3
   1  -6   1 372.455 5.17371   1
   1  -6   1 213.715 3.34478   2
   2  -6   1 110.193 3.81424   3
   2  -6   1 100.799 3.24206   2
   2  -6   1 169.514 4.02535   1
  -2   6   0 202.046 13.4253  -3
   2  -6   1 202.046 13.4253   1
   3  -6   1 18.9614 1.93921   2
   3  -6   1 17.7281 2.38704   3
  -3   6   0 25.0980 4.02793  -3
   3  -6   1 25.0980 4.02793   1
   3  -6   1 29.5666 6.73191   1
  -4   6   0 40.7329 4.16629  -3
   4  -6   1 40.7329 4.16629   1
   4  -6   1 15.0445 2.47656   2
   5  -6   1 18.3550 3.30235   2
  -5   6   0 43.3261 7.23736  -3
   5  -6   1 43.3261 7.23736   1
  -9  -5   1 33.4226 11.0415   2
  -9  -5   1 63.9512 14.4237   1
  -9  -5   1 34.4963 8.29990   3
  -8  -5   1 0.56307 1.71596   2
  -8  -5   1 2.32768 1.93751   1
  -8  -5   1 -1.1547 1.65908   3
  -7  -5   1 225.805 4.98132   2
  -7  -5   1 218.360 5.31019   3
  -7  -5   1 365.500 6.52435   1
  -6  -5   1 377.167 5.83899   3
  -6  -5   1 567.901 7.22624   1
  -6  -5   1 353.426 5.68799   2
  -5  -5   1 113.979 3.03528   3
  -5  -5   1 111.751 3.07543   2
  -5  -5   1 188.991 3.57892   1
  -4  -5   1 -0.4276 0.65876   3
  -4  -5   1 1.01290 0.74934   2
  -4  -5   1 1.63061 0.65387   1
  -3  -5   1 33.9898 1.39775   2
  -3  -5   1 64.2710 1.55074   1
  -3  -5   1 38.2052 1.32169   3
  -2  -5   1 876.926 6.09254   1
  -2  -5   1 555.425 4.39588   3
  -2  -5   1 511.081 4.21728   2
  -1  -5   1 77.3302 1.69474   2
  -1  -5   1 134.147 2.00223   1
  -1  -5   1 85.2909 1.76765   3
   1   5   0 213.247 10.1867  -2
  -1  -5   1 213.247 10.1867   1
   0  -5   1 324.521 3.54397   3
   0  -5   1 513.614 4.24533   1
   0  -5   1 298.987 3.29793   2
   1  -5   1 163.769 2.54385   3
   1  -5   1 154.849 2.61649   2
   1  -5   1 263.399 3.30660   1
  -1   5   0 292.216 13.5060  -2
   1  -5   1 292.216 13.5060   1
   2  -5   1 19.5506 1.26545   2
   2  -5   1 19.3983 1.34901   3
  -2   5   0 229.468 7.23498  -2
   2  -5   1 229.468 7.23498   1
   2  -5   1 33.2637 2.20058   1
   3  -5   1 220.085 4.01354   3
   3  -5   1 365.058 6.26212   1
   3  -5   1 206.574 3.75471   2
  -3   5   0 497.591 13.0769  -2
   3  -5   1 497.591 13.0769   1
   4  -5   1 90.3842 3.63753   3
   4  -5   1 89.0522 3.47761   2
  -4   5   0 365.422 12.3487  -2
   4  -5   1 365.422 12.3487   1
   4  -5   1 146.770 6.27853   1
  -4   5   0 406.949 19.6861  -3
   4  -5   1 406.949 19.6861   1
   5  -5   1 10.9976 2.53871   2
  -5   5   0 51.7511 14.1262  -3
   5  -5   1 51.7511 14.1262   1
   6  -5   1 4.10961 3.33147   2
  -6   5   0 33.5043 14.4612  -3
   6  -5   1 33.5043 14.4612   1
  -9  -4   1 3.45971 4.90245   3
  -9  -4   1 29.7781 5.84388   1
  -9  -4   1 6.29423 5.16417   2
  -8  -4   1 1.63011 1.61707   1
  -8  -4   1 -1.8200 1.63936   2
  -8  -4   1 0.46476 1.54801   3
  -7  -4   1 92.8882 3.86492   3
  -7  -4   1 92.2228 3.58542   2
  -7  -4   1 151.049 4.35850   1
  -6  -4   1 23.5145 1.87120   2
  -6  -4   1 39.8381 2.04558   1
  -6  -4   1 24.0415 1.82375   3
  -5  -4   1 7.98836 1.19956   3
  -5  -4   1 7.27047 1.20963   2
  -5  -4   1 15.8481 1.31258   1
  -4  -4   1 611.295 5.18011   1
  -4  -4   1 373.241 3.88792   2
  -4  -4   1 391.965 4.08193   3
  -3  -4   1 1152.32 7.82662   3
  -3  -4   1 1823.29 11.1821   1
  -3  -4   1 1062.23 7.40943   2
  -2  -4   1 751.317 4.75596   2
  -2  -4   1 806.041 5.07009   3
  -2  -4   1 1280.47 9.29942   1
   2   4   0 1414.31 13.3338  -2
  -2  -4   1 1414.31 13.3338   1
  -1  -4   1 27.2367 1.02837   3
  -1  -4   1 27.5060 1.00509   2
  -1  -4   1 44.7749 1.54211   1
   1   4   0 46.7634 2.06977  -2
  -1  -4   1 46.7634 2.06977   1
   0  -4   1 136.131 1.64444   3
   0  -4   1 127.256 1.70820   2
   0  -4   1 217.494 2.46263   1
   0   4   0 301.156 7.98448  -2
   0  -4   1 301.156 7.98448   1
   1  -4   1 22.8016 1.15368   1
   1  -4   1 15.2875 0.89810   3
   1  -4   1 14.0833 0.87163   2
  -1   4   0 184.383 5.34485  -2
   1  -4   1 184.383 5.34485   1
   2  -4   1 274.031 3.23996   2
  -2   4   0 455.822 4.37323  -2
   2  -4   1 455.822 4.37323   1
   2  -4   1 289.131 3.36114   3
  -3   4   0 626.035 6.63003  -2
   3  -4   1 626.035 6.63003   1
   3  -4   1 110.719 2.75407   3
   3  -4   1 95.9397 2.62019   2
   4  -4   1 55.1478 2.38978   3
   4  -4   1 51.4353 4.03580   2
  -4   4   0 498.872 6.31146  -2
   4  -4   1 498.872 6.31146   1
  -5   4   0 152.940 5.77690  -2
   5  -4   1 152.940 5.77690   1
   5  -4   1 65.4852 3.24539   3
  -6   4   0 143.431 6.49671  -2
   6  -4   1 143.431 6.49671   1
   6  -4   1 74.0713 5.26552   3
  -9  -3   1 17.6188 9.52103   3
  -9  -3   1 27.7924 10.2826   1
  -8  -3   1 6.44218 2.46815   2
  -8  -3   1 7.76827 2.58615   3
  -8  -3   1 6.02764 2.33832   1
  -7  -3   1 100.653 3.96048   2
  -7  -3   1 103.207 3.69617   3
  -7  -3   1 169.584 4.24160   1
  -6  -3   1 432.385 5.76750   2
  -6  -3   1 738.057 7.82099   1
  -6  -3   1 476.007 6.02006   3
  -5  -3   1 359.408 4.77196   1
  -5  -3   1 216.653 3.71667   2
  -5  -3   1 230.833 3.77106   3
  -4  -3   1 321.186 3.34428   2
  -4  -3   1 335.660 3.20367   3
  -4  -3   1 541.371 4.38262   1
  -3  -3   1 846.896 6.02842   2
  -3  -3   1 1431.37 8.57208   1
  -3  -3   1 901.848 6.23525   3
  -2  -3   1 1.66495 0.42402   1
  -2  -3   1 1.14020 0.43389   3
  -2  -3   1 0.92995 0.44205   2
  -1  -3   1 78.0422 1.26226   1
  -1  -3   1 43.1488 0.97072   2
  -1  -3   1 47.1415 1.06168   3
   0  -3   1 42.9279 0.85393   1
   0  -3   1 26.1663 0.74108   3
   0  -3   1 24.3345 0.78961   2
   1  -3   1 63.9518 1.29175   1
   1  -3   1 35.1763 1.07726   2
   1  -3   1 40.6417 1.18597   3
   2  -3   1 2.05630 0.54844   1
   2  -3   1 0.51783 0.45151   2
   2  -3   1 1.38272 0.56914   3
   3  -3   1 192.995 2.76054   3
   3  -3   1 181.513 2.67420   2
   3  -3   1 308.426 3.65746   1
  -3   3   0 319.796 11.3866  -2
   3  -3   1 319.796 11.3866   1
   4  -3   1 76.5672 2.93632   2
   4  -3   1 78.4783 2.69205   3
   4  -3   1 124.978 4.14790   1
  -4   3   0 138.928 4.95337  -2
   4  -3   1 138.928 4.95337   1
   4  -3   1 138.658 10.5931  -3
   4  -3   1 138.658 10.5931   2
   5  -3   1 116.147 4.43344   3
  -5   3   0 209.017 7.11207  -2
   5  -3   1 209.017 7.11207   1
   5  -3   1 126.350 9.36319   2
  -6   3   0 333.594 21.3320  -2
   6  -3   1 333.594 21.3320   1
   6  -3   1 182.288 13.4011   3
  -6   3   0 353.436 20.3672  -3
  -6   3   0 353.436 20.3672  -2
   6  -3   1 353.436 20.3672   1
   7  -3   1 53.1495 9.57194   3
  -9  -2   1 20.3459 10.8595   1
  -9  -2   1 12.7768 10.1442   3
  -8  -2   1 5.67756 2.48202   1
  -8  -2   1 3.81497 2.29744   2
  -8  -2   1 2.59957 2.35521   3
  -7  -2   1 234.853 6.47828   2
  -7  -2   1 234.512 5.50307   3
  -7  -2   1 389.861 6.55655   1
  -6  -2   1 362.691 5.50956   3
  -6  -2   1 584.556 7.31023   1
  -6  -2   1 349.077 4.78249   2
  -6  -2   1 955.646 24.6022  -3
  -6  -2   1 955.646 24.6022   1
  -5  -2   1 289.547 4.80073   3
  -5  -2   1 745.150 14.0969  -3
  -5  -2   1 745.150 14.0969   1
  -5  -2   1 275.824 3.60026   2
  -5  -2   1 459.673 6.46454   1
  -4  -2   1 287.280 3.78413   1
  -4  -2   1 178.887 2.42148   3
  -4  -2   1 164.594 2.00228   2
  -4  -2   1 471.293 6.01031  -3
  -4  -2   1 471.293 6.01031   1
  -3  -2   1 251.876 2.77459   1
  -3  -2   1 140.846 1.67352   2
  -3  -2   1 414.265 5.95811  -3
  -3  -2   1 414.265 5.95811   1
  -3  -2   1 157.687 2.20332   3
  -2  -2   1 612.355 4.27049   3
  -2  -2   1 976.861 5.88343   1
  -2  -2   1 570.561 3.97161   2
  -2  -2   1 1516.27 31.7324  -3
  -2  -2   1 1516.27 31.7324   1
  -1  -2   1 77.6832 0.90452   2
  -1  -2   1 132.120 1.26352   1
  -1  -2   1 80.5576 0.96830   3
  -1  -2   1 217.660 5.26453  -3
  -1  -2   1 217.660 5.26453   1
   0  -2   1 571.754 3.48286   2
   0  -2   1 614.075 3.99748   3
   0  -2   1 979.545 5.05448   1
   0  -2   1 1630.00 30.7922  -3
   0  -2   1 1630.00 30.7922   1
   1  -2   1 5.66698 0.47525   1
   1  -2   1 2.36761 0.42345   2
   1  -2   1 3.76054 0.43711   3
   1  -2   1 6.03610 1.99391  -3
   1  -2   1 6.03610 1.99391   2
   1  -2   1 15.0398 3.40984  -3
   1  -2   1 15.0398 3.40984   1
   2  -2   1 668.920 4.47396   1
   2  -2   1 416.564 3.91346   3
   2  -2   1 809.058 9.25011  -3
   2  -2   1 809.058 9.25011   2
   2  -2   1 392.202 3.77959   2
   3  -2   1 872.874 7.53031   2
   3  -2   1 1812.05 16.6270  -3
   3  -2   1 1812.05 16.6270   2
   3  -2   1 1485.63 8.83688   1
   3  -2   1 930.138 7.93474   3
   4  -2   1 1274.99 8.87610  -3
   4  -2   1 1274.99 8.87610   2
   4  -2   1 594.795 16.3179   2
   4  -2   1 1032.36 7.17514   1
   4  -2   1 649.264 16.9519   3
   5  -2   1 75.1412 2.93539   1
   5  -2   1 87.5707 3.89520  -3
   5  -2   1 87.5707 3.89520   2
   6  -2   1 10.7264 3.63328  -3
   6  -2   1 10.7264 3.63328   2
   6  -2   1 8.76196 2.14017   1
   7  -2   1 2.15346 2.05211   1
   7  -2   1 -2.4435 4.38648  -3
   7  -2   1 -2.4435 4.38648   2
   8  -2   1 1.69303 4.06009   1
   8  -2   1 11.6768 11.5334  -3
   8  -2   1 11.6768 11.5334   2
  -8  -1   1 4.32274 2.64297   3
  -8  -1   1 4.25061 2.48160   1
  -8  -1   1 4.28250 2.49652   2
  -7  -1   1 27.4414 2.97310   3
  -7  -1   1 43.2410 3.54793   1
  -7  -1   1 24.7381 2.98679   2
  -6  -1   1 -7.6882 4.13468  -3
  -6  -1   1 -7.6882 4.13468   1
  -6  -1   1 -0.4159 0.92736   2
  -6  -1   1 0.79743 0.92771   3
  -6  -1   1 0.79643 0.97317   1
  -5  -1   1 6.43488 1.19608   1
  -5  -1   1 6.71494 3.16603  -3
  -5  -1   1 6.71494 3.16603   1
  -5  -1   1 5.03077 0.93710   2
  -5  -1   1 3.09723 0.99567   3
  -4  -1   1 1114.95 9.54391  -3
  -4  -1   1 1114.95 9.54391   1
  -4  -1   1 702.552 7.06800   1
  -4  -1   1 445.841 5.46427   3
  -4  -1   1 413.254 3.61959   2
  -4  -1   1 855.888 20.1217  -3
  -4  -1   1 855.888 20.1217   2
  -3  -1   1 1054.49 6.45506   2
  -3  -1   1 1834.96 13.4725   1
  -3  -1   1 2987.40 23.5117  -3
  -3  -1   1 2987.40 23.5117   1
  -3  -1   1 1145.75 9.47215   3
  -2  -1   1 240.933 2.40660   3
  -2  -1   1 217.837 1.82682   2
  -2  -1   1 390.618 3.54038   1
  -2  -1   1 625.699 6.56379  -3
  -2  -1   1 625.699 6.56379   1
  -1  -1   1 52.8801 0.87039   2
  -1  -1   1 51.4634 0.90657   3
  -1  -1   1 83.8004 1.15073   1
  -1  -1   1 136.559 3.38094  -3
  -1  -1   1 136.559 3.38094   1
  -1  -1   1 109.552 5.12741  -3
  -1  -1   1 109.552 5.12741   2
   0  -1   1 373.266 5.98418  -3
   0  -1   1 373.266 5.98418   2
   0  -1   1 192.467 1.49260   3
   0  -1   1 302.032 2.06795   1
   0  -1   1 177.861 1.43966   2
   0  -1   1 532.828 11.2736  -3
   0  -1   1 532.828 11.2736   1
   1  -1   1 35.8644 1.75218  -3
   1  -1   1 35.8644 1.75218   1
   1  -1   1 13.2071 0.60845   2
   1  -1   1 21.2134 0.75061   1
   1  -1   1 24.0508 1.79047  -3
   1  -1   1 24.0508 1.79047   2
   1  -1   1 14.7729 0.79012   3
   1  -1   1 55.4728 3.79180  -3
   1  -1   1 55.4728 3.79180  -2
   1  -1   1 55.4728 3.79180   1
   2  -1   1 670.389 5.40873   1
   2  -1   1 399.616 5.11690   2
   2  -1   1 839.441 9.77483  -3
   2  -1   1 839.441 9.77483   2
   2  -1   1 1520.19 12.1826  -3
   2  -1   1 1520.19 12.1826  -2
   2  -1   1 1520.19 12.1826   1
   2  -1   1 424.271 5.27143   3
   3  -1   1 386.585 3.31283  -3
   3  -1   1 386.585 3.31283   2
   3  -1   1 313.256 2.86783   1
   4  -1   1 208.032 2.63589  -3
   4  -1   1 208.032 2.63589   2
   4  -1   1 166.589 2.30990   1
   5  -1   1 343.900 4.28719   1
   5  -1   1 425.283 4.82031  -3
   5  -1   1 425.283 4.82031   2
   6  -1   1 379.966 6.13666   1
   6  -1   1 459.061 7.69983  -3
   6  -1   1 459.061 7.69983   2
   7  -1   1 273.599 7.01548   1
   7  -1   1 357.874 8.33525  -3
   7  -1   1 357.874 8.33525   2
   8  -1   1 53.6113 7.24464  -3
   8  -1   1 53.6113 7.24464   2
   8  -1   1 27.4992 4.50622   1
  -8   0   1 22.7852 4.65219   3
  -8   0   1 16.7688 5.21935   2
  -8   0   1 29.9520 5.45590   1
  -7   0   1 81.9254 4.63635   2
  -7   0   1 79.4286 4.55750   3
  -7   0   1 140.065 5.62929   1
  -6   0   1 285.120 5.27320   1
  -6   0   1 179.439 4.68235   3
  -6   0   1 345.574 14.9060  -3
  -6   0   1 345.574 14.9060   2
  -6   0   1 170.537 4.76210   2
  -5   0   1 199.369 3.82231   2
  -5   0   1 347.267 3.85368   1
  -5   0   1 432.525 7.03609  -3
  -5   0   1 432.525 7.03609   2
  -5   0   1 203.938 3.77375   3
  -4   0   1 9.02073 0.83958   3
  -4   0   1 13.2878 0.74975   1
  -4   0   1 6.47007 0.76255   2
  -4   0   1 11.3027 1.80659  -3
  -4   0   1 11.3027 1.80659   2
  -4   0   1 15.1181 5.25556  -3
  -4   0   1 15.1181 5.25556   1
  -3   0   1 388.938 3.94090   3
  -3   0   1 625.723 4.37778   1
  -3   0   1 363.640 3.70328   2
  -3   0   1 749.228 8.07603  -3
  -3   0   1 749.228 8.07603   2
  -3   0   1 987.553 21.5994  -3
  -3   0   1 987.553 21.5994   1
  -3   0   1 1341.80 26.8554  -3
  -3   0   1 1341.80 26.8554  -2
  -3   0   1 1341.80 26.8554   1
  -2   0   1 22.2925 1.20701  -3
  -2   0   1 22.2925 1.20701   2
  -2   0   1 12.0735 0.73660   3
  -2   0   1 17.3129 0.63865   1
  -2   0   1 10.4324 0.65619   2
  -2   0   1 28.0753 2.16108  -3
  -2   0   1 28.0753 2.16108   1
  -1   0   1 784.938 5.31167   3
  -1   0   1 717.139 4.69642   2
  -1   0   1 1268.69 7.33242   1
  -1   0   1 1493.09 18.2951  -3
  -1   0   1 1493.09 18.2951   2
  -1   0   1 1870.68 22.7695  -3
  -1   0   1 1870.68 22.7695   1
   1   0   1 352.727 2.24327   2
   1   0   1 384.398 2.72885   3
   1   0   1 575.806 4.43843   1
   1   0   1 1015.15 9.37713  -3
   1   0   1 1015.15 9.37713   1
   1   0   1 759.159 14.3613  -3
   1   0   1 759.159 14.3613   2
   1   0   1 941.935 12.0892  -2
   1   0   1 941.935 12.0892   1
   2   0   1 260.491 3.23155   1
   2   0   1 148.747 6.02830   2
   2   0   1 309.646 3.76987  -3
   2   0   1 309.646 3.76987   2
   2   0   1 548.900 7.81470  -3
   2   0   1 548.900 7.81470  -2
   2   0   1 548.900 7.81470   1
   2   0   1 433.447 11.3657  -3
   2   0   1 433.447 11.3657   1
   3   0   1 372.093 6.18233  -3
   3   0   1 372.093 6.18233  -2
   3   0   1 372.093 6.18233   1
   4   0   1 1870.35 15.5606  -3
   4   0   1 1870.35 15.5606  -2
   4   0   1 1870.35 15.5606   1
   5   0   1 1.57445 3.39583  -3
   5   0   1 1.57445 3.39583  -2
   5   0   1 1.57445 3.39583   1
   6   0   1 765.714 11.5946  -3
   6   0   1 765.714 11.5946  -2
   6   0   1 765.714 11.5946   1
   6   0   1 367.008 15.1769   1
   6   0   1 423.084 16.8455  -3
   6   0   1 423.084 16.8455   2
   7   0   1 225.538 7.27758   1
   7   0   1 245.324 7.64359  -3
   7   0   1 245.324 7.64359   2
   8   0   1 5.76676 2.61388   1
   8   0   1 -0.7870 5.51530  -3
   8   0   1 -0.7870 5.51530   2
  -7   1   1 294.441 8.85765   1
  -7   1   1 190.215 10.9871   2
  -7   1   1 396.983 16.2364  -3
  -7   1   1 396.983 16.2364   2
  -7   1   1 199.719 10.4716   3
  -6   1   1 401.427 6.49509   1
  -6   1   1 257.946 7.43417   3
  -6   1   1 227.931 7.09943   2
  -6   1   1 523.792 20.4126  -3
  -6   1   1 523.792 20.4126   2
  -5   1   1 169.949 3.67697   1
  -5   1   1 107.691 4.41594   2
  -5   1   1 211.383 6.74301  -3
  -5   1   1 211.383 6.74301   2
  -5   1   1 111.136 4.06766   3
  -4   1   1 64.9779 2.49712  -3
  -4   1   1 64.9779 2.49712   2
  -4   1   1 56.5802 1.30996   1
  -4   1   1 36.0289 1.82777   3
  -4   1   1 32.3361 1.78753   2
  -3   1   1 5.03078 0.49750   1
  -3   1   1 2.93129 0.66707   3
  -3   1   1 1.95811 0.70709   2
  -3   1   1 7.25904 1.46741  -3
  -3   1   1 7.25904 1.46741   2
  -2   1   1 84.5496 1.27753   2
  -2   1   1 96.2747 1.40653   3
  -2   1   1 156.545 1.63557   1
  -2   1   1 185.985 4.04803  -3
  -2   1   1 185.985 4.04803   2
  -1   1   1 1211.69 5.92725   1
  -1   1   1 709.358 4.61773   2
  -1   1   1 768.383 4.57025   3
  -1   1   1 1381.56 17.6232  -3
  -1   1   1 1381.56 17.6232   2
   0   1   1 24.3292 0.51217   2
   0   1   1 38.9676 0.55563   1
   0   1   1 25.3769 0.51146   3
   0   1   1 68.0858 1.86054  -3
   0   1   1 68.0858 1.86054   1
   1   1   1 257.083 1.88084   2
   1   1   1 427.302 2.78860   1
   1   1   1 831.256 11.3843  -3
   1   1   1 831.256 11.3843  -2
   1   1   1 831.256 11.3843   1
   1   1   1 678.557 9.54023  -3
   1   1   1 678.557 9.54023   1
   1   1   1 269.953 2.12133   3
   1   1   1 605.914 11.3358  -3
   1   1   1 605.914 11.3358   2
   2   1   1 4582.66 29.1859  -3
   2   1   1 4582.66 29.1859   1
   2   1   1 1691.10 12.6171   2
   2   1   1 5903.10 103.203  -3
   2   1   1 5903.10 103.203  -2
   2   1   1 5903.10 103.203   1
   3   1   1 4112.35 31.6459  -3
   3   1   1 4112.35 31.6459   1
   3   1   1 1453.48 11.6853   2
   3   1   1 5553.28 43.1458  -3
   3   1   1 5553.28 43.1458  -2
   3   1   1 5553.28 43.1458   1
   4   1   1 1756.07 19.6455  -3
   4   1   1 1756.07 19.6455   1
   4   1   1 2350.86 20.9685  -3
   4   1   1 2350.86 20.9685  -2
   4   1   1 2350.86 20.9685   1
   4   1   1 639.866 9.37429   2
   5   1   1 76.5872 3.43496  -3
   5   1   1 76.5872 3.43496  -2
   5   1   1 76.5872 3.43496   1
   6   1   1 10.4421 3.36954  -3
   6   1   1 10.4421 3.36954  -2
   6   1   1 10.4421 3.36954   1
   6   1   1 17.2048 9.02686  -2
   6   1   1 17.2048 9.02686   1
   6   1   1 7.49167 3.80061   3
   7   1   1 202.808 8.36160  -3
   7   1   1 202.808 8.36160  -2
   7   1   1 202.808 8.36160   1
   8   1   1 67.1366 11.7313   3
   8   1   1 93.6227 7.45479   1
   8   1   1 136.750 10.1265  -3
   8   1   1 136.750 10.1265   2
   8   1   1 171.703 19.2477  -2
   8   1   1 171.703 19.2477   1
   8   1   1 245.950 22.2317  -3
   8   1   1 245.950 22.2317  -2
   8   1   1 245.950 22.2317   1
   9   1   1 3.43658 6.23897   3
   9   1   1 3.46172 6.40336   2
   9   1   1 9.06841 6.02481   1
  -7   2   1 20.7024 3.45244   1
  -7   2   1 13.7669 5.07432   3
  -7   2   1 30.3247 7.74687  -3
  -7   2   1 30.3247 7.74687   2
  -7   2   1 12.9398 4.47000   2
  -6   2   1 15.1578 3.51937   2
  -6   2   1 30.0206 7.76155  -3
  -6   2   1 30.0206 7.76155   2
  -6   2   1 17.7818 3.37945   3
  -6   2   1 27.2230 3.00294   1
  -5   2   1 34.1592 2.11609   1
  -5   2   1 16.5109 2.24079   2
  -5   2   1 22.7825 2.35252   3
  -5   2   1 25.8691 5.27931  -3
  -5   2   1 25.8691 5.27931   2
  -4   2   1 10.9402 1.04841   1
  -4   2   1 5.74716 1.04529   3
  -4   2   1 4.38867 1.09787   2
  -4   2   1 9.04469 5.09872  -3
  -4   2   1 9.04469 5.09872   2
  -3   2   1 226.300 2.62690   2
  -3   2   1 250.701 2.72912   3
  -3   2   1 400.181 3.38097   1
  -3   2   1 488.114 11.0495  -3
  -3   2   1 488.114 11.0495   2
  -2   2   1 63.3282 1.23005   2
  -2   2   1 113.501 1.43630   1
  -2   2   1 72.0481 1.23280   3
  -2   2   1 122.084 7.09083  -3
  -2   2   1 122.084 7.09083   2
  -1   2   1 382.301 3.02165   1
  -1   2   1 211.967 1.75751   2
  -1   2   1 234.880 2.22885   3
   0   2   1 4904.50 24.4592   1
   0   2   1 2836.99 12.9296   2
   0   2   1 3116.75 15.2306   3
   0   2   1 8206.45 137.392  -3
   0   2   1 8206.45 137.392   1
   1   2   1 1058.00 5.79982   3
   1   2   1 1650.21 8.56382   1
   1   2   1 996.772 4.62653   2
   1   2   1 2728.84 49.2012  -3
   1   2   1 2728.84 49.2012   1
   2   2   1 2591.61 13.1176   2
   2   2   1 7092.63 53.1643  -3
   2   2   1 7092.63 53.1643   1
   2   2   1 4398.36 25.8655   1
   2   2   1 2777.92 15.8498   3
   3   2   1 1799.17 11.0612   2
   3   2   1 1865.43 35.0726   3
   3   2   1 3040.02 53.9110   1
   3   2   1 4970.56 28.7370  -3
   3   2   1 4970.56 28.7370   1
   4   2   1 66.7797 1.74161  -3
   4   2   1 66.7797 1.74161   1
   4   2   1 22.1150 1.10041   2
   5   2   1 -0.3012 0.71014   2
   5   2   1 -1.2500 1.28988  -3
   5   2   1 -1.2500 1.28988   1
   6   2   1 123.265 3.13409  -3
   6   2   1 123.265 3.13409   1
   6   2   1 47.6036 2.06536   2
   7   2   1 453.839 6.40621  -3
   7   2   1 453.839 6.40621   1
   7   2   1 161.236 3.82572   2
   8   2   1 33.7478 3.44274   2
   8   2   1 99.0847 5.96729  -3
   8   2   1 99.0847 5.96729   1
   9   2   1 121.795 13.1117  -3
   9   2   1 121.795 13.1117   1
   9   2   1 36.8882 4.29300   2
  -7   3   1 55.7211 7.58888   2
  -7   3   1 88.8942 6.97082   1
  -7   3   1 123.712 16.9710  -3
  -7   3   1 123.712 16.9710   2
  -7   3   1 60.0301 7.68252   3
  -6   3   1 169.522 6.61877   1
  -6   3   1 92.2966 5.06189   2
  -6   3   1 113.755 5.56992   3
  -5   3   1 98.8508 4.08130   2
  -5   3   1 177.106 4.97029   1
  -5   3   1 108.227 4.18993   3
  -4   3   1 -1.7385 0.96903   2
  -4   3   1 -0.6465 0.98667   3
  -4   3   1 -0.7259 0.98502   1
  -3   3   1 127.453 2.79150   2
  -3   3   1 221.074 2.99853   1
  -3   3   1 133.704 2.34636   3
  -2   3   1 28.1714 0.91418   2
  -2   3   1 43.3547 1.32326   1
  -2   3   1 29.3997 0.90895   3
  -1   3   1 859.930 5.49749   2
  -1   3   1 926.570 5.45617   3
  -1   3   1 1470.34 8.33300   1
   0   3   1 951.505 5.20542   2
   0   3   1 1020.70 5.55499   3
   0   3   1 1633.65 8.20216   1
   1   3   1 771.243 4.16793   3
   1   3   1 1234.39 6.05390   1
   1   3   1 728.753 3.95292   2
   2   3   1 290.799 2.08061   3
   2   3   1 454.540 2.81271   1
   2   3   1 282.399 2.26670   2
   3   3   1 1367.05 17.6246  -3
   3   3   1 1367.05 17.6246   1
   3   3   1 843.777 6.06940   1
   3   3   1 491.366 3.63086   2
   3   3   1 531.497 4.26660   3
   4   3   1 369.615 3.67506   2
   4   3   1 1003.12 10.5475  -3
   4   3   1 1003.12 10.5475   1
   4   3   1 379.638 5.36114   3
   4   3   1 631.385 7.57179   1
   5   3   1 37.7689 1.52946   2
   5   3   1 107.965 2.52477  -3
   5   3   1 107.965 2.52477   1
   6   3   1 223.682 3.75664   2
   6   3   1 599.771 6.97052  -3
   6   3   1 599.771 6.97052   1
   7   3   1 0.42694 1.14994   2
   7   3   1 1.26532 2.59050  -3
   7   3   1 1.26532 2.59050   1
   8   3   1 90.8131 3.54359   2
   8   3   1 249.059 5.38965  -3
   8   3   1 249.059 5.38965   1
   9   3   1 81.0529 5.92230   2
   9   3   1 195.918 10.5700  -3
   9   3   1 195.918 10.5700   1
  -6   4   1 105.407 6.40388   2
  -6   4   1 171.896 7.33454   1
  -6   4   1 118.044 6.65754   3
  -5   4   1 -1.9522 1.55200   1
  -5   4   1 1.05675 1.64337   3
  -4   4   1 37.9124 2.15091   3
  -4   4   1 61.8803 2.71135   1
  -3   4   1 2.03307 1.08481   3
  -3   4   1 3.90354 1.09726   1
  -3   4   2 348.213 15.3453  -2
  -3   4   1 348.213 15.3453   1
  -2   4   1 114.512 2.58829   3
  -2   4   1 179.627 4.52968   1
  -2   4   2 368.283 5.92119  -2
  -2   4   1 368.283 5.92119   1
  -1   4   1 167.045 2.11739   3
  -1   4   2 312.306 2.95384  -2
  -1   4   1 312.306 2.95384   1
   0   4   1 200.270 2.04243   3
   0   4   2 371.917 3.25949  -2
   0   4   1 371.917 3.25949   1
   0   4   1 180.897 3.48603   2
   1   4   1 66.1517 1.89565   1
   1   4   1 42.9287 1.01546   3
   1   4   1 41.6323 1.27615   2
   1   4   2 72.4429 1.78315  -2
   1   4   1 72.4429 1.78315   1
   2   4   1 1455.72 11.0138   2
   2   4   1 1541.49 7.53475   3
   2   4   1 2459.78 13.2850   1
   2   4   2 3338.11 26.7210  -2
   2   4   1 3338.11 26.7210   1
   3   4   1 2052.38 13.8271   2
   3   4   1 2192.49 10.7755   3
   3   4   2 4926.35 36.0407  -2
   3   4   1 4926.35 36.0407   1
   3   4   1 3476.40 20.3763   1
   4   4   1 449.973 3.61027   3
   4   4   1 428.782 3.74324   2
   4   4   1 729.672 5.99208   1
   4   4   2 873.167 10.8597  -2
   4   4   1 873.167 10.8597   1
   5   4   1 6.46381 1.09454   3
   5   4   1 3.56266 0.94754   2
   5   4   1 11.2101 1.60786   1
   5   4   2 12.5710 3.47927  -2
   5   4   1 12.5710 3.47927   1
   5   4   1 8.58627 4.52587  -3
   5   4   1 8.58627 4.52587   1
   6   4   1 206.104 7.16809  -3
   6   4   1 206.104 7.16809   1
   6   4   1 118.613 4.15347   1
   6   4   1 67.0822 2.48608   2
   6   4   1 71.5900 3.04369   3
   6   4   2 224.116 15.6310  -2
   6   4   1 224.116 15.6310   1
   7   4   1 44.8298 2.56231   2
   7   4   1 126.044 4.70074  -3
   7   4   1 126.044 4.70074   1
   7   4   1 73.0590 7.05550   1
   7   4   1 47.6989 6.77800   3
   8   4   1 361.914 6.57081  -3
   8   4   1 361.914 6.57081   1
   8   4   1 131.793 4.19418   2
   9   4   1 9.04601 2.74528   2
   9   4   1 22.5472 4.81069  -3
   9   4   1 22.5472 4.81069   1
  -6   5   1 -0.1480 4.62707   2
  -6   5   1 4.81745 8.40657   1
  -5   5   1 49.2825 8.65107   3
  -5   5   1 38.0262 3.57843   2
  -5   5   1 73.9882 4.98498   1
  -5   5   2 88.0030 16.6480  -3
  -5   5   1 88.0030 16.6480   1
  -4   5   1 35.6159 2.81758   2
  -4   5   1 60.6842 3.04811   1
  -4   5   1 43.0904 2.78469   3
  -3   5   1 1.24815 1.17347   1
  -3   5   1 3.70446 1.21278   3
  -3   5   1 4.23742 1.63411   2
  -2   5   1 78.9494 2.63725   1
  -2   5   1 48.9243 2.16425   3
  -2   5   1 44.4669 3.14730   2
  -1   5   1 279.655 5.37483   2
  -1   5   1 302.853 4.16798   3
  -1   5   1 481.202 5.36668   1
  -1   5   2 375.614 12.5479  -2
  -1   5   1 375.614 12.5479   1
   0   5   1 542.826 6.25262   2
   0   5   2 1022.79 9.08002  -2
   0   5   1 1022.79 9.08002   1
   0   5   1 598.304 5.04304   3
   0   5   1 923.538 8.67135   1
   1   5   1 221.761 3.60264   2
   1   5   1 231.187 2.43632   3
   1   5   1 370.524 5.04846   1
   1   5   2 383.116 4.15369  -2
   1   5   1 383.116 4.15369   1
   2   5   1 232.214 8.77452   1
   2   5   2 270.886 2.83297  -2
   2   5   1 270.886 2.83297   1
   2   5   1 130.970 2.58440   2
   2   5   1 149.999 1.83101   3
   3   5   1 113.149 1.89124   3
   3   5   2 206.901 2.74461  -2
   3   5   1 206.901 2.74461   1
   3   5   1 111.998 3.65881   2
   3   5   1 334.068 11.0797  -3
   3   5   2 334.068 11.0797  -2
   3   5   1 334.068 11.0797   1
   4   5   1 11.1751 1.51839   2
   4   5   1 11.7633 0.89946   3
   4   5   2 100.993 2.10417  -2
   4   5   1 100.993 2.10417   1
   5   5   2 361.318 4.75250  -2
   5   5   1 361.318 4.75250   1
   5   5   1 0.85748 0.99376   2
   5   5   1 0.99418 0.83592   3
   6   5   2 712.968 7.47723  -2
   6   5   1 712.968 7.47723   1
   6   5   1 15.4802 1.58310   2
   6   5   1 17.6528 1.51845   3
   7   5   2 167.400 5.62927  -2
   7   5   1 167.400 5.62927   1
   7   5   1 5.32576 3.57391   1
   7   5   1 0.65599 1.31684   2
   7   5   1 -1.2879 1.27752   3
   8   5   1 6.95275 2.05705   3
   8   5   1 8.97867 2.43958   1
   8   5   1 9.60019 1.86690   2
   8   5   2 33.6929 10.5556  -2
   8   5   1 33.6929 10.5556   1
   9   5   1 43.9595 3.65849   2
   9   5   1 92.6659 7.91899  -3
   9   5   1 92.6659 7.91899   1
   9   5   1 39.2527 7.77778   3
   9   5   1 63.1913 8.09028   1
  -5   6   1 4.11308 3.52543   2
  -4   6   1 15.7482 2.24279   2
  -4   6   2 41.6046 4.37419  -3
  -4   6   1 41.6046 4.37419   1
  -3   6   1 9.91432 1.84976   2
  -3   6   2 25.6813 3.77368  -3
  -3   6   1 25.6813 3.77368   1
  -3   6   1 28.4306 7.04139   1
  -2   6   1 326.328 6.32613   1
  -2   6   1 184.123 4.08309   2
  -2   6   1 200.274 4.28596   3
  -2   6   2 362.234 11.4037  -3
  -2   6   1 362.234 11.4037   1
  -1   6   1 806.149 8.44574   2
  -1   6   1 1365.45 11.2280   1
  -1   6   1 863.091 8.31604   3
   0   6   1 254.703 3.42660   2
   0   6   1 437.741 5.26509   1
   0   6   1 269.398 3.47889   3
   1   6   1 37.5569 1.45937   2
   1   6   1 38.6506 1.48033   3
   1   6   1 60.4965 1.66403   1
   2   6   1 113.312 1.81422   3
   2   6   1 107.556 2.05791   2
   2   6   1 168.817 2.20888   1
   2   6   0 255.410 11.5747  -3
   2   6   1 255.410 11.5747   2
   3   6   1 414.696 3.62796   1
   3   6   1 242.926 3.51279   2
   3   6   1 253.968 3.03076   3
   3   6   0 384.502 10.5149  -3
   3   6   1 384.502 10.5149   2
   4   6   1 413.984 4.13187   1
   4   6   0 240.778 6.50497  -3
   4   6   1 240.778 6.50497   2
   4   6   1 250.171 3.21107   3
   4   6   1 242.983 4.25487   2
   5   6   1 5.57837 2.25768   2
   5   6   0 97.3701 4.04128  -3
   5   6   1 97.3701 4.04128   2
   5   6   1 8.69926 1.76477   3
   5   6   1 7.73161 1.11154   1
   6   6   0 159.945 5.97541  -3
   6   6   1 159.945 5.97541   2
   6   6   1 43.9584 4.83475   2
   6   6   1 68.4308 2.61470   1
   7   6   1 36.7181 2.38305   1
   7   6   0 43.1632 5.51849  -3
   7   6   1 43.1632 5.51849   2
   7   6   1 19.3572 4.13594   2
   8   6   1 259.693 5.96340   1
   8   6   0 188.286 11.8465  -3
   8   6   1 188.286 11.8465   2
   8   6   1 164.921 6.97922   2
   9   6   1 96.3688 7.72694   2
   9   6   1 176.719 8.08243   1
  -4   7   1 50.0675 6.57943   2
  -4   7   2 80.2430 14.8172  -3
  -4   7   1 80.2430 14.8172   1
  -3   7   1 42.9320 5.95082   2
  -3   7   2 143.796 6.55649  -3
  -3   7   1 143.796 6.55649   1
  -2   7   1 10.0021 3.14952   2
  -2   7   2 103.391 11.8509  -3
  -2   7   1 103.391 11.8509   1
  -1   7   1 13.9371 2.38503   2
  -1   7   2 25.4374 9.30835  -3
  -1   7   1 25.4374 9.30835   1
   0   7   1 8.03153 1.67838   2
   0   7   1 17.7510 2.02345   1
   0   7   0 43.7696 6.39169  -3
   0   7   1 43.7696 6.39169   2
   0   7   1 16.5407 3.52265   3
   1   7   0 36.2190 3.82184  -3
   1   7   1 36.2190 3.82184   2
   1   7   1 8.17466 1.51565   2
   1   7   1 15.5795 1.33241   1
   1   7   1 7.05222 2.13925   3
   2   7   0 521.700 8.44538  -3
   2   7   1 521.700 8.44538   2
   2   7   1 195.536 4.25677   2
   2   7   1 314.087 3.79882   1
   2   7   1 211.060 8.35033   3
   3   7   1 275.477 3.36594   1
   3   7   0 291.592 4.63925  -3
   3   7   1 291.592 4.63925   2
   3   7   1 178.872 6.41466   3
   3   7   1 171.238 6.27914   2
   4   7   0 12.7373 1.99793  -3
   4   7   1 12.7373 1.99793   2
   4   7   1 21.0484 1.39804   1
   5   7   0 80.7468 3.60062  -3
   5   7   1 80.7468 3.60062   2
   5   7   1 19.7591 1.80477   1
   6   7   0 364.193 7.08652  -3
   6   7   1 364.193 7.08652   2
   6   7   1 94.4923 3.62271   1
   7   7   0 85.6518 5.39866  -3
   7   7   1 85.6518 5.39866   2
   7   7   1 3.39968 1.59061   1
   8   7   0 99.7425 10.6753  -3
   8   7   1 99.7425 10.6753   2
   8   7   1 130.263 5.72384   1
   8   7   1 70.2047 12.1258   2
  -2   8   2 196.323 7.08502  -3
  -2   8   3 196.323 7.08502  -2
  -2   8   1 196.323 7.08502   1
  -1   8   2 768.097 10.6543  -3
  -1   8   3 768.097 10.6543  -2
  -1   8   1 768.097 10.6543   1
   0   8   2 501.930 8.92130  -3
   0   8   3 501.930 8.92130  -2
   0   8   1 501.930 8.92130   1
   0   8   1 220.318 14.3430   2
   1   8   2 177.184 7.89462  -3
   1   8   3 177.184 7.89462  -2
   1   8   1 177.184 7.89462   1
   1   8   1 34.9402 7.17335   2
   2   8   1 26.4086 3.98285   2
   2   8   1 56.5172 3.69169   1
   3   8   1 56.2889 2.34694   1
   3   8   0 35.2753 3.58471  -3
   3   8   1 35.2753 3.58471   2
   4   8   0 75.2842 3.96773  -3
   4   8   1 75.2842 3.96773   2
   4   8   1 79.5767 2.75863   1
   5   8   0 392.770 6.80829  -3
   5   8   1 392.770 6.80829   2
   5   8   1 184.404 4.31208   1
   6   8   1 74.8756 3.41138   1
   6   8   0 406.276 8.08396  -3
   6   8   1 406.276 8.08396   2
   6   8   1 46.7178 7.02263   2
   7   8   1 40.5542 3.34187   1
   7   8   0 64.0495 7.05289  -3
   7   8   1 64.0495 7.05289   2
   7   8   1 27.2488 3.84045   2
   8   8   1 17.3538 4.17059   2
   8   8   1 32.3111 4.21206   1
  -1   9   2 334.868 10.6821  -3
  -1   9   3 334.868 10.6821  -2
  -1   9   1 334.868 10.6821   1
  -1   9   1 137.088 13.9724   2
   0   9   2 417.171 8.19075  -3
   0   9   3 417.171 8.19075  -2
   0   9   1 417.171 8.19075   1
   1   9   2 152.273 5.15264  -3
   1   9   3 152.273 5.15264  -2
   1   9   1 152.273 5.15264   1
   1   9   1 35.7686 7.18051   2
   2   9   2 269.099 6.51247  -3
   2   9   3 269.099 6.51247  -2
   2   9   1 269.099 6.51247   1
   2   9   1 6.44004 6.36009   2
   3   9   2 303.438 6.78771  -3
   3   9   3 303.438 6.78771  -2
   3   9   1 303.438 6.78771   1
   3   9   1 4.12826 1.58912   2
   4   9   2 89.5367 4.96689  -3
   4   9   3 89.5367 4.96689  -2
   4   9   1 89.5367 4.96689   1
   4   9   1 47.0269 2.67668   2
   5   9   1 26.3225 6.13652   3
   5   9   1 29.8299 2.72418   2
   5   9   2 77.6539 6.13036  -3
   5   9   3 77.6539 6.13036  -2
   5   9   1 77.6539 6.13036   1
   6   9   1 9.44220 1.92656   2
   6   9   1 5.37627 2.13068   3
   6   9   3 -5.0811 8.98818  -2
   6   9   1 -5.0811 8.98818   1
   6   9   2 3.96328 15.1440  -3
   6   9   3 3.96328 15.1440  -2
   6   9   1 3.96328 15.1440   1
   7   9   1 3.74298 1.83912   2
   7   9   1 2.17626 2.04924   3
   7   9   2 4.87661 12.0336  -3
   7   9   3 4.87661 12.0336  -2
   7   9   1 4.87661 12.0336   1
   7   9   3 3.76150 9.24702  -2
   7   9   1 3.76150 9.24702   1
   0  10   1 -0.4885 3.72571   2
   1  10   2 90.5421 8.00599  -3
   1  10   1 90.5421 8.00599   1
   1  10   1 5.82723 2.20409   2
   2  10   2 215.422 9.43944  -3
   2  10   1 215.422 9.43944   1
   2  10   1 7.60240 2.01248   2
   2  10   2 351.966 21.8333  -3
   2  10   3 351.966 21.8333  -2
   2  10   1 351.966 21.8333   1
   3  10   1 19.0805 2.07825   2
   3  10   2 147.826 6.97100  -3
   3  10   1 147.826 6.97100   1
   3  10   2 161.182 16.4839  -3
   3  10   3 161.182 16.4839  -2
   3  10   1 161.182 16.4839   1
   4  10   1 3.03077 1.69777   2
   4  10   2 26.2523 4.59739  -3
   4  10   1 26.2523 4.59739   1
   4  10   2 20.6555 13.4252  -3
   4  10   3 20.6555 13.4252  -2
   4  10   1 20.6555 13.4252   1
   5  10   1 54.3469 3.91483   2
   5  10   2 111.010 6.70399  -3
   5  10   1 111.010 6.70399   1
   5  10   3 293.284 20.6645  -2
   5  10   1 293.284 20.6645   1
   5  10   2 294.706 15.6105  -3
   5  10   3 294.706 15.6105  -2
   5  10   1 294.706 15.6105   1
   6  10   1 66.1915 4.73347   2
   6  10   2 161.649 9.33871  -3
   6  10   1 161.649 9.33871   1
   6  10   2 441.849 25.4437  -3
   6  10   3 441.849 25.4437  -2
   6  10   1 441.849 25.4437   1
   2  11   1 7.17707 8.78588   2
   2  11   2 10.8221 12.8406  -3
   2  11   1 10.8221 12.8406   1
   3  11   2 7.69915 8.11335  -3
   3  11   1 7.69915 8.11335   1
   3  11   1 4.95384 5.42802   2
   4  11   1 49.6551 9.97085   2
   5  11   1 152.257 17.2162   2
  -5 -10   2 132.026 16.3522   1
  -4 -10   2 -2.8098 2.42844   2
  -4 -10   2 -2.6386 2.72603   3
  -4 -10   2 -3.2240 2.70124   1
  -4 -10   1 23.4933 14.2168  -3
  -4 -10   2 23.4933 14.2168   1
  -3 -10   2 -1.0914 1.75401   2
  -3 -10   2 2.42987 1.96950   3
  -3 -10   1 104.161 6.60023  -3
  -3 -10   2 104.161 6.60023   1
  -2 -10   2 31.9911 2.81234   2
  -2 -10   2 28.6425 3.41451   3
  -2 -10   1 137.702 9.82123  -3
  -2 -10   2 137.702 9.82123   1
  -1 -10   2 13.5677 3.81139   2
  -1 -10   2 23.3329 4.42974   3
  -1 -10   1 29.6801 10.3014  -3
  -1 -10   2 29.6801 10.3014   1
  -6  -9   2 11.6708 3.35097   2
  -6  -9   2 25.6630 3.42230   1
  -6  -9   2 16.8208 3.48120   3
  -5  -9   2 84.6215 4.65092   1
  -5  -9   2 49.1162 3.81382   3
  -5  -9   2 39.7177 3.55067   2
  -4  -9   2 25.8333 2.96523   3
  -4  -9   2 30.6409 3.20293   2
  -4  -9   2 40.5599 4.09183   1
  -4  -9   1 97.7832 8.01152  -3
  -4  -9   2 97.7832 8.01152   1
  -3  -9   2 -0.2674 1.30691   2
  -3  -9   2 4.79801 1.79478   3
  -3  -9   1 167.548 4.83809  -3
  -3  -9   2 167.548 4.83809   1
  -2  -9   2 32.4133 3.61275   3
  -2  -9   2 20.6244 2.03185   2
  -2  -9   1 200.889 5.68686  -3
  -2  -9   2 200.889 5.68686   1
  -1  -9   2 -1.2212 1.32092   2
  -1  -9   1 81.3491 5.26329  -3
  -1  -9   2 81.3491 5.26329   1
  -1  -9   2 5.16346 3.53920   3
   0  -9   1 260.861 8.91648  -3
   0  -9   2 260.861 8.91648   1
   0  -9   2 123.230 5.32690   2
   1  -9   2 88.3547 5.31941   2
   1  -9   1 220.816 12.7919  -3
   1  -9   2 220.816 12.7919   1
   2  -9   2 22.8562 5.38351   2
  -7  -8   2 4.34177 2.67049   2
  -7  -8   2 19.0748 2.77316   1
  -7  -8   2 2.13875 2.37974   3
  -6  -8   2 153.599 4.99609   2
  -6  -8   2 263.264 5.90632   1
  -6  -8   2 161.008 5.10411   3
  -5  -8   2 418.154 7.56288   1
  -5  -8   2 241.490 5.42761   3
  -5  -8   2 240.014 5.32731   2
  -4  -8   2 6.00390 1.58947   1
  -4  -8   2 5.80390 1.96774   2
  -4  -8   2 3.09995 1.87008   3
  -3  -8   2 44.0998 2.53488   1
  -3  -8   2 25.6530 2.07914   2
  -3  -8   1 68.4759 11.9663  -3
  -3  -8   2 68.4759 11.9663   1
  -3  -8   2 30.2741 2.14177   3
  -2  -8   2 3.33824 1.22345   2
  -2  -8   1 47.7272 9.17933  -3
   2   8   0 47.7272 9.17933  -2
  -2  -8   2 47.7272 9.17933   1
  -2  -8   2 2.67524 1.29819   3
  -2  -8   1 62.1770 5.88902  -3
  -2  -8   2 62.1770 5.88902   1
  -2  -8   2 4.36877 2.24984   1
  -1  -8   1 207.468 11.4466  -3
   1   8   0 207.468 11.4466  -2
  -1  -8   2 207.468 11.4466   1
  -1  -8   2 75.9980 3.09226   2
  -1  -8   1 157.153 7.19601  -3
  -1  -8   2 157.153 7.19601   1
   0  -8   2 122.105 4.15399   2
   0  -8   1 395.323 10.7093  -3
   0  -8   2 395.323 10.7093   1
   0  -8   2 116.115 10.9619   3
   1  -8   2 35.6787 2.77735   2
   1  -8   1 159.842 13.5202  -3
   1  -8   2 159.842 13.5202   1
   2  -8   2 11.5292 2.14244   2
   2  -8   1 31.2454 15.8180  -3
  -2   8   0 31.2454 15.8180  -2
   2  -8   2 31.2454 15.8180   1
   2  -8   1 42.5037 11.0303  -3
   2  -8   2 42.5037 11.0303   1
   3  -8   2 95.6139 5.87508   2
  -8  -7   2 49.2769 6.34061   2
  -7  -7   2 4.43380 1.79140   1
  -7  -7   2 1.01682 1.73780   3
  -7  -7   2 1.83402 1.73198   2
  -6  -7   2 82.7060 3.69034   1
  -6  -7   2 47.8145 3.02342   3
  -6  -7   2 56.0517 3.18018   2
  -5  -7   2 37.3903 2.49504   2
  -5  -7   2 38.6034 2.56047   3
  -5  -7   2 68.8037 3.11540   1
  -4  -7   2 30.7440 2.13547   1
  -4  -7   2 20.6525 1.70367   2
  -4  -7   2 19.6840 1.92172   3
  -3  -7   2 190.533 3.71034   1
  -3  -7   2 121.916 3.08488   3
  -3  -7   2 113.771 2.91662   2
  -2  -7   2 10.6565 1.26903   3
  -2  -7   2 8.15527 1.27983   2
  -2  -7   2 13.3878 1.32863   1
  -1  -7   2 0.76496 0.92006   1
  -1  -7   2 0.57375 0.95971   2
  -1  -7   2 -0.0196 0.94533   3
  -1  -7   1 219.971 14.7298  -3
   1   7   0 219.971 14.7298  -2
  -1  -7   2 219.971 14.7298   1
   0  -7   2 9.91294 1.39801   3
   0  -7   2 9.63992 1.21084   2
   0  -7   2 20.7335 1.75286   1
   0  -7   1 59.1788 7.10539  -3
   0  -7   2 59.1788 7.10539   1
   1  -7   2 2.94893 1.17453   2
   1  -7   1 4.42601 3.76849  -3
   1  -7   2 4.42601 3.76849   1
   1  -7   2 10.5522 2.87954   1
   1  -7   2 3.86707 2.00072   3
   2  -7   2 0.59499 1.46936   2
   2  -7   1 51.0255 4.35089  -3
   2  -7   2 51.0255 4.35089   1
   2  -7   2 3.05805 4.23023   3
   3  -7   1 83.9662 5.12624  -3
   3  -7   2 83.9662 5.12624   1
   3  -7   2 32.8127 2.60389   2
   4  -7   1 159.852 16.2412  -3
   4  -7   2 159.852 16.2412   1
   4  -7   2 75.3702 4.44249   2
   4  -7   1 241.596 20.0894  -3
  -4   7   0 241.596 20.0894  -2
   4  -7   2 241.596 20.0894   1
  -8  -6   2 112.255 7.81760   1
  -8  -6   2 68.4615 5.40881   2
  -8  -6   2 69.2065 6.51221   3
  -7  -6   2 2.90783 1.79236   2
  -7  -6   2 3.33429 1.80067   3
  -7  -6   2 7.33848 1.97881   1
  -6  -6   2 28.6131 2.40511   3
  -6  -6   2 24.6738 2.46747   2
  -6  -6   2 45.0670 2.95911   1
  -5  -6   2 74.6239 3.17201   3
  -5  -6   2 67.4907 3.04491   2
  -5  -6   2 124.048 3.63798   1
  -4  -6   2 10.6198 1.22677   2
  -4  -6   2 14.4048 1.54589   3
  -4  -6   2 23.7582 1.77444   1
  -3  -6   2 4.84624 0.91772   3
  -3  -6   2 7.15955 0.94487   1
  -3  -6   2 6.30893 0.96799   2
  -2  -6   2 19.9007 1.33761   3
  -2  -6   2 19.3575 1.36022   2
  -2  -6   2 34.3091 1.58204   1
  -1  -6   2 228.695 3.20664   2
  -1  -6   2 242.585 3.41083   3
  -1  -6   2 387.063 4.27150   1
   0  -6   2 815.957 6.88204   3
   0  -6   2 766.471 6.45561   2
   0  -6   2 1312.36 9.25795   1
   1  -6   2 357.974 4.45277   3
   1  -6   2 341.582 4.51023   2
   1  -6   2 579.883 5.77394   1
   2  -6   2 12.5036 1.52062   3
   2  -6   2 12.9645 1.30435   2
   2  -6   2 21.0276 2.09368   1
   2  -6   1 131.911 8.59242  -3
   2  -6   2 131.911 8.59242   1
   3  -6   2 0.64980 1.32436   2
   3  -6   2 0.27914 1.62113   1
   3  -6   2 -1.4702 1.41829   3
   3  -6   1 26.3201 6.01977  -3
   3  -6   2 26.3201 6.01977   1
   4  -6   1 21.3082 4.00962  -3
   4  -6   2 21.3082 4.00962   1
   4  -6   2 4.41532 1.88580   2
   5  -6   2 14.0909 2.68120   2
   5  -6   1 48.1332 7.86229  -3
   5  -6   2 48.1332 7.86229   1
  -8  -5   2 1.29276 2.49936   3
  -8  -5   2 3.29232 2.47488   2
  -8  -5   2 1.76313 2.53476   1
  -7  -5   2 3.32611 1.66453   3
  -7  -5   2 2.18688 1.69922   1
  -7  -5   2 -0.1064 1.66138   2
  -6  -5   2 71.4252 3.45390   1
  -6  -5   2 34.5837 2.60257   2
  -6  -5   2 45.8950 3.01760   3
  -5  -5   2 273.883 5.01828   1
  -5  -5   2 170.541 3.95751   3
  -5  -5   2 164.713 4.00856   2
  -4  -5   2 0.27137 0.87139   3
  -4  -5   2 0.14157 0.79221   1
  -4  -5   2 -0.7376 0.76174   2
  -3  -5   2 257.887 3.46155   3
  -3  -5   2 407.134 4.21684   1
  -3  -5   2 233.238 3.31656   2
  -2  -5   2 123.340 2.34179   2
  -2  -5   2 216.062 2.59919   1
  -2  -5   2 135.991 2.35611   3
  -1  -5   2 33.1135 1.25936   1
  -1  -5   2 19.6073 1.07328   3
  -1  -5   2 17.8875 1.02759   2
   0  -5   2 557.776 4.89627   2
   0  -5   2 956.415 6.95107   1
   0  -5   2 604.051 5.46238   3
   1  -5   2 1032.90 7.82434   1
   1  -5   2 615.263 5.58627   2
   1  -5   2 653.923 5.83444   3
   2  -5   2 76.9934 2.20001   1
   2  -5   2 48.9587 1.90796   3
   2  -5   2 46.6875 1.85747   2
   3  -5   2 20.0789 1.71997   3
   3  -5   2 33.7323 2.04806   1
   3  -5   2 22.0861 1.74053   2
   4  -5   2 142.044 4.80006   1
   4  -5   2 89.7662 3.50133   3
   4  -5   1 256.676 15.5684  -3
   4  -5   2 256.676 15.5684   1
   4  -5   2 89.9869 4.06906   2
   5  -5   2 34.3208 3.02037   2
   5  -5   1 76.3037 6.85202  -3
   5  -5   2 76.3037 6.85202   1
   5  -5   2 31.8323 4.24273   3
   5  -5   1 62.8591 13.9935  -3
   5  -5   1 62.8591 13.9935  -2
   5  -5   2 62.8591 13.9935   1
   6  -5   1 22.6200 10.5471  -3
   6  -5   2 22.6200 10.5471   1
   6  -5   2 3.91850 3.13453   2
  -8  -4   2 46.6631 4.25076   2
  -8  -4   2 57.6532 4.25074   3
  -8  -4   2 84.2658 4.20427   1
  -7  -4   2 1.73365 1.41412   2
  -7  -4   2 -0.3185 1.39832   3
  -7  -4   2 0.41799 1.37696   1
  -6  -4   2 2.30956 1.28668   3
  -6  -4   2 -1.1214 1.16476   2
  -6  -4   2 2.24489 1.20649   1
  -5  -4   2 0.39678 1.01222   3
  -5  -4   2 -1.6684 0.93452   2
  -5  -4   2 2.19538 0.99535   1
  -4  -4   2 81.9349 2.06805   3
  -4  -4   2 80.8720 2.03065   2
  -4  -4   2 131.111 2.40402   1
  -3  -4   2 545.883 4.64716   2
  -3  -4   2 906.138 6.43125   1
  -3  -4   2 575.262 4.79062   3
  -2  -4   2 251.213 2.38139   2
  -2  -4   2 266.152 2.49592   3
  -2  -4   2 431.022 3.30275   1
  -1  -4   2 141.190 1.96794   1
  -1  -4   2 83.2890 1.52726   2
  -1  -4   2 86.3937 1.62747   3
   0  -4   2 587.792 4.30794   1
   0  -4   2 341.899 3.10185   2
   0  -4   2 370.788 3.40631   3
   1  -4   2 293.498 3.02272   1
   1  -4   2 166.321 2.01473   2
   1  -4   2 184.449 2.41452   3
   2  -4   2 1.57773 0.69494   2
   2  -4   2 3.06687 0.73176   1
   2  -4   2 2.39633 0.72637   3
   2  -4   1 284.380 13.0682  -2
   2  -4   2 284.380 13.0682   1
   3  -4   2 108.073 2.33533   3
   3  -4   2 167.777 3.39646   1
   3  -4   2 105.475 2.29895   2
   3  -4   1 272.989 7.71037  -2
   3  -4   2 272.989 7.71037   1
   4  -4   1 309.786 6.11710  -2
   4  -4   2 309.786 6.11710   1
   4  -4   2 149.187 3.17239   2
   4  -4   2 155.137 3.41713   3
   4  -4   2 233.266 7.18221   1
   5  -4   2 5.49713 1.63031   3
   5  -4   2 5.20604 1.59733   2
   5  -4   1 83.5180 4.62163  -2
   5  -4   2 83.5180 4.62163   1
   6  -4   2 102.696 5.35456   2
   6  -4   1 264.147 9.05183  -2
   6  -4   2 264.147 9.05183   1
   6  -4   2 102.743 6.02825   3
  -8  -3   2 91.0577 5.33185   3
  -8  -3   2 152.585 6.71483   1
  -8  -3   2 79.2171 5.60944   2
  -7  -3   2 11.9859 1.92478   3
  -7  -3   2 11.1709 2.10446   2
  -7  -3   2 17.9546 2.07195   1
  -6  -3   2 72.3623 2.95401   1
  -6  -3   2 44.4715 2.45126   2
  -6  -3   2 44.1861 2.43301   3
  -5  -3   2 63.2427 2.43421   2
  -5  -3   2 99.8920 2.80341   1
  -5  -3   2 66.9695 2.48601   3
  -4  -3   2 221.711 2.86818   3
  -4  -3   2 356.532 3.76551   1
  -4  -3   2 207.995 2.85695   2
  -3  -3   2 185.967 2.41338   1
  -3  -3   2 112.889 1.91288   3
  -3  -3   2 117.046 1.99569   2
  -2  -3   2 -0.4001 0.44920   3
  -2  -3   2 0.42853 0.46402   2
  -2  -3   2 0.07731 0.39311   1
  -1  -3   2 14.7641 0.71391   3
  -1  -3   2 22.8184 0.78925   1
  -1  -3   2 12.6125 0.60912   2
   0  -3   2 1862.45 10.2927   2
   0  -3   2 3168.02 15.6366   1
   0  -3   2 2006.32 11.4411   3
   1  -3   2 2093.87 10.9451   2
   1  -3   2 2242.26 11.5992   3
   1  -3   2 3553.72 18.2231   1
   2  -3   2 121.674 1.94852   1
   2  -3   2 70.2167 1.42506   2
   2  -3   2 75.7084 1.41818   3
   3  -3   2 59.5170 1.80124   3
   3  -3   2 91.6633 2.00719   1
   3  -3   2 52.3491 1.63884   2
   4  -3   2 3.26663 0.94604   2
   4  -3   2 1.71669 0.93481   3
   4  -3   2 4.37168 1.10398   1
   4  -3   1 68.5300 8.60540  -2
   4  -3   2 68.5300 8.60540   1
   4  -3   2 28.5925 7.63545  -3
   4  -3   2 28.5925 7.63545   2
   5  -3   2 83.8442 3.24516   3
   5  -3   1 260.362 8.55884  -2
   5  -3   2 260.362 8.55884   1
   5  -3   2 173.667 11.8900  -3
   5  -3   2 173.667 11.8900   2
   5  -3   2 83.5331 3.35989   2
   5  -3   2 134.175 7.19226   1
   6  -3   1 421.975 23.4674  -2
   6  -3   2 421.975 23.4674   1
   6  -3   2 129.169 7.73236   2
   6  -3   2 118.568 6.03038   3
   6  -3   2 238.723 15.0872  -3
   6  -3   2 238.723 15.0872   2
   7  -3   2 -3.3843 4.28297   3
   7  -3   1 59.6093 15.0126  -2
   7  -3   2 59.6093 15.0126   1
  -8  -2   2 -0.1500 2.45103   3
  -8  -2   2 -1.1420 2.12423   1
  -8  -2   2 -1.1401 2.53946   2
  -7  -2   2 15.7423 2.57184   3
  -7  -2   2 16.6141 2.43045   2
  -7  -2   2 24.8020 2.92222   1
  -6  -2   2 32.0971 2.08978   2
  -6  -2   2 51.2647 2.54506   1
  -6  -2   2 29.4843 2.00085   3
  -5  -2   2 0.17175 0.94699   2
  -5  -2   2 2.44423 1.11055   1
  -5  -2   2 1.64168 1.06722   3
  -5  -2   2 -1.1244 5.21611  -3
  -5  -2   2 -1.1244 5.21611   1
  -4  -2   2 68.9972 1.52748   3
  -4  -2   2 61.1245 1.55082   2
  -4  -2   2 109.691 1.92931   1
  -3  -2   2 715.327 5.05283   2
  -3  -2   2 768.571 5.22196   3
  -3  -2   2 1222.23 7.92845   1
  -2  -2   2 181.175 2.12567   3
  -2  -2   2 283.477 2.69827   1
  -2  -2   2 158.550 1.67342   2
  -1  -2   2 173.887 1.54736   2
  -1  -2   2 301.487 2.16820   1
  -1  -2   2 191.168 1.72034   3
  -1  -2   2 468.754 12.7833  -3
  -1  -2   2 468.754 12.7833   1
   0  -2   2 434.879 2.71253   2
   0  -2   2 750.298 4.47590   1
   0  -2   2 476.843 3.05405   3
   1  -2   2 211.902 2.01199   2
   1  -2   2 349.422 2.50083   1
   1  -2   2 217.399 1.90452   3
   2  -2   2 57.1798 1.10336   2
   2  -2   2 64.1727 1.13650   3
   2  -2   2 98.9572 1.36578   1
   3  -2   2 0.47974 0.51427   1
   3  -2   2 0.03094 0.57529   3
   3  -2   2 0.06637 0.57602   2
   3  -2   2 1.19980 3.34269  -3
   3  -2   2 1.19980 3.34269   2
   4  -2   2 219.727 2.81672   1
   4  -2   2 134.266 3.49935   3
   4  -2   2 133.346 3.53074   2
   4  -2   2 268.452 4.42642  -3
   4  -2   2 268.452 4.42642   2
   5  -2   2 11.8741 2.65780  -3
   5  -2   2 11.8741 2.65780   2
   5  -2   2 7.73924 1.29761   1
   5  -2   2 7.73905 2.80200   3
   5  -2   2 6.95750 3.13062   2
   6  -2   2 79.3885 4.98392  -3
   6  -2   2 79.3885 4.98392   2
   6  -2   2 61.4720 3.77367   1
   7  -2   2 24.0164 2.99342   1
   7  -2   2 26.4797 4.39837  -3
   7  -2   2 26.4797 4.39837   2
   8  -2   2 11.3112 3.34827   1
   8  -2   2 -1.2754 8.22020  -3
   8  -2   2 -1.2754 8.22020   2
  -8  -1   2 149.881 8.30923   1
  -8  -1   2 101.171 7.34582   2
  -8  -1   2 97.1275 7.11772   3
  -7  -1   2 3.82595 2.14466   2
  -7  -1   2 6.46367 2.23182   1
  -7  -1   2 3.34415 2.12334   3
  -6  -1   2 74.2685 3.60268   2
  -6  -1   2 84.8662 3.74860   3
  -6  -1   2 146.524 4.20530   1
  -5  -1   2 17.9969 1.65259   1
  -5  -1   2 10.7763 1.14814   2
  -5  -1   2 8.59552 1.18606   3
  -5  -1   2 20.8785 5.78478  -3
  -5  -1   2 20.8785 5.78478   1
  -4  -1   2 796.602 5.80544   2
  -4  -1   2 1395.22 8.65690   1
  -4  -1   2 857.821 6.01491   3
  -3  -1   2 2488.65 13.9388   3
  -3  -1   2 3953.53 21.0974   1
  -3  -1   2 2347.21 12.7562   2
  -3  -1   2 6473.21 108.233  -3
  -3  -1   2 6473.21 108.233   1
  -2  -1   2 476.075 3.40932   2
  -2  -1   2 800.500 5.57124   1
  -2  -1   2 500.337 3.93301   3
  -2  -1   2 1285.36 17.6284  -3
  -2  -1   2 1285.36 17.6284   1
  -1  -1   2 587.121 3.55611   3
  -1  -1   2 551.580 3.29978   2
  -1  -1   2 936.316 5.42616   1
  -1  -1   2 1553.04 27.5963  -3
  -1  -1   2 1553.04 27.5963   1
   0  -1   2 624.476 3.74216   1
   0  -1   2 393.506 2.48310   3
   0  -1   2 365.978 2.23903   2
   0  -1   2 732.971 14.2246  -3
   0  -1   2 732.971 14.2246   2
   0  -1   2 1045.95 20.3117  -3
   0  -1   2 1045.95 20.3117   1
   1  -1   2 1538.51 7.75000   2
   1  -1   2 1678.85 9.56576   3
   1  -1   2 2678.74 13.9278   1
   1  -1   2 4356.69 42.2888  -3
   1  -1   2 4356.69 42.2888   1
   2  -1   2 155.677 2.04546   3
   2  -1   2 413.766 5.01804  -3
   2  -1   2 413.766 5.01804   1
   2  -1   2 142.421 1.61921   2
   2  -1   2 252.071 2.67675   1
   2  -1   2 300.309 7.78701  -3
   2  -1   2 300.309 7.78701   2
   3  -1   2 100.255 1.76316   1
   3  -1   2 123.102 3.41080  -3
   3  -1   2 123.102 3.41080   2
   3  -1   2 55.7573 1.53583   2
   3  -1   2 64.5585 1.84105   3
   3  -1   2 155.932 5.53696  -3
   3  -1   2 155.932 5.53696   1
   4  -1   2 102.817 2.10813  -3
   4  -1   2 102.817 2.10813   2
   4  -1   2 82.0268 1.69260   1
   4  -1   2 41.3377 5.78064   2
   4  -1   2 47.8613 5.62747   3
   5  -1   2 314.002 3.85891   1
   5  -1   2 392.408 5.07343  -3
   5  -1   2 392.408 5.07343   2
   6  -1   2 1133.05 12.9506  -3
   6  -1   2 1133.05 12.9506   2
   6  -1   2 927.033 10.2505   1
   7  -1   2 137.045 5.34747   1
   7  -1   2 159.311 5.80410  -3
   7  -1   2 159.311 5.80410   2
   8  -1   2 3.56204 3.40675  -3
   8  -1   2 3.56204 3.40675   2
   8  -1   2 0.94466 2.32176   1
  -8   0   2 25.9239 12.0214   1
  -8   0   2 22.1528 9.94746   3
  -7   0   2 38.9345 3.93991   2
  -7   0   2 37.1101 3.60779   3
  -7   0   2 61.2690 4.61054   1
  -6   0   2 204.560 5.21998   1
  -6   0   2 114.497 3.81282   2
  -6   0   2 123.452 4.32534   3
  -5   0   2 0.76805 0.83325   1
  -5   0   2 -0.6914 0.99035   3
  -5   0   2 1.81794 1.11487   2
  -4   0   2 57.4325 1.52638   1
  -4   0   2 33.4735 1.28206   2
  -4   0   2 34.6323 1.20606   3
  -3   0   2 8.48717 0.68478   1
  -3   0   2 6.07128 0.60232   2
  -3   0   2 5.22016 0.58980   3
  -2   0   2 177.476 2.52484   3
  -2   0   2 172.411 1.99857   2
  -2   0   2 291.709 3.01111   1
  -2   0   2 360.663 6.73960  -3
  -2   0   2 360.663 6.73960   2
  -2   0   2 461.465 6.50172  -3
  -2   0   2 461.465 6.50172   1
  -1   0   2 778.199 5.65669   3
  -1   0   2 1223.57 7.87753   1
  -1   0   2 700.232 4.23274   2
  -1   0   2 2055.83 17.9579  -3
  -1   0   2 2055.83 17.9579   1
  -1   0   2 1438.04 25.8796  -3
  -1   0   2 1438.04 25.8796   2
   0   0   2 2392.08 10.8353   2
   0   0   2 4134.86 18.9438   1
   0   0   2 2620.19 12.2375   3
   0   0   2 6728.68 111.122  -3
   0   0   2 6728.68 111.122   1
   1   0   2 1549.19 9.03749   3
   1   0   2 2469.13 13.2683   1
   1   0   2 1433.75 6.98058   2
   1   0   2 3949.67 33.0515  -3
   1   0   2 3949.67 33.0515   1
   1   0   2 2930.10 35.5315  -3
   1   0   2 2930.10 35.5315   2
   2   0   2 366.607 2.97321   2
   2   0   2 627.036 4.72119   1
   2   0   2 1031.25 10.3886  -3
   2   0   2 1031.25 10.3886   1
   2   0   2 393.288 3.86327   3
   2   0   2 762.118 10.5615  -3
   2   0   2 762.118 10.5615   2
   3   0   2 547.090 6.23999   1
   3   0   2 310.417 4.25138   2
   3   0   2 852.945 16.5448  -2
   3   0   2 852.945 16.5448   1
   3   0   2 681.713 7.58493  -3
   3   0   2 681.713 7.58493   2
   3   0   2 345.627 7.71387   3
   3   0   2 929.674 9.58721  -3
   3   0   2 929.674 9.58721   1
   4   0   2 2.02225 3.79667  -3
   4   0   2 2.02225 3.79667   1
   4   0   2 5.78636 1.84518  -3
   4   0   2 5.78636 1.84518   2
   4   0   2 3.65700 0.98336   1
   4   0   2 12.9362 4.33685  -3
   4   0   2 12.9362 4.33685  -2
   4   0   2 12.9362 4.33685   1
   4   0   2 2.52030 1.87915   2
   5   0   2 470.959 9.20372  -3
   5   0   2 470.959 9.20372  -2
   5   0   2 470.959 9.20372   1
   5   0   2 197.316 6.18925   1
   5   0   2 245.515 7.99031  -3
   5   0   2 245.515 7.99031   2
   6   0   2 842.690 13.2546  -3
   6   0   2 842.690 13.2546  -2
   6   0   2 842.690 13.2546   1
   6   0   2 673.792 25.4097  -2
   6   0   2 673.792 25.4097   1
   7   0   2 258.975 18.0262  -2
   7   0   2 258.975 18.0262   1
   7   0   2 83.8319 9.73903   3
   8   0   2 83.4766 12.6175  -3
   8   0   2 83.4766 12.6175  -2
   8   0   2 83.4766 12.6175   1
  -7   1   2 61.3693 5.82660   1
  -7   1   2 27.1635 4.38714   2
  -7   1   2 33.5875 4.67541   3
  -6   1   2 18.6262 2.03658   1
  -6   1   2 9.88712 1.89619   2
  -6   1   2 10.2994 1.78631   3
  -5   1   2 5.93925 1.45078   2
  -5   1   2 8.73853 1.38531   1
  -5   1   2 6.99232 1.47736   3
  -5   1   2 11.9602 6.07711  -3
  -5   1   2 11.9602 6.07711   2
  -4   1   2 535.757 4.13357   1
  -4   1   2 648.999 13.0639  -3
  -4   1   2 648.999 13.0639   2
  -4   1   2 328.050 3.68507   3
  -4   1   2 300.551 3.78711   2
  -3   1   2 1442.12 9.07066   2
  -3   1   2 1544.86 9.49198   3
  -3   1   2 2462.29 12.8642   1
  -3   1   2 3020.07 30.9210  -3
  -3   1   2 3020.07 30.9210   2
  -2   1   2 636.297 4.31098   1
  -2   1   2 358.763 3.30492   2
  -2   1   2 394.920 3.43270   3
  -2   1   2 749.068 10.6907  -3
  -2   1   2 749.068 10.6907   2
  -2   1   2 992.297 21.7792  -3
  -2   1   2 992.297 21.7792   1
  -1   1   2 1191.90 6.99142   1
  -1   1   2 696.731 4.06913   2
  -1   1   2 739.438 4.65903   3
  -1   1   2 1890.18 23.5347  -3
  -1   1   2 1890.18 23.5347   1
   0   1   2 321.459 2.01264   2
   0   1   2 576.532 3.58236   1
   0   1   2 359.021 2.55006   3
   0   1   2 922.450 12.9524  -3
   0   1   2 922.450 12.9524   1
   1   1   2 5.57188 0.38312   3
   1   1   2 8.89559 0.41954   1
   1   1   2 5.66385 2.35478  -3
   1   1   2 5.66385 2.35478   2
   1   1   2 5.75633 0.32474   2
   1   1   2 15.6592 1.23380  -3
   1   1   2 15.6592 1.23380   1
   2   1   2 613.615 13.0191  -3
   2   1   2 613.615 13.0191   2
   2   1   2 512.360 3.71629   1
   2   1   2 292.699 2.13733   2
   2   1   2 816.339 11.9125  -3
   2   1   2 816.339 11.9125   1
   2   1   2 323.790 2.84463   3
   3   1   2 232.373 2.06473   2
   3   1   2 646.375 4.15132  -3
   3   1   2 646.375 4.15132   1
   3   1   2 913.424 18.8860  -3
   3   1   2 913.424 18.8860  -2
   3   1   2 913.424 18.8860   1
   4   1   2 0.34061 0.48909   2
   4   1   2 0.93006 0.95738  -3
   4   1   2 0.93006 0.95738   1
   4   1   2 2.83685 4.47478  -3
   4   1   2 2.83685 4.47478  -2
   4   1   2 2.83685 4.47478   1
   5   1   2 247.276 5.72068  -3
   5   1   2 247.276 5.72068  -2
   5   1   2 247.276 5.72068   1
   6   1   2 974.961 14.7977  -3
   6   1   2 974.961 14.7977  -2
   6   1   2 974.961 14.7977   1
   7   1   2 120.298 5.77172  -3
   7   1   2 120.298 5.77172  -2
   7   1   2 120.298 5.77172   1
   8   1   2 67.3334 5.96616  -3
   8   1   2 67.3334 5.96616  -2
   8   1   2 67.3334 5.96616   1
   9   1   2 302.625 24.8055  -3
   9   1   2 302.625 24.8055  -2
   9   1   2 302.625 24.8055   1
  -7   2   2 0.83904 3.20658   2
  -7   2   2 1.13025 3.94278   1
  -7   2   2 -1.9519 3.79166   3
  -6   2   2 5.42227 2.03329   3
  -6   2   2 3.88015 2.09410   2
  -6   2   2 13.0406 2.47507   1
  -5   2   2 43.1300 2.85736   3
  -5   2   2 68.5525 3.10678   1
  -5   2   2 35.8157 2.66332   2
  -4   2   2 316.179 3.66518   3
  -4   2   2 295.586 3.78845   2
  -4   2   2 500.874 4.78542   1
  -3   2   2 725.100 5.86398   2
  -3   2   2 771.743 6.05076   3
  -3   2   2 1250.67 8.54918   1
  -2   2   2 479.506 4.46277   3
  -2   2   2 457.461 4.37529   2
  -2   2   2 776.646 5.92455   1
  -2   2   2 944.839 22.3717  -3
  -2   2   2 944.839 22.3717   2
  -1   2   2 4.85952 0.61001   3
  -1   2   2 4.45119 0.61856   2
  -1   2   2 0.25105 4.28523  -3
  -1   2   2 0.25105 4.28523   2
  -1   2   2 8.30540 0.65175   1
   0   2   2 283.650 2.20574   3
   0   2   2 457.616 3.00747   1
   0   2   2 262.770 1.80556   2
   1   2   2 608.577 3.77650   3
   1   2   2 978.639 5.11663   1
   1   2   2 569.365 3.40078   2
   1   2   2 1545.84 16.4755  -3
   1   2   2 1545.84 16.4755   1
   2   2   2 55.3244 1.05980   1
   2   2   2 34.5168 0.79396   3
   2   2   2 29.8293 0.60779   2
   2   2   2 92.9081 1.97965  -3
   2   2   2 92.9081 1.97965   1
   3   2   2 94.5122 1.66159  -3
   3   2   2 94.5122 1.66159   1
   3   2   2 36.4412 1.39530   3
   3   2   2 58.1268 1.81816   1
   3   2   2 35.3945 0.83621   2
   4   2   2 39.3248 1.43048  -3
   4   2   2 39.3248 1.43048   1
   4   2   2 13.6772 0.87017   2
   5   2   2 146.204 2.50163   2
   5   2   2 420.629 4.27436  -3
   5   2   2 420.629 4.27436   1
   6   2   2 764.490 7.27082   2
   6   2   2 2126.70 14.7454  -3
   6   2   2 2126.70 14.7454   1
   7   2   2 367.523 5.60113   2
   7   2   2 1007.49 10.1217  -3
   7   2   2 1007.49 10.1217   1
   8   2   2 17.6871 3.63757   2
   8   2   2 34.7439 8.99410  -3
   8   2   2 34.7439 8.99410   1
   9   2   2 9.49733 8.55864  -3
   9   2   2 9.49733 8.55864   1
   9   2   2 2.49767 3.02217   2
  -7   3   2 74.9762 11.6312   3
  -7   3   2 60.2261 10.0677   2
  -6   3   2 70.4784 5.06589   2
  -6   3   2 130.092 6.08921   1
  -6   3   2 80.9804 5.51117   3
  -5   3   2 0.40806 1.52671   3
  -5   3   2 3.76589 1.71624   2
  -5   3   2 -0.7909 1.63354   1
  -4   3   2 10.1131 1.27595   3
  -4   3   2 24.2787 1.54682   1
  -4   3   2 13.0671 1.46512   2
  -3   3   2 1.97286 0.78748   3
  -3   3   2 2.57233 0.79946   2
  -3   3   2 5.73929 0.90353   1
  -2   3   2 2.62695 0.62509   2
  -2   3   2 4.00503 0.69165   1
  -2   3   2 3.23075 0.67120   3
  -1   3   2 40.1411 1.18489   2
  -1   3   2 77.1092 1.57397   1
  -1   3   2 52.1059 1.37606   3
   0   3   2 135.110 1.54227   2
   0   3   2 240.573 1.82214   1
   0   3   2 152.491 1.68231   3
   1   3   2 193.011 1.67973   3
   1   3   2 180.880 1.52937   2
   1   3   2 304.346 2.19371   1
   2   3   2 338.034 2.64082   1
   2   3   2 565.124 10.5417  -3
   2   3   2 565.124 10.5417   1
   2   3   2 213.198 1.90559   3
   2   3   2 197.829 1.70385   2
   3   3   2 508.909 3.56861   2
   3   3   2 1421.37 14.6263  -3
   3   3   2 1421.37 14.6263   1
   3   3   2 544.199 4.22487   3
   3   3   2 851.765 6.20047   1
   4   3   2 1.68705 1.52222  -3
   4   3   2 1.68705 1.52222   1
   4   3   2 0.43925 0.54966   2
   4   3   2 -0.4167 0.83969   1
   4   3   2 -0.8045 0.82771   3
   5   3   2 132.465 2.52625   2
   5   3   2 398.043 4.46290  -3
   5   3   2 398.043 4.46290   1
   6   3   2 137.183 3.04802   2
   6   3   2 389.497 5.21706  -3
   6   3   2 389.497 5.21706   1
   7   3   2 40.8613 2.17865   2
   7   3   2 105.846 3.44357  -3
   7   3   2 105.846 3.44357   1
   8   3   2 4.99463 1.42996   2
   8   3   2 7.30655 2.63084  -3
   8   3   2 7.30655 2.63084   1
   9   3   2 42.5825 4.08572   2
   9   3   2 121.112 6.28643  -3
   9   3   2 121.112 6.28643   1
  -6   4   2 76.6295 6.46011   2
  -6   4   2 143.747 8.50297   1
  -6   4   2 76.7902 6.56787   3
  -5   4   2 70.2962 3.95012   2
  -5   4   2 118.366 5.40369   1
  -5   4   2 72.7506 4.42295   3
  -4   4   2 131.522 3.66414   1
  -4   4   2 70.3117 3.02477   2
  -4   4   2 86.0060 3.30771   3
  -3   4   2 553.383 5.94597   1
  -3   4   2 315.366 4.93121   2
  -3   4   2 344.601 4.54892   3
  -2   4   2 290.056 3.48198   1
  -2   4   2 180.254 4.76727   2
  -2   4   2 180.213 3.03763   3
  -1   4   2 65.4110 1.61968   1
  -1   4   2 40.4951 1.33861   3
   0   4   2 100.103 1.45314   1
   0   4   2 63.3533 1.23425   3
   0   4   3 165.563 7.57500  -2
   0   4   2 165.563 7.57500   1
   1   4   2 11.0938 0.57695   3
   1   4   2 11.4336 0.94043   2
   1   4   3 36.5572 1.78462  -2
   1   4   2 36.5572 1.78462   1
   1   4   2 18.3951 0.85641   1
   2   4   2 1498.90 9.26425   1
   2   4   2 860.380 5.64500   2
   2   4   3 1592.26 18.4967  -2
   2   4   2 1592.26 18.4967   1
   2   4   2 944.080 5.33449   3
   3   4   2 1552.15 10.1057   2
   3   4   2 2589.08 12.9656   1
   3   4   2 1640.67 8.48125   3
   3   4   3 3074.27 39.8051  -2
   3   4   2 3074.27 39.8051   1
   3   4   2 4297.04 73.4511  -3
   3   4   2 4297.04 73.4511   1
   4   4   3 273.741 5.17173  -2
   4   4   2 273.741 5.17173   1
   4   4   2 158.869 2.02293   3
   4   4   2 255.662 3.29317   1
   4   4   2 431.376 11.1488  -3
   4   4   2 431.376 11.1488   1
   4   4   2 151.498 2.37582   2
   5   4   2 1.97136 0.90212   3
   5   4   2 0.93998 0.84006   2
   5   4   2 3.78219 1.04466   1
   5   4   2 62.0094 5.29779  -3
   5   4   2 62.0094 5.29779   1
   5   4   2 87.9216 11.0334  -3
   5   4   3 87.9216 11.0334  -2
   5   4   2 87.9216 11.0334   1
   6   4   2 124.948 3.30889   2
   6   4   2 318.353 6.70276  -3
   6   4   2 318.353 6.70276   1
   6   4   2 457.163 14.8413  -3
   6   4   3 457.163 14.8413  -2
   6   4   2 457.163 14.8413   1
   7   4   2 422.608 6.57677  -3
   7   4   2 422.608 6.57677   1
   7   4   2 156.765 3.65479   2
   8   4   2 15.8480 1.90479   2
   8   4   2 56.5676 3.34468  -3
   8   4   2 56.5676 3.34468   1
   9   4   2 60.1458 4.00097  -3
   9   4   2 60.1458 4.00097   1
   9   4   2 19.5595 2.25947   2
  -6   5   2 8.00166 5.86877   2
  -5   5   2 32.3147 3.53672   1
  -5   5   2 15.3520 2.72313   2
  -5   5   2 18.2030 3.33636   3
  -4   5   2 112.271 4.17264   3
  -4   5   2 196.179 5.04463   1
  -4   5   2 106.998 3.90801   2
  -3   5   2 210.845 4.17895   3
  -3   5   2 203.272 4.10764   2
  -3   5   2 336.226 4.89490   1
  -2   5   2 87.8932 2.77989   2
  -2   5   2 97.2898 2.76167   3
  -2   5   2 151.306 3.08561   1
  -1   5   2 48.7025 2.00756   2
  -1   5   2 54.1290 2.01552   3
  -1   5   2 85.0901 2.38927   1
   0   5   2 54.7271 1.37573   3
   0   5   2 85.5346 1.65180   1
   0   5   2 51.7372 2.23031   2
   1   5   2 22.2472 1.49590   2
   1   5   3 214.002 4.53264  -2
   1   5   2 214.002 4.53264   1
   1   5   2 24.5216 0.90556   3
   1   5   2 36.5507 1.22351   1
   2   5   2 62.2375 1.62935   1
   2   5   2 40.7862 1.11463   3
   2   5   3 72.8091 2.40264  -2
   2   5   2 72.8091 2.40264   1
   2   5   2 33.6425 3.85084   2
   3   5   2 27.8897 0.99269   3
   3   5   3 174.355 2.75326  -2
   3   5   2 174.355 2.75326   1
   3   5   2 51.8951 2.50745   1
   4   5   3 166.929 2.54033  -2
   4   5   2 166.929 2.54033   1
   4   5   2 83.2878 1.70351   3
   4   5   2 124.099 9.28540   1
   5   5   3 1026.11 8.71119  -2
   5   5   2 1026.11 8.71119   1
   5   5   2 361.271 4.51466   3
   6   5   3 1329.78 11.6041  -2
   6   5   2 1329.78 11.6041   1
   6   5   2 709.701 7.64350   3
   7   5   2 135.744 9.43258   2
   7   5   3 319.423 6.39881  -2
   7   5   2 319.423 6.39881   1
   7   5   2 169.037 4.32680   3
   8   5   2 11.7303 2.41755   2
   8   5   2 97.7078 7.77891  -3
   8   5   3 97.7078 7.77891  -2
   8   5   2 97.7078 7.77891   1
   8   5   3 72.9959 13.6466  -2
   8   5   2 72.9959 13.6466   1
   8   5   2 17.9200 7.01146   3
   9   5   2 62.3055 7.33139  -3
   9   5   3 62.3055 7.33139  -2
   9   5   2 62.3055 7.33139   1
   9   5   2 1.28024 1.80195   2
  -5   6   3 49.5892 13.5508  -3
  -5   6   2 49.5892 13.5508   1
  -4   6   3 24.2926 4.58690  -3
  -4   6   2 24.2926 4.58690   1
  -4   6   2 12.8201 2.43580   2
  -3   6   3 -1.5506 4.22118  -3
  -3   6   2 -1.5506 4.22118   1
  -3   6   2 2.38546 1.31621   2
  -3   6   2 3.29146 3.38482   1
  -3   6   2 1.13465 3.86903   3
  -2   6   2 51.0535 3.02826   3
  -2   6   2 73.3668 3.09740   1
  -2   6   2 42.7938 2.27895   2
  -2   6   3 80.4863 7.55708  -3
  -2   6   2 80.4863 7.55708   1
  -1   6   2 38.7481 2.07397   3
  -1   6   2 57.5781 2.26104   1
  -1   6   2 34.6455 1.87979   2
   0   6   2 0.03063 0.83920   1
   0   6   2 0.42416 0.83973   3
   0   6   2 -0.1877 0.81019   2
   1   6   2 4.02640 0.73868   2
   1   6   2 5.36649 0.79500   3
   1   6   2 8.38244 0.80390   1
   2   6   2 815.075 5.07413   1
   2   6   2 517.165 4.07295   3
   2   6   2 471.400 3.56049   2
   3   6   2 2028.56 9.74178   1
   3   6   2 1196.00 7.54502   2
   3   6   2 1281.80 7.78122   3
   3   6   1 1444.55 31.6187  -3
   3   6   2 1444.55 31.6187   2
   4   6   2 147.204 2.22244   1
   4   6   2 88.3822 2.04942   2
   4   6   2 88.5408 2.09812   3
   4   6   1 346.334 16.7392  -3
   4   6   2 346.334 16.7392   2
   5   6   2 218.726 5.31447   3
   5   6   2 218.341 5.99148   2
   5   6   2 357.442 5.14452   1
   5   6   1 202.332 5.37786  -3
   5   6   2 202.332 5.37786   2
   6   6   1 230.940 4.66259  -3
   6   6   2 230.940 4.66259   2
   6   6   2 326.974 5.96761   1
   6   6   3 313.256 18.0974  -2
   6   6   2 313.256 18.0974   1
   6   6   2 190.880 7.63119   3
   7   6   1 24.2072 3.56030  -3
   7   6   2 24.2072 3.56030   2
   7   6   2 -2.4418 3.12685   1
   8   6   1 244.008 7.31058  -3
   8   6   2 244.008 7.31058   2
   8   6   2 254.741 21.6740  -3
   8   6   3 254.741 21.6740  -2
   8   6   2 254.741 21.6740   1
   9   6   2 150.560 15.2795  -3
   9   6   3 150.560 15.2795  -2
   9   6   2 150.560 15.2795   1
   9   6   1 115.615 11.6212  -3
   9   6   2 115.615 11.6212   2
  -4   7   3 227.972 19.9205  -3
  -4   7   2 227.972 19.9205   1
  -3   7   3 216.164 7.03860  -3
  -3   7   2 216.164 7.03860   1
  -2   7   3 120.636 6.14265  -3
  -2   7   2 120.636 6.14265   1
  -1   7   2 11.4603 5.31157   2
  -1   7   3 22.8486 6.37035  -3
  -1   7   2 22.8486 6.37035   1
   0   7   3 48.5562 6.70256  -3
   0   7   2 48.5562 6.70256   1
   0   7   2 11.3739 4.97431   3
   0   7   2 16.4254 2.09454   1
   0   7   1 25.2150 3.98426  -3
   0   7   2 25.2150 3.98426   2
   0   7   2 7.75735 2.84447   2
   1   7   1 65.0004 3.19419  -3
   1   7   2 65.0004 3.19419   2
   1   7   2 99.4898 2.85995   1
   1   7   2 56.9954 4.16248   2
   2   7   2 668.111 5.64914   1
   2   7   2 389.435 11.1057   2
   2   7   1 595.170 6.02587  -3
   2   7   2 595.170 6.02587   2
   3   7   1 743.440 7.41933  -3
   3   7   2 743.440 7.41933   2
   3   7   2 956.660 6.28326   1
   3   7   2 557.283 11.4203   2
   4   7   2 212.313 3.02707   1
   4   7   1 137.886 2.96532  -3
   4   7   2 137.886 2.96532   2
   5   7   1 56.2780 2.89597  -3
   5   7   2 56.2780 2.89597   2
   5   7   2 77.7215 2.76345   1
   6   7   2 314.771 5.75679   1
   6   7   1 263.094 5.82114  -3
   6   7   2 263.094 5.82114   2
   7   7   1 78.1845 4.70471  -3
   7   7   2 78.1845 4.70471   2
   7   7   2 130.642 4.53795   1
   8   7   1 93.4466 5.60517  -3
   8   7   2 93.4466 5.60517   2
   8   7   2 2.57590 1.73439   1
  -1   8   3 510.456 17.0018  -3
  -1   8   4 510.456 17.0018  -2
  -1   8   2 510.456 17.0018   1
   0   8   3 405.995 14.4636  -3
   0   8   4 405.995 14.4636  -2
   0   8   2 405.995 14.4636   1
   0   8   3 219.910 15.4585  -3
   0   8   2 219.910 15.4585   1
   1   8   3 165.786 13.0099  -3
   1   8   2 165.786 13.0099   1
   1   8   3 192.230 14.4897  -3
   1   8   4 192.230 14.4897  -2
   1   8   2 192.230 14.4897   1
   2   8   2 20.8979 2.37414   1
   3   8   2 59.6305 2.12206   1
   3   8   1 64.4920 4.00131  -3
   3   8   2 64.4920 4.00131   2
   4   8   1 55.2702 3.02675  -3
   4   8   2 55.2702 3.02675   2
   4   8   2 2.05567 0.96332   1
   5   8   1 235.304 5.26061  -3
   5   8   2 235.304 5.26061   2
   5   8   2 197.826 4.13852   1
   6   8   2 476.043 7.37967   1
   6   8   1 333.721 6.44479  -3
   6   8   2 333.721 6.44479   2
   7   8   1 75.2341 5.15323  -3
   7   8   2 75.2341 5.15323   2
   7   8   2 68.1781 3.75535   1
   8   8   1 70.3276 8.72503  -3
   8   8   2 70.3276 8.72503   2
   8   8   2 80.3617 4.25831   1
   0   9   3 206.444 8.82159  -3
   0   9   4 206.444 8.82159  -2
   0   9   2 206.444 8.82159   1
   1   9   3 162.490 5.81514  -3
   1   9   4 162.490 5.81514  -2
   1   9   2 162.490 5.81514   1
   2   9   3 460.034 8.32603  -3
   2   9   4 460.034 8.32603  -2
   2   9   2 460.034 8.32603   1
   3   9   3 551.385 8.26292  -3
   3   9   4 551.385 8.26292  -2
   3   9   2 551.385 8.26292   1
   4   9   3 78.6864 3.84128  -3
   4   9   4 78.6864 3.84128  -2
   4   9   2 78.6864 3.84128   1
   4   9   2 11.0478 4.23713   2
   5   9   2 1.27550 3.56463   2
   5   9   3 37.8401 4.62983  -3
   5   9   4 37.8401 4.62983  -2
   5   9   2 37.8401 4.62983   1
   6   9   2 0.99635 1.95689   2
   6   9   1 16.6263 7.67941  -3
   6   9   2 16.6263 7.67941   2
   6   9   4 33.2395 9.15663  -2
   6   9   2 33.2395 9.15663   1
   6   9   3 6.84489 10.1230  -3
   6   9   4 6.84489 10.1230  -2
   6   9   2 6.84489 10.1230   1
   6   9   2 2.16162 3.80396   3
   7   9   4 71.3893 14.1369  -2
   7   9   2 71.3893 14.1369   1
   7   9   1 2.96525 9.36677  -3
   7   9   2 2.96525 9.36677   2
   7   9   2 10.5709 2.40477   2
   7   9   2 4.60816 3.70781   3
   8   9   2 32.8670 12.2442   2
   8   9   3 270.815 24.2565  -3
   8   9   4 270.815 24.2565  -2
   8   9   2 270.815 24.2565   1
  -1  10   2 26.3889 11.5937   2
   0  10   2 -3.0890 3.63445   2
   1  10   3 240.830 12.3401  -3
   1  10   2 240.830 12.3401   1
   1  10   2 89.7818 8.13649   2
   2  10   3 448.342 8.97227  -3
   2  10   2 448.342 8.97227   1
   2  10   3 565.626 26.7997  -3
   2  10   4 565.626 26.7997  -2
   2  10   2 565.626 26.7997   1
   2  10   2 188.749 6.17513   2
   3  10   2 111.301 4.61042   2
   3  10   3 186.764 7.29749  -3
   3  10   2 186.764 7.29749   1
   3  10   3 235.692 18.8560  -3
   3  10   4 235.692 18.8560  -2
   3  10   2 235.692 18.8560   1
   4  10   2 11.3234 2.03537   2
   4  10   3 25.1668 8.62773  -3
   4  10   4 25.1668 8.62773  -2
   4  10   2 25.1668 8.62773   1
   4  10   3 23.1277 4.94242  -3
   4  10   2 23.1277 4.94242   1
   5  10   3 260.428 10.1628  -3
   5  10   4 260.428 10.1628  -2
   5  10   2 260.428 10.1628   1
   5  10   2 -2.2764 1.64363   2
   5  10   2 13.2936 6.33605   3
   5  10   3 233.900 11.0057  -3
   5  10   2 233.900 11.0057   1
   6  10   2 26.9665 2.96350   2
   6  10   3 394.227 18.2413  -3
   6  10   4 394.227 18.2413  -2
   6  10   2 394.227 18.2413   1
   7  10   2 48.6907 15.4989   2
   2  11   2 -0.3185 4.60200   2
   3  11   2 -0.5252 2.99833   2
   3  11   3 -2.5441 4.15459  -3
   3  11   2 -2.5441 4.15459   1
   4  11   2 -0.5277 4.02365   2
   4  11   3 26.4200 7.48798  -3
   4  11   2 26.4200 7.48798   1
   5  11   2 -2.4373 5.81412   2
  -4 -10   3 41.5106 10.5213   1
  -3 -10   3 59.9701 4.64708   2
  -3 -10   3 110.835 6.81429   1
  -3 -10   3 74.3772 8.31986   3
  -2 -10   3 112.246 6.45247   2
  -2 -10   3 203.496 18.6369   1
  -2 -10   3 140.132 7.26311   3
  -1 -10   3 67.3027 10.9160   2
  -5  -9   3 16.4306 4.48649   3
  -5  -9   3 34.7247 4.64679   1
  -5  -9   3 12.8826 3.97123   2
  -4  -9   3 5.62121 2.28016   3
  -4  -9   3 9.57587 2.38783   1
  -4  -9   3 6.91055 2.28714   2
  -3  -9   3 101.247 3.70122   2
  -3  -9   3 115.400 4.00550   3
  -3  -9   2 185.783 8.62129  -3
  -3  -9   3 185.783 8.62129   1
  -3  -9   3 181.135 5.67410   1
  -2  -9   3 55.4462 2.91400   2
  -2  -9   3 62.7684 3.10145   3
  -2  -9   3 102.211 5.80366   1
  -2  -9   2 127.013 6.86465  -3
  -2  -9   3 127.013 6.86465   1
  -1  -9   3 9.94114 1.88794   3
  -1  -9   2 14.2710 5.88629  -3
  -1  -9   3 14.2710 5.88629   1
  -1  -9   3 15.4272 4.45857   1
  -1  -9   3 12.3245 1.84727   2
   0  -9   3 3.30189 2.36804   3
   0  -9   2 139.498 6.51975  -3
   0  -9   3 139.498 6.51975   1
   0  -9   3 2.90850 2.16122   2
   1  -9   3 5.66212 2.45074   2
   1  -9   2 104.158 9.36274  -3
   1  -9   3 104.158 9.36274   1
   1  -9   3 3.73828 3.30088   3
  -7  -8   3 29.5502 5.56021   2
  -6  -8   3 223.390 6.72548   3
  -6  -8   3 204.277 5.71897   2
  -6  -8   3 363.432 7.88185   1
  -5  -8   3 197.154 5.50500   2
  -5  -8   3 210.354 5.46015   3
  -5  -8   3 338.138 6.99983   1
  -4  -8   3 74.5510 4.09522   1
  -4  -8   3 39.3620 3.30661   3
  -4  -8   3 37.9291 3.21357   2
  -3  -8   3 1.43403 1.37953   2
  -3  -8   3 -0.0381 1.42529   3
  -3  -8   3 1.43705 1.28145   1
  -2  -8   3 16.4433 1.74793   2
  -2  -8   3 35.3572 2.34333   1
  -2  -8   3 24.3997 2.01845   3
  -2  -8   2 30.1003 10.8922  -3
  -2  -8   3 30.1003 10.8922   1
  -1  -8   3 83.6875 3.22184   3
  -1  -8   3 69.5270 2.91153   2
  -1  -8   2 209.532 5.45551  -3
  -1  -8   3 209.532 5.45551   1
   0  -8   2 147.209 6.42272  -3
   0  -8   3 147.209 6.42272   1
   0  -8   3 1.87777 1.44714   2
   0  -8   3 2.70839 1.55889   3
   0  -8   3 5.93050 4.64388   1
   1  -8   3 27.3297 2.81504   2
   1  -8   2 76.3044 4.79313  -3
   1  -8   3 76.3044 4.79313   1
   1  -8   3 27.1010 3.47778   3
   2  -8   3 3.76885 1.92438   2
   2  -8   2 20.9691 4.19802  -3
   2  -8   3 20.9691 4.19802   1
   2  -8   3 -1.0892 3.33900   3
   3  -8   3 79.3755 5.62729   2
   3  -8   2 273.165 19.9724  -3
   3  -8   3 273.165 19.9724   1
  -7  -7   3 15.5873 3.12737   2
  -7  -7   3 17.6098 3.09789   3
  -7  -7   3 31.8269 3.64346   1
  -6  -7   3 51.8691 3.18145   3
  -6  -7   3 88.9237 3.97060   1
  -6  -7   3 51.8985 3.21297   2
  -5  -7   3 6.66784 1.68205   2
  -5  -7   3 12.3807 1.81804   1
  -5  -7   3 8.09384 1.74665   3
  -4  -7   3 87.0268 3.44008   1
  -4  -7   3 47.0089 2.86281   2
  -4  -7   3 50.2210 2.76347   3
  -3  -7   3 276.738 4.56268   2
  -3  -7   3 301.231 4.99346   3
  -3  -7   3 482.327 6.32105   1
  -2  -7   3 493.704 5.86623   1
  -2  -7   3 320.739 4.92667   3
  -2  -7   3 290.744 4.63771   2
  -1  -7   3 136.081 3.20599   1
  -1  -7   3 79.0189 2.59661   2
  -1  -7   3 84.0729 2.85545   3
   0  -7   3 21.1376 1.66649   3
   0  -7   3 39.0794 2.38211   1
   0  -7   3 19.8118 1.54894   2
   0  -7   2 38.8124 7.81735  -3
   0  -7   3 38.8124 7.81735   1
   1  -7   3 32.9869 2.10514   2
   1  -7   3 49.3504 4.64991   1
   1  -7   2 53.7581 5.13284  -3
   1  -7   3 53.7581 5.13284   1
   1  -7   3 31.5169 2.33418   3
   2  -7   2 79.3993 4.67640  -3
   2  -7   3 79.3993 4.67640   1
   2  -7   3 43.9281 2.86627   2
   2  -7   3 75.9882 9.56322   1
   2  -7   3 39.0514 4.91568   3
   3  -7   3 86.2185 4.39785   2
   3  -7   3 127.467 12.6894   3
   3  -7   2 194.816 5.82703  -3
   3  -7   3 194.816 5.82703   1
   4  -7   2 169.048 8.87020  -3
   4  -7   3 169.048 8.87020   1
   4  -7   3 49.5097 3.85176   2
  -8  -6   3 -7.9513 6.53758   3
  -8  -6   3 -4.6646 6.35529   2
  -8  -6   3 -6.5522 9.97362   1
  -7  -6   3 11.3075 2.22745   1
  -7  -6   3 2.93141 1.92678   3
  -7  -6   3 5.00556 1.83573   2
  -6  -6   3 205.479 5.01452   1
  -6  -6   3 131.968 4.54594   3
  -6  -6   3 115.071 4.15611   2
  -5  -6   3 253.058 5.15007   3
  -5  -6   3 414.029 6.45075   1
  -5  -6   3 239.272 4.97789   2
  -4  -6   3 2.69105 1.11075   1
  -4  -6   3 1.46512 1.03310   2
  -4  -6   3 1.30564 1.17281   3
  -3  -6   3 283.342 4.29674   2
  -3  -6   3 481.562 5.11826   1
  -3  -6   3 300.353 4.20240   3
  -2  -6   3 130.250 2.75793   1
  -2  -6   3 74.7673 2.33586   2
  -2  -6   3 85.0729 2.46936   3
  -1  -6   3 54.8228 2.13942   3
  -1  -6   3 46.9290 1.87239   2
  -1  -6   3 87.4641 2.53909   1
   0  -6   3 37.0042 1.69986   2
   0  -6   3 69.3054 2.19579   1
   0  -6   3 42.3492 1.84199   3
   1  -6   3 1.30580 0.93739   2
   1  -6   3 1.37537 0.96971   3
   1  -6   3 -0.0044 0.88525   1
   2  -6   3 4.44576 1.14481   3
   2  -6   3 12.2023 1.54757   1
   2  -6   3 3.28925 1.14370   2
   3  -6   3 19.1099 2.15043   2
   3  -6   3 29.4549 2.75697   1
   3  -6   3 19.0893 1.98022   3
   3  -6   2 27.2298 7.77595  -3
   3  -6   3 27.2298 7.77595   1
   4  -6   3 82.7625 6.05995   3
   4  -6   2 163.322 6.32844  -3
   4  -6   3 163.322 6.32844   1
   4  -6   3 86.4232 4.38381   2
   5  -6   3 -1.7253 1.96971   2
   5  -6   2 17.5370 6.58839  -3
   5  -6   3 17.5370 6.58839   1
   5  -6   3 -3.3051 4.31684   3
  -8  -5   3 -2.1020 3.05115   3
  -8  -5   3 2.38298 3.26419   1
  -7  -5   3 122.978 4.78095   3
  -7  -5   3 214.275 5.82213   1
  -7  -5   3 118.980 4.72844   2
  -6  -5   3 632.894 8.99660   1
  -6  -5   3 396.255 7.04965   3
  -6  -5   3 376.263 6.86825   2
  -5  -5   3 186.026 4.62050   3
  -5  -5   3 172.413 3.94122   2
  -5  -5   3 290.232 5.61861   1
  -4  -5   3 32.9308 1.72596   2
  -4  -5   3 51.4428 2.33260   1
  -4  -5   3 34.6556 2.03799   3
  -3  -5   3 9.55975 1.07123   1
  -3  -5   3 10.3836 1.14908   2
  -3  -5   3 7.79605 1.02352   3
  -2  -5   3 75.9756 2.18413   2
  -2  -5   3 89.1500 2.29616   3
  -2  -5   3 136.242 2.55107   1
  -1  -5   3 214.383 2.75886   2
  -1  -5   3 358.207 3.72691   1
  -1  -5   3 227.351 2.91043   3
   0  -5   3 8.26450 0.85503   2
   0  -5   3 8.82953 1.00234   3
   0  -5   3 13.8421 1.07772   1
   1  -5   3 -0.0042 0.77724   1
   1  -5   3 0.89211 0.85947   2
   1  -5   3 0.82044 0.87238   3
   2  -5   3 131.215 2.71778   3
   2  -5   3 203.146 3.25229   1
   2  -5   3 124.185 2.82410   2
   3  -5   3 277.304 4.20106   3
   3  -5   3 257.967 3.91913   2
   3  -5   3 429.530 5.83803   1
   4  -5   3 395.462 6.65522   1
   4  -5   3 231.487 5.59597   3
   4  -5   3 236.830 5.66748   2
   5  -5   2 141.113 8.56692  -3
   5  -5   3 141.113 8.56692   1
   5  -5   3 113.477 7.47900   1
   5  -5   3 60.6237 3.76267   2
   5  -5   3 67.6219 3.88715   3
   6  -5   3 -1.7612 2.55483   2
   6  -5   2 4.31462 10.5774  -3
   6  -5   3 4.31462 10.5774   1
  -8  -4   3 12.8045 5.64464   1
  -8  -4   3 2.49723 4.03329   2
  -8  -4   3 11.5463 7.19121   3
  -7  -4   3 34.4473 2.75505   2
  -7  -4   3 69.2315 3.71706   1
  -7  -4   3 39.3822 2.75542   3
  -6  -4   3 77.6349 3.18369   1
  -6  -4   3 49.4167 2.72559   2
  -6  -4   3 51.4620 2.79918   3
  -5  -4   3 3.09230 1.21168   2
  -5  -4   3 5.16425 1.25194   1
  -5  -4   3 4.95832 1.24840   3
  -4  -4   3 22.5499 1.53994   1
  -4  -4   3 15.1627 1.40490   3
  -4  -4   3 16.1707 1.24860   2
  -3  -4   3 335.057 3.63817   3
  -3  -4   3 524.163 4.65104   1
  -3  -4   3 307.074 3.47944   2
  -2  -4   3 146.613 2.20581   3
  -2  -4   3 230.869 2.87920   1
  -2  -4   3 130.892 1.93616   2
  -1  -4   3 23.3466 1.04775   3
  -1  -4   3 20.6543 1.02923   2
  -1  -4   3 36.8754 1.18863   1
   0  -4   3 216.514 2.52726   2
   0  -4   3 377.485 3.39581   1
   0  -4   3 243.169 2.73703   3
   1  -4   3 38.8234 1.23993   2
   1  -4   3 42.5576 1.36619   3
   1  -4   3 70.1844 1.73203   1
   2  -4   3 272.928 3.22960   3
   2  -4   3 421.687 4.06684   1
   2  -4   3 256.428 3.26487   2
   3  -4   3 303.987 3.69174   2
   3  -4   3 512.867 4.91597   1
   3  -4   3 317.807 3.78399   3
   4  -4   3 39.1053 2.12759   3
   4  -4   3 56.9958 2.31183   1
   4  -4   3 30.7871 1.83560   2
   5  -4   3 30.0544 2.36323   1
   5  -4   3 17.4831 2.03968   2
   5  -4   3 12.1579 1.95622   3
   6  -4   3 50.9621 4.35546   3
   6  -4   3 68.7875 5.10353   1
   6  -4   3 50.9693 4.60559   2
   6  -4   2 197.576 17.0226  -3
   6  -4   3 197.576 17.0226   1
   7  -4   3 53.1098 10.1996   2
   7  -4   3 58.0206 10.2258   3
  -8  -3   3 18.8481 5.53954   2
  -8  -3   3 17.2022 5.25571   3
  -8  -3   3 39.7557 5.98335   1
  -7  -3   3 143.428 4.36295   1
  -7  -3   3 85.5516 4.45202   3
  -7  -3   3 79.0641 4.65034   2
  -6  -3   3 289.182 5.16259   1
  -6  -3   3 171.248 4.21278   2
  -6  -3   3 193.906 4.37348   3
  -5  -3   3 165.821 3.50844   3
  -5  -3   3 143.898 3.37813   2
  -5  -3   3 254.000 4.26138   1
  -4  -3   3 6.88997 1.00416   3
  -4  -3   3 6.53046 0.93728   2
  -4  -3   3 12.0670 1.24284   1
  -3  -3   3 346.730 3.65213   1
  -3  -3   3 212.811 2.82274   3
  -3  -3   3 199.671 2.78419   2
  -2  -3   3 42.8073 1.24599   1
  -2  -3   3 26.4686 0.97663   2
  -2  -3   3 25.5049 1.06398   3
  -1  -3   3 819.343 5.51981   1
  -1  -3   3 485.308 3.66775   2
  -1  -3   3 516.848 3.80347   3
   0  -3   3 1294.81 7.80636   1
   0  -3   3 754.500 4.92007   2
   0  -3   3 815.612 5.59434   3
   1  -3   3 559.524 4.06094   3
   1  -3   3 518.776 3.85548   2
   1  -3   3 883.993 5.50191   1
   2  -3   3 77.7668 1.53812   3
   2  -3   3 122.475 1.73670   1
   2  -3   3 73.0932 1.57421   2
   3  -3   3 3.24250 0.77487   1
   3  -3   3 1.79922 0.71905   2
   3  -3   3 2.50462 0.75218   3
   4  -3   3 49.6699 2.02109   2
   4  -3   3 50.9441 1.80722   3
   4  -3   3 86.6220 2.26025   1
   5  -3   3 18.8807 1.68999   2
   5  -3   3 31.1776 2.06169   1
   5  -3   3 18.9352 1.75123   3
   6  -3   3 34.1619 3.73398   1
   6  -3   3 16.6331 2.97440   2
   6  -3   2 184.762 14.7246  -2
   6  -3   3 184.762 14.7246   1
   6  -3   3 25.8507 10.4589  -3
   6  -3   3 25.8507 10.4589   2
   6  -3   3 19.2260 3.04602   3
   7  -3   3 20.9667 3.55452   3
   7  -3   3 40.2814 12.5468  -3
   7  -3   3 40.2814 12.5468   2
   7  -3   3 17.4030 3.54728   2
   7  -3   2 37.7529 16.3755  -2
   7  -3   3 37.7529 16.3755   1
   7  -3   2 38.1517 14.6836  -3
   7  -3   2 38.1517 14.6836  -2
   7  -3   3 38.1517 14.6836   1
  -8  -2   3 -1.5462 3.62672   1
  -8  -2   3 -3.5458 3.96665   2
  -8  -2   3 5.68659 4.86274   3
  -7  -2   3 215.670 6.11658   1
  -7  -2   3 119.387 5.65117   2
  -7  -2   3 128.978 5.88257   3
  -6  -2   3 509.883 6.86511   1
  -6  -2   3 313.976 5.33701   3
  -6  -2   3 296.313 6.33730   2
  -5  -2   3 83.2845 2.77772   3
  -5  -2   3 75.0011 2.68680   2
  -5  -2   3 130.455 3.12117   1
  -4  -2   3 15.8721 1.13931   2
  -4  -2   3 15.0257 1.07759   3
  -4  -2   3 26.8446 1.30534   1
  -3  -2   3 1.81026 0.61775   2
  -3  -2   3 5.18752 0.60714   1
  -3  -2   3 2.90641 0.59154   3
  -2  -2   3 1.33475 0.45970   3
  -2  -2   3 1.46047 0.42492   1
  -2  -2   3 -0.3613 0.42128   2
  -1  -2   3 170.069 1.72381   1
  -1  -2   3 108.044 1.41016   3
  -1  -2   3 99.2536 1.36130   2
   0  -2   3 12.6648 0.62434   3
   0  -2   3 10.9641 0.58137   2
   0  -2   3 18.6272 0.64529   1
   1  -2   3 94.8275 1.29509   1
   1  -2   3 60.8558 1.12191   3
   1  -2   3 53.9846 1.05410   2
   2  -2   3 999.314 6.06647   3
   2  -2   3 937.631 6.03894   2
   2  -2   3 1582.54 8.68704   1
   3  -2   3 1736.95 9.32461   1
   3  -2   3 1017.08 6.17247   2
   3  -2   3 1090.41 6.47710   3
   4  -2   3 500.794 4.21593   3
   4  -2   3 462.607 3.89710   2
   4  -2   3 806.072 6.06807   1
   5  -2   3 48.5446 2.19637   2
   5  -2   3 70.5915 2.35924   1
   5  -2   3 44.4693 2.04227   3
   5  -2   3 90.8289 9.29011  -3
   5  -2   3 90.8289 9.29011   2
   6  -2   3 23.4664 2.84413   2
   6  -2   3 37.3276 3.17644   1
   6  -2   3 24.1869 2.95017   3
   6  -2   3 44.5899 7.45432  -3
   6  -2   3 44.5899 7.45432   2
   7  -2   3 1.17780 1.87270   1
   7  -2   3 0.97952 4.84130  -3
   7  -2   3 0.97952 4.84130   2
   8  -2   3 78.6365 5.66512   1
   8  -2   3 109.435 11.1071  -3
   8  -2   3 109.435 11.1071   2
  -8  -1   3 32.1507 12.4468   1
  -8  -1   3 23.4830 9.23003   2
  -7  -1   3 -2.0129 2.14785   1
  -7  -1   3 0.92843 2.37219   3
  -7  -1   3 -0.1353 2.04775   2
  -6  -1   3 59.9626 3.47631   1
  -6  -1   3 39.1136 2.89838   3
  -6  -1   3 34.0961 3.02994   2
  -5  -1   3 5.98513 1.16572   1
  -5  -1   3 3.56249 1.21674   2
  -5  -1   3 3.45872 1.09244   3
  -4  -1   3 92.8963 1.95862   3
  -4  -1   3 91.8336 1.94987   2
  -4  -1   3 156.097 2.35042   1
  -3  -1   3 2.39345 0.60390   2
  -3  -1   3 5.33824 0.66109   1
  -3  -1   3 2.16032 0.59156   3
  -2  -1   3 72.5691 1.37081   1
  -2  -1   3 37.3432 1.12165   2
  -2  -1   3 44.3670 1.18331   3
  -1  -1   3 28.5465 0.78971   3
  -1  -1   3 26.2518 0.75417   2
  -1  -1   3 47.5554 0.96752   1
   0  -1   3 723.892 4.15106   2
   0  -1   3 806.179 4.37368   3
   0  -1   3 1275.15 6.34715   1
   1  -1   3 2065.68 9.91698   2
   1  -1   3 3533.91 16.1794   1
   1  -1   3 2231.03 10.6357   3
   1  -1   3 5847.11 96.1533  -3
   1  -1   3 5847.11 96.1533   1
   2  -1   3 11.8357 0.63150   1
   2  -1   3 31.2288 3.20412  -3
   2  -1   3 31.2288 3.20412   1
   2  -1   3 7.37510 0.53855   3
   2  -1   3 6.28716 0.52049   2
   3  -1   3 1706.26 9.65146   1
   3  -1   3 2777.69 52.4308  -3
   3  -1   3 2777.69 52.4308   1
   3  -1   3 1063.74 6.56598   3
   3  -1   3 988.463 5.99417   2
   4  -1   3 248.911 2.77821   2
   4  -1   3 427.640 3.97611   1
   4  -1   3 665.582 20.5700  -3
   4  -1   3 665.582 20.5700   1
   4  -1   3 272.051 2.98157   3
   4  -1   3 509.647 14.8509  -3
   4  -1   3 509.647 14.8509   2
   5  -1   3 -0.4759 2.67812  -3
   5  -1   3 -0.4759 2.67812   2
   5  -1   3 1.19563 0.80806   1
   5  -1   3 -0.1025 1.09342   2
   5  -1   3 1.49720 1.09351   3
   6  -1   3 8.79006 1.46656   1
   6  -1   3 10.2558 2.85299  -3
   6  -1   3 10.2558 2.85299   2
   7  -1   3 7.84451 4.36135  -3
   7  -1   3 7.84451 4.36135   2
   7  -1   3 5.93309 2.18667   1
   8  -1   3 47.0973 3.87010   1
   8  -1   3 52.4195 5.20920  -3
   8  -1   3 52.4195 5.20920   2
  -7   0   3 41.4471 4.29375   2
  -7   0   3 39.6949 4.06927   3
  -7   0   3 76.7268 5.29816   1
  -6   0   3 103.897 4.86117   1
  -6   0   3 70.1265 4.02437   3
  -6   0   3 60.0003 3.92330   2
  -5   0   3 46.8763 2.36983   3
  -5   0   3 44.8664 2.37110   2
  -5   0   3 84.7348 3.40127   1
  -4   0   3 38.9789 1.43307   3
  -4   0   3 36.3752 1.41320   2
  -4   0   3 64.2036 1.74239   1
  -3   0   3 22.3946 1.02839   1
  -3   0   3 9.90924 0.79826   2
  -3   0   3 15.2268 0.87621   3
  -2   0   3 1.86555 0.49501   3
  -2   0   3 2.20374 0.51016   2
  -2   0   3 3.51342 0.53548   1
  -1   0   3 2433.96 12.1414   1
  -1   0   3 1408.07 7.52134   2
  -1   0   3 1516.29 8.00457   3
   0   0   3 1299.74 6.48326   2
   0   0   3 1405.75 6.95336   3
   0   0   3 2253.21 10.6247   1
   1   0   3 1011.81 5.55567   1
   1   0   3 596.051 4.46120   2
   1   0   3 619.987 3.45505   3
   1   0   3 1655.85 30.5567  -3
   1   0   3 1655.85 30.5567   1
   2   0   3 438.792 3.22094   3
   2   0   3 704.881 5.07438   1
   2   0   3 421.424 2.67522   2
   2   0   3 1137.47 10.9088  -3
   2   0   3 1137.47 10.9088   1
   3   0   3 115.443 1.67920   2
   3   0   3 123.683 1.76889   3
   3   0   3 202.523 2.18787   1
   3   0   3 327.847 5.35479  -3
   3   0   3 327.847 5.35479   1
   4   0   3 303.578 3.63005   2
   4   0   3 860.393 9.98996  -3
   4   0   3 860.393 9.98996   1
   4   0   3 525.137 5.11270   1
   4   0   3 340.668 5.33547   3
   4   0   3 645.526 8.55284  -3
   4   0   3 645.526 8.55284   2
   5   0   3 199.426 5.98123  -3
   5   0   3 199.426 5.98123   2
   5   0   3 96.8683 3.33480   2
   5   0   3 165.309 3.24650   1
   5   0   3 266.665 5.88556  -3
   5   0   3 266.665 5.88556   1
   5   0   3 112.793 7.83115   3
   6   0   3 63.1780 3.64949   3
   6   0   3 108.099 3.32664   1
   6   0   3 58.3284 3.36824   2
   6   0   3 113.996 5.52842  -3
   6   0   3 113.996 5.52842   2
   6   0   3 151.596 14.4248  -3
   6   0   3 151.596 14.4248   1
   7   0   3 34.3590 3.45360   1
   7   0   3 37.0987 4.88967  -3
   7   0   3 37.0987 4.88967   2
   8   0   3 117.470 14.5853  -3
   8   0   3 117.470 14.5853   2
   8   0   3 97.5675 14.1682   1
   8   0   3 179.080 16.7638  -3
   8   0   3 179.080 16.7638  -2
   8   0   3 179.080 16.7638   1
   9   0   3 205.076 19.0221  -3
   9   0   3 205.076 19.0221   2
   9   0   3 133.769 17.6261   1
  -7   1   3 19.0279 4.38103   2
  -7   1   3 32.0113 4.79705   1
  -7   1   3 21.0054 4.53712   3
  -6   1   3 205.222 5.96719   3
  -6   1   3 193.297 6.15315   2
  -6   1   3 327.043 7.42622   1
  -5   1   3 16.6142 1.77093   2
  -5   1   3 23.5761 1.89198   3
  -5   1   3 34.3083 2.20369   1
  -4   1   3 202.776 3.02438   3
  -4   1   3 188.450 3.01772   2
  -4   1   3 324.859 4.12868   1
  -3   1   3 353.946 3.20145   3
  -3   1   3 328.001 3.16700   2
  -3   1   3 564.529 4.50997   1
  -2   1   3 8.82206 0.62718   3
  -2   1   3 13.5655 0.74373   1
  -2   1   3 8.10882 0.60460   2
  -1   1   3 1202.42 6.37606   3
  -1   1   3 1113.87 5.98905   2
  -1   1   3 1926.13 9.88811   1
   0   1   3 956.016 5.26974   2
   0   1   3 1005.30 5.90358   3
   0   1   3 1623.61 8.60698   1
   1   1   3 1084.40 7.15781   1
   1   1   3 679.193 4.26513   3
   1   1   3 628.301 3.33068   2
   2   1   3 6.04700 0.36980   3
   2   1   3 6.15622 0.39201   2
   2   1   3 9.55029 0.46386   1
   2   1   3 12.8736 3.08768  -3
   2   1   3 12.8736 3.08768   1
   3   1   3 1464.90 8.73607   2
   3   1   3 2536.46 14.6082   1
   3   1   3 1569.44 10.5354   3
   3   1   3 4000.66 50.1303  -3
   3   1   3 4000.66 50.1303   1
   3   1   3 3026.63 52.7585  -3
   3   1   3 3026.63 52.7585   2
   4   1   3 720.662 7.28097   3
   4   1   3 674.031 5.11330   2
   4   1   3 1944.06 16.3586  -3
   4   1   3 1944.06 16.3586   1
   4   1   3 1205.42 10.9477   1
   5   1   3 10.8629 1.15769   2
   5   1   3 22.7304 2.05520  -3
   5   1   3 22.7304 2.05520   1
   6   1   3 375.340 13.9820  -2
   6   1   3 375.340 13.9820   1
   6   1   3 128.219 4.46947   2
   6   1   3 364.718 7.40244  -3
   6   1   3 364.718 7.40244   1
   6   1   3 141.334 8.45892   3
   6   1   3 522.895 18.4694  -3
   6   1   3 522.895 18.4694  -2
   6   1   3 522.895 18.4694   1
   7   1   3 32.3976 5.29434  -3
   7   1   3 32.3976 5.29434  -2
   7   1   3 32.3976 5.29434   1
   8   1   3 574.127 15.2112  -3
   8   1   3 574.127 15.2112  -2
   8   1   3 574.127 15.2112   1
   8   1   3 165.148 11.5598   3
   9   1   3 66.6410 10.8358   3
   9   1   3 225.119 19.6690  -2
   9   1   3 225.119 19.6690   1
  -7   2   3 1.10358 4.99833   1
  -7   2   3 -3.2431 4.37596   2
  -7   2   3 2.83205 5.08445   3
  -6   2   3 20.6133 2.99023   3
  -6   2   3 12.8379 2.60833   2
  -6   2   3 26.6614 3.35111   1
  -5   2   3 7.49660 2.05279   2
  -5   2   3 10.2935 2.07927   3
  -5   2   3 14.1324 1.93533   1
  -4   2   3 347.755 4.06661   1
  -4   2   3 223.923 3.19604   3
  -4   2   3 205.017 3.14091   2
  -3   2   3 145.781 2.53107   1
  -3   2   3 83.0069 2.07882   2
  -3   2   3 88.4503 2.06583   3
  -2   2   3 159.296 1.84377   1
  -2   2   3 102.611 1.86802   3
  -2   2   3 96.5892 1.94616   2
  -1   2   3 1573.30 8.40776   1
  -1   2   3 984.927 6.44586   3
  -1   2   3 928.309 6.50739   2
   0   2   3 992.888 5.33826   3
   0   2   3 911.003 5.00286   2
   0   2   3 1601.06 8.00519   1
   1   2   3 388.023 2.49104   3
   1   2   3 622.250 3.67669   1
   1   2   3 353.497 2.17021   2
   2   2   3 150.196 1.28892   2
   2   2   3 262.396 2.21031   1
   2   2   3 165.429 1.57855   3
   2   2   3 434.836 8.17086  -3
   2   2   3 434.836 8.17086   1
   3   2   3 734.289 4.48870   2
   3   2   3 1260.72 7.65459   1
   3   2   3 795.769 5.04611   3
   3   2   3 2005.53 26.3776  -3
   3   2   3 2005.53 26.3776   1
   4   2   3 6.29983 0.54223   2
   4   2   3 10.0981 1.15265   1
   4   2   3 17.5986 1.42279  -3
   4   2   3 17.5986 1.42279   1
   4   2   3 5.20647 0.85974   3
   5   2   3 276.576 3.92781   2
   5   2   3 786.391 6.87819  -3
   5   2   3 786.391 6.87819   1
   6   2   3 120.909 2.95076  -3
   6   2   3 120.909 2.95076   1
   6   2   3 38.2449 1.87740   2
   7   2   3 10.8265 2.18704  -3
   7   2   3 10.8265 2.18704   1
   7   2   3 3.05449 1.23161   2
   8   2   3 22.8044 6.17043  -3
   8   2   3 22.8044 6.17043   1
   8   2   3 4.49824 2.68547   2
   8   2   3 -1.4363 7.87661  -3
   8   2   3 -1.4363 7.87661  -2
   8   2   3 -1.4363 7.87661   1
   9   2   3 107.069 17.6211  -3
   9   2   3 107.069 17.6211  -2
   9   2   3 107.069 17.6211   1
  -6   3   3 97.4210 5.45480   1
  -6   3   3 45.9806 3.96823   2
  -6   3   3 66.8300 5.15279   3
  -5   3   3 33.8370 3.13479   2
  -5   3   3 36.8343 3.16277   3
  -5   3   3 66.2281 4.01010   1
  -4   3   3 4.55822 1.08193   3
  -4   3   3 5.74262 1.14921   1
  -4   3   3 3.08178 1.07891   2
  -3   3   3 207.845 3.17231   1
  -3   3   3 114.511 2.44980   2
  -3   3   3 128.954 2.55473   3
  -2   3   3 0.27665 0.63689   2
  -2   3   3 2.07782 0.68088   3
  -2   3   3 1.17273 0.66103   1
  -1   3   3 2990.55 17.4428   1
  -1   3   3 1840.38 11.5583   3
  -1   3   3 1719.51 10.9293   2
   0   3   3 4226.75 21.0191   1
   0   3   3 2657.35 13.7874   3
   0   3   3 2474.79 12.2132   2
   1   3   3 240.971 1.95556   1
   1   3   3 148.756 1.44316   3
   1   3   3 137.074 1.35785   2
   2   3   3 4.25642 0.44474   1
   2   3   3 2.51588 0.39048   3
   2   3   3 2.08488 0.40904   2
   3   3   3 41.3814 0.96165   3
   3   3   3 67.7324 1.24247   1
   3   3   3 115.628 3.83380  -3
   3   3   3 115.628 3.83380   1
   3   3   3 41.8704 0.94435   2
   4   3   3 180.936 2.12308   2
   4   3   3 199.438 2.56974   3
   4   3   3 541.731 7.13891  -3
   4   3   3 541.731 7.13891   1
   4   3   3 321.381 3.55683   1
   5   3   3 313.060 4.16594  -3
   5   3   3 313.060 4.16594   1
   5   3   3 114.294 2.29137   2
   6   3   3 58.0438 2.47577  -3
   6   3   3 58.0438 2.47577   1
   6   3   3 19.2451 1.46249   2
   7   3   3 -0.8688 1.98615  -3
   7   3   3 -0.8688 1.98615   1
   7   3   3 0.76962 1.13254   2
   8   3   3 234.263 5.19676   2
   8   3   3 637.392 9.36112  -3
   8   3   3 637.392 9.36112   1
   9   3   3 624.344 9.24180  -3
   9   3   3 624.344 9.24180   1
   9   3   3 217.076 5.64469   2
  -6   4   3 24.8661 4.27600   1
  -6   4   3 15.0666 3.94673   2
  -6   4   3 16.6096 4.11971   3
  -5   4   3 12.4118 2.54505   1
  -5   4   3 5.61322 2.30914   3
  -5   4   3 6.91138 2.27124   2
  -4   4   3 183.935 4.63451   2
  -4   4   3 309.321 5.04175   1
  -4   4   3 197.627 4.02154   3
  -3   4   3 286.656 4.31354   1
  -3   4   3 177.326 3.39761   3
  -3   4   3 166.698 3.36189   2
  -2   4   3 49.4688 1.93100   2
  -2   4   3 95.1053 2.25569   1
  -2   4   3 59.0562 2.09064   3
  -1   4   3 13.9523 1.01840   1
  -1   4   3 7.17777 0.79090   2
  -1   4   3 8.08314 0.87016   3
   0   4   3 47.5852 1.01636   3
   0   4   3 43.7860 1.11034   2
   0   4   3 75.4751 1.27413   1
   1   4   3 16.5599 0.74792   3
   1   4   3 26.1232 0.92952   1
   1   4   3 16.9976 0.88738   2
   2   4   3 114.301 1.69610   2
   2   4   3 194.830 2.01545   1
   2   4   3 123.546 1.74413   3
   3   4   3 521.083 3.44815   3
   3   4   3 493.956 3.53070   2
   3   4   3 826.199 4.72675   1
   4   4   3 18.1654 0.94678   2
   4   4   3 21.0692 0.87925   3
   4   4   3 34.1061 1.21739   1
   4   4   3 38.2297 6.67420  -3
   4   4   3 38.2297 6.67420   1
   5   4   3 107.694 3.58647   3
   5   4   3 154.052 3.88180   1
   5   4   3 94.3632 2.45282   2
   5   4   3 266.705 6.02484  -3
   5   4   3 266.705 6.02484   1
   6   4   3 147.529 4.05516   2
   6   4   3 418.764 5.59564  -3
   6   4   3 418.764 5.59564   1
   6   4   3 265.088 14.3636   1
   6   4   3 148.574 10.8885   3
   7   4   3 99.0748 3.63954  -3
   7   4   3 99.0748 3.63954   1
   7   4   3 32.8546 2.27722   2
   8   4   3 60.0358 2.97179   2
   8   4   3 154.148 4.74134  -3
   8   4   3 154.148 4.74134   1
   9   4   3 210.619 5.31615  -3
   9   4   3 210.619 5.31615   1
   9   4   3 78.5929 3.64078   2
  -5   5   3 53.5990 4.26503   2
  -5   5   3 61.4495 4.53569   3
  -5   5   3 105.466 5.74549   1
  -4   5   3 164.042 4.96821   3
  -4   5   3 177.982 5.05047   2
  -4   5   3 281.943 5.25027   1
  -3   5   3 63.7179 2.93745   1
  -3   5   3 37.8159 2.36701   2
  -3   5   3 38.7530 2.40134   3
  -2   5   3 34.8361 1.85875   2
  -2   5   3 34.4115 1.87124   3
  -2   5   3 60.1987 2.55317   1
  -1   5   3 533.528 5.57014   3
  -1   5   3 859.134 7.50401   1
  -1   5   3 501.009 5.33399   2
   0   5   3 706.663 5.80896   3
   0   5   3 627.362 5.40956   2
   0   5   3 1112.29 7.93522   1
   1   5   3 171.523 2.62350   2
   1   5   3 304.543 2.77640   1
   1   5   3 195.739 2.26219   3
   2   5   3 17.0559 0.77756   3
   2   5   3 13.5203 0.94236   2
   2   5   3 26.2533 0.93429   1
   3   5   3 220.800 2.26037   1
   3   5   3 135.227 1.72211   3
   3   5   3 126.384 3.66698   2
   3   5   2 162.378 8.54673  -3
   3   5   3 162.378 8.54673   2
   4   5   3 66.8125 1.51427   1
   4   5   3 43.4958 1.29337   3
   4   5   3 41.6034 6.17360   2
   5   5   3 458.030 4.97573   3
   5   5   4 734.553 21.1918  -2
   5   5   3 734.553 21.1918   1
   5   5   3 727.534 6.82589   1
   6   5   4 396.333 7.53196  -2
   6   5   3 396.333 7.53196   1
   6   5   3 171.763 3.84931   3
   6   5   3 284.761 9.03037   1
   7   5   3 246.049 7.09777  -3
   7   5   4 246.049 7.09777  -2
   7   5   3 246.049 7.09777   1
   7   5   3 51.9109 3.73965   3
   7   5   4 186.787 7.36991  -2
   7   5   3 186.787 7.36991   1
   8   5   3 149.860 6.79876  -3
   8   5   4 149.860 6.79876  -2
   8   5   3 149.860 6.79876   1
   9   5   3 267.454 7.74141  -3
   9   5   4 267.454 7.74141  -2
   9   5   3 267.454 7.74141   1
  -5   6   3 5.22412 5.89286   1
  -4   6   3 2.25126 1.80495   2
  -4   6   4 5.73004 6.02879  -3
  -4   6   3 5.73004 6.02879   1
  -4   6   3 1.80127 2.44736   1
  -3   6   3 1.17829 1.47737   2
  -3   6   3 -0.3523 1.64278   1
  -3   6   4 1.10176 6.25593  -3
  -3   6   3 1.10176 6.25593   1
  -3   6   3 -0.4744 2.54620   3
  -2   6   3 5.68004 1.41881   2
  -2   6   3 4.45799 1.46898   3
  -2   6   3 5.44580 1.43478   1
  -1   6   3 244.658 4.00417   3
  -1   6   3 388.864 5.08236   1
  -1   6   3 225.351 3.81191   2
   0   6   3 648.570 6.44098   1
   0   6   3 370.983 4.59836   2
   0   6   3 415.605 4.96232   3
   1   6   3 41.6547 1.50570   1
   1   6   3 25.8293 1.19506   2
   1   6   3 26.2009 1.26558   3
   2   6   3 5.77345 0.68666   3
   2   6   3 5.44113 0.65538   2
   2   6   3 9.13429 0.71904   1
   3   6   3 12.1681 0.79935   1
   3   6   3 7.66631 0.78404   2
   3   6   2 1282.15 17.0560  -3
   3   6   3 1282.15 17.0560   2
   3   6   3 6.04329 0.69341   3
   4   6   3 11.8970 0.93288   2
   4   6   3 19.8302 0.96693   1
   4   6   3 13.4964 0.93081   3
   4   6   2 102.250 6.30721  -3
   4   6   3 102.250 6.30721   2
   5   6   3 239.338 3.59745   1
   5   6   3 147.079 4.55301   2
   5   6   2 355.778 8.04391  -3
   5   6   3 355.778 8.04391   2
   5   6   3 146.177 3.78415   3
   6   6   2 237.401 6.31517  -3
   6   6   3 237.401 6.31517   2
   6   6   3 37.7136 2.09575   1
   6   6   3 24.0781 2.32355   3
   6   6   3 30.6885 4.77386   2
   7   6   3 -2.5617 2.67597   1
   7   6   3 -1.1095 4.73798   3
   7   6   2 -9.6319 7.36009  -3
   7   6   3 -9.6319 7.36009   2
   8   6   3 390.311 23.5180  -3
   8   6   4 390.311 23.5180  -2
   8   6   3 390.311 23.5180   1
   9   6   3 217.444 15.3766   3
   9   6   3 553.754 15.5469  -3
   9   6   4 553.754 15.5469  -2
   9   6   3 553.754 15.5469   1
   9   6   4 447.964 24.7773  -2
   9   6   3 447.964 24.7773   1
  -4   7   3 159.296 15.6391   2
  -3   7   3 86.2352 5.02363   2
  -3   7   4 161.599 6.28393  -3
  -3   7   3 161.599 6.28393   1
  -2   7   4 38.2366 3.95067  -3
  -2   7   3 38.2366 3.95067   1
  -2   7   3 21.2580 5.77335   2
  -1   7   4 26.0205 4.08270  -3
  -1   7   3 26.0205 4.08270   1
  -1   7   3 3.29557 3.48919   1
  -1   7   3 6.32941 3.93827   2
   0   7   3 6.16045 4.14801   2
   0   7   2 15.3684 3.47949  -3
   0   7   3 15.3684 3.47949   2
   0   7   3 7.66357 1.55616   1
   0   7   4 199.408 10.3290  -3
   0   7   3 199.408 10.3290   1
   1   7   3 43.8422 2.03606   1
   1   7   2 84.7656 3.38646  -3
   1   7   3 84.7656 3.38646   2
   2   7   2 468.491 5.04609  -3
   2   7   3 468.491 5.04609   2
   2   7   3 60.1401 1.79315   1
   2   7   3 51.3390 7.04945   3
   3   7   3 4.34979 1.43363   3
   3   7   3 -0.0875 0.57677   1
   3   7   2 616.242 5.56585  -3
   3   7   3 616.242 5.56585   2
   4   7   2 174.862 3.26083  -3
   4   7   3 174.862 3.26083   2
   4   7   3 73.9870 1.74923   1
   4   7   3 51.1503 4.94295   3
   5   7   3 326.036 4.69812   1
   5   7   2 245.467 4.93247  -3
   5   7   3 245.467 4.93247   2
   6   7   2 380.828 6.71853  -3
   6   7   3 380.828 6.71853   2
   6   7   3 269.251 4.79087   1
   7   7   3 51.8664 2.78959   1
   7   7   2 121.311 4.90020  -3
   7   7   3 121.311 4.90020   2
   8   7   3 62.9123 3.25780   1
   8   7   2 40.4602 4.36526  -3
   8   7   3 40.4602 4.36526   2
   9   7   3 67.7911 5.62305   1
   9   7   3 94.5988 19.6369  -3
   9   7   4 94.5988 19.6369  -2
   9   7   3 94.5988 19.6369   1
  -2   8   4 100.803 7.35167  -3
  -2   8   3 100.803 7.35167   1
  -1   8   4 248.412 17.3473  -3
  -1   8   3 248.412 17.3473   1
   2   8   2 13.1635 4.14588  -3
   2   8   3 13.1635 4.14588   2
   2   8   3 -1.0451 1.64806   1
   2   8   4 13.9460 6.35355  -3
   2   8   3 13.9460 6.35355   1
   3   8   2 94.9723 3.14111  -3
   3   8   3 94.9723 3.14111   2
   3   8   3 99.4886 2.42390   1
   4   8   3 24.3865 1.35600   1
   4   8   2 21.2132 2.43632  -3
   4   8   3 21.2132 2.43632   2
   5   8   3 965.255 8.75958   1
   5   8   2 706.809 8.71768  -3
   5   8   3 706.809 8.71768   2
   6   8   3 709.182 9.50792   1
   6   8   2 726.225 9.25984  -3
   6   8   3 726.225 9.25984   2
   7   8   3 67.6608 3.53670   1
   7   8   2 83.8220 5.00593  -3
   7   8   3 83.8220 5.00593   2
   8   8   3 3.02629 1.76966   1
   8   8   2 50.9340 5.39367  -3
   8   8   3 50.9340 5.39367   2
   9   8   3 14.8075 7.16997   1
   2   9   4 674.618 27.6500  -3
   2   9   5 674.618 27.6500  -2
   2   9   3 674.618 27.6500   1
   2   9   4 237.289 12.2568  -3
   2   9   3 237.289 12.2568   1
   3   9   4 228.825 8.04815  -3
   3   9   3 228.825 8.04815   1
   3   9   4 543.133 23.9024  -3
   3   9   5 543.133 23.9024  -2
   3   9   3 543.133 23.9024   1
   4   9   4 70.6930 6.43359  -3
   4   9   5 70.6930 6.43359  -2
   4   9   3 70.6930 6.43359   1
   4   9   4 42.5048 5.15886  -3
   4   9   3 42.5048 5.15886   1
   5   9   4 29.7942 6.34921  -3
   5   9   3 29.7942 6.34921   1
   5   9   4 79.5863 13.6835  -3
   5   9   5 79.5863 13.6835  -2
   5   9   3 79.5863 13.6835   1
   5   9   3 22.5440 3.64377   1
   6   9   5 9.31243 4.92250  -2
   6   9   3 9.31243 4.92250   1
   6   9   3 3.36290 3.44377   1
   6   9   3 2.92829 3.68467   3
   7   9   3 -1.3640 5.43266   3
   7   9   5 44.3819 5.43075  -2
   7   9   3 44.3819 5.43075   1
   8   9   3 97.9790 14.2291   2
   0  10   3 -4.7222 4.70448   2
   0  10   4 6.39864 13.1796  -3
   0  10   3 6.39864 13.1796   1
   1  10   3 55.5065 6.66301   2
   1  10   4 117.863 14.6914  -3
   1  10   3 117.863 14.6914   1
   2  10   4 241.337 7.20111  -3
   2  10   3 241.337 7.20111   1
   2  10   3 95.5762 6.81229   2
   3  10   4 37.6066 3.83067  -3
   3  10   3 37.6066 3.83067   1
   3  10   3 3.02116 2.01668   2
   4  10   4 13.0586 3.52551  -3
   4  10   3 13.0586 3.52551   1
   4  10   3 6.88554 1.87625   2
   5  10   3 198.329 7.14150   2
   5  10   4 385.193 9.24962  -3
   5  10   3 385.193 9.24962   1
   5  10   4 457.912 27.1441  -3
   5  10   5 457.912 27.1441  -2
   5  10   3 457.912 27.1441   1
   6  10   3 223.726 7.50996   2
   6  10   4 492.888 14.1557  -3
   6  10   3 492.888 14.1557   1
   6  10   4 585.284 31.0389  -3
   6  10   5 585.284 31.0389  -2
   6  10   3 585.284 31.0389   1
   7  10   4 71.4071 17.0763  -3
   7  10   5 71.4071 17.0763  -2
   7  10   3 71.4071 17.0763   1
   7  10   3 43.1146 7.05904   2
   2  11   3 1.18197 4.69187   2
   3  11   3 -0.1578 2.98267   2
   3  11   4 25.3385 12.3005  -3
   3  11   3 25.3385 12.3005   1
   4  11   3 16.8186 3.86450   2
   4  11   4 58.7230 8.65563  -3
   4  11   3 58.7230 8.65563   1
   5  11   3 142.171 10.8635   2
   5  11   4 252.692 10.3005  -3
   5  11   3 252.692 10.3005   1
  -3 -10   4 64.9501 15.8835   2
  -5  -9   4 29.5616 6.63512   2
  -4  -9   4 58.6645 5.83791   1
  -4  -9   4 37.7838 5.68335   3
  -4  -9   4 29.5618 4.23510   2
  -3  -9   4 7.40486 1.86764   2
  -3  -9   4 4.36585 1.78686   3
  -3  -9   4 7.30130 1.83112   1
  -2  -9   4 3.98251 1.60283   3
  -2  -9   4 4.73924 1.62012   2
  -2  -9   4 7.54740 1.72378   1
  -1  -9   4 58.6090 3.56188   1
  -1  -9   4 32.9953 2.47843   2
  -1  -9   4 32.1613 2.51280   3
   0  -9   4 172.877 5.16302   2
   0  -9   4 184.549 7.33826   3
   0  -9   4 302.448 10.8019   1
   1  -9   4 171.352 14.8867   3
   1  -9   4 313.071 20.3367   1
   1  -9   4 190.665 14.8872   2
  -6  -8   4 3.05647 3.78279   1
  -6  -8   4 -4.7253 3.94754   2
  -6  -8   4 -1.6210 3.45561   3
  -5  -8   4 7.75554 2.43470   3
  -5  -8   4 7.31934 2.12991   2
  -5  -8   4 12.8327 2.67140   1
  -4  -8   4 4.36036 2.17506   3
  -4  -8   4 6.47233 2.21311   1
  -4  -8   4 3.97392 2.16728   2
  -3  -8   4 26.2110 2.39312   2
  -3  -8   4 33.0854 2.58317   3
  -3  -8   4 51.9955 2.83373   1
  -2  -8   4 33.0213 2.31205   2
  -2  -8   4 58.2827 2.77977   1
  -2  -8   4 34.2699 2.31817   3
  -1  -8   4 -0.1653 1.26690   2
  -1  -8   4 0.67920 1.33798   3
  -1  -8   4 -1.0192 1.26101   1
   0  -8   4 39.4872 2.74117   3
   0  -8   4 42.2253 2.64051   2
   0  -8   4 69.7664 4.08448   1
   1  -8   4 104.649 4.13174   2
   1  -8   4 199.703 8.42305   1
   1  -8   3 227.656 10.5535  -3
   1  -8   4 227.656 10.5535   1
   1  -8   4 120.965 5.15261   3
   2  -8   3 60.1889 6.29899  -3
   2  -8   4 60.1889 6.29899   1
   2  -8   4 38.1279 3.53657   2
   2  -8   4 36.5836 3.36333   3
   2  -8   4 73.1723 10.6657   1
   3  -8   4 4.71855 5.54359   2
   3  -8   4 -6.1357 3.41405   3
  -7  -7   4 -2.9544 3.76900   3
  -7  -7   4 -1.1073 6.83177   1
  -6  -7   4 6.34069 1.88554   1
  -6  -7   4 5.57646 1.88540   2
  -6  -7   4 0.88395 1.82660   3
  -5  -7   4 21.7717 2.28242   1
  -5  -7   4 12.5489 2.01751   2
  -5  -7   4 18.0314 2.14561   3
  -4  -7   4 91.6992 3.97871   2
  -4  -7   4 98.1926 4.15425   3
  -4  -7   4 148.268 4.64794   1
  -3  -7   4 415.532 6.04520   1
  -3  -7   4 262.188 5.16379   3
  -3  -7   4 252.873 4.73553   2
  -2  -7   4 178.283 4.08413   3
  -2  -7   4 171.911 3.81581   2
  -2  -7   4 275.506 4.86790   1
  -1  -7   4 13.6341 1.48745   2
  -1  -7   4 23.8767 1.82066   1
  -1  -7   4 14.4184 1.60536   3
   0  -7   4 51.9655 2.75071   1
   0  -7   4 35.2829 2.22951   3
   0  -7   4 26.4548 1.96081   2
   0  -7   3 73.6406 12.3738  -3
   0  -7   4 73.6406 12.3738   1
   1  -7   4 62.2021 2.77746   2
   1  -7   4 95.8478 4.19219   1
   1  -7   4 62.9950 2.82579   3
   1  -7   3 156.827 10.2759  -3
   1  -7   4 156.827 10.2759   1
   2  -7   4 13.1725 1.86791   2
   2  -7   4 13.0911 1.97275   3
   2  -7   4 25.5186 4.54031   1
   2  -7   3 77.6759 5.59453  -3
   2  -7   4 77.6759 5.59453   1
   3  -7   4 2.17235 1.89737   2
   3  -7   3 106.715 6.65999  -3
   3  -7   4 106.715 6.65999   1
   3  -7   4 0.94599 2.14923   3
   3  -7   4 1.77685 4.64732   1
   4  -7   4 9.21150 2.70454   3
   4  -7   3 76.8959 11.2489  -3
   4  -7   4 76.8959 11.2489   1
   4  -7   4 3.35712 3.07030   2
  -7  -6   4 3.08228 2.33715   1
  -7  -6   4 -1.4186 2.33463   3
  -7  -6   4 -0.0270 3.15513   2
  -6  -6   4 69.9383 3.53193   3
  -6  -6   4 112.813 4.39511   1
  -6  -6   4 65.8003 3.43483   2
  -5  -6   4 7.64747 1.74566   2
  -5  -6   4 10.5108 1.82358   3
  -5  -6   4 17.8419 2.02313   1
  -4  -6   4 53.1391 2.76547   2
  -4  -6   4 91.9503 3.40205   1
  -4  -6   4 59.0469 2.96816   3
  -3  -6   4 241.953 4.10676   1
  -3  -6   4 140.575 3.24485   2
  -3  -6   4 151.140 3.30785   3
  -2  -6   4 133.032 2.98574   3
  -2  -6   4 212.438 3.87113   1
  -2  -6   4 133.528 2.98104   2
  -1  -6   4 43.2325 1.92323   3
  -1  -6   4 36.8035 1.86169   2
  -1  -6   4 68.3586 2.33829   1
   0  -6   4 188.582 3.21314   1
   0  -6   4 105.292 2.52806   2
   0  -6   4 122.632 2.77887   3
   1  -6   4 590.511 6.40416   1
   1  -6   4 370.342 4.81341   3
   1  -6   4 355.230 4.65364   2
   2  -6   4 133.089 3.96033   1
   2  -6   4 74.9537 2.76575   2
   2  -6   4 81.8734 2.90454   3
   3  -6   4 14.7465 1.91121   1
   3  -6   4 7.03088 1.80693   2
   3  -6   4 6.78291 1.74321   3
   4  -6   4 5.15116 2.03403   3
   4  -6   3 88.5586 8.13984  -3
   4  -6   4 88.5586 8.13984   1
   4  -6   4 2.47401 1.97791   2
   4  -6   4 8.53397 3.36750   1
   5  -6   4 14.8108 3.38364   2
   5  -6   4 9.65139 2.70756   3
   5  -6   3 39.3514 7.15187  -3
   5  -6   4 39.3514 7.15187   1
  -7  -5   4 2.10173 2.14673   2
  -7  -5   4 2.16216 2.06221   3
  -7  -5   4 10.1890 2.27902   1
  -6  -5   4 46.2900 3.23390   2
  -6  -5   4 42.7820 2.85437   3
  -6  -5   4 68.9557 3.41534   1
  -5  -5   4 37.8821 2.40578   2
  -5  -5   4 39.4004 2.53618   3
  -5  -5   4 68.3743 3.11889   1
  -4  -5   4 43.3130 2.15380   2
  -4  -5   4 76.3989 2.94164   1
  -4  -5   4 43.9057 2.32892   3
  -3  -5   4 472.332 5.17712   1
  -3  -5   4 268.529 3.90158   2
  -3  -5   4 296.791 4.07066   3
  -2  -5   4 203.880 3.46291   2
  -2  -5   4 218.175 3.35654   3
  -2  -5   4 357.456 4.29218   1
  -1  -5   4 20.1213 1.27960   1
  -1  -5   4 10.8044 1.06108   2
  -1  -5   4 12.5817 1.15206   3
   0  -5   4 165.092 2.55120   2
   0  -5   4 295.921 3.66633   1
   0  -5   4 185.478 2.96958   3
   1  -5   4 152.530 2.90374   3
   1  -5   4 154.374 2.85013   2
   1  -5   4 245.878 3.68405   1
   2  -5   4 2.98694 0.98538   1
   2  -5   4 2.00970 0.94602   3
   2  -5   4 -0.5472 0.90697   2
   3  -5   4 92.8182 3.04146   2
   3  -5   4 103.538 3.12818   3
   3  -5   4 169.609 3.72825   1
   4  -5   4 10.3956 2.09623   1
   4  -5   4 4.17855 1.76488   2
   4  -5   4 4.23257 1.75926   3
   5  -5   4 4.58633 1.89495   3
   5  -5   4 7.17136 2.20582   1
   5  -5   4 1.34969 1.91245   2
   6  -5   4 8.10234 3.36543   3
   6  -5   3 -6.6671 14.1303  -3
   6  -5   4 -6.6671 14.1303   1
   6  -5   4 -6.8702 9.30781   2
  -7  -4   4 57.7877 3.61819   1
  -7  -4   4 34.6384 3.20140   3
  -7  -4   4 34.4093 4.19031   2
  -6  -4   4 15.4188 2.17345   1
  -6  -4   4 6.87478 1.88180   2
  -6  -4   4 9.28058 1.92879   3
  -5  -4   4 4.36885 1.23305   2
  -5  -4   4 10.0796 1.73948   1
  -5  -4   4 6.04581 1.57493   3
  -4  -4   4 143.824 3.37669   3
  -4  -4   4 233.339 4.18411   1
  -4  -4   4 135.454 2.69687   2
  -3  -4   4 1653.50 11.3226   1
  -3  -4   4 974.369 7.38347   2
  -3  -4   4 1027.23 8.04534   3
  -2  -4   4 1530.47 10.3847   1
  -2  -4   4 946.659 7.41345   3
  -2  -4   4 906.840 7.56925   2
  -1  -4   4 22.7291 1.18590   2
  -1  -4   4 22.2345 1.16449   3
  -1  -4   4 40.1750 1.40619   1
   0  -4   4 3.03489 0.68766   2
   0  -4   4 7.28365 0.76710   1
   0  -4   4 3.61815 0.71261   3
   1  -4   4 185.981 2.80692   1
   1  -4   4 117.723 2.13496   3
   1  -4   4 108.997 1.99825   2
   2  -4   4 109.194 2.50617   2
   2  -4   4 117.254 2.56726   3
   2  -4   4 187.547 3.13374   1
   3  -4   4 9.54615 1.19001   2
   3  -4   4 13.9675 1.27770   1
   3  -4   4 9.83871 1.21958   3
   4  -4   4 7.04861 1.35220   3
   4  -4   4 3.09663 1.21581   2
   4  -4   4 8.40586 1.58033   1
   5  -4   4 35.3159 2.82959   1
   5  -4   4 19.0056 2.30405   3
   5  -4   4 19.2513 2.35721   2
   6  -4   4 237.437 8.07042   2
   6  -4   4 425.371 10.6278   1
   6  -4   4 251.804 8.08957   3
   7  -4   4 285.170 20.9194   1
  -8  -3   4 10.9095 10.3849   2
  -8  -3   4 4.18186 7.47240   3
  -7  -3   4 6.67691 2.47405   3
  -7  -3   4 9.45836 2.61601   2
  -7  -3   4 12.3385 2.72418   1
  -6  -3   4 163.049 4.39305   3
  -6  -3   4 274.903 5.26073   1
  -6  -3   4 157.986 5.67139   2
  -5  -3   4 34.4791 2.12869   3
  -5  -3   4 58.5163 2.55974   1
  -5  -3   4 31.2212 2.04781   2
  -4  -3   4 112.989 2.88065   1
  -4  -3   4 65.7883 2.15067   2
  -4  -3   4 67.5459 2.47238   3
  -3  -3   4 61.8845 1.81909   3
  -3  -3   4 98.1325 2.05445   1
  -3  -3   4 55.1732 1.74483   2
  -2  -3   4 15.8672 0.99876   3
  -2  -3   4 17.8857 0.95965   2
  -2  -3   4 29.3169 1.20242   1
  -1  -3   4 21.3763 1.01314   2
  -1  -3   4 36.0901 1.09943   1
  -1  -3   4 25.2924 1.01305   3
   0  -3   4 170.258 1.93695   2
   0  -3   4 188.190 1.98156   3
   0  -3   4 302.339 3.04233   1
   1  -3   4 546.031 4.00151   2
   1  -3   4 581.560 4.33179   3
   1  -3   4 918.439 5.84237   1
   2  -3   4 8.64901 0.80605   2
   2  -3   4 8.85814 0.81296   3
   2  -3   4 12.4483 0.83761   1
   3  -3   4 210.212 2.87045   2
   3  -3   4 222.175 3.11320   3
   3  -3   4 367.892 3.84907   1
   4  -3   4 56.6094 2.12748   1
   4  -3   4 35.1873 1.81475   3
   4  -3   4 31.5182 1.70476   2
   5  -3   4 52.6821 2.55569   1
   5  -3   4 30.9364 1.89967   2
   5  -3   4 30.9033 1.88752   3
   6  -3   4 93.8318 4.72127   3
   6  -3   4 92.6879 4.73436   2
   6  -3   4 147.730 5.37119   1
   7  -3   4 66.4780 6.13818   2
   7  -3   4 66.4811 4.51675   3
   7  -3   4 122.268 6.02582   1
  -7  -2   4 158.329 6.21759   2
  -7  -2   4 151.895 6.28851   3
  -7  -2   4 270.707 7.55911   1
  -6  -2   4 140.909 5.52853   2
  -6  -2   4 151.864 5.62890   3
  -6  -2   4 237.404 6.05125   1
  -5  -2   4 56.4306 2.48026   1
  -5  -2   4 34.6880 2.02130   3
  -5  -2   4 27.4582 2.00679   2
  -4  -2   4 27.9423 1.64052   3
  -4  -2   4 22.2393 1.38264   2
  -4  -2   4 47.7116 2.06987   1
  -3  -2   4 962.906 7.21232   1
  -3  -2   4 558.311 4.60470   2
  -3  -2   4 611.496 5.32397   3
  -2  -2   4 774.797 5.28506   3
  -2  -2   4 1243.39 7.43625   1
  -2  -2   4 710.215 4.77350   2
  -1  -2   4 19.0553 0.88196   2
  -1  -2   4 29.1131 1.01086   1
  -1  -2   4 17.9653 0.87685   3
   0  -2   4 443.356 3.30695   1
   0  -2   4 247.855 2.30241   2
   0  -2   4 281.406 2.51153   3
   1  -2   4 11.4544 0.63326   1
   1  -2   4 6.89072 0.50647   2
   1  -2   4 5.52649 0.50168   3
   2  -2   4 551.253 4.22122   1
   2  -2   4 313.455 2.85768   2
   2  -2   4 348.453 3.19260   3
   3  -2   4 955.567 6.27730   1
   3  -2   4 563.565 4.58950   2
   3  -2   4 594.700 4.74748   3
   4  -2   4 66.6112 1.77537   1
   4  -2   4 41.0599 1.49939   3
   4  -2   4 39.2583 1.50243   2
   5  -2   4 1.35117 0.93989   3
   5  -2   4 1.68241 1.00089   2
   5  -2   4 2.61455 0.97945   1
   6  -2   4 77.8680 3.24724   2
   6  -2   4 114.980 4.25508   1
   6  -2   4 72.9836 3.20347   3
   7  -2   4 81.2926 4.72491   2
   7  -2   4 83.2250 4.75458   3
   7  -2   4 145.379 5.78387   1
   8  -2   4 5.22906 11.5600   2
   8  -2   4 4.66987 2.91488   1
   8  -2   4 0.69313 11.2733   3
   8  -2   4 -16.332 12.4570  -3
   8  -2   4 -16.332 12.4570   2
  -7  -1   4 7.05302 2.41316   3
  -7  -1   4 3.60905 2.43361   1
  -7  -1   4 4.62764 2.43576   2
  -6  -1   4 13.2396 2.48889   2
  -6  -1   4 10.8493 2.33041   3
  -6  -1   4 19.3531 2.81047   1
  -5  -1   4 15.7007 1.84836   3
  -5  -1   4 26.5938 1.82269   1
  -5  -1   4 15.6976 2.05870   2
  -4  -1   4 605.666 5.67399   1
  -4  -1   4 380.591 4.20514   3
  -4  -1   4 359.654 3.91306   2
  -3  -1   4 685.964 5.36997   2
  -3  -1   4 734.305 5.58265   3
  -3  -1   4 1183.11 7.82600   1
  -2  -1   4 804.222 5.31449   1
  -2  -1   4 495.827 4.05474   3
  -2  -1   4 464.274 3.89034   2
  -1  -1   4 10.8731 0.62944   3
  -1  -1   4 20.5318 0.80142   1
  -1  -1   4 12.6698 0.68455   2
   0  -1   4 252.587 2.24840   1
   0  -1   4 159.333 1.73887   3
   0  -1   4 153.072 1.66287   2
   1  -1   4 248.815 2.01646   3
   1  -1   4 235.673 1.85680   2
   1  -1   4 398.937 2.65870   1
   2  -1   4 297.041 2.53283   3
   2  -1   4 267.475 2.36021   2
   2  -1   4 466.940 3.42248   1
   3  -1   4 156.795 1.96134   1
   3  -1   4 91.3280 1.48350   2
   3  -1   4 97.9631 1.52663   3
   4  -1   4 66.3442 1.75021   2
   4  -1   4 68.2705 1.71664   3
   4  -1   4 109.554 1.80629   1
   5  -1   4 93.4594 2.27752   2
   5  -1   4 106.160 2.33914   3
   5  -1   4 164.705 2.77747   1
   6  -1   4 271.290 4.82803   3
   6  -1   4 269.030 4.50493   2
   6  -1   4 448.966 6.26518   1
   7  -1   4 433.746 14.2553  -3
   7  -1   4 433.746 14.2553   2
   7  -1   4 223.107 8.07205   3
   7  -1   4 196.917 7.98755   2
   7  -1   4 351.788 7.66210   1
   8  -1   4 32.5377 3.51961   1
   8  -1   4 38.1772 7.63566  -3
   8  -1   4 38.1772 7.63566   2
   8  -1   4 36.6080 9.65664   3
  -7   0   4 205.391 8.87876   1
  -7   0   4 111.828 7.42054   3
  -7   0   4 129.585 22.5228   2
  -6   0   4 449.982 8.96668   1
  -6   0   4 290.053 7.19907   3
  -6   0   4 276.102 7.68944   2
  -5   0   4 39.9985 2.61581   2
  -5   0   4 45.7607 2.97743   3
  -5   0   4 73.4883 3.64276   1
  -4   0   4 73.9278 2.23265   3
  -4   0   4 120.211 2.33289   1
  -4   0   4 69.1603 2.33239   2
  -3   0   4 9.53228 0.87237   2
  -3   0   4 9.78203 0.87936   3
  -3   0   4 15.1517 1.01261   1
  -2   0   4 17.7964 0.89084   2
  -2   0   4 18.5058 0.91999   3
  -2   0   4 34.0614 1.17681   1
  -1   0   4 25.8123 0.78048   2
  -1   0   4 26.3287 0.84103   3
  -1   0   4 46.7174 1.04951   1
   0   0   4 10.3087 0.56484   2
   0   0   4 14.6389 0.63702   3
   0   0   4 22.5725 0.76338   1
   1   0   4 0.98230 0.28353   3
   1   0   4 0.61971 0.29671   1
   1   0   4 0.55176 0.56377   2
   2   0   4 742.196 4.37773   1
   2   0   4 465.137 3.02501   3
   2   0   4 421.450 2.73763   2
   3   0   4 982.403 5.62905   3
   3   0   4 1567.06 8.29504   1
   3   0   4 916.404 5.69103   2
   4   0   4 66.2256 1.74770   1
   4   0   4 44.6415 1.49930   3
   4   0   4 38.2032 1.34979   2
   4   0   4 106.824 6.49631  -3
   4   0   4 106.824 6.49631   1
   5   0   4 274.304 3.73786   1
   5   0   4 155.933 2.59349   2
   5   0   4 172.020 2.89474   3
   5   0   4 437.037 11.3617  -3
   5   0   4 437.037 11.3617   1
   6   0   4 331.239 10.2316  -3
   6   0   4 331.239 10.2316   2
   6   0   4 158.898 3.99129   2
   6   0   4 286.350 4.45981   1
   6   0   4 182.167 4.13059   3
   7   0   4 82.4841 6.13067  -3
   7   0   4 82.4841 6.13067   2
   7   0   4 65.3359 2.84152   1
   7   0   4 47.7420 3.14250   3
   7   0   4 39.9148 2.96949   2
   8   0   4 2.54528 2.17686   1
   8   0   4 1.38360 4.44099   3
   8   0   4 10.8780 4.81694  -3
   8   0   4 10.8780 4.81694   2
   8   0   4 9.07531 5.38725   2
  -7   1   4 54.3696 7.91303   3
  -7   1   4 72.6487 8.97822   2
  -6   1   4 97.0417 4.99700   3
  -6   1   4 87.6007 5.55078   2
  -6   1   4 162.729 6.32576   1
  -6   0   4 472.419 26.8265  -2
  -6   1   4 472.419 26.8265   1
  -5   1   4 123.772 4.19180   2
  -5   1   4 137.567 4.57079   3
  -5   1   4 210.796 5.68423   1
  -4   1   4 74.2156 2.51947   2
  -4   1   4 142.664 3.09801   1
  -4   1   4 87.8336 2.61438   3
  -3   1   4 315.116 3.33612   1
  -3   1   4 199.372 3.04853   3
  -3   1   4 180.998 2.96501   2
  -2   1   4 689.713 5.01784   1
  -2   1   4 424.995 3.63287   3
  -2   1   4 395.593 3.30920   2
  -1   1   4 17.4308 0.75684   1
  -1   1   4 9.10097 0.69127   2
  -1   1   4 11.2699 0.65370   3
   0   1   4 168.069 1.84236   3
   0   1   4 269.213 2.43946   1
   0   1   4 152.714 1.75137   2
   1   1   4 0.16074 0.25712   2
   1   1   4 0.86715 0.48996   3
   1   1   4 0.35813 0.50589   1
   2   1   4 460.719 2.70090   2
   2   1   4 816.002 5.54146   1
   2   1   4 508.604 4.06470   3
   3   1   4 1909.71 10.1499   2
   3   1   4 2038.72 11.0375   3
   3   1   4 3279.82 17.6417   1
   3   1   4 5240.20 89.0317  -3
   3   1   4 5240.20 89.0317   1
   4   1   4 1060.02 7.72038   3
   4   1   4 979.613 6.79148   2
   4   1   4 1710.44 12.0567   1
   4   1   4 2662.22 30.2556  -3
   4   1   4 2662.22 30.2556   1
   5   1   4 38.7224 1.81898   3
   5   1   4 63.1656 2.28728   1
   5   1   4 101.376 3.85251  -3
   5   1   4 101.376 3.85251   1
   5   1   4 35.7453 1.70833   2
   6   1   4 10.8216 1.33602   2
   6   1   4 19.8263 3.31883  -3
   6   1   4 19.8263 3.31883   1
   6   1   4 17.5498 2.41087   1
   6   1   4 13.2184 2.33630   3
   7   1   4 36.3901 3.64822   3
   7   1   4 60.7306 4.22945   1
   7   1   4 38.7149 2.28966   2
   7   1   4 108.417 4.78822  -3
   7   1   4 108.417 4.78822   1
   8   1   4 21.2346 4.24169   3
   8   1   4 53.4702 4.87785  -3
   8   1   4 53.4702 4.87785   1
   8   1   4 18.1885 2.12559   2
   8   1   4 40.9745 5.35802   1
   9   1   4 0.39983 3.98793   3
  -6   2   4 32.8362 4.01293   1
  -6   2   4 17.1791 2.89947   2
  -6   2   4 24.2008 3.58552   3
  -5   2   4 0.91313 1.77735   3
  -5   2   4 6.47930 1.97424   2
  -5   2   4 2.44999 1.60420   1
  -4   2   4 129.533 3.08854   3
  -4   2   4 198.360 3.70895   1
  -4   2   4 113.248 2.74851   2
  -3   2   4 120.134 2.48933   2
  -3   2   4 221.561 3.59456   1
  -3   2   4 144.474 2.67626   3
  -2   2   4 62.4920 1.73703   3
  -2   2   4 98.9625 1.64871   1
  -2   2   4 54.6283 1.63183   2
  -1   2   4 63.1071 1.33761   1
  -1   2   4 33.7308 0.96312   2
  -1   2   4 40.4022 1.08659   3
   0   2   4 282.020 2.27785   2
   0   2   4 486.901 3.64469   1
   0   2   4 308.836 2.60571   3
   1   2   4 23.9440 0.69597   1
   1   2   4 12.6157 0.57082   2
   1   2   4 14.9813 0.60806   3
   2   2   4 125.286 1.38385   1
   2   2   4 71.6714 1.04191   2
   2   2   4 80.2414 1.00581   3
   3   2   4 6.61437 0.58542   1
   3   2   4 2.47754 0.37703   2
   3   2   4 3.67917 0.45419   3
   4   2   4 48.5502 1.31920   2
   4   2   4 47.6371 1.31802   3
   4   2   4 78.3526 1.65370   1
   4   2   4 130.702 7.41298  -3
   4   2   4 130.702 7.41298   1
   5   2   4 182.417 3.00893   2
   5   2   4 506.027 8.79776  -3
   5   2   4 506.027 8.79776   1
   5   2   4 322.160 5.64830   1
   5   2   4 203.233 4.22153   3
   6   2   4 1215.40 10.4924  -3
   6   2   4 1215.40 10.4924   1
   6   2   4 434.226 5.52142   2
   7   2   4 297.540 4.91643   2
   7   2   4 841.097 8.88981  -3
   7   2   4 841.097 8.88981   1
   8   2   4 -1.5627 3.28342  -3
   8   2   4 -1.5627 3.28342   1
   8   2   4 1.09210 1.58578   2
   9   2   4 105.449 7.79651  -3
   9   2   4 105.449 7.79651   1
   9   2   4 38.3134 3.20835   2
  -6   3   4 126.822 6.85083   2
  -6   3   4 139.742 7.22968   3
  -6   3   4 202.062 9.38478   1
  -5   3   4 93.4567 4.95089   3
  -5   3   4 150.807 6.15146   1
  -5   3   4 82.6372 4.63068   2
  -4   3   4 20.0640 1.73553   2
  -4   3   4 21.2562 1.72819   3
  -4   3   4 37.9021 2.01971   1
  -3   3   4 24.1709 1.48786   2
  -3   3   4 48.4748 1.99769   1
  -3   3   4 27.7717 1.62222   3
  -2   3   4 72.7611 1.99511   2
  -2   3   4 125.257 2.53320   1
  -2   3   4 80.6764 2.03315   3
  -1   3   4 561.227 4.76563   1
  -1   3   4 360.324 3.59678   3
  -1   3   4 322.573 3.41730   2
   0   3   4 415.079 3.38047   3
   0   3   4 659.584 4.41917   1
   0   3   4 389.507 3.05743   2
   1   3   4 11.2989 0.57958   1
   1   3   4 7.02418 0.51902   2
   1   3   4 6.97196 0.51506   3
   2   3   4 16.8999 0.62621   2
   2   3   4 32.9921 0.82243   1
   2   3   4 19.4128 0.65497   3
   3   3   4 1125.38 6.45397   3
   3   3   4 1757.97 8.75641   1
   3   3   4 1042.87 5.39341   2
   3   3   4 2860.44 52.2432  -3
   3   3   4 2860.44 52.2432   1
   4   3   4 751.716 5.16892   2
   4   3   4 809.026 5.33335   3
   4   3   4 1278.11 7.40113   1
   5   3   4 10.1207 1.29373   3
   5   3   4 16.7896 1.57880   1
   5   3   4 23.1308 2.72715  -3
   5   3   4 23.1308 2.72715   1
   5   3   4 6.67606 0.97613   2
   6   3   4 186.008 3.39760   2
   6   3   4 544.223 6.12867  -3
   6   3   4 544.223 6.12867   1
   7   3   4 49.5725 2.28703   2
   7   3   4 134.507 3.77401  -3
   7   3   4 134.507 3.77401   1
   8   3   4 121.369 4.60511  -3
   8   3   4 121.369 4.60511   1
   8   3   4 46.8917 3.11551   2
   9   3   4 74.8866 4.09578   2
   9   3   4 202.830 7.25548  -3
   9   3   4 202.830 7.25548   1
  -6   4   4 31.7613 9.29705   3
  -6   4   4 32.3291 13.5462   2
  -6   4   4 49.9511 10.3575   1
  -5   4   4 42.7335 3.84762   3
  -5   4   4 36.8505 3.67425   2
  -5   4   4 78.6075 4.93359   1
  -4   4   4 4.52490 1.33586   2
  -4   4   4 7.97744 1.55393   1
  -4   4   4 5.75541 1.40405   3
  -3   4   4 1.78710 1.11936   1
  -3   4   4 1.21060 1.10348   2
  -3   4   4 1.30859 1.04724   3
  -2   4   4 95.5924 2.53133   1
  -2   4   4 59.8375 2.02601   3
  -2   4   4 54.2794 2.07143   2
  -1   4   4 0.09034 0.75547   3
  -1   4   4 0.37033 0.72174   1
  -1   4   4 0.84236 0.74613   2
   0   4   4 41.2991 1.06246   1
   0   4   4 30.1746 1.08125   3
   0   4   4 25.8721 0.90906   2
   1   4   4 141.754 1.86823   3
   1   4   4 226.581 2.40852   1
   1   4   4 132.575 1.75718   2
   2   4   4 792.841 4.63124   3
   2   4   4 722.782 4.43000   2
   2   4   4 1244.65 6.30286   1
   3   4   4 1914.24 8.82668   1
   3   4   4 1220.77 6.44915   3
   3   4   4 1120.74 5.87239   2
   4   4   4 336.366 3.08775   3
   4   4   4 537.828 4.16562   1
   4   4   4 317.938 2.97726   2
   5   4   4 5.99996 0.97800   1
   5   4   4 3.82333 0.81930   2
   5   4   4 4.65497 0.91636   3
   6   4   4 59.6316 4.43741  -3
   6   4   4 59.6316 4.43741   1
   6   4   4 20.0650 1.85599   3
   6   4   4 21.0143 1.53419   2
   6   4   4 33.6764 2.31771   1
   7   4   4 189.774 4.12320   2
   7   4   4 546.755 7.25322  -3
   7   4   4 546.755 7.25322   1
   8   4   4 34.5570 2.57561   2
   8   4   4 107.159 4.34037  -3
   8   4   4 107.159 4.34037   1
   9   4   4 2.45449 1.70835   2
   9   4   4 6.62790 3.88974  -3
   9   4   4 6.62790 3.88974   1
  -5   4   5 55.6793 10.7924  -2
  -5   5   4 55.6793 10.7924   1
  -5   5   4 23.7106 3.84414   3
  -5   5   4 21.5448 3.71028   2
  -5   5   4 47.6774 6.79887   1
  -4   5   4 26.8357 2.30708   1
  -4   5   4 14.0338 2.05026   2
  -4   5   4 14.0598 1.78901   3
  -3   5   4 54.1595 2.63592   3
  -3   5   4 48.2130 2.71934   2
  -3   5   4 88.9550 3.32674   1
  -2   5   4 3.59436 1.17426   1
  -2   5   4 2.02556 1.13057   3
  -2   5   4 3.50500 1.15158   2
  -1   5   4 762.410 7.04580   1
  -1   5   4 445.248 5.14801   2
  -1   5   4 479.579 5.36394   3
   0   5   4 1616.77 11.1692   1
   0   5   4 943.604 7.17189   2
   0   5   4 1023.67 8.03359   3
   1   5   4 4.97627 0.64124   2
   1   5   4 4.27928 0.59431   3
   1   5   4 5.78080 0.67635   1
   2   5   4 358.310 2.94487   3
   2   5   4 339.812 2.71109   2
   2   5   4 578.411 3.93360   1
   3   5   4 29.9002 1.05432   2
   3   5   4 32.6183 1.06575   3
   3   5   4 53.0197 1.33703   1
   3   5   3 149.422 9.01028  -3
   3   5   4 149.422 9.01028   2
   4   5   4 28.3782 1.08283   1
   4   5   4 16.0879 0.83211   2
   4   5   4 17.8768 0.86042   3
   5   5   4 0.87092 0.78733   3
   5   5   4 4.89768 1.01748   1
   5   5   4 3.05684 0.92290   2
   6   5   4 129.651 2.99613   3
   6   5   4 208.589 3.74449   1
   6   5   4 121.975 6.34068   2
   7   5   4 202.026 5.31285   1
   7   5   4 127.286 4.50015   3
   7   5   4 333.501 10.3632  -3
   7   5   4 333.501 10.3632   1
   8   5   4 80.3761 5.11257  -3
   8   5   4 80.3761 5.11257   1
   8   5   4 94.5491 16.7609  -3
   8   5   5 94.5491 16.7609  -2
   8   5   4 94.5491 16.7609   1
   9   5   4 353.521 12.1182  -3
   9   5   5 353.521 12.1182  -2
   9   5   4 353.521 12.1182   1
   9   5   4 336.745 18.0716  -3
   9   5   4 336.745 18.0716   1
  -4   5   5 64.4409 14.0372  -2
  -4   6   4 64.4409 14.0372   1
  -4   6   4 5.94523 1.86873   1
  -4   6   4 6.13915 2.91247   3
  -4   6   4 6.11536 2.05180   2
  -3   6   4 8.10753 2.10350   3
  -3   6   4 7.67232 1.90508   2
  -3   6   4 16.4358 1.94483   1
  -2   6   4 65.6696 3.04418   2
  -2   6   4 109.917 3.73292   1
  -2   6   4 63.7171 3.03719   3
  -1   6   4 156.673 3.32631   2
  -1   6   4 273.027 4.68287   1
  -1   6   4 168.456 3.70994   3
   0   6   4 229.390 3.70358   2
   0   6   4 243.999 3.85521   3
   0   6   4 389.841 5.34811   1
   1   6   4 224.254 3.44495   2
   1   6   4 386.208 4.50043   1
   1   6   4 237.646 3.37280   3
   2   6   4 424.619 3.56223   1
   2   6   4 247.970 2.61305   2
   2   6   4 264.340 2.59243   3
   3   6   4 1042.07 6.18217   1
   3   6   4 614.852 4.38931   2
   3   6   4 660.292 4.41222   3
   3   6   3 669.434 19.5464  -3
   3   6   4 669.434 19.5464   2
   4   6   4 189.347 2.34032   3
   4   6   4 304.018 2.91325   1
   4   6   4 179.230 2.32885   2
   4   6   3 192.981 7.90511  -3
   4   6   4 192.981 7.90511   2
   5   6   4 81.5141 2.39349   3
   5   6   4 126.177 2.74391   1
   5   6   3 222.586 6.54517  -3
   5   6   4 222.586 6.54517   2
   5   6   4 75.6487 3.21709   2
   6   6   4 50.6954 2.55755   3
   6   6   4 46.8289 3.07701   2
   6   6   4 74.9334 2.97924   1
   6   6   3 62.7125 4.89402  -3
   6   6   4 62.7125 4.89402   2
   7   6   4 44.9556 2.54444   1
   7   6   4 29.7245 2.24929   3
   7   6   3 45.6160 9.06953  -3
   7   6   4 45.6160 9.06953   2
   8   6   4 223.618 5.31309   1
   8   6   4 137.073 12.8958   3
   9   6   4 374.167 15.9216  -3
   9   6   5 374.167 15.9216  -2
   9   6   4 374.167 15.9216   1
  -4   7   4 14.5250 4.54375   1
  -4   7   4 11.7113 8.01011   2
  -3   7   4 1.22669 1.65459   1
  -3   7   4 1.19400 2.13163   2
  -2   7   5 69.7769 4.60970  -3
  -2   7   4 69.7769 4.60970   1
  -2   7   4 20.6463 2.83407   2
  -2   7   4 17.6607 5.90757   1
  -1   7   4 20.2254 5.21657   3
  -1   7   5 48.6090 4.35566  -3
  -1   7   4 48.6090 4.35566   1
  -1   7   4 16.5930 3.83756   2
  -1   7   4 26.4819 5.69070   1
   0   7   4 248.262 4.88146   1
   0   7   3 163.829 5.62932  -3
   0   7   4 163.829 5.62932   2
   0   7   4 145.609 7.20373   2
   0   7   4 168.471 11.4995   3
   0   7   5 258.067 16.2960  -3
   0   7   4 258.067 16.2960   1
   1   7   3 57.1899 2.87344  -3
   1   7   4 57.1899 2.87344   2
   1   7   4 42.9911 2.14835   1
   1   7   4 26.1217 6.08654   3
   2   7   4 862.994 7.31365   1
   2   7   3 551.183 5.60794  -3
   2   7   4 551.183 5.60794   2
   2   7   4 496.246 17.0875   2
   3   7   3 457.328 5.18567  -3
   3   7   4 457.328 5.18567   2
   3   7   4 510.453 7.27255   3
   3   7   4 782.278 5.06977   1
   3   7   4 445.594 7.35313   2
   4   7   4 65.2467 3.02692   3
   4   7   4 100.650 1.82265   1
   4   7   3 105.160 2.63860  -3
   4   7   4 105.160 2.63860   2
   4   7   4 63.7050 5.19829   2
   5   7   3 247.378 4.33041  -3
   5   7   4 247.378 4.33041   2
   5   7   4 66.1686 2.27706   1
   5   7   4 39.8560 4.18113   3
   6   7   4 4.78271 1.23281   1
   6   7   3 171.196 4.15918  -3
   6   7   4 171.196 4.15918   2
   6   7   4 5.64133 3.95200   3
   7   7   3 107.335 4.50627  -3
   7   7   4 107.335 4.50627   2
   7   7   4 124.914 4.03596   1
   8   7   4 25.7607 2.34072   1
   8   7   3 44.6082 4.09358  -3
   8   7   4 44.6082 4.09358   2
   9   7   4 0.57440 2.37483   1
  -2   8   5 104.698 9.29613  -3
  -2   8   4 104.698 9.29613   1
  -2   8   4 93.8159 8.77677   1
  -1   8   5 260.298 6.97525  -3
  -1   8   4 260.298 6.97525   1
   0   8   5 362.647 7.42054  -3
   0   8   4 362.647 7.42054   1
   1   8   5 73.5999 4.58287  -3
   1   8   4 73.5999 4.58287   1
   2   8   4 12.5940 1.75156   1
   2   8   3 2.65823 4.38855  -3
   2   8   4 2.65823 4.38855   2
   2   8   5 39.4698 9.29899  -3
   2   8   4 39.4698 9.29899   1
   3   8   4 11.1242 1.20568   1
   3   8   3 71.0867 2.54060  -3
   3   8   4 71.0867 2.54060   2
   4   8   4 38.9296 1.31095   1
   4   8   3 37.6546 2.49758  -3
   4   8   4 37.6546 2.49758   2
   4   8   4 22.2255 4.11745   3
   5   8   4 6.26687 3.00430   3
   5   8   3 621.419 7.60407  -3
   5   8   4 621.419 7.60407   2
   5   8   4 4.11416 1.02355   1
   6   8   4 2.65996 1.28350   1
   6   8   3 473.051 8.61469  -3
   6   8   4 473.051 8.61469   2
   7   8   3 48.4976 4.49130  -3
   7   8   4 48.4976 4.49130   2
   7   8   4 1.46469 1.58148   1
   8   8   4 61.2427 3.66641   1
   8   8   3 48.8563 4.72946  -3
   8   8   4 48.8563 4.72946   2
  -1   9   5 144.455 12.8756  -3
  -1   9   4 144.455 12.8756   1
   0   9   5 66.6275 5.62713  -3
   0   9   4 66.6275 5.62713   1
   1   9   5 114.848 5.91275  -3
   1   9   4 114.848 5.91275   1
   2   9   5 590.467 9.07425  -3
   2   9   4 590.467 9.07425   1
   3   9   5 584.657 9.54815  -3
   3   9   4 584.657 9.54815   1
   3   9   4 188.445 11.8319   1
   4   9   4 90.2736 4.31772   1
   4   9   5 97.4666 6.19169  -3
   4   9   4 97.4666 6.19169   1
   5   9   4 12.1965 1.73321   1
   5   9   4 9.55922 3.11682   3
   5   9   5 65.2474 10.0278  -3
   5   9   4 65.2474 10.0278   1
   6   9   4 3.57307 1.41894   1
   6   9   4 4.76474 1.76176   3
   7   9   4 91.7936 4.15005   1
   7   9   4 55.5022 4.63110   3
   8   9   4 116.897 10.6550   3
   8   9   4 183.377 7.64783   1
   0  10   4 -0.1951 5.74708   1
   1  10   5 9.50122 7.72352  -3
   1  10   4 9.50122 7.72352   1
   1  10   4 0.51495 3.93077   2
   2  10   4 34.1762 3.25381   2
   2  10   5 168.494 6.64026  -3
   2  10   4 168.494 6.64026   1
   3  10   5 132.718 5.92212  -3
   3  10   4 132.718 5.92212   1
   3  10   4 30.4122 3.67365   2
   4  10   4 -0.7983 1.95193   2
   4  10   5 27.7340 4.32779  -3
   4  10   4 27.7340 4.32779   1
   5  10   5 186.687 6.42589  -3
   5  10   4 186.687 6.42589   1
   5  10   4 55.0898 5.98212   2
   6  10   5 249.984 7.46864  -3
   6  10   4 249.984 7.46864   1
   7  10   5 12.4868 8.81471  -3
   7  10   4 12.4868 8.81471   1
   7  10   4 8.29026 4.48547   1
   2  11   4 -3.6036 5.84133   2
   3  11   4 6.97991 3.48645   2
   4  11   5 42.3076 12.6432  -3
   4  11   4 42.3076 12.6432   1
   4  11   4 27.2044 4.38437   2
   5  11   4 33.1192 4.75158   2
   5  11   5 89.4828 13.3496  -3
   5  11   4 89.4828 13.3496   1
   6  11   4 17.8261 7.14308   2
  -4  -9   5 18.3443 5.46404   2
  -3  -9   5 11.7569 2.47277   2
  -3  -9   5 12.0774 3.67100   3
  -3  -9   5 18.4314 3.68520   1
  -2  -9   5 67.2810 4.22357   1
  -2  -9   5 36.2375 3.44675   2
  -2  -9   5 38.5779 3.79109   3
  -1  -9   5 16.1630 2.86743   3
  -1  -9   5 22.0638 2.92310   1
  -1  -9   5 15.7271 4.23496   2
   0  -9   5 72.3972 10.5564   2
   0  -9   5 114.219 12.6919   1
   0  -9   5 70.7454 9.79363   3
  -5  -8   5 130.616 7.41626   2
  -5  -8   5 204.371 11.9583   1
  -5  -8   5 122.791 10.4199   3
  -4  -8   5 21.0375 3.07616   2
  -4  -8   5 23.6566 3.25281   3
  -4  -8   5 34.6128 3.52298   1
  -3  -8   5 -0.9955 1.57269   1
  -3  -8   5 0.86547 1.72130   2
  -3  -8   5 2.19921 1.69400   3
  -2  -8   5 0.90526 1.39944   1
  -2  -8   5 2.49372 1.57626   3
  -2  -8   5 1.09253 1.56937   2
  -1  -8   5 46.0507 2.68345   3
  -1  -8   5 36.8279 2.43292   2
  -1  -8   5 70.8550 3.17382   1
   0  -8   5 111.394 4.28403   1
   0  -8   5 59.4519 3.15738   2
   0  -8   5 65.0380 3.16431   3
   1  -8   5 26.3837 3.08234   1
   1  -8   5 15.3733 2.56991   2
   1  -8   5 19.2397 2.49371   3
   2  -8   5 82.7822 5.72413   1
   2  -8   5 35.5144 4.05098   3
   2  -8   5 37.9664 6.56600   2
  -6  -7   5 32.8796 4.67649   3
  -6  -7   5 45.7263 7.14981   2
  -6  -7   5 74.3676 5.99036   1
  -5  -7   5 3.19705 1.77425   1
  -5  -7   5 4.03105 2.07518   2
  -5  -7   5 -0.4373 1.74792   3
  -4  -7   5 17.1161 2.31815   2
  -4  -7   5 31.2323 3.04125   1
  -4  -7   5 14.8395 2.24250   3
  -3  -7   5 24.7847 2.24096   1
  -3  -7   5 14.3576 1.96057   3
  -3  -7   5 14.5032 1.84565   2
  -2  -7   5 54.5369 3.02175   2
  -2  -7   5 59.2257 2.91105   3
  -2  -7   5 95.0951 3.45791   1
  -1  -7   5 -0.3552 1.20461   3
  -1  -7   5 2.95309 1.29006   1
  -1  -7   5 0.62145 1.19486   2
   0  -7   5 153.959 3.99582   1
   0  -7   5 94.9098 3.33985   3
   0  -7   5 87.0218 3.17098   2
   1  -7   5 85.5142 3.59650   3
   1  -7   5 153.672 4.38003   1
   1  -7   5 82.0101 3.49948   2
   2  -7   5 13.0183 1.98318   3
   2  -7   5 14.5086 2.30572   1
   2  -7   5 11.6201 2.27285   2
   3  -7   5 173.831 8.04104   2
   3  -7   5 184.559 5.93882   3
   3  -7   5 274.035 7.80255   1
   4  -7   5 79.0322 11.7163   1
  -7  -6   5 8.08592 9.09794   2
  -6  -6   5 58.8440 3.55423   3
  -6  -6   5 97.3635 4.24849   1
  -6  -6   5 55.3711 4.05226   2
  -5  -6   5 138.838 4.56706   1
  -5  -6   5 83.4281 3.78401   3
  -5  -6   5 80.0404 4.29801   2
  -4  -6   5 83.9172 3.43068   1
  -4  -6   5 51.7764 3.18940   3
  -4  -6   5 52.6027 3.13891   2
  -3  -6   5 2.19162 1.19178   2
  -3  -6   5 4.45913 1.18458   1
  -3  -6   5 3.23260 1.19945   3
  -2  -6   5 34.3460 2.05373   1
  -2  -6   5 19.3318 1.69911   3
  -2  -6   5 18.2138 1.65984   2
  -1  -6   5 89.7178 2.89546   3
  -1  -6   5 81.8220 2.68725   2
  -1  -6   5 138.045 3.25373   1
   0  -6   5 309.548 4.35352   3
   0  -6   5 285.555 4.07459   2
   0  -6   5 484.053 5.67677   1
   1  -6   5 212.063 3.77539   3
   1  -6   5 198.088 3.63162   2
   1  -6   5 343.215 4.75600   1
   2  -6   5 120.149 3.34811   3
   2  -6   5 103.519 3.45988   2
   2  -6   5 176.527 3.90582   1
   3  -6   5 13.4413 2.22623   2
   3  -6   5 26.3736 2.58748   1
   3  -6   5 17.3136 2.37474   3
   4  -6   5 6.32773 2.67315   2
   4  -6   5 7.52402 2.16902   1
   4  -6   5 2.57238 2.04242   3
   5  -6   5 14.6021 7.11641   3
   5  -6   5 7.33956 5.91809   2
   5  -6   5 7.28027 4.76304   1
  -7  -5   5 6.48640 6.06672   3
  -7  -5   5 27.9005 7.04080   1
  -7  -5   5 33.3604 10.3941   2
  -6  -5   5 280.446 5.94811   1
  -6  -5   5 174.200 5.71824   3
  -6  -5   5 158.024 5.82504   2
  -5  -5   5 75.8807 3.44194   1
  -5  -5   5 42.1454 3.23981   2
  -5  -5   5 46.8426 2.79299   3
  -4  -5   5 18.5222 1.80623   2
  -4  -5   5 27.8120 2.11399   1
  -4  -5   5 16.7552 1.84290   3
  -3  -5   5 8.72225 1.32680   2
  -3  -5   5 21.6671 1.56834   1
  -3  -5   5 12.0864 1.39691   3
  -2  -5   5 2.63809 1.02584   3
  -2  -5   5 5.69732 1.13343   1
  -2  -5   5 2.56451 1.02437   2
  -1  -5   5 98.2812 2.58967   3
  -1  -5   5 91.2301 2.52591   2
  -1  -5   5 153.120 2.90323   1
   0  -5   5 83.9770 2.13420   2
   0  -5   5 85.7597 2.25687   3
   0  -5   5 139.499 2.65416   1
   1  -5   5 0.84757 0.84063   3
   1  -5   5 0.13261 0.88893   2
   1  -5   5 1.46890 0.89498   1
   2  -5   5 65.8570 2.46878   2
   2  -5   5 67.0361 2.47179   3
   2  -5   5 102.139 2.90800   1
   3  -5   5 307.989 5.32118   2
   3  -5   5 330.898 5.06024   3
   3  -5   5 523.245 6.25218   1
   4  -5   5 185.463 5.55398   2
   4  -5   5 208.414 5.59026   3
   4  -5   5 304.401 6.68827   1
   5  -5   5 39.4122 4.24691   2
   5  -5   5 59.0997 3.88009   1
   5  -5   5 40.6931 4.18939   3
   6  -5   5 -1.0074 6.76529   1
  -7  -4   5 1.05525 3.86899   1
  -7  -4   5 8.14738 4.75769   3
  -7  -4   5 -5.8181 5.92449   2
  -6  -4   5 15.5652 2.59919   2
  -6  -4   5 18.4459 2.59349   3
  -6  -4   5 38.1299 3.24975   1
  -5  -4   5 1.22395 1.37649   3
  -5  -4   5 1.38060 1.70361   2
  -5  -4   5 7.32660 1.53023   1
  -4  -4   5 184.621 3.93051   1
  -4  -4   5 113.107 3.31179   3
  -4  -4   5 115.090 3.23911   2
  -3  -4   5 111.235 2.68899   2
  -3  -4   5 117.012 2.67734   3
  -3  -4   5 189.014 3.25122   1
  -2  -4   5 29.0207 1.62735   2
  -2  -4   5 31.9273 1.69461   3
  -2  -4   5 50.7775 2.00886   1
  -1  -4   5 116.682 2.45706   1
  -1  -4   5 74.7976 2.19178   3
  -1  -4   5 67.2884 2.02257   2
   0  -4   5 96.1128 2.03253   3
   0  -4   5 84.1406 1.92833   2
   0  -4   5 151.982 2.29626   1
   1  -4   5 147.707 2.37909   2
   1  -4   5 165.370 2.53404   3
   1  -4   5 255.476 3.44203   1
   2  -4   5 38.6533 1.78745   3
   2  -4   5 62.6597 2.21404   1
   2  -4   5 35.2460 1.69850   2
   3  -4   5 85.6700 2.71329   2
   3  -4   5 154.885 3.16228   1
   3  -4   5 95.9433 2.79046   3
   4  -4   5 142.500 3.62168   1
   4  -4   5 90.8488 3.18560   3
   4  -4   5 90.5708 3.42779   2
   5  -4   5 0.50433 1.80358   2
   5  -4   5 -0.6795 1.58038   3
   5  -4   5 -1.9328 1.68742   1
   6  -4   5 10.6025 4.44045   3
   6  -4   5 26.7173 3.71852   1
   6  -4   5 4.70001 4.24464   2
  -7  -3   5 29.5399 6.33970   1
  -7  -3   5 22.8474 4.75171   3
  -7  -3   5 18.1103 4.08906   2
  -6  -3   5 48.2422 3.80722   3
  -6  -3   5 87.1739 4.32299   1
  -6  -3   5 49.5803 3.79703   2
  -5  -3   5 11.1797 1.82022   3
  -5  -3   5 17.4840 2.04939   1
  -5  -3   5 8.81460 1.72552   2
  -4  -3   5 1.54143 1.04074   3
  -4  -3   5 2.16602 1.14189   2
  -4  -3   5 2.50324 0.99743   1
  -3  -3   5 1.54937 0.82972   2
  -3  -3   5 2.10869 0.81657   1
  -3  -3   5 0.58754 0.79848   3
  -2  -3   5 9.23223 0.98234   2
  -2  -3   5 11.4413 1.06916   1
  -2  -3   5 6.58149 0.90722   3
  -1  -3   5 912.781 6.81265   1
  -1  -3   5 531.830 4.60400   2
  -1  -3   5 569.471 4.77677   3
   0  -3   5 1886.88 10.7316   1
   0  -3   5 1203.17 7.16015   3
   0  -3   5 1093.79 7.02493   2
   1  -3   5 598.530 4.67894   1
   1  -3   5 379.169 3.37492   3
   1  -3   5 346.588 3.16014   2
   2  -3   5 112.215 1.98594   1
   2  -3   5 70.4769 1.77750   3
   2  -3   5 70.7110 1.78641   2
   3  -3   5 4.01250 0.83008   2
   3  -3   5 2.68380 0.85878   3
   3  -3   5 7.22231 0.95570   1
   4  -3   5 36.1183 1.82999   1
   4  -3   5 20.3528 1.52419   3
   4  -3   5 21.0111 1.51471   2
   5  -3   5 99.5813 3.78184   2
   5  -3   5 165.573 3.49206   1
   5  -3   5 103.781 3.29991   3
   6  -3   5 15.4586 3.56807   3
   6  -3   5 25.3868 2.79999   1
   6  -3   5 12.1665 3.20315   2
   7  -3   5 4.76658 4.08126   2
   7  -3   5 4.37924 3.80218   1
   7  -3   5 -0.3670 3.53425   3
  -7  -2   5 4.68060 2.93333   2
  -7  -2   5 3.50376 3.13846   3
  -7  -2   5 5.23369 3.13370   1
  -6  -2   5 37.3554 3.41508   2
  -6  -2   5 47.6681 3.81142   3
  -6  -2   5 70.7629 4.36606   1
  -5  -2   5 106.852 3.72940   1
  -5  -2   5 63.2031 3.07171   3
  -5  -2   5 57.0554 3.65436   2
  -4  -2   5 63.3850 2.33987   2
  -4  -2   5 113.106 3.00832   1
  -4  -2   5 72.6116 2.67406   3
  -3  -2   5 404.369 4.18282   3
  -3  -2   5 633.106 5.42395   1
  -3  -2   5 367.529 3.91636   2
  -2  -2   5 260.853 2.89434   3
  -2  -2   5 418.159 3.81362   1
  -2  -2   5 245.872 2.81086   2
  -1  -2   5 42.7141 1.34777   1
  -1  -2   5 28.7084 1.16677   3
  -1  -2   5 25.2855 1.13907   2
   0  -2   5 663.608 4.97437   3
   0  -2   5 632.784 4.58214   2
   0  -2   5 1073.90 6.67683   1
   1  -2   5 92.3007 1.38995   3
   1  -2   5 90.5282 1.28047   2
   1  -2   5 153.079 1.82667   1
   2  -2   5 0.21453 0.49867   2
   2  -2   5 -0.0341 0.53922   3
   2  -2   5 0.13283 0.59027   1
   3  -2   5 134.028 2.20456   3
   3  -2   5 223.617 2.78735   1
   3  -2   5 127.674 2.13149   2
   4  -2   5 285.293 3.85684   1
   4  -2   5 176.546 2.87738   3
   4  -2   5 159.459 2.72768   2
   5  -2   5 15.4190 1.40379   3
   5  -2   5 23.8494 1.60379   1
   5  -2   5 18.3573 1.58474   2
   6  -2   5 40.8655 2.76517   3
   6  -2   5 73.6626 3.31185   1
   6  -2   5 43.5121 3.39371   2
   7  -2   5 49.8242 5.12479   2
   7  -2   5 76.0911 4.84501   1
   7  -2   5 58.0856 5.56780   3
   8  -2   5 19.1839 6.89253   3
   8  -2   5 21.2494 7.16187   2
   8  -2   5 38.8499 7.41283   1
  -7  -1   5 2.77006 2.61452   2
  -7  -1   5 9.21814 3.65859   3
  -7  -1   5 12.2620 3.49597   1
  -6  -1   5 -1.8406 1.84167   1
  -6  -1   5 -2.7192 1.89756   2
  -6  -1   5 0.22661 1.87008   3
  -5  -1   5 -0.0181 1.61169   1
  -5  -1   5 2.17056 1.78623   2
  -5  -1   5 1.07411 1.62085   3
  -4  -1   5 296.967 4.75891   1
  -4  -1   5 179.483 3.82109   2
  -4  -1   5 191.800 3.88524   3
  -3  -1   5 366.379 3.87312   3
  -3  -1   5 575.831 5.31290   1
  -3  -1   5 346.191 3.97284   2
  -2  -1   5 88.4367 1.62380   3
  -2  -1   5 85.9969 1.57224   2
  -2  -1   5 147.438 1.98963   1
  -1  -1   5 564.070 4.41405   1
  -1  -1   5 353.322 3.14764   3
  -1  -1   5 329.209 2.99182   2
   0  -1   5 770.933 4.88713   3
   0  -1   5 1230.24 6.98661   1
   0  -1   5 701.808 4.52130   2
   1  -1   5 413.749 2.94136   2
   1  -1   5 731.036 4.25820   1
   1  -1   5 463.335 3.15472   3
   2  -1   5 52.1947 1.12446   3
   2  -1   5 48.0698 1.03435   2
   2  -1   5 80.9962 1.40162   1
   3  -1   5 274.585 2.69558   2
   3  -1   5 294.988 2.81129   3
   3  -1   5 471.854 3.99813   1
   4  -1   5 152.476 2.36763   1
   4  -1   5 96.3526 1.96301   3
   4  -1   5 89.6563 1.95325   2
   5  -1   5 157.440 2.66470   2
   5  -1   5 267.894 3.40810   1
   5  -1   5 167.377 2.72647   3
   6  -1   5 194.761 3.99656   2
   6  -1   5 340.011 5.42325   1
   6  -1   5 212.119 4.62319   3
   7  -1   5 74.1591 4.13292   1
   7  -1   5 45.1520 3.68716   3
   7  -1   5 40.5009 3.58294   2
   8  -1   5 4.29463 3.19947   2
   8  -1   5 3.25439 2.75897   1
   8  -1   5 6.52909 3.38391   3
  -7   0   5 38.8218 15.1403   2
  -7   0   5 56.5534 11.1090   1
  -7   0   5 45.0391 11.9849   3
  -6   0   5 4.11135 2.09965   1
  -6   0   5 1.01613 2.07641   2
  -6   0   5 4.47956 2.12421   3
  -5   0   5 36.5620 3.10695   3
  -5   0   5 31.0019 3.03583   2
  -5   0   5 65.0991 3.87413   1
  -4   0   5 42.2278 2.16501   3
  -4   0   5 41.8960 2.20818   2
  -4   0   5 62.8194 3.13487   1
  -3   0   5 1.64606 0.82169   3
  -3   0   5 -0.8106 0.76526   2
  -3   0   5 1.38403 0.81040   1
  -2   0   5 47.7853 1.40845   2
  -2   0   5 84.5528 1.65461   1
  -2   0   5 55.1423 1.55861   3
  -1   0   5 298.888 2.77799   3
  -1   0   5 271.205 2.70266   2
  -1   0   5 483.434 3.77658   1
   0   0   5 2363.08 11.6486   2
   0   0   5 4055.95 19.6915   1
   0   0   5 2543.30 12.4570   3
   1   0   5 776.796 4.68701   3
   1   0   5 1270.96 7.08952   1
   1   0   5 720.344 5.86703   2
   2   0   5 2.44774 0.37570   3
   2   0   5 4.12404 0.43128   1
   2   0   5 1.45855 0.58624   2
   3   0   5 41.4296 0.98522   3
   3   0   5 36.4397 0.91985   2
   3   0   5 65.1273 1.23901   1
   4   0   5 27.5501 1.16547   2
   4   0   5 48.4814 1.50084   1
   4   0   5 30.0045 1.19504   3
   5   0   5 229.047 3.03844   2
   5   0   5 398.103 4.11916   1
   5   0   5 246.913 3.12598   3
   6   0   5 25.1070 1.65663   3
   6   0   5 44.5354 2.16066   1
   6   0   5 24.1513 1.72209   2
   7   0   5 22.4321 2.20092   1
   7   0   5 16.5409 2.22038   2
   7   0   5 18.6986 2.26499   3
   8   0   5 36.4458 3.68060   2
   8   0   5 59.3488 5.34596   1
   8   0   5 32.8462 3.91348   3
   9   0   5 294.969 17.8610   1
   9   0   5 172.731 16.5116   3
   9   0   5 179.310 15.6535   2
  -6   1   5 4.71596 2.42271   1
  -6   1   5 3.97674 2.20612   3
  -6   1   5 2.43929 2.62087   2
  -5   1   5 6.48621 2.13652   1
  -5   1   5 1.18808 1.74494   3
  -5   1   5 8.68376 1.89545   2
  -4   1   5 296.664 4.55995   3
  -4   1   5 503.228 6.40733   1
  -4   1   5 322.072 4.89025   2
  -4   0   5 546.491 24.1992  -2
  -4   1   5 546.491 24.1992   1
  -3   1   5 500.287 5.61398   3
  -3   1   5 793.148 7.48990   1
  -3   1   5 481.433 5.56940   2
  -2   1   5 45.1552 1.51265   3
  -2   1   5 76.6290 1.90826   1
  -2   1   5 40.8925 1.41143   2
  -1   1   5 62.3581 1.59856   1
  -1   1   5 35.4819 1.26321   2
  -1   1   5 39.4376 1.29623   3
   0   1   5 137.074 1.81935   2
   0   1   5 234.216 2.36229   1
   0   1   5 144.777 1.80103   3
   1   1   5 19.3251 1.00512   1
   1   1   5 13.0084 0.59542   3
   1   1   5 11.1150 0.57153   2
   2   1   5 334.036 3.64008   1
   2   1   5 209.472 2.84740   3
   2   1   5 194.509 2.63443   2
   3   1   5 63.5235 1.06200   1
   3   1   5 35.3189 0.94343   2
   3   1   5 37.2059 0.81272   3
   4   1   5 63.8288 1.42865   3
   4   1   5 104.302 1.75904   1
   4   1   5 63.3030 1.47703   2
   5   1   5 153.221 12.6628  -3
   5   1   5 153.221 12.6628   1
   5   1   5 91.2735 2.09593   1
   5   1   5 53.8915 1.78016   2
   5   1   5 58.5992 1.77455   3
   6   1   5 137.550 3.21671   2
   6   1   5 137.197 3.34059   3
   6   1   5 225.881 4.11985   1
   6   1   5 348.583 17.2507  -3
   6   1   5 348.583 17.2507   1
   7   1   5 67.1400 3.00969   2
   7   1   5 62.2936 3.83561   3
   7   1   5 108.234 4.67303   1
   7   1   5 168.770 9.36911  -3
   7   1   5 168.770 9.36911   1
   8   1   5 3.36786 2.40527   3
   8   1   5 12.6581 2.62949   1
   8   1   5 8.85405 1.99585   2
   8   1   5 26.4815 14.2516  -3
   8   1   5 26.4815 14.2516   1
   9   1   5 94.9296 7.53114   1
   9   1   5 53.9902 5.80274   3
   9   1   5 48.5171 8.01358   2
  -6   2   5 22.0836 3.76683   1
  -6   2   5 14.5912 3.40193   3
  -6   2   5 11.9020 3.29867   2
  -5   2   5 24.4602 2.92733   2
  -5   2   5 51.2839 3.72946   1
  -5   2   5 26.2587 3.07194   3
  -4   2   5 676.181 7.41304   1
  -4   2   5 436.402 5.77115   3
  -4   2   5 394.491 5.56368   2
  -3   2   5 489.110 5.72747   3
  -3   2   5 797.695 7.72138   1
  -3   2   5 471.572 5.38217   2
  -2   2   5 36.5218 1.61005   2
  -2   2   5 45.1094 1.89672   3
  -2   2   5 69.7463 2.24801   1
  -1   2   5 118.940 1.81113   2
  -1   2   5 206.683 2.57310   1
  -1   2   5 131.061 2.17376   3
   0   2   5 1219.94 7.48426   1
   0   2   5 749.555 5.16271   3
   0   2   5 694.985 4.72770   2
   1   2   5 264.393 2.27446   2
   1   2   5 297.401 2.34327   3
   1   2   5 469.878 3.37780   1
   2   2   5 -0.5329 0.29579   2
   2   2   5 0.32852 0.53252   3
   2   2   5 -1.0049 0.55069   1
   3   2   5 131.741 1.47853   2
   3   2   5 227.146 1.87525   1
   3   2   5 139.694 1.48572   3
   4   2   5 8.61197 0.69879   3
   4   2   5 6.52688 0.70376   2
   4   2   5 13.8097 0.83084   1
   5   2   5 2226.90 33.7429  -3
   5   2   5 2226.90 33.7429   1
   5   2   5 875.638 7.14441   3
   5   2   5 798.782 7.30069   2
   5   2   5 1395.14 10.2568   1
   6   2   5 1515.54 22.0796  -3
   6   2   5 1515.54 22.0796   1
   6   2   5 980.850 10.7719   1
   6   2   5 540.701 6.20824   2
   6   2   5 580.497 7.50298   3
   7   2   5 38.2721 2.22414   2
   7   2   5 98.1176 6.14154  -3
   7   2   5 98.1176 6.14154   1
   7   2   5 67.4045 4.49632   1
   7   2   5 40.8444 3.67904   3
   8   2   5 -4.2167 4.03744  -3
   8   2   5 -4.2167 4.03744   1
   8   2   5 1.55987 1.72940   2
   9   2   5 13.2214 2.69947   2
   9   2   5 59.8533 5.79598  -3
   9   2   5 59.8533 5.79598   1
  -6   3   5 48.7182 15.7942   1
  -6   3   5 18.6448 7.10927   2
  -5   3   5 3.20352 2.18793   3
  -5   3   5 2.46735 2.34819   1
  -5   3   5 3.09462 2.26987   2
  -4   3   5 24.6388 2.03826   1
  -4   3   5 14.2972 1.70409   2
  -4   3   5 14.1973 1.64325   3
  -3   3   5 9.38939 1.32986   1
  -3   3   5 3.86790 1.10032   2
  -3   3   5 5.52330 1.15009   3
  -2   3   5 2.95736 0.91800   3
  -2   3   5 5.18263 1.01311   2
  -2   3   5 5.26375 1.01455   1
  -1   3   5 187.219 2.93991   3
  -1   3   5 172.580 2.84367   2
  -1   3   5 299.198 3.78326   1
   0   3   5 1248.17 7.85653   1
   0   3   5 713.413 4.82519   2
   0   3   5 776.521 5.49020   3
   1   3   5 95.3198 1.38037   3
   1   3   5 85.0933 1.28359   2
   1   3   5 159.208 1.62131   1
   2   3   5 197.920 1.77636   2
   2   3   5 214.700 1.98908   3
   2   3   5 342.292 2.63431   1
   3   3   5 192.338 1.98098   3
   3   3   5 171.659 1.88286   2
   3   3   5 302.338 2.57910   1
   4   3   5 14.5564 0.76606   3
   4   3   5 20.7144 0.97788   1
   4   3   5 15.9840 0.87966   2
   4   3   5 43.9634 4.39472  -3
   4   3   5 43.9634 4.39472   1
   5   3   5 60.0765 2.04105   2
   5   3   5 108.701 2.17962   1
   5   3   5 66.7543 1.75825   3
   6   3   5 152.652 3.12211   2
   6   3   5 417.178 16.3222  -3
   6   3   5 417.178 16.3222   1
   6   3   5 251.024 4.48265   1
   6   3   5 153.299 3.44753   3
   7   3   5 48.9268 3.58336  -3
   7   3   5 48.9268 3.58336   1
   7   3   5 21.4885 1.82329   2
   7   3   5 53.2782 8.16253   1
   7   3   5 22.2148 5.25734   3
   8   3   5 35.9604 2.78021   2
   8   3   5 89.8217 5.38619  -3
   8   3   5 89.8217 5.38619   1
   9   3   5 85.3879 5.09712   2
   9   3   5 235.883 8.02275  -3
   9   3   5 235.883 8.02275   1
  -5   4   5 43.3565 4.08228   1
  -5   4   5 30.4348 3.51601   3
  -5   4   5 17.4753 3.78099   2
  -4   4   5 316.591 5.44196   3
  -4   4   5 283.922 5.26411   2
  -4   4   5 496.976 7.39513   1
  -3   4   5 348.073 5.34607   2
  -3   4   5 376.204 5.32621   3
  -3   4   5 604.612 7.31735   1
  -2   4   5 25.9162 1.79888   2
  -2   4   5 33.7961 1.77305   3
  -2   4   5 51.9942 2.15400   1
  -1   4   5 1.40764 0.90154   1
  -1   4   5 -0.3268 0.87578   2
  -1   4   5 1.61607 0.84226   3
   0   4   5 5.14220 0.81610   2
   0   4   5 11.7570 1.06648   1
   0   4   5 7.48370 0.91208   3
   1   4   5 35.4021 1.12563   1
   1   4   5 19.4094 0.92164   2
   1   4   5 22.3074 0.96949   3
   2   4   5 375.523 3.01846   1
   2   4   5 215.177 2.08368   2
   2   4   5 231.767 2.44694   3
   3   4   5 44.1522 1.14379   2
   3   4   5 76.0613 1.32182   1
   3   4   5 49.6429 1.15020   3
   4   4   5 35.6005 1.18234   3
   4   4   5 55.7693 1.47155   1
   4   4   5 31.1174 1.11651   2
   4   4   5 148.201 8.44082  -3
   4   4   5 148.201 8.44082   1
   5   4   5 393.679 4.67397   2
   5   4   5 414.779 4.26125   3
   5   4   5 665.396 5.54296   1
   6   4   5 391.252 4.98941   2
   6   4   5 667.448 6.80367   1
   6   4   5 429.031 5.14360   3
   7   4   5 139.355 6.00432   1
   7   4   5 91.1941 4.91675   3
   7   4   5 231.082 7.98724  -3
   7   4   5 231.082 7.98724   1
   7   4   5 87.7402 3.17269   2
   8   4   5 10.2181 1.79418   2
   8   4   5 36.2126 4.28511  -3
   8   4   5 36.2126 4.28511   1
   9   4   5 217.304 7.64973  -3
   9   4   5 217.304 7.64973   1
   9   4   5 84.4388 5.15509   2
  -5   5   5 -9.4282 7.36278   3
  -4   5   5 62.5408 3.36466   2
  -4   4   6 212.479 9.19798  -2
  -4   5   5 212.479 9.19798   1
  -4   5   5 76.5150 3.41408   3
  -4   5   5 112.953 8.18056   1
  -3   5   5 305.588 6.08440   1
  -3   5   5 170.948 4.17787   2
  -3   5   5 180.830 4.28082   3
  -3   4   6 434.037 15.8111  -2
  -3   5   5 434.037 15.8111   1
  -2   5   5 51.2066 2.50944   1
  -2   5   5 31.8937 1.97037   2
  -2   5   5 34.1670 2.01411   3
  -1   5   5 4.10668 1.12361   3
  -1   5   5 9.72912 1.19730   1
  -1   5   5 1.85055 1.07410   2
   0   5   5 79.5780 2.22076   2
   0   5   5 135.625 2.78716   1
   0   5   5 87.0326 2.41844   3
   1   5   5 57.3341 1.49261   2
   1   5   5 106.191 2.17049   1
   1   5   5 67.5066 1.82158   3
   2   5   5 14.8024 0.77594   2
   2   5   5 15.8520 0.87015   3
   2   5   5 26.4002 1.09789   1
   3   5   5 23.1603 0.92842   1
   3   5   5 14.6036 0.77195   3
   3   5   5 11.6602 0.71143   2
   4   5   5 6.06766 0.68209   2
   4   5   5 12.1644 0.86036   1
   4   5   5 6.87292 0.68288   3
   5   5   5 320.385 4.27274   2
   5   5   5 348.071 4.42288   3
   5   5   5 548.776 5.22333   1
   6   5   5 803.991 7.74520   2
   6   5   5 864.289 8.00225   3
   6   5   5 1357.02 10.9479   1
   7   5   5 243.773 4.86791   3
   7   5   5 223.672 4.51693   2
   7   5   5 385.330 5.84664   1
   8   5   5 19.4338 4.16728   1
   8   5   5 16.3287 6.24892  -3
   8   5   5 16.3287 6.24892   1
   8   5   5 9.39985 2.12500   2
   8   5   5 6.53673 3.25655   3
   9   5   5 16.9203 5.20268  -3
   9   5   5 16.9203 5.20268   1
   9   5   5 4.97322 4.29688   2
  -4   6   5 17.5414 2.75185   2
  -4   5   6 71.8668 8.96601  -2
  -4   6   5 71.8668 8.96601   1
  -4   6   5 13.0958 2.65737   3
  -3   6   5 5.49345 1.60998   3
  -3   6   5 7.84182 3.45476   1
  -3   6   5 7.52538 1.70584   2
  -3   5   6 41.0914 4.80082  -2
  -3   6   5 41.0914 4.80082   1
  -2   6   5 1.54357 1.30375   2
  -2   6   5 1.93391 2.65050   1
  -2   6   5 0.02635 1.32630   3
  -2   5   6 131.174 5.85867  -2
  -2   6   5 131.174 5.85867   1
  -1   6   5 0.87914 1.06429   3
  -1   6   5 1.58212 1.12558   2
  -1   6   5 8.80583 1.46577   1
  -1   5   6 445.858 20.5548  -2
  -1   6   5 445.858 20.5548   1
   0   6   5 25.9733 1.79890   3
   0   6   5 24.1144 1.70149   2
   0   6   5 43.1881 2.20779   1
   1   6   5 11.3717 1.22816   2
   1   6   5 22.1442 1.51358   1
   1   6   5 13.8175 1.33038   3
   2   6   5 335.990 3.23526   3
   2   6   5 528.388 4.70647   1
   2   6   5 311.701 2.94018   2
   3   6   5 350.699 3.06638   1
   3   6   5 222.364 2.47596   3
   3   6   5 206.623 2.24253   2
   4   6   5 16.5861 0.93258   2
   4   6   5 16.8261 0.91419   3
   4   6   5 26.4117 1.11371   1
   4   6   4 204.566 7.26894  -3
   4   6   5 204.566 7.26894   2
   5   6   5 28.4785 1.62282   1
   5   6   5 17.9733 1.35338   3
   5   6   5 15.0756 1.25546   2
   6   6   5 41.3027 2.12104   1
   6   6   5 24.1439 1.92966   2
   6   6   5 26.2560 1.75792   3
   6   6   4 53.7526 10.4516  -3
   6   6   5 53.7526 10.4516   2
   7   6   5 10.6234 1.76016   1
   7   6   5 7.39826 1.56777   3
   7   6   5 8.54550 1.57860   2
   7   6   4 42.8617 6.96839  -3
   7   6   5 42.8617 6.96839   2
   8   6   5 2.22675 3.88803   2
   8   6   5 1.00600 1.71959   3
   8   6   4 149.828 5.60343  -3
   8   6   5 149.828 5.60343   2
   8   6   5 1.04672 1.80241   1
   9   6   5 142.113 6.12030   1
   9   6   5 83.6576 5.64070   3
   9   6   5 237.213 16.5938  -3
   9   6   5 237.213 16.5938   1
  -3   7   5 133.292 6.39071   2
  -3   7   5 145.391 5.78066   3
  -3   7   5 230.489 5.98362   1
  -2   7   5 39.2730 2.72788   1
  -2   7   5 19.6692 2.21848   2
  -2   7   5 14.0574 5.95230   3
  -1   7   5 29.2045 2.29610   1
  -1   7   5 13.5353 1.98610   2
  -1   7   5 15.1243 4.51338   3
   0   7   5 43.8546 2.63264   1
   0   7   5 26.8049 2.12853   3
   0   7   4 204.927 7.04850  -3
   0   7   5 204.927 7.04850   2
   0   7   5 22.4598 3.22962   2
   0   7   6 66.7108 11.1042  -3
   0   7   5 66.7108 11.1042   1
   1   7   5 52.2369 2.44026   3
   1   7   5 82.4699 2.85929   1
   1   7   4 74.5492 3.29431  -3
   1   7   5 74.5492 3.29431   2
   1   7   5 46.6042 7.35819   2
   2   7   5 989.674 8.34406   1
   2   7   5 627.563 7.30200   3
   2   7   4 1159.91 9.67832  -3
   2   7   5 1159.91 9.67832   2
   3   7   4 850.777 7.23977  -3
   3   7   5 850.777 7.23977   2
   3   7   5 556.893 4.09778   1
   3   7   5 351.067 3.40759   3
   3   7   5 330.759 5.44285   2
   4   7   5 18.1095 0.95546   1
   4   7   5 11.8940 0.89360   3
   4   7   5 11.8097 1.52863   2
   4   7   4 75.3001 2.35321  -3
   4   7   5 75.3001 2.35321   2
   5   7   5 70.4111 2.37998   3
   5   7   4 109.127 3.80648  -3
   5   7   5 109.127 3.80648   2
   5   7   5 117.151 2.85162   1
   5   7   5 72.7754 5.15086   2
   6   7   5 291.920 4.70506   3
   6   7   4 270.261 5.46893  -3
   6   7   5 270.261 5.46893   2
   6   7   5 277.109 14.4143   2
   6   7   5 462.446 6.81009   1
   7   7   5 185.492 5.32604   3
   7   7   5 295.394 6.68074   1
   7   7   4 243.077 5.54681  -3
   7   7   5 243.077 5.54681   2
   8   7   4 17.1160 3.36310  -3
   8   7   5 17.1160 3.36310   2
   8   7   5 2.20370 1.67535   1
   8   7   5 2.75437 2.91979   3
   9   7   5 78.6311 5.56294   1
   9   7   4 61.2555 8.99379  -3
   9   7   5 61.2555 8.99379   2
  -2   8   5 3.18534 2.36640   1
  -2   8   5 5.90680 4.08135   2
  -2   8   5 1.98269 4.88426   3
  -1   8   5 45.9346 3.32953   1
  -1   8   5 24.9601 7.84597   2
  -1   8   6 219.013 18.0519  -3
  -1   8   5 219.013 18.0519   1
   0   8   5 8.59603 3.08665   1
   0   8   6 125.547 5.77157  -3
   0   8   5 125.547 5.77157   1
   1   8   6 49.7165 4.48839  -3
   1   8   5 49.7165 4.48839   1
   1   8   5 -0.2207 2.32718   1
   2   8   5 13.7201 3.53632   2
   2   8   5 18.3411 1.84522   1
   2   8   5 12.1367 2.46121   3
   2   8   4 20.3722 4.73281  -3
   2   8   5 20.3722 4.73281   2
   2   8   6 26.5918 7.46277  -3
   2   8   5 26.5918 7.46277   1
   3   8   4 9.88346 2.22011  -3
   3   8   5 9.88346 2.22011   2
   3   8   5 5.41908 1.24795   3
   3   8   5 6.73290 1.24226   1
   4   8   5 18.7549 1.01605   1
   4   8   4 32.9487 2.54748  -3
   4   8   5 32.9487 2.54748   2
   4   8   5 12.0462 1.03311   3
   4   8   5 11.3679 3.15924   2
   5   8   4 271.064 5.63959  -3
   5   8   5 271.064 5.63959   2
   5   8   5 438.072 4.45228   1
   5   8   5 274.537 4.46381   3
   5   8   5 255.866 9.84515   2
   6   8   5 548.711 7.15353   1
   6   8   5 332.829 6.59821   3
   6   8   4 320.312 6.54111  -3
   6   8   5 320.312 6.54111   2
   7   8   5 6.38584 1.80955   3
   7   8   4 14.7492 3.01675  -3
   7   8   5 14.7492 3.01675   2
   7   8   5 8.60548 1.90712   1
   8   8   4 53.7906 4.68984  -3
   8   8   5 53.7906 4.68984   2
   8   8   5 31.8688 2.85003   1
   8   8   5 22.3312 3.97225   3
   9   8   5 -6.2624 4.22974   1
  -1   9   5 9.34039 3.40109   1
   0   9   5 17.1254 4.07187   1
   0   9   6 49.5346 8.10714  -3
   0   9   5 49.5346 8.10714   1
   1   9   6 38.1427 4.39549  -3
   1   9   5 38.1427 4.39549   1
   2   9   6 754.471 9.90740  -3
   2   9   5 754.471 9.90740   1
   2   9   5 428.351 13.9625   2
   3   9   6 624.002 9.43153  -3
   3   9   5 624.002 9.43153   1
   3   9   5 376.718 16.4652   3
   3   9   5 354.738 8.71960   2
   3   9   5 577.770 20.5219   1
   4   9   5 13.0084 1.74515   1
   4   9   5 9.30745 5.08684   2
   4   9   5 13.1498 2.50782   3
   4   9   6 28.2346 5.84743  -3
   4   9   5 28.2346 5.84743   1
   5   9   5 35.8115 2.69499   3
   5   9   5 53.1088 2.51469   1
   5   9   5 30.2604 2.60629   2
   6   9   5 4.42765 1.54544   3
   6   9   5 10.7552 1.67287   1
   6   9   5 -1.6176 4.32035   2
   6   9   4 10.4687 10.8383  -3
   6   9   5 10.4687 10.8383   2
   7   9   5 65.9900 4.07177   1
   7   9   5 41.9692 2.94808   3
   8   9   5 29.2889 4.11369   3
   8   9   5 40.2676 5.06911   1
   0  10   5 -5.3458 5.59827   1
   0  10   5 -4.2998 4.69604   2
   1  10   5 37.6840 8.43257   2
   1  10   5 27.4917 7.59978   1
   1  10   6 50.3711 17.2818  -3
   1  10   5 50.3711 17.2818   1
   2  10   5 95.9123 4.89284   2
   2  10   6 178.512 8.71790  -3
   2  10   5 178.512 8.71790   1
   2  10   5 161.906 12.6855   1
   3  10   5 80.6162 4.06550   2
   3  10   6 141.840 5.86129  -3
   3  10   5 141.840 5.86129   1
   4  10   5 20.9649 2.32764   2
   4  10   6 106.429 5.19231  -3
   4  10   5 106.429 5.19231   1
   5  10   5 79.4451 4.71228   2
   5  10   5 140.986 12.7441   1
   6  10   6 303.963 18.3746  -3
   6  10   5 303.963 18.3746   1
   6  10   5 112.259 6.13771   2
   6  10   5 179.204 11.7378   1
   7  10   6 35.0850 15.0663  -3
   7  10   5 35.0850 15.0663   1
   7  10   5 24.2045 4.45739   1
   7  10   5 14.1315 6.12498   3
   2  11   5 33.2871 12.3833   1
   3  11   5 19.0880 7.01277   2
   3  11   5 40.7391 8.17477   1
   4  11   5 0.40980 3.15385   2
   4  11   6 48.8923 11.8729  -3
   4  11   5 48.8923 11.8729   1
   5  11   5 43.3088 5.19376   2
  -2  -9   6 32.5128 7.20564   3
  -1  -9   6 37.1437 6.54102   3
  -4  -8   6 16.6654 5.70491   3
  -4  -8   6 12.6974 8.76600   2
  -4  -8   6 23.7351 5.57057   1
  -3  -8   6 68.9462 5.51351   1
  -3  -8   6 37.6892 4.22834   2
  -3  -8   6 48.7511 5.04206   3
  -2  -8   6 73.5934 4.51768   2
  -2  -8   6 84.9679 3.80756   3
  -2  -8   6 131.811 4.37949   1
  -1  -8   6 5.01082 2.33804   2
  -1  -8   6 12.2208 1.87841   1
  -1  -8   6 6.52007 1.72867   3
   0  -8   6 6.48995 2.58462   2
   0  -8   6 15.5077 2.25287   1
   0  -8   6 8.53158 1.89300   3
   1  -8   6 14.5215 3.34118   2
   1  -8   6 15.4104 2.95709   3
   1  -8   6 22.5768 3.30787   1
   2  -8   6 2.02022 5.39721   1
   2  -8   6 7.66786 5.85299   2
  -5  -7   6 4.84072 2.82041   1
  -5  -7   6 6.99453 3.73489   3
  -5  -7   6 0.25917 3.87536   2
  -4  -7   6 28.7181 3.08159   2
  -4  -7   6 25.0821 2.72577   3
  -4  -7   6 40.9388 3.48605   1
  -3  -7   6 131.824 4.66794   3
  -3  -7   6 213.053 5.21853   1
  -3  -7   6 121.544 4.51434   2
  -2  -7   6 283.201 5.80918   3
  -2  -7   6 262.789 6.08823   2
  -2  -7   6 439.538 6.31009   1
  -1  -7   6 63.7044 2.92554   3
  -1  -7   6 104.127 3.61129   1
  -1  -7   6 56.0985 3.72013   2
   0  -7   6 13.0720 1.69182   1
   0  -7   6 5.85385 2.28725   2
   0  -7   6 8.67013 1.63510   3
   1  -7   6 2.53436 1.59034   3
   1  -7   6 8.36339 1.76080   1
   1  -7   6 5.88627 2.04559   2
   2  -7   6 62.9307 4.47748   3
   2  -7   6 59.1652 4.32745   2
   2  -7   6 100.629 4.99828   1
   3  -7   6 81.9522 5.19724   1
   3  -7   6 41.4566 5.33943   3
   3  -7   6 44.8372 5.57956   2
  -6  -6   6 54.8707 7.53014   2
  -6  -6   6 67.3264 8.97180   3
  -6  -6   6 142.317 20.6782   1
  -5  -6   6 74.2610 4.43267   2
  -5  -6   6 112.812 4.73989   1
  -5  -6   6 71.7730 4.36461   3
  -4  -6   6 3.76638 1.85729   3
  -4  -6   6 3.87197 2.08051   2
  -4  -6   6 10.2104 2.00819   1
  -3  -6   6 62.9146 2.91266   3
  -3  -6   6 55.2891 2.82723   2
  -3  -6   6 104.357 3.57625   1
  -2  -6   6 35.4295 2.49402   1
  -2  -6   6 22.1261 1.96783   2
  -2  -6   6 22.5309 1.96775   3
  -1  -6   6 0.47814 1.14013   1
  -1  -6   6 -0.9757 1.07954   3
  -1  -6   6 0.27126 1.19986   2
   0  -6   6 5.24570 1.21315   3
   0  -6   6 6.98934 1.26083   1
   0  -6   6 2.46750 1.76655   2
   1  -6   6 10.7963 1.62167   1
   1  -6   6 5.42512 1.44166   3
   1  -6   6 4.44901 1.75109   2
   2  -6   6 11.8770 1.84956   3
   2  -6   6 17.6674 1.82877   1
   2  -6   6 9.31957 2.12776   2
   3  -6   6 12.9592 2.43282   2
   3  -6   6 28.0203 2.81672   1
   3  -6   6 17.8240 2.59035   3
   4  -6   6 14.8111 3.28061   3
   4  -6   6 25.4356 3.76238   1
   4  -6   6 13.3933 3.30844   2
   5  -6   6 17.9846 12.7535   2
  -6  -5   6 156.848 7.38464   2
  -6  -5   6 182.354 8.24738   3
  -6  -5   6 290.805 10.1947   1
  -5  -5   6 126.411 5.23115   3
  -5  -5   6 132.018 5.29182   2
  -5  -5   6 222.224 5.19527   1
  -4  -5   6 26.5558 2.23205   1
  -4  -5   6 14.4337 2.26688   2
  -4  -5   6 14.2777 2.07613   3
  -3  -5   6 35.9683 2.13910   2
  -3  -5   6 40.9320 2.22655   3
  -3  -5   6 66.1788 2.72632   1
  -2  -5   6 255.185 4.24177   3
  -2  -5   6 406.812 5.34676   1
  -2  -5   6 240.557 4.15470   2
  -1  -5   6 47.0763 2.21800   2
  -1  -5   6 52.6555 2.30677   3
  -1  -5   6 78.0475 2.62588   1
   0  -5   6 98.7525 2.72800   1
   0  -5   6 58.7243 2.26620   3
   0  -5   6 51.3449 2.08057   2
   1  -5   6 22.4341 1.52857   1
   1  -5   6 11.9437 1.24859   3
   1  -5   6 9.41317 1.65154   2
   2  -5   6 93.9072 3.81601   2
   2  -5   6 160.177 3.33347   1
   2  -5   6 105.888 3.27179   3
   3  -5   6 645.071 8.01684   1
   3  -5   6 412.463 7.56823   3
   3  -5   6 368.373 7.24185   2
   4  -5   6 187.571 5.69091   3
   4  -5   6 166.042 5.56952   2
   4  -5   6 312.519 6.93779   1
   5  -5   6 4.31369 2.29991   1
   5  -5   6 7.98868 2.78313   2
   5  -5   6 3.60434 2.44749   3
  -6  -4   6 -1.2835 2.49281   2
  -6  -4   6 -0.5802 2.01321   3
  -6  -4   6 -0.8578 1.92498   1
  -5  -4   6 -0.4258 1.74269   2
  -5  -4   6 3.44239 1.87651   3
  -5  -4   6 5.14752 1.98097   1
  -4  -4   6 89.9402 3.47414   1
  -4  -4   6 62.6161 3.51793   3
  -4  -4   6 55.3972 3.14499   2
  -3  -4   6 405.519 5.26310   1
  -3  -4   6 235.498 4.35060   2
  -3  -4   6 249.599 4.10697   3
  -2  -4   6 275.494 4.19474   2
  -2  -4   6 282.586 4.21196   3
  -2  -4   6 464.816 5.48876   1
  -1  -4   6 11.7292 1.30750   3
  -1  -4   6 12.9132 1.34160   2
  -1  -4   6 22.3525 1.43208   1
   0  -4   6 220.507 2.98074   1
   0  -4   6 132.109 2.40491   2
   0  -4   6 140.244 2.48476   3
   1  -4   6 12.5690 1.03084   3
   1  -4   6 19.1326 1.26121   1
   1  -4   6 9.71255 1.25570   2
   2  -4   6 106.061 2.67599   1
   2  -4   6 63.5103 2.18314   3
   2  -4   6 63.3840 2.93134   2
   3  -4   6 101.888 2.97259   1
   3  -4   6 59.6647 3.29735   3
   3  -4   6 60.6198 3.33825   2
   4  -4   6 112.236 3.76886   1
   4  -4   6 63.1041 3.58845   3
   4  -4   6 58.3757 3.49646   2
   5  -4   6 113.519 6.06424   1
   5  -4   6 65.3652 3.91335   3
   5  -4   6 63.9665 3.86086   2
   6  -4   6 62.0201 7.66964   2
   6  -4   6 117.727 9.82361   1
   6  -4   6 75.8685 8.23137   3
  -6  -3   6 183.685 6.78261   2
  -6  -3   6 319.167 9.63636   1
  -6  -3   6 190.241 7.67966   3
  -5  -3   6 142.166 5.52427   2
  -5  -3   6 164.232 5.12805   3
  -5  -3   6 244.558 6.02551   1
  -4  -3   6 26.9257 2.02768   1
  -4  -3   6 20.3950 2.07160   3
  -4  -3   6 17.9178 1.84713   2
  -3  -3   6 60.6052 2.18039   3
  -3  -3   6 104.768 2.68033   1
  -3  -3   6 54.6575 2.25574   2
  -2  -3   6 32.8194 1.61253   2
  -2  -3   6 37.3066 1.80944   3
  -2  -3   6 57.4870 2.25741   1
  -1  -3   6 94.3302 2.44861   3
  -1  -3   6 82.4073 2.04919   2
  -1  -3   6 152.657 2.87008   1
   0  -3   6 31.0195 1.37698   3
   0  -3   6 30.8724 1.39032   2
   0  -3   6 51.0751 1.65193   1
   1  -3   6 0.12294 0.58819   2
   1  -3   6 0.55815 0.67968   1
   1  -3   6 1.02348 0.66863   3
   2  -3   6 24.5356 1.30372   3
   2  -3   6 38.2060 1.50924   1
   2  -3   6 20.8402 1.50638   2
   3  -3   6 649.557 6.38365   1
   3  -3   6 395.877 5.15994   3
   3  -3   6 392.917 5.43512   2
   4  -3   6 231.434 4.84874   2
   4  -3   6 247.341 5.57943   3
   4  -3   6 402.027 5.81384   1
   5  -3   6 11.1639 2.09130   2
   5  -3   6 9.98572 1.93575   3
   5  -3   6 16.9690 2.22314   1
   6  -3   6 97.5248 6.09072   2
   6  -3   6 105.065 7.67086   3
   6  -3   6 168.848 10.3060   1
   7  -3   6 36.9515 6.38989   2
   7  -3   6 56.9402 7.83429   1
   7  -3   6 39.7657 6.98757   3
  -7  -2   6 72.7854 13.0473   3
  -6  -2   6 186.070 6.91578   1
  -6  -2   6 112.773 5.63662   3
  -6  -2   6 114.163 5.70310   2
  -5  -2   6 128.410 4.24189   1
  -5  -2   6 75.4955 4.36703   2
  -5  -2   6 75.1297 4.34529   3
  -4  -2   6 17.0294 1.59177   2
  -4  -2   6 30.4273 2.13852   1
  -4  -2   6 14.4938 1.67087   3
  -3  -2   6 12.0064 1.27426   3
  -3  -2   6 9.38698 1.23304   2
  -3  -2   6 15.9173 1.20313   1
  -2  -2   6 164.208 2.81627   3
  -2  -2   6 259.747 3.45550   1
  -2  -2   6 154.835 2.74431   2
  -1  -2   6 95.0003 2.04696   2
  -1  -2   6 154.871 2.41762   1
  -1  -2   6 94.8908 1.97966   3
   0  -2   6 8.33869 0.86759   3
   0  -2   6 11.9538 0.94545   1
   0  -2   6 6.08560 0.79559   2
   1  -2   6 8.97786 0.73490   2
   1  -2   6 17.6214 0.85342   1
   1  -2   6 11.5521 0.77485   3
   2  -2   6 168.868 2.47455   2
   2  -2   6 297.392 3.08250   1
   2  -2   6 186.199 2.39715   3
   3  -2   6 510.866 6.03484   2
   3  -2   6 874.483 6.48550   1
   3  -2   6 544.980 4.76561   3
   4  -2   6 818.864 7.29516   1
   4  -2   6 481.110 6.14989   2
   4  -2   6 518.667 6.35584   3
   5  -2   6 77.0101 3.30698   3
   5  -2   6 71.3638 3.22606   2
   5  -2   6 111.523 3.66656   1
   6  -2   6 2.70135 2.14096   2
   6  -2   6 4.06115 2.20148   3
   6  -2   6 5.21070 1.89281   1
   7  -2   6 29.9837 4.01954   1
   7  -2   6 21.3164 3.32218   2
   7  -2   6 21.7880 3.94833   3
   8  -2   6 10.3302 6.55010   3
   8  -2   6 20.1905 6.20996   1
   8  -2   6 -1.0628 5.55074   2
  -6  -1   6 12.7758 2.60172   2
  -6  -1   6 12.8080 2.63575   3
  -6  -1   6 17.4627 2.98681   1
  -5  -1   6 14.6498 2.53477   1
  -5  -1   6 10.4408 2.39207   3
  -5  -1   6 11.2758 2.33292   2
  -4  -1   6 114.079 3.40593   1
  -4  -1   6 63.1637 2.78340   2
  -4  -1   6 66.3277 3.42832   3
  -3  -1   6 82.3684 2.31066   2
  -3  -1   6 98.7574 2.65331   3
  -3  -1   6 154.406 3.03255   1
  -2  -1   6 1.02742 0.76608   2
  -2  -1   6 1.45620 0.75976   3
  -2  -1   6 2.70219 0.71941   1
  -1  -1   6 142.919 2.15124   2
  -1  -1   6 253.448 2.95159   1
  -1  -1   6 158.685 2.34886   3
   0  -1   6 728.908 4.98609   1
   0  -1   6 454.431 3.61318   3
   0  -1   6 419.910 3.34592   2
   1  -1   6 10.0714 0.65893   1
   1  -1   6 6.18571 0.62467   3
   1  -1   6 6.19775 0.50693   2
   2  -1   6 296.484 2.64415   1
   2  -1   6 184.724 1.98227   3
   2  -1   6 173.170 2.44245   2
   3  -1   6 28.1315 1.46954   2
   3  -1   6 29.6295 1.18248   3
   3  -1   6 50.8035 1.52209   1
   4  -1   6 5.47000 1.16941   3
   4  -1   6 10.8781 1.04964   1
   4  -1   6 5.38205 1.11779   2
   5  -1   6 23.1641 1.63909   2
   5  -1   6 37.2598 1.85934   1
   5  -1   6 17.6020 1.51205   3
   6  -1   6 95.6960 4.40825   1
   6  -1   6 56.8980 3.18451   2
   6  -1   6 57.2016 3.69652   3
   7  -1   6 97.1567 5.15338   2
   7  -1   6 169.798 5.85336   1
   7  -1   6 105.835 5.22481   3
   8  -1   6 14.8049 3.53583   1
   8  -1   6 6.59906 3.25185   3
   8  -1   6 11.7713 3.68630   2
  -6   0   6 157.876 6.62367   1
  -6   0   6 87.8208 5.14229   3
  -6   0   6 91.7478 5.20755   2
  -5   0   6 130.349 5.55034   3
  -5   0   6 118.246 5.32218   2
  -5   0   6 218.669 6.42681   1
  -4   0   6 1.34002 1.45841   1
  -4   0   6 -1.3890 1.14871   2
  -4   0   6 0.96795 1.42408   3
  -3   0   6 148.908 2.98661   1
  -3   0   6 80.2952 2.67654   2
  -3   0   6 89.1210 2.60301   3
  -2   0   6 3.46476 0.87044   2
  -2   0   6 3.81248 0.85434   3
  -2   0   6 5.61796 0.86604   1
  -1   0   6 322.743 3.33552   3
  -1   0   6 514.887 4.17734   1
  -1   0   6 291.600 3.17585   2
   0   0   6 1320.74 7.49940   1
   0   0   6 812.091 5.17231   3
   0   0   6 764.977 4.90860   2
   1   0   6 1002.51 6.10707   1
   1   0   6 617.669 4.13716   3
   1   0   6 589.023 5.44860   2
   2   0   6 76.2017 1.13961   1
   2   0   6 47.2897 1.70036   2
   2   0   6 49.5851 1.72689   3
   3   0   6 163.505 2.28790   3
   3   0   6 260.337 2.70165   1
   3   0   6 149.634 2.11407   2
   4   0   6 535.213 4.59216   1
   4   0   6 333.290 4.00263   3
   4   0   6 306.216 4.14403   2
   5   0   6 14.3210 1.32872   3
   5   0   6 14.2480 1.31206   2
   5   0   6 23.2678 1.55899   1
   6   0   6 37.2712 2.44939   3
   6   0   6 57.5191 2.86861   1
   6   0   6 30.5196 2.26073   2
   7   0   6 24.9880 2.90550   1
   7   0   6 11.6944 1.91861   2
   7   0   6 16.7308 2.45413   3
   8   0   6 22.9251 3.08561   1
   8   0   6 9.23618 2.52096   3
   8   0   6 11.1699 2.56226   2
  -6   1   6 29.7087 5.00172   2
  -6   1   6 54.7475 4.52121   1
  -6   1   6 31.4922 3.91584   3
  -5   1   6 27.2719 3.19414   1
  -5   1   6 18.1007 2.83084   3
  -5   1   6 13.3164 2.54241   2
  -4   1   6 15.3410 2.08089   1
  -4   1   6 5.65255 1.36595   2
  -4   1   6 7.13110 1.73948   3
  -3   1   6 7.63842 1.26474   1
  -3   1   6 2.67204 1.10591   3
  -3   1   6 2.43254 1.13088   2
  -2   1   6 1.42777 0.83150   1
  -2   1   6 2.19624 0.95428   2
  -2   1   6 0.22264 0.79200   3
  -1   1   6 10.1179 0.93129   2
  -1   1   6 9.82269 0.92228   3
  -1   1   6 18.0516 1.04013   1
   0   1   6 63.4031 1.41595   2
   0   1   6 72.6123 1.52274   3
   0   1   6 116.597 1.82441   1
   1   1   6 30.1122 0.83275   3
   1   1   6 48.2526 1.15244   1
   1   1   6 29.5201 1.31774   2
   2   1   6 738.821 6.27196   3
   2   1   6 1157.00 8.75089   1
   2   1   6 680.761 5.98900   2
   3   1   6 886.649 6.56962   2
   3   1   6 959.333 7.26508   3
   3   1   6 1525.01 10.3906   1
   4   1   6 854.316 6.92789   1
   4   1   6 507.795 4.90081   2
   4   1   6 537.871 5.06316   3
   5   1   6 1.87226 0.91815   2
   5   1   6 3.75926 0.99571   1
   5   1   6 1.88171 0.90197   3
   6   1   6 54.4880 2.80214   2
   6   1   6 87.7529 3.75499   1
   6   1   6 53.6495 2.77355   3
   7   1   6 31.8194 2.49620   1
   7   1   6 22.9948 2.43401   2
   7   1   6 19.8999 2.17144   3
   8   1   6 66.3106 3.64519   3
   8   1   6 68.6041 3.94762   2
   8   1   6 120.877 5.52819   1
   9   1   6 16.8566 3.71308   3
   9   1   6 33.3913 6.05104   1
   9   1   6 15.0719 3.91611   2
  -6   2   6 5.44962 7.81666   2
  -6   2   6 4.17951 7.33749   3
  -6   2   6 4.62558 8.17307   1
  -5   2   6 59.8520 4.84950   3
  -5   2   6 86.3151 4.78228   1
  -5   2   6 48.7393 3.89850   2
  -4   2   6 47.8846 3.14817   1
  -4   2   6 25.4652 2.09891   2
  -4   2   6 26.3196 2.19636   3
  -3   2   6 2.20708 1.13837   1
  -3   2   6 -0.2500 1.02796   3
  -3   2   6 -0.0870 1.05865   2
  -2   2   6 0.41255 0.97566   3
  -2   2   6 0.33682 0.95718   1
  -2   2   6 -0.2368 0.93472   2
  -1   2   6 149.801 2.57258   3
  -1   2   6 238.790 3.02974   1
  -1   2   6 138.712 2.78181   2
   0   2   6 1836.83 10.7248   1
   0   2   6 1151.95 7.40828   3
   0   2   6 1048.18 7.20423   2
   1   2   6 714.048 4.73865   3
   1   2   6 1141.88 6.80663   1
   1   2   6 666.842 4.57152   2
   2   2   6 104.082 1.74229   2
   2   2   6 182.611 2.84862   1
   2   2   6 113.198 2.09240   3
   3   2   6 461.771 4.33653   1
   3   2   6 271.934 2.38566   2
   3   2   6 285.708 3.20053   3
   4   2   6 2.30272 0.69374   1
   4   2   6 1.02316 0.59595   2
   4   2   6 1.14161 0.66186   3
   5   2   6 20.5407 1.33627   2
   5   2   6 24.9231 1.51757   3
   5   2   6 41.6408 1.87530   1
   6   2   6 0.49604 1.26941   1
   6   2   6 0.08370 1.29786   2
   6   2   6 -2.2888 1.16793   3
   7   2   6 71.9176 4.06011   1
   7   2   6 44.4525 2.92432   2
   7   2   6 44.6556 3.40843   3
   7   2   6 128.448 11.2389  -3
   7   2   6 128.448 11.2389   1
   8   2   6 0.43545 2.22595   3
   8   2   6 0.21018 1.67812   2
   8   2   6 -1.7830 7.37687  -3
   8   2   6 -1.7830 7.37687   1
   8   2   6 -1.1827 2.04414   1
   9   2   6 106.796 5.85041   3
   9   2   6 109.270 5.71243   2
   9   2   6 190.611 7.01671   1
  -5   3   6 26.8211 3.29347   2
  -5   3   6 25.2984 3.30604   3
  -5   3   6 39.3586 4.40460   1
  -4   3   6 -0.3359 1.60470   1
  -4   3   6 4.08986 1.56466   2
  -4   3   6 -0.0440 1.51719   3
  -3   3   6 25.3762 1.89592   3
  -3   3   6 27.5915 1.83602   2
  -3   3   6 45.7311 2.37309   1
  -2   3   6 98.0928 2.93229   1
  -2   3   6 59.8098 2.24765   2
  -2   3   6 60.7133 2.38277   3
  -1   3   6 522.958 5.64625   3
  -1   3   6 824.137 7.54315   1
  -1   3   6 483.736 5.17417   2
   0   3   6 371.575 3.67057   2
   0   3   6 400.505 4.15009   3
   0   3   6 649.600 5.33591   1
   1   3   6 396.139 3.43224   1
   1   3   6 240.253 2.37313   2
   1   3   6 244.043 2.63845   3
   2   3   6 113.193 1.52212   2
   2   3   6 123.495 1.50182   3
   2   3   6 191.940 1.84215   1
   3   3   6 322.566 2.50809   3
   3   3   6 295.072 2.49167   2
   3   3   6 515.492 4.97331   1
   4   3   6 523.187 4.56772   3
   4   3   6 818.556 6.55473   1
   4   3   6 494.688 4.22591   2
   5   3   6 8.36947 0.97821   2
   5   3   6 13.2352 1.24606   1
   5   3   6 8.78040 1.09972   3
   6   3   6 95.3322 3.88768   2
   6   3   6 93.3524 3.74154   3
   6   3   6 149.639 4.31169   1
   7   3   6 -0.7656 1.36102   2
   7   3   6 -1.4062 1.56678   3
   7   3   6 -0.6524 1.65597   1
   7   3   6 2.21452 7.71301  -3
   7   3   6 2.21452 7.71301   1
   8   3   6 124.438 5.08095   2
   8   3   6 126.582 11.6060   3
   8   3   6 324.287 8.55229  -3
   8   3   6 324.287 8.55229   1
   8   3   6 201.834 12.4284   1
   9   3   6 168.535 6.90974   2
   9   3   6 454.405 10.9341  -3
   9   3   6 454.405 10.9341   1
  -5   4   6 7.76505 4.34482   3
  -5   4   6 26.1591 9.39156   1
  -4   4   6 178.172 6.57026   1
  -4   4   6 89.6947 7.29112   2
  -4   4   6 101.090 4.44487   3
  -3   4   6 177.824 4.74529   1
  -3   4   6 111.107 3.89059   3
  -3   4   6 108.865 4.06138   2
  -2   4   6 0.74628 1.06748   2
  -2   4   6 0.88803 0.98824   3
  -2   4   6 -0.2647 1.03637   1
  -1   4   6 106.322 2.76510   1
  -1   4   6 72.1029 2.40392   3
  -1   4   6 60.9860 2.21873   2
   0   4   6 95.2047 2.44862   1
   0   4   6 53.9174 1.94015   2
   0   4   6 58.5381 2.02936   3
   1   4   6 36.6285 1.32106   2
   1   4   6 66.7830 1.78349   1
   1   4   6 43.0422 1.42314   3
   2   4   6 466.430 3.78606   1
   2   4   6 273.468 2.62787   2
   2   4   6 294.141 2.67231   3
   3   4   6 601.721 4.09204   3
   3   4   6 558.447 3.95545   2
   3   4   6 958.392 5.91085   1
   4   4   6 194.808 2.97449   1
   4   4   6 122.959 1.95007   3
   4   4   6 113.627 1.79532   2
   5   4   6 79.4568 2.35539   2
   5   4   6 89.1337 2.35361   3
   5   4   6 143.796 2.92452   1
   6   4   6 263.014 5.54967   1
   6   4   6 172.213 4.50643   3
   6   4   6 159.968 3.34015   2
   7   4   6 34.1398 3.06804   3
   7   4   6 34.3286 2.63226   2
   7   4   6 49.6067 3.62542   1
   7   4   6 78.5311 9.50861  -3
   7   4   6 78.5311 9.50861   1
   8   4   6 122.298 5.63427   2
   8   4   6 353.626 9.83393  -3
   8   4   6 353.626 9.83393   1
   8   4   6 168.947 17.6723   1
   8   4   6 124.554 14.9116   3
   9   4   6 4.68246 2.44870   2
   9   4   6 7.91120 5.40963  -3
   9   4   6 7.91120 5.40963   1
  -4   5   6 47.8676 4.71290   1
  -4   5   6 24.2240 3.17854   3
  -4   4   7 64.8696 17.3837  -2
  -4   5   6 64.8696 17.3837   1
  -3   5   6 15.5855 1.93698   3
  -3   5   6 23.7458 2.32721   1
  -3   5   6 12.7876 3.28233   2
  -3   4   7 162.698 16.9606  -2
  -3   5   6 162.698 16.9606   1
  -2   5   6 143.097 3.83659   3
  -2   5   6 216.382 4.75575   1
  -2   5   6 121.887 6.47531   2
  -2   4   7 324.222 19.1988  -2
  -2   5   6 324.222 19.1988   1
  -1   5   6 376.030 5.33653   3
  -1   5   6 345.317 5.39043   2
  -1   5   6 605.619 6.54507   1
   0   5   6 468.937 5.27446   2
   0   5   6 822.200 7.53899   1
   0   5   6 512.513 5.59643   3
   1   5   6 171.403 2.98760   3
   1   5   6 268.314 3.78911   1
   1   5   6 162.620 2.92632   2
   2   5   6 122.111 2.26852   1
   2   5   6 75.2216 1.78685   3
   2   5   6 68.9591 1.64455   2
   3   5   6 49.5490 1.30385   3
   3   5   6 46.3424 1.23519   2
   3   5   6 82.1964 1.66110   1
   4   5   6 158.893 2.67553   1
   4   5   6 97.5793 1.65499   2
   4   5   6 101.465 1.92179   3
   5   5   6 124.802 2.68779   2
   5   5   6 139.602 2.47671   3
   5   5   6 215.660 3.60510   1
   6   5   6 54.7602 2.76595   3
   6   5   6 51.6059 2.25027   2
   6   5   6 91.1159 3.90362   1
   7   5   6 20.8824 2.14933   2
   7   5   6 34.4526 3.22956   1
   7   5   6 23.1724 2.68564   3
   7   5   6 71.4149 9.25123  -3
   7   5   6 71.4149 9.25123   1
   8   5   6 46.3217 3.97593   1
   8   5   6 30.3283 3.32288   3
   8   5   6 25.7249 2.81063   2
   9   5   6 86.8466 5.29795   2
   9   5   6 136.759 15.8366   1
   9   5   6 103.716 14.2445   3
   9   5   6 253.010 13.6023  -3
   9   5   6 253.010 13.6023   1
  -4   6   6 28.5821 4.91159   2
  -3   6   6 59.9103 3.17193   3
  -3   6   6 47.0525 2.96247   2
  -3   6   6 87.8931 4.55115   1
  -3   5   7 76.7826 13.3377  -2
  -3   6   6 76.7826 13.3377   1
  -2   6   6 41.4597 2.53217   3
  -2   6   6 35.4837 2.42209   2
  -2   6   6 60.2172 3.72256   1
  -2   5   7 43.3536 8.41756  -2
  -2   6   6 43.3536 8.41756   1
  -1   6   6 360.140 5.41794   2
  -1   5   7 738.705 15.4208  -2
  -1   6   6 738.705 15.4208   1
  -1   6   6 638.612 9.57937   1
  -1   6   6 385.127 5.50817   3
   0   6   6 169.260 3.61856   3
   0   6   6 272.507 5.03357   1
   0   6   6 148.995 3.38206   2
   0   5   7 310.888 15.3759  -2
   0   6   6 310.888 15.3759   1
   1   6   6 72.9238 2.52018   1
   1   6   6 41.7842 1.94503   3
   1   6   6 37.2931 1.88559   2
   2   6   6 29.6626 1.50749   2
   2   6   6 28.5777 1.59697   3
   2   6   6 45.5256 1.96723   1
   3   6   6 56.8721 1.47799   2
   3   6   6 97.5001 2.03765   1
   3   6   6 65.8237 1.60586   3
   4   6   6 109.598 1.77849   3
   4   6   6 172.723 2.78976   1
   4   6   6 105.596 1.79177   2
   5   6   6 3.74579 0.84903   3
   5   6   6 4.40775 1.01001   1
   5   6   6 1.81779 0.89736   2
   6   6   6 58.3763 2.92519   3
   6   6   6 61.1185 2.63190   2
   6   6   6 94.5962 3.45822   1
   7   6   6 74.1858 4.04430   1
   7   6   6 42.7667 2.60251   2
   7   6   6 47.0653 3.23772   3
   8   6   6 268.384 6.65977   3
   8   6   6 433.561 9.55521   1
   8   6   6 248.120 6.30639   2
   9   6   6 192.324 8.70227   2
   9   6   6 274.225 10.6103   1
   9   6   5 253.663 21.5544  -3
   9   6   6 253.663 21.5544   2
   9   6   6 182.881 9.65311   3
  -3   7   6 102.655 6.91422   1
  -3   7   6 56.7072 5.09462   3
  -3   7   6 57.4396 5.22418   2
  -2   7   6 41.7635 2.81438   3
  -2   7   6 65.1195 3.42033   1
  -2   7   6 39.7665 2.75929   2
  -1   7   6 3.39108 1.46725   3
  -1   7   6 4.82576 1.63505   1
  -1   7   6 3.21693 1.46749   2
   0   7   6 19.2469 1.98366   2
   0   7   6 38.0161 2.44005   1
   0   7   6 22.6595 2.14012   3
   1   7   6 20.3323 1.71884   3
   1   7   6 30.3473 2.11302   1
   1   7   6 16.1665 1.65379   2
   2   7   6 44.5600 2.09989   3
   2   7   6 74.7619 2.64236   1
   2   7   6 45.2919 2.42388   2
   2   7   5 653.024 15.4824  -3
   2   7   6 653.024 15.4824   2
   3   7   6 50.7251 1.97108   3
   3   7   6 44.2295 1.46634   2
   3   7   6 76.7483 2.58972   1
   3   7   5 406.747 12.7918  -3
   3   7   6 406.747 12.7918   2
   4   7   6 2.32592 0.68587   2
   4   7   6 4.05993 0.86906   1
   4   7   6 1.81673 0.63773   3
   4   7   5 4.80875 3.83894  -3
   4   7   6 4.80875 3.83894   2
   5   7   6 106.147 2.67074   2
   5   7   6 184.593 3.45698   1
   5   7   6 117.684 2.87288   3
   6   7   6 273.017 6.01004   3
   6   7   6 250.561 4.40359   2
   6   7   6 428.746 6.54614   1
   7   7   5 204.321 9.01433  -3
   7   7   6 204.321 9.01433   2
   7   7   6 38.0888 3.07554   3
   7   7   6 34.1693 2.82727   2
   7   7   6 58.5535 3.65400   1
   8   7   6 29.6510 4.14223   2
   8   7   6 25.0391 2.84954   3
   8   7   6 49.6409 3.74873   1
   8   7   5 24.9130 5.51537  -3
   8   7   6 24.9130 5.51537   2
   9   7   6 14.1094 4.21774   3
   9   7   6 22.7274 4.40881   1
   9   7   5 63.5334 9.72252  -3
   9   7   6 63.5334 9.72252   2
  -2   8   6 66.3557 7.00157   3
  -2   8   6 104.472 7.65792   1
  -2   8   6 46.4539 10.2766   2
  -1   8   6 163.718 5.27275   3
  -1   8   6 119.937 4.90174   2
  -1   8   6 241.671 5.64249   1
   0   8   6 97.3539 4.23468   2
   0   8   6 106.028 7.13185   3
   0   8   6 192.078 5.03467   1
   1   8   6 43.9964 4.64395   3
   1   8   6 38.9256 3.02676   2
   1   8   6 68.0390 3.19726   1
   2   8   6 3.89306 2.01716   2
   2   8   6 7.31447 1.54844   1
   2   8   6 6.02290 1.39452   3
   2   8   5 0.50109 7.43842  -3
   2   8   6 0.50109 7.43842   2
   3   8   6 1.69993 1.03297   3
   3   8   6 3.96970 1.37528   1
   3   8   6 0.67453 1.13522   2
   3   8   5 -0.4383 5.95156  -3
   3   8   6 -0.4383 5.95156   2
   4   8   6 162.211 3.28842   1
   4   8   6 99.2054 2.56113   2
   4   8   6 101.723 2.14020   3
   4   8   5 106.570 5.25905  -3
   4   8   6 106.570 5.25905   2
   5   8   6 135.941 2.64347   3
   5   8   6 128.002 3.24823   2
   5   8   6 210.709 3.63776   1
   5   8   5 395.540 10.7110  -3
   5   8   6 395.540 10.7110   2
   6   8   6 106.065 3.89235   1
   6   8   6 64.1992 3.14667   3
   6   8   6 62.3417 3.91002   2
   6   8   5 409.655 13.7513  -3
   6   8   6 409.655 13.7513   2
   7   8   6 55.8405 3.36054   3
   7   8   6 91.7627 3.89251   1
   7   8   6 47.4463 3.36336   2
   7   8   5 55.7012 8.58638  -3
   7   8   6 55.7012 8.58638   2
   8   8   6 56.9979 3.55552   3
   8   8   6 100.507 5.03305   1
   8   8   5 73.1210 7.88596  -3
   8   8   6 73.1210 7.88596   2
   8   8   6 57.2793 5.20415   2
   9   8   6 110.175 12.0243   3
   9   8   6 175.601 12.7526   1
  -1   9   6 46.4656 11.5449   3
   0   9   6 57.7592 4.32420   1
   0   9   6 32.5835 6.02225   3
   0   9   6 33.1162 4.03498   2
   1   9   6 0.46960 2.31999   2
   1   9   6 0.38446 1.64386   1
   2   9   6 20.9685 2.38103   2
   2   9   6 32.8575 2.68761   1
   2   9   7 219.557 17.7807  -3
   2   9   6 219.557 17.7807   1
   3   9   6 19.5413 2.22169   2
   3   9   6 38.8312 3.02270   1
   3   9   6 22.9596 5.40661   3
   4   9   6 15.4374 1.85282   3
   4   9   6 27.2929 2.21419   1
   4   9   6 15.7404 1.81107   2
   4   9   7 53.7199 11.9858  -3
   4   9   6 53.7199 11.9858   1
   5   9   6 18.8522 1.88083   2
   5   9   6 34.3771 4.48795   1
   5   9   6 20.0899 2.16705   3
   5   9   5 41.3063 11.6317  -3
   5   9   6 41.3063 11.6317   2
   6   9   6 16.0042 2.03758   3
   6   9   6 28.1853 2.20979   1
   6   9   6 15.6190 1.90429   2
   7   9   6 4.58910 1.71441   1
   7   9   6 3.87987 1.59618   2
   7   9   6 4.71929 1.85953   3
   8   9   6 63.4949 6.23795   3
   8   9   6 67.7920 6.18091   2
   8   9   6 103.509 7.30454   1
   1  10   6 18.8247 6.83430   3
   1  10   6 22.1913 4.77588   2
   2  10   6 3.29384 2.99934   1
   2  10   6 5.87767 2.10385   2
   2   9   8 120.933 12.0414  -2
   2  10   6 120.933 12.0414   1
   2  10   6 3.75563 5.02207   3
   3  10   6 12.9377 3.22123   1
   3  10   6 6.51839 2.19303   2
   3  10   7 23.7214 7.62500  -3
   3  10   6 23.7214 7.62500   1
   4  10   7 111.908 7.43891  -3
   4  10   6 111.908 7.43891   1
   4  10   6 68.4195 3.34426   2
   4  10   6 101.091 6.84565   1
   5  10   6 137.365 5.47735   2
   6  10   6 131.183 4.66867   2
   7  10   6 19.9852 3.08139   1
   7  10   6 8.80810 2.61304   2
   7  10   6 16.4425 4.43244   3
   3  11   6 29.0404 7.76368   3
   3  11   6 38.6799 13.7638   1
   4  11   6 24.9145 7.89415   2
   4  11   6 89.9121 11.9578   1
   5  11   6 161.500 8.61611   2
  -3  -8   7 84.9441 8.78213   1
  -3  -8   7 34.2398 9.19115   3
  -2  -8   7 10.4734 3.05018   1
  -2  -8   7 15.7927 4.81652   2
  -2  -8   7 8.40244 4.43728   3
  -1  -8   7 36.3058 3.33992   1
  -1  -8   7 26.0184 5.44993   2
  -1  -8   7 21.9503 4.80409   3
   0  -8   7 60.6327 10.6941   2
   0  -8   7 67.1085 9.02251   3
   0  -8   7 129.629 13.6775   1
  -4  -7   7 27.5556 5.65908   1
  -4  -7   7 15.5592 5.37856   3
  -4  -7   7 22.2956 6.07250   2
  -3  -7   7 88.1834 6.40099   2
  -3  -7   7 95.8824 6.18504   3
  -3  -7   7 156.905 7.32710   1
  -2  -7   7 85.9542 3.72433   1
  -2  -7   7 43.5025 3.79681   2
  -2  -7   7 54.2289 3.49403   3
  -1  -7   7 61.0421 3.81702   3
  -1  -7   7 78.3671 3.30349   1
  -1  -7   7 43.1501 3.62024   2
   0  -7   7 53.7331 3.80306   3
   0  -7   7 80.3539 3.30552   1
   0  -7   7 45.4420 3.64104   2
   1  -7   7 21.8943 2.82993   3
   1  -7   7 38.3112 3.29679   1
   1  -7   7 21.3002 3.13670   2
   2  -7   7 5.95170 2.75767   3
   2  -7   7 5.59330 4.55964   1
   2  -7   7 5.00358 2.87941   2
   3  -7   7 8.06063 6.19000   2
  -5  -6   7 22.5001 6.16921   3
  -5  -6   7 13.7558 7.82771   2
  -5  -6   7 51.8878 8.14433   1
  -4  -6   7 6.31291 2.21857   3
  -4  -6   7 4.24386 1.98642   1
  -4  -6   7 2.53863 2.48121   2
  -3  -6   7 0.17258 1.75948   2
  -3  -6   7 1.95270 1.49381   3
  -3  -6   7 -0.3204 1.58631   1
  -2  -6   7 0.75744 1.53839   3
  -2  -6   7 1.02246 1.59061   2
  -2  -6   7 0.12055 1.37785   1
  -1  -6   7 78.7607 3.90128   3
  -1  -6   7 68.4951 3.94344   2
  -1  -6   7 112.241 3.61329   1
   0  -6   7 586.033 7.02804   1
   0  -6   7 360.651 7.25843   3
   0  -6   7 344.619 7.25403   2
   1  -6   7 214.950 6.07272   2
   1  -6   7 227.423 5.93133   3
   1  -6   7 366.981 6.05203   1
   2  -6   7 26.3682 3.18157   3
   2  -6   7 44.1557 3.18205   1
   2  -6   7 27.1526 2.97142   2
   3  -6   7 4.78816 2.10273   2
   3  -6   7 8.82547 2.91070   1
   3  -6   7 3.75335 2.23066   3
   4  -6   7 -0.5299 3.26971   3
   4  -6   7 4.69311 2.57146   2
   4  -6   7 -0.3449 3.47252   1
  -6  -5   7 11.7394 8.70183   2
  -6  -5   7 -7.7521 8.28300   3
  -5  -5   7 3.31472 2.55664   3
  -5  -5   7 4.28790 3.32661   2
  -5  -5   7 7.13635 2.58961   1
  -4  -5   7 15.1720 2.50993   3
  -4  -5   7 10.4290 2.63832   2
  -4  -5   7 24.8617 2.78141   1
  -3  -5   7 161.353 4.06382   1
  -3  -5   7 101.478 3.79083   3
  -3  -5   7 92.4002 4.28138   2
  -2  -5   7 72.9652 3.81202   2
  -2  -5   7 134.658 3.52612   1
  -2  -5   7 86.0251 3.20833   3
  -1  -5   7 12.6869 1.56539   3
  -1  -5   7 14.7097 1.78113   1
  -1  -5   7 9.33653 1.75819   2
   0  -5   7 56.3070 3.05745   2
   0  -5   7 93.7122 3.00586   1
   0  -5   7 54.4091 3.23225   3
   1  -5   7 119.765 3.51502   1
   1  -5   7 67.9956 3.37702   2
   1  -5   7 72.6671 3.67487   3
   2  -5   7 -0.7676 1.56407   2
   2  -5   7 -0.3617 1.53427   3
   2  -5   7 0.27558 1.42877   1
   3  -5   7 -0.3862 1.75492   2
   3  -5   7 1.51446 1.71739   1
   3  -5   7 1.54363 1.74778   3
   4  -5   7 39.9473 4.10977   1
   4  -5   7 20.2711 2.80921   2
   4  -5   7 28.4427 3.03323   3
   5  -5   7 6.99120 2.67375   2
   5  -5   7 13.9613 3.46580   1
   5  -5   7 8.23820 2.99518   3
  -6  -4   7 1.73449 7.58951   3
  -6  -4   7 -0.1654 4.99309   1
  -6  -4   7 -1.4613 6.42036   2
  -5  -4   7 4.79009 2.10759   3
  -5  -4   7 10.6262 2.40993   1
  -5  -4   7 13.8646 3.05820   2
  -4  -4   7 94.5950 4.49260   3
  -4  -4   7 90.9407 4.40667   2
  -4  -4   7 162.798 5.40633   1
  -3  -4   7 305.290 5.06472   3
  -3  -4   7 491.151 6.15703   1
  -3  -4   7 291.986 5.39032   2
  -2  -4   7 211.437 3.90017   1
  -2  -4   7 113.697 4.29465   2
  -2  -4   7 137.457 3.24463   3
  -1  -4   7 55.6732 2.41441   3
  -1  -4   7 85.5397 2.73705   1
  -1  -4   7 47.4878 2.65688   2
   0  -4   7 196.134 3.18244   1
   0  -4   7 103.679 3.24841   2
   0  -4   7 126.736 3.42433   3
   1  -4   7 169.159 3.10844   1
   1  -4   7 103.902 3.34281   3
   1  -4   7 95.5797 3.33285   2
   2  -4   7 107.966 3.63547   1
   2  -4   7 59.4830 3.30070   2
   2  -4   7 65.0328 3.05333   3
   3  -4   7 -0.6167 1.54975   2
   3  -4   7 -0.6162 1.50337   1
   3  -4   7 -0.8631 1.42764   3
   4  -4   7 12.1617 2.29560   2
   4  -4   7 14.3158 2.32630   3
   4  -4   7 20.2692 2.50173   1
   5  -4   7 21.6501 2.87481   2
   5  -4   7 31.9325 3.10544   3
   5  -4   7 44.2425 4.28938   1
   6  -4   7 163.003 13.4144   1
   6  -4   7 76.4412 9.29426   2
   6  -4   7 94.8467 10.4637   3
  -6  -3   7 96.2561 14.7011   1
  -6  -3   7 64.7321 10.8422   2
  -6  -3   7 65.1161 11.7992   3
  -5  -3   7 5.56917 2.60858   2
  -5  -3   7 6.34972 2.23287   1
  -5  -3   7 4.65321 2.52642   3
  -4  -3   7 16.5088 2.28260   1
  -4  -3   7 13.2588 2.23909   2
  -4  -3   7 10.9855 2.16782   3
  -3  -3   7 67.4365 2.79756   1
  -3  -3   7 42.7049 2.44630   2
  -3  -3   7 40.3206 2.24034   3
  -2  -3   7 3.09654 1.16462   3
  -2  -3   7 7.32203 1.20641   1
  -2  -3   7 5.15110 1.35399   2
  -1  -3   7 15.4363 1.39563   1
  -1  -3   7 11.2265 1.23385   3
  -1  -3   7 7.28390 1.65362   2
   0  -3   7 409.561 4.83567   3
   0  -3   7 663.221 5.99878   1
   0  -3   7 390.376 5.44262   2
   1  -3   7 613.946 5.17728   1
   1  -3   7 358.820 5.26363   2
   1  -3   7 374.910 5.24286   3
   2  -3   7 -1.6432 1.03722   3
   2  -3   7 2.34936 1.14702   2
   2  -3   7 -1.1946 1.07350   1
   3  -3   7 66.4703 3.34870   3
   3  -3   7 116.311 4.05001   1
   3  -3   7 59.1531 2.91793   2
   4  -3   7 8.51081 1.84617   2
   4  -3   7 9.16341 1.83116   1
   4  -3   7 8.64598 1.88873   3
   5  -3   7 82.0054 4.20658   3
   5  -3   7 139.761 4.99149   1
   5  -3   7 74.7020 4.08164   2
   6  -3   7 131.049 7.12914   3
   6  -3   7 129.528 6.92881   2
   6  -3   7 229.871 11.9947   1
  -6  -2   7 39.7500 8.00891   3
  -6  -2   7 32.4345 4.76744   2
  -6  -2   7 57.7491 12.2904   1
  -5  -2   7 10.4975 2.43412   2
  -5  -2   7 18.7225 3.41815   1
  -5  -2   7 11.0385 2.51423   3
  -4  -2   7 119.987 4.18971   3
  -4  -2   7 106.876 4.44435   2
  -4  -2   7 180.320 5.19978   1
  -3  -2   7 458.360 5.60510   3
  -3  -2   7 732.435 7.77936   1
  -3  -2   7 411.065 5.28516   2
  -2  -2   7 184.724 3.37742   2
  -2  -2   7 206.115 3.55999   3
  -2  -2   7 321.371 4.56240   1
  -1  -2   7 1.11254 0.90075   1
  -1  -2   7 1.31604 1.03348   2
  -1  -2   7 0.07839 0.75970   3
   0  -2   7 105.124 2.73393   2
   0  -2   7 115.218 2.23617   3
   0  -2   7 187.513 2.89455   1
   1  -2   7 98.0303 1.93828   1
   1  -2   7 59.1706 2.02809   3
   1  -2   7 54.2451 2.14476   2
   2  -2   7 140.479 2.78327   3
   2  -2   7 127.364 2.74322   2
   2  -2   7 213.191 3.54413   1
   3  -2   7 131.921 3.31630   3
   3  -2   7 125.068 3.27961   2
   3  -2   7 217.693 3.88483   1
   4  -2   7 4.58723 1.33859   3
   4  -2   7 10.1947 1.54636   1
   4  -2   7 1.60730 1.21981   2
   5  -2   7 23.5266 2.21970   2
   5  -2   7 21.6018 2.15528   3
   5  -2   7 43.7606 2.64830   1
   6  -2   7 46.8478 3.77255   3
   6  -2   7 56.8083 4.10756   2
   6  -2   7 99.4783 5.88932   1
   7  -2   7 21.5495 3.09159   2
   7  -2   7 41.2585 6.50735   1
   7  -2   7 20.9223 3.81746   3
  -6  -1   7 17.3847 5.03533   2
  -6  -1   7 34.3281 6.10057   1
  -6  -1   7 25.4749 5.91548   3
  -5  -1   7 3.87409 2.13028   1
  -5  -1   7 -1.3521 2.08081   3
  -5  -1   7 -0.0052 1.97333   2
  -4  -1   7 156.543 5.48252   3
  -4  -1   7 137.847 4.83167   2
  -4  -1   7 244.729 6.42899   1
  -3  -1   7 627.778 6.54808   3
  -3  -1   7 596.755 7.29481   2
  -3  -1   7 1021.56 8.91614   1
  -2  -1   7 293.268 4.14714   1
  -2  -1   7 179.466 3.24718   3
  -2  -1   7 172.243 2.83929   2
  -1  -1   7 -0.3812 0.75063   1
  -1  -1   7 0.09755 0.77108   3
  -1  -1   7 -0.4614 0.77989   2
   0  -1   7 229.561 2.93452   1
   0  -1   7 148.715 2.33769   3
   0  -1   7 127.258 3.00410   2
   1  -1   7 388.648 4.30775   1
   1  -1   7 220.140 3.48081   2
   1  -1   7 244.382 3.64726   3
   2  -1   7 61.4341 2.01201   1
   2  -1   7 35.2591 1.64407   2
   2  -1   7 36.9495 1.63811   3
   3  -1   7 40.0299 1.87147   1
   3  -1   7 23.9395 1.73036   3
   3  -1   7 22.9120 1.60668   2
   4  -1   7 29.2647 1.89579   2
   4  -1   7 46.0046 2.23408   1
   4  -1   7 30.2837 1.97997   3
   5  -1   7 222.740 4.34734   3
   5  -1   7 214.270 4.29525   2
   5  -1   7 355.986 5.82974   1
   6  -1   7 1018.46 13.8102   1
   6  -1   7 645.163 10.6964   3
   6  -1   7 623.307 9.63852   2
   7  -1   7 236.388 6.87879   1
   7  -1   7 128.511 5.92706   2
   7  -1   7 143.406 6.06316   3
   8  -1   7 0.19571 3.43395   3
   8  -1   7 3.39262 2.59480   2
   8  -1   7 0.97726 2.81447   1
  -6   0   7 137.014 10.9056   1
  -6   0   7 78.8074 8.93727   3
  -6   0   7 86.3443 10.9425   2
  -5   0   7 10.9108 2.47354   1
  -5   0   7 3.94148 2.16153   3
  -5   0   7 5.27327 2.35893   2
  -4   0   7 -1.6147 1.68148   1
  -4   0   7 -0.2708 1.45793   2
  -4   0   7 -0.8655 1.76168   3
  -3   0   7 4.86940 1.31928   3
  -3   0   7 9.28184 1.50297   1
  -3   0   7 2.29604 1.26808   2
  -2   0   7 1.82340 0.87297   2
  -2   0   7 8.22655 1.02039   1
  -2   0   7 6.14291 0.95700   3
  -1   0   7 1.19915 0.81220   2
  -1   0   7 1.09885 0.78230   1
  -1   0   7 0.76163 0.74356   3
   0   0   7 298.627 3.23398   1
   0   0   7 184.867 2.63123   3
   0   0   7 164.399 2.75725   2
   1   0   7 302.752 3.59987   1
   1   0   7 176.280 2.99111   2
   1   0   7 187.847 3.09121   3
   2   0   7 163.016 2.81141   1
   2   0   7 99.8273 2.38804   3
   2   0   7 98.8961 2.48983   2
   3   0   7 482.225 5.03561   1
   3   0   7 270.909 4.01743   2
   3   0   7 297.321 3.83425   3
   4   0   7 58.4563 2.41202   2
   4   0   7 63.3615 2.49687   3
   4   0   7 98.3814 2.90460   1
   5   0   7 5.76501 1.17792   3
   5   0   7 4.86202 1.25897   2
   5   0   7 7.12451 1.31703   1
   6   0   7 74.1856 3.36304   2
   6   0   7 117.931 3.80553   1
   6   0   7 77.5711 3.37347   3
   7   0   7 28.3055 2.52831   2
   7   0   7 39.3642 3.36135   1
   7   0   7 20.6163 2.89965   3
   8   0   7 6.42487 2.50153   3
   8   0   7 7.23342 2.55036   2
   8   0   7 12.1507 2.87248   1
  -5   1   7 18.1763 2.89274   1
  -5   1   7 9.26870 2.50467   2
  -5   1   7 13.2527 2.68071   3
  -4   1   7 121.709 4.12306   2
  -4   1   7 135.544 5.44683   3
  -4   1   7 215.541 6.12222   1
  -3   1   7 450.572 5.93033   2
  -3   1   7 490.749 6.16606   3
  -3   1   7 784.790 8.65401   1
  -2   1   7 83.6544 2.70105   2
  -2   1   7 156.969 2.82172   1
  -2   1   7 103.775 2.88585   3
  -1   1   7 40.0312 1.57536   2
  -1   1   7 47.2872 1.61992   3
  -1   1   7 78.3369 2.04006   1
   0   1   7 10.7501 0.89118   2
   0   1   7 21.7118 1.13449   1
   0   1   7 13.8737 0.94274   3
   1   1   7 112.358 2.43736   1
   1   1   7 70.8529 2.20102   3
   1   1   7 62.5993 2.10572   2
   2   1   7 533.886 5.39718   3
   2   1   7 872.000 7.52690   1
   2   1   7 507.800 5.27285   2
   3   1   7 283.098 3.61780   3
   3   1   7 452.136 4.79095   1
   3   1   7 266.146 3.61233   2
   4   1   7 4.24225 0.95884   2
   4   1   7 5.16218 1.06711   3
   4   1   7 4.71906 1.14430   1
   5   1   7 142.855 3.29552   1
   5   1   7 84.8232 2.69583   2
   5   0   7 146.521 12.1358  -2
   5   1   7 146.521 12.1358   1
   5   1   7 88.0373 2.69008   3
   6   1   7 295.358 5.53631   2
   6   1   7 518.280 7.43133   1
   6   1   7 314.204 5.78674   3
   7   1   7 227.104 5.27262   1
   7   1   7 137.451 4.50724   2
   7   1   7 141.328 4.62809   3
   8   1   7 6.57469 2.45645   1
   8   1   7 7.49364 1.93790   2
   8   1   7 2.18850 1.83648   3
   9   1   7 25.7309 5.64686   2
   9   1   7 47.4881 6.99851   1
   9   1   7 26.6610 6.33548   3
  -5   2   7 6.57596 2.52549   1
  -5   2   7 -1.4338 2.45163   3
  -5   2   7 5.13005 2.69221   2
  -4   2   7 58.9662 3.07188   2
  -4   2   7 66.8561 4.09748   3
  -4   2   7 110.679 5.07103   1
  -3   2   7 208.826 4.16438   2
  -3   2   7 356.199 5.41206   1
  -3   2   7 221.262 4.23003   3
  -2   2   7 79.6940 2.74416   3
  -2   2   7 63.7227 2.50500   2
  -2   2   7 120.005 3.11913   1
  -1   2   7 55.3210 1.86786   1
  -1   2   7 35.1739 1.76398   3
  -1   2   7 29.7301 1.68991   2
   0   2   7 13.4962 1.00178   3
   0   2   7 22.1446 1.15085   1
   0   2   7 12.7275 0.99038   2
   1   2   7 8.65123 0.89861   3
   1   2   7 6.80511 0.83019   2
   1   2   7 11.8832 1.20174   1
   2   2   7 17.8015 1.19804   2
   2   2   7 33.5428 1.63026   1
   2   2   7 20.3096 1.23564   3
   3   2   7 48.1305 1.79801   1
   3   2   7 28.7588 1.54605   2
   3   2   7 28.8553 1.49780   3
   4   2   7 12.7279 1.22381   3
   4   2   7 18.1920 1.34822   1
   4   2   7 11.2110 1.15159   2
   5   2   7 88.3552 2.63013   2
   5   2   7 167.436 3.33869   1
   5   2   7 108.156 2.81195   3
   6   2   7 634.374 8.36981   1
   6   2   7 381.638 6.32395   2
   6   2   7 393.663 6.45297   3
   7   2   7 178.563 4.91471   3
   7   2   7 167.089 4.65903   2
   7   2   7 279.507 5.87667   1
   8   2   7 9.67253 2.07505   2
   8   2   7 8.67064 1.98110   3
   8   2   7 18.2487 2.33989   1
   9   2   7 0.43765 2.30502   2
   9   2   7 0.40383 2.18634   3
   9   2   7 0.83767 2.52963   1
  -5   3   7 9.76000 5.02917   2
  -5   3   7 22.8580 8.91575   1
  -5   3   7 17.7483 6.66676   3
  -4   3   7 8.44749 2.42195   3
  -4   3   7 7.23323 1.91710   2
  -4   3   7 13.0848 2.50498   1
  -3   3   7 30.2649 2.23132   3
  -3   3   7 24.9863 2.18100   2
  -3   3   7 47.7132 2.53332   1
  -2   3   7 -0.9534 1.03396   2
  -2   3   7 2.27854 1.13088   3
  -2   3   7 1.41940 1.13056   1
  -1   3   7 -0.5276 0.92576   3
  -1   3   7 0.03752 0.99040   1
  -1   3   7 -1.2827 0.89113   2
   0   3   7 1.15619 0.77413   1
   0   3   7 -0.1903 0.79300   3
   0   3   7 -0.3598 0.83535   2
   1   3   7 24.2622 1.17753   2
   1   3   7 41.2476 1.89002   1
   1   3   7 27.6310 1.25568   3
   2   3   7 600.099 5.15015   2
   2   3   7 633.024 6.21000   3
   2   3   7 1021.67 8.67136   1
   3   3   7 1125.76 9.25174   1
   3   3   7 656.767 6.04368   2
   3   3   7 698.673 6.52174   3
   4   3   7 49.0764 1.91823   2
   4   3   7 88.5278 2.49668   1
   4   3   7 50.1120 1.92812   3
   5   3   7 31.8623 1.75758   2
   5   3   7 32.7239 1.71106   3
   5   3   7 52.5567 2.19640   1
   6   3   7 68.0641 3.13845   2
   6   3   7 124.700 3.91455   1
   6   3   7 73.0304 3.24576   3
   7   3   7 -0.6203 1.37503   3
   7   3   7 -1.3759 1.35523   2
   7   3   7 1.61944 1.47432   1
   8   3   7 48.8465 3.31983   1
   8   3   7 29.0390 2.70384   3
   8   3   7 29.0650 2.86723   2
   9   3   7 -0.8526 2.61146   2
   9   3   7 1.01732 2.59683   3
   9   3   7 2.62737 2.27650   1
   9   3   7 -15.694 10.6282  -3
   9   3   7 -15.694 10.6282   1
  -4   4   7 31.6438 3.53895   1
  -4   4   7 16.6392 2.96771   3
  -4   4   7 16.2799 2.52387   2
  -3   4   7 221.344 5.24237   1
  -3   4   7 119.310 4.57476   2
  -3   4   7 135.232 4.59561   3
  -2   4   7 81.2230 2.99658   3
  -2   4   7 69.6658 3.09179   2
  -2   4   7 126.846 3.53069   1
  -1   4   7 10.2362 1.36900   1
  -1   4   7 5.52555 1.14816   2
  -1   4   7 5.77037 1.20355   3
   0   4   7 38.6015 1.78400   2
   0   4   7 42.5780 1.93142   3
   0   4   7 66.7011 2.39661   1
   1   4   7 0.25393 0.77719   2
   1   4   7 0.21613 0.97385   1
   1   4   7 -0.6941 0.75728   3
   2   4   7 717.135 7.04812   1
   2   4   7 438.129 5.07548   3
   2   4   7 399.073 3.70913   2
   3   4   7 1593.83 11.5884   1
   3   4   7 997.866 8.04254   3
   3   4   7 948.109 7.03542   2
   4   4   7 398.419 4.85032   1
   4   4   7 256.039 3.75717   3
   4   4   7 235.801 3.60213   2
   5   4   7 53.4784 2.18663   1
   5   4   7 34.4580 1.75892   3
   5   4   7 34.7900 1.76819   2
   6   4   7 106.103 3.90860   2
   6   4   7 96.6395 3.67469   3
   6   4   7 160.054 4.34036   1
   7   4   7 159.219 4.78343   1
   7   4   7 113.455 4.32992   3
   7   4   7 106.146 4.51146   2
   8   4   7 28.6952 3.07485   3
   8   4   7 26.4508 3.09718   2
   8   4   7 48.3259 3.29813   1
   9   4   7 13.4589 2.89446   2
   9   4   7 12.5306 3.12483   1
   9   4   7 1.10859 3.04474   3
  -4   5   7 2.99727 2.53290   2
  -4   5   7 10.2805 5.01943   1
  -4   5   7 -0.3544 4.01346   3
  -3   5   7 11.8213 1.89995   3
  -3   5   7 16.5131 2.45748   1
  -3   5   7 7.96629 2.06926   2
  -2   5   7 0.55308 1.44150   3
  -2   5   7 2.93561 1.69305   2
  -2   5   7 5.10338 1.72984   1
  -1   5   7 80.4798 3.66355   2
  -1   5   7 138.702 3.76903   1
  -1   5   7 88.8368 3.11639   3
   0   5   7 60.1525 2.45918   2
   0   5   7 71.4754 2.52098   3
   0   5   7 108.391 3.29919   1
   1   5   7 1.21263 0.87708   3
   1   5   7 1.68226 0.91671   2
   1   5   7 3.90651 1.47535   1
   2   5   7 21.2273 1.57686   1
   2   5   7 10.6135 1.01119   2
   2   5   7 12.3753 1.26311   3
   3   5   7 11.1512 0.85453   2
   3   5   7 13.7307 1.40988   3
   3   5   7 18.4277 1.53930   1
   4   5   7 0.16706 0.83065   3
   4   5   7 -0.7683 0.89557   1
   4   5   7 -0.1363 0.74921   2
   5   5   7 80.1532 2.65670   2
   5   5   7 148.996 3.21148   1
   5   5   7 91.8249 2.66056   3
   6   5   7 423.461 6.80265   3
   6   5   7 399.970 7.03518   2
   6   5   7 666.092 9.46989   1
   7   5   7 98.9382 4.38219   2
   7   5   7 163.401 4.86423   1
   7   5   7 97.8088 4.07231   3
   8   5   7 29.3377 3.29021   2
   8   5   7 39.0382 3.63367   3
   8   5   7 64.2010 3.69530   1
   9   5   7 32.0573 4.63743   3
   9   5   7 58.2729 5.59170   1
   9   5   7 38.2724 5.16466   2
  -3   6   7 7.00532 2.01607   2
  -3   6   7 4.25147 2.20127   1
  -3   6   7 4.96164 1.97251   3
  -2   6   7 44.3332 2.74825   2
  -2   6   7 80.9744 4.10254   1
  -2   6   7 49.9367 2.85450   3
  -1   6   7 135.240 4.33969   3
  -1   6   7 198.068 4.94331   1
  -1   6   7 120.722 3.94951   2
   0   6   7 56.4638 2.57861   3
   0   6   7 81.0146 3.06806   1
   0   6   7 46.9430 2.40778   2
   1   6   7 0.10961 1.31230   1
   1   6   7 0.90291 1.02714   2
   1   6   7 2.06783 0.99364   3
   2   6   7 271.019 4.01160   2
   2   6   7 468.974 7.03069   1
   2   6   7 286.118 4.40501   3
   3   6   7 774.867 6.00352   2
   3   6   7 808.916 7.50024   3
   3   6   7 1315.18 11.1995   1
   4   6   7 169.415 2.23098   2
   4   6   7 172.331 3.03483   3
   4   6   7 278.722 4.52333   1
   5   6   7 22.6018 1.63760   1
   5   6   7 13.4993 1.46243   2
   5   6   7 16.6290 1.41502   3
   6   6   7 79.9779 3.63761   1
   6   6   7 44.2567 2.65124   2
   6   6   7 49.2065 2.85781   3
   7   6   7 12.3478 2.00651   3
   7   6   7 9.92165 1.96125   2
   7   6   7 19.9501 2.22880   1
   8   6   7 152.461 6.34404   3
   8   6   7 127.192 5.15654   2
   8   6   7 239.768 6.77313   1
   9   6   7 11.6356 3.75952   2
   9   6   7 14.5639 4.02633   3
   9   6   7 20.6380 4.26886   1
  -2   7   7 3.30988 1.81404   3
  -2   7   7 2.36949 2.02780   2
  -2   7   7 -0.8049 1.85517   1
  -1   7   7 34.3354 2.48090   3
  -1   7   7 51.9601 3.11068   1
  -1   7   7 29.6336 2.35486   2
   0   7   7 13.5597 2.47482   1
   0   7   7 6.98375 1.60078   3
   0   7   7 6.60560 1.48240   2
   1   7   7 63.6997 3.90792   1
   1   7   7 36.2677 2.07243   2
   1   7   7 43.2940 2.60148   3
   2   7   7 385.216 6.66041   1
   2   7   7 247.211 4.66389   3
   2   7   7 227.665 3.86393   2
   3   7   7 324.058 5.35815   3
   3   7   7 296.873 4.01576   2
   3   7   7 512.606 7.06437   1
   4   7   7 19.7260 1.41886   3
   4   7   7 20.5323 1.01214   2
   4   7   7 31.6011 2.07671   1
   5   7   7 -0.2844 0.85418   2
   5   7   7 -0.0632 1.02225   1
   5   7   7 -1.0210 0.92941   3
   6   7   7 136.031 4.16114   1
   6   7   7 85.2588 3.63096   2
   6   7   7 85.1307 3.41802   3
   7   7   7 125.020 5.29199   1
   7   7   7 78.2319 4.24549   3
   7   7   7 79.4509 4.08994   2
   8   7   7 4.43245 2.23342   1
   8   7   7 0.76743 1.61236   2
   8   7   7 2.20229 2.22714   3
   9   7   7 10.8111 4.29676   1
   9   7   7 1.84699 3.56925   3
   9   7   7 3.00800 3.41983   2
  -1   8   7 237.793 6.80464   3
  -1   8   7 387.477 11.4587   1
  -1   8   7 212.917 7.11996   2
   0   8   7 145.333 4.93125   2
   0   8   7 242.752 6.92222   1
   0   8   7 161.134 4.86322   3
   1   8   7 2.12677 1.82164   1
   1   8   7 -1.2643 1.44014   2
   1   8   7 2.62529 1.49039   3
   2   8   7 0.27949 1.33244   2
   2   8   7 -1.9227 1.19015   3
   2   8   7 0.22782 1.72190   1
   3   8   7 31.7341 1.92966   2
   3   8   7 36.9312 2.70726   3
   3   8   7 58.4681 3.36494   1
   4   8   7 32.0572 2.35414   1
   4   8   7 19.6792 1.62571   3
   4   8   7 14.6908 1.26963   2
   5   8   7 8.19957 1.33177   3
   5   8   7 8.50722 1.10930   2
   5   8   7 14.5863 1.66795   1
   6   8   7 81.1633 3.41151   2
   6   8   7 130.595 4.60070   1
   6   8   7 88.8937 3.59606   3
   7   8   7 2.80567 1.79049   1
   7   8   7 0.06530 1.36264   3
   7   8   7 -0.9685 1.40609   2
   8   8   7 251.401 7.29560   1
   8   8   7 152.604 5.50742   2
   8   8   7 156.671 5.18789   3
   9   8   7 61.9944 10.5487   3
   0   9   7 35.9959 4.91163   2
   0   9   7 59.7100 13.4599   1
   0   9   7 43.0696 4.34716   3
   0   8   9 224.148 19.7723  -2
   0   9   7 224.148 19.7723   1
   1   9   7 56.5468 3.31655   3
   1   9   7 53.2990 3.33398   2
   1   9   7 81.4132 5.05410   1
   1   8   9 107.174 12.1432  -2
   1   9   7 107.174 12.1432   1
   2   9   7 150.651 4.84183   2
   2   9   7 184.572 6.22702   3
   2   9   7 273.225 6.74539   1
   3   9   7 217.371 4.76606   2
   3   9   7 374.675 7.55880   1
   3   9   7 231.348 6.05540   3
   4   9   7 16.8544 1.75218   2
   4   9   7 27.6071 2.17149   1
   4   9   7 18.1965 2.12848   3
   5   9   7 27.6947 2.97093   1
   5   9   7 12.8756 2.09440   2
   6   9   7 0.84536 1.82919   2
   6   9   7 1.40745 1.68250   3
   6   9   7 4.35634 1.67064   1
   7   9   7 40.5917 3.28493   1
   7   9   7 17.7430 2.23870   2
   7   9   7 26.3926 2.71494   3
   8   9   7 156.338 7.88922   1
   8   9   7 103.712 8.18325   2
   8   9   7 93.3590 7.63983   3
   2  10   7 68.3361 4.72102   2
   2  10   7 63.3139 6.24672   3
   2   9   9 94.1966 16.9420  -2
   2  10   7 94.1966 16.9420   1
   3   9   9 108.508 8.13532  -2
   3  10   7 108.508 8.13532   1
   3  10   7 36.0169 3.02652   2
   3  10   7 38.5901 4.21598   3
   4  10   7 -0.5786 2.90321   3
   4  10   7 0.15620 2.24144   1
   4  10   7 1.17331 1.65488   2
   4   9   9 13.2272 9.18460  -2
   4  10   7 13.2272 9.18460   1
   5  10   7 9.01403 2.63350   2
   6  10   7 6.66320 3.65705   2
   7  10   7 6.01276 3.96858   1
   7  10   7 4.44305 3.02550   2
   7  10   7 7.72990 4.10775   3
   5  11   7 7.36832 5.27858   2
  -3  -7   8 18.0619 6.32791   1
  -2  -7   8 17.6066 5.60629   2
  -2  -7   8 32.3500 4.30082   1
  -2  -7   8 16.4004 4.10633   3
  -1  -7   8 25.2822 4.38537   2
  -1  -7   8 24.8475 4.48160   1
  -1  -7   8 16.0113 4.15278   3
   0  -7   8 8.56361 3.23533   2
   0  -7   8 18.7059 3.79142   1
   0  -7   8 9.89197 3.11428   3
   1  -7   8 13.5783 4.09969   3
   1  -7   8 32.2999 5.04169   1
   1  -7   8 10.7682 4.52104   2
   2  -7   8 20.5729 7.25163   1
  -4  -6   8 9.88447 7.65032   1
  -4  -6   8 -2.9401 14.0941   3
  -4  -6   8 4.88699 7.37500   2
  -3  -6   8 45.4145 6.39535   3
  -3  -6   8 47.3952 3.82086   2
  -3  -6   8 66.9713 8.94172   1
  -2  -6   8 -0.2569 1.89314   2
  -2  -6   8 0.61181 1.86051   1
  -2  -6   8 0.90888 1.95596   3
  -1  -6   8 105.225 5.49904   2
  -1  -6   8 185.698 5.61375   1
  -1  -6   8 118.835 5.09276   3
   0  -6   8 142.889 5.48204   3
   0  -6   8 210.799 5.89676   1
   0  -6   8 119.106 5.26420   2
   1  -6   8 29.4884 3.33355   2
   1  -6   8 29.6202 3.00697   3
   1  -6   8 56.0472 3.75540   1
   2  -6   8 0.58001 2.17365   3
   2  -6   8 -1.4985 2.23538   2
   2  -6   8 1.23500 2.16103   1
   3  -6   8 7.76316 2.87964   2
   3  -6   8 21.3954 3.20233   1
   3  -6   8 11.7730 3.35693   3
  -5  -5   8 114.723 15.3524   1
  -5  -5   8 50.7699 13.0661   3
  -4  -5   8 4.70623 3.31253   3
  -4  -5   8 15.6000 2.82943   1
  -4  -5   8 10.2553 3.46269   2
  -3  -5   8 8.57875 2.15894   1
  -3  -5   8 5.86513 2.47692   3
  -3  -5   8 5.35984 2.10729   2
  -2  -5   8 -0.5315 1.77463   2
  -2  -5   8 6.39535 2.13066   3
  -2  -5   8 1.05332 1.46139   1
  -1  -5   8 74.5341 3.86159   1
  -1  -5   8 40.6855 2.80044   3
  -1  -5   8 34.7937 2.99213   2
   0  -5   8 8.78055 2.02967   2
   0  -5   8 7.30658 2.03841   3
   0  -5   8 14.4780 2.24746   1
   1  -5   8 13.2683 2.50852   3
   1  -5   8 19.9052 2.45153   1
   1  -5   8 12.5406 2.33364   2
   2  -5   8 97.0139 4.54032   2
   2  -5   8 165.352 5.23499   1
   2  -5   8 110.626 4.96339   3
   3  -5   8 126.189 5.34936   2
   3  -5   8 140.305 5.51330   3
   3  -5   8 237.800 6.20777   1
   4  -5   8 180.472 6.08462   1
   4  -5   8 105.297 5.14187   3
   4  -5   8 97.9628 4.93799   2
   5  -5   8 24.1653 11.5022   3
   5  -5   8 24.7848 5.56932   2
  -5  -4   8 49.6154 5.27404   1
  -5  -4   8 45.2315 13.1196   3
  -4  -4   8 -1.6860 2.26067   3
  -4  -4   8 3.98951 2.13809   1
  -4  -4   8 5.95497 2.59430   2
  -3  -4   8 63.5999 3.18086   1
  -3  -4   8 33.2829 2.93845   2
  -3  -4   8 46.9551 3.17525   3
  -2  -4   8 4.79204 1.64215   1
  -2  -4   8 3.23850 1.64460   3
  -2  -4   8 -0.8694 1.62827   2
  -1  -4   8 112.983 3.68426   1
  -1  -4   8 58.0968 3.36353   2
  -1  -4   8 66.5893 3.44245   3
   0  -4   8 472.295 6.90880   1
   0  -4   8 274.194 6.10430   2
   0  -4   8 284.697 5.50085   3
   1  -4   8 141.708 3.98118   2
   1  -4   8 228.135 5.40561   1
   1  -4   8 147.717 4.59124   3
   2  -4   8 51.1244 2.89440   1
   2  -4   8 34.3945 2.67500   3
   2  -4   8 33.0233 2.87217   2
   3  -4   8 169.533 5.04204   1
   3  -4   8 103.664 4.55002   3
   3  -4   8 93.6114 4.43535   2
   4  -4   8 6.08683 2.03195   3
   4  -4   8 8.34031 2.26096   2
   4  -4   8 17.6812 2.52646   1
   5  -4   8 -0.7239 1.93720   1
   5  -4   8 -0.2902 2.08869   3
   5  -4   8 1.78045 2.04135   2
   6  -4   8 11.9377 7.08292   2
  -5  -3   8 70.3340 8.12639   3
  -5  -3   8 107.788 9.94217   1
  -4  -3   8 41.3207 3.36392   1
  -4  -3   8 17.1133 2.62946   3
  -4  -3   8 18.3329 4.53648   2
  -3  -3   8 13.5623 2.17391   2
  -3  -3   8 13.9243 2.11293   3
  -3  -3   8 29.9115 2.28505   1
  -2  -3   8 1.35393 1.30179   1
  -2  -3   8 0.20469 1.44372   2
  -2  -3   8 -2.0669 1.35791   3
  -1  -3   8 124.927 4.45336   2
  -1  -3   8 229.435 4.60695   1
  -1  -3   8 138.041 4.21440   3
   0  -3   8 222.682 4.76834   2
   0  -3   8 236.602 4.76432   3
   0  -3   8 394.736 6.00272   1
   1  -3   8 299.537 5.09000   2
   1  -3   8 310.979 5.03432   3
   1  -3   8 501.777 6.28134   1
   2  -3   8 230.235 4.75768   1
   2  -3   8 140.511 4.19554   2
   2  -3   8 148.338 3.73125   3
   3  -3   8 40.2238 2.68056   2
   3  -3   8 44.1305 2.98997   3
   3  -3   8 72.2936 3.57741   1
   4  -3   8 91.8032 4.33368   3
   4  -3   8 75.4428 4.02886   2
   4  -3   8 140.623 5.05922   1
   5  -3   8 25.0578 2.86684   2
   5  -3   8 39.4527 3.28098   1
   5  -3   8 24.3274 2.75592   3
   6  -3   8 3.80272 3.02490   3
   6  -3   8 6.35823 3.12208   2
   6  -3   8 9.28920 3.25154   1
  -5  -2   8 -0.6218 3.60892   2
  -5  -2   8 2.98456 3.85447   3
  -5  -2   8 -3.5065 4.05225   1
  -4  -2   8 18.4797 2.39943   1
  -4  -2   8 10.2395 2.83662   2
  -4  -2   8 9.56095 2.58451   3
  -3  -2   8 7.35792 1.71162   2
  -3  -2   8 16.7050 1.81311   1
  -3  -2   8 10.7148 1.70855   3
  -2  -2   8 1.80463 1.21113   1
  -2  -2   8 -0.8280 1.39213   2
  -2  -2   8 -0.7489 1.30164   3
  -1  -2   8 26.0098 2.23983   3
  -1  -2   8 23.4651 1.83577   2
  -1  -2   8 41.8161 2.57896   1
   0  -2   8 3.04437 1.08097   1
   0  -2   8 1.55254 1.19348   3
   0  -2   8 -2.1176 1.07138   2
   1  -2   8 3.96729 1.25468   2
   1  -2   8 4.59508 1.25281   3
   1  -2   8 7.47278 1.25354   1
   2  -2   8 119.845 2.91571   2
   2  -2   8 125.681 3.35590   3
   2  -2   8 195.135 3.89143   1
   3  -2   8 273.478 5.27121   3
   3  -2   8 423.207 6.28420   1
   3  -2   8 250.093 4.62847   2
   4  -2   8 302.718 6.21861   1
   4  -2   8 178.065 4.15446   2
   4  -2   8 190.199 5.12349   3
   5  -2   8 41.6016 3.15378   1
   5  -2   8 24.9732 2.47123   2
   5  -2   8 25.1715 2.66788   3
   6  -2   8 19.6342 3.15607   2
   6  -2   8 24.7936 3.72200   1
   6  -2   8 20.9294 3.57283   3
   7  -2   8 3.72058 3.03758   3
   7  -2   8 2.00951 3.01697   2
   7  -2   8 -0.7369 3.45249   1
  -5  -1   8 19.1327 5.35672   1
  -5  -1   8 3.35830 2.44759   3
  -5  -1   8 19.7571 6.72282   2
  -4  -1   8 83.1327 4.59815   3
  -4  -1   8 142.344 5.84084   1
  -4  -1   8 83.6870 5.99964   2
  -3  -1   8 85.2152 3.09961   1
  -3  -1   8 51.3457 2.89430   3
  -3  -1   8 49.0515 3.43001   2
  -2  -1   8 75.7561 3.16857   3
  -2  -1   8 111.098 3.37928   1
  -2  -1   8 64.6250 2.77250   2
  -1  -1   8 158.390 3.76210   1
  -1  -1   8 88.8258 3.04761   2
  -1  -1   8 99.4116 3.03644   3
   0  -1   8 381.352 5.17568   1
   0  -1   8 229.329 4.11400   3
   0  -1   8 206.211 4.00551   2
   1  -1   8 429.300 5.36500   3
   1  -1   8 395.627 5.46796   2
   1  -1   8 700.073 6.90143   1
   2  -1   8 7.40210 1.15396   2
   2  -1   8 7.43949 1.23172   3
   2  -1   8 10.8333 1.24208   1
   3  -1   8 99.4522 3.05213   2
   3  -1   8 103.013 2.98132   3
   3  -1   8 169.065 3.61512   1
   4  -1   8 3.64760 1.31681   2
   4  -1   8 5.53794 1.30258   1
   4  -1   8 2.00970 1.22725   3
   5  -1   8 70.4399 3.25743   1
   5  -1   8 34.4160 2.33128   2
   5  -1   8 42.3084 2.45290   3
   6  -1   8 53.3845 3.89587   3
   6  -1   8 74.1608 4.28964   1
   6  -1   8 50.3201 3.81238   2
   7  -1   8 2.80499 2.26941   2
   7  -1   8 4.58081 2.31767   3
   7  -1   8 3.29493 2.01802   1
   8  -1   8 3.39263 4.47130   2
   8  -1   8 8.41589 4.28452   3
  -5   0   8 0.70933 2.51772   3
  -5   0   8 7.76452 3.31377   1
  -5   0   8 2.32927 3.00809   2
  -4   0   8 -0.9795 1.89036   3
  -4   0   8 0.48505 2.11446   2
  -4   0   8 2.77988 2.10001   1
  -3   0   8 17.4354 1.98327   3
  -3   0   8 26.0062 2.29738   1
  -3   0   8 13.1431 2.26429   2
  -2   0   8 6.44228 1.42133   2
  -2   0   8 5.28005 1.33635   1
  -2   0   8 3.59637 1.33374   3
  -1   0   8 389.950 5.09114   2
  -1   0   8 433.136 5.34292   3
  -1   0   8 674.421 7.21876   1
   0   0   8 907.870 8.62551   1
   0   0   8 517.349 5.91022   2
   0   0   8 560.088 6.47776   3
   1   0   8 259.737 4.28840   2
   1   0   8 278.718 4.43789   3
   1   0   8 447.422 5.59166   1
   2   0   8 77.0497 2.35856   1
   2   0   8 51.1177 2.12145   3
   2   0   8 46.0728 2.17922   2
   3   0   8 0.19882 1.01416   1
   3   0   8 0.95895 1.00437   2
   3   0   8 1.34635 1.02694   3
   4   0   8 97.2597 3.17954   2
   4   0   8 96.9871 3.14234   3
   4   0   8 159.733 3.59502   1
   5   0   8 101.402 3.33373   3
   5   0   8 90.1701 3.30234   2
   5   0   8 163.175 3.86003   1
   6   0   8 4.73050 1.72775   2
   6   0   8 1.57903 1.58216   1
   6   0   8 1.50197 1.68435   3
   7   0   8 1.33705 2.10450   3
   7   0   8 0.78583 1.80153   2
   7   0   8 1.67850 1.99549   1
   8   0   8 50.4199 4.26304   3
   8   0   8 84.7928 5.02506   1
   8   0   8 47.2089 4.58284   2
  -5   1   8 5.84553 3.55040   1
  -5   1   8 0.25004 2.40473   2
  -5   1   8 -3.3546 2.50463   3
  -4   1   8 81.4006 4.62113   2
  -4   1   8 90.3518 4.89386   3
  -4   1   8 159.861 6.18025   1
  -3   1   8 252.452 5.25056   3
  -3   1   8 223.358 4.84228   2
  -3   1   8 406.507 6.76442   1
  -2   1   8 140.370 3.52816   3
  -2   1   8 215.336 4.63067   1
  -2   1   8 129.240 4.25525   2
  -1   1   8 44.1117 2.02948   1
  -1   1   8 22.2861 1.97067   2
  -1   1   8 26.5549 1.72448   3
   0   1   8 53.3598 2.14861   1
   0   1   8 31.3305 1.77771   3
   0   1   8 31.1107 1.77249   2
   1   1   8 41.6170 1.97736   2
   1   1   8 48.8726 2.21117   3
   1   1   8 81.0163 2.66052   1
   2   1   8 9.78602 1.33468   3
   2   1   8 9.39807 1.26439   2
   2   1   8 19.9201 1.47913   1
   3   1   8 342.230 4.69817   1
   3   1   8 194.715 3.57860   2
   3   1   8 223.828 3.76618   3
   4   1   8 154.267 3.37810   1
   4   1   8 96.3885 2.95762   3
   4   1   8 90.8391 3.08168   2
   5   1   8 25.5094 1.81244   2
   5   1   8 29.3674 2.01835   3
   5   1   8 40.9595 2.29611   1
   6   1   8 299.612 5.83881   3
   6   1   8 270.302 5.55108   2
   6   1   8 480.108 8.33057   1
   6   0   8 482.461 16.0254  -2
   6   1   8 482.461 16.0254   1
   7   1   8 71.9087 3.83795   1
   7   1   8 43.4082 2.95990   2
   7   1   8 43.4831 2.97288   3
   7   0   8 77.6567 13.5408  -2
   7   1   8 77.6567 13.5408   1
   8   1   8 139.478 5.89674   1
   8   1   8 83.8534 4.13900   2
   8   1   8 96.7250 5.51229   3
  -5   2   8 13.6472 7.57916   2
  -5   2   8 20.4663 11.3017   1
  -5   2   8 11.0990 6.51994   3
  -4   2   8 155.735 6.59842   1
  -4   2   8 84.4454 4.83839   3
  -4   2   8 83.3428 4.48557   2
  -3   2   8 73.8310 3.68607   1
  -3   2   8 42.0339 2.62197   2
  -3   2   8 47.2253 2.74513   3
  -2   2   8 66.7931 2.96667   3
  -2   2   8 56.4474 2.77054   2
  -2   2   8 105.123 4.12039   1
  -1   2   8 284.021 5.70456   3
  -1   2   8 260.497 5.53440   2
  -1   2   8 454.868 6.65191   1
   0   2   8 461.112 5.48280   3
   0   2   8 735.483 7.27988   1
   0   2   8 421.331 5.83856   2
   1   2   8 617.902 6.50900   1
   1   2   8 368.708 4.80287   2
   1   2   8 397.534 5.08093   3
   2   2   8 0.73073 1.00248   1
   2   2   8 -0.1988 0.90970   3
   2   2   8 0.50042 0.92891   2
   3   2   8 261.493 4.18398   1
   3   2   8 154.467 3.43347   2
   3   2   8 157.175 3.22219   3
   4   2   8 6.05063 1.18330   2
   4   2   8 3.90885 1.11601   3
   4   2   8 9.12312 1.28675   1
   5   2   8 223.991 4.00013   3
   5   2   8 353.368 5.00839   1
   5   2   8 210.540 3.89822   2
   6   2   8 238.091 5.16849   1
   6   2   8 141.551 4.27400   2
   6   2   8 152.025 4.36630   3
   7   2   8 70.8902 3.63931   3
   7   2   8 111.914 4.37126   1
   7   2   8 66.3508 3.48809   2
   8   2   8 25.4553 2.67478   3
   8   2   8 44.4688 3.19955   1
   8   2   8 25.2079 2.66780   2
   9   2   8 51.3651 7.64965   2
   9   2   8 78.2451 8.39517   1
   9   2   8 31.6417 6.15148   3
  -4   3   8 4.46214 3.41755   1
  -4   3   8 2.49382 2.87350   3
  -4   3   8 2.54308 2.62436   2
  -3   3   8 49.5175 3.13694   2
  -3   3   8 110.736 4.72419   1
  -3   3   8 66.9067 3.24694   3
  -2   3   8 9.40648 1.63278   3
  -2   3   8 7.35033 1.56955   2
  -2   3   8 13.1134 2.06122   1
  -1   3   8 321.182 6.21335   3
  -1   3   8 305.932 5.72177   2
  -1   3   8 529.168 8.15205   1
   0   3   8 638.973 8.07058   1
   0   3   8 379.045 6.51006   2
   0   3   8 412.428 6.83722   3
   1   3   8 18.4528 1.52733   3
   1   3   8 12.4026 1.35905   2
   1   3   8 30.0700 1.77726   1
   2   3   8 16.0394 1.47567   1
   2   3   8 8.49131 1.19200   2
   2   3   8 10.9050 1.24489   3
   3   3   8 0.38389 0.94523   2
   3   3   8 -1.1462 0.88289   3
   3   3   8 0.70416 0.93783   1
   4   3   8 98.2861 2.90176   3
   4   3   8 90.6293 2.69958   2
   4   3   8 157.001 3.48855   1
   5   3   8 99.6227 2.87963   1
   5   3   8 62.4183 2.36170   2
   5   3   8 62.3887 2.41045   3
   6   3   8 49.0595 2.85773   2
   6   3   8 50.7625 2.88363   3
   6   3   8 79.9828 3.53267   1
   7   3   8 10.8133 1.97932   3
   7   3   8 20.9562 2.25395   1
   7   3   8 8.79238 1.86165   2
   8   3   8 213.134 5.73517   1
   8   3   8 129.203 4.93745   3
   8   3   8 132.838 5.04813   2
   9   3   8 221.987 9.57085   3
   9   3   8 349.546 9.24268   1
   9   3   8 220.873 12.5708   2
  -4   4   8 146.156 10.9462   3
  -4   4   8 108.032 9.52363   2
  -3   4   8 122.784 4.70637   3
  -3   4   8 105.697 4.49042   2
  -3   4   8 199.850 6.20220   1
  -2   4   8 52.4842 3.12003   2
  -2   4   8 88.1129 4.16506   1
  -2   4   8 54.5117 2.87566   3
  -1   4   8 -0.4946 1.15869   2
  -1   4   8 -1.3029 1.40903   1
  -1   4   8 0.79408 1.50885   3
   0   4   8 1.55610 1.39862   3
   0   4   8 0.73422 1.45724   1
   0   4   8 -0.0684 1.36227   2
   1   4   8 137.222 3.81604   1
   1   4   8 89.8305 3.35362   3
   1   4   8 76.4446 3.34360   2
   2   4   8 32.3878 1.92889   1
   2   4   8 21.1088 1.58111   2
   2   4   8 20.8486 1.57686   3
   3   4   8 6.47581 1.14765   3
   3   4   8 6.05721 1.11677   2
   3   4   8 12.3302 1.37299   1
   4   4   8 17.6607 1.64105   3
   4   4   8 15.5691 1.37696   2
   4   4   8 24.3837 1.83562   1
   5   4   8 120.693 2.99906   2
   5   4   8 130.612 3.11167   3
   5   4   8 198.886 3.73745   1
   6   4   8 198.051 4.73902   2
   6   4   8 222.407 5.06162   3
   6   4   8 352.228 6.35279   1
   7   4   8 85.1165 3.92944   3
   7   4   8 143.164 4.61948   1
   7   4   8 87.9450 3.88028   2
   8   4   8 9.39134 2.07964   1
   8   4   8 4.42880 1.83394   2
   8   4   8 5.66487 1.94566   3
   9   4   8 18.1734 3.43847   1
   9   4   8 13.8612 4.18903   3
   9   4   8 16.1652 4.35126   2
  -3   5   8 19.4002 2.56540   2
  -3   5   8 16.3606 2.41388   3
  -3   5   8 23.6627 3.57382   1
  -2   5   8 24.1832 2.34332   2
  -2   5   8 18.6191 2.45159   3
  -2   5   8 35.7783 3.75134   1
  -1   5   8 188.457 5.99080   3
  -1   5   8 183.849 4.60895   2
  -1   5   8 296.652 6.56025   1
   0   5   8 150.593 3.60488   2
   0   5   8 254.960 5.85370   1
   0   5   8 167.415 4.92191   3
   1   5   8 44.3093 2.86530   1
   1   5   8 25.4478 2.32305   3
   1   5   8 20.9172 2.03543   2
   2   5   8 21.9954 1.96395   3
   2   5   8 17.7614 1.78654   2
   2   5   8 37.4023 2.40354   1
   3   5   8 88.9187 3.08366   1
   3   5   8 57.7610 2.38245   3
   3   5   8 53.1007 2.32220   2
   3   4   9 497.779 20.4272  -2
   3   5   8 497.779 20.4272   1
   4   5   8 153.686 3.82097   1
   4   5   8 105.286 3.31338   3
   4   5   8 96.7801 2.90978   2
   5   5   8 497.702 5.86084   3
   5   5   8 462.071 5.61484   2
   5   5   8 785.824 7.87557   1
   6   5   8 193.527 4.78023   3
   6   5   8 170.941 4.43117   2
   6   5   8 293.736 5.85340   1
   7   5   8 35.1652 2.72124   2
   7   5   8 58.9986 3.37575   1
   7   5   8 40.4174 2.92378   3
   8   5   8 28.5527 2.80680   1
   8   5   8 17.3295 2.58480   2
   8   5   8 15.6211 2.27467   3
   9   5   8 42.2624 5.59348   3
   9   5   8 78.5340 6.98788   1
   9   5   8 41.2516 5.33427   2
  -3   6   8 22.2208 11.0465   3
  -3   6   8 16.6294 7.36561   2
  -3   6   8 25.7599 8.79148   1
  -2   6   8 6.47356 1.79834   2
  -2   6   8 4.25175 2.15571   3
  -2   6   8 17.2243 3.09400   1
  -1   6   8 48.4721 3.51282   3
  -1   6   8 45.6076 2.69563   2
  -1   6   8 85.7870 5.13874   1
   0   6   8 93.4086 4.42613   3
   0   6   8 83.7612 3.64428   2
   0   6   8 163.463 5.29122   1
   1   6   8 2.63202 1.51617   2
   1   6   8 -0.2435 1.35320   3
   1   6   8 1.33347 1.49334   1
   2   6   8 81.4017 3.72585   3
   2   6   8 129.100 4.17272   1
   2   6   8 73.6218 3.32666   2
   3   6   8 140.207 3.71602   2
   3   6   8 245.038 4.89667   1
   3   6   8 150.305 4.02016   3
   4   6   8 36.0202 2.20060   3
   4   6   8 51.5877 2.87905   1
   4   6   8 34.6980 1.91639   2
   4   5   9 91.7782 11.5668  -2
   4   6   8 91.7782 11.5668   1
   5   6   8 19.6065 1.67746   3
   5   6   8 22.1429 1.75909   2
   5   5   9 60.4909 5.17476  -2
   5   6   8 60.4909 5.17476   1
   5   6   8 33.7398 2.73738   1
   6   6   8 5.02433 1.51938   3
   6   6   8 6.56662 1.70193   1
   6   6   8 5.33794 1.53769   2
   7   6   8 3.78943 1.59671   1
   7   6   8 1.33498 1.66989   2
   7   6   8 0.71785 1.63756   3
   8   6   8 30.9218 3.18750   3
   8   6   8 50.6852 3.48516   1
   8   6   8 29.5208 3.09479   2
   9   6   8 106.197 8.93610   1
   9   6   8 65.9213 6.84990   2
   9   6   8 61.1259 6.83006   3
  -2   7   8 18.3810 10.8531   3
  -2   7   8 12.4682 4.51323   2
  -2   7   8 30.8468 12.9469   1
  -1   7   8 9.80455 1.89536   2
  -1   7   8 19.0743 3.26239   1
  -1   7   8 5.92133 2.13357   3
   0   7   8 1.81121 1.84547   3
   0   7   8 -1.5658 1.35902   2
   0   7   8 2.45605 2.22321   1
   1   7   8 31.9539 2.32524   2
   1   7   8 39.7652 3.10299   3
   1   7   8 47.6784 4.35679   1
   2   7   8 48.6732 3.24904   1
   2   7   8 30.8328 2.77065   3
   2   7   8 27.7825 2.64146   2
   3   7   8 5.91692 1.45213   3
   3   7   8 12.2547 1.93093   1
   3   7   8 7.64018 1.48650   2
   4   7   8 174.288 4.81380   1
   4   7   8 104.113 3.25242   2
   4   7   8 107.609 4.20727   3
   5   7   8 477.188 6.43506   1
   5   7   8 294.287 5.29627   2
   5   7   8 307.970 5.02386   3
   6   7   8 450.500 7.62205   1
   6   7   8 267.634 5.59566   2
   6   7   8 291.395 5.99432   3
   7   7   8 86.6667 4.36254   2
   7   7   8 96.1578 4.50972   3
   7   7   8 142.811 4.91281   1
   8   7   8 14.3936 2.75204   2
   8   7   8 11.1020 2.40102   3
   8   7   8 21.1074 2.93529   1
   9   7   8 18.3592 5.58998   2
   9   7   8 32.4182 10.0886   3
   9   7   8 43.5149 11.0265   1
  -1   8   8 5.18689 7.13286   3
  -1   8   8 6.51087 9.12425   1
   0   8   8 9.12644 1.93450   2
   0   8   8 14.4331 2.53513   3
   0   8   8 13.3536 2.87552   1
   1   8   8 18.2079 2.90945   1
   1   8   8 11.4153 1.91539   2
   1   8   8 8.73772 1.97885   3
   2   8   8 1.44281 1.97249   1
   2   8   8 0.51828 1.65108   2
   2   8   8 0.42546 1.62038   3
   3   8   8 70.2411 3.55490   3
   3   8   8 65.8474 3.54100   2
   3   8   8 112.704 4.58815   1
   4   8   8 -0.0136 1.44107   3
   4   8   8 1.42585 1.21438   2
   4   8   8 1.42193 1.69817   1
   5   8   8 224.294 4.26864   2
   5   8   8 371.486 6.82076   1
   5   8   8 224.520 4.94149   3
   6   8   8 223.761 4.85470   2
   6   8   8 238.687 5.57301   3
   6   8   8 395.980 7.21179   1
   7   8   8 74.8182 4.65699   1
   7   8   8 44.7617 3.83900   3
   7   8   8 42.7462 2.83491   2
   8   8   8 -1.8602 2.79355   3
   8   8   8 -5.8645 2.74586   1
   8   8   8 -1.6049 2.18853   2
   1   9   8 55.0723 5.61813   3
   1   9   8 85.7815 6.73435   1
   2   9   8 127.591 5.15598   3
   2   9   8 104.677 6.26371   2
   2   9   8 199.644 6.72809   1
   3   9   8 120.826 4.87991   1
   3   9   8 73.2476 4.24940   3
   3   9   8 68.3645 3.84900   2
   4   9   8 32.9126 3.23646   1
   4   9   8 16.3109 2.03936   3
   4   9   8 17.6676 2.15499   2
   5   9   8 1.39581 2.17643   3
   5   9   8 0.67676 2.01849   1
   6   9   8 10.1799 2.91345   2
   6   9   8 13.5475 2.82735   3
   6   9   8 25.7235 3.04031   1
   7   9   8 32.8111 2.64005   2
   7   9   8 53.2156 3.70031   1
   7   9   8 31.8733 3.11830   3
   8   9   8 7.50560 5.34768   1
   8   9   8 4.64188 5.46621   3
   8   9   8 1.46003 5.64359   2
   2  10   8 143.149 16.4096   2
   3   9  10 182.809 19.0246  -2
   3  10   8 182.809 19.0246   1
   3  10   8 8.24172 3.72014   3
   3  10   8 16.1768 3.98781   2
   4  10   8 8.62469 2.31699   3
   4  10   8 8.79608 2.62193   2
   4   9  10 29.4530 7.20821  -2
   4  10   8 29.4530 7.20821   1
   7  10   8 37.6300 8.68657   2
   0  -7   9 21.5048 9.38163   3
  -2  -6   9 11.1029 3.79495   3
  -2  -6   9 19.3442 4.49080   1
  -2  -6   9 16.8054 4.03429   2
  -1  -6   9 0.48092 2.42499   3
  -1  -6   9 -0.2106 2.50618   1
  -1  -6   9 7.72221 3.73255   2
   0  -6   9 22.2729 4.44245   2
   0  -6   9 40.5078 4.38894   1
   0  -6   9 19.7836 3.84401   3
   1  -6   9 85.3482 6.90914   3
   1  -6   9 150.906 7.51965   1
   1  -6   9 75.0144 7.70257   2
   2  -6   9 4.77790 4.07388   3
   2  -6   9 8.22261 4.63411   2
   2  -6   9 21.7590 5.85152   1
  -4  -5   9 19.9691 8.13219   2
  -3  -5   9 174.728 9.60323   1
  -3  -5   9 83.1572 5.64291   2
  -3  -5   9 87.1843 8.29209   3
  -2  -5   9 98.4527 4.75157   3
  -2  -5   9 81.5057 4.47268   2
  -2  -5   9 151.694 6.30357   1
  -1  -5   9 23.7614 2.94349   1
  -1  -5   9 14.4617 2.49420   2
  -1  -5   9 15.2356 2.74049   3
   0  -5   9 -1.7330 1.76605   1
   0  -5   9 0.67892 2.01840   3
   0  -5   9 3.18884 2.41471   2
   1  -5   9 7.78586 2.78633   2
   1  -5   9 7.15152 2.16902   3
   1  -5   9 10.6533 2.33149   1
   2  -5   9 8.01994 2.66818   2
   2  -5   9 7.02668 2.48523   3
   2  -5   9 11.9981 3.02920   1
   3  -5   9 60.6983 4.32089   2
   3  -5   9 65.4421 4.53244   3
   3  -5   9 102.891 5.45264   1
   4  -5   9 19.8685 3.75587   2
   4  -5   9 20.3914 4.03901   3
   4  -5   9 38.8569 5.28935   1
  -4  -4   9 13.1677 4.83115   3
  -4  -4   9 35.6248 8.93173   1
  -3  -4   9 165.587 7.13350   3
  -3  -4   9 146.484 5.58858   2
  -3  -4   9 274.721 8.10883   1
  -2  -4   9 268.867 6.20327   1
  -2  -4   9 166.175 5.16908   3
  -2  -4   9 151.997 5.37212   2
  -1  -4   9 -0.3897 1.45419   1
  -1  -4   9 -1.0692 1.61590   3
  -1  -4   9 -0.8890 1.69034   2
   0  -4   9 6.02129 1.92293   3
   0  -4   9 8.06370 2.07594   1
   0  -4   9 4.08483 2.01179   2
   1  -4   9 70.0830 3.83357   1
   1  -4   9 36.3369 3.08564   2
   1  -4   9 44.4460 3.16023   3
   2  -4   9 82.5784 4.21026   3
   2  -4   9 82.7439 4.51081   2
   2  -4   9 133.148 5.06172   1
   3  -4   9 20.5291 2.56756   3
   3  -4   9 22.8485 2.78486   2
   3  -4   9 42.5587 3.21441   1
   4  -4   9 -2.6915 1.91353   3
   4  -4   9 2.55080 2.08473   1
   4  -4   9 2.44864 2.13816   2
   5  -4   9 2.14182 2.49846   1
   5  -4   9 4.99066 2.84251   2
   5  -4   9 3.99720 2.72640   3
  -4  -3   9 2.11522 3.75608   1
  -3  -3   9 6.91526 2.46545   1
  -3  -3   9 3.24447 2.04902   3
  -3  -3   9 6.10594 2.05547   2
  -2  -3   9 -0.6648 1.57261   3
  -2  -3   9 -1.2320 1.68706   2
  -2  -3   9 1.89633 1.64174   1
  -1  -3   9 18.1187 2.18649   1
  -1  -3   9 13.7007 2.04164   3
  -1  -3   9 9.07260 2.02483   2
   0  -3   9 11.0536 1.91880   1
   0  -3   9 6.42272 1.79970   3
   0  -3   9 9.59477 2.04419   2
   1  -3   9 8.25691 1.76660   2
   1  -3   9 6.79302 1.68905   3
   1  -3   9 13.9916 1.82168   1
   2  -3   9 16.0717 2.27761   2
   2  -3   9 22.4228 2.22553   3
   2  -3   9 35.8938 2.73718   1
   3  -3   9 112.287 4.52603   2
   3  -3   9 188.063 5.42841   1
   3  -3   9 115.090 4.77125   3
   4  -3   9 42.2010 3.31580   1
   4  -3   9 19.5608 2.61084   2
   4  -3   9 22.1981 2.63316   3
   5  -3   9 3.29040 1.93499   1
   5  -3   9 1.77707 2.10832   2
   5  -3   9 1.08453 2.12299   3
   6  -3   9 27.0337 5.93118   2
   6  -3   9 31.9061 7.77510   1
   6  -3   9 19.5834 5.39436   3
  -4  -2   9 15.2574 4.72072   2
  -4  -2   9 13.5309 4.75265   3
  -4  -2   9 13.5052 4.80773   1
  -3  -2   9 281.010 6.26843   1
  -3  -2   9 181.967 5.46033   3
  -3  -2   9 152.522 5.92905   2
  -2  -2   9 188.210 5.09709   3
  -2  -2   9 178.989 4.67374   2
  -2  -2   9 304.239 6.21623   1
  -1  -2   9 4.31720 1.67471   3
  -1  -2   9 10.0995 1.79846   1
  -1  -2   9 4.52278 1.58010   2
   0  -2   9 53.6199 2.68061   2
   0  -2   9 98.9884 3.85334   1
   0  -2   9 63.7591 3.35148   3
   1  -2   9 0.54349 1.25803   2
   1  -2   9 0.63331 1.08538   1
   1  -2   9 1.77479 1.50364   3
   2  -2   9 275.231 5.03840   3
   2  -2   9 457.886 6.27082   1
   2  -2   9 256.861 5.08069   2
   3  -2   9 513.263 7.58493   3
   3  -2   9 845.345 10.2497   1
   3  -2   9 502.378 7.54133   2
   4  -2   9 140.145 5.03839   1
   4  -2   9 88.0863 4.21583   3
   4  -2   9 79.0698 3.70263   2
   5  -2   9 2.29268 1.84390   3
   5  -2   9 2.18660 1.75423   1
   5  -2   9 0.10318 1.85326   2
   6  -2   9 30.7290 4.12503   2
   6  -2   9 29.4913 4.24199   3
   6  -2   9 52.0567 4.91452   1
   7  -2   9 44.8365 14.2698   2
   7  -2   9 56.3123 12.2729   3
   7  -2   9 133.163 18.2900   1
  -5  -1   9 2.19942 6.15853   2
  -4  -1   9 8.08619 3.08175   2
  -4  -1   9 15.7608 3.68493   3
  -4  -1   9 19.2564 4.32559   1
  -3  -1   9 89.1041 4.51707   3
  -3  -1   9 75.9880 4.38330   2
  -3  -1   9 147.245 5.97210   1
  -2  -1   9 75.6398 4.18206   2
  -2  -1   9 143.311 4.47464   1
  -2  -1   9 86.8149 3.59315   3
  -1  -1   9 15.4233 1.72796   2
  -1  -1   9 18.0680 1.96763   3
  -1  -1   9 29.1383 2.35361   1
   0  -1   9 97.5041 3.29995   3
   0  -1   9 143.870 3.68111   1
   0  -1   9 90.7426 3.23802   2
   1  -1   9 1.24517 1.23754   2
   1  -1   9 1.37009 1.18515   3
   1  -1   9 2.47044 1.26944   1
   2  -1   9 -0.4134 1.11413   2
   2  -1   9 0.02224 1.11481   1
   2  -1   9 -0.0676 1.04046   3
   3  -1   9 13.4850 1.77702   1
   3  -1   9 6.99683 1.51498   2
   3  -1   9 6.10825 1.36861   3
   4  -1   9 40.7901 2.68368   1
   4  -1   9 23.4134 2.00281   3
   4  -1   9 25.9170 2.09517   2
   5  -1   9 64.6964 3.78012   1
   5  -1   9 42.7733 2.62040   3
   5  -1   9 40.3597 2.62256   2
   6  -1   9 195.365 7.75502   1
   6  -1   9 129.236 5.94506   2
   6  -1   9 136.751 6.18043   3
   7  -1   9 74.4936 5.80740   3
   7  -1   9 136.758 7.55169   1
   7  -1   9 78.5822 5.40044   2
  -5   0   9 12.1638 7.67357   1
  -4   0   9 7.21483 3.22288   3
  -4   0   9 8.34072 3.03859   1
  -4   0   9 4.11346 3.01146   2
  -3   0   9 12.7476 2.37620   3
  -3   0   9 12.7267 2.39970   2
  -3   0   9 21.5029 2.63945   1
  -2   0   9 70.4805 3.96227   3
  -2   0   9 112.335 4.04820   1
  -2   0   9 55.0603 2.97080   2
  -1   0   9 51.5328 2.65662   1
  -1   0   9 30.9161 2.06450   3
  -1   0   9 31.0808 2.17240   2
   0   0   9 12.5360 1.52384   3
   0   0   9 19.2161 1.69589   1
   0   0   9 11.4678 1.56927   2
   1   0   9 1.14237 1.16309   3
   1   0   9 1.70809 1.20397   2
   1   0   9 2.36085 1.16389   1
   2   0   9 217.423 4.22174   3
   2   0   9 196.298 4.06868   2
   2   0   9 354.804 4.93286   1
   3   0   9 658.963 7.73671   3
   3   0   9 607.511 7.45087   2
   3   0   9 1049.70 9.60317   1
   4   0   9 149.703 3.74625   2
   4   0   9 263.888 4.78839   1
   4   0   9 169.417 3.99127   3
   5   0   9 1.80237 1.35177   3
   5   0   9 2.41608 1.36577   2
   5   0   9 3.04462 1.44151   1
   6   0   9 35.4886 3.01090   3
   6   0   9 60.2394 3.93644   1
   6   0   9 39.3679 3.17207   2
   7   0   9 8.97989 2.34862   2
   7   0   9 8.64722 2.56120   3
   7   0   9 9.42833 2.37694   1
   8   0   9 19.1206 4.90303   2
   8   0   9 20.7820 4.88260   3
   8   0   9 29.5747 5.23322   1
  -4   1   9 -1.7650 3.56990   3
  -4   1   9 0.07156 3.18552   2
  -4   1   9 1.68566 3.16360   1
  -3   1   9 10.5813 2.31214   3
  -3   1   9 6.26000 2.23050   2
  -3   1   9 22.1032 2.70079   1
  -2   1   9 50.1201 2.97047   2
  -2   1   9 50.5545 3.30593   3
  -2   1   9 91.9556 4.47716   1
  -1   1   9 -1.7275 1.18592   3
  -1   1   9 1.11379 1.04698   1
  -1   1   9 -2.4205 1.18042   2
   0   1   9 0.09151 1.11927   2
   0   1   9 0.73644 1.08704   3
   0   1   9 3.20458 1.17009   1
   1   1   9 6.18099 1.35521   2
   1   1   9 10.9396 1.45558   1
   1   1   9 5.93906 1.29676   3
   2   1   9 158.565 3.64400   1
   2   1   9 101.765 3.18686   3
   2   1   9 88.4177 3.03027   2
   3   1   9 476.855 6.38788   3
   3   1   9 773.810 8.40322   1
   3   1   9 447.353 6.21767   2
   4   1   9 282.594 4.66050   3
   4   1   9 457.021 6.00282   1
   4   1   9 271.869 4.62739   2
   5   1   9 31.6064 2.18816   1
   5   1   9 21.8092 1.89383   3
   5   1   9 19.6079 1.89848   2
   6   1   9 46.3057 3.19579   1
   6   1   9 27.7338 2.75675   2
   6   1   9 26.3726 2.70725   3
   7   1   9 72.2639 4.12776   1
   7   1   9 43.1899 3.48734   3
   7   1   9 48.7130 3.16322   2
   8   1   9 21.0659 3.24668   2
   8   1   9 22.4056 3.73397   3
   8   1   9 41.8460 4.30378   1
  -4   2   9 13.8467 4.73454   3
  -4   2   9 25.3400 8.16361   1
  -4   2   9 14.8125 7.00621   2
  -3   2   9 -1.3122 1.79751   1
  -3   2   9 0.15354 1.87288   3
  -3   2   9 -0.2716 1.73808   2
  -2   2   9 12.0749 2.14573   2
  -2   2   9 12.4933 1.98068   3
  -2   2   9 15.6032 2.16142   1
  -1   2   9 272.632 5.43810   1
  -1   2   9 168.880 4.36528   3
  -1   2   9 160.445 4.38059   2
   0   2   9 416.049 5.53005   1
   0   2   9 238.786 5.02647   2
   0   2   9 260.281 5.11659   3
   1   2   9 13.6225 1.50933   1
   1   2   9 7.97159 1.32488   3
   1   2   9 5.90695 1.25411   2
   2   2   9 3.41983 1.24104   1
   2   2   9 2.66442 1.14863   2
   2   2   9 4.28759 1.23447   3
   3   2   9 1.89088 1.28494   2
   3   2   9 1.30721 1.32916   1
   3   2   9 -0.7718 1.20465   3
   4   2   9 0.24747 1.14577   3
   4   2   9 0.08241 1.08825   1
   4   2   9 0.98628 1.16762   2
   5   2   9 0.69569 1.18441   1
   5   2   9 1.25755 1.16038   3
   5   2   9 -0.4874 1.10983   2
   6   2   9 50.2651 3.03561   2
   6   2   9 83.3279 4.09942   1
   6   2   9 53.7586 3.45004   3
   7   2   9 124.370 4.58111   1
   7   2   9 71.2236 3.77337   3
   7   2   9 70.1811 3.70825   2
   8   2   9 4.93744 2.09202   3
   8   2   9 9.56915 2.46281   1
   8   2   9 8.28360 2.18254   2
   8   1   9 48.1069 13.0013  -2
   8   2   9 48.1069 13.0013   1
  -3   3   9 8.85356 2.56217   2
  -3   3   9 7.09121 2.17045   3
  -3   3   9 13.3476 2.63790   1
  -2   3   9 17.1195 2.14786   1
  -2   3   9 5.69357 2.03485   2
  -2   3   9 9.76578 2.15997   3
  -1   3   9 104.842 4.38452   2
  -1   3   9 200.348 4.89860   1
  -1   3   9 129.969 4.91931   3
   0   3   9 301.454 5.69943   2
   0   3   9 500.087 7.45055   1
   0   3   9 310.449 5.74787   3
   1   3   9 112.825 3.68434   3
   1   3   9 108.003 3.73241   2
   1   3   9 186.800 3.80916   1
   2   3   9 138.279 3.58246   1
   2   3   9 87.2426 2.93542   3
   2   3   9 78.2572 2.83154   2
   3   3   9 441.945 6.51667   3
   3   3   9 400.178 6.18960   2
   3   3   9 677.222 8.38819   1
   4   3   9 235.456 4.50987   2
   4   3   9 256.937 4.75253   3
   4   3   9 411.439 6.00445   1
   5   3   9 -0.3285 1.13884   3
   5   3   9 -0.3133 1.02906   2
   5   3   9 1.05573 1.14177   1
   6   3   9 42.1802 2.82196   3
   6   3   9 70.1828 3.35510   1
   6   3   9 33.2684 2.53090   2
   7   3   9 0.35697 1.55980   2
   7   3   9 0.79892 1.69490   3
   7   3   9 -0.5057 1.54316   1
   8   3   9 119.125 5.31824   3
   8   3   9 193.801 5.71474   1
   8   3   9 110.967 4.76832   2
   9   3   9 135.947 13.6107   2
   9   3   9 122.031 12.2071   3
   9   3   9 213.880 15.4339   1
  -3   4   9 12.4582 2.99490   2
  -3   4   9 11.8568 3.48915   1
  -3   4   9 4.27348 2.65593   3
  -2   4   9 0.00185 1.76092   3
  -2   4   9 0.37254 1.71558   1
  -2   4   9 0.08463 1.98568   2
  -1   4   9 49.2283 3.31830   1
  -1   4   9 28.9500 2.68860   2
  -1   4   9 35.3330 2.94291   3
   0   4   9 101.092 3.90012   1
   0   4   9 52.4538 3.27780   2
   0   4   9 63.5698 3.56277   3
   1   4   9 6.84649 1.51395   3
   1   4   9 3.93831 1.42740   2
   1   4   9 7.91612 1.67716   1
   2   4   9 287.750 4.71325   1
   2   4   9 165.513 4.16661   2
   2   4   9 177.406 3.73268   3
   3   4   9 438.920 5.76320   3
   3   4   9 409.390 5.84648   2
   3   4   9 691.525 8.60739   1
   4   4   9 131.381 3.62296   3
   4   4   9 135.817 3.71255   2
   4   4   9 210.378 4.40768   1
   5   4   9 25.9633 1.90016   2
   5   4   9 25.3762 2.01917   3
   5   4   9 42.6993 2.44791   1
   6   4   9 9.97102 1.87563   1
   6   4   9 7.68066 1.72330   3
   6   4   9 3.46196 1.56500   2
   7   4   9 46.0746 3.14204   1
   7   4   9 26.7136 2.58014   3
   7   4   9 30.8424 2.66289   2
   8   4   9 12.3136 2.21507   2
   8   4   9 23.0849 2.63028   1
   8   4   9 10.9781 2.22447   3
   9   4   9 0.61046 3.81494   1
   9   4   9 3.53260 6.05865   2
   9   4   9 3.22572 4.02684   3
  -3   5   9 1.48640 4.55000   1
  -3   5   9 -0.7217 6.94413   2
  -3   5   9 -0.9970 4.04361   3
  -2   5   9 9.95964 2.66356   1
  -2   5   9 4.32360 2.27172   3
  -2   5   9 8.17966 2.53066   2
  -1   5   9 311.654 7.07236   1
  -1   5   9 172.852 6.40686   2
  -1   5   9 192.351 6.39410   3
   0   5   9 490.412 8.44677   2
   0   5   9 503.598 8.57511   3
   0   5   9 847.223 11.6131   1
   1   5   9 70.6469 3.43967   3
   1   5   9 109.253 4.08183   1
   1   5   9 69.2410 3.63947   2
   2   5   9 25.3362 2.22722   1
   2   5   9 15.0554 1.82615   3
   2   5   9 14.3327 1.79007   2
   3   5   9 2.26095 1.17284   3
   3   5   9 7.99800 1.43108   1
   3   5   9 3.05020 1.20772   2
   4   5   9 42.4974 2.40958   2
   4   5   9 74.2689 3.35371   1
   4   5   9 47.5962 2.73110   3
   5   5   9 44.7396 3.35504   1
   5   5   9 21.0595 2.41241   2
   5   5   9 21.8430 1.92056   3
   5   4  10 224.261 8.66022  -2
   5   5   9 224.261 8.66022   1
   6   5   9 33.8682 2.84903   1
   6   5   9 12.9859 2.01483   3
   6   4  10 258.884 13.3127  -2
   6   5   9 258.884 13.3127   1
   6   5   9 13.8102 1.98735   2
   7   5   9 26.2165 2.59422   2
   7   5   9 45.7584 3.16880   1
   7   5   9 27.0285 2.62117   3
   7   4  10 183.957 20.8252  -2
   7   5   9 183.957 20.8252   1
   8   5   9 88.4660 4.38481   3
   8   5   9 89.2854 4.45570   2
   8   5   9 138.875 5.57095   1
   8   4  10 138.359 17.2872  -2
   8   5   9 138.359 17.2872   1
   9   5   9 253.947 20.2361   3
   9   5   9 367.097 15.9137   1
   9   5   9 227.864 22.3075   2
  -2   6   9 28.9261 5.05498   2
  -2   6   9 32.1262 6.13443   1
  -2   6   9 27.0958 4.93939   3
  -1   6   9 86.0521 5.36126   1
  -1   6   9 56.7255 4.06762   2
  -1   6   9 56.7829 4.36570   3
   0   6   9 117.824 5.11703   1
   0   6   9 71.8190 4.25013   2
   0   6   9 74.0333 4.55155   3
   1   6   9 40.7761 3.12201   3
   1   6   9 72.2750 3.68166   1
   1   6   9 39.8947 3.10222   2
   2   6   9 41.2472 2.72694   2
   2   6   9 52.6568 2.97023   3
   2   6   9 76.7379 3.65558   1
   3   6   9 247.292 5.18011   3
   3   6   9 399.598 6.81999   1
   3   6   9 238.132 5.10912   2
   4   6   9 116.751 3.76625   2
   4   6   9 208.052 4.76385   1
   4   6   9 132.129 3.94306   3
   5   6   9 14.6609 1.90222   1
   5   6   9 9.59142 1.55912   2
   5   6   9 10.0611 1.64167   3
   6   6   9 10.9115 1.98715   3
   6   6   9 16.1672 2.10828   2
   6   5  10 208.784 9.19950  -2
   6   6   9 208.784 9.19950   1
   6   6   9 24.3057 3.21781   1
   7   5  10 66.3443 5.10031  -2
   7   6   9 66.3443 5.10031   1
   7   6   9 8.35036 2.17484   3
   7   6   9 9.88037 2.05250   2
   8   6   9 109.123 4.90507   3
   8   5  10 175.815 12.5812  -2
   8   6   9 175.815 12.5812   1
   8   6   9 100.654 5.02849   2
   8   6   9 156.989 11.6407   1
   9   6   9 93.5156 13.8100   2
   9   6   9 111.618 15.7472   3
  -1   7   9 23.0873 4.14490   2
  -1   7   9 42.6406 5.80385   1
  -1   7   9 18.0012 4.40466   3
   0   7   9 84.3868 4.45802   2
   0   7   9 161.676 7.33612   1
   0   7   9 103.957 5.79108   3
   1   7   9 -1.3620 1.77703   3
   1   7   9 -2.5028 2.08376   1
   1   7   9 -0.9747 1.79298   2
   2   7   9 149.594 4.99241   1
   2   7   9 93.1058 4.47782   3
   2   7   9 88.6609 4.41971   2
   3   7   9 63.9937 3.16999   2
   3   7   9 114.490 4.52421   1
   3   7   9 68.0968 3.42194   3
   4   7   9 2.70738 1.56745   2
   4   7   9 3.45797 1.65597   3
   4   7   9 7.84936 1.99724   1
   5   7   9 225.712 5.00822   1
   5   7   9 148.138 4.21305   3
   5   7   9 141.964 4.44661   2
   6   7   9 26.9573 2.50728   3
   6   7   9 42.1383 2.97986   1
   6   7   9 23.9643 2.40610   2
   7   7   9 34.5731 3.42711   2
   7   7   9 53.1020 4.19788   1
   7   7   9 31.6555 3.01509   3
   7   6  10 102.044 11.6599  -2
   7   7   9 102.044 11.6599   1
   8   7   9 2.05461 3.61883   1
   8   7   9 7.29633 4.15808   3
   8   7   9 5.16572 3.15138   2
   9   7   9 2.50651 7.37041   3
   0   8   9 162.029 18.5582   3
   0   8   9 241.100 23.0929   1
   1   8   9 38.6176 4.07390   1
   1   8   9 27.3090 3.38981   2
   1   8   9 23.1594 2.85539   3
   2   8   9 6.97668 2.11090   2
   2   8   9 10.6325 2.40120   1
   2   8   9 4.86558 2.20380   3
   3   8   9 7.74278 2.10343   1
   3   8   9 5.80830 1.78791   2
   3   8   9 6.19694 1.98663   3
   4   8   9 33.2080 2.91613   3
   4   8   9 28.7362 2.43035   2
   4   8   9 49.9641 3.55730   1
   5   8   9 41.8431 3.45801   2
   5   8   9 42.2049 2.92324   3
   5   8   9 74.4301 4.04689   1
   6   8   9 73.6453 4.23943   1
   6   8   9 44.6093 3.04694   2
   6   8   9 50.6194 3.18932   3
   7   8   9 21.4477 2.65520   2
   7   8   9 34.4358 3.12167   1
   7   8   9 19.2842 3.03469   3
   8   8   9 69.6625 8.09662   3
   8   8   9 59.2592 5.30171   2
   8   8   9 92.0277 9.48363   1
   1   9   9 48.0448 18.4631   1
   1   9   9 23.1097 8.84448   3
   2   9   9 14.7535 3.46466   1
   2   9   9 13.1859 3.23396   3
   3   9   9 42.0827 3.71878   1
   3   9   9 27.3761 2.62124   3
   4   9   9 -1.2568 2.15023   2
   4   9   9 0.84593 2.32290   1
   4   9   9 -1.0345 1.82152   3
   5   9   9 49.1536 4.40656   3
   5   9   9 75.9154 4.51886   1
   6   9   9 24.8455 3.53859   1
   6   9   9 14.6508 3.38231   3
   7   9   9 38.8040 4.06878   3
   7   9   9 28.4694 5.02934   2
   7   9   9 59.2621 6.07220   1
   3  10   9 1.14155 7.36212   1
   4  10   9 -2.6915 2.42391   3
   4  10   9 -1.5739 6.46510   1
  -2  -5  10 16.3171 5.19727   2
  -2  -5  10 20.2674 6.00355   1
  -2  -5  10 13.6415 5.97350   3
  -1  -5  10 13.2253 4.75552   1
  -1  -5  10 12.3316 3.04699   2
  -1  -5  10 11.7825 5.04139   3
   0  -5  10 31.7219 5.14412   2
   0  -5  10 15.8504 3.95873   3
   0  -5  10 36.5187 4.87673   1
   1  -5  10 3.77078 4.13470   3
   1  -5  10 -1.7618 3.19877   2
   1  -5  10 2.92519 3.21398   1
   2  -5  10 18.0547 4.43177   1
   2  -5  10 9.08438 4.34556   3
   2  -5  10 2.36147 3.87501   2
   3  -5  10 45.7919 9.46809   3
   3  -5  10 48.6041 12.2594   1
  -3  -4  10 41.4532 5.91986   2
  -3  -4  10 46.5857 9.73871   3
  -3  -4  10 70.3104 11.4452   1
  -2  -4  10 87.6201 4.67017   1
  -2  -4  10 53.5129 3.75885   3
  -2  -4  10 50.4154 3.67421   2
  -1  -4  10 90.6137 4.50244   3
  -1  -4  10 153.433 5.34321   1
  -1  -4  10 93.7776 4.76180   2
   0  -4  10 135.579 5.85462   1
   0  -4  10 81.0299 4.64512   3
   0  -4  10 68.6895 4.10068   2
   1  -4  10 147.991 6.24799   1
   1  -4  10 91.0687 5.17966   3
   1  -4  10 83.3776 4.88537   2
   2  -4  10 38.0416 3.64225   1
   2  -4  10 22.1773 3.15281   2
   2  -4  10 25.8141 3.66853   3
   3  -4  10 20.6062 2.75731   3
   3  -4  10 19.1892 3.26670   2
   3  -4  10 30.8137 3.18304   1
   4  -4  10 12.5102 3.15213   3
   4  -4  10 6.92377 3.42982   2
   4  -4  10 15.5324 3.38920   1
  -3  -3  10 2.59954 3.29485   1
  -3  -3  10 1.69015 3.32800   2
  -3  -3  10 -1.3433 3.55022   3
  -2  -3  10 1.99880 1.79940   3
  -2  -3  10 3.62956 1.79921   1
  -2  -3  10 -1.7894 1.87837   2
  -1  -3  10 116.720 4.63188   1
  -1  -3  10 76.8365 4.03924   3
  -1  -3  10 66.9626 3.96334   2
   0  -3  10 350.831 6.96897   1
   0  -3  10 213.763 5.72596   3
   0  -3  10 192.160 5.73181   2
   1  -3  10 114.670 4.77754   3
   1  -3  10 98.5102 4.61337   2
   1  -3  10 176.007 5.15642   1
   2  -3  10 33.6525 3.00019   2
   2  -3  10 31.0683 2.97684   3
   2  -3  10 58.0957 3.74806   1
   3  -3  10 0.27300 1.83522   1
   3  -3  10 3.52358 2.20527   2
   3  -3  10 -1.9199 2.02175   3
   4  -3  10 1.79457 1.89699   1
   4  -3  10 -0.1386 1.91928   3
   4  -3  10 -2.3165 2.03287   2
   5  -3  10 25.1208 3.38509   3
   5  -3  10 33.8363 3.80785   1
   5  -3  10 23.3022 3.29555   2
  -3  -2  10 92.9153 13.1186   3
  -3  -2  10 157.201 7.24906   1
  -3  -2  10 88.9517 6.44609   2
  -2  -2  10 189.367 5.34136   1
  -2  -2  10 123.581 4.90535   3
  -2  -2  10 97.2210 5.69375   2
  -1  -2  10 9.79587 2.09363   3
  -1  -2  10 11.8309 2.05464   1
  -1  -2  10 9.51260 2.13719   2
   0  -2  10 28.7519 2.69407   3
   0  -2  10 30.2552 2.86794   2
   0  -2  10 52.2409 3.16633   1
   1  -2  10 5.59596 1.70803   2
   1  -2  10 7.17659 1.89467   1
   1  -2  10 4.23368 1.68495   3
   2  -2  10 55.0507 3.15915   1
   2  -2  10 35.8299 2.94322   2
   2  -2  10 33.7190 2.79505   3
   3  -2  10 4.97032 1.96340   2
   3  -2  10 5.53929 1.84437   1
   3  -2  10 3.56681 1.87638   3
   4  -2  10 21.4146 2.61367   2
   4  -2  10 27.1138 2.88929   1
   4  -2  10 21.2163 2.64981   3
   5  -2  10 -0.5092 1.97130   3
   5  -2  10 1.15251 1.96734   2
   5  -2  10 -2.0572 1.84162   1
   6  -2  10 51.6262 5.78715   3
   6  -2  10 88.4138 7.48290   1
   6  -2  10 57.3001 6.31159   2
  -4  -1  10 60.1851 10.0740   2
  -3  -1  10 91.2159 5.03309   2
  -3  -1  10 177.049 10.1586   1
  -3  -1  10 109.243 8.77012   3
  -2  -1  10 45.5685 3.73969   2
  -2  -1  10 75.5508 3.78151   1
  -2  -1  10 37.1290 3.66037   3
  -1  -1  10 120.706 4.38361   1
  -1  -1  10 67.4767 3.37540   2
  -1  -1  10 74.8349 3.76608   3
   0  -1  10 73.0957 3.21010   2
   0  -1  10 137.863 4.51395   1
   0  -1  10 79.8034 3.78343   3
   1  -1  10 97.1136 3.57513   2
   1  -1  10 102.910 3.85553   3
   1  -1  10 171.711 4.23178   1
   2  -1  10 58.0977 2.88326   2
   2  -1  10 107.585 4.10767   1
   2  -1  10 62.7965 3.47201   3
   3  -1  10 12.0057 2.00336   1
   3  -1  10 8.27670 1.98403   3
   3  -1  10 5.62054 1.57931   2
   4  -1  10 0.30738 1.51906   1
   4  -1  10 0.64416 1.64757   3
   4  -1  10 1.05494 1.45610   2
   5  -1  10 161.053 5.67131   1
   5  -1  10 104.803 4.81839   3
   5  -1  10 90.6821 3.81555   2
   6  -1  10 96.9137 6.50599   3
   6  -1  10 96.4740 5.37519   2
   6  -1  10 166.771 7.95622   1
   7  -1  10 30.6864 9.12089   3
   7  -1  10 41.5530 10.1661   2
   7  -1  10 54.5389 10.3300   1
  -4   0  10 7.31549 7.37273   2
  -3   0  10 8.27150 3.72205   1
  -3   0  10 5.84426 2.33204   2
  -3   0  10 0.89532 2.38882   3
  -2   0  10 27.2536 3.16577   2
  -2   0  10 53.4767 3.79875   1
  -2   0  10 29.2424 3.06967   3
  -1   0  10 61.7495 3.16908   1
  -1   0  10 41.5551 3.36233   3
  -1   0  10 36.4815 2.90690   2
   0   0  10 333.913 5.52817   3
   0   0  10 529.826 6.94570   1
   0   0  10 304.014 5.35875   2
   1   0  10 39.2547 2.36773   3
   1   0  10 35.5502 2.32156   2
   1   0  10 64.6102 2.85856   1
   2   0  10 61.5893 3.13235   2
   2   0  10 109.273 3.30762   1
   2   0  10 65.0156 3.17043   3
   3   0  10 162.288 4.00464   1
   3   0  10 105.194 3.70197   3
   3   0  10 94.1290 3.61560   2
   4   0  10 1.85862 1.40765   2
   4   0  10 1.56785 1.40999   3
   4   0  10 1.24016 1.29811   1
   5   0  10 112.823 4.07490   3
   5   0  10 106.371 4.25190   2
   5   0  10 185.380 4.60727   1
   6   0  10 21.7925 2.74218   3
   6   0  10 21.9422 2.76276   2
   6   0  10 30.7499 3.36618   1
   7   0  10 12.4872 3.11477   3
   7   0  10 12.4825 3.15144   2
   7   0  10 25.1659 3.72347   1
  -3   1  10 300.943 11.2946   1
  -3   1  10 181.260 6.58738   3
  -3   0  10 324.972 22.3617  -3
  -3   1  10 324.972 22.3617   1
  -3   1  10 146.298 6.39843   2
  -2   1  10 88.6902 3.99910   2
  -2   1  10 92.0837 4.80387   3
  -2   1  10 167.955 5.76625   1
  -1   1  10 8.22357 2.13784   1
  -1   1  10 6.23135 1.74555   2
  -1   1  10 5.20045 1.64254   3
   0   1  10 26.0498 2.30835   2
   0   1  10 51.2981 2.58100   1
   0   1  10 31.4184 2.19385   3
   1   1  10 7.77115 1.49571   2
   1   1  10 10.1264 1.56192   1
   1   1  10 7.50655 1.50550   3
   2   1  10 115.217 3.63097   3
   2   1  10 176.038 4.08544   1
   2   1  10 93.0121 3.68811   2
   3   1  10 22.6917 2.02547   3
   3   1  10 42.2648 2.45325   1
   3   1  10 23.6512 2.06287   2
   4   1  10 32.5572 2.29084   2
   4   1  10 35.2591 2.36670   3
   4   1  10 56.0689 2.82972   1
   5   1  10 131.697 4.40825   3
   5   1  10 117.818 4.30713   2
   5   1  10 195.564 4.57528   1
   6   1  10 209.460 5.94912   1
   6   1  10 132.257 5.32689   3
   6   1  10 118.523 5.00598   2
   7   1  10 93.2340 5.23094   1
   7   1  10 69.0543 4.15025   2
   7   1  10 62.7357 4.12825   3
   8   1  10 6.66509 3.99922   3
   8   1  10 4.03379 3.82343   1
   8   1  10 5.53746 6.39757   2
  -3   2  10 64.0072 4.84581   2
  -3   2  10 66.1438 7.59226   3
  -3   2  10 113.774 7.62129   1
  -2   2  10 -0.0733 1.95142   3
  -2   2  10 -0.5407 1.60094   2
  -2   2  10 1.72379 1.93537   1
  -1   2  10 22.7365 2.30886   3
  -1   2  10 16.1862 2.14636   2
  -1   2  10 36.0799 2.73885   1
   0   2  10 122.830 4.40847   2
   0   2  10 225.219 5.15777   1
   0   2  10 148.129 4.38583   3
   1   2  10 107.604 3.55411   1
   1   2  10 57.5518 3.03925   2
   1   2  10 60.0556 2.79912   3
   2   2  10 1.78471 1.20558   3
   2   2  10 3.87934 1.35303   2
   2   2  10 2.15764 1.24911   1
   3   2  10 177.505 4.57250   1
   3   2  10 117.849 4.07711   3
   3   2  10 94.7822 3.74870   2
   4   2  10 2.28933 1.35738   2
   4   2  10 2.03244 1.28818   1
   4   2  10 2.31391 1.31542   3
   5   2  10 563.040 7.97797   1
   5   2  10 350.602 5.95102   3
   5   2  10 329.903 5.80825   2
   6   2  10 587.413 9.61308   1
   6   2  10 351.628 8.11836   2
   6   2  10 368.502 8.36478   3
   7   2  10 64.0863 3.97707   3
   7   2  10 95.6780 4.79191   1
   7   2  10 53.3982 3.81166   2
   8   2  10 0.53637 2.86904   2
   8   2  10 1.33831 2.42864   3
   8   2  10 6.46823 2.40098   1
  -3   3  10 10.1664 3.17804   3
  -3   3  10 8.98761 5.29328   1
  -3   3  10 4.71554 4.34246   2
  -2   3  10 23.7745 2.59076   3
  -2   3  10 33.1901 3.43202   1
  -2   3  10 21.2552 2.70502   2
  -1   3  10 2.68108 1.68468   2
  -1   3  10 0.31225 1.65705   1
  -1   3  10 1.12789 1.54493   3
   0   3  10 44.1748 2.90831   2
   0   3  10 54.0065 3.06675   3
   0   3  10 85.3171 3.74128   1
   1   3  10 0.52794 1.42650   1
   1   3  10 0.38272 1.35785   3
   1   3  10 0.31501 1.35788   2
   2   3  10 100.709 3.32291   2
   2   3  10 179.232 4.17443   1
   2   3  10 118.233 3.56578   3
   3   3  10 216.037 4.91290   1
   3   3  10 122.083 4.07710   2
   3   3  10 138.683 4.34711   3
   4   3  10 90.8555 3.45723   3
   4   3  10 79.8548 3.27339   2
   4   3  10 141.803 3.99993   1
   5   3  10 -0.7362 1.27461   3
   5   3  10 4.33606 1.44923   1
   5   3  10 1.10133 1.30563   2
   6   3  10 4.36963 2.05697   1
   6   3  10 7.20945 2.18242   2
   6   3  10 6.79797 2.23453   3
   7   3  10 1.35553 1.81181   2
   7   3  10 2.82636 2.02590   3
   7   3  10 4.43889 2.03799   1
   8   3  10 8.91834 2.34971   3
   8   3  10 4.99719 2.60612   2
   8   3  10 11.1761 2.70502   1
  -2   4  10 1.48195 2.40587   2
  -2   4  10 -0.2462 2.15130   3
  -2   4  10 2.20922 1.91489   1
  -1   4  10 -0.9589 1.69263   1
  -1   4  10 3.19633 2.03872   2
  -1   4  10 0.76038 1.71734   3
   0   4  10 1.31759 1.52303   3
   0   4  10 -0.5921 1.60538   1
   0   4  10 -0.0029 1.55492   2
   1   4  10 57.5397 3.17301   2
   1   4  10 72.4734 3.47238   3
   1   4  10 109.374 4.27035   1
   2   4  10 286.805 5.80387   1
   2   4  10 172.501 4.56258   2
   2   4  10 189.599 4.69332   3
   3   4  10 57.7089 3.13684   1
   3   4  10 39.6007 2.60247   3
   3   4  10 37.2194 2.40460   2
   4   4  10 43.6452 2.56541   1
   4   4  10 22.0493 1.97965   2
   4   4  10 21.7805 2.01379   3
   5   4  10 179.233 5.78041   2
   5   4  10 282.184 5.40809   1
   5   4  10 181.880 4.39972   3
   6   4  10 242.674 6.40598   3
   6   4  10 209.767 6.83114   2
   6   4  10 355.829 8.11586   1
   7   4  10 127.044 5.38480   3
   7   4  10 119.767 5.49815   2
   7   4  10 202.484 6.62912   1
   8   4  10 3.15430 2.14025   1
   8   4  10 4.48290 2.51320   3
   8   4  10 3.99157 2.75479   2
  -2   5  10 -3.3357 4.32614   1
  -2   5  10 0.28466 3.72285   3
  -2   5  10 -0.4791 4.68453   2
  -1   5  10 11.4771 2.83243   3
  -1   5  10 11.9822 2.80268   2
  -1   5  10 25.2864 2.70557   1
   0   5  10 5.90510 2.27198   2
   0   5  10 2.62515 1.84329   3
   0   5  10 8.34968 2.03213   1
   1   5  10 5.17242 1.74978   3
   1   5  10 9.59882 1.96638   1
   1   5  10 4.36464 1.71732   2
   2   5  10 0.26114 1.56845   1
   2   5  10 -1.5160 1.38314   3
   2   5  10 -1.2794 1.43833   2
   3   5  10 5.32306 1.70259   1
   3   5  10 0.83673 1.66462   2
   3   5  10 5.67819 1.77637   3
   4   5  10 4.81536 1.58608   2
   4   5  10 7.21349 1.67791   1
   4   5  10 5.59833 1.59911   3
   5   5  10 103.093 3.75999   3
   5   5  10 158.221 4.35492   1
   5   5  10 91.2841 3.66539   2
   6   5  10 198.625 7.10415   2
   6   5  10 209.503 5.98254   3
   6   5  10 337.942 7.46049   1
   7   5  10 42.6408 3.41123   3
   7   5  10 67.1316 3.98264   1
   8   5  10 3.38175 5.08024   2
   8   5  10 1.54517 2.76577   1
   8   5  10 0.27721 2.96469   3
   9   5  10 15.1258 9.12205   1
  -1   6  10 4.13011 3.34388   2
  -1   6  10 -2.5166 3.19967   3
  -1   6  10 5.35754 3.87656   1
   0   6  10 -0.5412 1.80995   1
   0   6  10 0.00580 2.02954   2
   0   6  10 0.58536 2.02989   3
   1   6  10 70.8077 3.80677   3
   1   6  10 108.218 4.58540   1
   1   6  10 66.1864 4.42314   2
   2   6  10 503.351 8.24477   1
   2   6  10 312.498 6.36871   3
   2   6  10 276.552 6.05367   2
   3   6  10 363.796 7.52709   1
   3   6  10 214.492 5.74613   3
   3   6  10 195.563 5.49953   2
   4   6  10 56.2350 3.54038   2
   4   6  10 92.8807 4.31798   1
   4   6  10 56.6696 3.46620   3
   5   6  10 2.01539 1.41356   2
   5   6  10 1.54754 1.49148   3
   5   6  10 3.27863 1.49980   1
   6   6  10 5.61379 1.85009   2
   6   6  10 12.3102 2.27679   1
   6   6  10 5.08683 2.02595   3
   7   6  10 26.4278 2.96003   3
   7   6  10 22.1583 3.29455   2
   7   6  10 47.9827 4.42532   1
   7   5  11 81.3875 13.2544  -2
   7   6  10 81.3875 13.2544   1
   8   6  10 18.6643 5.49732   2
   8   6  10 26.7044 4.36996   3
   8   5  11 56.5102 13.4913  -2
   8   6  10 56.5102 13.4913   1
   0   7  10 20.5482 4.61486   3
   0   7  10 46.0119 6.08041   1
   0   7  10 26.5254 4.68546   2
   1   7  10 1.64655 2.08332   3
   1   7  10 -1.5534 2.18334   2
   1   7  10 3.37886 2.32595   1
   2   7  10 186.964 5.87951   3
   2   7  10 286.668 6.59154   1
   2   7  10 173.335 6.03730   2
   3   7  10 151.539 5.48645   3
   3   7  10 157.755 5.56616   2
   3   7  10 250.722 6.62801   1
   4   7  10 19.0438 2.47559   3
   4   7  10 37.9819 3.14609   1
   4   7  10 18.0737 2.43847   2
   5   7  10 73.2405 4.04118   1
   5   7  10 47.6699 3.31385   3
   5   7  10 40.7929 3.88696   2
   6   7  10 104.575 4.43942   2
   6   7  10 175.629 6.00854   1
   6   7  10 111.221 5.02708   3
   7   7  10 125.786 6.10765   1
   7   7  10 81.2386 4.48368   3
   7   7  10 77.7239 4.72134   2
   8   7  10 1.46306 3.88613   2
   8   7  10 -4.8772 3.55011   1
   8   7  10 2.64240 7.13600   3
   1   8  10 20.7301 7.55342   2
   1   8  10 19.0652 9.58129   1
   1   8  10 15.6426 8.25608   3
   2   8  10 45.8131 4.46139   1
   2   8  10 27.5233 3.44361   2
   2   8  10 25.0910 3.23591   3
   3   8  10 30.6505 3.24974   3
   3   8  10 30.0477 2.88351   2
   3   8  10 49.8780 3.75347   1
   4   8  10 24.7607 2.83143   1
   4   8  10 12.3004 2.37691   2
   4   8  10 14.2578 2.42780   3
   5   8  10 51.1986 3.91740   2
   5   8  10 69.3815 4.05483   1
   5   8  10 44.8766 3.29245   3
   6   8  10 170.001 7.52447   1
   6   8  10 107.757 6.22976   3
   6   8  10 102.356 5.99333   2
   7   8  10 1.89375 2.40165   1
   7   8  10 1.86773 2.40252   3
   7   8  10 5.20842 2.95750   2
   3   9  10 274.245 15.7257   1
   3   9  10 166.084 8.88745   3
   4   9  10 12.7621 2.87536   3
   4   9  10 17.0472 3.93410   1
   5   9  10 7.63899 2.40198   1
   5   9  10 -0.6474 2.38211   3
   6   9  10 3.19642 2.79061   3
   6   9  10 -4.4235 2.72497   1
   7   9  10 107.442 16.3069   1
  -1  -4  11 -0.8102 3.88590   2
  -1  -4  11 12.2140 5.52617   1
  -1  -4  11 2.16556 4.37826   3
   0  -4  11 84.4923 6.97686   1
   0  -4  11 44.8237 5.33172   2
   0  -4  11 56.6566 5.78949   3
   1  -4  11 3.24373 4.22150   3
   1  -4  11 3.89683 3.27724   2
   1  -4  11 12.7494 4.60846   1
   2  -4  11 3.98542 4.35742   2
   2  -4  11 2.79091 4.31490   3
   2  -4  11 13.0175 5.07788   1
   3  -4  11 1.16700 4.59197   2
  -2  -3  11 26.2606 5.38623   3
  -2  -3  11 47.6430 6.44169   1
  -2  -3  11 22.9595 7.54763   2
  -1  -3  11 94.2196 4.76359   3
  -1  -3  11 150.418 5.61135   1
  -1  -3  11 79.5007 4.57147   2
   0  -3  11 78.7441 4.34319   3
   0  -3  11 80.5833 4.52225   2
   0  -3  11 142.056 5.17373   1
   1  -3  11 16.5298 2.88421   3
   1  -3  11 13.2416 3.20061   2
   1  -3  11 28.7930 3.52989   1
   2  -3  11 7.67276 2.24617   2
   2  -3  11 8.15272 2.77191   1
   2  -3  11 6.15235 2.89146   3
   3  -3  11 114.997 6.69720   3
   3  -3  11 103.768 6.36825   2
   3  -3  11 188.785 8.60370   1
   4  -3  11 109.875 7.96463   2
   4  -3  11 96.1665 7.17010   3
   4  -3  11 166.488 8.61406   1
  -3  -2  11 0.14039 5.31354   2
  -2  -2  11 2.37857 3.56116   2
  -2  -2  11 8.03399 2.52432   1
  -2  -2  11 -1.0365 4.19789   3
  -1  -2  11 2.94155 1.94072   2
  -1  -2  11 -2.4138 1.73939   1
  -1  -2  11 0.06303 1.89008   3
   0  -2  11 6.59810 2.14188   1
   0  -2  11 4.89154 2.09380   2
   0  -2  11 5.34593 2.06690   3
   1  -2  11 12.4685 2.32460   2
   1  -2  11 27.8998 2.65187   1
   1  -2  11 10.7617 2.33882   3
   2  -2  11 63.9679 3.92896   2
   2  -2  11 61.4940 3.71498   3
   2  -2  11 121.098 5.27713   1
   3  -2  11 233.799 6.66244   1
   3  -2  11 130.629 5.44004   2
   3  -2  11 134.425 5.27025   3
   4  -2  11 168.922 6.45400   1
   4  -2  11 94.5405 4.69384   2
   4  -2  11 106.660 5.58686   3
   5  -2  11 7.27292 2.94964   2
   5  -2  11 6.59372 2.55317   1
   5  -2  11 4.63118 2.63683   3
  -3  -1  11 2.42706 4.83673   2
  -2  -1  11 11.2114 4.99890   3
  -2  -2  11 29.6559 10.9418  -3
  -2  -1  11 29.6559 10.9418   1
  -2  -1  11 9.05663 3.08017   2
  -2  -1  11 21.5610 5.65533   1
  -1  -1  11 162.911 5.25540   1
  -1  -1  11 87.4995 4.92289   2
  -1  -1  11 107.389 5.22411   3
   0  -1  11 276.630 6.40448   3
   0  -1  11 444.625 7.89048   1
   0  -1  11 262.482 5.76478   2
   1  -1  11 68.5534 3.58624   2
   1  -1  11 76.9050 3.69105   3
   1  -1  11 127.074 4.76328   1
   2  -1  11 0.89397 1.85829   3
   2  -1  11 2.67160 1.69585   1
   2  -1  11 1.15871 1.53301   2
   3  -1  11 0.78453 1.81484   3
   3  -1  11 1.66213 1.76140   1
   3  -1  11 2.17426 1.64420   2
   4  -1  11 3.25532 2.03517   2
   4  -1  11 -3.5910 1.85266   1
   4  -1  11 -0.0347 1.77903   3
   5  -1  11 -2.1637 1.95465   2
   5  -1  11 3.72008 2.19325   3
   5  -1  11 0.15751 1.77136   1
   6  -1  11 4.13257 3.54154   1
   6  -1  11 -4.2267 4.11605   3
   6  -1  11 0.07615 4.25890   2
  -3   0  11 9.72727 4.36952   2
  -2   0  11 5.98214 2.42982   2
  -2  -1  11 27.5549 10.4543  -3
  -2   0  11 27.5549 10.4543   1
  -2   0  11 6.60303 5.49507   1
  -1   0  11 30.8734 4.97220   3
  -1   0  11 40.3031 3.63463   2
  -1   0  11 60.5635 4.07327   1
   0   0  11 117.695 4.86803   2
   0   0  11 217.467 5.56467   1
   0   0  11 128.888 4.96128   3
   1   0  11 152.582 4.55636   2
   1   0  11 268.490 5.51993   1
   1   0  11 166.473 4.40032   3
   2   0  11 42.2711 2.91581   2
   2   0  11 45.5077 2.99998   3
   2   0  11 80.5538 3.83214   1
   3   0  11 107.308 3.91372   3
   3   0  11 92.8357 3.78613   2
   3   0  11 162.993 4.99729   1
   4   0  11 138.470 4.61371   2
   4   0  11 246.726 6.08231   1
   4   0  11 159.840 4.70482   3
   5   0  11 7.93264 2.07860   2
   5   0  11 18.4536 2.51090   1
   5   0  11 9.93411 2.14619   3
   6   0  11 13.0640 3.47527   3
   6   0  11 9.29643 2.87838   2
   6   0  11 15.2208 3.44744   1
   7   0  11 2.15417 5.00648   2
   7   0  11 9.56932 7.90804   1
  -3   1  11 16.8709 7.56278   2
  -2   0  11 19.0990 6.73268  -3
  -2   1  11 19.0990 6.73268   1
  -2   1  11 4.61262 2.48197   2
  -2   1  11 2.89068 4.92925   3
  -1   1  11 -0.5774 1.66006   2
  -1   1  11 -1.8919 2.48581   3
  -1   1  11 3.46349 3.78150   1
  -1   0  11 36.6037 5.53420  -3
  -1   1  11 36.6037 5.53420   1
   0   1  11 56.5681 3.62326   1
   0   1  11 36.7882 3.69497   3
   0   1  11 25.3550 2.73521   2
   0   0  11 205.638 13.9498  -3
   0   1  11 205.638 13.9498   1
   1   1  11 0.09011 1.48346   2
   1   1  11 2.45901 1.43482   1
   1   1  11 2.22557 1.50350   3
   2   1  11 28.7150 2.49259   3
   2   1  11 25.1188 2.40446   2
   2   1  11 48.4159 2.83754   1
   3   1  11 142.978 4.23042   1
   3   1  11 79.9505 3.52094   2
   3   1  11 86.6117 3.59192   3
   4   1  11 90.7194 3.77046   3
   4   1  11 151.725 4.39101   1
   4   1  11 87.1806 3.74047   2
   5   1  11 1.95290 1.69879   2
   5   1  11 1.53775 1.58959   3
   5   1  11 0.63081 1.56594   1
   6   1  11 48.2036 3.74258   1
   6   1  11 26.9786 3.27446   3
   6   1  11 21.7262 3.07738   2
   7   1  11 0.68224 2.31914   1
   7   1  11 0.73702 2.55634   3
   7   1  11 1.42178 2.55141   2
  -2   2  11 24.1754 3.03042   2
  -2   2  11 30.9844 5.79960   3
  -2   1  11 38.8470 7.25614  -3
  -2   2  11 38.8470 7.25614   1
  -1   2  11 57.6451 5.19393   3
  -1   1  11 113.489 10.9130  -3
  -1   2  11 113.489 10.9130   1
  -1   2  11 54.7873 3.41702   2
  -1   2  11 108.020 6.66879   1
   0   2  11 497.306 9.18537   1
   0   2  11 305.201 6.29334   3
   0   2  11 282.963 6.18596   2
   0   1  11 515.200 26.3100  -3
   0   2  11 515.200 26.3100   1
   1   2  11 183.544 5.31147   3
   1   2  11 168.391 4.97262   2
   1   2  11 285.763 5.37792   1
   2   2  11 11.1491 1.88276   1
   2   2  11 6.11934 1.79799   3
   2   2  11 8.88183 1.83990   2
   3   2  11 11.6786 2.03285   3
   3   2  11 19.5345 2.01204   1
   3   2  11 12.5330 1.97855   2
   4   2  11 41.6749 2.67117   1
   4   2  11 28.6956 2.34666   3
   4   2  11 24.3994 2.44875   2
   5   2  11 85.2130 3.73858   2
   5   2  11 159.557 4.56779   1
   5   2  11 94.9542 3.80570   3
   6   2  11 51.2228 4.08142   2
   6   2  11 47.1807 3.99128   3
   6   2  11 75.7973 4.47437   1
   7   2  11 2.43386 2.72039   3
   7   2  11 1.89560 2.55920   2
   7   2  11 8.27552 2.53043   1
   8   2  11 7.09348 7.23587   1
  -2   3  11 5.12942 2.51541   2
  -2   2  11 31.0702 12.5010  -3
  -2   3  11 31.0702 12.5010   1
  -2   3  11 7.72060 4.37968   3
  -2   3  11 5.93105 6.88444   1
  -1   3  11 72.3877 3.95833   2
  -1   2  11 205.149 12.8267  -3
  -1   3  11 205.149 12.8267   1
  -1   3  11 83.3343 4.50221   3
  -1   3  11 132.862 7.88516   1
   0   3  11 112.790 4.59895   3
   0   3  11 98.8772 4.35498   2
   0   3  11 189.668 5.43750   1
   1   3  11 134.111 5.14755   1
   1   3  11 80.1640 3.81413   3
   1   3  11 72.9020 3.68716   2
   2   3  11 3.67667 1.70793   3
   2   3  11 2.81769 1.61615   1
   2   3  11 4.89857 1.91180   2
   3   3  11 11.8170 2.02124   3
   3   3  11 9.43696 1.92886   2
   3   3  11 20.2285 2.19510   1
   4   3  11 68.0174 3.29284   3
   4   3  11 118.269 4.14609   1
   4   3  11 70.6638 3.36128   2
   5   3  11 0.92450 1.50532   3
   5   3  11 1.99950 1.49987   2
   5   3  11 2.93510 1.56707   1
   6   3  11 9.36791 2.46398   2
   6   3  11 15.8226 2.81027   3
   6   3  11 18.8136 2.79083   1
   7   3  11 7.36089 2.59158   3
   7   3  11 7.40213 2.66955   2
   7   3  11 8.53084 2.44686   1
  -2   4  11 21.8669 5.30320   3
  -1   4  11 -0.6003 1.95752   2
  -1   4  11 -0.3654 2.03152   1
  -1   4  11 4.90131 1.93174   3
  -1   3  11 64.0173 14.9207  -3
  -1   4  11 64.0173 14.9207   1
   0   4  11 51.6065 3.43203   2
   0   4  11 107.560 4.61809   1
   0   4  11 73.3067 3.86403   3
   1   4  11 33.2959 2.86064   2
   1   4  11 37.2596 2.85494   3
   1   4  11 72.1789 3.81135   1
   2   4  11 49.7416 3.75682   1
   2   4  11 24.7843 2.50657   3
   2   4  11 24.3998 2.46599   2
   3   4  11 130.579 4.56463   1
   3   4  11 72.2429 4.35388   2
   3   4  11 73.4916 4.31233   3
   4   4  11 5.68556 1.54233   2
   4   4  11 3.56652 1.57089   1
   4   4  11 2.16128 1.51902   3
   5   4  11 156.165 4.67758   2
   5   4  11 270.441 5.58050   1
   5   4  11 171.759 4.56301   3
   6   4  11 259.783 6.72724   2
   6   4  11 261.716 6.83358   3
   6   4  11 434.011 8.53881   1
   7   4  11 3.83971 2.33716   2
   7   4  11 5.70194 2.44164   1
   7   4  11 0.84164 2.38028   3
   8   4  11 25.8735 7.36866   2
   8   4  11 40.6927 9.72180   3
  -1   5  11 70.8149 6.31737   3
  -1   5  11 111.069 8.02523   1
  -1   5  11 58.3542 11.8534   2
   0   5  11 151.773 5.39238   3
   0   5  11 137.466 5.84748   2
   0   5  11 245.298 6.36825   1
   1   5  11 90.7074 4.19435   3
   1   5  11 91.4593 4.29747   2
   1   5  11 152.698 5.30898   1
   2   5  11 4.67524 1.88126   2
   2   5  11 3.09901 1.77182   3
   2   5  11 9.41246 2.13699   1
   3   5  11 6.35384 2.07015   3
   3   5  11 5.43299 2.07826   2
   3   5  11 12.4187 2.53725   1
   4   5  11 46.1376 3.02604   1
   4   5  11 28.4146 3.12912   2
   4   5  11 24.5512 2.54998   3
   5   5  11 52.1095 3.02051   3
   5   5  11 89.5538 3.77120   1
   5   5  11 50.4014 2.98042   2
   6   5  11 64.6961 4.09524   3
   6   5  11 65.4706 4.01194   2
   6   5  11 102.154 4.91170   1
   7   5  11 45.6651 4.14585   3
   7   5  11 42.8471 5.22765   2
   7   5  11 82.0920 5.11914   1
   8   5  11 74.4178 12.7404   1
   8   5  11 37.6125 8.53594   3
   0   6  11 2.70920 3.72815   2
   0   6  11 5.74255 3.22512   3
   0   6  11 10.7789 2.72986   1
   1   6  11 2.55200 1.99084   2
   1   6  11 6.43148 2.08259   3
   1   6  11 1.36036 1.97424   1
   2   6  11 2.81697 1.89232   3
   2   6  11 2.29991 1.82202   2
   2   6  11 2.05240 1.94523   1
   3   6  11 4.44567 1.94827   3
   3   6  11 0.94908 1.98574   2
   3   6  11 1.71779 2.02077   1
   4   6  11 31.7573 3.19539   3
   4   6  11 42.5107 3.64298   1
   4   6  11 24.8666 2.76807   2
   5   6  11 14.2045 2.07325   3
   5   6  11 27.1411 2.42969   1
   5   6  11 15.1253 2.35522   2
   6   6  11 143.644 5.76108   1
   6   6  11 80.4012 4.55388   3
   6   6  11 81.2685 4.51110   2
   7   6  11 1.46759 2.49306   2
   7   6  11 4.35456 2.47672   1
   7   6  11 -1.6736 2.45628   3
   8   6  11 84.5821 15.0948   2
   8   6  11 80.2279 11.7308   3
   1   7  11 42.0996 7.19010   1
   1   7  11 17.8115 5.30613   3
   1   7  11 15.4123 6.51399   2
   2   7  11 -1.4782 1.91106   2
   2   7  11 2.85318 2.17773   1
   2   7  11 0.95296 2.14845   3
   3   7  11 5.53240 2.33459   2
   3   7  11 3.27898 2.19721   3
   3   7  11 8.73235 2.45533   1
   4   7  11 23.4768 2.91144   2
   4   7  11 45.3944 3.80222   1
   4   7  11 26.6209 2.90614   3
   5   7  11 77.5092 4.23626   3
   5   7  11 129.721 5.54040   1
   5   7  11 78.0390 5.34843   2
   6   7  11 150.711 6.33151   3
   6   7  11 160.317 6.32128   2
   6   7  11 249.540 7.20081   1
   7   7  11 41.2170 5.03709   2
   7   7  11 60.9786 6.28494   1
   7   7  11 45.2061 5.51428   3
   2   8  11 25.3944 8.06647   2
   3   8  11 5.42527 2.82615   3
   3   8  11 6.11772 2.95661   2
   3   8  11 3.90223 2.79111   1
   4   8  11 87.1081 5.58083   1
   4   8  11 58.3442 4.05917   3
   4   8  11 53.6119 4.42023   2
   5   8  11 75.2605 4.33005   3
   5   8  11 68.7872 5.15535   2
   5   8  11 122.062 5.81496   1
   6   8  11 35.0814 4.82266   3
   6   8  11 67.6902 6.79902   1
   6   8  11 47.9925 5.42815   2
   7   8  11 28.0188 9.58501   3
   7   8  11 42.4986 10.5996   1
   4   9  11 10.4753 6.92968   2
   5   9  11 -1.6777 6.29476   1
   0  -3  12 41.5126 8.34184   2
   1  -3  12 64.6530 14.9053   3
   1  -3  12 32.3563 7.92213   2
   3  -3  12 56.4915 9.34274   2
   0  -2  12 -1.3368 3.07513   1
   0  -2  12 1.63442 2.86362   2
   0  -2  12 5.61630 5.35062   3
   1  -2  12 -0.8949 2.55371   2
   1  -2  12 1.01400 2.79730   1
   1  -2  12 3.21124 3.89593   3
   2  -2  12 78.0753 8.28724   1
   2  -2  12 42.1868 3.95663   2
   2  -2  12 44.1653 5.30275   3
   3  -2  12 38.8311 4.75804   3
   3  -2  12 35.0491 4.03362   2
   3  -2  12 73.8340 8.17808   1
   4  -2  12 18.3006 4.95604   2
   4  -2  12 16.2363 4.67566   3
   4  -2  12 21.8173 4.88217   1
  -1  -1  12 28.2890 8.03281   2
   0  -1  12 -1.1266 2.59050   2
   0  -1  12 -1.4534 4.60026   1
   0  -2  12 3.15109 9.30933  -3
   0  -1  12 3.15109 9.30933   1
   1  -1  12 26.1486 2.88146   2
   1  -1  12 31.5989 4.32013   3
   1  -1  12 52.7857 5.36613   1
   1  -2  12 4.12086 12.9376  -3
   1  -1  12 4.12086 12.9376   1
   2  -1  12 28.2697 3.01120   2
   2  -1  12 19.8658 3.17934   3
   2  -1  12 33.1768 3.20893   1
   3  -1  12 1.59898 2.10567   2
   3  -1  12 3.42167 1.94087   1
   3  -1  12 0.07089 1.93104   3
   4  -1  12 44.9046 4.36268   1
   4  -1  12 19.3893 3.08607   2
   4  -1  12 19.9696 3.11888   3
   5  -1  12 20.8728 4.55163   2
   5  -1  12 28.2066 5.32862   3
   5  -1  12 41.3811 5.60272   1
  -2   0  12 -2.3052 5.51277   2
  -1  -1  12 60.1161 13.4677  -3
  -1   0  12 60.1161 13.4677   1
  -1   0  12 17.7548 4.09716   2
   0   0  12 3.85221 2.14769   2
   0  -1  12 2.44014 6.19131  -3
   0   0  12 2.44014 6.19131   1
   1   0  12 5.25836 1.86651   2
   1   0  12 3.94589 5.26126   3
   1   0  12 9.03855 3.30897   1
   1  -1  12 30.4658 9.39079  -3
   1   0  12 30.4658 9.39079   1
   2   0  12 102.174 4.39094   2
   2   0  12 179.284 6.53431   1
   2  -1  12 211.564 12.7267  -3
   2   0  12 211.564 12.7267   1
   2   0  12 117.485 6.02025   3
   3   0  12 103.244 4.81166   3
   3   0  12 98.4386 4.13339   2
   3   0  12 182.695 5.54789   1
   4   0  12 29.7902 2.64254   2
   4   0  12 49.3923 3.44614   1
   4   0  12 29.7523 3.07299   3
   5   0  12 -0.2058 2.08288   2
   5   0  12 -0.1451 2.13088   3
   5   0  12 0.43951 2.52625   1
   6   0  12 14.1423 6.11463   2
  -1   0  12 42.7599 12.6828  -3
  -1   1  12 42.7599 12.6828   1
  -1   1  12 15.5977 4.09913   2
   0   0  12 20.2282 5.85080  -3
   0   1  12 20.2282 5.85080   1
   0   1  12 8.19970 2.38928   2
   1   0  12 8.83789 5.14733  -3
   1   1  12 8.83789 5.14733   1
   1   1  12 3.90048 3.41290   3
   1   1  12 10.9814 3.54863   1
   1   1  12 7.06160 2.33814   2
   2   1  12 195.118 6.15010   3
   2   1  12 192.244 5.44237   2
   2   1  12 318.724 7.62067   1
   2   0  12 448.634 16.1373  -3
   2   1  12 448.634 16.1373   1
   3   1  12 273.634 6.10653   1
   3   1  12 150.040 4.88761   2
   3   1  12 177.364 4.99717   3
   4   1  12 18.9317 2.30331   2
   4   1  12 37.1996 2.98238   1
   4   1  12 18.9089 2.33441   3
   5   1  12 33.2311 3.00495   3
   5   1  12 32.8405 2.95625   2
   5   1  12 46.5620 3.52838   1
   6   1  12 70.1503 5.46898   3
   6   1  12 106.980 7.36761   1
   6   1  12 64.3472 6.11786   2
  -1   2  12 21.6125 3.57255   2
  -1   1  12 60.4881 9.99316  -3
  -1   2  12 60.4881 9.99316   1
   0   2  12 14.5026 2.44528   2
   0   1  12 36.5189 5.56022  -3
   0   2  12 36.5189 5.56022   1
   1   2  12 21.2714 2.77359   2
   1   2  12 22.6429 4.31607   3
   1   2  12 38.5074 4.97663   1
   1   1  12 52.9320 7.31690  -3
   1   2  12 52.9320 7.31690   1
   2   2  12 24.9158 2.75815   3
   2   2  12 34.3267 3.30572   1
   2   2  12 12.5478 2.73828   2
   2   1  12 237.074 12.9730  -3
   2   2  12 237.074 12.9730   1
   3   2  12 3.17625 1.77305   3
   3   2  12 1.02409 1.83821   2
   3   2  12 2.15345 1.62698   1
   4   2  12 -0.9650 1.55157   1
   4   2  12 0.39357 1.67419   2
   4   2  12 -1.5059 1.54292   3
   5   2  12 20.2564 2.39121   3
   5   2  12 37.4959 2.74694   1
   5   2  12 18.7484 2.30095   2
   6   2  12 110.026 6.55152   3
   6   2  12 182.969 7.29257   1
   6   2  12 94.4696 7.09153   2
   7   2  12 47.9616 8.42694   1
   7   2  12 26.0018 8.70722   3
  -1   3  12 13.7101 4.46257   2
  -1   2  12 61.0609 17.2100  -3
  -1   3  12 61.0609 17.2100   1
   0   3  12 1.17120 2.14865   2
   0   2  12 21.6991 5.79269  -3
   0   3  12 21.6991 5.79269   1
   0   3  12 1.43369 3.24980   3
   1   3  12 8.99363 2.26296   3
   1   2  12 37.8316 6.44140  -3
   1   3  12 37.8316 6.44140   1
   1   3  12 29.1961 4.89116   1
   1   3  12 14.3311 2.40846   2
   2   3  12 205.461 6.68771   2
   2   3  12 223.031 6.75589   3
   2   3  12 363.173 8.91168   1
   2   2  12 417.604 25.7679  -3
   2   3  12 417.604 25.7679   1
   3   3  12 266.963 6.25937   3
   3   3  12 428.964 7.53974   1
   3   3  12 222.815 6.93662   2
   4   3  12 66.6198 3.51620   2
   4   3  12 115.067 4.29105   1
   4   3  12 71.4029 3.61377   3
   5   3  12 6.56225 1.83247   3
   5   3  12 9.87601 1.98222   1
   5   3  12 5.04851 1.78127   2
   6   3  12 0.05080 2.24910   2
   6   3  12 9.32308 2.44790   1
   6   3  12 3.99943 2.35822   3
   7   3  12 1.15174 3.62168   2
   7   3  12 4.85008 4.46834   3
   7   3  12 0.45816 4.04594   1
  -1   4  12 11.5800 6.38671   3
   0   4  12 4.08920 2.22491   2
   0   4  12 6.00269 6.97674   1
   0   3  12 8.97642 7.39342  -3
   0   4  12 8.97642 7.39342   1
   0   4  12 9.24087 2.70988   3
   1   4  12 4.77592 1.87694   3
   1   4  12 5.17958 2.11161   1
   1   4  12 2.24822 1.92270   2
   2   4  12 50.1104 3.71852   2
   2   4  12 91.9789 5.02333   1
   2   4  12 54.9957 4.09328   3
   3   4  12 164.400 6.37920   2
   3   4  12 161.609 6.43524   3
   3   4  12 289.141 7.58546   1
   4   4  12 29.8453 2.81853   2
   4   4  12 29.5137 2.62562   3
   4   4  12 44.7471 2.98303   1
   5   4  12 5.26018 1.82749   2
   5   4  12 5.91539 1.76922   1
   5   4  12 2.10395 1.67773   3
   6   4  12 31.3299 3.23808   3
   6   4  12 46.2644 3.55591   1
   6   4  12 23.8034 3.12937   2
   7   4  12 38.1795 5.77717   2
   7   4  12 68.4079 6.98719   1
   7   4  12 37.9637 5.65416   3
   0   5  12 109.857 9.89878   1
   0   5  12 67.2577 18.1102   3
   1   5  12 25.4695 3.26092   1
   1   5  12 19.2733 2.89983   2
   1   5  12 20.6575 2.90594   3
   2   5  12 19.3213 2.74427   3
   2   5  12 17.8353 2.76730   2
   2   5  12 33.3420 3.47399   1
   3   5  12 5.30365 2.44405   3
   3   5  12 10.6154 2.65905   1
   3   5  12 8.39386 2.26830   2
   4   5  12 15.5857 2.73267   3
   4   5  12 13.2319 2.44244   2
   4   5  12 22.3903 2.77961   1
   5   5  12 2.99837 1.77036   2
   5   5  12 1.61860 1.74527   3
   5   5  12 3.43750 1.72092   1
   6   5  12 25.8965 3.34013   2
   6   5  12 34.6479 3.67582   3
   6   5  12 48.0086 4.18538   1
   7   5  12 -5.5037 3.81713   2
   7   5  12 0.72822 4.38879   3
   7   5  12 -0.4718 8.67732   1
   2   6  12 87.8077 5.37055   2
   2   6  12 171.143 7.40747   1
   2   6  12 94.5300 5.48785   3
   3   6  12 193.159 6.71680   2
   3   6  12 367.734 8.94368   1
   3   6  12 227.676 6.69105   3
   4   6  12 47.7218 4.09261   2
   4   6  12 63.5554 4.48442   1
   4   6  12 40.8586 3.69212   3
   5   6  12 5.70115 1.97472   3
   5   6  12 2.05263 2.12265   2
   5   6  12 14.6213 2.60909   1
   6   6  12 19.1327 3.05923   3
   6   6  12 29.4661 3.65308   1
   6   6  12 19.0962 3.04969   2
   7   6  12 10.3179 5.30701   2
   7   6  12 5.34243 8.10979   3
   7   6  12 43.7690 13.0300   1
   3   7  12 112.112 14.4555   1
   3   7  12 76.4130 7.64262   3
   3   7  12 78.3275 6.51751   2
   4   7  12 1.02419 2.14141   2
   4   7  12 -4.1441 2.99458   1
   4   7  12 2.00185 3.01724   3
   5   7  12 8.50385 2.58787   3
   5   7  12 20.6566 3.29587   1
   5   7  12 10.1503 3.76068   2
   6   7  12 1.05277 5.05508   2
   7   7  12 21.5047 12.7063   2
   5   8  12 7.79630 7.25530   3
   1  -1  13 101.637 15.1005   2
   2  -1  13 8.78500 3.96596   2
   3  -1  13 15.9886 4.84165   2
   0   0  13 43.2723 11.8304   2
   1   0  13 35.2945 4.93801   2
   1  -1  13 247.278 20.5337  -3
   1   0  13 247.278 20.5337   1
   2   0  13 14.8819 2.68525   2
   3   0  13 2.40899 2.64578   2
   3   0  13 -2.7250 3.12960   1
   3  -1  13 27.7858 10.9931  -3
   3   0  13 27.7858 10.9931   1
   4   0  13 6.10502 3.37750   2
   4   0  13 8.93649 3.73205   1
   4   0  13 11.7603 4.63330   3
   5   0  13 7.24134 8.33185   2
   0   1  13 2.94488 6.23371   2
   1   1  13 60.0226 5.83715   2
   2   0  13 57.7355 9.09337  -3
   2   1  13 57.7355 9.09337   1
   2   1  13 10.0478 3.66814   2
   3   0  13 10.7618 6.61045  -3
   3   1  13 10.7618 6.61045   1
   3   1  13 5.06073 2.02170   2
   4   1  13 15.8886 4.88836   1
   4   1  13 7.74967 2.21392   2
   4   1  13 5.29361 3.52480   3
   5   1  13 18.1548 4.81125   1
   5   1  13 7.42806 3.60095   2
   5   1  13 13.8288 4.97107   3
   0   2  13 25.9155 7.01736   2
   1   2  13 47.8913 5.47461   2
   2   1  13 26.7814 7.41152  -3
   2   2  13 26.7814 7.41152   1
   2   2  13 1.90749 3.24441   2
   3   1  13 22.4024 5.69363  -3
   3   2  13 22.4024 5.69363   1
   3   2  13 9.39372 2.57656   2
   4   2  13 12.4988 2.38491   2
   4   2  13 31.9135 3.64237   1
   4   1  13 43.9647 17.2490  -3
   4   2  13 43.9647 17.2490   1
   5   2  13 97.2635 6.07994   1
   5   2  13 57.5121 4.11455   2
   5   2  13 68.5101 5.27120   3
   6   2  13 44.0849 10.1094   3
   6   2  13 65.1654 9.47278   1
   0   3  13 41.2851 8.60504   3
   1   3  13 7.35215 3.73587   2
   1   2  13 65.3697 9.61454  -3
   1   3  13 65.3697 9.61454   1
   2   3  13 57.9900 5.86390   2
   2   2  13 94.8109 8.49405  -3
   2   3  13 94.8109 8.49405   1
   3   3  13 52.3462 6.76675   3
   3   3  13 53.2734 4.57228   2
   3   2  13 100.426 6.56281  -3
   3   3  13 100.426 6.56281   1
   4   3  13 3.77672 1.98275   2
   4   2  13 14.8437 5.15826  -3
   4   3  13 14.8437 5.15826   1
   4   3  13 4.15678 2.44499   3
   5   3  13 12.6452 2.47282   2
   5   3  13 13.3104 2.89483   3
   5   3  13 18.6598 3.34209   1
   5   2  13 100.850 10.8824  -3
   5   3  13 100.850 10.8824   1
   6   3  13 17.5337 7.15314   3
   6   3  13 24.0290 10.7217   2
   6   3  13 21.1315 6.89355   1
   1   3  13 38.8362 11.6181  -3
   1   4  13 38.8362 11.6181   1
   2   3  13 74.6516 10.5562  -3
   2   4  13 74.6516 10.5562   1
   2   4  13 10.7049 3.63672   2
   3   4  13 5.62913 3.25015   2
   3   4  13 8.74199 5.90872   1
   3   3  13 76.1786 10.3669  -3
   3   4  13 76.1786 10.3669   1
   3   4  13 5.54827 3.96979   3
   4   4  13 51.4284 4.23160   2
   4   4  13 53.9060 4.29675   3
   4   3  13 120.328 9.62493  -3
   4   4  13 120.328 9.62493   1
   4   4  13 92.0047 6.07004   1
   5   4  13 93.9025 4.65005   2
   5   3  13 187.342 13.3727  -3
   5   4  13 187.342 13.3727   1
   5   4  13 93.5404 4.46870   3
   5   4  13 160.893 6.85560   1
   6   4  13 230.648 16.1952   1
   6   4  13 128.285 16.5883   3
   6   4  13 129.447 16.7433   2
   3   5  13 51.5560 5.63285   3
   3   5  13 62.3511 6.20272   2
   3   5  13 96.4819 8.49858   1
   4   5  13 3.99376 3.26780   3
   4   5  13 8.74759 3.03393   1
   4   5  13 8.80737 2.88544   2
   5   5  13 109.113 7.07991   3
   5   5  13 175.716 7.37553   1
   5   5  13 112.353 7.13788   2
   6   5  13 68.5719 12.7438   3
   6   5  13 102.214 16.8887   1
   6   5  13 59.1050 11.0733   2
   4   6  13 33.3467 8.83337   2
   4   6  13 72.0502 14.5018   3
   5   6  13 7.86393 8.40438   2
   5   6  13 -1.1498 5.22535   3
   5   6  13 9.41622 5.91499   1
   6   6  13 21.0882 9.85634   1
   4   2  14 1.36587 5.64007   2
   0   0   0    0.00    0.00   0
;
_shelx_hkl_checksum              1698
_olex2_submission_special_instructions 'No special instructions were received'
loop_
_space_group_symop_operation_xyz
'x, y, z'
'-x, -y, -z'
loop_
_atom_site_label
_atom_site_type_symbol
_atom_site_fract_x
_atom_site_fract_y
_atom_site_fract_z
_atom_site_U_iso_or_equiv
_atom_site_adp_type
_atom_site_occupancy
_atom_site_site_symmetry_order
_atom_site_calc_flag
_atom_site_refinement_flags_posn
_atom_site_refinement_flags_adp
_atom_site_refinement_flags_occupancy
_atom_site_disorder_assembly
_atom_site_disorder_group
Cl1 Cl 0.29109(6) 0.33384(5) 0.30295(4) 0.02261(10) Uani 1 1 d . . . . .
P1 P 0.51138(6) 0.29929(5) 0.67655(4) 0.01291(9) Uani 1 1 d . . . . .
Al1 Al 0.61070(7) 0.35854(6) 0.30509(5) 0.01369(10) Uani 1 1 d . . . . .
C1 C 0.6468(3) 0.1581(2) 0.82786(17) 0.0228(3) Uani 1 1 d . . . . .
H1A H 0.788728 0.182414 0.813264 0.034 Uiso 1 1 calc R U . . .
H1B H 0.683984 0.020500 0.823920 0.034 Uiso 1 1 calc R U . . .
H1C H 0.540432 0.195359 0.927834 0.034 Uiso 1 1 calc R U . . .
C2 C 0.2686(3) 0.2222(2) 0.71050(17) 0.0206(3) Uani 1 1 d . . . . .
H2A H 0.165320 0.249978 0.813114 0.031 Uiso 1 1 calc R U . . .
H2B H 0.325284 0.083170 0.703270 0.031 Uiso 1 1 calc R U . . .
H2C H 0.184323 0.291877 0.633441 0.031 Uiso 1 1 calc R U . . .
C3 C 0.7069(2) 0.22277(19) 0.49526(15) 0.0151(2) Uani 1 1 d . . . . .
H3A H 0.737594 0.083620 0.497631 0.018 Uiso 1 1 calc R U . . .
H3B H 0.854915 0.236005 0.486427 0.018 Uiso 1 1 calc R U . . .
C4 C 0.8495(2) 0.3015(2) 0.10907(14) 0.0150(2) Uani 1 1 d . . . . .
H4A H 0.886288 0.168359 0.091446 0.023 Uiso 1 1 calc R U . . .
H4B H 0.988829 0.317194 0.112896 0.023 Uiso 1 1 calc R U . . .
H4C H 0.792304 0.390440 0.025311 0.023 Uiso 1 1 calc R U . . .
loop_
_atom_site_aniso_label
_atom_site_aniso_U_11
_atom_site_aniso_U_22
_atom_site_aniso_U_33
_atom_site_aniso_U_23
_atom_site_aniso_U_13
_atom_site_aniso_U_12
Cl1 0.02090(17) 0.02466(19) 0.02752(19) -0.00207(13) -0.01002(14) -0.01088(14)
P1 0.01504(16) 0.01173(16) 0.01269(16) -0.00099(11) -0.00369(12) -0.00568(12)
Al1 0.0157(2) 0.01264(19) 0.01342(19) -0.00307(14) -0.00331(15) -0.00532(15)
C1 0.0301(8) 0.0217(7) 0.0185(7) 0.0025(5) -0.0120(6) -0.0090(6)
C2 0.0195(7) 0.0233(7) 0.0210(7) -0.0045(5) -0.0009(5) -0.0123(6)
C3 0.0134(6) 0.0148(6) 0.0162(6) -0.0029(5) -0.0029(5) -0.0042(5)
C4 0.0159(6) 0.0179(7) 0.0099(5) -0.0044(4) -0.0005(4) -0.0053(5)
loop_
_atom_type_symbol
_atom_type_description
_atom_type_scat_dispersion_real
_atom_type_scat_dispersion_imag
_atom_type_scat_source
C C 0.0033 0.0016 'International Tables Vol C Tables 4.2.6.8 and 6.1.1.4'
H H 0.0000 0.0000 'International Tables Vol C Tables 4.2.6.8 and 6.1.1.4'
Al Al 0.0645 0.0514 'International Tables Vol C Tables 4.2.6.8 and 6.1.1.4'
Cl Cl 0.1484 0.1585 'International Tables Vol C Tables 4.2.6.8 and 6.1.1.4'
P P 0.1023 0.0942 'International Tables Vol C Tables 4.2.6.8 and 6.1.1.4'
loop_
_geom_angle_atom_site_label_1
_geom_angle_atom_site_label_2
_geom_angle_atom_site_label_3
_geom_angle
_geom_angle_site_symmetry_1
_geom_angle_site_symmetry_3
_geom_angle_publ_flag
C1 P1 Al1 110.47(5) . 2_666 ?
C2 P1 Al1 112.12(5) . 2_666 ?
C2 P1 C1 103.75(7) . . ?
C3 P1 Al1 114.44(5) . 2_666 ?
C3 P1 C1 108.43(7) . . ?
C3 P1 C2 107.02(7) . . ?
Cl1 Al1 P1 101.36(2) . 2_666 ?
C3 Al1 Cl1 112.40(4) . . ?
C3 Al1 P1 106.12(4) . 2_666 ?
C4 Al1 Cl1 111.57(4) . . ?
C4 Al1 P1 107.64(4) . 2_666 ?
C4 Al1 C3 116.35(6) . . ?
P1 C1 H1A 109.5 . . ?
P1 C1 H1B 109.5 . . ?
P1 C1 H1C 109.5 . . ?
H1A C1 H1B 109.5 . . ?
H1A C1 H1C 109.5 . . ?
H1B C1 H1C 109.5 . . ?
P1 C2 H2A 109.5 . . ?
P1 C2 H2B 109.5 . . ?
P1 C2 H2C 109.5 . . ?
H2A C2 H2B 109.5 . . ?
H2A C2 H2C 109.5 . . ?
H2B C2 H2C 109.5 . . ?
P1 C3 Al1 117.90(7) . . ?
P1 C3 H3A 107.8 . . ?
P1 C3 H3B 107.8 . . ?
Al1 C3 H3A 107.8 . . ?
Al1 C3 H3B 107.8 . . ?
H3A C3 H3B 107.2 . . ?
Al1 C4 H4A 109.5 . . ?
Al1 C4 H4B 109.5 . . ?
Al1 C4 H4C 109.5 . . ?
H4A C4 H4B 109.5 . . ?
H4A C4 H4C 109.5 . . ?
H4B C4 H4C 109.5 . . ?
loop_
_geom_bond_atom_site_label_1
_geom_bond_atom_site_label_2
_geom_bond_distance
_geom_bond_site_symmetry_2
_geom_bond_publ_flag
Cl1 Al1 2.1843(5) . ?
P1 Al1 2.4234(5) 2_666 ?
P1 C1 1.8208(15) . ?
P1 C2 1.8158(14) . ?
P1 C3 1.7979(14) . ?
Al1 C3 1.9984(14) . ?
Al1 C4 1.9693(13) . ?
C1 H1A 0.9800 . ?
C1 H1B 0.9800 . ?
C1 H1C 0.9800 . ?
C2 H2A 0.9800 . ?
C2 H2B 0.9800 . ?
C2 H2C 0.9800 . ?
C3 H3A 0.9900 . ?
C3 H3B 0.9900 . ?
C4 H4A 0.9800 . ?
C4 H4B 0.9800 . ?
C4 H4C 0.9800 . ?
loop_
_geom_torsion_atom_site_label_1
_geom_torsion_atom_site_label_2
_geom_torsion_atom_site_label_3
_geom_torsion_atom_site_label_4
_geom_torsion
_geom_torsion_site_symmetry_1
_geom_torsion_site_symmetry_2
_geom_torsion_site_symmetry_3
_geom_torsion_site_symmetry_4
_geom_torsion_publ_flag
Al1 P1 C3 Al1 -54.15(8) 2_666 . . . ?
C1 P1 C3 Al1 -177.95(7) . . . . ?
C2 P1 C3 Al1 70.70(9) . . . . ?
loop_
_twin_individual_id
_twin_individual_mass_fraction_refined
1 0.45369
2 0.26294
3 0.28337
