#------------------------------------------------------------------------------
#$Date: 2022-09-07 01:50:44 +0300 (Wed, 07 Sep 2022) $
#$Revision: 277696 $
#$URL: file:///home/coder/svn-repositories/cod/cif/7/71/11/7711177.cif $
#------------------------------------------------------------------------------
#
# This file is available in the Crystallography Open Database (COD),
# http://www.crystallography.net/
#
# All data on this site have been placed in the public domain by the
# contributors.
#
data_7711177
loop_
_publ_author_name
'Fraunhofer, Christina'
'Paul, Theresa'
'Oeckler, Oliver'
_publ_section_title
;
 Temperature-dependent Cu and Ag ion mobility and associated changes of
 transport properties in pavonite-type Cu1.4Ag0.4Bi5.4Se9
;
_journal_name_full               'Dalton Transactions'
_journal_paper_doi               10.1039/D2DT01651F
_journal_year                    2022
_chemical_formula_sum            'Ag0.8 Bi10.8 Cu2.8 Se18'
_chemical_formula_weight         3942.47
_space_group_crystal_system      monoclinic
_space_group_IT_number           12
_space_group_name_Hall           '-C 2y'
_space_group_name_H-M_alt        'C 1 2/m 1'
_atom_sites_solution_primary     direct
_atom_sites_solution_secondary   difmap
_audit_creation_method           SHELXL-2017/1
_audit_update_record
;
2021-06-07 deposited with the CCDC.	2022-09-05 downloaded from the CCDC.
;
_cell_angle_alpha                90
_cell_angle_beta                 99.570(7)
_cell_angle_gamma                90
_cell_formula_units_Z            1
_cell_length_a                   13.7085(10)
_cell_length_b                   4.1838(4)
_cell_length_c                   15.2884(15)
_cell_measurement_reflns_used    12936
_cell_measurement_temperature    373(2)
_cell_measurement_theta_max      29.6
_cell_measurement_theta_min      2.115
_cell_volume                     864.64(14)
_computing_structure_refinement  'SHELXL-2017/1 (Sheldrick, 2017)'
_diffrn_ambient_temperature      373(2)
_diffrn_measured_fraction_theta_full 0.988
_diffrn_measured_fraction_theta_max 0.988
_diffrn_measurement_device_type  'Stoe Stadivari'
_diffrn_radiation_type           AgK\a
_diffrn_radiation_wavelength     0.56083
_diffrn_reflns_av_R_equivalents  0.0242
_diffrn_reflns_av_unetI/netI     0.0187
_diffrn_reflns_Laue_measured_fraction_full 0.988
_diffrn_reflns_Laue_measured_fraction_max 0.988
_diffrn_reflns_limit_h_max       16
_diffrn_reflns_limit_h_min       -13
_diffrn_reflns_limit_k_max       5
_diffrn_reflns_limit_k_min       -5
_diffrn_reflns_limit_l_max       18
_diffrn_reflns_limit_l_min       -19
_diffrn_reflns_number            5097
_diffrn_reflns_point_group_measured_fraction_full 0.988
_diffrn_reflns_point_group_measured_fraction_max 0.988
_diffrn_reflns_theta_full        19.664
_diffrn_reflns_theta_max         20.518
_diffrn_reflns_theta_min         2.378
_exptl_absorpt_coefficient_mu    41.122
_exptl_absorpt_correction_T_max  0.5227
_exptl_absorpt_correction_T_min  0.1478
_exptl_absorpt_correction_type   multi-scan
_exptl_absorpt_process_details   '(Blessing, 1995)'
_exptl_crystal_density_diffrn    7.571
_exptl_crystal_description       'irregular polyhedron'
_exptl_crystal_F_000             1627
_exptl_crystal_size_max          0.080
_exptl_crystal_size_mid          0.078
_exptl_crystal_size_min          0.042
_refine_diff_density_max         2.080
_refine_diff_density_min         -1.449
_refine_diff_density_rms         0.333
_refine_ls_extinction_coef       0.00120(11)
_refine_ls_extinction_expression Fc^*^=kFc[1+0.001xFc^2^\l^3^/sin(2\q)]^-1/4^
_refine_ls_extinction_method     'SHELXL-2017/1 (Sheldrick 2017)'
_refine_ls_goodness_of_fit_ref   1.067
_refine_ls_hydrogen_treatment    undef
_refine_ls_matrix_type           full
_refine_ls_number_parameters     76
_refine_ls_number_reflns         999
_refine_ls_number_restraints     4
_refine_ls_restrained_S_all      1.065
_refine_ls_R_factor_all          0.0355
_refine_ls_R_factor_gt           0.0277
_refine_ls_shift/su_max          0.000
_refine_ls_shift/su_mean         0.000
_refine_ls_structure_factor_coef Fsqd
_refine_ls_weighting_details
'w=1/[\s^2^(Fo^2^)+(0.0479P)^2^] where P=(Fo^2^+2Fc^2^)/3'
_refine_ls_weighting_scheme      calc
_refine_ls_wR_factor_gt          0.0670
_refine_ls_wR_factor_ref         0.0703
_reflns_Friedel_coverage         0.000
_reflns_number_gt                862
_reflns_number_total             999
_reflns_threshold_expression     'I > 2\s(I)'
_cod_data_source_file            d2dt01651f2.cif
_cod_data_source_block           CF215A_K3_100
_cod_original_sg_symbol_H-M      'C 2/m'
_cod_original_formula_sum        'Ag0.80 Bi10.80 Cu2.80 Se18'
_cod_database_code               7711177
_shelx_shelxl_version_number     2017/1
_shelx_space_group_comment
;
The symmetry employed for this shelxl refinement is uniquely defined
by the following loop, which should always be used as a source of
symmetry information in preference to the above space-group names.
They are only intended as comments.
;
_shelx_res_file
;
TITL CF215A_K3_100 in C2/m
    CF215A_K3_100.res
    created by SHELXL-2017/1 at 14:39:53 on 22-May-2021
CELL 0.56083  13.70850   4.18380  15.28840  90.0000  99.5700  90.0000
ZERR    1.00   0.0010   0.0004   0.0015   0.0000   0.0070   0.0000
LATT  7
SYMM -X, Y, -Z
SFAC CU SE AG BI
UNIT 2.8 18 0.8 10.8

L.S. 20
BOND
FMAP 2
PLAN 20

ACTA

SHEL 0.8 10000

OMIT 0 0 2
OMIT 0 0 4

EXYZ BI2 AG2
EADP BI2 AG2

SUMP 6.8 0.001 4 2 4 4
SUMP 0.8 0.001 4 5
SUMP 2.8 0.001 4 3 4 7 4 8 4 9
SUMP 1 0.001 1 2 1 3

WGHT    0.047900
EXTI    0.001205
FVAR       0.03450   0.94148   0.05847   0.75854   0.20002   0.73116   0.10430
FVAR       0.22063   0.31658
BI1   4    0.451178    0.000000    0.189701    20.50000    0.02825    0.02634 =
         0.02336    0.00000    0.00433    0.00000
CU1   1    0.485874    0.000000    0.216090    30.50000    0.05791
BI2   4    0.151656    0.000000    0.062648    40.50000    0.02542    0.02655 =
         0.03305    0.00000    0.00489    0.00000
AG2   3    0.151656    0.000000    0.062648    50.50000    0.02542    0.02655 =
         0.03305    0.00000    0.00489    0.00000
BI3   4    0.243858    0.000000    0.622162    10.50000    0.04465    0.04018 =
         0.02855    0.00000   -0.00676    0.00000
SE1   2    0.402330    0.000000    0.359998    10.50000    0.02610    0.02525 =
         0.02507    0.00000    0.01032    0.00000
SE2A  2    0.792879    0.000000    0.130110    60.50000    0.01925
SE2B  2    0.798735    0.000000    0.102859   -60.50000    0.02082
SE3   2    0.138295    0.000000    0.455059    10.50000    0.02207    0.02210 =
         0.02061    0.00000    0.00183    0.00000
SE4   2    0.095018    0.000000    0.229581    10.50000    0.02290    0.02312 =
         0.02936    0.00000   -0.00233    0.00000
SE5   2    0.000000    0.500000    0.000000    10.25000    0.01926    0.01964 =
         0.01795    0.00000    0.00162    0.00000
CU3   1    0.024868    0.000000    0.561701    70.50000    0.03019    0.14574 =
         0.06760    0.00000   -0.00560    0.00000
CU4   1    0.463479    0.000000    0.525234    80.50000    0.07436    0.05698 =
         0.08692    0.00000   -0.02354    0.00000
CU5   1    0.000000    0.328498    0.500000    90.50000    0.02280    0.11455 =
         0.04460    0.00000   -0.00455    0.00000
HKLF 4




REM  CF215A_K3_100 in C2/m
REM R1 =  0.0277 for     862 Fo > 4sig(Fo)  and  0.0355 for all     999 data
REM     76 parameters refined using      4 restraints

END

WGHT      0.0479      0.0000

REM Highest difference peak  2.080,  deepest hole -1.449,  1-sigma level  0.333
Q1    1   0.4023  0.0000  0.1637  10.50000  0.05    2.08
Q2    1   0.2004  0.0000  0.0939  10.50000  0.05    1.98
Q3    1   0.1988  0.0000  0.5984  10.50000  0.05    1.81
Q4    1   0.3035  0.0000  0.6367  10.50000  0.05    1.70
Q5    1   0.1049  0.0000  0.0300  10.50000  0.05    1.67
Q6    1   0.1831  0.0000  0.0270  10.50000  0.05    1.52
Q7    1   0.1000  0.0000  0.1808  10.50000  0.05    1.46
Q8    1   0.8077  0.0000  0.0510  10.50000  0.05    1.33
Q9    1   0.8735 -0.2394  0.1516  11.00000  0.05    1.11
Q10   1   0.0443  0.5000  0.0376  10.50000  0.05    1.07
Q11   1   0.3601  0.0000  0.3169  10.50000  0.05    1.01
Q12   1   0.4812  0.0000  0.1611  10.50000  0.05    1.00
Q13   1   0.0453  0.0000  0.2143  10.50000  0.05    1.00
Q14   1   0.7859  0.0000  0.1751  10.50000  0.05    0.97
Q15   1   0.0679  0.0000  0.5022  10.50000  0.05    0.96
Q16   1   0.8604  0.0000  0.1472  10.50000  0.05    0.95
Q17   1   0.1623  0.1016  0.2620  11.00000  0.05    0.84
Q18   1   0.0745  0.1506  0.0559  11.00000  0.05    0.80
Q19   1   0.0786  0.1314  0.4272  11.00000  0.05    0.80
Q20   1   0.7539  0.0000  0.1079  10.50000  0.05    0.73
;
_shelx_res_checksum              34208
_shelx_hkl_file
;
   9   1  -9   14.50    0.67
   9   1  -8    1.77    0.61
   9   3   7   29.64    1.10
  10   2   1    4.28    0.77
  11   3   4   14.59    1.05
  12   2  -5    3.14    0.75
  13   3   0   19.85    1.11
  15   3 -11    0.14    0.83
  15   3  -9    3.39    0.86
  15   3  -8    0.72    0.76
   0   2  12   60.62    0.80
   1   1   7  140.52    0.92
   2   0  -3   29.52    0.22
   5   1   3  395.34    2.00
   7   1   0   33.47    0.86
   8   2   5    0.31    0.71
   9   1 -11    1.67    0.41
   9   1  -7   66.01    1.03
   9   1  -6   13.40    0.71
  12   2  -4   28.44    1.10
  13   3   1    2.72    0.82
  15   3  -7    0.09    0.86
  15   3  -6    3.39    0.82
   5   3  12   57.68    1.23
   9   1  -5  143.42    1.46
  15   3  -5    0.65    0.85
  15   3  -4    3.48    0.82
   6   2   8   99.42    1.35
   7   1   1   15.61    0.72
   8   4  12   -0.97    0.81
  12   2  -2    3.63    0.76
  13   3   2    1.06    0.76
   4   2  10    2.03    0.51
   5   1   4    3.21    0.52
  10   2   3    3.16    0.55
  12   2  -1   -0.36    0.74
  13   3   3   -0.75    0.85
   7   3  11   -0.34    0.69
   9   3   9   13.55    0.92
  11   3   7    1.10    0.94
  12   2   0   -0.50    0.76
  14   2 -10    3.80    0.76
  14   2  -9    6.12    0.86
   7   1   2    7.04    0.63
  12   2   1    4.57    0.81
  13   3   4    7.34    0.89
  14   2  -6   -0.36    0.80
   1   1   8   29.37    0.50
   5   1   5    7.37    0.56
   9   1  -1    4.64    0.72
   9   3  10    4.87    0.88
  10   2   5   21.45    0.98
  13   3   5    2.55    0.80
  14   2  -5    1.47    0.76
  14   2  -4    1.03    0.84
   3   1   7   45.48    0.75
   4   2  11    3.97    0.53
   7   1   3   32.07    0.89
   7   3  12    3.03    0.73
   9   1   0   11.98    0.77
  11   3   8    4.75    0.82
  12   2   2    5.10    0.89
  -1   1   9   19.54    0.35
   6   2  10   18.05    0.90
  11   1 -11    1.10    0.54
  11   1  -6   15.93    0.73
  11   1  -5    0.56    0.70
  12   2   3  157.00    2.09
   7   1   4   15.86    0.76
   9   1   1   -0.28    0.77
   9   3  11    7.50    0.85
  11   1  -4   -0.06    0.66
  14   2  -1   43.06    1.38
   7   3  13    0.53    0.75
  12   2   4   12.80    1.03
  14   2   0   -1.19    1.00
   4   0  -7   60.31    0.41
   4   2  12    5.13    0.59
  11   1  -2  311.98    2.48
  14   2   1   -0.76    1.05
  16   2 -10    0.74    0.80
  16   2  -9    0.21    0.82
  16   2  -8    0.83    0.82
  16   2  -7   35.18    1.27
  16   2  -6   27.91    1.21
  16   2  -5    5.14    0.95
   3   1   8  119.12    1.17
   6   2  11    0.08    0.68
   7   1   5   11.26    0.82
  11   1  -1    7.85    0.90
  14   2   2    5.36    1.11
  16   2  -4    3.58    1.01
   1   1   9   47.99    0.68
   2   0  -1    7.37    0.19
   5   1   7   48.96    0.98
  11   1   0    5.73    0.87
  14   2   3    0.31    0.94
   9   3  13    2.05    0.91
  13   1  -9    1.89    0.66
  13   1  -5   -0.16    0.69
  16   2  -1    0.97    0.94
   6   2  12   20.36    0.85
   9   1   4    4.15    0.57
  13   1 -10   11.54    0.72
  13   1  -4    5.20    0.81
  14   2   4    6.66    0.96
  16   2   0    3.02    0.94
  -4   4 -11    0.95    0.72
  -3   3  -6   62.82    0.96
  -2   4 -14    0.81    0.79
  -1   3  -8   16.29    0.73
   3   3 -14    0.93    0.93
   8  -2  -7    2.63    0.22
   9   1 -16   15.74    1.03
  10   0 -14   15.54    0.80
  -2   4 -13    1.91    0.76
  -1   1  -1   -0.15    0.19
   6   2 -13    6.12    0.75
   9   1 -15    5.89    0.81
  -5   3  -4    0.34    0.42
  -4   4 -10    1.12    0.57
  -1   3  -7   66.93    1.08
   4   2  -9   16.43    0.66
   5   1  -7   19.59    0.67
   6   2 -12    7.42    0.77
   7  -1  -6   49.56    0.55
   7   1 -10  156.92    1.56
   8   0  -9   17.30    0.64
   8   2 -17   -0.38    0.76
   9   1 -14  105.08    1.57
  10   0 -13    0.22    0.58
   0   4 -14   -0.20    0.77
   1   3  -9    9.65    0.72
   2   2  -6   27.15    0.77
   5   3 -16    0.86    0.80
   8   2 -16    0.02    0.79
   9  -1  -9   15.93    0.49
  12   0 -19    7.30    0.82
  -4   4  -9   20.65    0.80
  -3   3  -5    3.05    0.50
  -2   4 -11   23.52    1.00
   0   4 -13    1.96    0.84
   3   3 -11    2.02    0.71
   4   2  -8   76.81    1.16
   5   3 -15    0.79    0.74
   6   2 -11   17.63    0.86
   8   2 -15    2.39    0.87
   9   1 -13   17.56    0.86
  10   0 -12   21.31    0.85
  12   0 -18    1.68    0.73
   1   3  -8    8.24    0.66
   7   1  -9  124.82    1.36
  12   0 -17    0.99    0.70
  -4   2  -1    5.47    0.29
  -2   4 -10    4.76    0.71
  -1   3  -6   87.55    1.17
   0   4 -12   16.06    1.05
   3   1  -4   82.86    0.78
   3   3 -10   18.73    0.89
   5   1  -6   -0.39    0.48
   5   3 -13    4.56    0.89
   6   2 -10    0.37    0.66
   8   0  -8   47.52    0.86
   8   2 -14    2.20    0.78
   9   1 -12    9.22    0.73
  11  -1 -12   10.21    0.56
  11   1 -17    1.98    0.75
  12   0 -16    0.34    0.69
  -4   4  -8   14.16    0.78
   2   4 -14    0.85    0.79
   8   2 -13    1.47    0.77
  10   0 -11   31.77    0.81
  11   1 -16    0.80    0.79
  -2   2  -2   73.63    0.68
  -2   4  -9    4.74    0.72
   0   4 -11   16.26    1.00
   1   1  -2  249.77    1.04
   2   2  -5  400.55    2.03
   2   4 -13   18.35    1.02
   4   2  -7   33.68    0.92
   5   3 -12   17.08    1.03
   7   1  -8   96.82    1.22
   9  -1  -8    1.81    0.41
   9   1 -11    2.50    0.62
  11   1 -15    1.81    0.79
  12   0 -15    8.37    0.76
  -6   2   0   16.61    0.23
  -5   3  -3  149.43    1.13
  -3   3  -4   11.17    0.57
   3   3  -9    6.90    0.75
   7   3 -15    3.54    0.90
   8   2 -12   21.93    0.98
  11  -1 -11    1.74    0.52
  -4   4  -7   51.47    1.05
  -2   4  -8    7.95    0.81
  -1   3  -5  239.51    1.74
   0   4 -10    0.16    0.78
   4   0  -3    1.88    0.23
   5   3 -11    7.09    0.89
   7   3 -14    4.50    0.86
  10   0 -10    1.09    0.57
  11   1 -14    1.42    0.77
  12   0 -14   16.88    0.83
   3   3  -8    4.23    0.64
   8   0  -7    9.37    0.60
   8   2 -11    2.53    0.76
   9   1 -10   25.09    0.85
   0   4  -9    2.29    0.76
   2   4 -11    1.45    0.87
   4   2  -6    5.57    0.67
   5   1  -5  102.17    1.01
   6   2  -8   47.24    1.04
   7   1  -7   16.09    0.67
   7   3 -13    1.07    0.83
  11   1 -13   10.68    0.84
  -4   4  -6   47.08    1.01
   2   2  -4  237.91    1.55
   4   4 -13   -0.26    0.75
   7  -1  -5    9.84    0.28
   7   3 -12   -0.31    0.83
  11  -1 -10   23.08    0.61
  13   1 -17    0.46    0.72
  -2   4  -7    0.60    0.61
   2   4 -10    7.58    0.88
   3   1  -3  143.11    0.96
   4   4 -12    8.32    0.98
   5   3  -9   61.16    1.24
   8   2 -10   50.52    1.15
   9   1  -9   14.56    0.76
  10   0  -9   90.81    1.12
  11   1 -12    9.94    0.81
  13   1 -16   -0.14    0.70
  -3   3  -3    0.84    0.44
  -1   3  -4    0.47    0.53
   0   4  -8    1.31    0.69
   3   3  -7    3.15    0.66
   7   3 -11   25.95    1.06
   9  -1  -7   66.73    0.69
  12   0 -12    9.03    0.68
   1   3  -5    3.06    0.62
   4   2  -5   44.04    0.90
   6   2  -7    0.17    0.62
   8   2  -9   16.14    0.78
  13   1 -15   30.07    1.06
   2  -2 -11    5.17    1.14
   3  -3 -14    0.94    1.25
   5  -3 -14    5.00    1.49
   5  -1  -7   20.62    0.87
   6  -2 -11   18.32    1.39
   9  -1  -6   13.78    1.08
  12  -2  -9    9.65    1.33
  13  -3 -12    5.51    1.23
  13  -1  -3    6.60    0.72
  -6  -2  -8  100.12    1.38
  -2  -4 -15    2.11    1.20
   1  -3 -14    3.26    1.41
   1  -1  -7  169.64    1.74
   6   0   0   17.70    0.31
   7  -3 -14    5.05    1.27
   8  -2 -11    2.86    1.20
  11  -3 -13    4.68    1.23
  11  -1  -5    1.73    0.75
  14  -2  -8    5.48    1.05
  15  -3 -11    0.86    1.25
  -3  -3 -13    5.01    1.20
   9  -3 -14   46.73    1.70
  10  -2 -11   16.66    1.33
  12  -2 -10    0.17    1.15
   3  -3 -15   65.61    2.13
   3  -1  -8    7.02    0.92
   6  -2 -12    8.37    1.25
   7  -3 -15    2.05    1.38
   9  -1  -7   68.12    1.47
  13  -1  -4    5.36    0.78
  14  -2  -9    7.81    1.15
  -8  -2  -7   -0.20    0.57
  -4  -2 -10    2.17    0.93
  -3  -1  -6  179.24    1.43
  -2  -2 -11   61.96    1.54
   7  -1  -8   93.15    1.73
   8  -2 -12   19.57    1.33
  11  -1  -6   17.14    0.94
   1  -3 -15   -2.02    1.29
   1  -1  -8   23.22    1.05
  10  -2 -12   10.31    1.40
  12  -2 -11    6.90    1.38
  14  -2 -10    2.68    1.33
  -5  -1  -5    7.70    0.55
  -3  -3 -14    1.94    1.18
  -1  -3 -15    3.38    1.21
   4  -2 -13   -1.02    1.26
   4   0  -1  103.36    0.64
   5  -3 -16    0.12    1.40
   6  -2 -13    7.05    1.22
   8  -2 -13    1.55    1.28
   9  -1  -8    2.47    1.05
  11  -1  -7   21.73    1.10
  13  -1  -5    0.15    0.71
  -7  -1  -3   32.56    0.41
   1  -3 -16    6.80    1.41
   3  -1  -9   26.27    1.29
   5  -1  -9  127.96    1.86
  12  -2 -12    5.84    1.46
  -4  -2 -11    4.04    0.93
   0  -2 -13   10.34    1.29
   2   0  -1    8.07    0.22
  14  -2 -11    2.29    1.31
  -3  -3 -15   -1.55    1.34
  -1  -3 -16    1.61    1.16
   1  -1  -9   22.30    1.13
   2  -2 -14    3.67    1.21
   6   0  -1    3.90    0.32
   9  -1  -9   15.37    1.24
  11  -1  -8   16.93    1.15
   1  -3 -17    0.15    1.34
   3  -1 -10   54.62    1.69
   5  -1 -10    9.59    0.91
   7  -1 -10  155.77    2.34
  14  -2 -12    0.21    1.30
   0  -2 -14   -0.09    1.25
   4  -2 -15    6.12    1.50
   8  -2 -15    0.93    1.62
   9  -1 -10   25.39    1.37
  11  -1  -9   15.39    1.18
  12  -2 -14   10.85    1.47
  16  -2 -11    4.67    1.32
  -5  -1  -6    7.16    0.64
  -4  -2 -12    4.55    1.05
  -1  -3 -17   -0.09    1.30
   4   0  -2   39.15    0.58
   7  -1 -11   61.51    1.76
  -3  -1  -8  118.35    1.59
   3  -1 -11    6.43    1.24
   6  -2 -16    6.74    1.59
   6   0  -2    8.54    0.41
  11  -1 -10   22.72    1.45
  16  -2 -12    2.56    1.35
  -6  -2 -11    0.07    0.81
  -2  -2 -14    4.99    1.32
   4  -2 -16    5.19    1.60
   8   0  -1   47.43    0.64
  13  -1  -9    2.22    1.11
  14  -2 -14    4.42    1.41
  -4  -2 -13    1.62    1.17
   1  -1 -11  289.03    2.91
   2   0  -2   10.90    0.32
   4   0  -3    1.57    0.48
   5  -1 -12   32.00    1.65
  11  -1 -11    1.20    1.29
  16  -2 -13    0.77    1.39
   4  -2 -17   43.84    2.26
   6  -2 -17   -1.18    1.40
   6   0  -3   39.97    0.74
   8  -2 -17    0.85    1.57
  13  -1 -10   10.79    1.34
   3  -3   6   62.44    1.24
   6  -4  10    7.01    1.05
   7  -3   5    1.10    0.88
  11  -1  -1    8.57    0.97
  13  -3   5    1.64    1.06
  16   0  -2    1.05    0.87
  17  -1   0   18.35    1.21
   1  -3   7   64.59    1.04
   5  -3   5    2.59    0.65
   7  -1  -1   42.02    0.95
  10  -2   1    5.46    0.90
  11   1  -4    0.97    0.54
  12  -2   1    4.65    0.97
  12   0  -3    3.77    0.75
  15  -1  -1    0.58    1.02
  16  -2   2   -0.52    1.03
   0  -2   4   46.27    0.62
   4  -4  10   -0.12    0.70
   6  -4   9    1.71    0.87
   8  -2   1   35.59    0.96
   9   1  -4    0.74    0.44
  10   0  -3    2.61    0.65
  11  -3   4   14.29    1.18
  13  -3   4    7.14    0.98
  13   1  -4    6.16    0.60
  14  -2   1    0.22    0.98
  14   0  -3    7.50    0.79
  18   0  -2    1.75    0.87
  -1  -3   8    8.03    0.46
   1  -1   1    0.05    0.28
   3  -1   0  450.74    1.77
   7  -3   4    9.01    0.84
   8  -4   8    7.85    1.02
   8   0  -3  524.77    2.36
  10  -4   8   24.10    1.25
  16  -2   1   16.98    1.20
  17  -1  -1   56.62    1.62
   3  -3   5    3.44    0.73
   4  -4   9   22.41    1.00
   6  -2   1  351.94    2.33
  11  -3   3   10.50    1.09
  12  -2   0    1.28    0.92
  13  -3   3    0.30    0.87
  13  -1  -2    1.80    0.79
   4   0  -2   48.07    0.54
   5  -3   4    0.10    0.70
   5  -1  -1    5.80    0.54
   6  -4   8   28.49    1.21
   8  -4   7    0.31    0.95
   9  -3   3   64.55    1.54
  10  -2   0   50.25    1.21
  14  -2   0   -0.45    1.02
  15  -1  -2    4.28    1.00
  16  -2   0    3.43    0.99
  17  -1  -2    4.73    1.04
  18   0  -3    3.31    0.93
   4  -4   8   16.19    0.94
  10  -4   6    4.55    1.00
  11  -3   2    0.14    1.03
  13  -3   2   -0.07    0.97
  14   0  -4    4.03    0.80
   4  -2   1    5.62    0.64
   8  -4   6    0.84    0.93
  12  -2  -1    0.06    0.80
  13   1  -5    0.80    0.55
  15  -1  -3    7.89    1.10
  16   0  -4    4.23    0.91
  -1  -1   2  247.59    0.68
   3  -3   4   12.08    0.75
  10  -4   5    7.57    1.06
  11   1  -5    0.81    0.41
  13  -3   1    1.23    1.00
  17  -1  -3    2.58    1.04
  18   0  -4    2.62    0.93
   6  -4   6    0.28    0.82
   8  -4   5    1.82    0.93
   8  -2  -1   19.40    0.99
  11  -3   1    4.42    0.98
   0  -2   3    0.43    0.34
   1  -3   5  242.43    1.73
  10  -4   4    1.17    0.92
  12  -2  -2    4.89    0.90
  14  -2  -2  119.67    2.16
   6  -4   5    7.67    0.86
  10  -2  -2   10.72    0.86
  12   0  -5    9.47    0.73
  13  -3   0   18.31    1.18
  13  -1  -4    6.08    0.86
  15  -1  -4    6.66    0.96
  16   0  -5    7.82    0.83
   4  -4   6   46.55    1.18
   5  -3   2   22.14    0.91
   5  -1  -2   86.79    0.97
   7  -3   1    8.12    0.80
   8  -4   4   24.86    1.21
   9   1  -5  145.85    1.03
  11  -3   0    1.08    0.85
  18   0  -5    6.06    0.82
   3  -3   3    1.49    0.58
   3  -1  -1  159.87    1.07
   4  -2   0    0.28    0.52
   6  -2  -1    1.41    0.66
   7  -1  -3    2.72    0.60
  10  -4   3    2.25    0.83
  14  -2  -3    1.85    0.93
   2  -4   7    0.05    0.57
   6  -4   4    0.74    0.79
   8  -4   3    4.96    1.02
   8  -2  -2   16.19    0.87
  10   0  -5    8.60    0.61
  12  -2  -3    4.70    0.80
  13  -3  -1    1.04    0.83
  13   1  -6   13.39    0.68
   4  -4   5   19.03    0.95
  10  -4   2   -0.14    0.97
  10  -2  -3    4.17    0.86
  13  -1  -5   -0.11    0.83
  15  -1  -5    3.15    0.89
  17  -1  -5    2.13    0.92
  -3   1  -7   44.38    0.66
   4   0  10    4.31    0.34
  -5   1  -3  408.80    1.93
   0   0   4   44.96    0.19
   1   1 -12    3.79    0.26
   2   0   8   41.01    0.48
  -5   1  10    9.96    0.43
   4   0   9  109.32    0.96
   8   0  -8   47.63    0.81
   2   0   7    0.35    0.27
   4   0  -6    2.94    0.27
   6   0  -7    0.17    0.41
  10   0  -7   76.65    1.23
  -7   1   3    2.67    0.57
  -5   1  11   17.68    0.53
   2   0  -4  431.59    0.87
   4   0   8   96.72    0.98
   8   0  -7    7.75    0.61
   0   0   3    3.49    0.07
  10   0  -6    1.27    0.68
  -1   1 -11    0.17    0.34
   4   0   7  168.63    1.27
   6   0  -6   34.82    0.67
   8   0  -6   10.17    0.63
   8   0   6    3.23    0.68
  10   0  -5    7.75    0.79
  -7   1  -2    7.93    0.79
   2   0   6  106.78    0.74
   4   0   6  215.94    1.39
   6   0   6    4.11    0.54
   8   0  -5    4.15    0.65
  -7   1   9  126.54    1.28
  -5   1  12   33.57    0.57
   8   0  -3  512.05    2.58
   8   0   3   22.71    0.74
  -7   1  10  156.54    1.41
   0   0   2    3.67    0.04
   2   0  -3   30.32    0.32
   4   0  -4   29.09    0.47
   6   0   4    7.29    0.59
   8   0   0   31.27    0.91
   8   0   1   71.25    1.10
  -9   1   6   14.77    0.81
   2   0   4   83.54    0.64
   4   0   4   82.66    0.86
   6   0  -3   40.72    0.70
   6   0   2  381.15    2.03
   6   0   3    1.11    0.51
  -9   1   7   67.12    1.22
  -1   1 -12    2.10    0.32
   4   0  -3    2.12    0.33
   6   0   0   17.98    0.60
   6   0   1  431.48    2.10
  -9   1   8    1.98    0.76
  -7   1  11   61.08    0.92
   4   0  -2   40.64    0.59
   4   0   3    7.96    0.41
   2   0  -2   10.94    0.23
   2   0   3  209.37    0.92
   4   0  -1  104.77    0.86
   4   0   1    1.12    0.39
   4   0   2    1.26    0.37
   4   0   0    3.40    0.30
  -7   1  12    0.03    0.41
   2   0  -1    7.47    0.22
   2   0   2   79.27    0.58
   2   0   0    4.12    0.21
   2   0   1   43.81    0.43
   9   1 -11    1.93    0.53
   5   1  12  119.62    1.29
   0   0   8    0.18    0.86
   2   0  -3   33.93    0.57
   8   0  -6    9.43    0.67
  -8  -2  -5    1.57    0.55
   0   0   9   29.14    1.16
  -5  -1  -3  402.33    1.71
  -1  -1  -8   32.24    1.01
   0   0  10    1.65    1.05
   4   0  -4   30.47    0.60
   6   0  -5  196.98    1.26
  10   0  -5    7.31    0.50
   8   0  -5    3.71    0.45
  -2   0   5  494.59    2.11
  -2   0   6   63.94    0.98
  -2   0   7    6.06    0.64
  -2   0   8  126.99    1.53
  -2   0   9   38.98    1.14
  -2   0  10   36.52    1.23
  -5  -1  -2   85.76    0.73
  -2   0   4  430.86    1.75
  -8  -2  -3   12.67    0.62
  -6  -2  -6    1.48    0.65
   1  -1  -8   24.18    0.99
   2   0  -2   11.96    0.26
   6   0  -4  276.86    1.29
  10   0  -4    2.33    0.40
  -1  -1  -6  211.68    1.58
   8   0  -4   79.48    0.73
  -9  -1  11    1.35    0.64
  -4   0   9   15.27    0.86
  -9  -1   8    1.50    0.57
  -4   0   8  136.10    1.46
   1  -1  -7  184.22    1.60
   3  -1  -8    6.71    0.78
  -9  -1   7   67.07    0.91
  -4   0   7   68.83    1.01
   7  -1  -9  127.64    1.56
   9  -1  -9   16.02    0.85
  11  -1  -9   14.67    0.74
  -8  -2  -2   59.86    0.77
  -4   0   6    2.78    0.44
  -1  -1  -5  508.11    2.09
   5  -1  -8    8.25    0.70
  -9  -1   6   14.32    0.48
  10   0  -3    2.34    0.29
  -6  -2  -4    1.01    0.61
  -4   0   5   56.07    0.72
   1  -1  -6  160.00    1.33
   7  -1  -8   91.91    1.31
  11  -1  -8   16.35    0.68
  -6   0  10    1.95    0.76
   5   1   8    6.13    0.75
   7   1   8  223.91    1.86
   8   0  -3  519.94    1.48
   5   1   7   40.97    1.01
   7   1   7   46.05    0.97
   9   1   8   -0.31    0.56
  -7  -3  -5    2.47    0.70
   5   1   6    7.07    0.72
  -9   1   4    1.03    0.41
  -3  -1 -10   56.43    1.11
  -2   2   8   97.21    0.95
  -1  -1 -10   66.52    1.06
   3  -1 -13   40.02    0.73
   3  -1 -12   18.97    0.57
 -11   1   3  103.45    1.16
  -3  -1  -9    1.06    0.70
   2   2   7    0.17    0.61
   3  -1 -11    6.44    0.42
   7   1   1   16.77    0.61
  10   0  -9   89.87    0.78
   1   1   4   -0.08    0.33
   4   0  -2   44.32    0.45
 -10   0  -1    4.87    0.75
   3  -1 -10   51.73    0.65
   3   1   3    2.78    0.40
   8   0  -6    9.61    0.38
  11   1  -4    0.59    0.60
  -5  -1  -7   39.73    0.98
   0   2   7  144.57    1.25
 -13   1   3    5.05    0.58
 -11   1   4    0.58    0.44
  -7   1   5    9.91    0.29
  -5  -1  -6    6.36    0.68
  -3  -1  -6  159.47    1.37
  -1   3   9    9.47    0.58
   6   0  -4  277.37    1.09
   7   1   0   36.62    0.80
   9   1  -2    6.43    0.62
 -10   0   0   65.66    1.13
   2   0  -1    8.10    0.15
  11   1  -5    0.12    0.53
   3  -1  -9   25.52    0.47
  -9   1   5  145.23    0.97
  -3  -1  -5   15.78    0.56
  -3   3   9    6.77    0.45
  -2   2   7    7.00    0.40
   5  -1 -12   32.43    0.43
   5   1   1    1.38    0.39
   8   0  -7    8.50    0.34
 -10   0   1    9.25    0.68
   7   1  -1   42.17    0.76
   9   1  -3   37.71    0.83
  11   1  -6   16.85    0.62
  -5  -1  -4    3.23    0.42
   0   2   6    0.33    0.43
   3   1   2    8.33    0.42
 -11   1   5    0.43    0.38
  -3  -1  -4   19.96    0.57
  -1  -1  -5  510.36    1.83
  -1   3   8    7.84    0.51
   1   1   3   37.75    0.51
   5  -1 -11   18.14    0.36
   9   1  -4    0.04    0.59
  11   1  -7   21.03    0.63
  -8   0   2   35.65    0.67
  -7  -1  -3   32.54    0.91
   6   0  -5  207.22    0.91
   6   2   2  266.46    2.00
 -10   0   2    9.94    0.63
  -5  -1  -3  382.58    2.03
  -4   2   7   30.63    0.48
   5   1   0    2.25    0.39
 -12   0   2   10.18    0.73
  11   1  -8   16.91    0.64
  -7  -1  -2    6.87    0.62
  -3   3   8    3.98    0.46
   4   2   3   10.51    0.61
  -3  -1  -3    2.68    0.42
  -1  -1  -4    0.07    0.33
   6   2   1  357.47    2.16
  -5  -1  -2   81.58    0.97
  11   1  -9   14.77    0.53
 -10   0   3    2.09    0.46
  -4   0   2   46.41    0.45
   3   1   1  770.29    2.07
 -12   0   3    3.87    0.51
  -8   0   3  536.64    1.95
   0  -2 -13    7.84    0.54
   5   1  -1    5.60    0.35
  -6   0  10    1.98    0.71
  -3   1   7    9.01    0.69
  -2  -4   1    1.75    0.53
  -1  -3  -1    1.26    0.52
   2  -2  -4  237.53    1.65
   2   2   3  140.80    1.17
   7  -1  -7   15.33    0.75
   7   1  -4    2.04    0.27
  11   1  -6   17.15    0.53
  -7  -1  10  158.10    1.42
   2   0  -2   12.16    0.27
   3  -1  -4   85.00    0.88
   7   3   2    2.25    0.38
   9   1  -5  149.50    0.98
  -3   1   6  247.05    1.67
   0   2   5  123.66    1.35
   8   0  -6   10.28    0.55
  -4   0   5   57.18    0.72
  -1   1   3    0.69    0.28
   1  -1  -2  253.71    1.14
   3   3   5    2.99    0.61
   5  -1  -5  101.36    1.10
   6   2  -1    1.12    0.21
  -5   1   9  132.48    1.46
  -2   2   7    6.19    0.74
  -1  -3   0    1.52    0.55
   1  -3  -2   95.85    1.28
   2  -2  -3    7.35    0.53
   7  -1  -6   50.13    0.95
  -6   0   8   64.65    0.99
  -3   1   5   61.37    0.83
  -7  -1   8   94.69    1.00
  -2  -2   1   10.53    0.34
   3   3   4   11.78    0.69
  10   0  -6    1.39    0.47
  11   1  -5    0.35    0.37
  -9  -1  12    7.54    0.69
   4   0  -3    1.46    0.26
  -6   0   7    0.31    0.47
   3  -1  -3  137.20    0.99
  -5   1   7   19.54    0.76
   0  -4   1    4.50    0.51
   1  -3  -1    0.25    0.57
   4   2   0    0.17    0.28
   5  -1  -4  493.69    2.10
   5   3   2   23.66    0.58
  12   0  -6    0.35    0.44
  -9  -1  11    1.31    0.56
  -8   0  10   66.50    1.14
  -4   0   4   30.07    0.50
   1   3   5  235.12    1.86
   9   1  -4    0.68    0.31
  -3  -3   3   40.03    0.58
  -2   2   5  393.20    2.18
  -1  -3   1    1.15    0.41
  -1   1   2  257.57    1.18
   2  -2  -2   15.29    0.57
   3   3   3    0.42    0.54
  -3   1   4   82.36    0.84
  -7  -1   7   15.45    0.51
  10   0  -5    7.37    0.51
  -9  -1  10   24.40    0.71
  -8   0   9   18.10    0.75
  -6   0   6   33.72    0.68
  -5   1   6   -0.23    0.56
   0  -4   2    0.51    0.44
   1   3   4    0.67    0.68
   1  -1  -1    2.03    0.30
   7   1  -3    2.73    0.22
  -4   2   6    4.57    0.69
  -2   2   4  243.93    1.71
   3  -3  -1   45.28    1.04
   7  -1  -4    1.92    0.51
  11   1  -4    0.11    0.35
   5  -1  -3  222.03    1.38
   5   3   1    0.56    0.35
  -8   0   8   48.61    0.96
   3  -1  -2   91.28    0.84
   6  -2  -3   14.09    0.79
  -1  -5   5    1.77    0.78
   1  -5   1    1.52    0.91
   2  -4  -3    0.39    0.81
   3  -5  -2    2.81    0.92
   5  -7   2   -0.30    0.96
   8  -6  -5   -0.12    1.17
   8  -4  -9    5.53    0.99
  10  -6  -7    4.03    1.14
  11  -3 -12    4.35    0.94
  11  -1 -12    9.83    0.62
  12  -6  -8    1.29    1.19
  14  -6  -9    0.44    1.22
  18  -4 -14    0.11    0.96
  -2  -4   5  126.34    1.55
   2  -6   3    4.23    0.91
   3  -3  -5   25.57    1.09
   4  -6   0    1.05    0.98
   4  -4  -5    9.20    1.04
   5  -7   3    2.11    1.05
   5  -3  -7    5.28    0.88
   6  -4  -7    0.08    1.06
   7  -7   0   -0.16    1.01
   7  -5  -6    2.26    1.01
   7  -1  -9  124.82    1.29
   8  -2 -10   51.08    1.16
   9  -7  -2   -1.44    1.14
   9  -5  -8    0.54    0.99
  10  -6  -6    1.13    1.04
  11  -5  -9    0.49    1.04
  15  -5 -11    0.91    1.08
  16  -4 -13    0.41    1.09
  17  -5 -12    1.37    1.06
   0  -4   1    4.72    0.79
   1  -5   2   -0.39    0.81
   1  -3  -2   97.83    1.46
   2  -6   4    0.01    0.84
   2  -2  -4  246.89    1.78
   5  -7   4   -0.04    0.91
   6  -6  -2    1.11    1.09
   7  -7   1   -0.32    1.13
   8  -6  -4    5.38    1.26
   9  -7  -1   -0.25    1.02
   9  -3 -10   10.32    1.07
  10  -2 -11   16.15    1.01
  12  -6  -7   -0.01    1.24
  14  -6  -8    1.51    1.18
  14  -4 -12   -0.01    0.93
  18  -4 -13    1.51    0.98
   2  -6   5    2.27    0.88
   4  -2  -6    5.64    0.75
   7  -7   2    0.07    0.96
   8  -4  -8    5.21    1.01
  10  -6  -5    0.90    1.04
  11  -3 -11    1.10    0.90
  12  -2 -12    5.75    0.80
  13  -3 -12    4.38    0.87
  14  -2 -13    2.32    0.84
  17  -5 -11    0.58    1.19
  -2  -4   6    8.93    0.62
   3  -3  -4   27.38    1.08
   4  -6   2   -0.37    0.98
   4  -4  -4    3.55    0.90
   6  -6  -1   -0.38    1.03
   6  -4  -6    7.95    1.06
   7  -3  -8   40.93    1.26
   9  -7   0   -0.90    1.24
   9  -1 -10   23.28    0.70
  10  -4  -9   19.85    1.29
  12  -6  -6   -0.52    1.11
  12  -4 -10   -0.75    1.12
  14  -6  -7    0.05    1.24
  14  -4 -11   -0.10    0.96
  15  -5 -10    0.51    1.25
  16  -4 -12    1.17    0.96
  -1  -3   2   98.15    1.31
   0  -4   2    0.60    0.69
   3  -5   0   44.21    1.47
   5  -3  -6   -0.39    0.81
   7  -7   3   -0.16    0.93
   8  -2  -9   17.51    0.85
   9  -5  -6    0.75    1.06
  10  -6  -4   -0.16    1.27
  11  -1 -11    0.92    0.53
  17  -5 -10   -0.37    1.23
  18  -4 -12    7.43    1.19
   1  -5   4   -0.25    0.79
   1  -3  -1    0.78    0.69
   4  -6   3   -0.31    0.95
   4  -4  -3    0.48    0.78
   6  -6   0    0.74    0.95
   7  -7   4    0.34    1.02
   7  -5  -4    1.04    0.97
   8  -4  -7   -0.41    0.99
   9  -3  -9    7.42    0.87
  11  -5  -7    1.85    1.18
  11  -3 -10   13.22    1.03
  12  -6  -5   -0.13    1.18
  13  -5  -8    7.30    1.26
  13  -3 -11    0.13    0.89
  14  -6  -6   -0.56    1.17
  15  -5  -9    0.50    1.19
  15  -3 -12   21.27    1.16
  16  -4 -11    1.17    0.95
  20  -4 -12    0.58    0.98
   0  -4   3    0.47    0.68
   3  -5   1   76.62    1.73
   4  -6   4    1.34    0.98
   6  -6   1   17.86    1.25
   6  -4  -5   30.22    1.30
   7  -7   5    0.90    0.97
   7  -3  -7    7.64    0.84
   8  -6  -1   -0.14    1.04
  10  -6  -3    0.82    1.17
  10  -4  -8   31.83    1.39
  10  -2 -10    1.23    0.68
  12  -4  -9    2.51    1.07
  12  -2 -11    6.17    0.81
  14  -4 -10    2.73    1.06
  14  -2 -12    0.73    0.75
  17  -5  -9    0.45    1.07
   3  -3  -3   43.56    1.18
   4  -2  -5   45.03    1.07
   5  -3  -5   52.59    1.24
   7  -5  -3    1.30    0.95
  11  -5  -6    2.39    1.10
  12  -6  -4    1.11    1.03
  13  -5  -7   16.17    1.44
  14  -6  -5   -0.31    1.26
  17  -3 -12    0.62    0.93
  18  -4 -11    2.70    1.00
  20  -4 -11   -0.23    1.07
  -1  -3   3    0.61    0.60
   3  -5   2    3.03    1.01
   4  -6   5    3.03    0.96
   4  -4  -2    9.43    0.94
   8  -6   0   -1.06    1.16
   8  -4  -6    3.19    0.83
   9  -7   4    0.73    1.11
  10  -6  -2    0.21    1.27
  12  -6  -3   -0.53    1.08
  14  -6  -4   -0.11    1.28
  15  -3 -11   -0.44    0.91
  16  -4 -10    0.46    1.10
  17  -5  -8   -0.38    1.22
   0  -4   4    8.29    0.75
   1  -5   6   23.81    1.05
   5  -5   0    1.07    0.88
   6  -6   3    1.42    0.90
   7  -5  -2    3.00    0.93
   8  -2  -8   22.86    0.94
   9  -7   5   -0.68    1.06
   9  -5  -4    0.18    1.03
  10  -4  -7   17.45    1.13
  11  -3  -9    4.90    1.02
  13  -3 -10    5.18    0.93
  14  -4  -9    1.55    1.09
  15  -5  -7    0.14    1.04
  18  -4 -10    1.59    1.15
   3  -5   3   -1.15    0.91
   7  -3  -6   20.41    1.00
   8  -6   1    1.63    1.13
   8  -4  -5    1.36    1.10
   9  -7   6    0.85    1.10
  10  -2  -9   67.79    1.28
  11  -1 -10   22.31    0.75
  12  -6  -2    0.24    1.25
  12  -2 -10   -0.71    0.77
  13  -5  -6   -0.63    1.05
  14  -6  -3   -0.09    1.26
  14  -2 -11    1.43    0.78
  17  -3 -11   -0.78    0.94
  20  -4 -10    1.52    1.06
   0  -4   5   29.16    0.98
   3  -3  -2   20.58    1.00
   4  -4  -1   11.67    0.91
   5  -5   1    0.06    0.86
   5  -3  -4  210.28    2.09
   6  -6   4   -0.55    0.97
   6  -4  -3    3.63    0.97
   6  -2  -6   28.47    0.91
   8  -6   2    2.32    1.00
   9  -5  -3    2.50    1.03
  10  -4  -6    0.88    0.83
  14  -4  -8    0.55    1.00
  15  -5  -6    0.91    1.17
  16  -4  -9    0.99    0.95
  17  -5  -7    0.24    1.01
  19  -3 -11    1.76    0.97
   1  -3   1    0.74    0.59
   2  -4   2   18.74    0.90
   3  -5   4    2.87    0.89
   4  -2  -4   24.33    0.82
   6  -6   5    1.26    1.03
   7  -5  -1    1.98    0.92
  11  -5  -4   -0.27    1.03
  11  -3  -8    6.75    1.01
  12  -6  -1   -0.38    1.25
  12  -4  -7    5.33    0.99
  13  -5  -5    0.31    1.07
  13  -3  -9   -0.79    0.95
  14  -6  -2    7.65    1.41
  16  -2 -11    3.93    0.94
  18  -4  -9    0.56    1.12
  20  -4  -9    0.25    0.98
   5  -5   2    4.75    0.91
   8  -6   3    1.35    1.10
   8  -4  -4   19.34    1.26
   9  -5  -2   -0.22    1.02
  10  -6   1    1.81    0.95
  15  -5  -5    1.33    1.24
  16  -4  -8   -0.55    1.12
  17  -3 -10    2.58    0.98
  19  -5  -6    2.90    1.06
   0  -4   6   -0.36    0.58
   3  -5   5    0.36    0.87
   3  -3  -1   44.96    1.10
   6  -6   6   -0.52    0.84
   6  -4  -2    0.12    0.87
   7  -3  -5    3.35    0.60
  10  -6   2   -0.48    1.22
  10  -4  -5   -0.18    0.82
  10  -2  -8   78.13    1.40
  11  -5  -3   14.83    1.33
  12  -4  -6    0.73    0.94
  13  -5  -4    2.47    1.11
  14  -2 -10    3.13    0.81
  15  -3  -9    5.81    0.91
  18  -4  -8   -0.04    1.10
  19  -3 -10    0.27    0.94
   2  -4   3   29.94    1.02
   5  -5   3   31.04    1.23
   5  -3  -3   97.80    1.50
   9  -5  -1   -0.25    1.03
   9  -3  -6    4.06    0.87
   9  -1  -8    1.81    0.58
  12  -2  -9    9.13    0.82
  13  -3  -8   21.71    1.24
  13  -1 -10   10.33    0.67
  14  -6   0   -0.42    1.21
  15  -5  -4   -0.01    1.30
  17  -5  -5   -0.03    1.06
  20  -4  -8    0.49    0.95
  22  -4  -8   -0.62    0.99
   0  -4   7   39.86    1.01
   1  -3   2    0.65    0.57
   3  -5   6   11.02    0.99
   4  -4   1    2.71    0.76
   6  -2  -5  109.29    1.39
   7  -5   1    1.67    0.91
   8  -6   5   -0.11    1.09
   8  -4  -3  125.71    2.12
  10  -6   3    0.59    1.00
  11  -5  -2   35.44    1.62
  11  -1  -9   15.54    0.66
  13  -5  -3    1.04    1.18
  14  -6   1    1.09    1.04
  16  -4  -7   14.57    1.22
  16  -2 -10    0.29    0.85
  17  -3  -9    0.68    0.93
  18  -4  -7   -0.24    1.17
   3  -5   7    1.93    0.98
   4  -2  -3    0.18    0.56
   5  -5   4    0.76    0.77
   6  -4  -1    0.97    0.77
   7  -3  -4    0.31    0.76
   8  -6   6   -0.86    1.01
   9  -5   0    0.54    1.06
  10  -6   4    0.07    1.05
  10  -4  -4    0.06    0.82
  12  -4  -5    2.67    0.96
  15  -5  -3    0.20    1.08
  15  -3  -8    0.06    0.97
  17  -5  -4   -0.08    1.02
  19  -3  -9   -0.16    0.96
  20  -4  -7    0.72    1.18
  21  -3  -9   -0.47    1.06
  22  -4  -7   -0.33    1.17
   2  -4   4    9.31    0.78
   3  -3   0  168.58    1.75
   5  -3  -2   31.88    1.06
   7  -5   2    1.01    0.89
   8  -4  -2    6.25    1.11
   9  -3  -5   58.36    1.34
  10  -6   5    0.80    0.99
  11  -5  -1    0.46    1.07
  13  -5  -2    0.81    1.09
  13  -3  -7   52.63    1.52
  14  -6   2    0.60    1.17
  14  -2  -9    6.96    0.86
  16  -4  -6   12.18    1.28
  17  -5  -3    0.56    1.05
   3  -5   8   16.27    1.03
   4  -4   2    0.29    0.73
   5  -5   5    0.98    0.89
   6  -4   0    2.38    0.94
   7  -5   3    1.93    1.00
   8  -6   8    1.26    0.90
  10  -6   6   -0.19    1.11
  10  -4  -3    2.57    0.86
  12  -6   4    2.32    1.19
  12  -2  -8   27.04    1.07
  14  -4  -5    1.98    1.05
  15  -5  -2    0.81    1.09
  17  -3  -8    4.93    1.01
  18  -4  -6    0.76    1.15
  19  -5  -3    0.23    1.16
  19  -3  -8    0.55    1.00
  20  -4  -6    1.87    1.14
  22  -4  -6    0.50    1.09
   1  -3   3    7.72    0.66
   2  -4   5   21.49    0.95
   8  -6   9    0.61    0.90
  12  -6   5    0.62    1.17
  13  -5  -1   -0.34    1.03
  13  -1  -9    1.35    0.65
  14  -6   4    0.86    1.06
  15  -3  -7   -0.31    0.86
  21  -3  -8   -0.44    1.06
   5  -5   6   -0.22    0.89
   6  -2  -4  156.24    1.59
   7  -3  -3    0.06    0.70
   8  -6  10   -0.11    0.83
   8  -4  -1    5.00    1.12
   9  -1  -7   68.42    1.04
  10  -6   7   -0.56    0.98
  11  -5   1    2.91    1.20
  11  -1  -8   17.51    0.72
  12  -6   6    1.30    1.03
  13  -3  -6    5.61    1.13
  14  -6   5    1.54    1.21
  14  -4  -4   -0.15    1.06
  15  -5  -1    0.58    1.23
  18  -2  -9   -0.32    0.82
  20  -4  -5   -0.40    1.12
  22  -4  -5    3.73    1.20
   4  -4   3    2.43    0.72
   5  -5   7    3.11    0.82
   9  -3  -4    0.16    0.82
  10  -4  -2    4.19    0.96
  11  -3  -5   -0.19    0.90
  12  -6   7   -0.42    1.14
  13  -5   0    4.56    1.13
  17  -5  -1    9.73    1.33
  17  -3  -7    1.14    0.95
  19  -3  -7    1.49    1.06
  21  -3  -7    0.27    1.01
   2  -4   6   17.56    0.87
   4  -2  -2   40.10    0.76
   7  -5   5    1.07    0.96
   8  -4   0    2.45    1.00
   8  -2  -5    4.17    0.77
   9  -5   3   20.73    1.28
  10  -6  10    0.03    1.01
  10  -2  -6    2.05    0.69
  11  -5   2   -0.44    1.07
  12  -6   8    0.86    1.16
  12  -2  -7   19.99    0.92
  13  -5   1    0.09    1.14
  15  -5   0   -1.37    1.24
  15  -3  -6    3.18    0.98
  15  -1  -9   11.46    0.93
  16  -2  -8    0.23    0.94
  17  -5   0    2.50    1.10
  18  -4  -4    0.13    1.16
  20  -4  -4   -0.31    1.12
   4  -4   4   17.62    0.89
   5  -5   8    1.01    0.83
   7  -3  -2   10.93    0.88
   9  -5   4    0.06    1.00
  10  -4  -1    1.23    0.90
  12  -6   9    0.20    0.99
  15  -5   1    0.39    1.09
  17  -3  -6    7.13    1.05
  18  -2  -8    1.03    0.90
  23  -3  -6   -0.48    1.02
   2  -4   7    0.23    0.65
   5  -3   0    2.37    0.71
   7  -5   6    8.87    1.03
   9  -3  -3   15.58    0.98
  11  -3  -4   -0.40    0.91
  12  -6  10    0.46    1.12
  13  -1  -8   45.17    1.09
  14  -2  -7   22.01    1.13
  16  -4  -3   -1.19    1.04
  17  -5   1   -0.34    1.13
  19  -3  -6    9.57    1.19
  20  -4  -3    0.86    1.12
  21  -3  -6    0.20    0.90
   6  -2  -3   14.69    0.77
   8  -4   1    8.88    1.16
   9  -5   5    0.71    1.01
  10  -4   0   11.77    0.95
  12  -6  11    1.16    1.12
  12  -4  -1   -0.81    0.88
  13  -5   3    0.71    1.01
  14  -4  -2   41.34    1.65
  15  -5   2    0.96    1.16
  15  -3  -5    0.97    0.92
  17  -5   2   -0.11    1.08
  23  -3  -5   -0.31    1.05
   4  -4   5   19.63    0.91
   5  -5  10    4.88    0.88
   6  -4   3    2.98    0.86
   7  -5   8   27.29    1.36
   7  -3  -1   11.23    0.80
   8  -2  -4   47.73    1.12
   9  -1  -6   14.27    0.70
  11  -1  -7   22.11    0.82
  12  -2  -6    1.44    0.72
  15  -5   3    4.67    1.14
  16  -4  -2   -1.22    1.03
  16  -2  -7   37.99    1.37
  17  -3  -5    2.34    1.06
  19  -3  -5   12.08    1.26
  21  -3  -5   -0.25    1.05
   1  -3   5  243.50    1.83
   4  -2  -1   53.99    0.94
   8  -4   2   18.46    1.21
   9  -3  -2    1.50    0.84
  11  -5   5    6.15    1.18
  11  -3  -3   51.54    1.49
  13  -5   4    1.84    1.19
  14  -4  -1   16.20    1.34
  15  -1  -8    1.74    0.69
  17  -5   3   -0.23    1.18
  18  -2  -7    1.14    0.77
  20  -2  -7    5.79    0.94
  23  -3  -4    0.79    1.05
   2  -4   9    4.97    0.78
   3  -3   3    0.50    0.66
   5  -3   1   -0.26    0.74
   6  -4   4    0.55    0.81
   7  -5   9   -0.87    0.86
   9  -5   7    6.65    1.02
  10  -4   1    1.18    0.88
  11  -5   6   -0.50    0.93
  12  -4   0   -0.64    0.90
  14  -2  -6    0.42    0.84
  15  -5   4    6.13    1.32
  15  -3  -4    5.16    0.94
  17  -5   4    0.63    1.13
  18  -4  -1    2.63    1.22
  21  -3  -4    2.52    1.11
   6  -2  -2    2.33    0.60
   7  -5  10    1.78    0.89
  13  -3  -3    4.33    0.92
  13  -1  -7  100.33    1.50
  14  -4   0    0.26    1.12
  15  -5   5    4.89    1.25
  16  -2  -6   27.65    1.25
  17  -5   5   -0.09    1.20
  17  -3  -4    0.78    0.95
  19  -3  -4    0.06    0.94
  20  -2  -6    2.63    1.01
  23  -3  -3    0.59    1.12
   1  -3   6   86.30    1.23
   4  -4   7   51.66    1.34
   6  -4   5    8.21    0.94
   7  -5  11   -0.53    0.81
   7  -3   0   17.33    0.87
   9  -3  -1    0.93    0.92
  10  -4   2   -0.29    0.89
  11  -5   7    1.51    0.90
  11  -3  -2  143.19    2.14
  12  -4   1    0.84    0.99
  12  -2  -5    3.87    0.74
  15  -5   6    0.89    1.26
  16  -4   0    0.64    0.98
  17  -5   6    2.64    1.13
  18  -4   0   -0.71    1.17
  18  -2  -6   -0.10    0.86
  21  -3  -3    0.71    1.14
   5  -3   2   24.23    0.94
   7  -5  12   -0.09    0.94
   8  -2  -3  388.46    2.46
   9  -5  10    2.68    0.89
  11  -1  -6   17.74    0.78
  13  -5   7   -0.67    1.12
  14  -4   1   -0.29    1.04
  14  -2  -5    2.71    0.76
  15  -1  -7    0.68    0.82
  16  -4   1    6.95    1.12
  17  -3  -3    2.19    1.06
  18  -4   1    0.29    1.07
  19  -3  -3   -0.05    1.07
  20  -4   1   -0.08    1.21
  22  -2  -5    9.97    1.20
  23  -3  -2   -1.01    1.16
   3  -3   4   11.98    0.73
   4  -4   8   14.46    0.96
   4  -2   0   -0.32    0.53
   6  -4   6   -0.10    0.82
   9  -5  11    1.47    0.86
   9  -1  -5  151.38    1.47
  10  -4   3    1.28    0.88
  11  -5   9    0.46    1.05
  12  -4   2    1.49    0.94
  13  -5   8    2.62    1.11
  13  -3  -2    0.46    0.88
  15  -5   8   -0.50    0.97
  16  -2  -5    6.91    0.96
  17  -1  -7    0.07    0.75
  20  -4   2    0.70    1.00
  20  -2  -5    0.55    0.88
  21  -3  -2    1.42    1.12
   7  -3   1    8.11    0.82
   8  -4   5    0.29    0.86
   9  -5  12    0.87    0.98
  11  -5  10    3.75    1.11
  11  -3  -1    1.74    0.99
  13  -5   9    4.57    1.24
  14  -4   2   -0.15    1.00
  15  -5   9    1.84    1.15
  16  -4   2    0.27    1.13
  18  -2  -5    3.31    0.85
  19  -3  -2    0.86    1.05
  23  -3  -1   -0.82    1.12
   1  -3   7   62.62    1.02
   4  -4   9   22.47    0.96
   6  -4   7   22.33    1.06
   6  -2  -1    0.34    0.64
   9  -5  13    0.87    0.94
  10  -4   4    0.59    0.90
  10  -2  -3    4.03    0.75
  11  -5  11    1.90    1.04
  11  -5  12    0.56    1.02
  13  -5  10    4.10    1.20
  13  -5  11    0.21    1.12
  13  -3  -1   -0.17    0.83
  13  -1  -6   13.40    0.77
  14  -4   3   -1.13    1.00
  15  -5  10    0.22    1.15
  18  -4   3   -0.45    0.97
  20  -4   3   -0.44    1.05
  21  -3  -1    0.80    1.07
  23  -3   0    2.46    1.01
  24  -2  -3    0.30    0.97
   3  -3   5    2.44    0.69
   4  -4  10    0.68    0.76
   8  -4   6    0.62    0.89
   8  -2  -2   15.83    0.86
  11  -5  13    2.33    1.01
  12  -4   4    7.93    1.09
  12   0  -7   36.42    0.76
  13  -5  12   -0.35    1.12
  14  -2  -4    0.53    0.86
  15  -3  -1    1.77    0.95
  15  -1  -6    8.15    0.91
  16  -2  -4    3.01    0.92
  18  -2  -4    2.22    0.86
  20  -4   4   -0.62    1.22
  20  -2  -4    0.43    0.90
   6  -4   8   27.31    1.22
   7  -3   2    3.55    0.73
  11  -5  14    3.97    1.04
  11  -5  15    0.75    0.94
  11  -3   0    0.92    0.68
  11  -1  -5    0.86    0.67
  13  -5  13    0.60    1.08
  13  -5  14    0.64    1.06
  14  -4   4    1.28    1.14
  16  -4   4    0.01    1.12
  17  -1  -6   14.70    0.95
  18  -4   4    3.33    1.07
  21  -3   0   -1.40    1.19
  22  -2  -3   -1.13    1.09
  24  -2  -2    1.20    1.02
   1  -3   8   16.26    0.63
   4  -4  11    0.89    0.74
   4  -2   1    5.06    0.56
   6  -4   9    2.28    0.98
   8  -4   7    0.69    0.86
  12  -4   5    6.07    1.07
  13  -3   0   17.71    1.16
  14  -4   5   10.86    1.12
  15  -3   0    0.97    0.84
  16  -4   5   -0.45    1.02
  18  -4   5    5.57    1.26
  19  -3   0    0.89    1.14
  20  -2  -3    0.22    0.96
  21  -3   1   -0.79    1.07
   3  -3   6   60.94    1.16
   4  -4  12    2.70    0.89
   8  -4   8    6.60    1.01
   9  -1  -4   -0.17    0.61
  10  -2  -2    9.78    0.81
  11  -3   1    4.57    0.94
  12  -4   6    4.05    1.06
  14  -2  -3    2.23    0.94
  16  -2  -3   -0.66    0.90
  18  -4   6    2.33    1.21
  18  -2  -3    1.91    0.97
  22  -2  -2   -0.17    1.03
  24  -2  -1    0.41    1.04
   6  -2   0   16.94    0.75
   8  -2  -1   20.73    0.91
   9  -3   2  140.60    1.94
  10  -4   7    3.81    0.96
  13  -3   1    1.94    0.82
  13  -1  -5    0.85    0.63
  14  -4   6    2.68    1.09
  15  -3   1    0.52    0.90
  15  -1  -5    2.65    0.84
  16  -4   6    0.60    1.13
  17  -3   1    0.03    1.01
  18  -4   7   -0.28    1.17
  19  -1  -5   23.74    1.12
  20  -2  -2   -0.13    0.89
  21  -3   2    0.43    1.19
   1  -3   9   16.27    0.66
   5  -3   5    2.56    0.65
   6  -4  11    0.04    0.83
   8  -4   9    7.10    0.91
  10  -4   8   25.00    1.27
  11  -3   2   -0.24    0.92
  14  -4   7   -0.42    1.08
  16  -4   7    0.83    1.11
  18  -4   8   -0.78    1.22
  18  -2  -2    1.11    0.88
  19  -3   2    1.48    1.35
  22  -2  -1   -0.96    1.07
  24  -2   0   -0.12    0.91
   3  -3   7   13.15    0.72
   6  -4  12    8.03    0.91
   7  -3   4    8.68    0.84
   8  -4  10    0.62    0.82
   9  -3   3   66.85    1.49
  10  -4   9   16.17    1.13
  11  -1  -4    0.75    0.64
  12   0  -6    1.00    0.52
  13  -3   2    1.58    0.80
  14  -4   8   -0.15    1.14
  14  -2  -2  113.57    1.95
  15  -3   2    5.11    0.99
  16  -2  -2   -0.34    0.84
  17  -3   2   -0.63    1.11
  18  -4   9    0.14    1.18
  24  -2   1    0.23    1.15
   1  -3  10   25.41    0.83
   4  -2   2    0.81    0.50
   6  -4  13    1.70    0.90
   8  -4  11    4.47    0.88
  10  -2  -1    4.03    0.75
  12  -4   9    0.15    1.09
  16  -4   9    1.02    1.09
  19  -3   3   -0.11    1.07
  21  -3   4    1.73    1.09
  22  -2   0    0.32    1.11
   3  -3   8   60.88    1.18
   5  -3   6    2.86    0.67
   6  -4  14    0.03    0.91
   6  -2   1  358.42    2.29
   8  -4  12    0.69    0.80
   8  -2   0   11.46    0.86
   9  -3   4    0.74    0.79
  10  -4  11    2.78    1.02
  11  -3   3   12.05    1.08
  12  -4  10    1.73    1.12
  13  -3   3    0.23    0.86
  13  -1  -4    5.80    0.68
  14  -4  10    1.41    1.17
  14   0  -6    0.94    0.50
  15  -3   3   16.29    1.27
  16  -2  -1    0.91    0.77
  17  -3   3    1.62    0.98
  18  -2  -1    4.09    0.98
  19  -3   4   -0.06    1.12
  20  -2   0   20.69    1.23
  21  -3   5    2.07    1.04
  21  -1  -3    0.80    0.90
  22  -2   1   -0.44    0.99
  24  -2   2   -0.55    0.97
   8  -4  13   36.61    1.38
   9  -1  -3   36.57    0.90
  10  -4  12    1.88    0.83
  12  -4  11    3.23    1.15
  14  -4  11    0.62    1.10
  16  -4  12   -0.47    1.14
  16  -4  13    0.41    0.95
  17  -3   4    0.88    1.13
  19  -3   5    0.54    1.18
  21  -3   6    4.40    1.25
   1  -3  11    0.31    0.47
   5  -3   7   19.54    0.89
   8  -4  14   -0.16    0.85
   8  -4  15    0.18    0.91
  10  -4  13    0.77    0.98
  10  -2   0   48.72    1.21
  11  -3   4   13.39    1.13
  12  -4  12   -0.28    0.96
  12  -4  13    1.93    0.99
  14  -4  13   -0.16    1.11
  14  -4  14    3.01    1.19
  17  -3   5   -0.80    0.98
  18  -2   0   -0.65    0.96
  19  -3   6    0.48    1.03
  19  -1  -3    0.55    0.78
  21  -1  -2    1.27    1.02
  22  -2   2    3.33    1.25
  23  -1  -1    0.80    1.02
   3  -3   9    1.95    0.63
   4  -2   3   10.04    0.64
   8  -2   1   34.71    1.07
   9  -3   5    0.82    0.78
  10  -4  14    2.21    1.02
  10  -4  15    2.77    0.96
  11  -1  -3  102.44    1.45
  12  -4  14    0.24    1.06
  12  -4  15   -0.09    0.92
  12  -2   0    0.86    0.77
  14  -4  15    2.79    1.17
  14  -4  16    0.74    1.06
  15  -3   5   13.77    1.25
  16  -2   0    3.52    0.92
  17  -1  -3    4.73    0.87
  19  -3   7    1.53    1.03
  22  -2   3    1.25    0.97
  25  -1   1   -0.31    1.03
   1  -3  12    0.65    0.49
   5  -3   8    2.94    0.64
   6  -2   2  269.44    2.03
  10  -4  16    5.29    1.07
  10  -4  17   -0.31    0.98
  12  -4  16   -0.34    0.89
  12  -4  17   -0.14    0.90
  12  -4  18   -0.06    0.81
  13  -3   5    1.62    0.89
  13  -1  -3    7.01    0.73
  15  -1  -3    6.37    0.88
  16   0  -5    7.08    0.82
  17  -3   6   13.21    1.32
  18  -2   1    1.55    1.01
  19  -3   8    0.67    1.09
  19  -1  -2    0.93    0.81
  21  -1  -1   -0.04    1.01
  23  -1   0    3.10    1.04
  25  -1   2   -0.03    1.10
   3  -3  10   26.47    0.91
   7  -3   7   29.48    1.12
  10  -2   1    5.10    0.77
  11  -3   6    0.52    0.84
  12   0  -5    9.04    0.54
  13  -3   6   -0.71    0.92
  14   0  -5    4.21    0.59
  15  -3   6   -0.99    0.97
  17  -3   7    1.20    1.20
  20  -2   3   -0.33    0.96
  22  -2   4   -0.43    1.06
  12  -2   1    5.06    0.86
  14  -2   1   -0.98    0.99
  15  -3   7    1.53    1.17
  17  -3   8    2.06    1.25
  17  -1  -2    3.29    0.99
  18  -2   2    1.79    1.04
  21  -1   0    1.06    1.00
   3  -3  11   30.03    0.95
   4  -2   4   71.88    1.12
   7  -3   8  108.71    1.77
   8  -2   2   58.68    1.22
  11  -3   7    2.22    0.87
  11  -1  -2  315.15    2.38
  13  -3   7    2.71    0.92
  13  -1  -2    1.83    0.78
  15  -3   8   -0.31    1.11
  15  -1  -2    5.83    0.83
  16  -2   2    0.29    0.91
  17  -3   9    1.61    1.21
  19  -1  -1   -0.11    0.81
  22  -2   6    0.34    1.22
  23  -1   2    1.02    0.89
   3  -3  12    0.66    0.70
   5  -3  10   18.60    1.00
   6  -2   3    4.05    0.50
  10  -2   2    1.80    0.78
  11  -3   8    4.55    0.95
  13  -3   8    4.94    1.12
  15  -3   9    1.04    1.09
  17  -3  10    0.14    1.09
  21  -1   1    0.35    0.90
   9  -3   9   11.53    1.09
  15  -3  10    1.23    1.10
  16  -2   3    0.70    0.90
  16   0  -4    5.23    0.73
  17  -3  12   -0.16    1.21
  17  -3  13    0.15    1.24
  18  -2   4    6.42    1.22
  19  -1   0    2.32    0.94
  20  -2   6    2.55    1.29
  23  -1   3    2.11    1.08
   3  -3  13    4.47    0.72
   5  -3  11    0.45    0.78
   8  -2   3   12.89    0.86
   9  -3  10    5.08    1.06
   9  -1  -1    5.55    0.66
  12   0  -4   40.10    0.96
  14  -2   3    0.51    0.97
  14   0  -4    3.53    0.62
  15  -3  11    4.45    1.06
  15  -1  -1    2.01    0.86
  16  -2   4    2.54    0.94
  18  -2   5   14.85    1.28
  18   0  -3    4.05    0.85
  20   0  -2   -0.55    0.89
  21  -1   2    0.00    1.09
  23  -1   4    2.12    1.14
   3  -3  14    3.11    0.71
   5  -3  12   54.28    1.41
   6  -2   4    1.23    0.66
   7  -3  11   -0.49    0.88
  11  -3  11    8.68    1.07
  13  -3  12   -0.06    1.00
  13  -1  -1   -0.66    0.72
  15  -3  14    1.80    1.37
  15  -3  15   -0.76    1.20
  17  -1   0   18.94    1.13
  18  -2   6    7.66    1.14
  19  -1   1   13.52    1.11
  20  -2   8    0.98    1.21
  23  -1   5   -0.05    1.18
   5  -3  13   48.14    1.32
   7  -3  12    2.97    0.96
   8  -2   4   91.54    1.48
   9  -3  11    6.14    0.88
  11  -3  12    1.00    0.97
  13  -3  13    1.07    1.11
  14  -2   4    7.41    0.95
  15  -3  16   -0.83    1.16
  15  -3  17   -0.14    0.91
  16  -2   5    1.49    1.00
  16   0  -3    0.33    0.74
  18  -2   7   -0.48    1.06
  20  -2   9    0.48    1.21
  21  -1   3    0.21    0.96
  23  -1   6   -0.45    1.16
  -1  -3 -10   23.92    1.21
   1  -3 -14    2.51    1.43
   2  -4 -16   -0.13    1.33
   3  -1 -14    2.40    1.29
   5   1  -9  132.07    1.83
   7  -1 -19   -0.28    1.42
   9   1 -15    5.28    1.37
  10  -2 -23    8.05    1.83
  11   1 -17    2.70    1.36
  12   0 -21    1.56    1.55
  14   0 -22    2.11    1.54
  16   0 -23    2.43    1.42
   4  -4 -18    3.37    1.47
   4  -2 -17   42.00    1.79
   4   0 -12   45.08    1.65
   5  -3 -19    3.66    1.63
   6  -2 -19   -0.37    1.51
   6   0 -15  158.63    2.57
   7  -5 -21   -0.57    1.58
   7   1 -12    1.44    0.95
   8  -4 -22    0.72    1.47
   8  -2 -21   -0.80    1.62
  10   0 -19    2.27    1.37
  11  -3 -24    1.20    1.76
  11  -1 -22   -0.45    1.67
  13   1 -18    1.47    1.25
  15  -1 -24    0.20    1.62
   0  -2 -10    2.03    1.08
   1  -3 -13   13.05    1.36
   2  -4 -15    0.11    1.22
   3  -3 -16   16.38    1.53
   3  -1 -13   40.21    1.55
   5  -1 -16   -2.11    1.29
   6  -4 -20    2.69    1.64
   7  -1 -18    5.37    1.35
   9  -1 -20   -0.81    1.48
  10   2 -10    2.01    0.66
  11   1 -16    2.17    1.22
  12   0 -20   17.87    1.79
  15   1 -19    2.77    1.36
  16   0 -22    2.86    1.57
  18   0 -23   -0.01    1.55
   4  -2 -16    4.95    1.52
   4   0 -11   27.60    1.30
   5  -3 -18    1.71    1.36
   6   0 -14   32.49    1.49
   7  -5 -20    0.55    1.49
   7  -3 -20    2.52    1.51
   8  -2 -20    9.91    1.61
  10   0 -18    1.03    1.34
  11  -1 -21    1.60    1.59
  12  -2 -23   -0.36    1.56
  14   0 -21   -0.50    1.34
   4  -4 -17   13.95    1.59
   5  -1 -15    2.57    1.23
   6  -4 -19    1.07    1.52
   7   1 -11   65.88    1.53
   8  -4 -21   -1.27    1.43
   9  -1 -19   14.94    1.68
  15   1 -18    0.71    1.26
  18   0 -22    1.22    1.42
   0  -2  -9   11.72    1.01
   1  -3 -12    0.85    1.13
   2  -4 -14    0.80    1.26
   3  -3 -15   65.85    2.07
   3  -1 -12   18.41    1.31
   4  -2 -15    5.52    1.32
   7  -5 -19    1.03    1.42
   9  -5 -21    0.67    1.65
   9   1 -13   16.09    1.16
  10  -4 -22    0.03    1.45
  11  -1 -20    1.27    1.45
  11   1 -15    1.04    1.18
  12  -2 -22   -1.10    1.43
  14   0 -20    1.07    1.45
  16   0 -21    3.67    1.54
  17  -1 -23    0.13    1.47
  -1  -3  -8   14.90    0.84
   4  -4 -16    2.48    1.23
   4   0 -10  396.24    2.86
   5  -3 -17    1.41    1.32
   6  -4 -18   -1.33    1.45
   6  -2 -17   -0.81    1.21
   8  -4 -20    6.16    1.52
   8  -2 -19   12.74    1.60
  10   0 -17   -0.73    1.17
  11  -3 -22    0.63    1.50
  13  -3 -23    0.42    1.76
  13   1 -16   -0.65    1.23
  14  -2 -23    0.29    1.42
  15  -1 -22   -0.45    1.56
  15   1 -17    0.73    1.18
  18   0 -21   -1.40    1.32
   0  -4 -10    0.44    0.84
   2  -4 -13   15.99    1.43
   5  -1 -14   15.57    1.39
   7  -1 -16   27.35    1.65
   7   1 -10  162.18    1.91
   9  -5 -20   -1.89    1.52
   9  -3 -20    1.72    1.55
   9  -1 -18    0.56    1.25
  10  -4 -21    0.84    1.47
  10  -2 -20   -0.54    1.38
  11   1 -14    0.02    1.19
  12   0 -18    1.41    1.29
  14   0 -19    0.57    1.21
  16   0 -20    0.57    1.39
   0  -2  -8   -0.02    0.89
   1  -3 -11  129.76    2.00
   3  -1 -11    7.77    1.13
   4  -2 -14    2.65    1.16
   5  -3 -16   -0.10    1.14
   7  -5 -18    0.30    1.32
   9   1 -12    7.44    0.97
  10   0 -16   20.51    1.58
  11  -3 -21    1.73    1.58
  11  -1 -19    9.51    1.52
  12  -4 -22    0.78    1.43
  12  -2 -21    1.05    1.65
  13  -3 -22    3.01    1.62
  14  -2 -22   -0.21    1.46
  15  -1 -21    0.25    1.28
  16  -2 -23    2.94    1.31
  17  -1 -22    2.23    1.49
  20   0 -21    0.52    1.15
   6  -4 -17    0.54    1.34
   6   0 -12   14.56    1.12
   9  -5 -19    1.69    1.43
   9  -1 -17    3.78    1.21
  10  -4 -20   -0.03    1.53
  12   0 -17   -0.08    1.09
  13   1 -15   29.51    1.53
  15   1 -16    1.42    1.08
  18   0 -20   -0.64    1.33
   2  -4 -12    4.20    1.07
   3  -3 -13   21.30    1.35
   4   0  -9   15.85    0.94
   5  -1 -13   11.34    1.06
   7  -5 -17    3.08    1.47
   7  -1 -15    4.47    1.28
   7   1  -9  122.12    1.58
   9  -3 -19    9.67    1.50
  10  -2 -19   -0.05    1.22
  11  -5 -20    2.11    1.29
  11  -1 -18   21.60    1.49
  11   1 -13    9.16    1.11
  12  -4 -21    0.55    1.38
  14   0 -18   19.97    1.54
  16  -2 -22    2.57    1.46
  16   0 -19    1.47    1.19
  17  -1 -21   -0.07    1.44
  20   0 -20    1.04    1.21
   1  -3 -10   35.07    1.25
   3  -1 -10   52.01    1.33
   4  -4 -14    0.80    1.25
   4  -2 -13    0.52    1.02
   5  -3 -15    0.13    1.07
   6  -2 -15  105.32    2.30
   8  -4 -18    5.34    1.44
   8  -2 -17    0.23    1.22
   9   1 -11    1.74    0.83
  10   0 -15   19.01    1.41
  11  -3 -20    2.01    1.38
  13   1 -14    0.57    1.13
  15  -3 -22    1.01    1.25
  15  -1 -20    5.19    1.65
  18   0 -19    3.20    1.40
  19  -1 -21    1.21    1.42
   6  -4 -16    0.11    1.18
   9  -5 -18    0.82    1.31
   9  -3 -18   -0.93    1.37
   9  -1 -16   16.33    1.40
  10  -4 -19   -0.98    1.35
  12  -4 -20    5.43    1.47
  12   0 -16   -0.46    1.08
  14   0 -17   11.15    1.40
  15   1 -15   -1.17    1.08
  16  -2 -21    2.15    1.19
  16   0 -18    0.38    1.27
  20   0 -19    0.95    1.17
   2  -4 -11    2.28    0.93
   3  -3 -12   10.00    1.06
   4   0  -8  140.76    1.52
   5  -5 -14    1.63    1.07
   5  -1 -12   31.96    1.33
   7  -5 -16    3.87    1.32
   7  -1 -14    7.46    1.12
   8  -4 -17    0.62    1.18
  11  -5 -19    1.49    1.33
  11  -3 -19    5.83    1.58
  11  -1 -17    3.54    1.19
  12  -2 -19    2.56    1.37
  13  -3 -20    1.21    1.28
  14  -2 -20    0.02    1.56
  15  -3 -21   -0.02    1.53
  17  -1 -20    0.62    1.20
   1  -3  -9    9.92    0.88
   4  -4 -13   -0.46    1.20
   4  -2 -12   31.53    1.23
   6  -2 -14   19.20    1.31
   7   1  -8   94.27    1.30
   8  -2 -16   -0.31    0.92
   9  -5 -17   -0.20    1.14
   9   1 -10   24.83    1.10
  10   0 -14   15.68    1.20
  13   1 -13    1.82    0.99
  18   0 -18   -0.20    1.23
  19  -1 -20    2.48    1.39
   6   0 -10    2.69    0.85
   7  -5 -15    0.40    1.22
   9  -3 -17   -0.15    1.36
   9  -1 -15    5.13    1.35
  11  -5 -18    3.58    1.40
  12  -4 -19    1.95    1.44
  12  -2 -18    0.79    1.18
  14  -2 -19   -0.03    1.24
  14   0 -16    1.41    1.09
  15   1 -14    2.52    1.06
  16  -2 -20    2.38    1.35
  16   0 -17    1.21    1.08
  17  -1 -19   -0.10    1.38
  20   0 -18   -0.03    1.12
  21  -1 -20    0.24    0.91
   2  -4 -10    7.01    1.12
   3  -3 -11    1.39    0.92
   5  -5 -13    0.62    1.14
   5  -1 -11   17.69    1.10
   8  -4 -16    0.34    1.21
   8  -2 -15    1.59    1.12
  11  -3 -18   10.69    1.39
  11  -1 -16    1.05    1.06
  13  -3 -19   -1.24    1.48
  15  -1 -18    2.15    1.34
  18   0 -17    2.03    1.03
  19  -1 -19    0.67    1.16
   4  -4 -12    6.94    1.21
   5  -3 -13    3.87    1.09
   6  -4 -14    8.64    1.27
   6  -2 -13    5.63    0.98
   9  -5 -16    2.19    1.31
  10   0 -13    0.32    0.92
  11   1 -11    2.17    0.81
  12  -4 -18   -0.34    1.45
  16   0 -16    0.09    1.22
  17  -3 -20    0.96    1.37
  20   0 -17    5.07    1.13
  21  -1 -19    0.12    1.33
   1  -3  -8    8.46    0.78
   7  -5 -14    2.03    1.24
   9  -3 -16    7.47    1.25
   9  -1 -14  103.93    2.09
   9   1  -9   14.96    0.89
  10  -2 -16   16.18    1.26
  11  -5 -17    1.58    1.12
  11  -3 -17    1.02    1.28
  12  -2 -17    0.36    1.25
  12   0 -14   15.27    1.33
  13  -5 -18   -0.86    1.32
  13  -3 -18    0.76    1.24
  13   1 -12   11.46    1.00
  14  -2 -18   12.72    1.48
  14   0 -15    2.13    0.97
  15  -3 -19    3.24    1.27
  17  -1 -18    2.69    1.17
   6   0  -9   27.05    0.97
   7  -1 -12    0.42    0.89
  11  -1 -15    0.43    1.00
  15  -1 -17   -0.04    1.16
  18   0 -16   -0.59    1.19
  19  -1 -18    0.34    1.31
  21  -1 -18    2.38    1.33
   2  -4  -9    7.64    0.91
   3  -3 -10   18.10    0.98
   5  -1 -10    9.49    0.99
   6  -4 -13    3.29    1.05
   8  -2 -14    1.16    0.84
   9  -5 -15    2.59    1.04
  11  -5 -16   -0.48    1.32
  11   1 -10   23.04    0.96
  12  -4 -17    1.59    1.40
  13  -5 -17   -0.09    1.45
  15  -3 -18    1.61    1.47
  16  -2 -18    0.63    1.34
  16   0 -15    5.34    1.13
  17  -3 -19    1.56    1.21
  17  -1 -17   13.80    1.32
  20   0 -16    5.92    1.19
   4  -2 -10  251.88    2.38
   7  -5 -13    0.32    1.01
   9  -3 -15    3.17    1.10
   9  -1 -13   16.66    1.19
  10  -2 -15   11.72    1.12
  11  -3 -16    1.39    1.23
  12  -2 -16    0.37    1.14
  12   0 -13   80.37    1.80
  13  -3 -17    0.92    1.33
  13   1 -11    0.69    0.81
  14  -2 -17    6.95    1.28
  14   0 -14    6.09    1.15
  15  -1 -16    0.85    1.06
  15   1 -12   41.19    1.38
  16  -4 -18    0.29    1.33
  19  -1 -17    0.78    1.06
   1  -3  -7   59.81    1.14
   8  -4 -14   -0.23    1.15
   9   1  -8    2.37    0.78
  10  -4 -15    7.38    1.40
  17  -3 -18    0.80    1.30
  18   0 -15   -0.11    1.07
  20  -2 -18    1.31    1.32
  21  -1 -17    0.56    1.16
   2  -4  -8   24.11    1.17
   6  -4 -12    2.51    1.12
   7  -1 -11   67.61    1.50
   8  -2 -13    2.41    1.03
  11  -5 -15   -0.12    1.23
  12  -4 -16   -1.07    1.30
  13  -5 -16    0.05    1.20
  15  -3 -17    1.22    1.44
  16   0 -14    7.02    1.10
  17  -1 -16    1.43    1.22
  20   0 -15    3.75    0.97
   3  -3  -9    6.76    0.83
   5  -1  -9  133.23    1.65
   6  -2 -11   17.10    1.07
   6   0  -8   64.23    1.14
   7  -5 -12    1.03    1.03
  10  -2 -14    9.67    1.16
  10   0 -11   31.16    1.12
  11  -3 -15   -0.31    1.18
  11   1  -9   14.36    0.81
  12  -6 -14    1.52    1.22
  12  -2 -15    4.44    1.12
  12   0 -12    9.00    1.07
  14   0 -13    4.05    1.08
  15  -5 -16    0.19    1.35
  15  -1 -15    0.38    1.09
  15   1 -11    2.16    0.82
  17  -3 -17    8.01    1.45
  19  -1 -16   -0.25    1.22
  20  -2 -17    5.67    1.19
  21  -1 -16    1.79    1.19
  23  -1 -16    1.47    1.25
   5  -5 -10    1.27    0.93
   8  -4 -13    1.42    1.10
   9  -5 -13    4.99    1.22
   9  -1 -12    8.54    0.79
  10  -4 -14    5.36    1.17
  11  -5 -14    0.40    1.23
  11  -1 -13   10.31    1.16
  13  -5 -15    3.72    1.34
  14  -4 -16    0.81    1.37
  16  -2 -16   -0.70    1.15
  18   0 -14    1.73    0.89
  19  -3 -17    1.50    1.22
  20   0 -14    0.17    1.02
   6  -4 -11    5.62    1.12
   8  -2 -12   21.15    1.17
  12  -6 -13    3.43    1.25
  14  -2 -15    2.44    1.15
  15  -3 -16    0.78    1.30
  16   0 -13    1.45    0.93
  17  -1 -15    2.96    1.14
   1  -3  -6   47.80    1.01
   2  -4  -7    0.71    0.84
   5  -3 -10    3.76    0.82
   7  -1 -10  160.62    1.95
   9  -3 -13   11.11    1.03
   9   1  -7   68.05    1.19
  10  -2 -13    1.25    1.06
  11  -3 -14    0.68    1.08
  12  -2 -14    9.69    1.20
  13  -3 -15   14.99    1.35
  14  -4 -15    2.35    1.29
  15  -5 -15    1.66    1.32
  15  -1 -14    3.04    1.09
  15   1 -10   11.72    1.05
  17  -3 -16   -1.14    1.30
  18   0 -13    2.47    1.08
  19  -1 -15   -0.68    1.16
  20  -2 -16    1.61    1.37
  21  -1 -15    0.07    1.16
  22  -2 -16    0.91    1.31
  23  -1 -15    2.99    1.26
   3  -3  -8    3.57    0.73
   5  -5  -9   12.24    1.12
   5  -1  -8    8.21    0.75
   6  -2 -10    0.93    0.82
   8  -4 -12    5.51    1.11
   9  -5 -12    1.58    1.11
   9  -1 -11    2.26    0.89
  10  -4 -13    1.15    1.12
  10   0 -10    1.00    0.74
  11  -5 -13    1.02    1.27
  12   0 -11    9.34    0.92
  13  -5 -14   -0.55    1.31
  13   1  -9    0.74    0.82
  15  -3 -15   -1.57    1.14
  19  -3 -16   -1.44    1.35
  20   0 -13    0.47    1.01
  11   1  -8   17.82    0.81
  12  -6 -12    2.00    1.12
  13  -3 -14   -0.33    1.10
  14  -2 -14    5.50    1.13
  15  -5 -14   -0.59    1.29
  16  -4 -15    1.67    1.10
  16   0 -12    4.26    0.94
  17  -1 -14   -0.24    1.08
  19  -1 -14    2.21    1.02
  20  -2 -15    2.39    1.25
  22  -2 -15   -0.09    1.28
  23  -1 -14   -0.55    1.05
   4  -2  -8   73.65    1.29
   6  -4 -10    1.03    1.01
   7  -5 -10   16.35    1.12
   8  -2 -11    3.28    0.95
  10  -2 -12   11.59    1.22
  11  -3 -13    4.60    1.05
  12  -2 -13   56.88    1.62
  13  -5 -13    0.41    1.10
  15  -1 -13   21.05    1.30
  17  -3 -15    1.77    1.22
  18  -4 -15    0.02    1.18
  18   0 -12   28.66    1.35
  21  -1 -14   -0.81    1.09
   4  -4  -8   22.80    1.16
   7  -1  -9  126.00    1.70
   8  -4 -11    1.63    0.95
   9  -5 -11    0.67    0.98
  10  -4 -12    3.25    1.14
  14   0 -11    3.73    0.95
  15  -3 -14    0.40    1.21
  15   1  -9   12.32    0.90
  16  -2 -14    4.43    1.19
  17  -1 -13   -0.87    1.17
  20   0 -12    0.86    1.03
   1  -3  -5    2.64    0.73
   2  -4  -6    8.61    0.76
   3  -3  -7    2.86    0.71
   5  -5  -8    1.40    0.96
   9  -1 -10   24.38    1.07
  10   0  -9   93.77    1.52
  12  -6 -11   -0.46    0.99
  12   0 -10    0.21    0.76
  13  -3 -13    1.44    0.99
  14  -2 -13    2.48    1.05
  15  -5 -13    2.36    1.27
  16  -4 -14    1.90    1.07
  19  -1 -13    3.24    1.15
  20  -2 -14   -0.26    1.26
  21  -1 -13    2.35    1.21
  22  -2 -14    0.33    1.30
  23  -1 -13    0.31    1.15
   6  -4  -9    4.57    1.04
   7  -5  -9   17.67    1.19
   8  -2 -10   49.20    1.33
   9  -3 -11    1.15    0.98
  11   1  -7   21.69    0.89
  13  -5 -12    1.82    1.18
  13   1  -8   44.89    1.10
  14  -6 -11   -0.53    1.24
  14  -4 -13    0.69    1.23
  15  -1 -12   41.65    1.40
  16   0 -11    4.38    1.09
  17  -5 -13   -2.32    1.42
  19  -3 -14    1.54    1.34
  21  -3 -14    2.25    1.41
   4  -2  -7   30.17    0.91
   8  -4 -10   16.24    1.24
  10  -4 -11    4.89    1.02
  10  -2 -11   16.31    1.15
  11  -5 -11    0.42    1.17
  12  -6 -10    1.54    1.04
  14   0 -10    5.22    1.01
  15  -5 -12    7.22    1.47
  15  -3 -13   11.07    1.57
  16  -4 -13   -0.67    1.16
  16  -2 -13    0.32    1.02
  17  -1 -12    0.75    1.07
  18   0 -11    6.03    0.95
  20   0 -11    0.49    0.94
  22  -2 -13   -0.08    1.22
  23  -1 -12    1.21    0.98
   4  -4  -7    9.82    0.88
   5  -5  -7    1.57    0.92
   5  -3  -8    5.28    0.74
  13  -3 -12    4.78    1.17
  15   1  -8    2.21    0.73
  17  -5 -12    0.47    1.14
  17  -3 -13   -0.40    1.38
  18  -4 -13    0.13    1.22
  19  -3 -13    0.78    1.23
  19  -1 -12    1.19    1.15
  20  -2 -13    0.79    1.19
  21  -3 -13    2.99    1.27
  21  -1 -12    0.33    1.18
   7  -1  -8   94.68    1.41
   9  -1  -9   14.86    0.95
  11  -3 -11    0.68    0.81
  11  -1 -10   22.67    1.15
  12   0  -9   18.35    0.96
  14  -6 -10   -0.44    1.27
  16   0 -10   -0.17    0.98
  25  -1 -11    0.06    0.84
   3  -3  -6   95.64    1.36
   6  -4  -8    9.61    1.04
   8  -2  -9   15.94    0.94
   9  -5  -9    1.72    1.00
   9  -3 -10   10.46    0.97
  10  -4 -10   -0.13    1.06
  10  -2 -10    1.52    0.91
  10   0  -8  119.98    1.62
  11  -5 -10    3.64    1.08
  12  -6  -9   -0.13    0.99
  12  -2 -11    5.96    0.88
  13   1  -7  104.19    1.45
  15  -5 -11    1.28    1.35
  15  -1 -11    2.15    0.91
  16  -4 -12    1.02    1.26
  16  -2 -12    2.13    1.09
  18   0 -10    9.71    1.01
  20  -2 -12   -2.05    1.36
  20   0 -10    0.67    0.91
  22  -2 -12    1.68    1.48
  23  -1 -11    0.50    1.10
   8  -4  -9    4.75    1.15
  13  -3 -11   -0.65    1.07
  14  -6  -9    0.86    1.25
  14  -4 -11    0.82    1.06
  14  -2 -11    2.27    0.94
  14   0  -9   12.49    1.00
  17  -5 -11    0.71    1.28
  17  -3 -12    1.25    1.16
  17  -1 -11   -0.43    0.94
  19  -3 -12    0.84    1.41
  19  -1 -11    4.34    1.10
  21  -3 -12    1.11    1.42
  21  -1 -11    7.99    1.16
  25  -1 -10    0.33    1.22
   5  -5  -6    0.68    0.79
   5  -1  -6   -0.56    0.56
  11  -5  -9    1.57    1.13
  11   1  -6   18.33    0.75
  12  -6  -8    0.70    1.16
  15   1  -7    0.73    0.80
  16  -4 -11    1.04    1.13
  22  -2 -11    0.76    1.25
  23  -1 -10    0.45    1.13
   4  -4  -6    1.03    0.73
   4  -2  -6    4.50    0.71
   5  -3  -7    4.79    0.70
   7  -5  -7    0.84    1.01
   9  -5  -8    0.23    0.98
  10  -6  -7    3.73    0.95
  11  -1  -9   15.02    0.96
  12  -2 -10   -0.86    1.09
  12   0  -8   49.26    1.22
  15  -5 -10    1.80    1.14
  15  -3 -11    1.88    1.36
  16  -2 -11    4.64    1.10
  16   0  -9    2.32    0.83
  17  -5 -10    1.51    1.28
  17  -3 -11   -0.04    1.17
  18  -4 -11    1.27    1.27
  18   0  -9   -0.59    0.91
  20  -4 -11    1.22    1.31
  20  -2 -11   -0.25    1.49
  20   0  -9    1.38    0.92
  21  -1 -10    7.24    1.17
  25  -1  -9    1.43    1.22
   6  -4  -7    1.19    0.84
   6  -2  -7    0.31    0.74
   7  -1  -7   15.05    0.82
   8  -4  -8    6.21    1.04
   9  -1  -8    1.09    0.77
  10  -4  -9   20.85    1.23
  10  -2  -9   69.11    1.59
  10   0  -7   77.39    1.27
  13  -5  -9   -0.03    1.23
  14  -6  -8   -0.74    1.18
  14  -4 -10    1.11    1.14
  17  -1 -10    5.95    1.05
  19  -3 -11    2.63    1.28
  19  -1 -10    0.72    1.00
   3  -3  -5   24.68    0.93
   8  -2  -8   23.76    1.07
  11  -5  -8    2.40    1.01
  12  -6  -7    0.71    1.11
  13  -3 -10    5.13    1.13
  13   1  -6   13.58    0.71
  14   0  -8    6.86    0.87
  15  -5  -9    1.43    1.31
  16  -4 -10    0.22    1.27
  18  -4 -10    2.62    1.13
  20  -4 -10    1.54    1.31
  22  -2 -10    0.94    1.56
  23  -1  -9    1.54    1.21
   5  -5  -5   15.65    0.96
   7  -5  -6    3.05    1.01
  11  -3  -9    3.90    1.21
  14  -6  -7    1.13    1.05
  15  -3 -10    6.21    1.16
  15  -1  -9   11.82    1.14
  16  -2 -10    1.40    0.99
  16   0  -8    0.99    0.88
  17  -5  -9    0.79    1.17
  17  -3 -10    1.93    1.20
  18   0  -8    1.30    0.83
  19  -3 -10   -0.26    1.42
  20  -2 -10    0.56    1.26
  20   0  -8    0.74    0.90
  21  -3 -10    4.53    1.42
  21  -1  -9    1.59    1.18
  24  -2  -9    2.50    1.55
  25  -1  -8   -0.23    1.21
   9  -3  -8   -0.22    0.93
  10  -4  -8   32.18    1.34
  11  -1  -8   16.81    0.96
  11   1  -5    0.52    0.62
  13  -5  -8    5.78    1.38
  14  -4  -9    2.21    1.21
  15   1  -6    7.77    0.74
  16  -6  -7    2.59    1.34
  17  -1  -9    1.73    0.93
  19  -1  -9    0.21    1.03
  20  -4  -9    0.53    1.22
  22  -2  -9    1.21    1.37
  23  -1  -8   -0.53    1.23
   6  -4  -6    8.57    0.91
   8  -4  -7    0.40    0.96
   9  -1  -7   66.95    1.31
  10  -2  -8   80.23    1.63
  11  -5  -7    1.02    0.98
  12  -6  -6    0.28    1.14
  13  -3  -9    0.67    0.96
  14  -2  -9    7.04    0.99
  15  -5  -8   -0.04    1.29
  16  -4  -9    0.92    1.23
  17  -5  -8    0.69    1.30
  18  -4  -9   -0.03    1.29
  20  -2  -9    1.09    1.51
  21  -3  -9    0.51    1.47
  24  -2  -8    2.10    1.27
  25  -1  -7    0.43    1.23
   4  -2  -5   46.32    0.95
   7  -1  -6   52.71    1.09
   8  -2  -7    1.64    0.84
   9  -5  -6    1.90    0.96
  10  -6  -5    0.58    0.97
  14  -6  -6   -0.12    1.20
  14   0  -7   27.91    1.11
  15  -3  -9    4.39    0.99
  16  -6  -6    2.42    1.30
  16  -2  -9    1.55    0.98
  17  -3  -9    1.62    1.17
  19  -3  -9    0.96    1.41
  21  -1  -8    1.01    1.15
   2  -4  -3    1.01    0.53
   5  -5  -4   55.15    1.39
   6  -2  -6   29.44    0.94
   7  -5  -5    0.77    0.93
  10  -4  -7   18.73    1.15
  10   0  -6    1.82    0.66
  11  -3  -8    6.35    0.84
  12  -6  -5    0.42    1.15
  12  -2  -8   27.33    1.30
  13  -5  -7   15.77    1.49
  13   1  -5    1.04    0.54
  14  -4  -8   -0.28    1.25
  15  -1  -8    2.29    1.08
  16  -4  -8    0.55    1.11
  16   0  -7   44.40    1.39
  17  -5  -7   -0.14    1.39
  17  -1  -8   10.12    1.09
  18  -4  -8    0.58    1.13
  18   0  -7   -0.79    0.91
  19  -1  -8    2.09    1.06
  20  -4  -8    1.18    1.34
  21  -3  -8    0.45    1.36
  23  -1  -7    3.99    1.18
  25  -1  -6   -0.15    1.29
   9  -3  -7   28.02    1.16
  11  -5  -6   -0.25    0.96
  11  -1  -7   21.30    0.97
  14  -6  -5    1.34    1.11
  14  -2  -8    6.43    0.94
  15   1  -5    3.13    0.62
  16  -6  -5    0.57    1.27
  19  -3  -8    0.55    1.35
  24  -2  -7    0.17    1.37
   4  -4  -4    3.11    0.71
   5  -3  -5   53.89    1.25
   6  -4  -5   30.33    1.14
   8  -4  -6    4.26    0.88
  10  -6  -4    0.08    1.00
  10  -2  -7   58.59    1.43
  12   0  -6    1.29    0.67
  13  -5  -6    0.54    1.29
  15  -3  -8    0.69    0.88
  16  -2  -8   -0.87    1.05
  20   0  -6    5.82    0.92
  21  -1  -7    0.89    1.06
   7  -5  -4    0.69    0.97
   9  -5  -5   13.01    1.11
   9  -1  -6   14.61    0.88
  11  -3  -7    8.59    1.08
  11   1  -4   -0.07    0.59
  12  -6  -4    0.63    1.15
  14  -4  -7    7.53    1.26
  15  -5  -6    1.16    1.24
  16  -4  -7   14.53    1.45
  17  -5  -6    2.42    1.51
  17  -1  -7   -1.17    0.87
  18  -4  -7    0.46    1.35
  18   0  -6    0.78    0.92
  19  -1  -7    3.60    1.09
  21  -3  -7    0.26    1.59
  23  -1  -6    0.67    1.09
  24  -2  -6    0.85    1.46
  25  -1  -5    0.65    1.23
   5  -5  -3   20.05    1.02
   8  -2  -6   11.80    0.88
  10  -6  -3    1.24    0.98
  10  -4  -6    1.31    0.99
  11  -5  -5   -0.01    0.92
  14  -6  -4    0.13    1.01
  15  -1  -7    0.93    0.91
  16  -6  -4   -0.45    1.12
  16   0  -6   41.90    1.35
  19  -3  -7    0.77    1.39
  20  -4  -6    0.83    1.25
  20  -2  -7    5.10    1.36
  21  -1  -6    0.47    1.04
   4  -2  -4   21.57    0.67
   7  -1  -5    9.81    0.71
   8  -4  -5    0.91    0.93
   9  -3  -6    4.47    0.83
  13  -5  -5   -0.89    1.17
  14  -2  -7   21.54    1.49
  15  -5  -5    1.02    1.10
  15  -3  -7    0.17    0.91
  17  -3  -7    0.03    1.05
  18  -4  -6    0.38    1.27
  20   0  -5    0.25    0.84
  21  -3  -6    1.45    1.53
  22  -2  -6    1.20    1.33
  23  -1  -5   -0.28    1.26
  24  -2  -5    0.16    1.50
  25  -1  -4    8.23    1.43
   2  -4  -2    4.88    0.52
   6  -4  -4   41.86    1.30
   9  -5  -4    0.92    0.86
  10  -2  -6    1.96    0.83
  11  -1  -6   17.81    0.92
  12  -6  -3   -0.90    0.99
  14  -6  -3   -0.26    0.97
  15   1  -4    6.91    0.71
  16  -6  -3    0.07    1.02
  16  -4  -6   10.39    1.35
  19  -3  -6   10.39    1.43
  19  -1  -6   17.25    1.41
  20  -2  -6    3.51    1.45
   3  -3  -3   43.30    1.02
   4  -4  -3    0.64    0.61
   5  -3  -4  207.37    1.99
   7  -5  -3    1.25    0.88
  10  -6  -2    1.37    0.84
  10  -4  -5    0.34    1.03
  11  -5  -4   -1.22    1.05
  15  -1  -6    8.27    1.09
  16   0  -5    8.64    1.00
  17  -3  -6    5.92    1.28
  18   0  -5    5.87    0.99
  19  -5  -4    0.35    1.16
  20  -4  -5   -0.93    1.21
  21  -1  -5    0.16    1.29
  22  -2  -5   12.46    1.65
  23  -1  -4    0.78    1.28
  24  -2  -4   -0.21    1.55
  25  -1  -3    0.62    1.29
   5  -5  -2    4.72    0.84
  12  -6  -2    0.14    0.90
  12  -2  -6    0.53    0.97
  13  -5  -4    0.71    1.16
  13  -3  -6    3.76    0.91
  14  -2  -6   -0.16    1.11
  14   0  -5    4.60    0.73
  15  -5  -4    1.08    1.22
  15  -3  -6    4.36    1.03
  16  -6  -2   -0.58    1.03
  16  -4  -5    2.85    1.10
  16  -2  -6   29.13    1.52
  18  -4  -5    1.03    1.46
  20   0  -4   -0.11    0.87
  21  -3  -5    0.08    1.37
   9  -5  -3    2.42    0.91
   9  -1  -5  149.76    1.65
  14  -4  -5    0.42    1.10
  19  -5  -3   -0.56    1.32
  19  -3  -5   12.02    1.61
  19  -1  -5   26.69    1.56
  20  -4  -4   -0.12    1.32
  20  -2  -5    0.26    1.32
  24  -2  -3    1.12    1.39
  25  -1  -2   -0.01    1.29
  11  -5  -3   14.01    1.28
  11  -3  -5    0.20    0.91
  11  -1  -5    0.80    0.68
  11   1  -3  105.16    1.22
  15  -5  -3    0.73    1.14
  16  -6  -1    0.30    0.99
  17  -3  -5    1.62    1.26
  17  -1  -5    1.46    1.08
  18  -4  -4    0.06    1.43
  18   0  -4    1.85    0.94
  21  -1  -4    2.20    1.43
  23  -1  -3    1.31    1.24
   2   2   7   -0.58    0.55
   2   4  10    4.96    0.72
   4   4  10    1.23    0.77
   7   5  10    1.19    0.83
   8   2   6    3.15    0.68
   8   4   9    8.79    0.88
   8   6  10   -0.17    0.98
   9   1   3  119.06    1.39
  11   3   7    2.03    0.56
  13   1   1    4.85    0.71
  13   3   6    0.69    0.77
  14   0  -4    3.21    0.46
  16   2   2    0.63    0.74
  17   3   3    1.96    0.93
  18   2   0   -1.49    0.80
  20   2  -2    0.68    0.78
  21   3  -1    0.34    0.81
   5   5  10    5.21    0.84
   9   5   9    3.42    1.02
  10   2   5   21.83    1.00
  12   2   4   13.49    0.96
  12   6   8    0.54    0.99
  14   2   3    1.02    0.89
  14   4   6    2.84    0.86
  16   4   5    0.33    0.89
  17   5   5    1.42    0.92
  18   4   3    0.57    0.99
  19   3   1    5.85    0.95
   5   3   8    2.80    0.66
   6   4   9    1.56    0.86
   9   3   7   27.97    1.16
  11   5   8    0.60    1.07
  12   0  -3    4.00    0.51
  12   4   7    0.72    0.80
  13   3   5    2.24    0.80
  15   1  -1    0.96    0.73
  15   3   4   17.77    1.10
  15   5   6    0.67    0.94
  16   2   1   19.50    0.99
  17   1  -3    3.77    0.75
  18   2  -1    4.55    0.78
  20   2  -3    0.04    0.75
  20   4   1    0.84    0.88
  21   3  -2    1.80    0.89
  -1   3   8    7.11    0.59
   6   2   6    0.74    0.50
   7   1   3   32.94    0.80
   7   5   9   -1.26    0.73
   8   6   9    1.09    0.97
  11   3   6    1.29    0.52
  13   1   0   40.07    1.02
  14   0  -5    4.40    0.46
  17   5   4    0.44    1.01
  19   3   0   -0.10    0.94
   0   4   9    2.81    0.65
   1   3   8   15.02    0.69
   2   4   9    3.45    0.79
   3   3   8   58.65    1.08
   4   4   9   21.97    0.93
   6   6   9    1.59    0.89
   8   4   8    8.01    0.85
   9   1   2  325.21    2.10
   9   5   8    1.08    0.81
  10   6   8    7.56    0.99
  12   4   6    4.76    0.91
  12   6   7    0.25    0.92
  14   4   5    9.87    1.04
  15   1  -2    5.65    0.78
  15   3   3   18.78    1.14
  15   5   5    4.35    1.13
  17   1  -4    1.54    0.69
  18   4   2   -0.19    0.90
  20   2  -4    0.41    0.69
  21   3  -3   -0.22    0.86
   5   5   9    1.80    0.74
   9   3   6   30.22    1.11
  10   2   4    5.26    0.75
  11   5   7    1.18    1.00
  13   3   4    8.07    0.92
  13   5   6    0.07    0.92
  16   2   0    3.61    0.73
  16   4   3   -0.16    1.01
  18   2  -2    1.62    0.73
  19   3  -1    0.41    0.89
  20   4  -1    1.70    0.98
   2   2   6   57.23    0.86
   3   5   9    0.14    0.81
   6   4   8   28.64    1.14
   8   6   8    1.37    1.00
   9   7   7    0.89    0.96
  10   6   7    0.23    1.01
  12   0  -4   39.04    0.73
  12   6   6    1.58    1.04
  13   1  -1   -0.59    0.65
  14   4   4    1.16    0.92
  15   5   4    5.94    1.14
  18   4   1    0.51    0.85
  20   2  -5    0.50    0.74
  21   3  -4    1.61    0.87
  22   4  -4    0.88    0.99
   5   3   7   20.54    0.81
   6   2   5   31.36    0.91
   8   4   7   -0.30    0.68
   9   5   7    7.08    0.91
  10   4   6    4.03    0.78
  12   4   5    6.81    0.95
  13   5   5    1.21    1.09
  15   1  -3    6.38    0.75
  15   3   2    4.88    0.83
  16   2  -1    0.40    0.76
  16   4   2    0.40    0.94
  17   1  -5    2.83    0.68
  17   3   0   10.30    1.02
  17   5   2   -0.49    1.07
  18   2  -3    1.72    0.74
  19   3  -2   -1.04    0.90
  20   4  -2   -0.12    0.85
   3   3   7   11.78    0.71
   4   4   8   15.18    0.85
   5   5   8    0.19    0.73
   6   6   8    5.85    0.93
   7   1   2    6.49    0.59
   7   3   6   35.85    1.05
   8   2   4   92.93    1.34
  10   2   3    3.24    0.70
  11   1   0    4.13    0.69
  12   2   2    5.49    0.72
  13   3   3    0.93    0.73
  15   5   3    5.98    0.98
  21   3  -5    0.05    0.74
  22   4  -5    4.06    1.01
   2   4   8    7.78    0.72
   6   4   7   21.65    0.99
   8   6   7    0.32    0.77
   9   1   1    0.67    0.56
   9   3   5    1.18    0.76
   9   7   6    1.36    0.95
  10   6   6    0.30    1.02
  11   3   4   14.98    0.97
  12   6   5    1.30    0.91
  13   5   4    1.48    1.08
  14   2   0    0.58    0.78
  15   3   1    0.13    0.80
  17   1  -6   15.29    0.82
  17   3  -1   29.11    1.19
  17   5   1   -0.52    0.98
  18   2  -4    3.00    0.74
  19   3  -3    0.22    0.85
  19   5  -1   -0.71    1.01
  20   4  -3    1.15    0.95
  21   3  -6    1.03    0.85
  22   4  -6    0.93    0.95
  -1   3   7   60.27    0.89
   0   4   8    0.37    0.54
   1   3   7   62.96    1.00
   3   5   8   14.60    0.86
   7   5   7    9.69    0.96
   9   5   6    6.08    0.96
  12   0  -5    8.75    0.47
  12   4   4    7.60    0.96
  13   1  -2    1.79    0.58
  15   1  -4    7.47    0.71
  16   2  -2   -0.19    0.72
  16   4   1    6.69    1.01
   5   3   6    3.61    0.61
   6   6   7    4.55    0.91
   7   7   6    1.46    0.89
   8   6   6    0.45    0.78
   9   7   5   -0.01    0.92
  10   6   5    1.11    0.97
  12   2   1    5.43    0.71
  12   6   4    1.26    1.02
  13   3   2    1.08    0.68
  14   4   2    0.85    0.85
  15   5   2    1.40    0.88
  17   5   0    2.73    1.04
  18   2  -5    3.45    0.69
  19   3  -4   -0.38    0.85
  19   5  -2   -0.52    1.06
  20   4  -4   -0.03    0.90
  21   3  -7   -0.40    0.83
  22   4  -7    0.43    0.90
   4   4   7   51.88    1.15
   5   5   7    2.53    0.73
   6   2   4    0.85    0.44
   7   3   5    2.32    0.65
   8   2   3   11.80    0.72
   9   3   4    1.24    0.77
  10   2   2    2.22    0.64
  11   1  -1    8.42    0.65
  11   3   3   10.80    0.98
  13   5   3   -0.22    0.94
  14   2  -1   44.68    1.19
  14   6   2    0.03    0.94
  15   3   0    1.32    0.73
  16   2  -3    0.11    0.76
  16   4   0    1.80    0.91
  17   3  -2    2.79    0.82
  18   4  -2    1.02    0.98
   4   6   7   11.95    0.97
   6   4   6   -0.13    0.75
   7   5   6    8.34    0.85
   9   5   5   -0.14    0.77
  10   4   4    1.18    0.75
  12   4   3   55.20    1.43
  13   1  -3    6.88    0.59
  15   1  -5    3.02    0.60
  15   5   1    1.49    0.99
  18   2  -6   -0.56    0.68
  19   3  -5   11.70    0.99
  20   4  -5    0.05    0.89
  21   3  -8    0.16    0.80
   2   4   7    0.52    0.56
   3   5   7    2.73    0.73
   6   6   6   -0.76    0.86
   7   1   1   15.90    0.56
   7   7   5    0.73    0.72
   8   6   5    1.02    0.84
   9   7   4    0.44    0.91
  10   6   4    0.51    0.88
  12   0  -6    1.08    0.42
  12   2   0    0.34    0.69
  13   3   1    1.60    0.49
  13   5   2    0.49    0.78
  14   4   1    0.08    0.91
  14   6   1   -0.35    0.85
  16   4  -1    0.25    0.76
  17   3  -3    1.69    0.81
  18   4  -3    0.37    0.97
  20   4  -6    1.25    0.90
  22   4  -9   -1.31    0.97
   0   4   7   40.79    0.92
   4   2   4   70.12    0.96
  11   3   2    0.11    0.72
  11   5   3    1.05    0.79
  12   4   2    1.58    0.80
  14   2  -2  118.61    1.63
  15   5   0   -0.12    0.98
  16   2  -4    4.41    0.81
  17   5  -2    0.63    0.92
  19   3  -6    8.05    0.97
   1   3   6   84.37    1.04
   4   4   6   45.75    1.08
   4   6   6   11.57    0.96
   5   5   6    0.21    0.60
   6   2   3    4.60    0.53
   7   3   4    8.78    0.69
   7   5   5    0.73    0.67
   7   7   4   -0.16    0.84
   9   3   3   66.77    1.28
   9   5   4    1.05    0.73
   9   7   3    5.06    1.00
  10   2   1    4.37    0.60
  10   4   3    1.80    0.72
  11   1  -2  326.63    2.00
  13   3   0   19.43    0.92
  14   4   0   -0.38    0.79
  14   6   0    0.19    0.97
  15   1  -6    7.63    0.62
  17   3  -4   -0.30    0.77
  18   2  -7   -0.14    0.66
  18   4  -4    2.41    0.96
  19   5  -5    4.13    1.02
  20   4  -7    1.51    0.91
   6   4   5    8.25    0.80
   6   6   5    1.01    0.82
   8   6   4    3.98    0.94
  10   6   3    0.73    0.84
  13   1  -4    5.73    0.57
  13   5   1    0.76    0.83
  15   5  -1   -0.95    0.98
  16   2  -5    6.06    0.81
  16   4  -2   -0.61    0.80
  17   5  -3    0.17    0.89
  19   3  -7    2.06    0.80
   3   3   5    2.22    0.67
   3   5   6   11.90    0.89
   9   7   2    5.17    1.04
  11   3   1    4.89    0.75
  11   5   2    1.58    0.80
  12   4   1    0.02    0.78
  14   2  -3    3.50    0.69
  17   3  -5    0.89    0.68
  18   2  -8   -0.01    0.64
  18   4  -5    0.77    1.00
  19   5  -6    4.33    0.88
  20   4  -8    0.08    0.87
   4   6   5    2.96    0.80
   5   5   5    0.73    0.70
   7   1   0   33.35    0.69
   7   5   4    0.81    0.74
   7   7   3   -0.12    0.87
   9   3   2  136.53    1.66
  10   6   2    0.10    0.90
  13   3  -1    0.12    0.70
  13   5   0    6.21    0.91
  14   4  -1   14.91    1.11
  15   1  -7    1.46    0.55
  15   3  -3    2.67    0.78
  15   5  -2    0.99    0.83
  17   5  -4    1.20    0.94
  19   3  -8    1.43    0.68
  19   5  -7    0.91    0.81
  20   4  -9    1.37    0.80
   4   4   5   19.88    0.86
   6   6   4   -0.54    0.80
   7   3   3   13.50    0.74
   8   4   3    5.16    0.90
   8   6   3    1.91    0.88
  11   1  -3  105.28    1.21
  12   6   0    0.21    0.97
  13   1  -5    0.53    0.49
  16   2  -6   27.66    1.02
  17   3  -6    8.41    0.92
  18   2  -9    0.04    0.67
  18   4  -6    0.30    0.85
  19   3  -9   -0.08    0.65
   0   4   6   -0.36    0.48
   4   2   3   10.80    0.56
   6   2   2  262.77    1.77
   6   4   4    0.01    0.68
   7   7   2   -0.07    0.78
   8   2   1   36.05    0.93
   9   7   1   -0.69    1.05
  11   3   0    1.38    0.76
  11   5   1    3.36    0.79
  12   4   0    0.03    0.82
  13   5  -1    0.30    0.82
  14   2  -4    0.07    0.69
  14   6  -2   10.22    1.07
  15   5  -3    2.02    0.94
  17   5  -5   -0.16    0.95
  18   4  -7    0.35    0.87
  19   5  -8    0.66    0.96
  20   4 -10    0.07    0.89
  14  -2  -7   20.46    1.11
  16  -2 -10    0.75    0.79
  16  -2  -9    0.79    0.84
  16  -2  -8    0.85    0.77
  16  -2  -6   27.88    1.24
  16  -2  -5    5.98    0.93
  18  -2  -9    0.28    0.81
  18  -2  -8    0.46    0.91
  18  -2  -7    0.10    0.91
  18   0  10    0.76    1.02
  19  -1   5    1.56    0.94
  20   0   9    1.31    1.10
  22   0   8    0.43    1.03
  23  -1   2    2.09    1.13
  10   0  10   -0.07    0.69
  11  -1   5   56.72    1.29
  13  -1   5    4.98    0.87
  16   0  10   36.30    1.40
  19  -1   4    0.53    1.06
  21  -1   3    0.62    1.07
  23  -1   1   10.25    1.35
   6   0   8  130.51    1.36
   7  -1   2    6.73    0.64
   8   0   9   50.52    1.02
  12   0  10    4.80    0.85
  14   0  10    6.01    0.94
  17  -1   4    3.23    1.06
  18   0   9   -0.68    1.07
  19  -1   3   -0.42    1.04
  20   0   8    0.13    1.06
  21  -1   2    0.29    1.17
  21   1  11    1.29    0.84
  22   0   7    0.51    1.12
  23  -1   0    2.95    1.19
   9  -1   3  118.96    1.54
  11  -1   4   26.22    0.96
  13  -1   4   18.83    1.07
  15  -1   4   37.59    1.32
  16   0   9    0.35    0.92
  19  -1   2    2.88    1.03
  21  -1   1   -0.70    1.25
  22   0   6    2.12    1.02
  23  -1  -1    1.97    1.12
  25  -1  -6    0.42    1.07
  25  -1  -5    1.00    1.17
   7  -1   1   14.46    0.70
  10   0   9   76.94    1.33
  11  -1   3   24.51    0.95
  12   0   9    3.59    0.92
  14   0   9   26.05    1.21
  15  -1   3   38.85    1.32
  18   0   8    2.12    1.01
  19   1  11   14.03    1.23
  20   0   7    2.97    1.17
  21  -1   0   -0.30    1.15
  21   1  10    0.98    0.88
  23  -1  -3   -0.34    1.22
  23  -1  -2    0.43    1.02
  25  -1 -11   -0.07    1.05
  25  -1  -9    2.88    1.13
  25  -1  -8   -0.56    1.04
   9  -1   2  325.54    2.31
  13  -1   3    2.92    0.87
  16   0   8    8.72    1.02
  19  -1   1   13.32    1.23
  21  -1  -1   -0.03    1.16
  23  -1  -5   -0.39    1.09
  24   0   3    0.48    1.15
   7  -1   0   34.01    0.80
   8   0   8   56.17    1.07
  11  -1   2    0.17    0.73
  13  -1   2    4.06    0.90
  14   0   8    4.18    0.91
  17  -1   1   -0.53    0.93
  17   1  11    1.66    0.94
  18   0   7    0.01    1.04
  21  -1  -3    0.64    1.03
  21   1   9    1.62    0.89
  22   0   4   -0.03    1.26
  23  -1 -11    0.90    0.96
  23  -1  -9    4.15    1.13
  23  -1  -8   -0.66    0.97
  23  -1  -6    0.45    1.16
  24   0   2    0.12    1.20
   7  -1  -1   41.40    0.84
   9  -1   1   -0.19    0.65
  10   0   8   99.84    1.51
  12   0   8   23.53    1.14
  15  -1   1    1.50    1.06
  16   0   7    0.35    0.91
  17  -1   0   21.91    1.26
  19  -1  -2    1.52    0.95
  19  -1  -1   -0.05    1.01
  19   1  10    0.63    0.93
  21  -1  -5    0.03    1.11
  23  -1 -10    1.01    0.91
  23   1   7    0.96    1.15
  24   0   1    1.82    1.05
   9  -1   0   12.93    0.77
  11  -1   1   10.59    0.81
  13  -1   1    6.16    0.88
  15  -1   0    0.89    1.01
  17  -1  -1   62.59    1.74
  19  -1  -3    0.22    1.03
  21  -1  -7   -0.41    0.96
  21  -1  -6    0.49    1.12
  22   0   3    2.94    1.08
  24   0   0    0.32    1.11
   7   1  11    0.96    0.50
  11  -1   0    4.47    0.84
  12   0   7    2.50    0.77
  14   0   7   -0.31    0.94
  15  -1  -1    2.42    0.95
  16   0   6    0.71    0.96
  17  -1  -2    4.47    1.02
  17   1  10    3.47    0.94
  19   1   9    0.30    1.05
  20   0   4    1.65    1.03
  21  -1 -12   -0.17    0.87
  21  -1 -11    8.96    1.12
  21  -1 -10    6.48    1.19
  21  -1  -9    0.75    1.10
  21  -1  -8    0.49    0.93
  22   0   2    5.90    1.27
  23   1   6    0.33    1.17
  24   0  -1   -0.19    1.24
   9  -1  -1    6.65    0.74
   9   1  11   19.86    0.83
  10   0   7   12.29    0.78
  13  -1  -1    0.63    0.84
  15  -1  -2    4.92    1.00
  15   1  10    0.60    0.85
  17  -1  -3    3.02    0.99
  19  -1  -7    2.25    0.94
  19  -1  -6   18.68    1.36
  20   0   3    0.34    1.13
  21   1   7    2.54    1.18
  22   0   1    0.00    1.24
  23   1   5   -0.74    1.04
  24   0  -2    3.04    1.21
   9  -1  -2    5.16    0.71
  11  -1  -1    7.79    0.66
  13  -1  -2    1.01    0.79
  15  -1  -3    8.48    1.09
  17  -1  -5    2.61    0.93
  17   1   9    2.35    1.06
  18   0   4   14.99    1.27
  19  -1 -11    4.51    1.01
  19  -1 -10    0.11    0.96
  19  -1  -9   -0.97    0.94
  19  -1  -8    1.28    0.96
  20   0   2    0.97    1.09
  22   0   0    0.61    1.31
  22   2   9    0.57    1.13
  24   0  -3    0.67    1.25
   8   0   6    2.26    0.66
   9  -1  -3   37.48    0.95
  10   0   6   20.86    0.93
  11  -1  -2  310.34    2.47
  12   0   6   23.04    1.06
  13  -1  -3    6.47    0.85
  17  -1 -12    1.91    0.89
  17  -1  -7   -0.05    0.85
  17  -1  -6   16.17    1.10
  20   2  10    1.04    0.95
  21   1   6   10.35    1.21
  22   0  -1    0.19    1.30
  23   1   4    1.77    1.19
  24   0  -4   -0.01    1.11
  11  -1  -3  101.07    1.54
  15  -1  -6    8.36    0.98
  15  -1  -5    3.00    0.93
  15   1   9    1.65    0.87
  16   0   4    3.64    0.98
  17  -1 -11    0.69    0.85
  17  -1 -10    4.95    0.98
  17  -1  -9    0.01    0.92
  17   1   8    3.11    1.01
  19   1   7    2.99    1.01
  20   0   1    4.88    1.14
  21   1   5    4.74    1.26
  22   0  -2   -0.09    1.30
  22   2   8   -0.75    1.13
  24   0  -7    1.02    1.24
  24   0  -6    0.03    1.18
   9  -1  -5  143.82    1.48
   9   1  10    7.29    0.69
  13  -1  -5    0.16    0.75
  15  -1 -12   42.48    1.23
  15  -1 -11    2.05    0.84
  15  -1  -8    1.81    0.91
  15  -1  -7    2.48    0.89
  18   0   2    1.49    1.02
  19   1   6    1.14    0.97
  20   0   0   35.11    1.62
  20   2   9    0.58    0.94
  22   0  -3    0.72    1.31
  23   1   2    0.49    1.08
  24   0 -13    0.09    1.09
  24   0 -12   -0.84    1.09
  24   0 -11    0.31    1.10
  24   0 -10    7.96    1.24
  24   0  -9    1.09    1.22
  24   0  -8   -1.34    1.07
   9  -1 -11    2.01    0.54
   9  -1  -6   14.13    0.73
  11  -1  -6   17.27    0.86
  11  -1  -5    1.32    0.69
  13  -1 -12   11.23    0.78
  13  -1 -11   -0.22    0.71
  13  -1  -8   42.74    1.22
  13  -1  -7  102.64    1.58
  13  -1  -6   13.03    0.89
  14   0   4   13.55    1.10
  15   1   8   -0.49    0.78
  17   1   7   -1.10    0.96
  18   0   1    3.76    1.13
  18   2  10    0.67    0.83
  20   0  -1    4.51    1.23
  21   1   4    0.38    1.30
  22   0  -4    7.40    1.28
  22   2   7    0.98    0.98
   9  -1 -10   26.08    0.70
   9  -1  -9   16.29    0.68
   9  -1  -8    2.16    0.55
   9  -1  -7   68.15    1.08
  11  -1 -11    1.78    0.53
  11  -1 -10   22.42    0.81
  11  -1  -9   14.74    0.81
  11  -1  -8   16.20    0.78
  11  -1  -7   22.60    0.84
  11   1   9    5.18    0.84
  12   0   4   21.64    1.08
  13  -1 -10    9.80    0.82
  13  -1  -9    0.64    0.73
  14   0   3   -0.26    0.84
  16   0   2    2.63    0.84
  18   0   0   -0.05    1.00
  19   1   5    1.84    1.03
  20   2   8    0.76    1.06
  22   0  -6    1.54    1.28
  22   2   6    0.15    1.04
  23   1   1    9.99    1.27
  10   0   4   15.60    0.85
  16   0   1   33.52    1.26
  18   0  -1    7.19    0.96
  18   2   9   -0.08    0.89
  20   0  -4    0.50    0.98
  22   0 -13    3.59    1.15
  22   0 -12    0.66    1.09
  22   0 -11   -0.19    1.10
  22   0 -10    0.46    1.14
  22   0  -9    1.75    1.11
  22   0  -8   -0.01    1.03
  23   1   0    4.00    1.26
   7   1   9    0.43    0.49
   8   0   4  128.57    1.40
  12   0   3  220.87    2.22
  13   1   8   13.20    0.91
  14   0   2    4.68    0.96
  15   1   7   10.48    0.97
  20   2   7    3.44    1.03
  21   1   2    1.28    0.98
  22   2   5   -0.59    1.08
  23   1  -1    0.59    1.13
  11   1   8   12.51    0.84
  16   0   0    2.53    0.91
  17   1   5    0.96    0.86
  18   0  -3    3.64    0.87
  18   0  -2    1.86    0.84
  18   2   8    1.15    0.98
  20   0  -7    7.58    1.06
  21   1   1   -0.04    1.14
  21   3   8   -0.26    0.93
  22   2   4    0.34    1.07
  23   1  -2   -0.15    1.06
  10   0   3    1.55    0.69
  12   0   2    8.96    0.78
  13   1   7    3.44    0.79
  14   0   1    0.50    0.78
  14   2  10    4.44    0.76
  15   1   6    1.22    0.76
  16   0  -1    0.49    0.77
  16   2   9    1.57    0.78
  18   0  -4    2.58    0.81
  20   0 -13    0.58    0.82
  20   0 -12   -0.53    0.76
  20   0 -11    1.07    0.78
  20   0 -10    0.54    0.86
  20   0  -9    1.80    0.93
  20   0  -8    0.30    0.84
  20   2   6    2.33    1.07
  23   1  -4    0.77    1.06
  23   1  -3    1.10    0.89
   9   1   8    0.32    0.46
  14   0   0    0.64    0.67
  16   0  -2    0.19    0.76
  18   2   7    0.35    0.81
  19   1   2    3.04    0.84
  21   1  -1   -0.52    0.95
  22   2   3    1.49    0.89
  23   1  -5    1.20    0.95
  -9   1   8    1.89    0.65
   6   0  -9   28.01    0.80
  -8  -2  -4   88.21    1.17
  -8   0   5    3.61    0.35
  -5  -1   0    2.73    0.24
   0   2   5  124.10    1.25
   1  -1  -6  161.07    1.32
   1   1   2    7.03    0.37
   4   2   1    5.12    0.43
 -10  -2  -3    2.77    0.50
  -7   1   7   16.34    0.69
  -3   1   5   61.00    0.77
   3  -1  -9   24.55    0.83
 -11   1   8   15.76    0.64
   5   3   1    0.67    0.47
  -6   0   4  281.05    1.04
  -4  -2  -6  136.80    1.49
  -4   2   7   32.78    0.91
  -1  -1  -3   40.14    0.61
   3   3   3    1.85    0.60
   6   0  -8   64.17    0.83
   8   2  -5    4.17    0.18
   9   1 -10   25.20    0.49
  -8  -2  -3   11.17    0.60
  -6  -2  -4    1.65    0.64
   1  -1  -5   20.17    0.56
   3  -1  -8    6.29    0.62
   7   3  -2   11.69    0.47
 -10  -2  -2    2.53    0.38
  -3  -1  -1  799.18    1.82
   6   2  -2    1.86    0.26
  -9   1   7   66.14    0.98
  -4  -2  -5   74.36    1.09
 -10   0   5    7.95    0.40
  -1   1   3    1.18    0.35
   5   3   0    1.56    0.52
   8   0 -11    4.82    0.54
 -11   1   7   20.43    0.72
  -7   1   6   51.01    0.83
  -2  -2  -6   60.23    1.05
   3   3   2    3.10    0.62
   5  -1 -10   10.37    0.73
   9   1  -9   16.37    0.40
  -8  -2  -2   58.88    0.84
  -6  -2  -3    3.90    0.52
   4   2   0    0.48    0.30
  -4  -2  -4   71.34    1.01
  -3   1   4   82.39    0.81
   1  -1  -4   12.66    0.41
   3  -1  -6  252.47    1.52
   5  -1  -9  128.09    1.38
   7   3  -3    0.27    0.36
 -10  -2  -1    4.66    0.35
  -2  -2  -5   96.32    1.18
   0  -2  -7  142.76    1.49
  -9   1   6   13.44    0.61
   1   1   1    0.18    0.28
   3   3   1  364.93    2.10
  -8   0   4   82.48    0.64
  -6  -2  -2  274.30    1.61
  -4   2   5   42.03    0.88
  -2   2   4  235.77    1.64
   5   3  -1    2.52    0.44
 -11   1   6   17.38    0.66
  -4  -2  -3   10.82    0.57
   0  -2  -6   -0.10    0.65
  -8  -2  -1   36.84    0.63
  -2  -2  -4   37.06    0.81
   1  -1  -3    0.97    0.38
   3  -1  -5   63.41    0.79
   6   2  -3   15.54    0.38
   9   1  -8    1.83    0.26
   7  -1 -10  163.13    1.56
  -6   2   5  103.98    1.30
  -5   1   4  487.50    1.88
   0  -2  -5  125.10    1.32
   0   2   2    0.38    0.48
   2  -2  -7    6.85    0.58
   3   3   0  179.85    1.46
   7   3  -4    0.51    0.32
 -10   0   4    1.98    0.36
  -9   1   5  145.66    1.29
  -6   0   3   40.87    0.42
  -3   1   3  139.28    0.96
   5   3  -2   33.73    0.67
  -4  -2  -2    1.18    0.42
  -2   2   3    7.78    0.58
   7  -1  -9  124.25    1.32
  -6  -2  -1  367.85    1.67
   1   3   1    1.08    0.60
   2  -2  -6   28.95    0.88
 -13   1   5    0.66    0.48
  -1  -1  -1    0.06    0.31
  -7   1   4    2.14    0.48
   0  -2  -4   48.38    0.89
  -6   2   4  149.45    1.46
   6   0  -5  216.88    1.01
   7  -1  -8   94.51    1.18
  -8  -2   0   11.19    0.41
  -7  -3  -3   14.38    0.68
   7   3  -5    3.55    0.36
  10   0 -10    0.26    0.39
  -4   0   2   39.21    0.31
  -4   2   3    0.72    0.52
   0   2   1    7.45    0.45
   2  -2  -5  399.34    2.22
   5   3  -3   97.72    0.98
  -9   1   4    0.07    0.50
  -5   1   3  229.30    1.29
  -2   2   2   15.95    0.61
   1   3   0    2.05    0.56
   8   0  -7    8.62    0.43
   9  -1 -10   24.43    0.76
 -13   1   4    5.55    0.69
 -11   1   4    1.10    0.55
  -4  -2  -1    5.99    0.41
  -8   0   3  525.46    1.49
  -5  -3  -3  146.36    1.45
   0  -2  -3    0.55    0.50
   1   1   0    9.03    0.30
   4  -2  -6    5.44    0.63
   7  -1  -7   16.39    0.61
  -6   2   3   15.89    0.71
  -3   1   2   92.47    0.78
   3   3  -2   20.94    0.65
  -7  -3  -2    2.63    0.43
  -6  -2   0   17.57    0.46
  -1   1   1    2.11    0.33
   2  -2  -4  240.30    1.63
   3  -1  -3  139.25    0.95
   9  -1  -9   15.12    0.67
  10   0  -9   90.48    0.89
 -10   0   3    2.55    0.36
  -7   1   3    2.91    0.41
  -4   2   2   39.78    0.82
   1   3  -1    0.15    0.56
 -12   0   3    4.30    0.37
  -8   2   3  407.19    2.48
  -3  -3  -3    0.83    0.60
  -1   3   0    2.05    0.62
  -5  -3  -2   22.35    0.71
  -2   2   1   10.81    0.54
   0   2   0 1000.00    2.70
   4  -2  -5   42.03    0.87
 -13   1   3    5.48    0.57
 -11   1   3   98.76    1.20
   0  -2  -2    0.26    0.41
   7  -1  -6   49.90    0.75
  -6   2   2    1.67    0.63
   5  -1  -4  487.47    1.82
   8   0  -6   10.47    0.37
   9  -1  -8    1.77    0.47
  -7  -3  -1    7.72    0.50
  -4  -2   0   -0.21    0.35
   2  -2  -3    7.76    0.55
  -3  -3  -2    3.03    0.58
  -1   3  -1    0.91    0.64
  -8  -2   1   20.09    0.42
  -4   2   1   50.39    0.95
  -1  -1   0    8.98    0.30
   1  -1  -1    1.98    0.35
   4  -2  -4   21.89    0.71
   4   2  -3    0.10    0.24
  10   0  -8  118.39    0.92
  -6   0   2    8.22    0.26
  -5  -3  -1    0.20    0.47
 -13   1   2    2.37    0.68
  -2   2   0    6.38    0.53
   9  -1  -7   66.65    0.97
  -6   2   1   -0.08    0.66
  -3   1   1  156.96    0.98
   3  -1  -2   93.07    0.74
   7  -1  -5    9.88    0.51
  -4   2   0   -0.34    0.52
  -3   3  -4   12.73    0.74
   0   2  -4   47.00    0.63
   5  -1  -5  103.63    1.04
  -6   2   1    0.14    0.61
  -3   1   1  159.39    1.01
  -1   3  -7   66.33    0.95
   1  -3   0    2.21    0.56
 -10   0   6    1.21    0.55
  -3   3  -5    2.76    0.60
   4  -2  -3   -0.12    0.37
 -11  -1   7   21.59    0.52
   2   2  -7    6.35    0.30
   3  -1  -2   93.60    0.82
  -5  -3   5   53.00    0.63
  -5   1   2   84.80    0.88
  -4   0   3    1.77    0.21
  -4   2  -1    5.31    0.55
  -7   1   3    3.06    0.38
  -6   0   4  281.58    1.29
  -6   2   0   16.74    0.80
  -1   3  -8   15.65    0.62
   5   1  -8    8.82    0.23
 -12   0   6    0.37    0.49
  -3  -3   4   27.09    0.55
  -3   3  -6   61.80    1.04
  -1  -1   2  254.03    0.76
   1  -3   1    1.66    0.52
   2  -2   0    7.60    0.45
   5  -1  -4  494.69    1.97
   7  -1  -7   15.72    0.63
  -2  -4   3    0.70    0.42
   0   2  -5  121.13    0.89
  -9  -1   6   13.84    0.42
  -1   3  -9   15.82    0.63
   6  -2  -4  149.29    1.47
 -10   0   5    8.79    0.63
  -1  -3   3    1.01    0.37
  -6   2  -1  345.00    2.14
 -12   0   5    9.63    0.70
  -7   1   2   17.73    0.65
  -5   1   1    5.99    0.42
  -3   1   0  443.30    1.62
   7   1 -11   69.56    0.57
  -2   2  -4   37.82    0.70
  -1   3 -10   25.27    0.71
   1  -3   2    1.22    0.45
   2   2  -8   95.65    0.71
   3  -1  -1  161.43    1.03
   4  -2  -1   51.01    0.85
   5  -1  -3  232.79    1.37
 -11  -1   6   17.06    0.57
  -8   0   4   82.56    0.93
  -2  -4   4   67.12    1.04
   0   2  -6    0.28    0.36
   2  -2   1   40.50    0.66
   6  -2  -3   14.11    0.61
  -7  -1   5    9.55    0.33
  -6   2  -2  261.79    1.97
  -4   2  -3   10.26    0.62
   9  -1  -8    2.01    0.56
 -10   0   4    2.53    0.54
  -7   1   1   40.81    0.89
  -3  -3   5   24.30    0.53
  -2  -2   4  252.09    1.11
 -12   0   4   37.56    0.96
  -2   2  -5   95.11    1.04
  -1  -3   4    6.73    0.44
   6  -2  -2    1.69    0.62
  -9   1   1    4.70    0.67
  -6   2  -3    3.97    0.51
  -5   1   0    2.59    0.41
  -1   1  -2    7.15    0.31
   0  -2   3    0.57    0.28
   1  -3   3    7.85    0.55
   4  -2   0   -0.01    0.36
   9  -1  -7   65.99    1.06
  -5  -3   6    0.52    0.25
  -3   1  -1  751.71    2.19
   5  -1  -2   87.33    0.90
  -9  -1   5  152.24    1.11
  -8  -2   6   10.72    0.24
  -4   0   2   42.38    0.47
   0   2  -7  147.99    1.08
   2   2  -9   32.53    0.50
   3  -3   2    4.02    0.58
 -11  -1   5    0.77    0.49
  -8   0   3  541.53    2.29
 -10   0   3    2.85    0.59
  -7   1   0   33.82    0.84
  -2   2  -6   59.16    0.89
   6  -2  -1    0.84    0.63
   9  -1  -6   14.49    0.69
  -2   0   1    8.05    0.16
   4  -2   1    5.30    0.51
  -5   1  -1    1.05    0.39
  -1  -3   5    3.05    0.45
   0   2  -8    0.49    0.36
   1  -3   4    0.23    0.49
   7  -1  -3    3.15    0.51
 -13  -1   4    5.36    0.66
  -4   2  -6  139.37    1.43
  -2   2  -7   -0.28    0.48
   2   2 -10   20.05    0.45
   3  -3   3    1.45    0.57
   9  -1  -5  143.47    1.45
  -7   1  -1   14.99    0.59
  -3   1  -2    6.81    0.41
   6  -2   0   15.94    0.63
 -11  -1   4    0.34    0.50
  -4   2  -7  137.96    1.45
   0  -2   4   47.11    0.63
   8   0  -6    9.64    0.53
  -9  -1   4    0.42    0.42
  -7  -1   4    2.34    0.28
  -2   2  -8   34.64    0.78
   1  -1   2    6.95    0.33
   4  -2   2    0.70    0.33
   7  -1  -2   16.72    0.64
  -7   1  -2    7.29    0.65
  -4   2  -8   51.54    1.07
   1  -3   5  239.16    1.74
   2   2 -11    4.88    0.35
   3  -3   4   11.16    0.70
   3  -1   1  782.65    2.28
  -2   2  -9   18.70    0.69
   0   2 -10    1.50    0.46
   5  -1   0    2.27    0.40
  -4   0   1  107.28    0.75
  -6   0   1    4.02    0.36
  -2   2 -10   10.42    0.68
   7  -1  -1   42.05    0.88
   8   0  -5    3.35    0.47
   6  -2   2  264.56    2.04
 -10  -2   5    2.60    0.38
  -2   2 -11   60.40    1.12
  -1   1  -4    0.10    0.36
   0   2 -12   62.63    1.03
   9  -1  -2    5.73    0.73
  -5   1  -4    3.17    0.66
   8  -2 -11    2.42    0.58
   8  -2   3   12.20    0.75
  11  -5   8   -0.33    0.75
  11  -3  -9    4.79    0.84
  11  -3  -1    2.25    0.91
  11  -3   0    1.14    0.94
  12  -6   7    0.41    0.76
  12  -4 -12    1.95    0.85
  12  -4   2    1.37    0.86
  12  -4   3   54.98    1.56
  13  -5   3    0.61    1.16
  14  -6 -12   -0.06    1.01
  14  -6 -11   -0.66    0.94
  14  -6   1    0.42    1.17
   6  -2   8   96.25    1.34
   8  -4  12    0.11    0.54
   9  -3   7   28.75    1.12
  10  -6  12   -0.35    0.74
  11  -5   9    0.33    0.70
  11  -3 -10   13.37    0.89
  11  -3   1    4.89    0.92
  12  -6   8    0.07    0.88
  13  -5   4    0.80    1.12
  14  -6   3    0.23    1.03
   7  -3  11    0.03    0.45
   8  -2 -12   20.67    0.68
   8  -2   4   92.50    1.40
  11  -3 -11    1.14    0.66
  11  -3   2   -1.25    0.96
  12  -6   9   -0.35    0.84
  14  -6   4   -0.03    0.89
   6  -2   9    1.83    0.65
   9  -3   8    0.29    0.74
  10  -4  10    0.31    0.56
  11  -3 -12    5.12    0.72
  11  -3   3   12.04    1.09
  12  -6  10   -0.04    0.72
  13  -5   6    0.08    0.78
  14  -4  -7    6.25    0.92
  14  -4  -6   -0.07    0.93
  14  -4  -4    0.18    0.95
  14  -4  -3   -0.68    0.93
  15  -5  -9    1.85    1.09
  15  -5  -8    0.94    1.09
  15  -5  -2    1.90    1.15
   4  -2  12    4.49    0.50
   9  -3   9   12.06    0.81
  10  -2  -6    2.31    0.61
  10  -2  -4    0.33    0.69
  10  -2  -3    4.40    0.71
  10  -2  -2   11.48    0.74
  11  -3   4   15.72    1.14
  12  -4   6    6.08    0.89
  13  -5   7   -0.29    0.80
  14  -4  -9    3.46    0.94
  14  -4  -8    1.23    0.89
  14  -4  -2   40.39    1.50
  14  -4  -1   13.34    1.24
  14  -4   0    0.06    0.91
  15  -5 -10    0.79    1.00
  15  -5  -1   -0.76    1.03
  15  -5   0    0.98    1.12
   8  -2   6    2.25    0.61
  10  -2  -7   57.87    1.16
  10  -2  -1    4.06    0.72
  10  -2   0   51.14    1.13
  12  -4   7   -0.54    0.71
  14  -4 -11    0.94    0.86
  14  -4 -10    3.26    0.80
  14  -4   1    0.53    1.01
  15  -5 -12    6.16    1.08
  15  -5   1    0.15    0.95
  15  -5   2    1.13    1.10
   6  -2  10   18.94    0.74
   9  -3  10    5.37    0.83
  10  -2   1    5.52    0.74
  11  -5  12   -0.13    0.65
  13  -3  -8   18.90    1.16
  13  -3  -7   51.76    1.44
  13  -3  -6    5.17    0.95
  13  -3  -4    4.14    0.82
  13  -3  -3    2.92    0.88
  13  -3  -2    1.15    0.79
  13  -3  -1   -1.02    0.76
  14  -4 -12   -0.26    0.77
  14  -4   2    0.46    0.98
  15  -5   3    6.13    1.17
   7  -1  -3    2.85    0.48
   7  -1  -2   17.06    0.63
   8  -2   7   -0.55    0.59
  10  -4  12    0.16    0.55
  10  -2 -10    1.44    0.64
  10  -2   2    1.74    0.68
  13  -3  -9    0.19    0.82
  13  -3   0   18.93    1.05
  14  -4   3   -0.06    0.86
  14  -4   4    0.58    0.94
  15  -5   4    6.84    1.07
   7  -1  -1   42.78    0.84
   7  -1   0   34.73    0.78
   9  -3  11    6.78    0.85
  10  -2   3    2.57    0.70
  11  -3   7    2.09    0.81
  12  -4   9   -0.38    0.56
  13  -3 -10    4.44    0.88
  13  -3   1    1.23    0.57
  17  -5  -7   -0.40    1.10
  17  -5  -6    2.25    1.06
  17  -5  -5    0.07    1.05
  17  -5  -3    1.60    1.15
   6  -2  11    0.32    0.47
   7  -1   1   15.71    0.67
  10  -2 -11   16.43    0.72
  10  -2   4    4.08    0.75
  13  -3 -11   -0.11    0.78
  14  -4   6    2.20    0.94
  15  -5   6   -0.03    0.74
  16  -4  -7   14.36    1.14
  16  -4  -6   10.59    1.13
  16  -4  -3    0.91    0.93
  16  -4  -2    0.23    1.06
  17  -5 -10   -0.03    1.00
  17  -5  -9    0.85    1.00
  17  -5  -8    1.25    1.04
  17  -5  -2    0.19    1.16
   7  -1   2    7.25    0.58
  10  -2 -12   11.77    0.66
  13  -5  11   -0.03    0.59
  13  -3 -12    3.81    0.80
  13  -3   4    8.43    0.93
  15  -5   7   -0.26    0.68
  16  -4  -9    1.17    0.94
  16  -4  -8    0.72    0.82
  16  -4  -1    1.17    0.96
  16  -4   0    2.09    0.98
  17  -5 -11   -0.60    0.94
  17  -5   1   -0.29    1.03
  11  -3   9    2.60    0.78
  12  -2  -6    0.59    0.63
  12  -2  -3    3.58    0.81
  12  -2  -2    5.00    0.86
  13  -5  12    0.00    0.65
  14  -4   7   -1.01    0.81
  15  -5   8   -0.39    0.80
  16  -4 -11    2.18    0.86
  16  -4 -10    0.31    0.77
  16  -4   1    5.53    1.09
  16  -4   2   -0.18    0.94
  17  -5   2   -0.79    0.95
  17  -5   3   -0.43    1.07
   5  -1   7   45.65    0.83
   7  -1   3   33.83    0.84
  10  -2   6    9.61    0.81
  11  -3  10   13.55    0.93
  12  -2  -7   16.97    0.87
  12  -2   0    0.06    0.76
  13  -3   6   -0.64    0.83
  14  -4   8   -0.29    0.72
  15  -3  -7    0.33    0.79
  15  -3  -6    4.12    0.90
  15  -3  -3    2.53    0.88
  15  -3  -2    1.55    0.87
  15  -3  -1    1.83    0.83
  16  -4 -12    1.64    0.86
  16  -4   3   -0.05    1.02
  17  -5   4    0.51    1.12
   7  -1   4   15.92    0.72
   8  -2  10   -0.57    0.63
  10  -2   7    9.30    0.79
  12  -4  12   -0.08    0.52
  12  -2  -9   10.54    0.82
  12  -2   1    4.29    0.83
  12  -2   2    4.50    0.79
  13  -3   7    2.53    0.82
  15  -5  10    0.32    0.67
  15  -3  -9    4.61    0.86
  15  -3  -8    0.75    0.77
  15  -3   0   -0.68    0.89
  15  -3   1    1.27    0.83
  16  -4   4    0.80    1.05
  11  -3  11    9.27    0.91
  12  -2 -10    0.04    0.66
  12  -2   3  152.72    2.07
  15  -3 -10    6.13    0.82
  15  -3   2    4.47    0.98
  19  -5  -8    0.90    1.08
   5  -1   8    5.43    0.53
   8  -2  11   13.98    0.81
   9  -1  -3   37.92    0.91
   9  -1  -2    5.49    0.69
   9  -1  -1    5.46    0.69
  10  -2   8   60.08    1.35
  12  -2 -11    6.59    0.75
  12  -2   4   12.61    0.97
  13  -3   8    6.09    0.93
  15  -5  11   -0.34    0.75
  15  -3 -11    1.23    0.74
  15  -3   3   17.57    1.22
  16  -4   6   -0.04    1.09
  18  -4  -8    1.54    1.06
  18  -4  -7   -1.20    1.09
  18  -4  -6    0.38    0.98
  18  -4  -3   -0.62    1.15
  18  -4  -2    1.06    1.08
  18  -4  -1    0.69    1.18
   9  -1  -6   14.07    0.69
   9  -1   0   11.94    0.70
  11  -3  12   -0.02    0.73
  13  -3   9   19.25    1.14
  14  -4  11    0.12    0.68
  15  -3   4   18.19    1.15
  16  -4   7    0.09    1.04
  18  -4 -10    1.48    1.05
  18  -4  -9    0.50    0.86
  18  -4   0    0.14    0.97
  18  -4   1    1.01    1.13
   7  -1   6  103.03    1.27
   9  -1  -7   65.49    1.04
   9  -1   2  334.92    2.32
  10  -2   9   52.93    1.36
  12  -2 -12    4.85    0.70
  14  -2  -6   -0.48    0.86
  14  -2  -3    3.04    0.93
  14  -2  -2  114.86    2.02
  14  -2  -1   44.59    1.43
  16  -4   8    0.83    0.84
  17  -3  -6    7.22    0.98
  17  -3  -5    1.48    1.02
  17  -3  -3    1.79    0.93
  18  -4 -12    7.34    1.06
  18  -4 -11    2.10    1.01
  18  -4   2    0.88    0.99
  18  -4   3   -1.24    0.96
   8  -2  12   -0.91    0.65
   9  -1  -8    1.60    0.55
   9  -1   3  120.36    1.53
  11  -3  13    7.85    0.84
  12  -2   6   16.09    1.02
  14  -4  12   -0.16    0.73
  14  -2  -8    5.67    0.89
  14  -2  -7   20.45    1.11
  14  -2   0   -0.21    0.99
  14  -2   1   -0.24    0.94
  15  -3   6    0.82    0.87
  16  -4   9    0.13    0.67
  17  -3  -8    6.42    0.95
  17  -3  -7   -0.73    0.89
  17  -3  -2    2.23    0.93
  17  -3  -1   30.30    1.42
  18  -4   4    1.79    1.18
   9  -1  -9   15.11    0.73
   9  -1   4    3.76    0.73
  10  -2  10    0.82    0.72
  12  -2   7    0.20    0.84
  13  -3  11    4.03    0.91
  14  -2  -9    6.27    0.86
  14  -2   2    3.85    1.04
  15  -3   7    4.54    0.96
  17  -3 -10    3.66    0.85
  17  -3  -9    0.85    0.81
  17  -3   1    0.12    1.02
  17  -3   2   -0.17    1.05
  12  -2   8   12.96    0.91
  14  -2 -10    1.93    0.77
  14  -2   3   -0.15    0.87
  17  -3 -11   -0.41    0.84
  17  -3   3    2.46    1.07
  18  -4   6    3.08    1.15
  20  -4  -8    0.15    0.92
  20  -4  -7    0.76    1.04
  20  -4  -6    1.34    1.08
  20  -4  -5   -1.14    1.07
  20  -4  -3   -0.88    1.14
  20  -4  -2    0.14    1.08
  20  -4  -1    0.95    1.04
   9  -1 -10   23.78    0.71
  10  -2  11    7.83    0.81
  11  -1  -2  316.90    2.44
  11  -1  -1    6.72    0.81
  11  -1   0    3.79    0.73
  13  -3  12    0.61    0.78
  14  -2 -11    1.66    0.75
  14  -2   4    6.83    0.86
  15  -3   9    0.46    0.86
  17  -3 -12    0.65    0.81
  17  -3   4    1.05    0.97
  18  -4   7   -0.76    1.07
  20  -4 -10    0.27    1.00
  20  -4  -9    0.74    1.00
  20  -4   0    7.91    1.22
  20  -4   1    0.48    1.21
   9  -1   6   61.71    1.22
  11  -1  -7   20.95    0.90
  11  -1  -6   16.56    0.84
  11  -1   1   10.16    0.82
  12  -2   9    1.86    0.84
  14  -2 -12    0.32    0.79
  16  -2  -3    0.80    0.87
  18  -4   8   -0.37    1.00
  19  -3  -5   13.95    1.18
  19  -3  -3   -0.49    0.91
  20  -4 -11    0.63    0.96
  20  -4   2    1.02    0.98
  20  -4   3    0.78    1.01
   7  -1   9    0.22    0.56
  10  -2  12    4.82    0.77
  11  -1   2    0.42    0.64
  13  -3  13   -0.38    0.82
  14  -2   6    6.89    0.94
  15  -3  10    0.79    0.97
  16  -4  12    0.17    0.70
  16  -2  -8    0.20    0.84
  16  -2  -7   36.55    1.26
  16  -2  -6   27.06    1.13
  16  -2  -1    1.14    0.86
  16  -2   0    3.93    0.95
  16  -2   1   16.46    1.08
  17  -3   6   14.66    1.15
  18  -4   9   -0.60    0.82
  19  -3  -8    1.34    1.06
  19  -3  -7    1.53    1.05
  19  -3  -6    9.64    1.09
  19  -3  -2   -0.33    0.98
  19  -3  -1   -0.52    1.12
  19  -3   0   -0.22    1.17
   5  -1  11    0.29    0.43
  11  -1   4   26.84    0.96
  12  -2  10    5.24    0.94
  14  -2   7   -0.58    0.83
  15  -3  11    4.46    0.89
  16  -2  -9    0.11    0.83
  16  -2   2   -0.01    0.90
  17  -3   7    0.85    0.94
  18  -4  10    0.75    0.84
  19  -3 -10   -0.93    0.96
  19  -3  -9   -0.23    0.87
  19  -3   1    4.84    1.15
  19  -3   2    0.87    1.23
   7  -1  10   18.69    0.78
  10  -2  13    1.34    0.77
  11  -1  -9   13.68    0.74
  12  -2  11   11.00    1.04
  14  -2   8    3.43    0.86
  16  -2 -10    0.72    0.78
  16  -2   3    0.13    0.92
  17  -3   8    1.74    1.04
  19  -3 -11    2.36    0.99
  19  -3   3   -0.19    1.15
   9  -1   8   -0.10    0.58
  11  -1 -10   22.37    0.79
  13  -1  -3    6.45    0.80
  13  -1  -2    1.67    0.82
  13  -1  -1    0.60    0.86
  13  -1   0   41.22    1.28
  15  -3  12    2.62    0.94
  17  -3   9    2.38    1.10
  19  -3 -12   -0.14    0.94
  19  -3   4    0.14    0.98
   5  -1  12  120.74    1.32
   9  -1   9   28.20    1.03
  11  -1   6    6.46    0.83
  12  -2  12    0.42    0.86
  13  -1  -7  100.98    1.58
  13  -1  -6   12.56    0.82
  13  -1   1    6.75    0.80
  13  -1   2    2.65    0.87
  14  -2   9   18.34    1.17
  16  -2 -12    2.75    0.78
  16  -2   6    0.37    0.95
  17  -3  10    0.20    1.08
  18  -2  -6    0.39    0.95
  18  -2  -5    2.97    1.04
  18  -2  -3    1.55    1.03
  18  -2  -2    1.01    1.11
  18  -2  -1    2.86    1.15
  19  -3   6   -0.64    1.18
  21  -3  -7    0.29    1.14
  21  -3  -6    0.94    1.00
  21  -3  -5    0.94    1.12
  21  -3  -3    1.08    1.18
  21  -3  -2    1.79    1.06
   7  -1  11    0.41    0.53
  11  -1 -11    1.75    0.53
  13  -1  -8   43.96    1.11
  14  -2  10    3.80    0.97
  16  -2   7    0.42    0.89
  18  -2  -8    1.38    0.90
  18  -2  -7    0.97    0.87
  18  -2   0    1.15    1.01
  18  -2   1    1.19    1.17
  19  -3   7    1.27    1.20
  21  -3  -9    1.39    0.94
  21  -3  -8   -0.48    1.06
  21  -3  -1    0.82    1.03
  21  -3   0   -0.21    1.15
  21  -3   1    0.95    1.06
   9  -1  10    7.00    0.82
  12  -2  13    4.70    0.97
  13  -1  -9    1.47    0.72
  13  -1   4   20.71    1.08
  17  -3  11   -0.73    1.01
  18  -2 -10    5.52    1.04
  18  -2  -9    0.77    0.91
  18  -2   2    0.73    1.07
  19  -3   8    0.27    1.02
  21  -3 -10    2.57    1.02
  21  -3   2    0.25    1.20
  21  -3   3    0.53    1.05
  11  -1   8   12.63    0.86
  13  -1 -10   10.72    0.83
  14  -2  11    0.61    0.88
  15  -1  -3    7.31    1.04
  15  -1  -2    5.52    1.02
  15  -1  -1    1.99    1.07
  15  -1   0   -0.35    0.92
  16  -2   8    2.50    1.00
  17  -3  12   -0.75    0.93
  18  -2   4    7.56    1.24
  19  -3   9    1.25    1.11
  21  -3 -11    4.56    0.93
  21  -3   4   -0.12    1.16
   7  -1  12    5.08    0.58
  11  -1   9    4.66    0.89
  13  -1   6    1.55    0.93
  15  -1  -7    2.07    0.92
  15  -1  -6    7.54    1.01
  15  -1   1    2.81    1.02
  15  -1   2   10.49    1.19
  16  -2   9    2.19    1.01
  18  -2 -12   20.00    1.13
  20  -2  -5    1.24    0.98
  20  -2  -3    1.21    0.96
  20  -2  -2    0.54    0.98
   9  -1  11   18.76    0.89
  13  -1 -11    0.21    0.66
  13  -1   7    4.80    1.01
  14  -2  12    2.22    0.81
  15  -1   3   40.55    1.41
  16  -2  10   23.80    1.28
  18  -2   6    7.78    1.14
  20  -2  -7    6.16    1.19
  20  -2  -6    3.46    1.01
  20  -2   0   22.55    1.51
  20  -2   1    5.72    1.10
  23  -3  -8    0.59    1.03
  23  -3  -7    1.14    1.12
  23  -3  -6    0.18    1.11
  23  -3  -5    0.04    1.07
  13  -1   8   11.87    1.09
  14  -2  13   -0.22    0.89
  15  -1  -9   12.32    0.98
  15  -1   4   40.61    1.37
  18  -2   7    1.02    0.97
  19  -3  11    7.27    1.21
  20  -2  -9    2.02    1.08
  20  -2   2    0.40    1.20
  23  -3 -10   -0.15    1.01
   8   0  -3  509.44    2.49
   8   0  -2   33.95    0.86
   8   0  -1   48.17    0.89
   8   0   0   30.85    0.88
   9  -1  12   12.13    0.81
  15  -1 -10   11.66    0.94
  16  -2  11    2.85    1.10
  17  -1  -5    2.69    0.96
  17  -1  -3    3.53    0.99
  17  -1  -2    4.23    1.03
  17  -1  -1   65.44    1.75
  17  -1   0   20.93    1.29
  18  -2   8    1.79    1.16
  19  -3  12    0.33    1.04
  20  -2 -11    1.76    0.96
  20  -2   4    1.75    1.24
  23  -3 -11   -0.64    1.08
   8   0   2  110.85    1.31
   8   0   3   23.46    0.91
  11  -1  11   20.68    1.03
  13  -1   9   36.97    1.42
  15  -1 -11    1.80    0.78
  15  -1   6    1.90    0.96
  16  -2  12    1.98    1.01
  17  -1  -7    0.56    0.85
  17  -1  -6   14.89    1.10
  17  -1   2   -0.09    0.97
  18  -2   9   -0.42    1.12
  20  -2 -12   -0.30    0.93
  22  -2  -3   -1.62    1.27
   8   0  -5    3.53    0.56
  10   0  -2    8.97    0.81
  10   0  -1    9.23    0.86
  17  -1  -9    0.65    0.99
  17  -1  -8   10.47    0.98
  17  -1   3    5.59    1.07
  17  -1   4    4.74    1.02
  18  -2  10    0.69    1.15
  20  -2   6    1.91    1.21
  22  -2  -8    0.59    1.13
  22  -2  -7    1.01    1.16
  22  -2  -6    1.98    1.17
  22  -2  -5   12.42    1.30
  22  -2  -2   -0.51    1.11
  22  -2   0    1.31    1.15
  22  -2   1   -0.04    1.10
   8   0  -6    9.78    0.65
  10   0  -5    8.43    0.69
  11  -1  12   -0.04    0.77
  15  -1 -12   41.23    1.27
  15  -1   8   -0.88    0.95
  16  -2  13    0.43    1.01
  17  -1 -10    5.46    1.03
  20  -2   7    3.45    1.17
  22  -2  -9    0.26    1.10
   6   0   6    4.44    0.58
  10   0  -6    1.60    0.63
  10   0   3    1.28    0.62
  10   0   4   15.30    0.94
  12   0  -1    0.96    0.81
  15  -1   9    2.01    0.95
  17  -1   6   27.77    1.53
  18  -2  11    0.98    0.98
  19  -1  -6   17.01    1.34
  19  -1  -5   24.90    1.45
  19  -1  -3    1.54    1.02
  19  -1  -2    0.46    1.04
  19  -1  -1   -1.42    1.13
  19  -1   0    0.67    1.27
  19  -1   1   13.24    1.36
  20  -2   8   -0.34    1.17
  22  -2 -10    0.56    1.15
  22  -2   4    0.91    1.21
   6   0   7  103.52    1.32
   8   0   6    1.79    0.70
  12   0   0    1.80    0.62
  12   0   1   12.24    0.98
  12   0   2   13.04    0.97
  17  -1 -11   -0.32    0.88
  17  -1   7   -0.36    1.03
  18  -2  12    1.98    1.08
  19  -1  -7    2.43    1.04
  19  -1   2    3.14    1.23
  19  -1   3   -0.05    1.16
  20  -2   9   -0.17    1.18
   8   0   7    2.40    0.69
  10   0  -7   77.99    1.24
  10   0   6   20.35    0.96
  12   0  -5    9.04    0.79
  12   0   3  220.15    2.45
  13  -1  12    0.01    0.88
  15  -1  10    1.39    0.92
  17  -1 -12    0.61    0.84
  17  -1   8    1.63    1.14
  19  -1  -9   -0.16    1.00
  19  -1   4    0.22    1.20
  20  -2  10    0.81    1.14
  22  -2   6    1.86    1.11
  24  -2  -8    1.19    1.24
  24  -2  -7    0.21    1.15
  24  -2  -6   -0.11    1.21
  10   0  -8  122.22    1.46
  12   0  -7   35.26    1.07
  12   0   4   23.15    1.10
  14   0  -3    7.03    0.98
  14   0  -2  192.91    2.42
  14   0  -1   61.23    1.59
  14   0   0    0.46    0.94
  15  -1  11    6.35    1.08
  17  -1   9    3.51    1.02
  19  -1 -10    1.32    0.94
  20  -2  11   -0.59    1.04
  21  -1  -5   -0.51    1.02
  21  -1  -3    0.16    1.25
  21  -1  -1    1.28    1.23
  21  -1   0    0.84    1.06
  24  -2 -10    2.97    1.25
  24  -2  -9    1.16    1.25
  10   0   7   12.18    0.84
  12   0  -8   49.77    1.25
  12   0   6   23.13    1.05
  13  -1  13    0.78    0.90
  14   0  -6    0.06    0.76
  14   0  -5    4.64    0.90
  14   0   2    4.84    1.00
  14   0   3    0.04    1.02
  19  -1 -11    6.07    1.01
  19  -1   7    1.82    1.18
  21  -1  -7    2.22    1.13
  21  -1  -6    0.31    1.06
  21  -1   1    1.22    1.28
  21  -1   2    0.07    1.31
  24  -2 -11   -0.40    1.13
  10   0  -9   94.34    1.27
  10   0   8  102.08    1.63
  14   0  -7   28.50    1.15
  14   0   4   14.61    1.22
  15  -1  12    4.92    1.02
  16   0  -3   -0.37    1.01
  16   0  -2    0.57    1.15
  16   0  -1    1.78    1.13
  16   0   0    3.40    1.07
  17  -1  10    2.59    1.14
  19  -1 -12    0.56    0.86
  20  -2  12   -0.20    1.17
  21  -1  -9    1.79    1.13
  21  -1   3   -0.55    1.28
   6   0   9    6.67    0.67
   8   0   9   52.13    1.15
  12   0  -9   18.59    0.88
  12   0   7    2.71    0.81
  14   0  -8    6.24    0.93
  15  -1  13   -0.60    0.95
  16   0   2    1.79    0.92
  17  -1  11    2.77    1.10
  19  -1   9    0.82    1.24
  21  -1 -10    8.49    1.21
  23  -1  -3    0.83    1.34
  23  -1  -2   -0.94    1.35
  10   0 -10    0.94    0.56
  10   0   9   80.12    1.48
  12   0   8   24.19    1.19
  14   0  -9   13.07    0.94
  14   0   6    7.46    1.22
  16   0  -7   49.88    1.57
  16   0   3    3.03    0.89
  16   0   4    2.10    1.01
  21  -1 -11    9.41    1.18
  23  -1  -7    4.25    1.16
  23  -1  -6   -0.35    1.28
  23  -1  -5    0.42    1.18
  23  -1  -1   -0.45    1.19
  23  -1   0    5.64    1.37
  23  -1   1    9.92    1.46
   6   0  10   21.81    0.78
   8   0  10    1.94    0.66
  10   0  10    1.19    0.82
  12   0 -10    0.83    0.61
  12   0   9    3.78    0.97
  14   0   7   -0.08    1.05
  16   0  -8    0.07    1.01
  17  -1  12    0.16    0.89
  18   0  -3    4.56    1.12
  18   0  -2    1.38    1.08
  18   0  -1    7.52    1.13
  18   0   0    1.42    1.06
  18   0   1    2.35    1.16
  19  -1  10    0.86    1.26
  21  -1   7    2.37    1.25
  23  -1  -9    2.83    1.24
  23  -1  -8   -0.10    1.19
  23  -1   2    2.13    1.16
  23  -1   3    1.07    1.26
  14   0 -10    4.78    0.82
  14   0   8    1.92    1.13
  16   0  -9    2.02    0.97
  17  -1  13    0.00    1.09
  18   0  -7    0.40    1.06
  18   0  -6    0.40    1.01
  18   0   2    1.28    1.11
  18   0   3   -1.07    1.17
  19  -1  11   15.32    1.39
  21  -1   8   -0.60    1.10
  23  -1 -10    1.91    1.12
  23  -1   4   -0.04    1.21
   6   0  11    0.26    0.61
   8   0  11   17.02    0.82
  10   0  11   18.33    1.09
  12   0 -11    8.14    0.66
  12   0  10    5.35    1.02
  14   0   9   26.64    1.35
  16   0 -10    0.22    0.93
  16   0   7    0.48    1.06
  18   0  -8    2.02    0.93
  18   0   4   15.06    1.31
  18   0   5   19.13    1.52
  19  -1  12    0.14    1.06
  20   0  -3    1.50    1.07
  20   0  -2    0.33    1.08
  20   0  -1    5.71    1.24
  21  -1   9   -0.39    1.14
  23  -1 -11    0.48    0.99
  12   0  11   17.17    1.11
  14   0  10    6.91    1.12
  16   0   8    7.95    1.17
  18   0  -9   -0.43    0.93
  20   0  -5    0.17    1.16
  20   0   1    4.68    1.30
  20   0   2   -0.50    1.19
  21  -1  10   -0.32    1.30
  25  -1  -8    0.76    1.29
   8   0  12   -0.56    0.70
  14   0 -12   -0.59    0.87
  18   0 -10    8.89    1.04
  18   0   7    0.21    1.21
  20   0  -8    0.22    1.14
  21  -1  11    0.53    1.27
  25  -1 -10   -0.68    1.00
  25  -1  -9    0.51    1.14
   6   0  12   40.54    0.98
  12   0  12    0.05    0.92
  14   0  11    0.79    0.99
  16   0 -12    3.88    1.05
  16   0  10   37.94    1.57
  18   0 -11    7.35    1.11
  18   0   8    0.56    1.21
  20   0  -9    1.80    1.10
  21  -1  12    0.41    1.07
  22   0  -5   14.70    1.47
  22   0  -3    0.21    1.31
  22   0  -2    0.25    1.31
  22   0  -1    1.14    1.39
  22   0   0   -0.30    1.41
  22   0   1    0.20    1.23
  14   0  12    3.60    1.04
  18   0   9    0.54    1.17
  20   0 -10    0.63    1.05
  20   0   7    5.33    1.26
  22   0  -7   -0.45    1.24
  22   0   2    5.78    1.47
  22   0   3    2.55    1.39
  12   0  13    7.56    1.01
  18   0  10    0.57    1.19
  20   0   8   -0.71    1.38
  22   0  -8   -2.24    1.21
  22   0   4    0.53    1.43
  11   1  -1    7.05    0.91
  11   1   0    4.41    0.92
  13   1  -2    1.41    0.85
  13   1  -1   -0.40    0.98
  13   1   0   39.91    1.44
  13   1   1    6.41    1.02
  14   0  13    0.73    0.92
  16   0  12    1.92    1.08
  18   0  11    0.63    1.20
  22   0 -10    2.34    1.11
  22   0  -9    0.74    1.00
  22   0   6    2.15    1.55
  24   0  -6    0.52    1.13
  24   0  -5    1.25    1.29
  24   0  -3    1.24    1.32
  24   0  -2    2.63    1.20
  24   0  -1    0.70    1.36
  24   0   1    1.64    1.41
  24   0   2    1.34    1.38
   9   1   0   12.07    0.89
   9   1   1   -0.67    0.81
  11   1   2    0.08    0.61
  11   1   3   24.71    1.12
  11   1   4   27.31    1.10
  13   1  -3    5.03    1.00
  13   1   2    3.29    0.73
  13   1   3    2.87    1.04
  13   1   4   19.85    1.18
  15   1  -3    7.66    1.15
  15   1  -2    5.56    1.24
  15   1  -1    1.72    1.15
  15   1   0   -0.41    1.13
  15   1   1    1.86    1.22
  20   0  10    0.90    1.15
  22   0 -11    0.31    0.97
  22   0   7    1.34    1.35
  24   0  -8    0.95    1.07
  24   0  -7    0.00    1.27
   9   1  -2    5.80    0.80
   9   1  -1    5.65    0.78
   9   1   3  115.77    1.67
   9   1   4    4.54    0.89
  13   1  -5    0.25    0.85
  15   1   4   40.56    1.50
  16   0  13    0.79    0.97
  17   1  -3    3.35    1.07
  17   1  -2    4.40    1.17
  17   1  -1   67.48    1.89
  17   1   1    1.24    1.09
  17   1   2   -0.32    1.10
  18   0  12    0.83    1.17
  22   0   8    1.05    1.34
  24   0  -9    2.36    1.20
  11   1  -5    1.14    0.82
  11   1   6    4.72    0.95
  13   1  -6   12.89    0.96
  15   1  -6    7.79    1.05
  17   1  -5    3.13    0.96
  17   1   3    6.17    1.15
  17   1   4    4.58    1.19
  18   0  13    6.22    1.11
  19   1  -3    1.49    1.11
  19   1  -2    0.29    1.19
  19   1  -1   -0.50    1.25
  19   1   0    2.52    1.26
  19   1   1   14.21    1.38
  20   0  11    1.49    1.02
  22   0   9    1.11    1.19
  24   0 -10    5.12    1.23
   7   1   0   35.07    0.92
   7   1   1   15.68    0.81
   7   1   2    7.02    0.74
   7   1   3   33.51    0.98
   9   1   6   59.19    1.35
  11   1   7    9.38    0.96
  13   1  -7  100.29    1.71
  15   1  -7    1.45    1.02
  15   1   7    9.73    1.13
  17   1  -7   -0.34    0.89
  17   1   5    0.52    1.30
  19   1   2    1.56    1.31
  19   1   3    1.19    1.32
  20   0  12   -0.12    1.15
  24   0 -11    1.35    0.94
   7   1  -2   17.28    0.78
   7   1  -1   41.28    0.85
   7   1   4   16.04    0.88
   9   1  -5  151.99    1.68
  11   1   8   12.48    0.96
  13   1  -8   45.33    1.26
  13   1   8   12.46    1.22
  15   1  -8    2.53    0.98
  15   1   8    0.84    0.99
  17   1  -8   11.55    1.08
  17   1   7   -0.11    1.13
  19   1  -6   18.24    1.44
  19   1   4   -0.39    1.12
  19   1   5    1.56    1.17
  21   1  -3    1.00    1.25
  21   1  -2    3.85    1.35
  21   1  -1    0.40    1.35
  21   1   1    0.31    1.40
  21   1   2    0.91    1.30
   7   1  -3    2.83    0.63
   7   1   6  101.02    1.43
   9   1  -6   15.12    0.83
   9   1   8    0.10    0.74
  11   1   9    4.44    0.94
  13   1   9   36.62    1.52
  15   1  -9   11.50    1.09
  17   1  -9    1.28    0.99
  17   1   8    2.99    1.20
  19   1  -8    2.38    1.07
  21   1  -5   -0.27    1.15
  21   1   3    1.37    1.37
  21   1   4    1.87    1.39
   7   1   7   47.03    1.20
   9   1   9   27.05    1.08
  11   1  10   28.17    1.35
  13   1  -9    1.48    0.82
  13   1  10   42.87    1.52
  15   1  10    0.96    0.96
  17   1   9    3.11    1.16
  19   1  -9   -1.34    1.07
  19   1   7    2.30    1.18
  19   1   8    3.55    1.15
  21   1  -8   -0.06    1.04
  21   1   5    5.58    1.50
  23   1  -5    0.91    1.22
  23   1  -3    1.06    1.42
  23   1  -2    1.46    1.32
  23   1   1   11.32    1.52
  23   1   2   -0.33    1.25
  17   1 -10    5.68    0.94
  17   1  10    3.46    1.18
  19   1 -10   -0.97    1.01
  19   1   9    1.84    1.17
  21   1  -9    1.05    1.18
  21   1   7    3.94    1.45
  23   1  -7    3.56    1.14
  23   1  -6   -0.34    1.36
  23   1   3    1.89    1.19
  23   1   4    1.50    1.35
   7   1   8  229.99    2.02
  11   1  -9   15.02    0.89
  11   1  11   19.91    1.09
  15   1  11    6.09    1.11
  17   1 -11    0.72    0.93
  17   1  11    1.29    1.19
  19   1 -11    5.11    1.04
  19   1  10    2.76    1.12
  21   1 -10    8.01    1.23
  21   1   8   -0.48    1.24
  23   1  -8    0.53    1.22
  23   1   6    0.49    1.28
   7   1   9   -0.17    0.69
   9   1  -8    2.61    0.71
   9   1  11   17.30    1.05
  13   1 -11    0.20    0.81
  13   1  12    0.61    0.94
  15   1  12    5.24    1.06
  17   1 -12    1.11    1.03
  19   1  11   14.22    1.48
  21   1 -11    9.32    1.15
  21   1   9    0.43    1.27
  23   1 -10    1.11    1.10
  23   1  -9    3.67    1.07
  25   1  -7   -0.42    1.25
  11   1  12    0.84    0.87
  17   1  12    0.16    1.05
  19   1 -12    1.10    0.91
  21   1  10    1.09    1.28
  23   1 -11   -0.52    1.04
   7   1  10   18.10    0.81
   9   1  12   11.59    0.97
  11   1  13   13.20    1.10
  15   1  13    0.13    0.93
  17   1  13   -0.56    1.13
  19   1  12    0.38    1.11
  21   1  11    0.33    1.26
  25   1 -10   -1.14    1.22
   5   1   7   44.82    0.96
  16   2  -2   -0.96    1.03
  16   2  -1    0.36    1.10
  16   2   0    4.37    1.10
  16   2   3    0.06    1.01
  18   2  -1    4.12    1.29
  18   2   0   -2.05    1.28
  18   2   1    1.03    1.23
  18   2   2    2.54    1.20
  19   1  13    0.76    1.08
  21   1  12    0.98    1.21
   5   1   8    4.37    0.70
   7   1  11    1.40    0.61
  14   2  -3    2.55    1.07
  14   2  -2  116.26    2.18
  14   2  -1   43.00    1.65
  14   2   1    0.31    0.80
  14   2   2    4.45    1.24
  14   2   3    1.60    1.04
  14   2   4    7.74    1.10
  16   2  -3   -0.59    1.00
  16   2   4    0.38    1.18
  16   2   5    0.27    1.06
  18   2  -3    1.77    1.19
  18   2   3   -0.01    1.24
  18   2   4    8.69    1.45
  20   2  -3    0.56    1.18
  20   2  -2   -0.14    1.29
  20   2  -1    2.27    1.31
  20   2   0   22.51    1.71
  20   2   2    0.90    1.31
  20   2   3    1.52    1.25
  12   2  -1   -0.61    0.98
  12   2   1    5.08    1.10
  12   2   2    5.15    1.09
  12   2   3  154.08    2.31
  12   2   4   12.78    1.19
  16   2  -5    6.59    1.05
  18   2  -6    1.19    1.06
  18   2  -5    2.24    1.09
  18   2   5   13.50    1.41
  20   2  -6    2.54    1.27
  20   2  -5   -0.40    1.25
  20   2   4    2.72    1.45
  20   2   5    3.87    1.51
  22   2  -3   -1.33    1.34
  22   2  -2   -0.40    1.34
  22   2  -1   -1.39    1.37
  22   2   1   -0.95    1.31
  22   2   3    0.29    1.39
   5   1   9   22.75    0.87
   7   1  12    4.52    0.64
  12   2  -3    3.61    0.99
  12   2  -2    3.33    0.77
  14   2  -5    2.64    1.10
  14   2   7    1.05    0.99
  16   2  -7   39.07    1.51
  16   2  -6   26.57    1.27
  16   2   7    0.16    1.06
  16   2   8    3.97    1.14
  18   2  -7    1.33    1.06
  18   2   7    0.73    1.27
  22   2  -6    0.39    1.29
  22   2  -5   13.13    1.57
  22   2   4    1.02    1.36
  24   2  -3    0.81    1.16
   5   1  10   50.50    1.04
  10   2   0   49.93    1.35
  10   2   1    4.16    0.94
  10   2   2    2.00    0.88
  10   2   3    2.83    0.92
  10   2   4    4.59    0.85
  12   2   7    0.41    1.06
  14   2  -6   -0.61    1.07
  14   2   8    3.10    1.07
  16   2  -8   -0.79    1.06
  16   2   9    2.27    1.06
  18   2  -8    0.34    1.10
  18   2   8    0.00    1.16
  18   2   9    1.29    1.24
  20   2  -8    0.66    1.22
  20   2   8    0.87    1.41
  22   2  -7   -1.28    1.26
  24   2  -6   -0.01    1.09
  24   2  -5   -0.58    1.29
  10   2  -2   11.03    1.00
  10   2  -1    4.11    0.92
  12   2   8   11.84    1.21
  14   2  -7   21.94    1.31
  14   2   9   17.16    1.30
  16   2  10   23.39    1.45
  18   2  -9   -1.07    1.10
  18   2  10   -0.08    1.25
  20   2  -9    0.49    1.21
  20   2   9    0.39    1.23
  22   2  -9    0.80    1.06
  22   2  -8    0.99    1.11
  24   2  -8    1.23    1.27
  10   2  -3    4.64    0.91
  10   2   7    8.31    1.00
  12   2   9    1.02    1.12
  14   2  -8    5.82    1.03
  14   2  10    3.68    1.15
  16   2  -9    1.10    1.02
  16   2  11    2.58    1.21
  18   2 -10    7.33    1.10
  18   2  11    0.55    1.18
  20   2 -10    1.36    1.14
  20   2  10    0.85    1.23
  22   2 -10    0.93    0.99
  24   2  -9    0.93    1.15
   5   1  11   -0.29    0.55
  12   2  -7   19.87    1.04
  12   2  10    5.47    1.10
  14   2  -9    7.24    1.00
  14   2  11   -0.06    1.04
  18   2 -11    7.59    1.11
  20   2 -11    1.63    1.06
  20   2  11    0.00    1.23
  22   2 -11    0.97    1.09
  24   2 -10    2.73    1.24
   8   2   0   10.96    1.00
   8   2   2   58.50    1.41
   8   2   3   11.84    1.04
  10   2  -5    2.91    0.81
  10   2   9   51.42    1.48
  12   2  11   10.10    1.14
  16   2  12    1.87    0.98
  18   2  12    0.38    1.13
  20   2  12    1.10    1.23
  24   2 -11    0.77    1.16
   8   2   6    3.10    0.83
  10   2  -6    2.69    0.82
  10   2  10   -0.17    0.98
  12   2  12    1.26    0.99
  14   2 -10    2.84    0.95
  16   2 -11    3.94    1.02
  16   2  13    0.74    1.09
  18   2 -12   21.02    1.19
  18   2  13    2.62    1.06
   8   2   7   -0.22    0.79
  14   2  13   -0.61    0.92
  16   2 -12    3.06    1.04
  19   3  -1    1.19    1.38
  19   3   2    1.70    1.48
   8   2   8   24.59    1.07
  12   2  13    5.11    0.96
  17   3  -2    2.55    1.24
  17   3  -1   30.09    1.64
  17   3   0   10.04    1.43
  17   3   2   -0.91    1.29
  17   3   3    2.92    1.31
  19   3  -3   -0.27    1.29
  19   3   3   -1.45    1.41
  19   3   4    1.31    1.35
  19   3   5    1.22    1.28
  21   3  -3    0.83    1.33
  21   3  -1    0.20    1.18
  21   3   0    0.74    1.17
  21   3   1   -0.47    1.22
  21   3   2   -0.25    1.29
  21   3   3    0.25    1.33
  21   3   4   -0.60    1.33
   8   2   9   25.65    1.06
  10   2  12    5.31    0.98
  12   2 -10   -0.32    0.82
  15   3  -2    2.47    1.11
  15   3  -1    0.71    1.14
  15   3   0    1.09    1.08
  15   3   1    1.81    1.10
  15   3   2    3.91    1.19
  15   3   3   17.00    1.45
  15   3   4   18.14    1.44
  17   3  -3    2.09    1.15
  17   3   5   -1.37    1.15
  19   3  -5   12.88    1.49
  19   3   7    0.16    1.44
  21   3  -6    0.14    1.15
  21   3  -5   -0.04    1.36
  23   3  -5    0.22    1.31
   8   2  10   -0.23    0.82
  10   2  13    1.31    1.07
  13   3   2    1.69    0.98
  13   3   3    0.47    0.93
  15   3  -3    3.18    1.13
  15   3   7    4.23    1.33
  17   3  -6    6.83    1.21
  17   3  -5    0.74    1.12
  17   3   7    1.52    1.18
  17   3   8    0.59    1.13
  19   3  -7    0.12    1.14
  19   3  -6    9.72    1.25
  19   3   8   -0.86    1.41
  21   3  -7   -0.24    1.22
  23   3  -7    1.29    1.12
  23   3  -6    0.69    1.08
   6   2   2  257.88    2.17
   6   2   3    3.71    0.85
   6   2   4    0.24    0.82
   8   2  11   12.27    0.96
  12   2 -11    6.53    0.99
  13   3  -2   -0.74    1.07
  13   3   4    7.36    1.13
  13   3   5    0.76    1.25
  15   3  -5    1.22    1.17
  15   3   8   -1.46    1.14
  17   3  -7   -0.09    1.15
  17   3   9    0.45    1.30
  19   3  -8    1.00    1.25
  19   3   9    2.21    1.27
  21   3  -8   -0.26    1.26
  23   3  -8    0.59    1.35
   6   2   0   16.91    0.98
   6   2   6    1.33    0.85
   6   2   7   68.94    1.40
   8   2  -6   12.37    0.93
  13   3  -3    4.07    1.12
  13   3   7    1.65    1.19
  17   3  10    0.68    1.18
  19   3  -9    0.05    1.13
  19   3  10    0.42    1.29
  23   3  -9    0.55    1.24
   6   2   8   84.02    1.44
   8   2  12   -0.05    0.83
  11   3   1    3.57    1.19
  11   3   2    0.29    1.12
  11   3   3   10.85    1.38
  13   3  -5   -0.35    1.15
  13   3   8    5.02    1.07
  15   3  -7   -0.74    1.08
  15   3  10    0.51    1.21
  17   3  -9    0.62    0.94
  17   3  11    0.60    1.15
  19   3 -10   -0.34    0.96
  19   3  11    8.19    1.36
  21   3 -10    3.20    1.16
  23   3 -10   -1.03    1.18
   6   2   9    2.84    0.79
   8   2  -7    2.18    0.85
  10   2 -10    2.04    0.70
  11   3  -2  148.24    2.34
  11   3  -1    1.52    1.06
  11   3   7    1.97    1.11
  12   2 -12    5.81    0.89
  13   3  10   15.53    1.23
  15   3  -8    1.76    1.07
  17   3  12   -0.60    1.10
  19   3  12    1.22    1.18
   6   2  -3   15.86    0.95
  11   3   8    4.62    1.14
  13   3  11    4.89    1.01
  15   3  12    1.17    1.14
  17   3  13    1.29    1.09
  -1  -7  -4    0.46    0.84
   0  -6  -2    0.11    0.69
   1  -7  -7   -0.24    0.95
   1  -5  -1    1.02    0.74
   1  -3   1    1.05    0.54
   2  -4  -1    1.82    0.72
   4  -6  -8    2.82    1.16
   4  -2  -3    0.19    0.59
   6  -6 -14    2.79    1.24
   6  -6 -13   -0.55    1.07
   6  -4  -7    0.06    0.99
   7  -5 -12   -0.02    1.05
   8  -2 -11    2.13    0.75
   9  -3 -15    3.24    0.98
  -1  -7  -3   -0.08    0.83
   1  -7  -6   -0.34    0.94
   6  -6 -12    0.27    1.18
   6  -2  -6   27.89    0.95
   7  -5 -11    4.92    1.18
   9  -3 -14   46.22    1.58
  -2  -6   1    0.14    0.61
   0  -6  -1   -0.39    0.63
   0  -4   2    0.55    0.74
   1  -7  -5   -0.08    0.86
   3  -7  -9   -0.09    0.95
   3  -5  -3    9.88    0.94
   4  -4  -3    0.12    0.85
   5  -5  -6    0.71    0.91
   5  -3  -4  203.59    2.08
   6  -6 -11    1.29    1.22
   6  -4  -6    8.14    1.06
   7  -5 -10   16.23    1.33
   7  -1  -9  121.54    1.41
   8  -4 -11    1.85    0.99
   9  -5 -20   -0.91    1.21
   9  -5 -19    1.97    1.20
   9  -5 -18    0.13    1.18
   9  -3 -13   10.54    1.10
  10  -4 -21    1.75    1.12
  10  -4 -19    0.20    1.20
  -1  -7  -2    0.33    0.80
   1  -5   0    0.05    0.84
   2  -6  -3    0.15    0.69
   2  -4   0    0.19    0.70
   3  -7  -8   -0.09    0.96
   6  -6 -10    0.16    1.25
   7  -5  -9   18.09    1.29
   8  -4 -10   16.03    1.22
   9  -5 -16    1.53    1.18
   9  -3 -12    4.02    1.05
  10  -4 -18   -0.29    1.18
  10  -4 -17    0.99    1.20
  10  -2 -17    0.56    0.88
  10  -2 -16   15.10    1.14
   1  -7  -4    0.14    0.82
   3  -7  -7   -0.10    0.91
   3  -5  -2    3.33    1.01
   4  -4  -2    9.96    0.90
   4  -2  -2   40.82    0.90
   5  -5  -5   15.56    1.15
   6  -6  -9    1.75    1.26
   6  -4  -5   29.40    1.36
   6  -2  -5  108.78    1.49
   8  -6 -15    0.87    1.19
   8  -2  -9   16.59    0.92
   9  -1 -14  100.46    1.46
  10  -4 -16    5.50    1.22
  10  -4 -15    6.55    1.35
  10  -2 -15   11.41    1.05
   0  -6   0    0.20    0.58
   2  -6  -2    0.27    0.68
   3  -7  -6    0.43    0.82
   4  -6  -5    1.60    0.91
   5  -7 -10    0.56    1.12
   5  -3  -3   98.29    1.49
   6  -6  -8    0.86    1.04
   7  -5  -8   11.09    1.28
   7  -3  -6   19.51    1.06
   8  -6 -14   -0.47    1.26
   8  -6 -13   -0.26    1.06
   9  -5 -13    4.06    1.25
   9  -1 -13   17.25    0.84
  10  -4 -14    5.72    1.10
  10  -2 -14   11.05    1.01
  11  -3 -19    5.03    1.09
  11  -3 -18   10.27    1.12
  -1  -5   3    0.36    0.71
   1  -7  -3    0.45    0.83
   1  -5   1    0.79    0.78
   1  -3   2    0.03    0.57
   3  -5  -1    8.80    1.01
   4  -6  -4   -0.05    0.85
   5  -5  -4   52.54    1.56
   7  -5  -7    2.04    0.99
   8  -6 -12    2.27    1.17
   8  -4  -8    5.04    1.07
   8  -2  -8   23.09    0.99
   9  -5 -12    1.19    1.20
   9  -3 -10    9.50    1.09
  10  -4 -13    0.79    1.08
  11  -3 -17    1.23    0.94
   0  -6   1   -0.10    0.60
   0  -4   3    0.82    0.57
   2  -6  -1    0.16    0.59
   2  -4   1    8.84    0.78
   3  -7  -5    0.58    0.93
   6  -6  -7   -0.15    1.16
   8  -6 -11    2.32    1.16
   9  -5 -11    0.48    1.16
   9  -1 -12    8.34    0.73
  10  -4 -12    2.99    1.17
  10  -2 -13    0.30    0.86
  11  -5 -19    1.86    1.34
  11  -3 -16    1.46    0.92
  11  -3 -15    1.08    0.93
   1  -7  -2    0.53    0.85
   3  -7  -4    0.21    0.90
   5  -7  -7   -0.04    0.93
   6  -6  -6    0.97    1.04
   6  -2  -4  151.62    1.70
   7  -5  -6    3.67    0.99
   7  -3  -5    3.25    0.81
   8  -6 -10    4.37    1.32
   8  -4  -7   -0.48    0.96
   9  -5 -10    0.76    1.18
  10  -2 -12   11.15    0.98
  11  -5 -18    1.02    1.41
  11  -5 -17    0.21    1.28
  11  -3 -14    1.46    0.97
   1  -5   2    0.11    0.74
   3  -5   0   46.08    1.46
   4  -2  -1   51.98    0.96
   6  -4  -3    2.29    1.01
   7  -1  -7   15.97    0.71
   8  -6  -9    1.88    1.16
   9  -5  -9    1.52    1.08
   9  -3  -8    1.03    0.89
  11  -5 -15    0.05    1.14
  12  -4 -20    4.29    1.17
  12  -4 -19    1.39    1.16
  12  -4 -18   -0.73    1.14
  -1  -5   4    1.08    0.71
   0  -6   2   -0.02    0.59
   1  -7  -1   -0.19    0.81
   2  -6   0    0.00    0.64
   2  -4   2   18.95    0.89
   3  -7  -3   -0.69    0.89
   4  -6  -2    1.47    0.85
   5  -7  -6    0.21    0.92
   5  -5  -2    5.10    0.92
   7  -5  -5    0.56    0.96
   7  -3  -4   -0.01    0.72
   8  -4  -6    3.21    0.83
   9  -1 -11    2.04    0.56
  10  -6 -14    2.09    1.26
  10  -4 -10   -0.58    1.04
  11  -5 -14   -0.17    1.33
  12  -4 -17    2.32    1.20
  12  -4 -16    0.19    1.23
   1  -3   3    7.26    0.65
   4  -4   0    0.48    0.70
   8  -6  -8    0.23    1.13
   9  -5  -8    0.76    1.13
   9  -3  -7   26.60    1.21
  10  -6 -13   -0.99    1.06
  11  -3 -12    4.74    1.09
  12  -4 -15    1.19    1.16
   0  -4   4    9.36    0.67
   1  -7   0    0.00    0.78
   2  -6   1   -0.21    0.56
   3  -7  -2    0.08    0.79
   4  -6  -1    0.61    0.99
   5  -5  -1    1.20    0.99
   6  -6  -4    5.01    1.11
   6  -4  -2    1.15    0.90
   6  -2  -3   14.81    0.75
   7  -5  -4    0.77    0.94
   8  -6  -7    0.56    1.19
   8  -4  -5    1.38    1.04
   9  -5  -7    4.79    1.16
  10  -6 -11    1.17    1.08
  10  -2 -10    1.51    0.72
  11  -5 -12    1.57    1.29
  11  -3 -11    1.02    1.03
  12  -4 -14    4.65    1.20
   1  -5   3    0.12    0.75
   5  -7  -4    0.05    0.93
   6  -6  -3    1.37    0.94
   7  -3  -3    0.83    0.74
   8  -6  -6    0.66    1.03
  10  -6 -10   -0.85    1.04
  10  -4  -8   31.51    1.47
  12  -4 -13   20.43    1.47
  12  -2 -15    5.27    1.04
  13  -5 -18    0.03    1.43
  13  -3 -17    1.09    0.98
   2  -4   3   29.57    1.00
   3  -7  -1    0.03    0.81
   4  -2   0    0.67    0.49
   7  -7  -6   -0.68    0.94
   7  -5  -3    0.98    0.91
   8  -4  -4   18.96    1.33
   9  -5  -6    0.48    1.19
   9  -3  -6    4.29    0.70
  10  -4  -7   17.41    1.14
  10  -2  -9   66.59    1.41
  11  -5 -10    3.67    1.28
  11  -3 -10   12.83    1.28
  12  -4 -12    2.03    1.15
  13  -5 -17    0.40    1.34
  13  -5 -16   -0.58    1.31
  13  -3 -16   -0.16    0.96
   3  -5   2    3.85    0.93
   3  -3   2    4.01    0.64
   4  -6   0    0.40    0.92
   5  -7  -3   -0.06    0.79
   5  -5   0    1.20    0.91
   6  -4  -1    1.54    0.76
   8  -6  -5   -0.64    1.16
   8  -2  -5    4.43    0.78
   9  -1  -9   15.65    0.75
  10  -6  -9    4.87    1.09
  11  -5  -9    1.70    1.06
  11  -3  -9    5.49    1.13
  12  -4 -11    2.06    1.10
  12  -2 -14   11.00    0.96
  13  -5 -15    4.39    1.38
  13  -3 -15   15.30    1.18
  14  -4 -19    0.12    1.05
   1  -5   4    0.19    0.84
   3  -7   0    0.45    0.81
   5  -7  -2    0.52    0.89
   6  -2  -2    1.77    0.63
   7  -7  -5   -1.37    1.04
   7  -3  -2   12.43    0.88
   8  -4  -3  126.89    2.25
   9  -5  -5   14.99    1.31
   9  -3  -5   59.32    1.55
  10  -6  -8    6.45    1.40
  10  -4  -6    0.31    0.85
  10  -2  -8   77.43    1.46
  12  -2 -13   56.88    1.46
  13  -5 -14    0.80    1.36
  13  -3 -14    1.04    0.93
  14  -4 -18    5.37    1.15
  14  -4 -17    2.87    1.06
   0  -4   5   29.80    0.87
   1  -3   4    0.34    0.60
   4  -6   1    1.29    0.80
   4  -4   2    0.09    0.65
  10  -6  -7    3.29    1.27
  11  -5  -8    2.30    1.08
  11  -1 -13   10.51    0.69
  12  -6 -12    1.95    1.15
  13  -3 -13   -0.40    0.96
  14  -4 -16    0.31    1.15
   2  -6   3    5.04    0.85
   3  -7   1    0.19    0.76
   5  -7  -1    0.10    0.81
   5  -5   1   -0.18    0.98
   9  -5  -4   -0.20    0.99
   9  -3  -4   -0.81    0.87
  10  -4  -5    0.04    0.89
  11  -5  -7    2.72    1.17
  12  -6 -11   -0.30    1.11
  13  -3 -12    4.63    1.03
  14  -4 -15    0.90    0.97
  14  -4 -14    1.97    1.20
   2  -4   4    8.80    0.76
   5  -3   1    0.91    0.73
   7  -7  -3   -0.33    0.89
  10  -6  -6    0.67    1.12
  11  -1 -12   10.16    0.67
  12  -6 -10   -0.21    1.10
  12  -4  -8    8.01    1.11
  12  -2 -11    6.63    0.94
  14  -4 -13    0.89    1.02
   1  -5   5   55.44    1.43
   3  -3   3    1.28    0.59
   4  -6   2    0.21    0.83
   4  -2   1    5.09    0.57
   5  -7   0    0.14    0.78
   6  -2  -1    0.22    0.63
   8  -6  -2    2.72    1.17
   9  -7  -5    1.88    1.06
   9  -5  -3    2.67    1.06
  10  -6  -5    0.05    1.16
  10  -4  -4    0.14    0.85
  11  -5  -6    0.19    1.22
  12  -6  -9    0.32    1.14
  13  -5 -10   -0.13    1.34
  13  -3 -11   -0.15    0.88
  14  -4 -12    0.13    1.17
  15  -5 -16    0.32    1.19
   5  -5   2    4.97    0.99
   7  -7  -2   -0.06    0.84
   7  -5   0    2.82    0.99
   8  -4  -1    6.94    1.12
   8  -2  -3  386.81    2.67
   9  -3  -3   15.25    1.05
  11  -5  -5   -0.11    1.04
  12  -6  -8    0.91    1.20
  12  -4  -7    6.12    1.13
  12  -2 -10   -0.08    0.83
  13  -5  -9    0.40    1.24
  13  -3 -10    5.79    0.94
  15  -3 -16    0.29    0.99
   0  -4   6    0.09    0.50
   3  -5   4    2.38    0.81
   6  -6   1   18.39    1.27
   9  -7  -4   -0.14    1.14
   9  -5  -2   -0.33    1.04
  10  -6  -4   -0.44    1.24
  12  -6  -7    1.38    1.24
  13  -5  -8    9.02    1.28
  14  -4 -11   -0.27    1.04
  15  -5 -14   -0.23    1.19
  15  -5 -13    2.70    1.35
   1  -3   5  235.73    1.80
   2  -4   5   22.71    0.88
   4  -6   3   -1.00    0.82
   5  -7   1   -0.19    0.77
   7  -7  -1    0.22    0.83
   7  -5   1    0.81    0.82
   7  -3   0   16.33    0.91
   8  -6  -1   -0.09    0.96
  10  -4  -3    2.84    0.87
  11  -5  -4    0.40    1.08
  11  -3  -5    0.79    0.89
  11  -1 -10   21.86    0.89
  12  -4  -6    0.05    0.98
  12  -2  -9    9.76    0.92
  13  -3  -9    0.04    0.89
  14  -4 -10    1.82    1.12
  14  -2 -14    4.34    0.86
  15  -5 -12    8.10    1.30
  15  -3 -14    1.68    0.98
  16  -4 -17    0.03    1.07
  16  -4 -16   -0.44    0.92
   6  -4   2   93.22    1.70
   8  -4   0    2.10    0.97
   9  -3  -2    2.03    0.84
   9  -1  -6   13.14    0.72
  12  -6  -6    0.29    1.10
  13  -5  -7   15.43    1.46
  13  -3  -8   22.87    1.21
  14  -2 -13    3.23    0.97
  15  -3 -13   11.67    1.08
  16  -4 -15    0.86    1.11
   4  -4   4   17.56    0.86
   5  -7   2    0.26    0.72
   6  -6   2   19.46    1.27
   7  -7   0    0.28    0.85
   8  -6   0   -0.99    1.08
   9  -7  -2   -1.36    1.19
  10  -4  -2    3.29    0.93
  12  -6  -5    1.49    1.26
  12  -4  -5    2.01    0.94
  13  -5  -6    0.52    1.04
  15  -3 -12   22.12    1.38
  16  -4 -14    1.91    1.21
   4  -6   4    1.68    0.81
   7  -5   2    0.37    0.81
   7  -3   1    8.99    0.79
   7  -1  -3    2.49    0.55
  11  -3  -4    0.52    0.84
  11  -1  -9   15.11    0.78
  14  -6  -8    0.23    1.41
  16  -4 -13    0.01    1.21
   5  -5   4   -0.23    0.89
   6  -6   3    1.20    0.87
   6  -4   3    2.29    0.79
   7  -7   1   -0.02    0.86
   8  -6   1    1.52    1.13
   9  -7  -1   -0.29    1.12
   9  -3  -1    2.25    0.84
  10  -6  -1    0.64    1.09
  10  -4  -1    2.15    0.91
  10  -2  -4   -0.37    0.66
  11  -5  -2   37.41    1.63
  12  -6  -4    1.10    1.28
  12  -4  -4    8.56    1.06
  12  -2  -7   18.04    0.98
  13  -5  -5    0.50    1.14
  14  -6  -7   -0.75    1.33
  14  -2 -11    2.48    0.87
  15  -5  -9    1.28    1.10
  15  -3 -11    0.36    1.02
  16  -4 -12    1.28    1.19
   2  -4   6   16.73    0.81
   9  -1  -5  153.65    1.57
  11  -3  -3   53.46    1.50
  11  -1  -8   17.77    0.81
  12  -6  -3    0.25    1.06
  15  -5  -8    0.00    1.19
  16  -4 -11    2.26    1.26
  17  -5 -13    1.17    1.17
   3  -5   6   10.58    1.01
   4  -6   5    3.92    0.81
   4  -4   5   18.83    0.95
   6  -2   1  355.21    2.40
   7  -7   2    0.57    0.88
   7  -5   3    2.40    0.90
   8  -2  -1   19.61    0.79
   9  -7   0    0.10    1.10
   9  -5   1    1.01    0.94
  11  -5  -1   -0.47    1.07
  12  -4  -3    0.95    0.94
  13  -5  -4    2.41    1.05
  14  -6  -6    0.78    1.12
  14  -4  -6   -1.00    1.10
  14  -2 -10    4.10    0.92
  15  -5  -7    0.88    1.11
  15  -3  -9    4.39    1.15
  16  -4 -10    0.82    1.21
  17  -5 -12   -0.71    1.24
   3  -3   5    2.62    0.65
   5  -5   5   -0.20    0.93
   6  -6   4    0.01    0.89
   7  -3   2    3.08    0.71
   9  -3   0    6.32    0.89
  10  -4   0   13.60    1.05
  10  -2  -3    3.67    0.76
  12  -6  -2    2.07    1.22
  13  -5  -3    0.91    1.02
  13  -3  -5    0.08    0.90
  14  -6  -5    0.16    1.26
  16  -4  -9    0.91    1.15
  17  -5 -11    0.99    1.14
  17  -3 -14   -0.15    0.96
  18  -4 -15   -0.09    1.08
   4  -2   3   10.93    0.62
   6  -4   4    0.82    0.79
   7  -7   3    0.84    0.89
   7  -1  -2   17.70    0.67
   9  -7   1    0.30    1.05
   9  -5   2   35.42    1.46
  11  -5   0   -0.91    0.99
  11  -1  -7   22.79    0.87
  12  -4  -2    2.56    0.96
  13  -1 -11    0.23    0.60
  14  -4  -5    2.41    1.03
  14  -2  -9    6.72    0.91
  15  -5  -6   -0.48    1.27
  15  -3  -8   -0.18    0.96
  17  -5 -10    1.95    1.16
  18  -4 -14    0.53    1.13
   5  -3   4    1.20    0.68
   7  -5   4    1.17    0.89
   8  -6   3    0.79    1.08
   8  -2   0   12.36    0.88
  10  -4   1    1.48    0.74
  13  -5  -2   -0.42    1.02
  13  -3  -4    3.57    0.95
  14  -6  -4   -0.69    1.17
  14  -4  -4    0.66    0.99
  14  -2  -8    5.52    0.92
  15  -5  -5    0.49    1.25
  16  -4  -8   -0.60    1.05
  16  -2 -13    0.68    0.85
  17  -3 -12    0.87    1.01
  18  -4 -13    0.43    1.11
   2  -4   7   -0.36    0.58
   4  -4   6   47.70    1.28
   6  -6   5    0.83    0.95
   6  -2   2  260.04    2.09
   8  -4   3    6.10    0.94
   9  -7   2    5.49    1.14
   9  -3   1    0.62    0.84
  10  -2  -2    9.64    0.82
  11  -3  -1    1.56    0.95
  12  -4  -1   -0.79    0.93
  13  -1 -10   10.98    0.79
  14  -6  -3    0.57    1.25
  15  -3  -7    1.71    0.95
  16  -2 -12    3.15    0.89
  17  -3 -11    0.02    0.84
  18  -4 -12    8.28    1.37
   5  -5   6    0.35    0.82
   6  -4   5    8.19    0.83
   8  -6   4    4.05    0.95
   9  -5   3   21.24    1.27
  10  -6   2    0.50    1.09
  11  -1  -6   16.20    0.89
  12  -6   0    0.67    1.13
  13  -5  -1    1.20    1.06
  13  -3  -3    3.12    0.97
  14  -4  -3   -0.79    1.08
  14  -2  -7   22.00    1.18
  15  -5  -4   -0.40    1.27
  15  -3  -6    2.72    0.95
  18  -4 -11    2.04    1.29
   7  -5   5   -0.30    0.87
   9  -7   3    4.97    1.13
  10  -4   2    0.07    0.83
  12  -4   0   -0.21    0.92
  13  -1  -9    1.66    0.63
  14  -6  -2    8.92    1.44
  16  -4  -6   10.76    1.19
  16  -2 -11    4.76    0.89
  17  -5  -7   -0.20    1.10
  17  -3 -10    2.59    0.94
  18  -4 -10    2.13    1.27
   1  -3   7   66.76    1.06
   3  -3   6   62.14    1.19
   5  -3   5    2.65    0.70
   8  -4   4   23.50    1.24
   8  -2   1   35.21    1.14
   9  -3   2  140.44    1.99
  10  -6   3    0.32    1.09
  10  -2  -1    3.94    0.77
  11  -5   2    0.84    1.12
  11  -3   0    1.88    1.00
  12  -6   1   -1.05    1.19
  13  -5   0    5.54    1.09
  15  -5  -3   -0.21    1.15
  16  -4  -5    2.45    1.13
  16  -2 -10    1.14    0.82
  17  -5  -6    1.43    1.24
  17  -3  -9    0.39    1.01
  18  -4  -9    1.54    1.12
   5  -5   7    3.11    0.91
   8  -6   5    0.45    0.97
  11  -1  -5    1.59    0.69
  12  -2  -3    3.87    0.80
  13  -3  -2    0.52    0.84
  13  -1  -8   43.94    1.17
  15  -5  -2   -0.32    1.20
  17  -5  -5   -1.27    1.10
  17  -3  -8    5.05    1.07
  18  -4  -8    1.64    1.21
  19  -3 -13    1.60    1.05
  20  -4 -14   -0.22    1.13
   4  -4   7   50.85    1.31
   6  -4   6    0.04    0.85
   6  -2   3    4.05    0.70
   7  -5   6    8.43    0.95
   9  -7   4    0.65    0.99
  10  -6   4   -0.71    1.12
  12  -6   2    0.65    1.20
  12  -4   1    1.93    0.87
  13  -5   1    0.82    0.98
  14  -2  -5    2.78    0.86
  15  -3  -4    4.05    0.97
  16  -4  -4    1.22    1.06
  16  -2  -9    0.43    0.89
  19  -3 -12   -0.18    1.04
  20  -4 -13   -0.20    0.99
  20  -4 -12   -0.66    1.18
   9  -5   5    0.27    0.82
   9  -1  -2    6.49    0.70
  10  -2   0   49.23    1.30
  11  -3   1    4.10    0.77
  12  -2  -2    5.22    0.86
  13  -3  -1    0.59    0.89
  13  -1  -7  103.36    1.61
  15  -5  -1   -0.07    1.27
  16  -2  -8    0.17    0.90
  17  -5  -4    0.36    1.24
  17  -3  -7    0.99    0.96
  20  -4 -11    1.27    1.19
   7  -1   0   34.47    0.88
   8  -6   6    0.06    0.90
   8  -2   2   59.98    1.31
  11  -1  -4    0.18    0.72
  12  -6   3   11.90    1.26
  12  -4   2    1.40    0.95
  14  -6   1    0.23    1.00
  14  -4   0    0.17    0.97
  14  -2  -4    1.11    1.09
  15  -3  -3    3.82    0.99
  17  -5  -3    0.42    1.08
  17  -3  -6    5.55    1.07
  20  -4 -10    0.42    1.25
   3  -3   7   12.22    0.79
   5  -5   8    0.52    0.80
   5  -3   6    3.04    0.69
   7  -5   7    8.96    0.88
   7  -3   5    2.02    0.78
  10  -4   4    1.59    0.87
  11  -5   4    4.53    1.07
  11  -3   2    0.49    0.94
  13  -3   0   19.35    1.21
  13  -1  -6   13.54    0.90
  15  -5   0    1.11    1.20
  15  -1 -10   11.28    0.86
  16  -4  -2    0.59    0.99
  18  -2 -11    7.71    0.93
  19  -3 -10    0.44    1.03
   4  -4   8   14.61    0.95
   4  -2   5   76.24    1.20
   6  -4   7   21.72    1.10
   8  -4   6   -0.29    0.88
   9  -5   6    6.02    1.05
   9  -3   4    1.55    0.78
  12  -6   4    0.95    1.14
  14  -6   2    0.61    0.98
  15  -3  -2    3.31    0.96
  15  -1  -9   13.16    0.91
  17  -5  -2    1.01    1.25
  17  -3  -5    0.16    1.10
  20  -4  -9    0.62    1.09
   1  -3   8   15.80    0.71
   6  -2   4    0.67    0.66
   8  -6   7    1.04    0.88
   9  -1  -1    4.89    0.74
  10  -6   6    0.41    0.97
  11  -5   5    6.85    1.13
  11  -1  -3   99.93    1.54
  12  -4   3   53.68    1.63
  14  -4   1    0.28    0.97
  16  -4  -1    0.23    1.07
  16  -2  -6   25.97    1.24
  18  -4  -4    1.42    1.16
  18  -2 -10    6.14    0.89
  19  -3  -8    0.08    1.17
  20  -4  -8    0.08    1.19
   8  -2   3   10.88    0.88
  10  -4   5    6.50    0.91
  11  -3   3   11.84    1.14
  13  -3   1    1.84    0.84
  13  -1  -5    0.17    0.70
  14  -6   3    0.97    1.00
  15  -3  -1    2.27    0.97
  15  -1  -8    2.33    0.80
  16  -2  -5    5.86    0.98
  17  -5  -1    9.50    1.36
  18  -2  -9    0.00    0.89
  20  -4  -7    1.20    1.24
   7  -5   8   27.33    1.20
   9  -5   7    6.61    0.94
  10  -2   2    2.04    0.81
  12  -6   5    1.10    1.04
  12  -2   0    0.02    0.81
  13  -5   4    2.16    1.17
  14  -4   2    0.71    1.10
  14  -2  -2  118.39    2.11
  15  -5   2    0.90    1.18
  16  -4   0    1.38    1.08
  18  -4  -3   -0.96    1.15
  18  -2  -8    1.70    0.97
  20  -4  -6    0.01    1.23
  21  -3 -11    4.59    1.05
   3  -3   8   61.64    1.17
   4  -4   9   20.87    1.18
   6  -4   8   28.65    1.23
   8  -4   7   -0.60    0.95
  10  -6   7    1.30    0.93
  10  -4   6    4.10    0.99
  10   0  -6    1.23    0.57
  13  -3   2    0.25    0.90
  13  -1  -4    6.47    0.83
  14  -6   4    0.04    1.09
  15  -3   0    0.33    0.97
  15  -1  -7    0.95    0.85
  16  -2  -4    4.17    0.94
  17  -5   0    1.96    1.17
  18  -4  -2    0.25    1.21
  19  -3  -6    9.79    1.28
  21  -3 -10    2.35    1.11
   8  -2   4   90.24    1.52
  14  -4   3   -0.19    1.14
  14  -2  -1   44.50    1.59
  17  -5   1    0.06    1.08
  17  -3  -2    1.06    1.15
  18  -2  -7    0.30    0.95
  19  -3  -5   11.61    1.21
  20  -4  -5    1.02    1.00
  21  -3  -9    0.20    1.10
   4  -2   6  142.10    1.55
   7  -5   9   -0.21    0.75
   9  -5   8    0.22    0.84
  10  -2   3    2.43    0.79
  12   0  -8   48.29    0.92
  15  -3   1    1.82    0.92
  15  -1  -6    6.54    0.97
  18  -4  -1    0.65    1.26
  18  -2  -6    0.58    0.90
   1  -3   9   15.23    0.77
   5  -3   8    2.90    0.81
   6  -4   9    2.03    1.00
   7  -1   2    7.21    0.71
   9  -3   6   29.49    1.28
  10  -6   8    7.20    0.99
  10  -4   7    4.05    1.06
  10   0  -5    8.64    0.65
  11  -5   7    1.11    1.02
  11  -1  -1    7.36    0.84
  13  -3   3    0.66    0.88
  13  -1  -3    5.26    0.86
  14  -6   5    1.72    1.01
  14  -4   4    0.27    1.05
  16  -4   2   -0.26    1.09
  17  -5   2   -0.87    1.22
  17  -3  -1   29.18    1.54
  17  -1  -9    1.96    0.83
  19  -3  -4    0.12    1.15
  20  -4  -3   -0.89    1.04
  20  -2 -10    0.80    0.98
  21  -3  -8   -0.53    1.03
  11  -3   5   22.63    1.43
  12  -6   7    0.70    1.02
  12  -4   6    5.10    1.03
  12   0  -7   35.54    0.85
  13  -5   6    0.78    1.11
  14  -2   0   -0.58    0.96
  15  -1  -5    3.37    0.92
  18  -4   0   -0.04    1.19
  18  -2  -5    3.49    1.06
  19  -3  -3   -1.14    1.14
  20  -2  -9    2.18    1.00
  21  -3  -7    0.56    1.15
   3  -3   9    2.00    0.73
   4  -4  10    0.18    0.79
   8  -2   5    0.56    0.77
   9  -5   9    3.28    0.95
  11  -5   8    0.30    1.06
  13  -3   4    8.31    1.09
  13  -1  -2    0.32    0.82
  14  -6   6   -0.13    1.20
  15  -5   5    5.18    1.14
  15  -3   2    5.69    1.05
  16  -4   3    0.06    1.15
  17  -5   3   -0.51    1.22
  17  -3   0    9.77    1.37
  20  -4  -2    0.46    1.16
  20  -2  -8    1.16    1.02
  21  -3  -6   -0.17    1.18
   9  -3   7   26.67    1.37
  10  -4   8   24.83    1.41
  10  -2   4    5.07    0.86
  11  -1   0    4.84    0.78
  12  -6   8   -0.55    1.05
  13  -5   7   -0.42    1.01
  14  -2   1    0.46    1.08
  15  -1  -4    7.60    0.98
  17  -1  -7   -0.66    0.94
  18  -4   1   -0.56    1.05
  18  -2  -4    2.89    0.94
  20  -2  -7    5.30    1.18
  21  -3  -5   -0.70    1.05
  23  -3 -10    0.57    1.19
   4  -2   7  142.94    1.63
   7  -3   8  106.20    1.80
   7  -1   3   32.76    0.97
  12  -4   7    0.20    1.07
  12  -2   3  150.93    2.35
  12   0  -6    0.73    0.52
  15  -3   3   18.46    1.35
  16  -4   4   -0.48    1.06
  17  -5   4    1.96    1.26
  17  -3   1    1.08    1.20
  18  -4   2    0.47    1.02
  18  -2  -3    0.46    1.02
  20  -4  -1    1.51    1.12
  23  -3  -9    0.07    1.16
   5  -3   9    7.63    0.87
   9  -5  10    2.23    1.08
  11  -5   9   -0.40    1.04
  13  -3   5    2.37    1.00
  14  -2   2    3.07    1.20
  14   0  -8    6.63    0.73
  15  -5   6    1.25    1.03
  15  -1  -3    6.93    1.04
  16  -2   0    4.05    1.04
  17  -1  -6   15.56    1.16
  19  -3  -1    1.62    1.14
  20  -4   0    8.70    1.41
  20  -2  -6    3.74    1.08
  21  -3  -4    3.50    1.16
   5  -1   4    3.15    0.60
  10  -2   5   22.33    1.17
  10   0  -3    2.88    0.75
  11  -1   1   11.35    0.89
  12  -6   9   -0.23    1.02
  12   0  -5    9.10    0.72
  13  -5   8    1.37    1.13
  15  -3   4   17.54    1.36
  17  -3   2   -0.12    1.21
  18  -4   3   -0.61    1.03
  18  -2  -2    1.11    1.03
  19  -3   0   -0.01    1.26
  20  -2  -5   -0.52    1.06
  21  -3  -3    0.07    1.26
   6  -2   7   68.99    1.41
   7  -3   9    0.62    0.86
   8  -4  10    1.25    0.93
   9  -3   8   -0.87    0.96
  12  -2   4   11.49    0.95
  13  -3   6    0.65    0.95
  13  -1   0   39.60    1.31
  14  -4   7   -0.03    1.18
  14   0  -7   28.26    0.99
  15  -5   7    1.53    1.17
  15  -1  -2    5.00    1.01
  16  -4   5    0.02    1.14
  16  -2   1   18.03    1.23
  19  -1  -8    2.91    0.82
  20  -4   1    1.27    1.27
  22  -2  -8   -0.28    1.08
  23  -3  -6    1.38    1.17
   2  -2   8   34.14    0.90
   3  -3  10   26.62    0.95
   9  -1   3  120.56    1.74
  11  -5  10    3.73    1.07
  11  -1   2   -0.25    0.79
  13  -5   9    4.69    1.05
  14  -2   3    1.19    0.96
  15  -3   5   14.82    1.47
  17  -5   6    2.94    1.29
  17  -3   3    1.86    1.23
  17  -1  -4    1.89    1.05
  18  -4   4    3.04    1.21
  19  -3   1    5.20    1.35
  19  -1  -7    3.31    1.01
  20  -2  -4   -0.22    0.98
  21  -3  -2    2.33    1.12
  23  -3  -5    0.60    1.04
   4  -2   8   50.32    1.15
   5  -3  10   18.28    1.03
  10  -4  10   -0.37    1.11
  10  -2   6    7.85    1.02
  12  -4   9    0.39    1.13
  12   0  -4   38.47    1.07
  14   0  -6    0.35    0.65
  15  -5   8   -1.47    1.17
  15  -1  -1    1.42    1.01
  16  -4   6   -0.25    1.30
  16  -2   2    1.16    1.00
  20  -2  -3   -1.05    1.15
  22  -2  -7   -1.57    1.04
  10   0  -2    9.94    0.74
  11  -3   8    3.36    1.01
  13  -3   7    1.84    1.07
  13  -1   1    5.47    0.87
  14  -4   8    0.96    1.24
  14  -2   4    6.29    1.07
  17  -3   4    1.04    1.27
  17  -1  -3    4.47    1.07
  18  -4   5    6.80    1.34
  19  -3   2    1.47    1.31
  19  -1  -6   17.87    1.13
  20  -4   3    0.16    1.21
  22  -2  -6    1.44    1.14
   5  -1   5    6.67    0.69
   6  -2   8   93.38    1.58
   7  -3  10    8.11    1.08
   9  -1   4    4.81    0.87
  11  -5  11    1.33    1.15
  11  -1   3   24.86    1.17
  13  -5  10    4.40    1.11
  14   0  -5    4.83    0.77
  15  -5   9    1.41    1.16
  15  -3   6    1.41    1.15
  17  -1  -2    3.89    1.17
  18  -2   1    1.31    1.11
  19  -1  -5   25.70    1.28
  20  -2  -2    1.27    1.02
  23  -3  -3   -0.22    1.24
  10  -4  11    3.30    1.11
  10  -2   7    8.76    1.07
  11  -3   9    1.87    1.11
  12  -4  10    2.30    1.14
  12  -2   6   14.98    1.36
  13  -1   2    2.85    0.96
  14  -4   9    6.33    1.33
  16  -2   3    1.39    1.00
  17  -3   5   -0.27    1.18
  18  -4   6    2.51    1.35
  19  -3   3   -1.03    1.39
  20  -2  -1    2.89    1.18
  21  -3   1    0.70    1.12
  22  -2  -4    4.63    1.29
  23  -3  -2   -1.43    1.24
   3  -3  11   28.56    0.98
   5  -3  11    1.05    0.88
   7  -1   5   10.01    0.68
   8  -2   8   25.98    1.22
   8   0   0   30.75    0.88
  10   0  -1    9.52    0.76
  12   0  -2    9.39    0.83
  13  -5  11    0.51    1.08
  14  -2   5   28.84    1.35
  14   0  -4    3.06    0.79
  16  -4   8    1.30    1.35
  17  -1  -1   59.67    1.69
  18  -2   2    1.27    1.17
  19  -1  -4    0.88    0.99
   2  -2   9   18.02    0.83
   4  -2   9   69.94    1.32
   8  -4  12   -0.18    1.04
  11  -5  12   -0.20    1.22
  11  -1   4   26.59    1.23
  15  -5  10   -0.66    1.23
  16  -2   4    0.20    1.10
  16   0  -6   41.95    1.28
  17  -3   6   14.34    1.42
  18  -4   7    0.00    1.12
  19  -3   4    0.49    1.29
  19  -1  -3    0.16    1.01
  20  -2   0   19.96    1.58
  21  -3   2    0.81    1.22
  22  -2  -3   -1.43    1.08
   5  -1   6    6.53    0.75
   6  -2   9    2.38    0.82
   7  -3  11   -0.23    0.94
   9  -1   5    0.60    0.83
  11  -3  10   16.74    1.25
  12  -4  11    3.62    1.24
  12  -2   7   -0.41    1.23
  13  -3   9   18.95    1.47
  13  -1   3    3.80    0.76
  14  -4  10    2.72    1.25
  14  -2   6    6.51    1.17
  14   0  -3    6.22    0.84
  16   0  -5    8.12    1.04
  17  -1   0   20.14    1.27
  18  -2   3    0.58    1.18
  21  -1  -6   -0.22    1.08
  22  -2  -2   -0.38    1.15
  24  -2  -6   -0.79    0.98
   7  -1   6   99.17    1.56
   8  -2   9   26.38    1.19
   8   0   1   74.45    1.23
   9  -3  11    7.06    1.10
  12   0  -1    1.44    0.77
  13  -5  12   -1.05    1.13
  15  -5  11   -0.68    1.12
  15  -1   2    9.89    1.02
  16  -2   5    0.54    1.18
  17  -3   7   -0.21    1.19
  19  -3   5   -0.73    1.12
  19  -1  -2   -0.36    1.01
  21  -1  -5   -0.99    1.07
  22  -2  -1    1.40    1.07
  24  -2  -5    0.16    1.03
   3  -3  12   -0.13    0.78
   5  -3  12   54.09    1.63
   8  -4  13   38.96    1.58
  11  -1   5   53.92    1.55
  13  -1   4   19.94    1.30
  14  -4  11    0.14    1.26
  14  -2   7    0.33    1.06
  16   0  -4    3.77    0.98
  18  -2   4    7.47    1.37
  19  -1  -1   -0.52    1.04
  20  -2   2   -0.36    1.40
  21  -3   4    0.48    1.23
  21  -1  -4    2.91    1.12
  24  -2  -4   -1.04    1.22
   7  -3  12    3.94    1.04
   9  -1   6   62.05    1.51
  10   0   1    5.07    0.84
  11  -3  11    8.08    1.26
  12   0   0    2.80    0.83
  13  -3  10   15.85    1.48
  15  -1   3   37.61    1.53
  16  -2   6    2.48    1.32
  17  -3   8   -0.12    1.23
  18  -4   9    0.65    1.35
  19  -3   6    0.30    1.13
  21  -1  -3   -0.29    1.03
  22  -2   0   -0.63    1.38
  24  -2  -3    0.34    1.25
   4  -2  10    1.71    0.78
   6  -2  10   18.40    1.03
  13  -5  13    0.48    1.13
  13  -1   5    4.56    1.14
  14   0  -1   60.07    1.47
  16   0  -3   -0.08    0.98
  18  -2   5   12.71    1.54
  19  -3   7    2.00    1.36
  19  -1   0    1.51    1.18
  20  -2   3   -0.11    1.42
  21  -3   5    2.86    1.43
  22  -2   1    1.30    1.41
  24  -2  -2    1.89    1.31
   2  -2  10    9.93    0.73
   7  -1   7   46.80    1.35
   8  -2  10    0.75    0.94
   9  -3  12    5.19    1.05
  11  -1   6    5.81    1.10
  12  -4  13    3.34    1.26
  12  -2   9    1.55    1.08
  13  -3  11    5.09    1.17
  14  -4  12   -0.30    1.29
  15  -3  10    1.12    1.33
  15  -1   4   38.43    1.53
  16  -4  11    1.76    1.34
  16  -2   7    0.03    1.27
  16   0  -2    0.08    1.03
  19  -1   1   12.73    1.33
  20  -2   4    0.38    1.55
  21  -1  -2    3.07    1.30
  23  -1  -5    1.64    1.14
  24  -2  -1    1.36    1.28
   9  -1   7   56.80    1.49
  10  -2  10    0.75    1.18
  10   0   2    1.88    0.89
  11  -3  12    0.15    1.16
  14   0   0    0.74    0.88
  17  -3   9    2.77    1.19
  17  -1   3    5.49    1.16
  18  -2   6    6.93    1.52
  18   0  -4    1.79    1.07
  21  -1  -1    1.26    1.27
  23  -1  -4    0.62    1.04
   5  -3  13   46.27    1.51
   7  -3  13    0.67    1.09
  10  -4  14    2.08    1.19
  11  -1   7   10.16    1.12
  13  -1   6    0.67    1.26
  14  -4  13    1.23    1.28
  14  -2   9   18.05    1.50
  15  -1   5   27.87    1.47
  16  -4  12   -0.63    1.21
  16  -2   8    3.80    1.30
  16   0  -1    1.70    1.07
  18   0  -3    3.37    1.09
  19  -1   2    3.84    1.25
  20  -2   5    4.55    1.54
  21  -1   0   -0.23    1.29
   4  -2  11    3.90    0.80
   6  -2  11    0.15    0.85
   7  -1   8  234.98    2.41
   8  -2  11   12.27    1.31
   8   0   3   23.05    1.05
   9  -3  13    1.72    1.08
  12  -4  14    1.35    1.34
  12   0   2    9.25    1.09
  13  -3  12    0.45    1.34
  14   0   1    0.68    0.93
  15  -3  11    4.48    1.33
  17  -1   4    4.67    1.16
  18  -2   7   -1.01    1.38
   9  -1   8    0.25    0.95
  10   0   3    2.55    0.91
  11  -3  13    8.91    1.41
  13  -1   7    3.70    1.34
  16  -2   9    1.70    1.27
  16   0   0    3.42    1.20
  17  -1   5    1.38    1.16
  20  -2   6    3.22    1.42
  21  -1   1    0.19    1.40
  22  -2   4    0.74    1.36
  23  -1  -2    0.17    1.10
   2  -2  11   56.04    1.12
   7  -3  14    0.70    1.25
  12   0   3  221.77    2.57
  14  -4  14    2.94    1.38
  14  -2  10    4.70    1.31
  15  -3  12    1.99    1.50
  16  -4  13    1.77    1.35
  16   0   1   31.68    1.59
  18  -2   8    0.93    1.48
  18   0  -1    6.57    1.12
  19  -3  10   -0.46    1.47
  20   0  -4    0.28    0.90
  21  -1   2    1.10    1.19
  22  -2   5   -0.47    1.44
  23  -1  -1    0.61    1.31
   8  -2  12   -0.90    1.14
   8   0   4  126.20    1.75
   9  -3  14    1.21    1.09
  10   0   4   15.87    1.12
  12  -4  15    1.48    1.34
  13  -3  13   -0.88    1.22
  17  -1   6   29.80    1.68
  20  -2   7    3.41    1.45
  20   0  -3   -0.11    1.00
  25  -1  -3    1.26    1.20
   6   0   4    8.17    0.59
   9  -1   9   31.19    1.39
  10  -2  12    6.02    1.22
  15  -3  13    0.50    1.26
  16  -2  10   24.54    1.63
  16   0   2    1.04    1.22
  17  -3  12    0.78    1.47
  19  -1   5    1.57    1.33
  20   0  -2   -0.74    1.11
  23  -1   1   11.05    1.39
  25  -1  -2   -0.89    1.30
   5  -1   9   23.41    1.06
  12  -2  12    1.66    1.24
  13   1  -5    1.06    0.68
  14  -4  15    3.55    1.42
  17  -1   7   -0.46    1.34
  18   0   1    3.45    1.24
  20  -2   8    2.27    1.32
  20   0  -1    3.57    1.23
  25  -1  -1    0.48    1.36
   8  -2  13  112.22    2.31
   8   0   5    1.29    0.85
   9  -3  15    0.09    1.11
  10   0   5   44.43    1.41
  11   1  -4    0.01    0.63
  12   0   5   25.96    1.40
  13  -1   9   36.31    1.68
  14  -2  12    3.08    1.51
  16  -2  11    3.64    1.55
  17  -3  13    0.84    1.28
  18   0   2    2.49    1.20
  19  -1   6    0.94    1.35
  20  -2   9   -0.61    1.38
  20   0   0   35.34    1.61
  22   0  -3   -0.29    1.12
  23  -1   2    0.55    1.23
   2  -2  12  159.69    1.80
   6  -2  13    5.62    1.11
   6   0   5   61.12    1.27
  10  -2  13    0.39    1.05
  11  -3  15   -0.78    1.16
  11  -1  10   29.85    1.79
  11   1  -3  103.32    1.45
  12  -2  13    6.06    1.30
  13   1  -4    6.22    0.73
  15  -3  14    2.58    1.60
  15  -1   9    1.65    1.39
  15   1  -5    2.33    0.90
  17  -1   8    2.94    1.44
  22   0  -2    0.86    1.17
  23  -1   3    0.75    1.38
   4  -2  13    1.06    0.86
   5  -1  10   50.38    1.41
   8   0   6    2.52    1.03
  10   0   6   19.98    1.25
  13  -3  15    2.44    1.53
  13  -1  10   41.33    1.77
  13   1  -3    6.11    0.83
  14   0   5   51.61    1.88
  15   1  -4    6.01    0.90
  18  -2  11    0.34    1.64
  18   0   3   -0.47    1.30
  19  -1   7    3.19    1.37
  20  -2  10   -0.09    1.38
  20   0   1    5.44    1.27
  21  -1   6   11.60    1.77
  23  -1   4    1.36    1.33
   8  -2  14    1.56    1.17
   9  -3  16    0.01    1.15
  10  -2  14    7.45    1.24
  11  -3  16    0.42    1.32
  11   1  -2  325.04    2.49
  12   0   6   20.55    1.15
  13   1  -2    0.91    0.84
  14  -2  13   -0.31    1.26
  15  -3  15   -0.30    1.45
  15  -1  10    0.31    1.35
  16   0   5    1.45    1.22
  17  -3  14    0.70    1.30
  17  -1   9    2.87    1.53
  20   0   2   -0.26    1.37
  22   0   0    1.65    1.18
   6  -2  14    0.41    1.04
   6   0   6    3.80    0.92
   7  -1  11    0.76    0.99
  10   0   7   11.48    1.14
  11  -1  11   19.70    1.47
  11   1  -1    8.29    0.91
  12  -2  14    1.15    1.48
  13  -1  11   11.09    1.46
  13   1  -1   -0.89    0.93
  14   0   6    9.09    1.12
  15   1  -2    5.18    1.16
  17   1  -4    0.98    0.94
  18  -2  12    0.58    1.59
  20   0   3   -0.34    1.24
  21  -1   7    3.29    1.59
  22   0   1    0.41    1.35
  23  -1   5   -0.34    1.49
   2  -2  13    7.50    0.87
   8   0   7    2.15    1.06
   9   1  -1    5.96    0.80
  12   0   7    3.82    1.14
  14  -2  14   10.51    1.65
  15  -3  16   -0.55    1.56
  15  -1  11    6.32    1.48
  15   1  -1    0.58    1.13
  16   0   6   -0.30    1.31
  17  -1  10    2.11    1.56
  17   1  -3    3.68    1.00
  19  -1   9    1.86    1.68
  24   0  -1    0.80    1.21
   4  -2  14   32.72    1.28
   8  -2  15    0.32    1.11
   9  -1  12   10.32    1.40
  10  -2  15    6.68    1.50
  11  -3  17   -0.75    1.39
  11   1   0    3.92    0.98
  16  -2  14    1.33    1.46
  17   1  -2    4.64    1.12
  20   0   4    0.86    1.43
  21  -1   8   -0.70    1.42
  22   0   2    4.44    1.48
  24   0   0   -0.32    1.26
   6   0   7   94.02    1.65
   7  -1  12    4.11    1.09
   9   1   0   11.51    0.95
  11   1   1   10.11    1.04
  12   0   8   24.39    1.54
  13  -1  12    0.39    1.31
  13   1   1    6.16    1.02
  14  -2  15    9.23    1.57
  14   0   8    2.80    1.30
  15   1   0    0.99    1.09
  17   1  -1   67.43    1.83
  18   0   6   15.95    1.60
  20   0   5    4.73    1.61
  21  -1   9    1.58    1.39
  22   0   3    3.87    1.41
   0  -6 -14    0.82    1.18
   1  -3  -3    0.44    0.77
   2  -4  -7    1.20    0.99
   4  -4 -12    8.16    1.30
   5  -3 -11    6.78    1.27
   7  -3 -21    0.11    1.48
   8   0 -20   13.67    1.58
  -2  -4  -1    8.38    0.77
   0  -6 -13   -0.35    1.10
   3  -5 -14    0.00    1.06
   5  -3 -10    4.00    1.21
   6  -4 -23   -0.22    1.56
   6  -4 -22    3.19    1.75
   6  -4 -20    3.40    1.82
   6  -4 -19   -0.73    1.46
   6   0 -10    2.10    0.86
   7  -3 -25    2.22    1.77
   7  -3 -24    1.63    1.77
   7  -3 -20    0.79    1.37
   7  -3 -19    0.42    1.41
   7  -3 -18    1.21    1.59
   7  -1 -13    2.36    1.00
   8  -2 -24    3.54    1.58
   8  -2 -23   -0.69    1.79
   8  -2 -21   -0.34    1.53
   8  -2 -19    9.32    1.62
   0  -4  -3    0.32    0.82
   2  -4  -6    9.01    1.05
   3  -5 -12    0.20    0.93
   4  -2  -6    5.73    0.73
   6  -4 -18   -1.09    1.37
   6  -4 -17    0.53    1.58
   6  -2 -10    0.45    1.07
   7  -3 -16   11.76    1.62
   7  -1 -12    0.85    0.95
   8  -2 -27    3.13    1.91
   8  -2 -26    0.99    1.76
   8  -2 -25    0.40    1.75
   8  -2 -18   11.99    1.73
   8   0 -17    0.80    1.12
   2  -6 -17   -0.53    1.39
   2  -6 -16   -0.23    1.29
   3  -5 -11   -0.21    0.89
   5  -5 -20    2.54    1.76
   5  -5 -19    0.93    1.46
   5  -1  -7   21.82    0.82
   6  -4 -16    0.98    1.41
   6  -4 -15   35.33    2.00
   8   0 -16    0.02    1.10
   9  -1 -23   -1.59    1.47
   9  -1 -22    2.03    1.39
   0  -6 -10    0.12    0.86
   2  -6 -15   -0.87    1.23
   2  -6 -14    0.36    1.25
   4  -4  -9    7.41    1.40
   5  -5 -18   -0.33    1.51
   6  -4 -14    8.93    1.47
   6  -2  -9   21.00    1.37
   6   0  -9   28.70    1.04
   7  -3 -14    4.36    1.22
   8   0 -15    3.72    1.03
   9  -1 -25   -0.76    1.61
   9  -1 -24    0.40    1.43
   9  -1 -20   -0.59    1.29
   9  -1 -19   16.03    1.53
   2  -4  -5  130.66    2.10
   4  -2  -5   43.30    1.33
   5  -3  -8    4.38    1.08
   6  -4 -13    2.95    1.23
   8   0 -14    2.83    0.96
   9  -1 -18    1.28    1.31
   9  -1 -17    3.42    1.31
   0  -4  -2    0.05    0.78
   2  -6 -12   -0.41    1.14
   3  -5  -9    1.15    1.01
   5  -5 -14    0.00    1.59
   6  -4 -12    2.93    1.24
   8  -4 -23    0.06    1.71
   8  -4 -22   -0.57    1.72
   8  -4 -21   -0.64    1.44
   8  -2 -13    0.76    1.34
   9  -3 -24    0.07    1.78
   9  -3 -23   -0.53    1.81
   9  -1 -16   15.28    1.50
   2  -6 -11    0.20    0.94
   3  -3  -4   27.44    1.13
   4  -6 -17    0.55    1.29
   5  -5 -13    0.15    1.37
   5  -3  -7    4.78    1.00
   6  -4 -11    6.15    1.10
   6  -2  -8   47.61    1.33
   7  -3 -11   25.98    1.68
   8  -4 -20    4.93    1.44
   8  -4 -19    2.67    1.73
   8   0 -13    1.72    0.94
   9  -3 -19    7.58    1.68
   9  -3 -18    1.24    1.52
   9  -1 -15    4.94    1.31
  10  -2 -25    4.56    1.80
  10  -2 -24    0.08    1.47
  10  -2 -22   -0.05    1.51
   2  -4  -4   64.00    1.52
   4  -6 -15   -0.53    1.08
   5  -5 -12    4.14    1.49
   7  -5 -20    1.53    1.54
   7  -5 -19   -0.81    1.59
   8  -4 -17   -0.20    1.44
   8  -4 -16   -1.50    1.39
   8  -2 -12   21.16    1.39
   9  -3 -17    2.20    1.48
  10  -2 -26    0.36    1.74
  10  -2 -20   -0.93    1.49
  10  -2 -19    0.45    1.44
   4  -6 -14   -0.34    1.26
   4  -2  -4   22.24    1.03
   7  -5 -18   -0.45    1.48
   8  -4 -15    0.16    1.40
   8  -2 -11    2.27    1.18
   8   0 -12   30.37    1.21
   9  -3 -16    6.19    1.52
   9  -1 -14  103.21    2.20
  10  -2 -18   -0.56    1.36
   1  -3  -1    0.36    0.65
   2  -6  -9   -0.18    0.97
   3  -5  -7    1.61    1.19
   4  -6 -13   -0.08    1.15
   4  -4  -6    2.15    0.93
   5  -3  -6    1.04    0.91
   7  -5 -16    3.03    1.68
   8  -4 -14   -0.38    1.38
  10  -2 -17    0.48    1.24
  10  -2 -16   16.01    1.46
  10   0 -18   -0.59    1.17
  11  -1 -23    1.32    1.34
   1  -5  -4    0.57    0.89
   2  -4  -3    0.41    0.80
   4  -6 -12   -0.18    1.15
   7  -3  -9   62.99    1.91
   8  -4 -13    0.55    1.34
   9  -3 -14   46.60    1.76
  10  -4 -22    0.42    1.43
  11  -1 -22   -0.94    1.42
  11  -1 -21    2.24    1.37
   2  -6  -8   -0.06    0.91
   6  -6 -16   -1.02    1.35
   7  -5 -13    1.59    1.25
   7  -1  -8   95.24    1.68
   8   0 -11    5.01    0.88
   9  -3 -13    9.44    1.35
   9  -1 -12    7.70    1.09
  10  -4 -21    1.12    1.42
  10  -4 -20   -1.16    1.60
  10  -4 -19    1.10    1.39
  11  -3 -24    0.39    1.54
  11  -3 -23   -0.92    1.57
  11  -3 -21    1.85    1.72
  11  -1 -19    9.14    1.44
   4  -4  -5    9.03    1.01
   7  -3  -8   41.57    1.63
   9  -5 -19    2.08    1.60
   9  -3 -12    4.38    1.31
  10  -4 -18   -1.27    1.67
  10  -4 -17    0.33    1.68
  10   0 -16   20.04    1.30
  11  -1 -18   20.82    1.50
  12  -2 -26    0.55    1.66
  12  -2 -25   -0.57    1.65
  12  -2 -24    1.04    1.57
  12  -2 -23   -0.51    1.59
   1  -5  -3    0.18    0.84
   4  -2  -3   -0.50    0.66
   5  -5  -8    0.66    1.04
   7  -5 -12    0.05    1.30
   8  -4 -11    2.18    1.21
   9  -5 -18    0.25    1.38
   9  -5 -17    0.56    1.65
   9  -1 -11    1.76    0.98
  10  -4 -16    3.62    1.50
  10  -2 -13    0.68    1.31
  10   0 -15   19.21    1.21
  11  -3 -17    1.25    1.59
  11  -1 -17    3.74    1.18
  12  -2 -22   -0.13    1.57
  12  -2 -21    2.67    1.57
   2  -4  -2    5.31    0.86
   3  -3  -2   22.41    1.07
   6  -6 -13    0.46    1.23
   6  -4  -7   -1.20    1.22
   7  -5 -11    6.07    1.50
   7  -1  -7   15.89    1.04
   8   0 -10   66.97    1.37
   9  -5 -16    3.43    1.53
   9  -3 -11    1.97    1.41
  11  -3 -16    0.92    1.58
  12  -2 -19    3.54    1.48
   0  -4   0  342.14    2.55
   4  -4  -4    3.88    0.88
   5  -5  -7    0.55    1.10
   6  -6 -12    0.26    1.15
   6  -2  -5  105.64    1.74
   7  -3  -7    7.01    1.11
   8  -2  -8   22.77    1.27
   9  -5 -15    1.41    1.64
  10  -2 -12   10.35    1.42
  10   0 -14   15.81    1.13
  11  -3 -15    1.28    1.47
  11  -1 -15    0.76    1.19
  12  -2 -18    0.49    1.38
   6  -6 -11    0.48    0.98
   6  -4  -6    7.66    1.13
   8  -6 -16   -0.06    1.29
   8  -4  -9    4.80    1.15
  10  -4 -13   -0.16    1.32
  11  -1 -14    1.38    1.13
  12  -4 -21   -1.10    1.67
  12  -4 -20    4.60    1.56
  12  -2 -17    0.20    1.25
  13  -3 -23    3.41    1.78
  13  -3 -22    2.57    1.84
   3  -5  -4    6.63    1.05
   5  -5  -6    0.88    1.22
   7  -5  -9   17.17    1.52
   7  -3  -6   19.40    1.26
   8  -6 -15    0.16    1.19
   8   0  -9   17.27    0.92
  10  -2 -11   16.79    1.35
  10   0 -13   -0.19    0.88
  12  -4 -19    2.18    1.70
  12  -4 -18   -0.27    1.46
  12  -2 -16    0.50    1.20
  13  -3 -21   -0.91    1.90
  13  -1 -22    4.01    1.46
   4  -6  -7    1.62    1.01
   4  -4  -3   -0.30    0.76
   6  -6 -10   -0.89    1.13
   7  -1  -6   51.56    1.32
   8  -6 -14    0.52    1.16
   9  -3  -9    6.78    1.03
  10  -4 -12    2.16    1.47
  11  -5 -18    1.37    1.47
  11  -5 -17   -0.13    1.45
  11  -3 -13    4.22    1.37
  11  -1 -13    9.85    1.35
  12  -2 -15    5.35    1.34
  13  -1 -20    2.17    1.20
  13  -1 -19    1.34    1.31
  14  -2 -25   -0.49    1.68
  14  -2 -24   -0.88    1.57
   2  -4  -1    1.98    0.68
   4  -2  -2   40.36    0.98
   6  -4  -5   29.67    1.42
   6  -2  -4  155.80    1.95
   7  -5  -8   12.02    1.37
  10  -4 -11    5.95    1.40
  10  -2 -10    1.44    1.07
  10   0 -12   21.35    1.10
  11  -5 -16   -0.68    1.52
  11  -3 -12    5.56    1.47
  12  -4 -16    0.29    1.68
  13  -1 -18    0.84    1.20
  14  -2 -23   -0.22    1.49
  14  -2 -21   -0.25    1.51
   3  -5  -3    8.66    1.02
   5  -5  -5   15.00    1.34
   7  -3  -5    3.54    0.92
   8  -6 -12    2.72    1.43
   9  -5 -11    1.18    1.23
   9  -3  -8    0.59    1.27
  11  -5 -15    0.86    1.51
  12  -4 -15    2.06    1.59
  12   0 -17    1.45    1.10
  13  -3 -16   -0.28    1.46
  13  -1 -17   -0.62    1.09
  14  -2 -20    0.81    1.51
   6  -6  -8    1.16    1.29
   7  -5  -7    2.02    1.05
   8   0  -8   48.44    1.20
   9  -5 -10    1.83    1.32
  10  -6 -15    1.05    1.41
  10  -4 -10   -0.17    1.22
  10  -2  -9   66.58    1.89
  11  -5 -14    1.36    1.54
  11  -3 -11    0.08    1.19
  12  -4 -14    3.53    1.53
  12   0 -16    1.17    0.94
  13  -3 -15   15.58    1.68
  14  -2 -19   -0.48    1.56
  14  -2 -18   13.41    1.73
   4  -4  -2   10.05    0.94
   6  -4  -4   43.85    1.50
  10  -6 -14    1.88    1.40
  11  -5 -13    0.76    1.54
  12  -4 -13   21.95    1.80
  13  -1 -16   -0.44    1.07
  14  -4 -19   -0.18    1.72
  14  -2 -17    7.18    1.64
  15  -3 -22    0.65    1.65
   3  -5  -2    2.70    0.99
   5  -5  -4   52.84    1.67
   6  -6  -7    0.25    1.15
   7  -5  -6    4.04    1.17
   7  -1  -5    9.88    0.83
   8  -6 -10    3.06    1.46
   8  -4  -6    3.70    1.23
  10  -4  -9   21.31    1.60
  10  -2  -8   77.86    1.90
  11  -3 -10   13.72    1.18
  12   0 -15    9.27    1.11
  13  -5 -17    1.36    1.51
  13  -3 -14   -0.14    1.39
  14  -4 -18    4.54    1.78
  15  -3 -20    5.00    1.81
   2  -4   0    1.29    0.61
   5  -3  -2   31.93    1.23
   6  -2  -3   15.64    1.01
   7  -3  -4    1.00    0.89
  12  -4 -12    3.12    1.55
  13  -5 -16   -1.09    1.43
  13  -1 -14    0.23    1.40
  14  -4 -17    4.06    1.70
  14  -2 -16   -0.24    1.32
  16  -2 -24    0.65    1.64
   8  -2  -5    4.91    0.76
   9  -5  -8    0.44    1.21
   9  -1  -7   65.70    1.51
  10  -6 -12    2.31    1.48
  10  -4  -8   31.60    1.74
  11  -3  -9    4.57    1.11
  11  -1 -10   21.64    1.22
  12  -4 -11    0.90    1.46
  13  -5 -15    1.97    1.69
  14  -4 -16    0.88    1.51
  14  -2 -15    1.48    1.35
  16  -2 -23    3.94    1.59
  16  -2 -22    3.81    1.50
   3  -3   0  173.13    1.87
   5  -5  -3   20.60    1.31
   6  -4  -3    2.79    0.88
   7  -5  -5   -0.57    1.00
   8  -6  -8    1.24    1.30
   8  -4  -5    0.58    1.21
  10  -6 -11    1.01    1.54
  10  -2  -7   58.84    1.73
  12  -2 -10   -0.42    1.33
  13  -5 -14   -0.71    1.44
  13  -3 -12    5.63    1.40
  13  -1 -13    2.05    1.25
  14  -4 -15    1.57    1.51
  14  -2 -14    3.17    1.33
  15  -1 -19    1.43    1.42
  16  -2 -21    2.26    1.49
  16  -2 -20    2.48    1.33
   9  -5  -7    5.32    1.27
  11  -5 -10    5.34    1.35
  11  -3  -8    6.61    1.40
  12  -4 -10    0.29    1.49
  12   0 -13   76.16    1.81
  13  -5 -13   -0.58    1.63
  14  -4 -14    3.02    1.78
  15  -1 -18    1.29    1.13
  16  -2 -19   -0.70    1.62
   6  -6  -5    6.64    1.20
   7  -1  -4    1.94    0.56
   8  -6  -7   -0.92    1.23
   8  -2  -4   48.57    1.49
   9  -3  -5   58.17    1.80
  10  -6 -10   -1.81    1.32
  10   0  -9   93.51    1.66
  12  -6 -13    5.38    1.43
  12  -2  -9   10.44    1.30
  13  -1 -12   11.78    1.38
  14  -4 -13    1.09    1.65
  15  -3 -15   -1.13    1.35
  15  -1 -17    0.99    1.26
  16  -4 -18    0.44    1.56
   5  -5  -2    4.16    1.07
   5  -3  -1    1.78    0.76
   6  -4  -2    1.39    0.83
   6  -2  -2    1.42    0.80
   7  -5  -4   -0.25    1.10
   8  -4  -4   18.51    1.41
   9  -5  -6    0.46    1.18
  10  -2  -6    2.40    1.01
  11  -3  -7    9.47    1.46
  12   0 -12    7.40    1.04
  13  -5 -12    2.14    1.57
  13  -3 -10    5.19    1.24
  14  -4 -12   -0.86    1.42
  15  -3 -14   -0.25    1.49
  15  -1 -16    0.62    1.20
  16  -2 -17    0.09    1.53
  17  -3 -20    1.95    1.57
   8  -6  -6    1.28    1.23
  11  -5  -8    1.87    1.32
  12  -6 -12    2.31    1.31
  15  -5 -15    0.77    1.59
  15  -1 -15   -0.39    1.17
  16  -4 -16    0.39    1.72
  17  -3 -19    0.64    1.50
  17  -3 -18    1.98    1.48
   4  -4   0   -0.37    0.78
   8   0  -6   10.44    0.79
   9  -5  -5   14.42    1.45
  10  -6  -8    9.04    1.55
  12  -6 -11    0.61    1.56
  12  -4  -8    8.49    1.46
  12  -2  -8   25.63    1.60
  12   0 -11    9.11    1.05
  13  -3  -9   -0.30    1.27
  14  -4 -11   -0.04    1.58
  14   0 -15    1.95    1.08
  15  -5 -14    0.30    1.36
  16  -2 -15    2.82    1.43
  17  -3 -17    8.21    1.66
  18  -2 -22    0.86    1.38
   3  -3   1  358.30    2.52
   8  -2  -3  398.27    3.22
   9  -1  -5  145.35    1.98
  10  -2  -5    2.79    0.96
  10   0  -8  124.63    1.84
  11  -5  -7    3.31    1.27
  12  -6 -10    1.10    1.25
  15  -1 -14    3.62    1.20
  16  -4 -14    1.47    1.56
  17  -1 -19   -0.33    1.28
  18  -2 -21    0.42    1.54
  18  -2 -20    0.29    1.53
   5  -5  -1    1.06    0.93
   8  -6  -5   -0.29    1.25
  10  -6  -7    4.81    1.37
  12  -4  -7    4.38    1.42
  12  -2  -7   17.22    1.29
  13  -3  -8   18.44    1.57
  14  -4 -10    0.86    1.40
  14  -2 -10    2.38    1.21
  14   0 -14    5.59    1.08
  15  -3 -11    0.31    1.48
  16  -2 -14    4.13    1.47
  17  -1 -18    1.45    1.32
  18  -2 -19    2.58    1.53
   5  -3   0    2.07    0.80
   9  -5  -4    0.09    1.10
   9  -3  -3   14.55    1.14
  11  -5  -6    2.19    1.27
  11  -3  -5    0.22    1.11
  12  -6  -9    0.49    1.45
  12   0 -10    0.92    0.84
  14  -4  -9    3.23    1.48
  15  -5 -12    7.70    1.72
  15  -1 -13   19.38    1.36
  16  -4 -13   -0.21    1.49
  16  -2 -13    1.19    1.33
  17  -1 -17   15.05    1.58
  18  -2 -18    1.79    1.60
   7  -5  -2    3.73    1.17
   8  -6  -4    4.36    1.24
   8  -4  -2    7.06    1.23
  10  -6  -6    0.52    1.28
  10  -4  -4   -0.36    1.27
  12  -4  -6    1.14    1.25
  13  -5  -8    5.70    1.64
  13  -3  -7   50.43    1.88
  13  -1  -9    0.72    1.06
  14   0 -13    3.72    0.99
  15  -5 -11    1.34    1.39
  15  -3 -10    4.88    1.46
  16  -4 -12    0.61    1.74
  18  -2 -17    1.71    1.70
   4  -4   1    3.00    0.87
   7  -3  -1   11.13    1.03
   8   0  -5    3.74    0.70
  10  -2  -4   -0.16    0.96
  12  -6  -8    0.78    1.52
  12  -2  -6    0.45    1.15
  14  -4  -8    0.55    1.47
  16  -4 -11    1.89    1.68
  16  -2 -12    2.74    1.40
  17  -3 -13   -0.45    1.58
  17  -1 -16    3.29    1.23
  18  -4 -15   -0.16    1.55
  18  -2 -16    1.09    1.51
  19  -3 -18   -0.06    1.66
   5  -5   0    0.81    0.83
   6  -4   0    1.70    1.00
   8  -2  -2   16.84    1.11
   9  -5  -3    4.05    1.11
   9  -1  -4    0.33    0.60
  10  -6  -5   -0.43    1.06
  11  -5  -5    1.14    1.16
  11  -3  -4    0.02    1.18
  11  -1  -6   16.08    0.93
  11   1 -11    1.87    0.67
  13  -5  -7   16.87    1.65
  14  -6 -10   -0.33    1.48
  14  -2  -8    4.95    1.33
  14   0 -12   -0.68    0.99
  15  -5 -10    1.89    1.69
  15  -3  -9    3.90    1.47
  17  -3 -12    0.63    1.38
  17  -1 -15    3.89    1.28
  18  -2 -15    1.06    1.33
  19  -3 -17    1.68    1.55
   7  -1  -2   17.43    0.90
  12  -6  -7   -0.42    1.30
  13  -3  -6    5.11    1.17
  13  -1  -8   43.70    1.52
  14  -4  -7    6.82    1.51
  16  -4 -10    0.38    1.63
  18  -4 -14    0.91    1.51
   5  -3   1    0.14    0.78
   8  -4  -1    5.95    1.13
  11  -5  -4   -0.80    1.18
  12  -2  -5    3.78    1.10
  13  -5  -6    0.09    1.39
  14  -6  -9   -0.01    1.34
  14   0 -11    4.37    1.19
  15  -3  -8    1.46    1.36
  15  -1 -10   10.71    1.53
  17  -3 -11    0.43    1.47
  17  -1 -14    1.87    1.14
  18  -4 -13    0.93    1.75
  18  -2 -14    2.59    1.43
  19  -3 -15   -0.18    1.67
  20  -2 -19   -0.24    1.61
   7  -3   0   17.00    1.11
  10  -6  -4    0.80    1.19
  10   0  -6    1.44    0.82
  11  -3  -3   52.01    1.79
  11  -1  -5    0.81    0.93
  11   1 -10   23.59    0.96
  12  -6  -6    0.47    1.19
  12   0  -8   49.35    1.52
  13  -3  -5   -0.80    1.16
  14  -6  -8    1.83    1.31
  14  -4  -6   -0.58    1.32
  14  -2  -7   21.80    1.68
  16  -4  -9    0.06    1.38
  16   0 -14    7.50    1.24
  17  -1 -13   -0.01    1.25
  18  -4 -12    6.78    1.87
  18  -2 -13    0.06    1.42
  20  -2 -18    1.09    1.52
   9  -1  -3   38.42    1.27
  15  -3  -7    1.18    1.34
  16  -4  -8    0.15    1.35
  19  -1 -17    0.66    1.31
  20  -2 -17    4.33    1.54
   4  -4   2    0.39    0.65
   6  -4   1  103.73    1.87
   7  -5   0    4.22    1.13
  10  -6  -3    1.22    1.19
  11  -5  -3   15.15    1.48
  12  -6  -5    1.02    1.25
  12  -2  -4   28.93    1.47
  14  -6  -7    1.67    1.47
  14  -2  -6   -0.64    1.28
  14   0 -10    4.25    1.09
  15  -1  -9   10.86    1.44
  16   0 -13    0.62    1.17
  17  -5 -10    1.69    1.38
  17  -1 -12    2.25    1.28
  18  -4 -11    0.82    1.53
  18  -2 -12   19.56    1.78
  19  -1 -16   -0.70    1.32
  20  -2 -16    1.43    1.54
   8  -4   0    3.15    0.93
   9  -5  -1    0.45    1.06
  12  -4  -3    0.23    1.18
  13  -3  -4    3.39    1.21
  14  -4  -5    0.63    1.32
  16  -4  -7   15.44    1.67
  16  -2  -8    0.51    1.16
  17  -5  -9   -0.05    1.60
  18  -4 -10    2.98    1.61
  19  -3 -12    1.20    1.63
  19  -1 -15    0.34    1.37
  20  -2 -15    2.19    1.57
   7  -1  -1   43.03    1.16
  10  -4  -1    1.26    1.19
  11  -5  -2   37.88    1.80
  11  -1  -4    0.43    0.92
  12   0  -7   34.86    1.31
  13  -5  -4    0.12    1.34
  14  -6  -6    1.08    1.33
  15  -5  -6    2.08    1.53
  15  -1  -8    1.20    1.35
  16   0 -12    3.98    1.18
  17  -3  -8    5.01    1.51
  17  -1 -11   -0.05    1.17
  20  -2 -14   -0.30    1.60
   5  -3   2   23.27    1.08
   7  -3   1    8.24    0.98
  10  -6  -2    1.84    1.16
  10   0  -5    8.01    0.86
  12  -2  -3    4.73    1.10
  14  -2  -5    2.15    1.39
  14   0  -9   12.85    1.21
  16  -4  -6   10.37    1.46
  18  -4  -9    1.30    1.36
  19  -1 -14    0.04    1.42
   3  -3   3    1.66    0.84
   6  -2   1  357.04    2.84
   8  -4   1    8.32    1.12
   8  -2   0   10.84    1.07
   9  -5   0   -0.57    1.09
  12  -6  -3   -0.09    1.28
  12  -4  -2    2.29    1.06
  13  -5  -3    1.28    1.29
  13  -3  -3    3.01    1.22
  13  -1  -5   -0.62    1.05
  14  -6  -5    0.46    1.38
  15  -5  -5    0.63    1.57
  15  -3  -5    1.59    1.23
  16   0 -11    5.40    1.31
  17  -3  -7   -0.82    1.35
  17  -1 -10    5.96    1.26
  18  -4  -8    1.40    1.36
  19  -1 -13    4.93    1.26
  20  -2 -13    0.54    1.51
  21  -3 -14    1.66    1.40
   4  -4   3    2.56    0.75
  10  -4   0   12.76    1.32
  11  -5  -1   -0.02    1.22
  11  -3  -1    1.78    1.17
  12   0  -6    0.59    1.00
  15  -1  -7    1.34    1.29
  20  -2 -12   -0.90    1.39
  21  -3 -13    1.03    1.63
  11  -1  -3   98.12    1.79
  14  -6  -4   -1.26    1.32
  14  -2  -4    0.34    1.38
  14   0  -8    7.34    1.15
  15  -5  -4    0.27    1.57
  17  -3  -6    7.31    1.46
  17  -1  -9    0.21    1.12
  18  -4  -7    0.32    1.60
  19  -3  -9   -0.41    1.39
  19  -1 -12    0.41    1.31
  22  -2 -16   -1.59    1.39
  10   0  -4    2.66    0.82
  12  -6  -2    0.55    1.27
  12  -4  -1    0.46    1.00
  13  -5  -2   -0.26    1.33
  13  -3  -2    1.10    1.06
  15  -1  -6    7.86    1.26
  16   0 -10    0.73    1.14
  19  -3  -8    1.38    1.43
  20  -2 -11    0.36    1.50
  21  -1 -15   -1.33    1.21
  22  -2 -15   -1.28    1.55
   7  -3   2    2.96    0.93
   8  -4   2   19.16    1.24
   9  -5   1   -0.30    1.06
   9  -3   1    1.24    0.96
   9  -1  -1    5.16    0.93
  11  -5   0    0.53    1.21
  14  -6  -3   -1.26    1.29
  15  -5  -3    0.09    1.54
  16  -6  -5    1.84    1.49
  16  -4  -4    1.35    1.32
  16  -2  -5    7.16    1.29
  17  -5  -5   -0.67    1.70
  17  -1  -8    9.74    1.31
  18  -4  -6    0.81    1.52
  20  -4  -9    0.77    1.50
  20  -2 -10    2.20    1.58
  22  -2 -14    0.78    1.57
   6  -4   3    2.83    0.89
   8  -2   1   35.80    1.37
  10  -4   1    1.14    1.15
  10  -2   0   50.97    1.59
  11  -1  -2  324.40    3.16
  12  -6  -1   -0.27    1.26
  12   0  -5    9.15    1.04
  15  -3  -3    3.96    1.19
  16   0  -9    1.46    1.15
  17  -3  -5   -0.16    1.34
  18  -2  -7    1.78    1.40
  18   0 -12   27.37    1.54
  19  -3  -7   -0.24    1.65
  19  -1 -10   -0.91    1.36
  20  -4  -8    0.62    1.65
  21  -3 -10    3.74    1.68
  21  -1 -14    0.00    1.28
  22  -2 -13    1.34    1.46
  12  -4   0   -0.69    1.00
  12  -2  -1   -0.60    1.11
  13  -3  -1    1.04    1.05
  16  -6  -4   -0.07    1.47
  16  -4  -3   -0.24    1.40
  17  -5  -4   -1.04    1.63
  17  -1  -7    0.93    1.09
  18  -4  -5    0.84    1.64
  20  -2  -9    0.94    1.52
  21  -1 -13    2.72    1.42
   9  -5   2   36.00    1.63
  11  -5   1    3.37    1.06
  13  -1  -3    6.91    1.15
  14  -6  -2    8.82    1.48
  15  -5  -2    1.26    1.44
  16  -2  -4    4.44    1.30
  17  -3  -4    0.24    1.37
  18  -2  -6   -0.67    1.44
  18   0 -11    8.81    1.20
  19  -3  -6   10.46    1.75
  19  -1  -9    0.97    1.18
  20  -4  -7    0.72    1.72
  21  -3  -9    0.39    1.46
  21  -1 -12    0.68    1.49
  22  -2 -12    3.12    1.36
   3  -3   4   11.88    0.89
   9  -3   2  138.16    2.29
  10  -4   2   -0.71    1.09
  13  -5   0    4.55    1.38
  14  -2  -2  112.66    2.52
  16  -6  -3   -0.15    1.25
  16   0  -8    1.08    1.17
  18  -4  -4    1.16    1.70
  20  -2  -8    0.58    1.47
  21  -3  -8    0.98    1.56
  22  -2 -11    1.18    1.54
   8  -4   3    4.24    1.19
   9  -1   0   12.73    1.07
  10  -2   1    4.41    1.08
  12   0  -4   39.98    1.37
  13  -3   0   18.16    1.40
  13   1  -8   45.96    1.34
  14  -6  -1    2.28    1.27
  15  -5  -1    0.94    1.38
  16  -2  -3   -0.09    1.17
  17  -5  -3   -0.28    1.52
  17  -3  -3    1.62    1.39
  17  -1  -6   16.46    1.37
  18  -2  -5    3.60    1.31
  18   0 -10    9.34    1.28
  20  -4  -6    0.78    1.46
   6  -4   4    1.13    0.87
   7  -1   1   14.51    1.01
   8  -2   2   60.31    1.60
  11  -5   2    0.29    1.14
  13  -1  -2    1.32    1.10
  14  -4   0   -0.63    1.16
  15  -3  -1    0.91    1.22
  16  -6  -2   -1.08    1.43
  16   0  -7   47.26    1.71
  20  -4  -5    0.27    1.64
  22  -2 -10    0.13    1.39
   5  -3   4    0.19    0.87
   9  -5   3   20.36    1.40
  11   1  -6   18.13    0.96
  13  -5   1    0.21    1.34
  14   0  -5    5.30    0.99
  17  -5  -2    1.00    1.62
  17  -1  -5    3.44    1.16
  18   0  -9   -0.31    1.13
  19  -3  -4    0.63    1.40
  22  -2  -9   -0.25    1.63
  23  -1 -13    1.52    1.35
  10  -4   3    2.05    1.18
  12  -4   2    0.82    1.14
  14  -6   0    0.81    1.16
  14  -4   1    0.69    1.16
  15  -5   0    0.04    1.47
  15  -1  -3    7.22    1.39
  16  -2  -2   -0.24    1.26
  17  -3  -2    3.44    1.34
  20   0 -11    0.62    1.15
  21  -3  -6    1.06    1.54
  21  -1  -9    0.22    1.42
   7  -3   4    8.66    1.19
  10  -2   2    1.37    0.99
  11  -1   0    3.79    1.01
  15  -3   0    0.40    1.19
  16  -6  -1   -0.25    1.40
  16  -4   0    0.90    1.33
  16   0  -6   42.48    1.70
  17  -5  -1    8.52    1.74
  18   0  -8    1.23    1.19
  19  -3  -3   -0.42    1.27
  22  -2  -8   -0.31    1.58
  23  -1 -12    0.90    1.34
   9  -1   1   -0.50    1.00
  11  -5   3    1.57    1.10
  13  -5   2    1.57    1.36
  14  -2   0   -0.30    1.45
  14   0  -4    3.89    1.03
  15  -5   1    0.26    1.46
  17  -3  -1   27.30    1.89
  18  -2  -3    1.36    1.38
  19  -1  -6   17.30    1.51
  20  -4  -3    0.64    1.43
  20  -2  -5    1.51    1.38
  20   0 -10    1.08    1.17
  21  -3  -5    1.11    1.34
  21  -1  -8    0.42    1.47
  23  -1 -11    0.30    1.31
   6  -4   5    7.08    0.91
  11  -3   3   10.41    1.44
  12  -4   3   51.88    1.90
  14  -4   2    0.96    1.22
  15   1  -8    2.41    0.91
  16  -6   0    1.06    1.37
  16  -2  -1    0.23    1.28
  16   0  -5    8.27    1.41
  17  -5   0    4.24    1.42
  18   0  -7    0.26    1.18
  22  -2  -7   -0.29    1.36
   3  -3   5    3.12    0.82
   7  -1   2    7.70    0.93
   9  -3   4    1.31    1.01
  10  -4   4    2.05    1.22
  13   1  -6   12.43    1.06
  15  -3   1    0.95    1.16
  16  -4   1    7.44    1.50
  18  -2  -2    0.67    1.38
  19  -3  -2   -0.57    1.31
  19  -1  -5   24.92    1.72
  20  -2  -4   -0.49    1.46
  21  -3  -4    1.89    1.39
  21  -1  -7    1.91    1.36
  23  -1 -10    2.05    1.31
  24  -2  -9    2.15    1.58
   5  -3   5    2.26    0.94
   8  -4   5    0.69    0.97
  10   0  -1    8.83    1.10
  11  -1   1   10.74    1.20
  12  -2   2    4.85    1.34
  12   0  -2    8.97    1.07
  13  -5   3    0.15    1.32
  13  -1   0   40.01    1.65
  14  -2   1    0.97    1.42
  15  -5   2    1.85    1.40
  16  -6   1    1.26    1.35
  17  -3   0    8.92    1.45
  18   0  -6    0.22    1.26
  23  -1  -9    1.30    1.27
  24  -2  -8   -0.04    1.34
   6  -2   4    1.11    0.86
   7  -3   5    1.68    1.12
  10  -2   3    3.93    0.78
  15  -1  -1    0.86    1.40
  15   1  -7    1.44    0.93
  16  -2   0    3.69    1.26
  17  -5   1   -1.27    1.45
  19  -3  -1    0.24    1.50
  20  -2  -3   -0.22    1.46
  20   0  -8    0.39    1.18
  21  -3  -3    0.70    1.34
   8   0   0   31.15    1.09
   9  -1   2  334.60    3.12
  10  -4   5    8.02    1.41
  11  -3   4   15.32    1.53
  17  -3   1   -0.47    1.48
  18  -4   1   -0.42    1.56
  18  -2  -1    3.28    1.38
  20  -4  -1    2.48    1.36
  23  -1  -8   -0.60    1.44
  24  -2  -7   -0.30    1.53
   6  -4   6    0.67    0.94
   9  -3   5    0.62    1.00
  11   1  -4    0.81    0.82
  12  -2   3  148.23    2.70
  13  -5   4    1.29    1.31
  13   1  -5   -0.27    0.82
  14  -2   2    4.26    1.54
  15  -5   3    4.26    1.50
  16  -2   1   18.58    1.55
  17  -5   2   -1.13    1.43
  18   0  -5    5.79    1.22
  19  -1  -3   -0.65    1.39
  20  -2  -2    0.79    1.42
  20   0  -7    9.22    1.35
  21  -3  -2    0.91    1.35
  21  -1  -5   -0.96    1.49
  25  -1 -10   -0.96    1.50
  10   0   0   69.02    1.56
  11  -1   2    0.25    1.07
  13  -1   1    5.21    0.94
  14  -4   4    1.27    1.35
  15  -1   0    1.08    1.26
  15   1  -6    7.74    1.08
  22   0  -9   -0.43    1.27
  24  -2  -6    0.52    1.32
   7  -1   3   32.79    1.22
   8  -4   6    0.80    0.97
  10  -2   4    4.00    1.12
  12  -4   5    5.42    1.29
  13  -3   4    6.96    1.22
  17  -3   2   -0.28    1.31
  17   1  -7   -0.52    1.18
  18  -4   2    0.79    1.44
  20  -2  -1    2.74    1.52
  20   0  -6    5.56    1.33
  21  -3  -1    1.18    1.37
  21  -1  -4    2.39    1.54
  22   0  -8   -1.21    1.33
  23  -1  -6    0.08    1.35
  24  -2  -5   -1.08    1.38
  25  -1  -9    2.01    1.49
   3  -3   6   59.84    1.35
   4  -2   5   73.40    1.46
   5  -3   6    2.32    0.93
   6  -2   5   30.37    1.28
   9  -1   3  117.48    2.14
  10  -4   6    3.48    1.27
  11  -3   5   23.30    1.58
  13  -5   5    1.74    1.19
  13   1  -4    5.14    1.04
  14   0  -1   61.65    1.73
  15  -5   4    6.44    1.29
  16  -2   2    1.61    1.33
  17  -5   3   -0.79    1.39
  19  -3   1    5.95    1.46
  25  -1  -8    0.20    1.53
   8   0   1   75.03    1.52
  11   1  -3   99.06    1.68
  12  -2   4   12.64    1.57
  14  -4   5   10.73    1.54
  15  -1   1    2.36    1.44
  15   1  -5    2.01    1.06
  16  -4   4    0.69    1.45
  17  -3   3    3.36    1.35
  17  -1   0   18.37    1.64
  18  -2   1    0.37    1.40
  20   0  -5    0.88    1.34
  21  -3   0   -0.70    1.55
  21  -1  -3    1.30    1.43
  22  -2  -2    0.33    1.62
  22   0  -7    0.40    1.31
  23  -1  -5    1.21    1.60
   9  -3   6   29.77    1.61
  11  -1   3   24.91    1.46
  12  -4   6    5.07    1.28
  13  -3   5    1.63    1.27
  15  -5   5    4.30    1.41
  17  -5   4    1.02    1.20
  17   1  -6   14.69    1.33
  18   0  -3    2.43    1.18
  19  -3   2    2.07    1.71
  25  -1  -7   -0.08    1.52
   8  -4   7   -0.52    1.01
  10   0   1    4.98    1.12
  11  -3   6    0.68    1.50
  14  -2   4    7.22    1.41
  16  -2   3   -0.43    1.45
  16   0  -1    2.33    1.58
  18  -2   2    1.25    1.54
  20   0  -4   -0.23    1.38
  21  -3   1   -1.19    1.63
  21  -1  -2    2.42    1.55
  22  -2  -1    1.68    1.62
  22   0  -6    1.64    1.38
  23  -1  -4    0.25    1.63
  25  -1  -6    0.26    1.62
   7  -1   4   15.62    1.15
   9   1  -2    5.36    0.86
  10  -4   7    4.03    1.28
  12  -2   5   20.59    1.66
  13   1  -3    6.67    1.01
  14  -4   6    3.30    1.29
  15  -3   5   14.74    1.68
  15  -1   2   10.52    1.58
  16  -4   5    0.48    1.52
  17  -1   1    0.31    1.30
  17   1  -5    2.80    1.17
  18   0  -2    0.65    1.27
  19  -3   3    1.07    1.49
  19  -1   0    1.54    1.46
  20  -4   3   -0.04    1.36
  20  -2   1    5.41    1.67
   5  -3   7   19.65    1.33
   9  -1   4    4.18    1.15
  11   1  -2  320.45    2.87
  13  -3   6    0.64    1.43
  17  -5   5    0.61    1.40
  19   1  -6   16.20    1.52
  21  -3   2   -0.64    1.61
  22  -2   0    1.70    1.51
  22   0  -5   15.28    1.75
  23  -1  -3    0.94    1.68
  24   0  -7   -0.23    1.14
   6  -2   6    0.38    1.10
   8   0   2  109.06    1.84
  11  -1   4   27.26    1.54
  12  -4   7   -0.17    1.20
  14  -2   5   29.00    1.79
  15  -1   3   37.53    1.97
  15   1  -3    6.55    1.33
  16  -2   4    2.77    1.42
  16   0   0    2.45    1.56
  17  -1   2   -0.93    1.44
  18  -2   3    0.61    1.49
  20  -2   2    0.72    1.69
   3  -3   7   12.55    1.04
   4  -2   6  136.81    1.93
   8  -4   8    6.95    1.20
  10   0   2    2.88    1.19
  14  -4   7    0.67    1.27
  15  -3   6    0.19    1.63
  16  -4   6   -0.35    1.32
  17   1  -4    0.96    1.29
  19  -3   4    0.29    1.70
  20   0  -2   -0.81    1.33
  21  -3   3    0.38    1.44
  22   0  -4    6.88    1.69
  23  -1  -2   -0.34    1.77
  24   0  -6   -0.20    1.37
  10  -4   8   25.18    1.61
  12  -2   6   16.35    1.76
  12   0   2   13.07    1.33
  13  -3   7    1.69    1.56
  15  -5   7    1.12    1.22
  16  -2   5    1.00    1.50
  18  -2   4    7.94    1.80
  20  -2   3    1.19    1.94
   7  -1   5   10.32    1.21
   9  -1   5    0.72    1.25
   9   1  -1    6.37    0.95
  12  -4   8    2.77    1.36
  15  -1   4   36.42    1.87
  15   1  -2    5.37    1.28
  16  -4   7   -0.04    1.39
  17   1  -3    2.67    1.37
  18  -4   6    3.37    1.62
  18   0   0    1.21    1.41
  19  -3   5   -0.62    1.72
  20   0  -1    4.86    1.69
  22  -2   2    2.42    1.82
  22   0  -3   -0.84    1.47
  24   0  -5    1.58    1.28
   9  -3   8   -0.28    1.51
  11  -1   5   55.83    1.76
  13   1  -1   -0.25    1.02
  14  -4   8    0.34    1.56
  15  -3   7    2.79    1.75
  17  -5   7   -0.78    1.55
  21  -3   4    0.58    1.56
  24   0  -4    0.06    1.34
   5  -3   8    3.09    1.05
   6  -2   7   76.38    1.92
   8   0   3   24.45    1.33
  10  -4   9   16.83    1.67
  10   0   3    1.69    1.36
  12   0   3  221.96    3.09
  16  -2   6    2.48    1.69
  17  -1   4    3.44    1.55
  18  -4   7    0.74    1.70
  18   0   1    3.70    1.42
  19  -1   3    0.52    1.60
  20  -2   4    0.64    2.00
  22  -2   3    0.67    1.60
  22   0  -2    1.54    1.42
  12  -4   9    0.28    1.37
  14  -2   7    0.63    1.50
  15  -1   5   28.66    1.93
  15   1  -1    2.51    1.28
  16  -4   8    1.29    1.75
  17   1  -2    3.17    1.51
  19   1  -3   -0.46    1.30
  20   0   0   33.79    2.13
  21  -3   5    2.21    1.74
  22   0  -1    1.24    1.77
  24   0  -3    0.77    1.62
   4  -2   7  140.10    2.11
  11   1   0    5.55    1.25
  14   0   3   -0.52    1.54
  15  -3   8   -0.01    1.74
  20  -2   5    3.48    1.98
  -3  -7   5    0.11    1.06
  -3  -5   7   -0.20    0.79
  -3  -3   7    3.33    0.78
   1  -7   2   -0.08    1.12
   5  -3   0    2.31    0.98
   6  -6  -2   -0.53    1.44
   8  -6  -5   -0.30    1.47
   9  -3  -6    4.75    1.02
  10  -6  -9    5.67    1.55
  10  -2 -10    1.32    0.68
  11  -5 -10    4.92    1.48
  -4  -4   8   22.95    1.05
  -2  -4   7   -0.10    0.90
  -1  -7   4   -0.08    0.93
   4  -6   1    1.65    1.39
   4  -4   2    0.96    1.07
   7  -7  -5    0.55    1.36
   7  -5  -2    4.76    1.32
   8  -4  -3  122.91    2.49
  10  -6  -8    9.22    1.56
  10  -4  -7   18.82    1.41
  11  -5  -9    0.06    1.50
  11  -3 -10   13.91    1.18
  12  -6 -14    1.51    1.41
  -1  -3   6   49.50    1.19
   1  -7   3    0.24    1.06
   1  -5   5   54.84    1.94
   3  -7   1   -0.14    1.21
   5  -7  -1    0.27    1.49
   6  -6  -1   -0.28    1.39
   6  -2  -2    2.36    0.56
   7  -7  -4    0.68    1.52
   8  -6  -4    6.74    1.40
   8  -2  -5    5.27    0.83
  10  -4  -6   -0.10    1.14
  10  -2  -9   68.76    1.37
  12  -6 -13    4.51    1.51
  12  -4 -11    1.72    1.15
  -3  -5   8    0.27    0.80
  -1  -7   5   -0.37    0.98
   0  -4   6    0.59    0.79
   2  -6   4   -0.06    0.85
   5  -3   1   -0.68    0.92
   7  -7  -3    0.40    1.36
   7  -5  -1    1.92    1.28
   8  -6  -3   24.17    1.88
   9  -5  -4    0.77    1.32
  10  -6  -7    3.19    1.36
  11  -5  -8    3.21    1.34
  11  -3  -9    5.25    1.09
  12  -6 -12    1.80    1.45
  -2  -6   7   -0.23    0.80
   1  -7   4   -0.06    1.09
   1  -3   5  235.06    2.33
   3  -7   2    0.77    1.17
   3  -5   4    2.13    1.05
   4  -2   1    6.09    0.75
   5  -7   0   -0.10    1.42
   5  -5   2    3.13    1.25
   6  -6   0    0.19    1.27
   8  -4  -2    6.08    1.36
  10  -4  -5    0.17    1.26
  10  -2  -8   80.79    1.51
  11  -5  -7    0.84    1.35
  12  -6 -11   -0.16    1.40
  -1  -7   6   -0.34    0.98
   0  -6   6   -0.40    0.75
   1  -5   6   27.09    1.43
   2  -2   3  126.32    1.43
   7  -7  -2    0.41    1.48
   7  -5   0    3.53    1.24
   7  -3  -1   11.43    1.06
   8  -6  -2    2.26    1.55
   8  -2  -4   49.60    1.24
   9  -7  -5    2.39    1.54
   9  -5  -3    3.66    1.27
   9  -3  -4    0.10    0.91
  10  -6  -5    0.81    1.42
  12  -4  -9    2.69    1.15
  13  -5 -12    0.91    1.38
  -3  -3   8    4.03    0.71
   1  -7   5   -0.22    1.06
   3  -7   3   -0.50    1.15
   6  -6   1   19.50    1.66
   6  -2  -1    1.17    0.74
   8  -4  -1    6.68    1.35
   9  -7  -4    0.05    1.54
  11  -5  -6    0.48    1.24
  11  -3  -7    9.80    1.21
  12  -6  -9    0.53    1.52
  12  -4  -8    9.24    1.15
  13  -5 -11    0.41    1.25
  -2  -6   8   -0.43    0.81
   0  -4   7   41.30    1.39
   3  -5   5    0.22    1.01
   4  -4   4   17.08    1.15
   5  -5   3   30.05    1.64
   5  -3   2   24.23    1.17
   7  -7  -1   -0.86    1.33
   7  -5   1    2.33    1.20
   8  -6  -1   -0.30    1.47
   9  -5  -2    0.00    1.17
  10  -6  -4    0.76    1.54
  10  -2  -7   56.93    1.31
  11  -5  -5    1.00    1.25
  12  -6  -8    0.92    1.61
  13  -5 -10   -0.53    1.34
  -1  -7   7    0.02    0.92
  -1  -5   8    1.39    0.99
   3  -7   4    0.26    1.11
   4  -6   4    1.61    1.34
   6  -6   2   21.15    1.68
   6  -4   2   86.36    1.93
   7  -7   0    1.50    1.47
   7  -3   0   15.83    1.12
   8  -2  -3  400.69    2.88
   9  -7  -3    1.35    1.48
  10  -6  -3    1.78    1.30
  11  -3  -6    6.95    1.21
  12  -6  -7    0.52    1.62
  12  -4  -7    5.99    1.23
  13  -5  -9    0.64    1.34
   1  -7   6    0.74    0.99
   1  -5   7   12.72    1.23
   1  -3   6   88.03    1.57
   2  -4   6   17.73    1.08
   4  -2   2    1.15    0.68
   5  -5   4   -0.46    1.03
   8  -6   0   -1.49    1.31
   8  -4   0    2.94    1.24
   9  -7  -2   -1.78    1.34
   9  -5  -1    0.40    1.17
  12  -6  -6    1.19    1.37
  13  -5  -8    7.77    1.48
  14  -6 -12   -0.31    1.43
   0  -6   8   -0.19    0.87
   2  -2   4   36.78    0.97
   3  -7   5   -1.23    1.10
   6  -6   3    0.99    1.39
   6  -4   3    2.68    1.04
  10  -4  -2    3.48    1.17
  12  -4  -6    1.15    1.00
  13  -5  -7   17.09    1.65
  13  -3 -10    5.65    0.99
  14  -6 -11   -0.79    1.30
  -2  -4   9    7.60    0.90
   0  -4   8    0.50    0.89
   1  -7   7    0.31    0.82
   2  -6   7    0.08    0.83
   7  -3   1    7.99    0.99
   8  -6   1    2.43    1.30
   8  -4   1    8.24    1.40
   9  -7  -1   -0.76    1.52
   9  -5   0    0.86    1.24
  11  -3  -5   -0.27    0.99
  12  -6  -5    0.05    1.57
  12  -4  -5    2.07    1.07
  13  -3  -9    0.76    1.06
  14  -6  -9    1.50    1.48
  14  -4 -10    2.64    1.06
   1  -5   8    2.98    1.03
   2  -4   7    0.14    0.86
   3  -7   6   -0.32    0.88
   5  -7   4   -0.16    1.09
   7  -7   2    0.62    1.39
   7  -5   3    3.18    1.13
  10  -6  -1    1.23    1.56
  11  -5  -2   39.46    1.80
  13  -5  -6    0.01    1.31
  14  -4  -9    2.24    1.08
  15  -5 -11    0.86    1.10
  -3  -3   9    6.96    0.65
  -1  -3   8    8.14    0.80
   0  -6   9    0.28    0.86
   3  -5   7    1.88    1.01
   4  -6   6   10.68    1.48
   6  -4   4    1.11    1.07
   8  -6   2    2.23    1.39
   9  -7   0    0.05    1.29
   9  -5   1    0.85    1.22
   9  -3  -1    1.63    0.67
  10  -4  -1    2.25    1.05
  11  -3  -4    0.95    0.95
  12  -4  -4    9.11    1.20
  12  -2  -9   10.72    0.85
  13  -5  -5    0.22    1.16
  13  -3  -8   23.43    1.25
  14  -6  -8   -0.49    1.32
  15  -5 -10    0.88    1.20
   1  -7   8    0.30    0.88
   1  -3   7   64.79    1.42
   2  -6   8   -0.26    0.91
   4  -2   3   10.53    0.85
   5  -7   5   -0.60    1.04
   6  -2   1  357.61    2.70
   7  -5   4    0.16    1.09
   7  -3   2    2.81    0.94
   8  -4   2   17.08    1.36
  10  -6   0    3.27    1.46
  11  -5  -1   -0.15    1.32
  12  -6  -3    0.56    1.27
  14  -6  -7    0.95    1.36
  14  -4  -8    0.62    1.12
  15  -5  -9    0.32    1.17
  -2  -4  10    8.12    1.00
  -1  -5  10   12.62    1.14
   0  -4   9    1.69    0.91
   1  -5   9    2.96    1.03
   3  -7   7    0.13    0.98
   5  -5   6    0.42    1.06
   8  -6   3    1.32    1.29
   8  -2  -1   19.59    1.00
   9  -5   2   36.72    1.81
   9  -3   0    5.55    1.04
  10  -6   1    0.19    1.37
  10  -2  -4    0.45    0.76
  11  -3  -3   53.06    1.58
  12  -6  -2    1.04    1.49
  12  -4  -3    1.30    1.07
  12  -2  -8   27.02    1.10
  13  -3  -7   49.73    1.63
  14  -6  -6    1.24    1.43
  14  -4  -7    7.24    1.24
  15  -5  -8    0.85    1.29
   1  -7   9   -0.57    0.91
   2  -4   8    7.93    1.11
   3  -5   8   15.62    1.21
   5  -7   6   -0.20    1.04
   6  -4   5    7.05    1.25
   8  -4   3    5.32    1.29
  11  -5   0   -0.33    1.31
  13  -5  -3    0.25    1.16
  14  -6  -5   -0.23    1.46
  14  -4  -6   -0.71    1.23
   0  -6  10    0.08    0.77
   2  -6   9    0.13    0.94
   3  -7   8   -0.57    0.94
   4  -4   7   52.34    1.57
   6  -6   6   -0.56    1.30
   7  -5   5   -0.71    1.14
   7  -3   3   14.25    1.06
   8  -6   4    3.53    1.31
   9  -5   3   19.41    1.62
  10  -6   2    1.09    1.52
  10  -4   1    1.73    0.92
  11  -3  -2  142.38    2.28
  12  -6  -1   -0.45    1.43
  12  -2  -7   18.95    1.03
  14  -6  -4    0.17    1.41
  15  -5  -7   -0.25    1.12
  -1  -3   9    9.87    0.79
   1  -3   8   15.74    1.01
   4  -6   8    1.90    1.25
   5  -7   7   -0.23    0.92
   5  -5   7    2.67    1.03
   5  -3   5    2.03    0.86
   6  -2   2  267.10    2.39
   7  -7   5    0.74    1.15
   9  -3   1    1.70    0.95
  10  -2  -3    4.44    0.82
  11  -5   1    1.54    1.37
  12  -6   0    0.37    1.21
  13  -3  -5   -1.00    1.06
  14  -4  -5    1.45    1.13
  15  -5  -6    1.05    1.32
   0  -4  10    0.21    0.92
   1  -5  10    4.99    1.05
   3  -5   9    0.31    0.93
   3  -3   7   12.32    1.04
   4  -2   4   71.96    1.23
   6  -4   6    0.53    1.12
   8  -6   5   -0.08    1.33
   8  -2   0   11.80    0.89
   9  -5   4    1.57    1.10
  10  -6   3   -0.77    1.36
  10  -4   2   -0.31    0.96
  12  -2  -6    0.93    0.79
  14  -6  -3   -0.87    1.32
  15  -5  -5    2.10    1.28
   2  -6  10    0.91    1.00
   2  -4   9    4.99    1.03
   3  -7   9   -0.14    0.95
   5  -5   8    0.44    0.95
   7  -3   4    9.71    1.01
  11  -5   2   -0.61    1.36
  12  -6   1   -1.15    1.32
  13  -3  -4    4.02    0.98
  14  -4  -4    0.65    1.03
   4  -6   9    2.27    1.09
   4  -4   8   15.39    1.26
   5  -7   8   -0.03    0.91
   5  -3   6    3.70    0.86
   9  -3   2  143.72    2.22
  10  -6   4    0.56    1.39
  10  -2  -2   10.32    0.94
  12  -4   0   -0.36    1.04
  15  -5  -4    0.99    1.16
  15  -3  -8    1.69    0.90
  16  -4  -8    0.43    1.05
   1  -5  11   -0.50    0.94
   3  -7  10   -0.07    0.95
   3  -5  10    4.98    1.10
   6  -6   8    6.35    1.27
   6  -2   3    4.09    0.77
   7  -7   7    1.61    1.36
   8  -4   5    0.70    0.65
   8  -2   1   36.39    1.26
   9  -5   5    1.31    1.13
  11  -5   3    2.49    1.34
  11  -3   0    2.40    1.03
  12  -6   2    0.27    1.39
  12  -2  -5    3.22    0.81
  13  -3  -3    2.84    1.09
  14  -6  -1    2.38    1.46
  15  -5  -3    0.80    1.35
  16  -4  -7   14.05    1.37
  17  -5  -8    1.54    1.16
  -1  -3  10   37.41    1.14
   0  -4  11   15.81    1.17
   1  -3   9   15.57    0.94
   2  -6  11    6.56    1.12
   2  -4  10    5.10    1.09
   4  -2   5   75.07    1.36
   5  -7   9    0.53    1.02
   5  -5   9    1.69    1.01
   7  -3   5    2.98    0.89
   8  -6   7    1.31    1.33
   9  -3   3   67.54    1.67
   9  -1  -4    0.08    0.69
  10  -6   5    1.22    1.42
  13  -5   1   -0.18    1.27
  14  -6   0    0.32    1.20
  14  -4  -2   39.56    1.73
  15  -3  -7    0.44    0.94
  16  -4  -6   11.60    1.23
  17  -5  -7   -0.27    1.17
   4  -4   9   21.94    1.31
   6  -6   9    0.87    1.25
   8  -4   6    1.75    0.91
  10  -4   4    1.55    1.05
  11  -5   4    4.56    1.24
  13  -3  -2    0.54    1.03
  15  -3  -6    3.64    1.02
  16  -4  -5    2.26    1.15
  17  -5  -6    1.22    1.23
   5  -7  10   -0.17    0.92
   6  -2   4    1.45    0.76
   7  -5   8   26.25    1.50
  10  -6   6    1.50    1.38
  12  -4   2    1.50    1.09
  13  -5   2    0.79    1.29
  14  -6   1    1.08    1.40
  14  -4  -1   15.39    1.36
  15  -5  -1    0.92    1.31
  17  -5  -5   -0.44    1.29
   1  -5  12   -0.44    0.99
   2  -2   7   -0.73    0.69
   3  -5  11    6.02    1.01
   4  -6  11   -0.34    1.15
   5  -5  10    5.12    1.09
   9  -3   4    0.55    0.99
  11  -5   5    5.88    1.26
  12  -2  -3    5.15    0.80
  13  -3  -1   -0.58    1.14
  15  -3  -5    2.50    0.98
  16  -4  -4    0.52    1.18
  17  -5  -4    0.21    1.16
   0  -2   8    0.94    0.61
   1  -3  10   25.55    1.17
   2  -4  11   23.08    1.33
   4  -4  10    1.12    1.08
   4  -2   6  138.21    1.77
   6  -6  10    1.66    1.27
   7  -5   9   -0.47    1.08
   7  -3   6   34.21    1.35
   8  -4   7   -0.30    0.93
   9  -1  -3   37.55    0.98
  10  -6   7    0.98    1.41
  11  -3   2    0.44    1.04
  12  -6   5    0.96    1.23
  12  -4   3   52.93    1.81
  15  -3  -4    3.70    0.98
  16  -4  -3   -0.73    1.14
   0  -4  12   16.63    1.12
   7  -1   0   36.05    0.89
   8  -6   9    0.39    1.35
  11  -5   6   -0.49    1.16
  11  -1  -6   17.71    0.79
  12  -2  -2    3.61    0.87
  13  -3   0   18.23    1.36
  14  -6   3    0.10    1.40
  14  -2  -6   -0.88    0.79
  17  -5  -3    1.20    1.24
  -1  -3  11  134.19    1.78
   4  -6  12    0.55    1.19
   5  -5  11    0.75    1.12
   6  -6  11    1.01    1.14
   6  -2   5   31.19    1.18
   9  -3   5    0.24    1.04
  10  -4   6    3.89    1.10
  10  -2   1    5.25    0.86
  12  -6   6    1.56    1.22
  12  -4   4    6.94    1.23
  13  -5   4    2.62    1.31
  15  -3  -3    4.37    0.95
   7  -5  10    2.17    1.09
   7  -3   7   30.95    1.29
   8  -4   8    7.29    1.10
   9  -1  -2    6.05    0.73
  14  -4   2    0.58    1.19
  14  -2  -5    1.83    0.89
  15  -5   2    1.59    1.31
  17  -5  -1    8.32    1.52
  18  -4  -6    0.71    0.90
  19  -5  -6    4.24    1.25
   3  -3  10   27.78    1.13
   4  -4  11    1.39    1.04
   6  -4  10    6.41    1.01
   8  -2   4   89.58    1.62
  10  -4   7    3.67    1.09
  11  -3   4   14.16    1.33
  11  -1  -5    0.67    0.60
  12  -6   7   -0.74    1.32
  12  -4   5    6.43    1.16
  12  -2  -1   -0.20    0.75
  13  -5   5    2.71    1.44
  15  -3  -2    2.90    0.92
  17  -3  -6    7.33    1.05
  18  -4  -5   -0.08    1.15
  19  -5  -5    4.11    1.33
   0  -2   9   12.07    0.87
   1  -3  11    0.53    0.76
   3  -5  13    0.96    1.05
   4  -6  13    0.70    0.93
   4  -2   7  137.28    1.72
   5  -5  12   14.64    1.36
   5  -3   9    7.50    0.98
   7  -5  11   -0.86    1.19
  10  -6   9    2.66    1.18
  10  -2   2    1.83    0.62
  13  -3   2    0.81    0.89
  14  -4   3    0.04    1.18
  14  -2  -4    0.15    0.90
  15  -5   3    5.94    1.39
  15  -3  -1    1.53    0.90
  16  -4   0    1.45    1.20
  17  -5   0    4.38    1.37
  17  -3  -5    1.35    0.94
  18  -4  -4    1.23    1.14
  19  -5  -4    0.15    1.25
   6  -2   6    1.03    0.84
   7  -3   8  104.07    2.07
   9  -5  10    2.84    1.27
   9  -1  -1    5.43    0.75
  11  -5   8    1.13    1.33
  11  -1  -4    0.54    0.62
  12  -6   8   -0.58    1.30
  12  -2   0   -0.35    0.86
  13  -5   6    1.11    1.33
  14  -2  -3    3.07    0.93
  17  -5   1   -0.60    1.18
  18  -4  -3    1.07    1.02
  19  -5  -3   -0.04    1.29
  -1  -3  12    0.95    0.65
   2  -4  13    1.94    1.13
   4  -4  12    1.83    1.07
   6  -6  13    0.66    1.11
   6  -4  11   -0.40    0.95
   8  -2   5    0.79    0.83
  10  -4   8   23.48    1.51
  10  -2   3    2.94    0.92
  11  -3   5   23.81    1.46
  12  -4   6    4.98    0.98
  13  -3   3    0.36    0.96
  14  -4   4    0.76    1.33
  15  -3   0   -0.52    1.00
  16  -4   1    5.85    1.25
  17  -3  -4    0.67    0.93
   3  -3  11   28.77    1.29
   5  -5  13   10.83    1.35
   5  -3  10   18.03    1.20
   8  -6  12    0.48    1.16
  11  -5   9    0.19    1.28
  11  -1  -3  103.35    1.48
  14  -2  -2  119.78    2.01
  15  -5   5    5.57    1.37
  18  -4  -2    0.11    1.06
   1  -3  12   -0.79    0.80
   6  -2   7   71.34    1.55
   7  -1   2    6.45    0.76
   9  -5  11    0.84    1.30
  10  -6  11    1.80    1.21
  10  -4   9   17.45    1.41
  11  -3   6    0.83    1.05
  12  -4   7    0.75    1.10
  13  -3   4    7.89    1.10
  14  -4   5   10.04    1.44
  16  -2  -6   26.78    1.19
  18  -4  -1    1.05    1.24
  19  -5  -1   -0.26    1.12
   4  -4  13    1.91    1.02
   6  -6  14   -0.82    1.10
   6  -4  12    8.26    1.23
   8  -2   6    2.34    0.90
   9  -3   8   -0.49    1.25
  10  -2   4    5.07    1.01
  13  -5   8    2.77    1.34
  13  -1  -6   12.80    0.76
  14  -2  -1   45.29    1.53
  15  -5   6    0.12    1.26
  17  -3  -2    2.30    1.11
  18  -4   0    0.54    1.10
   0  -2  10    1.10    0.67
   2  -4  14    1.53    0.99
   5  -3  11    1.58    0.98
   5  -1   4    3.80    0.49
   7  -5  13    1.09    1.15
   8  -4  11    5.08    1.12
  11  -1  -2  320.77    2.47
  12  -4   8    3.00    1.32
  14  -4   6    1.67    1.33
  17  -5   4    1.07    1.31
  17  -3  -1   27.96    1.47
  20  -4  -4    0.13    0.99
   3  -3  12    0.20    0.92
   4  -2   9   69.70    1.48
   6  -2   8   90.68    1.70
   9  -3   9   11.63    1.17
  10  -4  10   -0.55    1.12
  10  -2   5   22.66    1.24
  11  -3   7    2.56    0.79
  12  -2   3  152.68    2.31
  13  -5   9    5.52    1.41
  13  -1  -5    0.15    0.59
  14  -2   0   -0.73    0.98
  15  -5   7   -0.10    1.34
  16  -4   4    1.79    1.27
  18  -4   1    0.57    1.26
  20  -4  -3    0.26    1.07
   1  -3  13   28.57    1.23
   2  -2  10    9.14    0.85
   6  -6  15    0.59    1.14
   6  -4  13    2.35    1.13
   8  -6  14   -0.21    1.21
   8  -4  12   -0.03    1.13
   8  -2   7   -0.75    0.92
  11  -1  -1    7.04    0.88
  12  -4   9   -0.20    1.28
  16  -4   5   -1.10    1.43
  16  -2  -3    0.74    0.95
  17  -5   5    0.41    1.22
  17  -3   0   10.23    1.21
  18  -4   2    0.75    1.13
  19  -3  -4    0.39    1.05
  20  -4  -2   -1.00    1.10
   5  -5  15    1.08    1.01
   5  -3  12   51.63    1.79
   5  -1   5    7.18    0.74
   7  -3  11   -0.05    1.10
   9  -5  13   -0.11    1.27
   9  -1   2  330.25    2.59
  11  -3   8    5.50    1.15
  13  -5  10    5.42    1.41
  13  -3   6    0.18    1.03
  13  -1  -4    5.93    0.73
  14  -2   1    0.58    1.01
  15  -5   8    0.37    1.25
  15  -3   4   16.64    1.42
  16  -2  -2    0.19    1.04
  17  -3   1   -0.73    1.05
  19  -3  -3   -0.98    1.09
  20  -4  -1    0.31    1.06
   3  -3  13    4.38    1.07
   7  -1   4   16.12    0.91
   9  -3  10    4.65    1.08
  10  -2   6    8.91    1.14
  11  -5  12    0.76    1.18
  11  -1   0    5.60    0.84
  12  -4  10    2.11    1.25
  12  -2   4   13.07    1.22
  13  -1  -3    5.92    0.84
  14  -4   8   -0.39    1.35
  14  -2   2    3.92    1.09
  18  -4   3   -1.34    1.31
  19  -3  -2   -0.49    0.99
   0  -2  11   50.78    1.10
   6  -4  14    0.18    1.12
   6  -2   9    2.12    0.66
   7  -5  15    9.03    1.41
   8  -4  13   36.46    1.72
   9  -5  14    0.10    1.28
  10  -4  12    0.99    1.16
  11  -3   9    3.21    1.11
  13  -5  11    0.84    1.32
  13  -3   7    2.33    1.09
  15  -5   9    1.64    1.23
  15  -3   5   15.02    1.48
  16  -2  -1    2.05    1.08
  20  -4   0    8.79    1.22
   1  -3  14    9.73    0.98
   2  -2  11   53.55    1.30
   7  -3  12    3.53    1.08
  11  -5  13    4.73    1.40
  11  -1   1   10.89    0.93
  12  -4  11    4.58    1.26
  12  -2   5   18.88    1.33
  13  -1  -2    0.63    0.78
  14  -4   9    6.36    1.45
  16  -4   7    0.45    1.34
  16  -2   0    4.10    1.14
  17  -3   3    1.60    1.22
  19  -3  -1   -0.19    1.02
  20  -4   1    2.25    1.31
   5  -3  13   44.49    1.61
   5  -1   6    7.54    0.84
   8  -4  14    1.16    1.04
  11  -3  10   14.34    1.33
  15  -3   6    0.96    1.20
  18  -2  -4    2.82    0.96
  19  -3   0   -0.09    1.23
  20  -4   2    1.20    1.30
  22  -4  -2    0.49    1.19
   3  -3  14    2.77    0.97
   3  -1   7   42.46    0.98
   4  -2  11    3.39    0.89
   6  -4  15   -0.49    1.10
   7  -5  16    1.21    1.18
   8  -2   9   25.76    1.36
   9  -5  15   -0.51    1.26
  10  -4  13    1.47    1.29
  11  -5  14    4.13    1.48
  13  -1  -1    0.38    0.76
  14  -4  10    0.34    1.47
  15  -1  -5    3.12    0.79
  16  -4   8    1.84    1.34
  16  -2   1   16.54    1.23
  18  -2  -3    0.48    0.97
  19  -3   1    7.26    1.37
  20  -4   3    0.39    1.29
   0  -2  12   52.46    1.21
   7  -3  13   -0.07    1.00
  10  -2   8   58.97    1.74
  13  -3   9   18.85    1.52
  15  -3   7    2.94    1.35
  15  -1  -4    7.23    0.92
  16  -2   2    1.13    1.01
  18  -2  -2    2.10    1.02
  19  -3   2    1.22    1.31
   1  -3  15    2.24    0.94
   2  -2  12  154.85    2.02
   5  -1   7   39.51    1.17
   6  -4  16    1.78    1.22
   7  -5  17    1.13    1.19
   7  -1   6  100.26    1.68
   8  -2  10    0.63    0.97
   9  -5  16    2.25    1.29
  10  -4  14    1.89    1.42
  11  -5  15   -0.70    1.34
  11  -3  11    8.73    1.39
  11  -1   3   25.19    1.11
  14  -4  11    0.65    1.37
  14  -2   5   27.42    1.42
  15  -1  -3    7.02    0.95
  16  -4   9   -0.50    1.24
  18  -4   7    1.15    1.33
  18  -2  -1    3.62    1.08
  20  -4   4    0.18    1.29
  21  -3  -2    1.39    1.21
   6  -2  11    0.03    0.86
   9  -1   5    0.52    0.88
  10  -2   9   52.62    1.83
  13  -3  10   14.46    1.54
  13  -1   1    5.49    0.94
  15  -3   8   -0.30    1.22
  16  -4  10    8.36    1.41
  16  -2   3    0.24    1.11
  17  -3   6   12.12    1.62
  18  -2   0   -0.86    0.99
  19  -3   3   -0.22    1.33
  21  -3  -1    0.83    1.19
   7  -3  14    1.71    1.12
   9  -3  13    1.83    1.12
  10  -4  15    2.29    1.45
  11  -3  12    0.66    1.34
  11  -1   4   27.84    1.15
  12  -2   8   13.52    1.17
  14  -4  12    0.95    1.40
  14  -2   6    7.00    1.25
  15  -3   9    1.22    1.23
  15  -1  -2    3.92    0.96
  18  -4   8    0.35    1.36
  19  -3   4    0.72    1.27
   5  -3  15    2.52    1.21
   6  -4  17    4.56    1.18
   6  -2  12   20.82    1.21
   7  -1   7   47.76    1.38
   8  -4  16   -0.09    1.14
   8  -2  11   13.23    1.30
   9  -5  17    0.91    1.17
   9  -1   6   59.02    1.54
  10  -2  10    1.36    1.33
  12  -4  14    0.12    1.39
  13  -1   2    3.59    0.96
  15  -1  -1    1.90    0.95
  16  -4  11    1.73    1.30
  17  -3   7    0.36    1.39
  21  -3   1    0.17    1.23
   0  -2  13    9.24    0.75
   2  -2  13    7.28    0.94
   3  -3  16   15.26    1.33
   5  -1   8    4.38    0.67
   7  -3  15   28.30    1.68
   9  -3  14    0.58    1.25
  11  -1   5   55.87    1.55
  12  -2   9    0.56    1.07
  14  -4  13    0.27    1.42
  14  -2   7    1.46    1.07
  15  -3  10    0.57    1.24
  15  -1   0   -0.87    0.98
  17  -3   8   -0.18    1.32
  18  -2   2    1.32    1.25
  19  -3   5    1.64    1.38
  20  -2  -2    0.67    1.07
  21  -3   2    0.81    1.28
   4  -2  13    1.86    0.97
   8  -4  17   -0.07    1.37
  12  -4  15    1.03    1.54
  13  -3  12    0.70    1.38
  14  -2   8    4.22    1.14
  16  -4  12    0.03    1.50
  18  -2   3    0.68    1.11
  19  -3   6   -1.35    1.45
  20  -2  -1    3.95    1.07
  21  -3   3    0.66    1.31
   5  -3  16    3.60    1.10
   6  -4  18    3.52    1.36
   6  -2  13    6.86    1.17
   7  -1   8  223.20    2.38
   9  -1   7   53.23    1.50
  10  -2  11    7.28    1.19
  11  -1   6    5.70    1.12
  12  -2  10    5.32    1.24
  15  -3  11    3.56    1.56
  15  -1   1    0.31    1.02
  17  -3   9    0.36    1.48
  20  -2   0   21.39    1.52
   5  -1   9   23.77    0.95
   7  -3  16    1.14    1.20
   9  -3  15    0.47    1.15
  13  -3  13   -0.17    1.39
  14  -2   9   18.67    1.58
  15  -1   2   10.16    1.27
  16  -2   7   -0.26    1.31
  17  -1  -2    4.19    1.02
  18  -2   4    6.49    1.32
  20  -2   1    5.10    1.14
  23  -3   0    2.05    1.26
   3  -3  17   21.79    1.38
   4  -2  14   31.75    1.39
   7  -1   9    0.78    0.94
   8  -4  18    2.08    1.38
   9  -1   8    0.73    0.99
  10  -2  12    4.80    1.23
  10   0  -2    8.96    0.74
  11  -1   7    9.68    1.19
  12  -2  11   12.25    1.39
  15  -3  12    3.38    1.63
  15  -1   3   39.02    1.64
  17  -3  10    0.64    1.40
  17  -1  -1   58.30    1.76
  18  -2   5   13.43    1.65
  19  -3   8   -0.36    1.46
  20  -2   2   -0.46    1.27
  21  -3   5    1.19    1.43
  23  -3   1    5.63    1.44
   3  -1  10   55.96    1.28
   6  -2  14   -0.06    1.13
   9  -3  16   -0.03    1.36
  10   0  -1    9.47    0.94
  11  -3  15   -0.99    1.46
  13  -3  14   -0.74    1.57
  16  -2   8    4.69    1.40
  17  -1   0   22.41    1.43
  18  -2   6    8.99    1.36
  21  -3   6    4.47    1.50
  23  -3   2    0.94    1.35
   7  -3  17    0.68    1.25
   8  -4  19    0.30    1.29
   9  -1   9   30.26    1.52
  10  -4  18   -0.35    1.37
  12  -4  17    0.39    1.27
  12  -2  12    1.75    1.30
  12   0  -4   39.12    1.00
  13  -1   6    0.12    0.89
  15  -3  13    0.12    1.52
  15  -1   4   36.28    1.71
  16  -2   9    1.68    1.51
  17  -1   1   -0.55    1.13
  19  -3   9    0.28    1.30
  20  -2   3   -0.17    1.14
   2  -2  15    3.25    0.98
   4  -2  15    8.24    1.14
   5  -3  18    4.34    1.21
   7  -1  10   18.29    0.98
   8   0   2  111.76    1.50
  10   0   0   68.24    1.29
  12   0  -3    4.02    0.64
  13  -1   7    3.76    1.38
  14  -2  11    0.44    1.48
  17  -3  12    0.02    1.53
  17  -1   2   -0.40    1.00
  20  -2   4    1.66    1.33
  22  -2   0   -0.40    1.27
   0  -2  15    7.20    0.79
   3  -1  11   57.04    1.39
   7  -3  18    0.55    1.35
   9  -1  10    8.02    1.20
  10   0   1    5.06    0.81
  11  -1   9    4.40    1.38
  12  -2  13    5.95    1.44
  12   0  -2    9.64    0.82
  15  -3  14    0.65    1.58
  17  -1   3    4.29    1.18
  18  -2   8    2.05    1.37
  19  -1  -2   -0.13    1.04
  19  -1  -1    0.97    1.08
  20  -2   5    4.65    1.49
  22  -2   1    0.13    1.28
   1  -1  11    0.85    0.74
   7  -1  11    1.62    1.06
   8  -2  15    0.38    1.23
  11  -3  17   -0.93    1.52
  12   0  -1    1.51    0.80
  13  -3  16   11.33    1.80
  13  -1   8   11.50    1.38
  17  -3  13   -0.32    1.67
  17  -1   4    4.13    1.19
  19  -1   0    0.33    1.06
  20  -2   6    3.86    1.49
  22  -2   2    1.93    1.36
   2  -2  16    4.04    1.00
   4  -2  16   15.10    1.31
   5  -3  19    9.39    1.35
   6  -2  16   -0.60    1.26
   6   0   4    8.38    0.79
   9  -3  18   14.78    1.64
  11  -1  10   29.30    1.86
  12  -2  14    0.35    1.44
  12   0   0    2.82    0.89
  15  -3  15    0.05    1.38
  15  -1   7   10.62    1.44
  16  -2  11    1.66    1.66
  18  -2   9    0.51    1.55
  19  -1   1   12.11    1.34
  20  -2   7    3.44    1.65
  22  -2   3    1.98    1.26
   3  -1  12    0.64    0.89
   5  -1  12  117.82    2.02
   7  -3  19    3.30    1.34
   8  -2  16    0.03    1.26
   8   0   4  128.96    1.77
  11  -3  18   -0.66    1.40
  12   0   1   12.24    1.00
  13  -3  17    0.79    1.61
  13  -1   9   36.37    1.48
  14  -2  13   -0.39    1.41
  14   0  -4    3.50    0.63
  14   0  -3    7.29    0.77
  14   0  -2  191.35    2.25
  16  -2  12    1.55    1.45
  18  -2  10    0.40    1.49
  19  -1   2    3.40    1.28
  22  -2   4   -0.90    1.36
   1  -1  12    2.22    0.97
   6   0   5   62.70    1.32
   9  -1  12   11.33    1.59
  10   0   4   14.68    1.15
  11  -1  11   19.81    1.42
  12   0   2   11.66    1.03
  13  -1  10   42.65    1.88
  14  -2  14   10.35    1.65
  14   0  -1   61.33    1.51
  15  -1   8    1.20    1.21
  17  -1   6   29.17    1.75
  19  -1   3    0.08    1.16
  20  -2   8    0.56    1.66
  22  -2   5    0.46    1.44
   2  -2  17   35.53    1.50
   5  -1  13   87.24    1.89
   7  -3  20    6.43    1.53
  12   0   3  228.53    2.62
  13  -3  18    1.16    1.32
  14   0   0    0.94    0.92
  14   0   1    0.02    0.96
  15  -1   9    2.66    1.41
  16  -2  13    1.78    1.65
  18  -2  11    0.45    1.60
  19  -1   4   -0.47    1.33
  22  -2   6    2.19    1.56
   6   0   6    4.04    0.90
   8   0   6    3.05    1.04
   9  -3  20    2.16    1.50
   9  -1  13    2.98    1.37
  11  -3  19    1.70    1.43
  11  -1  12    0.91    1.26
  13  -1  11    9.71    1.50
  18  -2  12    0.67    1.64
  21  -1   1    0.95    1.22
  22  -2   7    0.32    1.45
  24  -2   3    0.80    1.34
   1  -1  13   52.29    1.38
   4  -2  18    0.51    1.24
   4   0   6  216.28    1.82
   6  -2  18   13.60    1.46
   6   0   7   98.17    1.70
  10  -2  17    5.48    1.53
  10   0   6   21.10    1.27
  14   0   3    0.30    1.11
  15  -1  10    1.29    1.34
  16  -2  14    1.84    1.62
  16   0  -3    0.93    0.77
  16   0  -1    1.10    1.02
  19  -1   6    0.48    1.43
  21  -1   2   -0.49    1.22
   3  -1  14    6.26    1.02
   5  -1  14   31.91    1.41
   7  -1  14    1.10    1.25
   8  -2  18    5.91    1.45
  11  -3  20   -0.41    1.54
  11  -1  13   13.63    1.49
  12  -2  17    1.08    1.73
  12   0   6   21.90    1.30
  13  -1  12   -0.31    1.35
  14   0   4   13.18    1.41
  15  -1  11    7.58    1.62
  16   0   0    2.50    1.09
  16   0   1   32.68    1.58
  17  -1   9    4.67    1.45
  18  -2  13    4.31    1.79
  19  -1   7    4.32    1.53
  21  -1   3    1.24    1.27
  21  -1   4    1.57    1.43
   4   0   7  166.55    1.80
   6   0   8  123.09    1.92
   8   0   8   54.80    1.61
   9  -3  21   -0.35    1.41
  10  -2  18    0.47    1.54
  11  -1  14   43.60    1.92
  16   0   2    0.84    1.24
  17  -1  10    2.59    1.62
  18  -2  14    2.41    1.57
  19  -1   8    2.43    1.40
  21  -1   5    5.44    1.36
   4  -2  19    0.53    1.11
   6  -2  19   -0.53    1.24
   8  -2  19    1.29    1.44
  10   0   8   96.10    2.15
  11  -3  21    2.09    1.72
  12  -2  18   11.31    1.81
  12   0   7    2.95    1.25
  16  -2  16    1.03    1.64
  16   0   3    3.04    1.26
  21  -1   6   11.60    1.49
   3  -1  15   -0.04    1.08
   6   0   9    6.99    1.14
   8   0   9   52.53    1.62
   9  -3  22    1.18    1.48
  10  -2  19    2.58    1.56
  10   0   9   79.66    1.99
  14   0   7   -1.00    1.27
  16   0   4    4.10    1.28
  18   0  -1    6.69    1.09
  18   0   0    1.12    1.08
  21  -1   7    3.07    1.40
  23  -1   3    0.06    1.30
   4   0   9  112.97    1.76
   5  -1  16    6.86    1.32
   6  -2  20    0.93    1.27
   7  -1  16    2.69    1.20
   8  -2  20   11.75    1.63
   8   0  10    2.84    1.13
   9  -1  16    0.34    1.38
  12  -2  19    0.94    1.81
  12   0   9    2.91    1.45
  14  -2  18   -0.50    1.63
  16   0   5    1.59    1.14
  16   0   6    0.71    1.40
  17  -1  12   -0.11    1.80
  18   0   2    1.49    1.23
  21  -1   8   -0.68    1.40
  23  -1   4    0.12    1.35
   1  -1  15    5.62    0.90
   3  -1  16   27.62    1.56
   6   0  10   19.95    1.31
  10  -2  20    2.80    1.49
  10   0  10    2.37    1.26
  13  -1  15    6.68    1.47
  14   0   8    2.98    1.23
  15  -1  14    8.94    1.66
  16   0   7   -0.63    1.45
  17  -1  13    0.31    1.73
  18   0   3   -0.87    1.21
  18   0   4   15.92    1.37
  21  -1   9    1.00    1.43
  -1  -1  14    7.69    0.84
   5  -1  17    3.80    1.47
   6   0  11   -0.95    0.96
   7  -1  17    3.93    1.35
   8   0  11   16.62    1.38
  10   0  11   17.70    1.65
  12  -2  20    0.43    1.64
  12   0  10    5.01    1.27
  14  -2  19   -0.05    1.47
  18   0   5   20.00    1.61
  19  -1  12    1.16    1.63
  23  -1   6   -1.31    1.50
   6  -2  21    5.74    1.38
   8  -2  21    0.42    1.48
  10  -2  21    1.07    1.59
  11  -1  17    0.40    1.52
  12   0  11   18.02    1.55
  14   0  10    6.74    1.45
  17  -1  14    1.61    1.45
  18   0   6   15.27    1.62
  20   0   1    5.95    1.16
  21  -1  10    0.47    1.33
  23  -1   7    1.60    1.46
   1  -1  16    3.26    0.87
   3  -1  17   34.70    1.54
   7  -1  18    0.40    1.39
   8   0  12    1.16    0.88
   9  -1  18   26.97    1.91
  10   0  12   10.96    1.54
  12  -2  21    3.08    1.68
  12   0  12   -0.62    1.30
  14   0  11    1.44    1.45
  17  -1  15    6.29    1.82
  18   0   7    1.27    1.36
  19  -1  13    0.30    1.46
  20   0   3    1.42    1.16
  20   0   4    0.44    1.38
  -1  -1  15    0.34    0.75
   2   0  10   16.34    1.03
   5  -1  18    9.88    1.38
   8  -2  22    0.75    1.38
   8   0  13  152.63    2.79
  10  -2  22    1.94    1.34
  14   0  12    2.70    1.46
  20   0   5    5.84    1.55
  20   0   6    4.33    1.62
   1  -1  17    0.69    1.00
   3  -1  18    3.45    1.19
   4   0  12    6.80    1.08
   7  -1  19    3.48    1.47
   9  -1  19   -0.25    1.55
  12   0  13    5.52    1.53
  16   0  11    2.00    1.59
  17  -1  16    0.54    1.69
  18   0   9    0.73    1.34
  20   0   7    3.36    1.53
   2   0  11   67.90    1.49
   4   0  13    2.92    1.13
   5  -1  19   21.83    1.46
   6   0  14   -0.15    1.08
  10  -2  23    2.86    1.70
  10   0  14    9.57    1.45
  12   0  14    2.06    1.52
  14   0  13    0.09    1.55
  15  -1  18    1.23    1.59
  16   0  12    0.55    1.68
  20   0   8    0.08    1.63
  22   0   3    4.40    1.38
  22   0   4   -0.62    1.44
   3  -1  19    0.43    1.30
   7  -1  20    9.62    1.59
   9  -1  20    4.09    1.67
  10   0  15   10.61    1.57
  11  -1  20   -0.06    1.44
  14   0  14   14.20    1.83
  16   0  13    2.02    1.66
  18   0  11    2.67    1.58
  20   0   9    0.91    1.52
  22   0   5   -0.69    1.26
  22   0   6    2.62    1.46
   1  -1  18    0.21    0.99
   2   0  12  253.93    2.49
   5  -1  20    4.97    1.28
   6   0  15   -0.09    1.32
  11   1   2    1.10    0.93
  11   1   3   25.79    1.22
  12   0  15    3.41    1.48
  13  -1  20   -0.63    1.69
  13   1   1    5.15    0.99
  13   1   2    3.47    0.98
  13   1   3    3.76    0.96
  14   0  15   11.06    1.62
  16   0  14    3.28    1.66
  18   0  12    1.54    1.67
  20   0  10    1.84    1.75
   7  -1  21    1.56    1.47
   8   0  16    0.15    1.28
   9  -1  21    0.82    1.54
   9   1   1   -0.25    0.88
   9   1   2  328.18    2.59
   9   1   4    4.10    1.11
   9   1   5    1.42    1.02
  11   1  -1    8.47    0.88
  11   1   0    4.89    0.90
  11   1   6    6.68    1.20
  13   1  -1    1.04    0.76
  13   1   0   41.02    1.31
  13   1   4   20.71    1.34
  13   1   5    4.51    1.22
  15   1   0    0.38    1.05
  15   1   1    0.99    1.08
  15   1   2   10.43    1.32
  20   0  11    2.25    1.58
  22   0   9    2.64    1.66
   2   0  13   16.02    1.12
   3  -1  20    2.81    1.17
   4   0  15   12.86    1.24
   5  -1  21    0.02    1.23
   6   0  16    0.15    1.42
   9   1   0   11.55    0.87
   9   1   7   56.03    1.58
  11   1   7    9.13    1.29
  12   0  17    0.85    1.46
  13   1  -2    0.93    0.74
  14   0  16   -0.64    1.82
  15   1  -1    1.55    0.90
  15   1   5   29.68    1.66
  15   1   6    2.32    1.26
  16   0  15    3.82    1.44
  18   0  14    2.64    1.70
  24   0   5    0.85    1.28
  24   0   6    2.03    1.51
   1  -1  14   21.24    0.73
   3  -1  12    0.33    0.57
   5  -1   9   22.92    0.91
   7  -3  17    0.10    0.64
   7  -1   5   10.45    0.75
   8  -4  19   -0.10    0.72
  10  -2   8   58.98    1.51
  13  -3   7    2.24    1.03
  16  -4   2    1.37    1.02
   4  -2  17   -0.02    0.58
   6  -2  15   -0.06    0.63
   8  -2  12    0.33    0.93
   9  -3  15    0.12    0.61
  10  -4  17   -0.20    0.81
  12  -4  14   -0.52    0.89
  12  -2  -2    3.63    0.77
  14  -4  10    1.47    1.06
  16  -4   4    0.65    1.17
  16  -4   5   -1.51    1.07
   5  -1  10   53.14    1.16
   7  -3  18    0.29    0.68
   7  -1   6  100.22    1.37
   8  -2  13  104.56    1.93
   9  -3  16   -0.17    0.62
  10  -2   9   49.24    1.50
  12  -4  15    0.16    0.81
  12  -2  -4   28.63    0.96
  12  -2   3  148.68    2.17
  13  -3   9   20.12    1.39
  14  -4  11   -0.07    1.04
  15  -3  -3    3.51    0.91
  15  -3  -2    2.66    0.80
  15  -3  -1    1.25    0.86
  15  -3   0   -0.18    0.92
  15  -3   1    0.64    0.94
  16  -4   6   -0.51    1.24
   3  -1  13   13.43    0.72
   5  -1  11    0.13    0.73
   7  -1   7   46.65    1.21
  10  -4  18    0.03    0.81
  12  -2  -5    4.02    0.67
  12  -2   4   13.72    1.09
  12  -2   5   19.23    1.21
  13  -3  10   14.64    1.42
  14  -4  12   -0.38    1.26
  15  -3  -6    2.98    0.97
  15  -3  -5    1.38    0.82
  15  -3   3   18.99    1.30
  15  -3   4   17.91    1.31
  16  -4   7    0.14    1.25
   6  -2  16    0.31    0.63
   7  -1   8  233.00    2.17
   8  -2  14   -0.35    0.98
   9  -3  17    0.04    0.77
  12  -4  16    0.33    0.85
  12  -2  -6    0.61    0.61
  12  -2   6   16.14    1.28
  13  -3  11    4.10    1.18
  15  -3   5   15.44    1.29
  16  -4   8    2.46    1.04
  16  -4   9   -0.53    1.23
  19  -5  -3    0.50    1.06
  19  -5  -2    0.63    1.10
  19  -5  -1    0.80    1.18
  19  -5   0   -0.55    1.20
   3  -1  14    6.25    0.73
   5  -1  12  119.90    1.69
   9  -1   0   10.98    0.78
   9  -1   3  119.60    1.64
  10  -4  19   -0.40    0.84
  11  -3  15   -0.51    0.79
  12  -4  17   -0.70    0.90
  12  -2  -7   17.29    0.74
  12  -2   7    0.31    1.07
  15  -3   6    0.24    1.02
  15  -3   7    3.35    1.17
  16  -4  10    8.38    1.24
  18  -4  -4    2.63    0.97
  18  -4  -3    0.39    1.02
  18  -4  -2    1.17    1.02
  18  -4   0   -0.29    1.14
  18  -4   1    0.16    1.21
  18  -4   2    2.01    1.01
   6  -2  17    0.23    0.58
   8  -2  15    0.73    0.76
   9  -1  -3   37.69    0.90
   9  -1  -2    5.10    0.71
   9  -1   4    5.11    0.81
   9  -1   5    0.11    0.73
  10  -2  12    5.63    0.91
  12  -2   8   12.51    1.07
  16  -4  11    1.85    1.15
  18  -4   3   -0.48    1.08
   5  -1  13   88.52    1.53
   7  -1  10   17.41    0.93
   9  -1   6   61.97    1.36
  10  -2  13    0.33    0.89
  11  -3  16    0.36    0.82
  12  -4  18    0.14    0.90
  12  -2   9    1.60    0.93
  13  -3  13    0.72    1.17
  14  -2  -1   44.76    1.39
  14  -2   2    5.42    1.05
  16  -4  12   -0.97    1.29
  18  -4   5    5.25    1.21
  18  -4   6    2.20    1.31
   3  -1  15   -0.15    0.57
   7  -1  11    0.61    0.73
   8  -2  16   -0.14    0.58
   9  -3  19    0.22    0.76
   9  -1  -4    0.25    0.56
   9  -1   7   56.05    1.35
  11  -3  17   -0.41    0.74
  13  -3  14   -0.57    0.96
  14  -2  -3    2.43    0.91
  14  -2   3    0.23    0.92
  14  -2   4    7.19    0.98
  15  -3  10   -0.19    1.21
  17  -3  -4    1.32    0.90
  17  -3  -1   26.88    1.41
  17  -3   0   11.69    1.11
  17  -3   1    0.09    1.03
  17  -3   2   -0.92    1.08
  18  -4   7    0.20    1.21
  18  -4   8   -0.41    1.25
   5  -1  14   30.07    1.13
   9  -1   8    0.82    0.78
  14  -2  -5    1.60    0.83
  14  -2  -4    1.43    0.81
  14  -2   5   28.87    1.28
  14  -2   6    6.61    1.11
  17  -3  -5    0.17    0.90
  17  -3   4    0.45    1.07
  17  -3   5   -0.30    1.14
   7  -1  12    4.55    0.79
   8  -2  17    0.67    0.62
  11  -3  18    0.13    0.81
  14  -2  -6    0.47    0.82
  17  -3   6   13.98    1.29
  20  -4  -2   -1.05    1.03
  20  -4  -1    1.73    1.09
  20  -4   0    8.90    1.14
  20  -4   1    0.10    1.24
   5  -1  15    8.87    0.94
   7  -1  13   -0.05    0.90
  11  -1   2    0.43    0.71
  11  -1   3   24.29    1.11
  12  -2  13    6.45    1.02
  14  -2   8    3.71    1.01
  14  -2   9   18.37    1.26
  17  -3   8    0.17    1.41
  20  -4  -3   -0.32    0.94
  20  -4   3   -0.45    1.18
   8  -2  18   -0.29    0.61
   9  -1  11   18.39    1.06
  11  -3  19   -0.41    0.76
  11  -1   5   56.71    1.30
  11  -1   6    4.55    1.01
  13  -3  17    0.52    0.85
  14  -2  -7   20.28    0.90
  14  -2  10    5.70    1.10
  17  -3  10    0.72    1.28
   7  -1  14    0.28    0.85
  11  -1  -3   97.56    1.43
  11  -1   7    9.17    1.02
  12  -2  14    1.48    1.01
  14  -2  11    0.50    1.01
  16  -2  -1    0.54    0.94
  16  -2   0    3.33    0.89
  16  -2   1   18.77    1.18
  16  -2   3    1.45    0.99
  16  -2   4    0.68    1.06
  16  -2   5    1.52    1.01
  17  -3  11    1.03    1.11
  19  -3  -2    0.74    0.91
  19  -3  -1    0.65    1.05
  19  -3   0    1.45    1.14
  19  -3   1    5.77    1.29
  19  -3   2    0.95    1.25
  19  -3   3   -0.51    1.19
   9  -1  12   11.64    1.06
  11  -1  -4    0.14    0.65
  11  -1   9    6.00    0.98
  12  -2  15    1.39    1.08
  13  -3  18   -0.03    0.84
  15  -3  15    0.13    0.82
  16  -2  -4    4.86    0.88
  16  -2  -3    0.04    0.97
  16  -2   6    0.50    1.13
  16  -2   7    0.54    1.02
  17  -3  12   -0.77    1.09
  19  -3  -4   -0.09    1.00
  19  -3  -3   -0.91    1.06
  19  -3   5    0.42    1.27
  19  -3   6    1.10    1.07
   7  -1  15   60.62    1.52
   9  -1  13    2.48    1.00
  10  -2  18   -0.11    0.68
  11  -1  -5    0.13    0.70
  14  -2  13   -0.32    1.21
  15  -3  16   -0.13    0.94
  16  -2  -5    5.84    0.94
  17  -3  13    0.14    1.12
  19  -3   7    0.50    1.23
  19  -3   8    0.54    1.27
  12  -2  16    0.82    0.97
  13  -3  19   -0.20    0.75
  13  -1  -1    0.25    0.74
  13  -1   1    5.55    0.86
  13  -1   2    2.68    0.65
  13  -1   4   17.81    1.20
  13  -1   5    4.12    1.04
  13  -1   6    1.23    0.98
  15  -3  17    0.35    0.78
  16  -2  -6   26.60    1.17
  16  -2   9    1.60    1.14
  19  -3   9    0.70    1.30
  22  -4  -2   -0.65    1.09
   4   0   8  101.14    1.23
   7  -1  16    1.55    0.94
   9  -1  14    2.51    1.01
  11  -1  -6   16.20    0.76
  12  -2  17   -0.21    0.83
  13  -1  -2    1.25    0.76
  16  -2  10   22.57    1.44
  16  -2  11    3.77    1.13
  18  -2   1    2.53    0.98
  18  -2   2    0.91    1.02
  19  -3  10   -0.22    1.31
   6   0   4    7.46    0.63
   6   0   5   62.22    1.06
   9  -1  15   -0.30    0.93
  13  -1  -3    6.03    0.77
  14  -2  15    7.98    1.33
  16  -2  12    2.38    1.22
  18  -2  -2    1.77    0.97
  18  -2   0    1.02    0.92
  18  -2   4    6.55    1.18
  18  -2   5   13.03    1.39
  18  -2   6    9.08    1.22
  21  -3  -2    1.19    1.11
  21  -3  -1    0.18    1.09
  21  -3   0    0.20    1.11
  21  -3   2    0.29    1.20
  21  -3   3    0.88    1.10
  21  -3   4   -0.19    1.22
   6   0   6    3.99    0.66
   7  -1  17    3.98    0.91
  13  -1  -4    5.33    0.77
  14  -2  16    0.13    1.16
  18  -2  -4    3.48    0.95
  18  -2  -3    2.28    0.94
  18  -2   7   -0.14    1.27
  18  -2   8    2.46    1.09
  21  -3  -3    0.28    1.11
  21  -3   6    4.37    1.35
   4   0  10    6.10    0.64
   9  -1  16    0.83    0.92
  11  -1  -7   21.89    0.69
  11  -1  14   42.29    1.59
  12  -2  19    0.00    0.77
  13  -1  -5    0.96    0.69
  15  -1   0   -0.18    0.89
  15  -1   2   12.10    1.25
  15  -1   3   40.73    1.49
  15  -1   4   37.38    1.39
  15  -1   5   29.11    1.36
  15  -1   6    1.59    0.97
  16  -2  14    2.34    1.32
  18  -2  -5    3.29    0.94
  18  -2   9    0.90    1.28
   2   0  12  250.44    1.79
   4   0  11    4.97    0.67
   6   0   9    6.44    0.77
   8   0   3   23.76    0.91
   8   0   4  124.87    1.55
   8   0   5    2.16    0.77
   8   0   6    1.80    0.79
   9  -1  17    1.24    0.93
  11  -1  15   -0.28    0.99
  13  -1  12    0.18    1.01
  14  -2  17   -0.56    0.89
  15  -1  -2    5.63    1.03
  15  -1  -1    1.82    0.87
  15  -1   7    9.99    1.15
  15  -1   8    0.13    0.99
  18  -2  -6    1.09    0.86
  18  -2  10   -0.08    1.12
  18  -2  11    0.95    1.15
   4   0  12    7.53    0.75
   6   0  10   22.38    0.95
   8   0   1   72.65    1.13
   8   0   2  108.15    1.41
   8   0   7    2.60    0.80
  13  -1  -6   14.15    0.74
  13  -1  13    0.58    1.09
  14  -2  18    0.48    0.83
  15  -1  -3    7.83    0.87
  15  -1   9    1.28    1.12
  16  -2  15    1.47    1.13
  18  -2  12    0.82    1.12
  20  -2  -1    3.55    1.17
  20  -2   1    4.43    1.19
  20  -2   2    0.35    1.24
  20  -2   3   -1.38    1.26
  20  -2   5    2.70    1.35
   2   0  13   14.99    0.74
   6   0  11    1.62    0.68
   8   0   0   30.91    0.83
   9  -1  18   28.22    1.26
  11  -1  16    1.30    0.93
  13  -1  14    0.61    1.06
  15  -1  -4    6.04    0.96
  15  -1  10   -0.08    1.12
  16  -2  16    0.98    1.25
  20  -2  -3   -0.33    0.99
  20  -2  -2   -0.59    1.02
  20  -2   8    0.62    1.14
  23  -3  -2    0.56    0.92
  23  -3  -1    0.20    1.11
   4   0  13    2.12    0.58
   6   0  12   41.10    1.13
   8   0  10    2.28    0.75
  10   0   4   14.78    0.91
  10   0   5   44.72    1.25
  10   0   6   19.90    1.04
  11  -1  17   -0.55    0.94
  13  -1  -7  103.95    1.41
  13  -1  15    5.79    1.06
  14  -2  19    0.07    0.73
  16  -2  17    5.19    1.28
  17  -1   0   18.75    1.19
  17  -1   1    0.12    0.95
  17  -1   3    5.44    1.07
  17  -1   4    3.90    1.12
  17  -1   5    1.37    1.10
  17  -1   6   28.77    1.53
  18  -2  14    2.73    1.36
  20  -2  -4   -1.02    0.88
  20  -2   9   -0.22    1.23
   2   0  14    3.31    0.59
   6   0  13   11.37    0.83
   8   0  -1   47.28    0.89
  10   0   2    1.73    0.59
  10   0   8   98.67    1.73
  14  -2  20    0.77    0.85
  15  -1  -5    2.17    0.85
  15  -1  13   -0.92    1.13
  17  -1  -1   66.13    1.67
  20  -2  -5    1.08    0.82
  20  -2  10    0.51    1.18
   4   0  14   43.24    1.02
   8   0  12    0.25    0.75
  10   0   0   67.74    1.26
  11  -1  18    1.44    1.01
  13  -1  16   18.34    1.35
  15  -1  -6    7.05    0.84
  15  -1  14    9.90    1.32
  17  -1  -3    2.62    1.12
  17  -1  -2    4.12    1.00
  17  -1   9    3.83    1.12
  17  -1  10    1.96    1.17
  22  -2   0   -0.15    1.19
  22  -2   1    0.11    1.06
  22  -2   2    2.70    1.32
  22  -2   3    1.38    1.29
  22  -2   4    0.63    1.26
   6   0  14   -0.27    0.70
   8   0  13  159.42    2.15
  12   0   2   10.17    0.97
  12   0   3  224.30    2.40
  12   0   4   22.89    1.12
  12   0   5   25.51    1.20
  12   0   6   20.78    1.19
  12   0   8   24.51    1.20
  13  -1  17    0.05    1.11
  15  -1  15    0.80    1.08
  17  -1  -4    2.51    1.02
  17  -1  11    1.65    1.27
  22  -2  -2    0.27    1.01
  22  -2  -1   -0.22    1.16
  22  -2   6    0.98    1.13
   6   0  15   -0.97    0.74
   8   0  14    1.27    0.88
  10   0  12   11.11    1.14
  12   0   1   11.07    0.91
  12   0   9    4.32    1.13
  13  -1  18    1.46    0.96
  15  -1  -7    1.88    0.74
  15  -1  16    0.40    1.20
  19  -1   0    1.41    1.05
  19  -1   1   14.04    1.33
  19  -1   4   -0.51    1.04
  19  -1   6    0.30    1.16
  19  -1   7    2.64    1.29
  22  -2  -3   -0.09    1.07
   8   0  15   -0.24    0.95
  10   0  -2    9.96    0.72
  10   0  13    1.06    1.02
  12   0   0    2.31    0.72
  14   0   5   50.80    1.59
  14   0   6    7.33    1.24
  17  -1  -5    2.68    0.90
  19  -1  -2    0.34    1.05
  19  -1  -1    0.82    0.94
  19  -1   8    3.13    1.19
  19  -1   9    0.43    1.35
  22  -2  -4    5.38    1.10
  10   0  -3    2.29    0.72
  10   0  14   10.62    1.16
  13  -1  19    0.54    1.00
  14   0   1    0.10    0.83
  14   0   2    3.96    1.00
  14   0   3    0.92    0.88
  14   0   7    0.33    0.89
  14   0   8    3.90    0.97
  14   0   9   25.69    1.34
  15  -1  17    1.27    1.16
  17  -1  15    6.98    1.22
  19  -1  -3    0.91    0.90
  19  -1  10    0.88    1.16
   8   0  16   -0.31    0.89
  10   0  15   12.24    1.10
  12   0  -2    9.93    0.85
  12   0  13    7.23    1.04
  14   0  10    6.19    1.09
  15  -1  18    0.44    1.05
  17  -1  16    1.55    1.26
  19  -1  -4    0.18    0.87
  19  -1  12    0.13    1.26
  21  -1   2   -0.86    1.08
  21  -1   5    3.43    1.30
  21  -1   6   11.84    1.27
  24  -2  -1    0.42    1.09
  24  -2   0   -1.04    1.18
   8   0  17    5.81    1.00
  10   0  16   27.29    1.22
  12   0  14    1.40    1.04
  14   0  12    4.29    1.05
  15  -1  19    4.58    1.19
  16   0   3    1.88    0.86
  16   0   4    2.70    0.99
  16   0   5    1.36    1.01
  16   0   7    0.77    0.99
  19  -1  -5   26.11    1.24
  21  -1  -1    1.31    1.13
  21  -1   0   -0.26    1.14
  21  -1   1   -0.44    1.07
  21  -1   7    2.21    1.14
  21  -1   8    0.18    1.20
  21  -1   9    1.37    1.18
  24  -2  -3    0.20    1.02
  24  -2  -2    1.49    0.97
  10   0  -4    2.49    0.65
  12   0  15    3.06    1.10
  14   0  -2  196.03    2.17
  14   0  13    0.15    1.06
  16   0   2    1.65    0.88
  16   0   9    1.23    1.19
  17  -1  17    0.20    1.08
  21  -1  -2    2.53    1.14
  21  -1  10    0.58    1.31
  10   0  17    9.46    0.99
  12   0  16    1.06    0.96
  14   0  14   15.82    1.37
  16   0   0    3.58    1.12
  16   0  10   36.76    1.60
  16   0  11    3.21    1.25
  19  -1  -6   18.87    1.11
  21  -1  -3    1.11    1.05
  10   0  18    1.12    0.82
  14   0  15   12.44    1.28
  16   0  -1    0.68    0.90
  16   0  13    0.86    1.27
  18   0   3    0.38    1.02
  18   0   4   13.93    1.34
  18   0   5   19.09    1.48
  18   0   6   12.91    1.42
  18   0   7   -0.89    1.20
  18   0   8    1.14    1.05
  21  -1  -4    2.93    1.03
  23  -1   2    1.27    1.13
  23  -1   3    1.10    1.20
  12   0  -5    9.41    0.76
  14   0  -4    2.67    0.74
  14   0  16    0.29    1.11
  16   0  -2   -0.73    0.85
  16   0  14    1.83    1.11
  18   0   0    0.51    0.94
  18   0   9   -0.32    1.22
  18   0  10    1.10    1.29
  21  -1  -5    0.06    0.89
  23  -1  -1    0.45    1.14
  23  -1   0    4.29    1.07
  12   0  18   12.06    1.06
  14   0  17    0.22    1.10
  16   0  -3    0.09    0.90
  16   0  15    2.90    1.22
  18   0  -1    5.48    0.98
  18   0  11    1.61    1.17
  23  -1  -3    0.67    1.07
  23  -1  -2   -0.01    1.09
  14   0  -5    5.54    0.74
  14   0  18    1.44    1.05
  16   0  -4    4.12    0.93
  16   0  16    0.73    1.16
  18   0  -2    2.04    0.83
  18   0  13    6.47    1.40
  20   0   3   -0.22    1.30
  20   0   4    1.88    1.16
  20   0   5    5.96    1.28
  20   0   6    3.81    1.32
  20   0   8    0.68    1.29
  20   0   9    0.95    1.04
  23  -1  -4    0.32    0.99
   9   1   7   53.85    1.23
  12   0  -6    0.97    0.56
  16   0  17    7.79    1.17
  18   0  -3    3.45    0.93
  18   0  14    2.69    1.15
  18   0  15    1.17    1.19
  20   0   0   35.33    1.51
  20   0   1    4.64    1.03
  20   0  10    1.19    1.22
  20   0  11    0.53    1.10
   7   1   9   -0.12    0.71
   7   1  10   17.26    0.87
   9   1   5    0.61    0.75
   9   1  10    7.73    0.87
   9   1  11   18.79    0.97
  11   1   6    6.02    0.95
  11   1   7    8.92    0.98
  11   1   8   12.88    1.07
  11   1  10   31.25    1.24
  14   0  -6    0.26    0.63
  14   0  19   -0.37    0.96
  16   0  -5    7.62    0.90
  16   0  18    0.84    0.93
  18   0  -4    2.34    0.85
  18   0  16   -0.69    1.16
  20   0  -1    4.55    1.06
  20   0  12    2.14    1.21
  25  -1  -2   -0.25    0.92
  25  -1  -1    0.62    1.09
   7   1  11    0.42    0.67
   7   1  12    4.85    0.78
   9   1   3  115.42    1.59
   9   1   4    3.72    0.60
   9   1  12   11.54    0.99
  11   1   3   25.47    1.01
  11   1   4   27.50    1.05
  11   1  12    0.79    0.96
  13   1   5    4.46    1.00
  13   1   6    0.46    1.09
  13   1   7    3.85    1.10
  13   1   8   12.54    1.10
  16   0  19    0.82    1.08
  20   0  -2    0.06    0.97
  22   0   2    5.47    1.24
  22   0   5    0.53    1.04
  22   0   6    2.05    1.14
  22   0   7    1.34    1.24
  22   0   8    1.32    1.26
  25  -1  -3   -0.16    1.01
   5   1   8    5.05    0.63
   5   1   9   23.52    0.83
   5   1  11   -0.53    0.62
   7   1  13    0.00    0.76
   9   1   2  319.96    2.34
   9   1  13    3.71    0.93
   9   1  14    3.01    0.99
  11   1  13   14.76    1.03
  12   0  -7   35.92    0.86
  13   1   2    3.25    0.82
  13   1   3    3.84    0.91
  13   1  11    9.68    1.13
  13   1  12   -0.94    0.94
  15   1   5   29.44    1.25
  15   1   6    1.24    1.00
  15   1   7   10.32    1.05
  15   1   8    0.08    0.98
  15   1   9    2.90    1.03
  20   0  -3    1.04    0.92
  22   0   0    0.42    1.14
   5   1   5    6.69    0.59
   7   1  14   -0.45    0.73
   9   1  15   -0.93    0.95
  11   1   1   10.88    0.86
  11   1  14   41.87    1.41
  13   1   1    5.67    0.89
  13   1  13    1.00    0.94
  14   0  -7   29.55    0.89
  15   1   3   37.99    1.37
  15   1   4   39.14    1.22
  15   1  10   -0.14    0.99
  15   1  12    6.27    1.21
  18   0  -6   -0.74    0.92
  20   0  -4   -0.71    0.91
  22   0  -2    0.32    0.90
  22   0  -1    0.47    0.96
   5   1   4    2.83    0.50
   5   1  14   28.29    0.94
   7   1   2    6.29    0.69
   7   1  15   60.15    1.34
   9   1  16    1.56    0.90
  11   1   0    5.76    0.78
  11   1  15    0.53    0.81
  13   1   0   38.96    1.14
  13   1  14    1.45    0.88
  13   1  15    4.73    1.01
  15   1   1    1.06    1.06
  15   1  13   -0.60    1.08
  16   0  -7   48.17    1.22
  17   1   3    4.97    0.98
  17   1   4    2.95    1.10
  17   1   5    0.59    1.05
  17   1   6   27.23    1.42
  17   1   8    2.88    1.16
  17   1   9    4.33    1.20
  20   0  -5   -0.32    0.82
  22   0  -3   -0.54    0.94
  24   0   2    0.27    1.15
  24   0   3   -0.76    1.12
   3   1   9    1.15    0.63
   7   1  16    2.18    0.72
   9   1   0   12.89    0.77
   9   1  17    0.76    0.87
  11   1  16    1.12    0.78
  13   1  16   19.36    1.30
  15   1  14    9.24    1.21
  15   1  15    0.44    1.13
  17   1  12    0.25    1.23
  18   0  -7   -1.12    0.88
  19   1   6    1.76    0.99
  19   1   7    3.23    1.09
  22   0  -4    7.48    0.98
  24   0  -1    0.51    1.02
  24   0   0   -0.14    1.10
   3   1  12    0.90    0.50
   7   1   1   15.47    0.72
  11   1  -1    8.10    0.86
  11   1  17   -0.02    0.86
  13   1  17    0.94    0.93
  14   0  -8    6.11    0.58
  15   1  -1    2.97    0.85
  15   1  16    0.85    1.07
  17   1  13    1.12    1.05
  17   1  14    0.96    1.18
  19   1   3    0.66    1.07
  19   1   4   -0.07    1.08
  19   1   8    3.27    1.12
  19   1   9    0.96    1.27
  19   1  11   14.45    1.36
  20   0  -6    5.74    0.81
   3   1  13   13.03    0.58
   9   1  -1    6.00    0.71
  13   1  -2    2.10    0.71
  13   1  18    1.12    1.00
  15   1  -2    4.37    1.04
  15   1  17    0.79    0.93
  17   1  -1   64.06    1.58
  17   1  15    6.77    1.17
  19   1  13    0.07    1.00
  21   1   6   11.04    1.35
  22   0  -5   15.01    1.01
  24   0  -3    0.64    0.96
  15   1  18   -0.18    0.97
  17   1  -2    4.47    0.88
  17   1  16    1.11    1.16
  19   1   0    1.50    1.01
  19   1  14    1.72    1.13
  21   1   3   -0.76    1.23
  21   1   4    1.60    1.21
  21   1   5    4.20    1.15
  21   1   7    1.33    1.08
  21   1   8    0.17    1.06
  21   1   9   -0.25    1.20
  24   0  -4    1.09    0.89
  13   1  -3    6.27    0.78
  15   1  -3    7.04    0.94
  17   1  17   -0.67    1.11
  19   1  -1   -1.12    0.94
  21   1   1    0.40    1.14
  11   1  -3  107.34    1.46
  19   1  -2    1.18    0.85
  21   1  -1    0.21    1.09
  23   1   4    1.00    1.11
  23   1   5    0.71    1.14
  13   1  -4    6.53    0.73
  15   1  -4    7.08    0.89
  17   1  -4    1.35    0.97
  19   1  -3   -0.67    0.94
  21   1  -2    2.38    0.95
  23   1   1   10.12    1.32
  23   1   2    0.04    0.99
  11   1  -4    0.96    0.68
  19   1  -4    0.44    0.86
  21   1  -3    0.19    0.99
  23   1   0    4.60    1.19
  12   2   6   16.43    1.14
  12   2   7    0.23    1.01
  12   2  10    5.59    0.90
  12   2  11   10.75    0.99
  14   2   6    5.45    1.01
  14   2   7    1.26    0.91
  14   2   8    2.69    0.96
  14   2   9   17.59    1.19
  14   2  11    1.24    0.93
  15   1  -5    1.61    0.80
  16   2   7   -0.83    0.98
  16   2   8    3.47    1.09
  16   2   9    0.97    0.99
  23   1  -2    0.42    0.94
  10   2  10    1.61    0.91
  10   2  11    6.93    0.96
  10   2  12    4.74    0.94
  12   2   5   17.74    1.10
  12   2  12    0.27    0.84
  12   2  14   -0.08    0.98
  14   2  12    1.56    0.95
  14   2  13   -0.01    1.02
  14   2  14   10.14    1.21
  16   2   4    1.80    0.96
  16   2   6    1.22    0.96
  16   2  12    3.00    1.13
  16   2  13    1.45    1.16
  18   2   6    7.20    1.13
  18   2   7    0.08    1.03
  18   2   8    0.22    1.15
  18   2   9   -1.50    1.26
  18   2  10   -0.06    1.00
  19   1  -5   24.88    1.14
  23   1  -3   -0.53    0.93
   8   2  10   -0.31    0.79
   9   1  -4    1.32    0.60
  10   2   6    8.98    0.90
  10   2  13    0.33    0.82
  10   2  14    5.62    0.84
  11   1  -5    0.84    0.61
  12   2   4   12.61    1.04
  12   2  15    1.66    0.90
  14   2   3    0.58    0.80
  15   1  -6    8.61    0.81
  16   2   2    0.08    0.87
  16   2   3   -0.50    0.90
  16   2  14    2.29    1.06
  17   1  -6   14.57    1.03
  18   2   3    1.20    0.94
  18   2   4    6.68    1.23
  18   2   5   12.05    1.16
  18   2  12   -0.15    1.21
  18   2  13    3.29    1.03
  19   1  -6   16.92    1.06
  20   2   6    1.27    1.04
  20   2   7    3.10    1.02
  20   2   8    0.91    1.03
  20   2   9    0.25    1.03
  21   1  -5   -0.15    0.92
  23   1  -4    0.86    1.00
  25   1  -2    0.90    1.06
  25   1  -1    1.19    0.99
   8   2   8   24.27    1.01
   8   2   9   24.23    0.93
   8   2  11   13.28    0.89
   8   2  12   -0.64    0.84
   8   2  13   95.79    1.66
  10   2   4    4.93    0.83
  10   2  15    6.81    0.85
  12   2  16    0.34    0.95
  13   1  -6   13.08    0.78
  14   2   1   -0.36    0.92
  14   2   2    3.62    0.74
  14   2  16   -0.13    0.96
  16   2   1   17.95    1.12
  16   2  15    1.99    0.96
  16   2  16    1.32    0.88
  18   2   2    2.21    1.08
  18   2  14    1.84    1.11
  20   2   3    1.04    1.04
  20   2   4    1.36    1.17
  20   2   5    3.60    1.06
  20   2  10    0.89    1.04
  20   2  11    0.74    1.15
  25   1  -3   -0.23    0.90
   8   2   6    1.75    0.73
   8   2  14   -0.20    0.82
   8   2  15   -0.19    0.84
  10   2   3    3.06    0.75
  10   2  16   13.10    0.98
  12   2   1    4.21    0.78
  12   2  17   -0.14    0.90
  14   2  17    0.06    0.94
  16   2  17    1.95    1.09
  17   1  -7   -0.88    0.77
  18   2   1    1.79    1.02
  19   1  -7    2.71    0.84
  20   2   2    0.46    1.10
  21   1  -6    0.45    0.76
  22   2   4   -0.17    1.00
  22   2   5    1.00    1.13
  22   2   6    1.43    1.23
  23   1  -5    0.26    0.97
  25   1  -4    8.08    1.08
   6   2  10   16.82    0.89
   6   2  11   -0.09    0.67
   8   2   5    0.84    0.53
   8   2  16    0.10    0.72
  10   2   2    1.88    0.74
  14   2   0   -1.52    0.94
  14   2  18    0.26    0.74
  16   2  18   -1.93    1.04
  22   2   3    2.01    1.13
   6   2   8   88.52    1.34
   6   2  12   20.04    0.91
   6   2  13    5.19    0.74
   6   2  14    0.37    0.68
  10   2   1    4.40    0.79
  12   2   0    0.74    0.78
  17   1  -8   10.76    0.87
  18   2  -1    2.56    0.98
  20   2  -1    3.42    1.00
  22   2   0    0.37    1.13
  22   2   1    0.41    1.16
   6   2  15    0.40    0.64
   8   2   3   10.94    0.85
  12   2  -1    0.87    0.72
  14   2  -2  116.51    1.85
  15   1  -8    1.99    0.65
  16   2  -2    1.08    0.78
  18   2  -2    2.92    0.86
  20   2  -2    0.68    0.92
  22   2  -1    0.20    0.94
   8   2   2   60.74    1.24
  10   2   0   51.29    1.19
  16   2  -3   -0.25    0.85
  18   2  -3    2.20    0.92
  20   2  -3    1.06    0.95
  22   2  -2   -0.56    1.02
  24   2   0    0.01    1.03
  14   2  -3    3.62    0.83
  18   2  -4    2.44    0.96
  22   2  -3   -0.81    0.88
  24   2  -1    0.35    1.04
   4   2  11    3.74    0.65
   4   2  12    3.74    0.62
   6   2   4    0.91    0.67
   8   2   1   36.22    1.07
  10   2  -1    4.22    0.74
  16   2  -4    4.23    0.94
  17   3   8    1.72    0.96
  17   3   9    2.10    1.00
  20   2  -4   -0.77    0.88
  22   2  -4    4.36    1.05
  24   2  -2    0.31    0.94
   4   2  10    1.12    0.59
   4   2  13    0.66    0.56
   6   2   3    3.41    0.65
  12   2  -3    4.43    0.71
  13   3   8    4.66    0.99
  13   3  10   15.00    1.17
  13   3  11    3.69    0.99
  14   2  -4    0.22    0.83
  15   3   5   14.09    1.11
  15   3   6   -1.07    1.06
  15   3   7    4.80    0.99
  15   3   8    0.03    0.89
  15   3  11    4.31    0.95
  15   3  12    2.58    1.11
  17   3   5    0.14    0.96
  17   3   6   12.97    1.27
  17   3   7    0.93    0.95
  17   3  11    1.84    1.01
  17   3  12   -0.30    1.08
  17   3  13    0.81    1.03
  18   2  -5    2.42    0.86
  19   3   5   -0.62    1.02
  19   3   6   -0.58    1.07
  19   3   7   -0.10    1.11
  19   3   8    1.21    1.12
  19   3   9    1.03    1.06
  19   3  10   -0.28    1.12
  20   2  -5    1.24    0.85
  24   2  -3    1.57    0.85
   4   2   7  136.78    1.46
   4   2   8   51.23    1.02
   8   2   0   11.56    0.86
  10   2  -2   11.51    0.78
  11   3   9    2.50    0.81
  11   3  10   12.40    1.00
  13   3   5    1.62    0.85
  13   3   6   -0.23    0.89
  13   3   7    3.42    0.87
  13   3  13    0.89    0.84
  13   3  14   -0.87    0.98
  15   3  14    4.34    0.98
  15   3  15   -0.43    0.93
  16   2  -5    7.11    0.96
  17   3   3    2.03    1.01
  17   3   4    0.53    0.93
  17   3  14    0.30    0.93
  19   3   3    0.00    0.96
  19   3   4    0.72    1.07
  21   3   4    0.38    0.95
  21   3   5    1.95    1.14
  22   2  -5    9.25    1.15
   6   2   2  267.35    1.91
  11   3   7    1.12    0.78
  11   3  12    0.28    0.81
  11   3  13    7.17    0.99
  11   3  14   15.12    1.06
  13   1  -9    1.43    0.47
  13   3   4    7.15    0.98
  13   3  15    2.00    0.82
  13   3  16    8.80    1.07
  14   2  -5    1.53    0.84
  15   3   2    4.35    0.93
  15   3   3   16.67    1.19
  15   3  16    0.58    0.94
  15   3  17    0.76    0.95
  17   3   2   -0.89    1.08
  18   2  -6    0.26    0.76
  19   3   2    2.00    1.07
  20   2  -6    2.35    0.87
  21   3   2   -0.43    0.95
  21   3   3    1.09    1.02
  22   2  -6    0.19    0.89
  24   2  -5    0.98    0.88
   9   3  11    5.83    0.94
  11   3   5   23.31    1.20
  11   3  15    0.70    0.91
  11   3  16   -0.21    0.73
  13   3   3    0.71    0.79
  13   3  17    0.50    0.81
  15   3   1    1.28    0.86
  17   3   1    1.17    0.95
  19   3   1    5.63    1.01
   6   2   1  365.17    2.16
   9   3   8   -0.69    0.86
   9   3  10    5.78    0.87
   9   3  12    3.75    0.75
   9   3  13    1.43    0.78
   9   3  14    0.87    0.74
  11   3   4   14.87    1.16
  12   2  -5    4.57    0.77
  13   3   2    0.86    0.80
  14   2  -6    0.47    0.78
  15   3   0    0.65    0.79
  17   3   0   10.23    1.13
  18   2  -7    0.84    0.75
  19   3  -1   -0.69    1.08
  20   2  -7    6.01    0.84
  21   3   0    1.05    1.09
   8   2  -2   16.51    0.81
   9   3   6   29.45    1.15
   9   3  15    0.06    0.72
  11   3   3   12.49    1.09
  13   3   1    2.12    0.81
  16   2  -7   38.31    1.20
  21   3  -1    1.87    1.00
   4   2   4   70.18    1.06
   9   3   5    0.94    0.84
  11   3   2   -0.38    0.96
  17   3  -2    2.22    0.98
  18   2  -8    0.56    0.73
  19   3  -2    0.24    0.83
  21   3  -2    1.00    1.07
  23   3  -2   -0.06    0.87
   2   2  13    6.87    0.49
   6   2   0   17.27    0.80
   7   3  10    8.06    0.87
   7   3  11    0.19    0.73
   7   3  13   -0.44    0.76
   7   3  14    1.53    0.77
  11   1  -9   15.69    0.55
  11   3   1    4.01    0.93
  12   2  -6    0.96    0.61
  13   3  -1    0.10    0.85
  14   2  -7   22.74    1.00
  16   2  -8   -0.57    0.82
  17   3  -3    1.97    0.86
  19   3  -3    1.00    0.92
  21   3  -3    0.73    0.99
  23   3  -3   -0.06    0.85
   2   2   9   17.43    0.77
   2   2  10   10.23    0.59
   4   2   3    9.64    0.65
   7   3   7   29.34    1.09
   7   3  15   22.73    1.04
   9   3   3   67.21    1.41
  10   2  -5    3.01    0.72
  21   3  -4    3.52    1.02
  23   3  -4   -0.46    0.96
   2   2   8   35.20    0.85
   6   2  -1    0.69    0.62
   9   3   2  141.95    1.86
  15   3  -3    2.17    0.83
  16   4   8    1.25    1.07
  16   4  10    7.80    1.26
  16   4  11    2.12    1.01
  16   4  12    0.40    1.03
  17   3  -4    0.67    0.88
  18   4   5    4.71    1.13
  18   4   6    2.99    1.11
  18   4   7   -0.14    1.04
  18   4   8   -1.38    0.96
  21   3  -5    0.67    0.93
   4   2   2    0.87    0.53
   7   3   5    1.71    0.74
   9   3   1    1.13    0.81
  11   3  -1    1.85    0.86
  12   2  -7   19.39    0.84
  14   2  -8    5.95    0.73
  14   4   7   -0.33    0.94
  14   4  10    1.59    1.05
  14   4  11    0.75    0.99
  14   4  12   -0.68    0.99
  14   4  13    1.27    0.97
  15   3  -4    4.35    0.84
  16   2  -9    0.84    0.71
  16   4   5   -0.62    1.11
  16   4   6    0.74    0.98
  18   4   3    0.38    1.05
  18   4   4    4.16    1.04
  19   3  -5   12.55    1.12
  20   4   3    0.74    0.91
  23   3  -5    0.66    0.91
   2   2   7    0.30    0.54
   5   3  11    0.85    0.74
   7   3   4    9.37    0.78
  12   4   9   -0.47    0.89
  12   4  10    2.40    0.94
  12   4  11    4.20    0.99
  12   4  12    0.78    0.85
  12   4  13    2.50    0.97
  13   3  -3    3.37    0.88
  14   4   5    9.86    1.13
  14   4   6    3.41    0.94
  14   4  15    3.30    0.96
  14   4  16   -0.21    0.93
  16   4   3    0.75    1.02
  18   4   2    1.37    1.10
  19   3  -6    9.76    0.94
  20   4   2    1.53    0.97
  21   3  -6   -0.38    0.89
  23   3  -6    0.70    0.75
   2   2   6   57.95    0.87
   5   3   9    8.11    0.69
   5   3  10   16.81    0.91
   5   3  14   12.28    0.84
   6   2  -2    1.45    0.64
   7   3   3   15.31    0.86
   9   3   0    6.17    0.85
  10   2  -6    2.52    0.61
  11   3  -2  145.69    1.94
  12   4   6    4.45    0.95
  12   4   7   -0.35    0.98
  12   4  14    0.80    0.95
  12   4  15    0.45    0.90
  13   3  -4    4.05    0.89
  14   4   3   -0.15    0.92
  15   3  -5    2.26    0.77
  16   4   2   -0.95    1.04
  17   3  -6    6.87    0.90
  18   4   1    0.54    1.05
  20   4   1    1.35    0.96
   4   2   1    5.97    0.58
   5   3   7   18.62    0.84
   5   3   8    3.27    0.69
  10   4  10   -0.42    0.81
  10   4  11    2.42    0.85
  10   4  12    1.30    0.94
  12   4   5    4.96    1.05
  12   4  16    0.17    0.87
  14   4   2    1.14    1.00
  16   4   1    6.92    1.03
  18   4   0   -0.90    1.06
  19   3  -7    0.26    0.90
  21   3  -7   -0.57    0.89
   7   3   2    3.67    0.69
   9   3  -1    1.60    0.80
  10   4   9   15.68    1.07
  10   4  13    0.22    0.81
  10   4  15    2.72    0.88
  12   4   3   54.81    1.50
  12   4   4    7.62    0.99
  13   3  -5   -0.48    0.93
  14   4   1   -0.77    0.99
  15   3  -6    3.18    0.80
  16   4   0    2.22    0.94
  17   3  -7    0.69    0.79
  20   4  -2   -0.20    0.90
   8   2  -5    5.34    0.61
  10   2  -7   60.18    1.08
  18   4  -2   -1.02    1.01
  19   3  -8    1.37    0.86
  20   4  -3    1.66    0.99
   4   2   0   -0.06    0.52
   6   2  -3   15.92    0.74
   8   4  11    4.23    0.95
   8   4  12    0.50    0.88
   9   3  -2    1.69    0.77
  10   4   4    0.37    0.84
  10   4   5    8.15    0.89
  11   3  -4    0.10    0.78
  12   4   1    0.55    0.83
  15   3  -7    0.57    0.81
  17   3  -8    6.13    0.83
  18   4  -3    0.61    1.01
   5   3   4    0.39    0.71
   8   4   8    7.67    0.90
   8   4   9    8.35    0.89
   8   4  10    1.08    0.76
   8   4  14    0.24    0.79
  10   4   3    1.49    0.84
  12   2  -9   10.41    0.69
  13   3  -6    5.10    0.94
  14   4  -1   14.97    1.18
  16   4  -3   -0.17    0.88
  18   4  -4    1.23    1.04
  20   4  -4   -0.09    0.97
   3   3  12    0.58    0.57
   3   3  13    3.92    0.66
   5   3   3  147.26    1.65
   8   2  -6   11.99    0.71
   8   4   7   -1.00    0.85
  10   4   2   -0.94    0.82
  11   3  -5   -0.39    0.74
  12   4   0    0.14    0.80
  15   5  10    0.11    0.89
  20   4  -5    0.83    0.92
   3   3   9    2.07    0.62
   7   3  -1   11.03    0.83
   8   4   5    0.01    0.88
  10   2  -8   82.51    1.17
  10   4   1    1.58    0.79
  12   4  -1   -0.18    0.87
  15   3  -8    0.37    0.74
  15   5   7    0.81    1.07
  16   4  -4   -0.11    0.92
  17   3  -9    1.59    0.67
  17   5   5    0.40    0.96
  18   4  -5    1.68    0.99
  22   4  -6    0.93    0.82
  -1  -1 -19    5.29    1.65
   0   0 -26    3.84    2.00
   2   0 -24    2.32    1.76
   4   0 -20    0.67    1.50
   4   0 -19    8.78    1.50
   5   1 -25    2.57    1.79
   7   1 -20   -0.09    1.39
   8   2 -24    1.49    1.44
  -8  -2 -15   -0.27    0.96
  -8  -2 -14   -0.30    0.87
  -8  -2 -12    0.54    0.86
  -8  -2 -11   13.75    1.13
  -8  -2 -10   -0.52    0.85
  -8  -2  -9   25.14    1.16
  -7  -1 -25    0.10    1.44
  -5  -1 -24    0.62    1.27
  -1  -1 -21   12.59    1.75
  -1  -1 -20   15.40    1.76
   0   0 -27   -0.28    1.92
   1  -1 -14    8.03    1.33
   1  -1 -13   38.10    1.64
   4   0 -21   10.78    1.80
   8   2 -25   -1.20    1.51
  -8  -2 -16   -0.28    0.86
  -8  -2  -8   25.26    1.08
  -5  -1 -25    1.22    1.44
  -1  -1 -22    1.48    1.74
   1  -1 -18   82.78    2.35
   1  -1 -17    1.06    1.64
   1  -1 -16   16.54    1.64
   1  -1 -12    3.50    0.87
   1  -1 -11  294.89    3.03
   2   0 -25    7.29    1.70
   4   0 -22    4.19    1.86
   5   1 -27    0.63    1.75
   7   1 -23   10.96    1.85
   7   1 -22    7.98    1.52
   8   2 -26   -0.23    1.54
  -8  -2 -18   -0.12    0.94
  -6  -2 -16   -0.17    0.88
  -6  -2 -15    0.40    1.04
  -6  -2 -14    0.78    1.15
  -6  -2 -13    5.67    1.25
  -6  -2 -12   19.84    1.34
  -6  -2 -11   -0.58    0.96
  -6  -2 -10   17.34    1.22
  -1  -1 -23    8.15    1.99
   1  -1 -19    3.96    1.55
   1  -1 -10   77.18    1.73
   2   0 -26    0.15    1.61
   4   0 -23    0.49    1.59
   7   1 -24    0.87    1.46
  -8  -2 -19    0.52    1.08
  -8  -2  -7   -0.59    0.64
  -6  -2 -17    0.00    0.84
  -6  -2  -9    2.18    1.00
  -1  -1 -24    3.50    1.87
   1  -1 -21    0.53    1.62
   1  -1 -20    0.18    1.40
   1  -1  -9   20.81    1.20
   2   0 -27    0.58    1.82
   4   0 -24   10.51    1.82
   6   0 -16    6.67    1.36
   6   0 -15  161.79    2.55
   6   0 -14   32.42    1.46
   7   1 -25    1.30    1.71
  -8  -2 -21   -0.24    1.01
  -6  -2 -20    0.01    1.11
  -6  -2 -19   -0.27    0.95
  -6  -2  -8   88.58    1.62
  -4  -2 -16   15.27    1.51
  -4  -2 -14   32.69    1.61
  -4  -2 -13    1.91    1.01
  -1  -1 -25   -0.94    1.79
   1  -1 -22    2.24    1.77
   1  -1  -8   24.09    1.06
   4   0 -25   -1.33    1.58
   6   0 -20   15.01    1.67
   6   0 -19   -0.18    1.28
   6   0 -13    4.78    1.05
   6   0 -12   13.98    1.20
   7   1 -26    3.62    1.68
   9   1 -18    0.22    1.24
   9   1 -17    3.79    1.19
   9   1 -16   14.22    1.27
   9   1 -15    5.59    1.20
  -8  -2 -22    0.06    1.14
  -4  -2 -19   -0.05    1.27
  -4  -2 -18    1.16    1.43
  -4  -2 -17   -0.69    1.14
  -4  -2 -12    5.02    1.03
  -4  -2 -11    3.86    0.98
  -1  -1 -26    1.86    1.67
   1  -1 -24   -0.44    1.64
   1  -1 -23    6.72    1.64
   3  -1 -18    0.25    1.10
   3  -1 -17    2.43    1.40
   3  -1 -16   31.09    1.83
   3  -1 -15  121.58    2.40
   4   0 -26    0.88    1.70
   6   0 -22    8.55    1.69
   6   0 -21    3.59    1.48
   6   0 -11   35.65    1.31
   7   1 -27   -0.45    1.70
   9   1 -21   11.69    1.42
   9   1 -20   -1.27    1.25
   9   1 -19   14.00    1.36
   9   1 -14  105.67    1.92
  -8  -2 -23   -0.40    1.12
  -6  -2 -22    0.67    1.17
  -6  -2  -7   76.55    1.39
  -4  -2 -20   -0.66    1.11
  -4  -2 -10    1.24    0.94
   1  -1 -25    4.16    1.79
   3  -1 -20    4.63    1.51
   3  -1 -19    2.11    1.44
   3  -1 -13   41.80    1.60
   4   0 -27   -2.63    1.56
   6   0 -24    0.12    1.65
   6   0 -23    0.36    1.49
   9   1 -23   -1.04    1.45
   9   1 -22    1.20    1.28
  -8  -2 -24    0.50    1.22
  -6  -2 -23    0.81    1.14
  -4  -2 -22   -0.18    1.17
  -4  -2 -21    0.21    0.99
  -4  -2  -9   69.58    1.49
  -2  -2 -18   15.33    1.59
  -2  -2 -16    4.54    1.34
  -2  -2 -15    4.46    1.32
  -2  -2 -14    4.93    1.24
   1  -1 -26   -1.06    1.82
   3  -1 -22    2.43    1.71
   3  -1 -21    4.97    1.53
   3  -1 -12   19.70    1.05
   3  -1 -11    7.99    1.11
   6   0 -25    0.30    1.65
   9   1 -24   -0.85    1.49
   9   1 -12    8.79    0.83
  -6  -2 -25   -0.04    1.28
  -6  -2 -24   -0.22    1.05
  -4  -2 -23    0.80    1.14
  -2  -2 -21   -0.90    1.56
  -2  -2 -20    2.62    1.50
  -2  -2 -19   13.09    1.48
  -2  -2 -13    8.42    1.11
  -2  -2 -12  157.78    2.36
   3  -1 -24   -0.46    1.47
   3  -1 -23    6.36    1.52
   6   0 -26   -0.93    1.71
   6   0  -9   27.45    1.09
   9   1 -25    0.52    1.45
   9   1 -11    2.15    0.67
  -4  -2 -24   -0.59    1.26
  -2  -2 -22    2.14    1.56
  -2  -2 -11   58.31    1.53
   3  -1 -25   -0.91    1.71
   3  -1 -10   53.06    1.45
   6   0 -27    1.02    1.66
   8   0 -21    1.07    1.41
   8   0 -20   14.20    1.54
   8   0 -19   14.62    1.39
   8   0 -18   15.35    1.53
   8   0 -17    0.33    1.30
   8   0 -16    0.44    1.27
   9   1 -26    0.36    1.24
  -4  -2 -25    0.02    1.11
  -2  -2 -24   -0.74    1.39
  -2  -2 -23    1.13    1.44
  -2  -2 -10    9.67    1.04
   0  -2 -19   -0.20    1.33
   0  -2 -18   -0.04    1.26
   0  -2 -17    5.68    1.25
   0  -2 -16   66.50    2.22
   0  -2 -15    6.89    1.26
   3  -1 -26    2.69    1.76
   5  -1 -21    3.25    1.39
   5  -1 -19    9.63    1.51
   5  -1 -18    2.91    1.20
   5  -1 -17    2.62    1.46
   5  -1 -16   -1.00    1.29
   8   0 -23    1.52    1.34
   8   0 -22    0.84    1.39
   8   0 -15    3.88    1.04
   0  -2 -22    0.87    1.48
   0  -2 -21    3.40    1.62
   0  -2 -20    0.44    1.38
   0  -2 -14   -0.58    1.13
   0  -2 -13    8.05    1.10
   3  -1 -27    0.65    1.58
   3  -1  -9   25.14    0.97
   5  -1 -23    4.82    1.51
   5  -1 -22   -1.15    1.40
   5  -1 -15    3.26    1.17
   5  -1 -14   16.41    1.29
   8   0 -25   -0.86    1.34
   8   0 -24    4.32    1.57
   8   0 -14    3.69    1.00
  11   1 -21    2.53    1.18
  11   1 -20    0.95    1.13
  11   1 -19    9.87    1.27
  -2  -2 -26    0.66    1.23
   0  -2 -23    8.18    1.82
   0  -2 -12   53.40    1.57
   5  -1 -24    2.36    1.50
   5  -1 -13   11.66    1.16
   8   0 -26    0.06    1.68
   8   0 -13    0.96    0.89
  11   1 -24    1.40    1.30
  11   1 -23    2.14    1.22
  11   1 -16    0.44    1.02
   2  -2 -20   19.61    1.62
   2  -2 -19    1.94    1.22
   2  -2 -18    3.47    1.13
   3  -1  -8    7.46    0.89
   5  -1 -26   -0.81    1.64
   5  -1 -12   34.48    1.33
   8   0 -27    1.87    1.46
  11   1 -26    1.62    1.32
  11   1 -25    0.44    1.14
  11   1 -15    1.05    0.98
  -2  -2  -8   34.40    1.15
   2  -2 -23    0.97    1.56
   2  -2 -22    3.70    1.64
   2  -2 -21    1.98    1.48
   2  -2 -17    0.25    1.08
   2  -2 -16   -0.54    1.42
   2  -2 -15    1.98    1.18
  11   1 -27   -0.75    1.29
  11   1 -14    0.25    0.87
  -7  -3 -16    1.29    1.00
   0  -2 -10    1.46    1.00
   2  -2 -25    2.97    1.66
   2  -2 -24    1.94    1.49
   2  -2 -14    4.60    1.16
   5  -1 -11   17.08    0.95
   7  -1 -18    3.76    1.29
   8   0 -11    5.58    0.91
  10   0 -24    1.11    1.37
  10   0 -23    8.48    1.52
  10   0 -22    1.25    1.31
  10   0 -21    0.40    1.27
  10   0 -20    2.45    1.19
  10   0 -19    0.12    1.10
  10   0 -18    0.07    1.03
  -7  -3 -13    0.21    0.91
  -5  -3 -22    0.11    0.87
  -5  -3 -21    0.31    1.02
  -5  -3 -20   -0.15    0.96
  -5  -3 -18    3.96    1.09
  -5  -3 -17    2.41    1.16
  -5  -3 -16    3.47    1.19
  -5  -3 -15    3.12    1.12
  -2  -2  -7   -0.96    0.73
   2  -2 -26   -1.56    1.61
   2  -2 -13   52.81    1.66
   3  -1  -7    9.66    0.78
  10   0 -26   -0.17    1.40
  10   0 -25    7.39    1.52
  10   0 -17   -0.73    1.17
  11   1 -13    9.94    0.81
  -5  -3 -24   -0.25    1.02
  -5  -3 -23   -0.77    1.04
  -5  -3 -14   14.71    1.23
  -3  -3 -21    0.52    1.18
  -3  -3 -20   -0.20    1.35
  -3  -3 -19    0.81    1.23
  -3  -3 -18    0.32    1.21
   2  -2 -12   10.72    1.11
   4  -2 -23   -0.10    1.50
   4  -2 -22    6.07    1.56
   4  -2 -21    6.15    1.55
   4  -2 -20    2.05    1.39
   4  -2 -19    5.10    1.41
   4  -2 -18    4.29    1.34
   8   0 -10   66.69    1.34
  10   0 -27    0.32    1.47
  10   0 -16   20.79    1.21
  10   0 -15   18.53    1.29
  -5  -3 -13   40.95    1.49
  -3  -3 -24    0.40    1.03
  -3  -3 -23   -0.83    1.05
  -3  -3 -22   -0.48    1.09
  -3  -3 -16   11.50    1.24
  -3  -3 -15    0.46    1.06
   4  -2 -26    0.34    1.52
   4  -2 -25    0.57    1.56
   4  -2 -24    6.81    1.49
   4  -2 -16    4.63    1.46
  11   1 -12    9.84    0.73
  -5  -3 -12   50.19    1.54
  -3  -3 -25    0.14    1.20
  -3  -3 -14    2.06    1.15
  -1  -3 -22   -0.23    1.41
  -1  -3 -21    4.88    1.48
  -1  -3 -20    5.91    1.39
  -1  -3 -19    0.49    1.34
  -1  -3 -18   -0.23    1.12
   2  -2 -11    4.34    0.77
   4  -2 -15    4.72    1.36
   5  -1  -9  135.34    1.82
   9  -1 -24    0.47    1.30
   9  -1 -23   -1.40    1.42
   9  -1 -22    0.11    1.31
   9  -1 -21   12.05    1.50
   9  -1 -20   -1.17    1.17
  10   0 -14   15.43    1.18
  -5  -3 -11    0.54    0.89
  -3  -3 -13    4.68    1.12
  -1  -3 -25    1.17    1.22
  -1  -3 -24    3.15    1.48
  -1  -3 -23    3.71    1.47
  -1  -3 -17    0.56    1.21
  -1  -3 -16    0.73    1.08
   4  -2 -14    2.33    1.13
   6  -2 -22    5.49    1.39
   9  -1 -27    0.81    1.29
   9  -1 -26    0.75    1.43
   9  -1 -25    0.21    1.35
   9  -1 -19   14.57    1.42
   9  -1 -18    1.44    1.08
  10   0 -13    0.13    0.86
  11   1 -11    1.62    0.64
  12   0 -23   -0.01    1.21
  -3  -3 -12    0.29    0.95
  -1  -3 -15    3.35    1.23
   1  -3 -22   -0.60    1.78
   4  -2 -13    0.04    1.10
   6  -2 -25   -0.11    1.46
   6  -2 -24   -0.89    1.39
   6  -2 -23   -0.61    1.34
   6  -2 -20   10.09    1.41
   6  -2 -19    0.78    1.29
   6  -2 -18    1.91    1.20
  12   0 -27    0.88    1.32
  12   0 -26   -0.11    1.27
  12   0 -25    0.56    1.23
  12   0 -24    0.23    1.16
  12   0 -22   -0.85    1.05
  12   0 -21    1.27    1.14
  12   0 -20   16.36    1.33
  12   0 -19    6.75    1.10
  -5  -3 -10   17.69    1.01
   1  -3 -25    1.24    1.57
   1  -3 -24    1.18    1.52
   1  -3 -23    1.91    1.42
   4  -2 -12   32.53    1.36
   5  -1  -8    8.55    0.70
   6  -2 -17   -0.91    1.14
   9  -1 -16   13.93    1.36
  10   0 -12   22.18    1.05
  -1  -3 -13   29.04    1.43
   2  -2  -9   32.18    1.20
   6  -2 -16    5.61    1.14
   9  -1 -15    4.96    1.24
  12   0 -17    0.96    1.01
  -5  -3  -9    7.59    0.82
   3  -3 -25    0.37    1.34
   3  -3 -24   -0.59    1.53
   3  -3 -23    2.58    1.53
   3  -3 -22    1.99    1.58
   3  -3 -21    2.58    1.45
   3  -3 -20    1.48    1.37
   4  -2 -11   22.46    1.21
   6  -2 -15  105.42    2.14
   8  -2 -25   -1.24    1.35
   8  -2 -24    1.06    1.51
   8  -2 -23    1.62    1.47
   8  -2 -22    1.39    1.19
   8  -2 -21    0.23    1.43
   9  -1 -14  100.70    2.01
  11  -1 -26    2.85    1.43
  11  -1 -25    0.83    1.36
  11  -1 -24    1.60    1.39
  11  -1 -22   -0.42    1.27
  12   0 -16    0.04    0.99
   2  -2  -8   96.87    1.57
   3  -3 -19    0.78    1.27
   3  -3 -18    0.69    1.25
   5  -1  -7   21.23    0.86
   6  -2 -14   20.42    1.34
   8  -2 -26    1.30    1.28
   8  -2 -20    9.01    1.50
   8  -2 -19    9.15    1.44
   9  -1 -13   17.08    1.05
  11  -1 -20    1.52    1.18
  -1  -3 -11    1.24    0.83
   3  -3 -17    0.50    1.14
   3  -3 -16   16.46    1.37
   4  -2 -10  256.42    2.64
   6  -2 -13    6.93    1.11
   8  -2 -18   10.78    1.35
  11  -1 -18   21.23    1.47
  -5  -3  -8    2.92    0.68
  -4  -4 -22   -0.05    0.96
  -4  -4 -21    1.38    1.00
  -4  -4 -20    1.79    1.23
  -4  -4 -19    1.09    1.01
  -3  -3  -9    2.55    0.81
   3  -3 -15   62.34    1.85
   5  -3 -25    0.79    1.45
   5  -3 -24    0.53    1.50
   5  -3 -23    1.67    1.55
   5  -3 -22   -1.42    1.53
   5  -3 -21    3.36    1.48
   5  -3 -20    9.51    1.46
   8  -2 -17    0.41    1.07
   8  -2 -16   -0.96    0.99
   9  -1 -12    8.36    0.94
  10   0 -10    0.43    0.70
  11  -1 -17    3.51    0.98
  12   0 -14   15.39    1.08
  -4  -4 -18   -0.49    1.13
  -4  -4 -17    1.03    1.06
  -2  -4 -23   -0.07    1.35
  -2  -4 -22    1.69    1.28
  -2  -4 -21   -0.27    1.32
   3  -3 -14    1.41    1.24
   5  -3 -18    1.24    1.19
   6  -2 -12    8.58    1.12
  11  -1 -16    2.11    1.11
  -4  -4 -16    4.42    1.06
  -3  -3  -8   56.04    1.36
  -2  -4 -19    3.38    1.31
  -2  -4 -18    6.38    1.30
   0  -4 -23    2.20    1.43
   2  -2  -7    7.78    0.79
   4  -2  -9   17.03    0.93
   5  -3 -17    0.41    1.24
   8  -2 -15    1.58    1.11
  12   0 -13   75.49    1.56
  13  -1 -26    1.91    1.34
  13  -1 -25   -0.71    1.29
  13  -1 -24   -0.04    1.29
  13  -1 -23    2.14    1.25
  13  -1 -22    4.89    1.14
  -4  -4 -15    1.74    1.03
  -2  -4 -17    9.92    1.32
  -2  -4 -16    1.39    1.20
  -1  -3  -9   15.72    0.99
   0  -4 -22    0.14    1.23
   0  -4 -20   -0.31    1.32
   3  -3 -13   21.35    1.45
   5  -3 -16    0.25    1.11
   5  -1  -6   -0.50    0.62
   7  -3 -24    0.51    1.51
   7  -3 -23    4.86    1.50
   7  -3 -22    3.34    1.53
   7  -3 -21    1.06    1.23
   8  -2 -14    1.85    1.19
   9  -1 -11    2.12    0.76
  13  -1 -21    0.57    1.20
  13  -1 -20    0.21    1.03
  -4  -4 -14    9.31    1.17
  -2  -4 -15    1.18    1.09
   0  -4 -18    1.23    1.24
   2  -4 -23    0.42    1.22
   3  -3 -12   10.06    1.21
   4  -2  -8   75.22    1.50
   5  -3 -15    1.01    1.07
   7  -3 -20    2.03    1.28
  10   0  -9   93.92    1.35
  11  -1 -14    1.53    1.03
  13  -1 -19   -0.20    1.08
  -4  -4 -13    0.86    1.03
   0  -4 -17    2.93    1.12
   0  -4 -16   22.49    1.55
   2  -4 -20    6.16    1.48
   5  -3 -14    4.62    1.32
   6  -2 -10    0.80    0.89
   7  -3 -18    1.42    1.36
   8  -2 -13    1.25    0.79
   9  -1 -10   26.99    1.09
  12  -2 -25    0.16    1.36
  12  -2 -24   -0.11    1.27
  13  -1 -18    0.03    1.06
  -3  -3  -7   11.64    0.83
  -2  -4 -14    1.31    1.04
  -1  -3  -8   14.93    1.01
   0  -4 -15    2.73    1.29
   2  -4 -19    0.57    1.23
   2  -4 -18   -0.17    1.22
   2  -2  -6   28.83    0.85
   3  -3 -11    2.63    0.99
   7  -3 -17    7.31    1.43
   8  -2 -12   19.42    1.22
   9  -3 -24    0.20    1.44
   9  -3 -23    0.71    1.43
  11  -1 -13    9.49    1.08
  12  -2 -22   -1.54    1.39
  12  -2 -21    0.09    1.42
  13  -1 -17    0.75    0.95
  -5  -3  -6    3.09    0.60
  -4  -4 -12    1.23    0.97
   2  -4 -17    0.61    1.31
   5  -3 -13    3.59    1.26
   7  -3 -16   14.21    1.40
   9  -3 -22    0.34    1.26
   9  -3 -21    7.06    1.63
  12  -2 -20   12.52    1.55
  13  -1 -16    0.01    1.06
  15  -1 -25    1.60    1.24
  15  -1 -24    0.49    1.11
  15  -1 -23    2.55    1.12
   0  -4 -14   -0.13    1.00
   2  -4 -16    0.50    1.16
   4  -2  -7   33.48    1.11
   7  -3 -15    2.76    1.21
   9  -3 -20    0.04    1.21
   9  -3 -19    8.88    1.47
   9  -1  -9   15.22    1.00
  10   0  -8  122.83    1.43
  11  -1 -12    9.26    0.96
  12  -2 -19    3.62    1.28
  15  -1 -22   -0.97    1.19
  15  -1 -21    0.59    1.14
  -4  -4 -11    1.16    0.91
  -2  -4 -12   51.91    1.70
  -1  -3  -7   61.49    1.39
   2  -4 -15    0.43    1.10
   6  -4 -23   -0.79    1.48
   6  -4 -22    2.29    1.27
   7  -3 -14    4.23    1.01
   9  -3 -18   -0.16    1.37
  12  -2 -18    1.35    1.19
  13  -1 -15   29.70    1.46
  15  -1 -20    6.29    1.06
  -3  -3  -6   61.60    1.22
   2  -4 -14    1.01    1.13
   2  -2  -5  396.32    2.47
   5  -3 -11    7.17    1.11
   6  -4 -21    0.10    1.52
   9  -3 -17    1.77    1.38
  11  -3 -23    0.18    1.32
  11  -3 -22    0.12    1.27
  12  -2 -17    1.03    1.15
  14  -2 -24   -0.78    1.33
  14  -2 -23    0.42    1.27
  15  -1 -19    2.53    1.03
  -4  -4 -10    0.74    0.83
  -1  -5 -21    2.20    1.27
   3  -3  -9    6.71    0.96
   6  -4 -19   -0.51    1.44
   6  -2  -8   46.02    1.29
   7  -3 -13    2.49    1.31
   8  -2 -10   50.48    1.41
   9  -3 -16    6.09    1.33
  11  -3 -21    1.83    1.45
  12  -2 -16    0.26    1.13
  13  -1 -14   -0.33    0.99
  14  -2 -22    0.67    1.28
  14  -2 -21   -0.83    1.09
  -5  -3  -5    1.33    0.54
  -1  -5 -20   -0.54    1.23
  -1  -5 -19   -0.88    1.16
   2  -4 -13   16.09    1.27
   4  -2  -6    5.76    0.82
   6  -4 -18    0.10    1.18
   8  -4 -22    0.04    1.47
   9  -3 -15    2.36    1.14
   9  -1  -8    2.18    0.76
  11  -3 -19    4.54    1.27
  12  -2 -15    4.07    1.18
  14  -2 -20    1.17    1.26
  -1  -5 -18   -1.57    1.33
  -1  -3  -6   83.93    1.45
   1  -5 -21    1.37    1.39
   1  -5 -20   -0.78    1.15
   1  -3  -7   58.39    1.45
   2  -4 -12    3.63    1.17
   5  -3 -10    4.62    0.97
   6  -4 -17   -0.25    1.23
   7  -3 -12   -0.57    1.27
   8  -4 -21   -1.35    1.28
   8  -4 -20    5.01    1.39
  10   0  -7   78.19    1.16
  11  -3 -18   10.54    1.44
  13  -1 -13    1.37    0.95
  14  -2 -19    0.92    1.20
  15  -1 -17    1.57    0.91
  -3  -3  -5    2.55    0.69
  -1  -5 -17    0.27    1.16
   3  -3  -8    4.48    0.87
   6  -4 -16    1.40    1.24
   8  -4 -19    3.36    1.59
   8  -2  -9   17.28    1.05
  11  -3 -17    1.24    1.26
  12  -2 -14   11.50    1.18
  12   0  -9   18.25    0.83
  13  -3 -23    1.41    1.37
  13  -3 -22    1.46    1.42
  14  -2 -18   11.57    1.37
  15  -1 -16   -0.08    0.92
  -2  -4  -9    4.25    0.98
  -1  -5 -16    1.11    1.12
   0  -4 -10   -0.16    0.99
   1  -5 -18   10.58    1.46
   2  -4 -11    0.30    1.22
   3  -5 -21    1.73    1.19
   3  -5 -20   -0.98    1.39
   5  -3  -9   59.67    1.58
   6  -4 -15   35.76    1.84
   7  -3 -11   27.13    1.41
   8  -4 -18    6.71    1.47
   9  -3 -13   10.27    1.15
  10  -4 -22   -0.03    1.33
  11  -3 -16    0.26    1.14
  13  -3 -21   -0.32    1.48
  13  -1 -12   10.24    1.06
  14  -2 -17    8.02    1.21
  -4  -4  -8   15.70    0.99
  -1  -5 -15    0.05    1.19
   1  -5 -17   -0.03    1.06
   2  -2  -4  246.62    1.92
   3  -5 -19    1.27    1.46
   6  -4 -14    8.62    1.31
   8  -4 -17    0.67    1.24
   9  -1  -7   66.30    1.25
  10  -4 -21    2.37    1.39
  12  -2 -13   58.46    1.76
  13  -3 -20    1.75    1.38
  15  -1 -15    0.60    0.91
  16  -2 -22    1.47    1.19
  16  -2 -21    2.24    1.20
  -1  -5 -14    1.41    1.07
  -1  -3  -5  234.05    2.12
   0  -4  -9    2.76    0.98
   1  -5 -16    2.60    1.13
   2  -4 -10    7.62    1.16
   3  -5 -17    0.12    1.39
   3  -3  -7    2.97    0.88
   4  -2  -5   44.21    0.98
   5  -5 -20    2.26    1.41
   7  -3 -10   68.21    1.80
   8  -2  -8   22.35    1.14
   9  -3 -12    3.46    1.22
  10  -4 -20   -0.32    1.28
  10  -4 -19    1.11    1.30
  11  -3 -15    0.73    1.16
  13  -3 -19    0.18    1.21
  14  -2 -16   -0.03    1.08
  -2  -4  -8    7.95    0.96
   1  -5 -15    1.23    1.23
   3  -5 -16    5.26    1.41
   5  -3  -8    4.57    0.97
   6  -4 -13    3.23    1.15
   6  -2  -6   28.42    1.08
   8  -4 -15    0.07    1.27
  11  -3 -14    0.83    1.03
  13  -3 -18    0.32    1.19
  13  -1 -11    1.11    0.82
  15  -1 -14    3.27    0.95
  16  -2 -19   -0.13    1.19
  -1  -5 -13    9.28    1.15
   1  -5 -14    1.39    1.13
   5  -5 -18    1.44    1.29
   9  -3 -11    1.89    1.08
  10  -4 -17   -0.57    1.26
  12  -4 -21    0.01    1.24
  12   0  -8   50.55    1.02
  13  -3 -17   -0.74    1.19
  15  -3 -22    1.08    1.27
  -3  -3  -4   11.38    0.75
   0  -4  -8    1.04    0.96
   2  -4  -9    8.57    1.14
   3  -3  -6   95.74    1.64
   5  -5 -17    2.48    1.16
   6  -4 -12    1.96    0.82
   7  -5 -20    0.23    1.22
   7  -5 -19    0.98    1.18
   7  -3  -9   66.03    1.66
  11  -3 -13    5.71    1.16
  11  -1  -8   16.58    0.90
  12  -4 -20    4.55    1.54
  12  -2 -11    5.37    1.04
  13  -3 -16    0.05    1.17
  14  -2 -14    4.28    1.05
  15  -3 -20    4.88    1.23
  16  -2 -18    1.38    1.05
  -2  -4  -7    0.02    0.78
  -1  -5 -12   -0.46    0.97
   1  -3  -5    3.26    0.81
   3  -5 -14    0.21    1.22
   5  -5 -16   -0.95    1.41
   5  -3  -7    5.33    0.92
   6  -4 -11    4.55    1.07
   8  -4 -13    1.48    1.22
   9  -1  -6   13.06    0.80
  10  -4 -16    4.03    1.28
  12  -4 -19    0.61    1.40
  13  -1 -10   10.64    0.97
  15  -3 -19    1.75    1.33
  16  -2 -17    0.83    1.14
   1  -5 -12    0.61    1.11
   2  -4  -8   24.72    1.21
   5  -5 -15   -0.38    1.36
   7  -5 -17    3.29    1.46
   7  -3  -8   41.60    1.41
   9  -3 -10   11.58    1.27
  10  -4 -15    7.15    1.37
  11  -3 -12    5.78    1.13
  12  -4 -18   -0.50    1.39
  13  -3 -15   13.50    1.37
  14  -2 -13    3.20    0.96
  15  -3 -18    0.62    1.15
  16  -2 -16   -0.59    1.07
  -1  -5 -11    0.69    0.95
   0  -4  -7   41.62    1.38
   3  -5 -13    4.17    1.16
   5  -5 -14    0.99    1.30
   6  -2  -5  108.04    1.54
   8  -4 -12    6.39    1.22
  10  -4 -14    4.67    1.32
  12  -4 -17    0.27    1.43
  12  -2 -10   -0.11    0.99
  13  -3 -14   -0.63    1.14
   1  -5 -11   31.83    1.53
   3  -5 -12    0.90    1.23
   3  -3  -5   24.91    1.07
   6  -4 -10   -0.15    0.99
   7  -5 -15    0.46    1.45
   8  -2  -6   12.30    0.97
   9  -5 -18   -0.58    1.42
   9  -3  -9    7.07    1.12
  11  -3 -11    0.64    0.97
  11  -1  -7   21.06    0.92
  12  -4 -16    1.15    1.13
  12   0  -7   36.37    0.94
  13  -1  -9    1.09    0.75
  14  -2 -12   -0.81    1.01
  15  -3 -17    1.43    1.14
  16  -2 -15    3.87    1.00
  17  -3 -21   -1.80    1.35
  18  -2 -19    4.22    1.16
  -2  -4  -6   17.44    1.02
  -1  -5 -10    3.48    1.06
   1  -3  -4    6.95    0.78
   2  -6 -18    0.42    1.14
   2  -6 -17   -0.28    1.27
   2  -4  -7    0.28    0.85
   5  -3  -6    0.58    0.78
   9  -5 -17    0.69    1.39
  10  -4 -13   -0.35    1.25
  13  -3 -13   -0.12    1.12
  15  -3 -16    0.55    1.22
  15  -1 -11    1.50    0.86
  17  -3 -20    0.94    1.28
  18  -2 -18    1.16    1.11
  -3  -3  -3    0.91    0.63
   0  -4  -6    0.30    0.72
   1  -5 -10   12.62    1.23
   5  -5 -12    4.33    1.20
   6  -4  -9    4.75    1.30
   7  -3  -7    6.84    0.80
   9  -5 -16    2.27    1.45
   9  -1  -5  150.10    1.61
  11  -3 -10   13.33    1.22
  12  -4 -15    1.39    1.20
  17  -3 -19    1.16    1.23
  -1  -5  -9    3.38    1.05
   2  -6 -16   -0.22    1.05
   4  -6 -17    1.76    1.43
   7  -5 -13    0.68    1.18
   8  -4 -10   16.07    1.27
   9  -5 -15    1.18    1.36
   9  -3  -8    0.75    1.02
  10  -4 -12    4.12    1.19
  11  -5 -18    2.20    1.58
  12  -4 -14    5.19    1.32
  13  -3 -12    4.82    1.14
  17  -3 -18    0.68    1.21
  18  -2 -17    0.63    1.11
  -1  -3  -3    7.77    0.78
   0  -6 -14    0.15    1.17
   1  -5  -9    2.33    1.10
   2  -6 -15   -0.49    1.19
   3  -5 -10    3.77    1.13
   4  -6 -16   -1.69    1.33
   4  -2  -3   -0.10    0.47
   5  -5 -11    3.60    1.24
   5  -3  -5   51.74    1.40
   6  -2  -4  155.43    1.67
  11  -5 -17    0.57    1.38
  13  -1  -8   42.44    1.19
  16  -2 -13    0.29    0.99
  17  -3 -17    7.87    1.38
  18  -2 -16    0.37    0.99
  -2  -4  -5   22.70    1.00
   2  -6 -14    0.16    1.21
   4  -6 -15    0.28    1.13
   6  -6 -17    0.24    1.32
   7  -5 -12   -1.00    1.38
   7  -3  -6   20.05    1.17
   8  -4  -9    4.72    1.10
   8  -2  -5    4.82    0.65
   9  -5 -14   12.48    1.55
  10  -4 -11    5.57    1.18
  11  -5 -16   -0.45    1.41
  11  -1  -6   16.89    0.85
  12  -2  -8   28.06    1.17
  13  -3 -11    0.63    1.05
  14  -2 -10    3.83    0.99
  15  -1 -10   10.45    0.96
  -1  -5  -8    4.20    1.07
   0  -6 -13    0.30    1.16
   0  -4  -5   30.24    1.15
   1  -3  -3    1.13    0.67
   3  -5  -9    1.91    1.01
   6  -6 -16   -0.71    1.39
   9  -5 -13    2.80    1.45
   9  -3  -7   26.22    1.32
  11  -5 -15    0.84    1.14
  15  -3 -13    9.86    1.28
  16  -4 -18    1.09    1.34
  16  -2 -12    2.28    0.93
  17  -3 -16    0.07    1.22
  18  -2 -15    0.23    0.98
   0  -6 -12    3.13    1.11
   1  -5  -8    1.55    1.08
   2  -6 -13    2.61    1.28
   4  -6 -14    0.09    1.19
   6  -6 -15    5.53    1.54
   7  -5 -11    4.88    1.40
  10  -4 -10   -0.16    1.04
  12  -4 -12    1.87    1.20
  13  -5 -17    0.11    1.47
  13  -3 -10    4.87    1.07
  16  -4 -17    0.23    1.40
  17  -3 -15    2.43    1.23
  19  -3 -19    0.24    1.22
   2  -6 -12    0.45    1.22
   2  -4  -5  131.12    2.02
   4  -6 -13   -0.31    1.33
   5  -5  -9   13.32    1.27
   5  -3  -4  208.81    2.28
   6  -6 -14    2.75    1.46
   8  -6 -16   -0.49    1.44
   8  -4  -8    5.67    1.10
   9  -5 -12    2.77    1.26
   9  -1  -4    0.84    0.70
  11  -5 -14    1.68    1.42
  11  -3  -8    6.86    1.15
  12  -4 -11    1.54    1.16
  12  -2  -7   19.11    0.98
  13  -5 -16   -0.29    1.25
  13  -1  -7  102.69    1.61
  14  -2  -9    6.78    1.01
  15  -3 -12   22.07    1.38
  16  -4 -16   -0.39    1.33
  18  -2 -14    0.04    0.99
  19  -3 -18    0.96    1.14
  -1  -5  -7   13.70    1.13
   0  -6 -11    1.72    1.10
   3  -5  -8   -0.30    1.01
   3  -3  -3   40.80    1.17
   6  -2  -3   15.28    0.86
   7  -5 -10   17.45    1.51
   8  -2  -4   49.60    1.26
   9  -3  -6    3.71    1.01
  10  -4  -9   21.51    1.43
  11  -5 -13    1.48    1.46
  16  -2 -11    4.05    0.99
   1  -5  -7   13.28    1.29
   2  -6 -11    0.70    1.16
   4  -6 -12    1.53    1.32
   4  -2  -2   39.43    0.96
   6  -6 -13    0.19    1.47
   6  -4  -6    7.90    1.14
   8  -4  -7    0.13    1.14
   9  -5 -11   -0.14    1.16
  11  -1  -5    1.00    0.74
  12  -4 -10    0.48    1.06
  13  -5 -15    2.08    1.32
  13  -3  -9    1.02    0.99
  16  -4 -15    0.84    1.36
  18  -2 -13    1.96    0.99
   0  -6 -10   -0.41    1.12
   3  -5  -7    0.56    1.00
   4  -6 -11    2.09    1.09
   5  -5  -8    0.30    1.12
   7  -5  -9   18.78    1.53
   9  -5 -10   -0.61    1.44
  10  -4  -8   31.76    1.59
  11  -3  -7    9.75    1.16
  13  -5 -14   -0.19    1.36
  14  -2  -8    6.29    0.94
  16  -4 -14    2.57    1.19
  16  -2 -10    1.14    0.92
  17  -3 -13   -0.03    1.15
  19  -3 -16   -1.21    1.10
  -1  -5  -6   23.22    1.29
   1  -3  -2   93.94    1.44
   2  -6 -10    2.29    1.18
   7  -3  -4    0.41    0.88
  12  -2  -6    1.10    0.80
  13  -1  -6   12.52    0.98
  15  -3 -10    5.47    1.10
  15  -1  -8    1.34    0.81
  18  -2 -12   20.04    1.22
   0  -6  -9    0.65    1.06
   1  -5  -6    7.07    1.14
   4  -6 -10   17.99    1.59
   5  -5  -7    0.38    1.08
   5  -3  -3   96.05    1.69
   6  -6 -11    0.80    1.37
   6  -4  -5   29.60    1.47
   7  -5  -8   12.80    1.40
   8  -4  -6    3.89    1.26
   9  -3  -5   58.65    1.51
  10  -6 -14    1.85    1.41
  12  -4  -9    2.47    1.15
  13  -5 -13   -0.05    1.21
  15  -5 -15    0.52    1.41
  16  -4 -13    0.52    1.26
  17  -3 -12    0.23    1.13
  18  -4 -16    1.56    1.31
  19  -3 -15    0.59    0.94
  -4  -4  -3    1.85    0.57
  -2  -4  -3   29.83    1.01
   2  -6  -9    0.06    1.22
   3  -5  -6   17.40    1.36
   3  -3  -2   21.79    0.98
   8  -2  -3  395.38    2.78
   9  -5  -9    1.94    1.21
   9  -1  -3   38.50    1.04
  10  -6 -13   -0.04    1.23
  10  -4  -7   16.70    1.32
  11  -5 -10    5.64    1.22
  11  -3  -6    7.95    1.07
  13  -5 -12    0.13    1.45
  14  -2  -7   22.33    1.24
  15  -5 -14    0.18    1.41
  16  -2  -9    1.06    0.96
  18  -4 -15    0.37    1.27
  19  -3 -14    1.45    1.01
  -1  -5  -5   50.61    1.49
   0  -6  -8    0.44    1.03
   4  -6  -9    1.49    1.35
   6  -6 -10   -0.56    1.32
   6  -2  -2    1.01    0.55
   7  -5  -7    1.32    1.12
  11  -1  -4    0.35    0.69
  12  -4  -8    8.40    1.29
  13  -3  -7   52.66    1.64
  15  -3  -9    5.34    1.08
  16  -4 -12    1.59    1.30
  17  -3 -11   -0.73    1.11
  18  -2 -11    7.57    0.98
   1  -5  -5    0.30    1.03
   2  -6  -8    3.72    1.11
   2  -4  -3    0.20    0.88
   5  -5  -6    1.67    1.05
   6  -4  -4   41.79    1.44
   8  -4  -5    1.72    1.22
   9  -5  -8    0.47    1.17
   9  -3  -4   -0.37    0.94
  10  -6 -12    1.68    1.46
  11  -5  -9    0.69    1.20
  12  -2  -5    3.29    0.86
  13  -5 -11    0.48    1.44
  15  -5 -13    2.64    1.32
  15  -1  -7    1.40    0.75
  18  -4 -14    0.98    1.23
  19  -3 -13    2.01    1.18
  -1  -3  -1    0.86    0.69
   3  -7 -12   -0.85    1.24
   3  -5  -5    5.06    1.13
   4  -6  -8    3.13    1.17
   4  -2  -1   50.17    0.95
   5  -3  -2   32.35    1.23
   6  -6  -9    0.66    1.40
  10  -6 -11    0.77    1.30
  10  -4  -6    0.34    0.70
  11  -3  -5   -0.28    1.05
  12  -4  -7    6.02    1.13
  13  -1  -5    1.11    0.62
  15  -3  -8    1.39    0.97
  16  -2  -8   -0.38    1.00
  17  -3 -10    3.46    1.08
  18  -4 -13    0.91    1.08
  18  -2 -10    6.94    1.03
  -1  -5  -4    0.91    0.97
   0  -6  -7    5.17    1.08
   1  -3  -1    0.54    0.70
   5  -7 -12    0.08    1.35
   5  -5  -5   15.38    1.37
   7  -5  -6    2.73    1.18
   9  -5  -7    3.75    1.41
  12  -6 -12    2.59    1.26
  13  -3  -6    4.76    1.12
  14  -2  -6   -0.79    1.01
  15  -5 -12    8.57    1.37
  19  -3 -12    1.14    1.12
  -4  -4  -2    0.37    0.60
  -2  -4  -2   19.81    0.93
   0  -4  -2    0.95    0.81
   1  -5  -4    1.70    0.99
   3  -7 -11    0.41    1.20
   6  -6  -8    1.78    1.32
   8  -4  -4   17.64    1.50
   8  -2  -2   14.92    1.01
  10  -6 -10   -2.58    1.50
  10  -4  -5   -0.52    0.97
  11  -5  -8    2.03    1.23
  15  -5 -11   -0.36    1.32
  16  -4 -10   -0.74    1.14
  18  -4 -12    7.84    1.38
   0  -6  -6   -0.36    0.99
   2  -4  -2    4.98    0.85
   3  -7 -10    0.80    1.13
   3  -5  -4    5.66    1.24
   3  -3  -1   46.53    1.22
   5  -7 -11    0.06    1.37
   6  -4  -3    3.21    1.16
   6  -2  -1    1.31    0.74
   7  -3  -2   10.88    0.93
   9  -5  -6    1.02    1.17
   9  -3  -3   15.30    1.13
  12  -6 -11    0.56    1.37
  12  -4  -6    0.21    1.09
  12  -2  -4   28.10    1.19
  15  -3  -7    1.41    1.03
  15  -1  -6    7.63    0.78
  16  -2  -7   38.15    1.45
  17  -3  -9    1.56    0.88
  18  -2  -9   -0.23    0.91
  19  -3 -11    1.80    1.14
   2  -6  -6    1.62    1.13
   5  -7 -10   -0.29    1.35
   5  -5  -4   54.68    1.69
   6  -6  -7   -0.40    1.35
   9  -1  -2    5.56    0.75
  10  -6  -9    3.91    1.49
  11  -5  -7    2.05    1.34
  11  -1  -3  107.69    1.48
  13  -3  -5   -0.88    1.12
  14  -2  -5    1.84    0.93
  15  -5 -10    1.03    1.44
  17  -5 -12   -0.38    1.27
  18  -4 -11    1.87    1.31
  -1  -5  -3    1.17    0.92
   1  -5  -3    0.70    1.00
   3  -7  -9   -0.11    1.21
   4  -6  -6   -0.64    1.18
   5  -3  -1    2.72    0.91
   8  -4  -3  123.19    2.33
  10  -4  -4   -0.33    1.03
  12  -6 -10   -0.52    1.28
  13  -5  -8    7.43    1.36
  13  -1  -4    5.36    0.74
  17  -3  -8    4.30    1.18
  19  -3 -10    0.24    0.96
  20  -4 -13    0.10    1.24
  -1  -3   0    1.86    0.88
   0  -6  -5    4.44    1.01
   0  -4  -1    3.94    0.96
   2  -6  -5   25.51    1.54
   3  -5  -3    9.04    1.25
   4  -2   0    0.24    0.64
   5  -7  -9    1.09    1.30
   6  -4  -2    0.45    0.94
   7  -7 -10    1.24    1.42
   7  -5  -4    0.94    1.03
   9  -5  -5   15.36    1.43
  10  -6  -8    7.74    1.57
  12  -6  -9    1.72    1.26
  12  -4  -5    1.03    1.10
  15  -5  -9    1.36    1.37
  15  -3  -6    3.20    1.00
  16  -4  -8   -0.73    1.14
  16  -2  -6   28.19    1.39
  17  -5 -11   -0.37    1.31
  18  -4 -10    3.50    1.23
  18  -2  -8    1.57    0.93
  -2  -4  -1    8.56    0.80
   1  -3   0    2.52    0.77
   2  -4  -1    1.50    0.89
   3  -7  -8   -0.06    1.01
   4  -6  -5    1.00    1.04
   5  -5  -3   20.32    1.32
   7  -7  -9    1.92    1.53
   8  -2  -1   19.81    0.94
   9  -3  -2    1.81    0.95
  11  -3  -3   53.02    1.61
  12  -2  -3    3.14    0.88
  15  -1  -5    3.40    0.71
  20  -4 -12   -0.76    1.11
  -4  -4  -1    2.77    0.68
   3  -3   0  174.52    2.03
   5  -7  -8    1.70    1.27
   9  -5  -4   -0.58    1.11
  10  -4  -3    2.56    0.99
  11  -5  -5   -0.65    1.17
  14  -2  -4   -0.02    0.93
  16  -4  -7   14.23    1.41
  17  -5 -10    0.32    1.14
  17  -3  -7   -0.42    1.07
  18  -4  -9    1.46    1.14
  19  -3  -9    0.79    0.94
  20  -4 -11    0.27    1.18
  -1  -5  -2   -0.50    0.88
   0  -6  -4   -0.26    1.04
   1  -5  -2   16.04    1.23
   2  -6  -4   10.68    1.29
   3  -7  -7    1.03    1.01
   3  -5  -2    3.02    1.18
   6  -6  -5    5.05    1.22
   6  -2   0   16.85    0.98
   7  -7  -8    1.29    1.51
   8  -4  -2    6.24    1.32
  13  -5  -6    1.29    1.36
  14  -6  -9    0.25    1.57
  15  -3  -5    0.92    0.95
  17  -5  -9    0.47    1.33
  18  -2  -7    0.02    0.96
   4  -6  -4   -1.18    1.16
   5  -7  -7   -0.55    1.23
   5  -5  -2    5.54    1.04
   5  -3   0    2.41    0.92
   6  -4  -1    1.12    1.07
   9  -1  -1    6.03    0.80
  10  -6  -6    2.15    1.43
  11  -3  -2  143.55    2.27
  11  -1  -2  317.26    2.39
  12  -6  -7    1.59    1.40
  13  -1  -3    5.74    0.81
  16  -2  -5    6.80    1.04
  17  -3  -6    6.63    1.13
  18  -4  -8   -0.23    1.25
  19  -3  -8    0.60    1.14
  20  -4 -10   -0.24    1.05
   0  -4   0  331.70    2.99
   2  -4   0    0.47    0.83
   6  -6  -4    6.55    1.43
   7  -7  -7    1.06    1.42
   9  -3  -1    2.57    0.97
  10  -4  -2    4.06    1.01
  11  -5  -4   -0.46    1.34
  12  -4  -3    1.60    1.04
  12  -2  -2    4.14    0.84
  13  -5  -5   -0.36    1.20
  13  -3  -3    3.15    1.22
  14  -6  -8   -0.19    1.52
  16  -4  -6   11.27    1.27
  17  -5  -8    0.70    1.23
   0  -6  -3    1.21    1.02
   1  -5  -1    0.09    0.98
   2  -6  -3    0.17    1.14
   4  -6  -3    1.57    1.25
   5  -7  -6    0.53    1.29
   7  -5  -2    3.01    1.17
  10  -6  -5    0.80    1.38
  12  -6  -6   -0.65    1.38
  14  -2  -3    3.36    0.93
  15  -5  -6    0.26    1.46
  15  -3  -4    4.39    0.97
  15  -1  -4    7.22    0.75
  18  -4  -7    0.47    1.23
  18  -2  -6    0.86    0.93
  19  -3  -7    0.65    1.21
  20  -4  -9   -0.07    1.04
  -1  -5  -1    0.43    0.90
  -1  -3   1    0.51    0.85
   1  -3   1    0.83    0.87
   3  -5  -1    8.91    1.33
   3  -3   1  363.67    2.92
   4  -2   1    5.92    0.83
   6  -6  -3    0.97    1.33
   7  -7  -6    0.36    1.36
   8  -2   0   12.37    1.11
  11  -5  -3   15.84    1.45
  14  -6  -7    1.53    1.52
  16  -4  -5    1.65    1.33
  16  -2  -4    3.88    1.01
  17  -5  -7    0.49    1.25
  17  -3  -5    0.99    1.17
   3  -7  -5    0.02    1.26
   5  -7  -5    4.25    1.34
   6  -4   0    2.15    1.17
   9  -5  -2    0.59    1.24
  10  -6  -4   -0.30    1.52
  11  -3  -1    1.73    1.14
  12  -6  -5    0.28    1.43
  13  -5  -4    1.34    1.18
  13  -3  -2    0.15    1.19
  15  -5  -5    0.09    1.21
  -8  -4  -7    0.14    0.57
  -2  -4 -22    0.76    1.44
  -2  -4 -21   -0.11    1.41
  -2  -4 -20    1.02    1.16
   0  -2  -5  126.05    1.43
   1  -3 -12    1.25    0.97
   2  -2  -8   97.07    1.54
   7  -1 -27   -0.35    1.15
   8   0 -14    3.48    0.66
  -7  -3  -2    3.39    0.54
  -4  -4 -11    0.04    0.86
   3  -3 -25   -0.79    1.41
   3  -3 -24   -0.33    1.37
   3  -3 -23    4.21    1.42
   3  -3 -22    0.73    1.49
   3  -3 -20    1.05    1.31
   3  -3 -19    2.07    1.29
   3  -3 -18   -0.25    1.21
   4  -2 -12   31.01    1.22
   6  -2 -24   -0.25    1.19
   6  -2 -23   -0.36    1.28
   6  -2 -22    4.75    1.28
   6  -2 -21    1.54    1.19
   6  -2 -20    8.38    1.27
   6  -2 -19    0.92    1.16
   7  -1 -15    6.37    0.87
  -4  -4 -10    1.30    0.99
  -3  -3  -5    2.00    0.86
  -2  -4 -14    0.87    1.05
  -2  -4 -13    2.21    1.01
   1  -3 -11  130.46    2.19
   3  -3 -17    0.34    1.02
   3  -3 -16   14.01    1.36
   4  -2 -11   22.51    1.08
   6  -2 -27    0.92    1.37
   6  -2 -26    1.13    1.24
   6  -2 -25    0.89    1.30
   6  -2 -18    1.97    1.02
   6  -2 -17   -0.22    0.99
   8   0 -13    2.29    0.60
  -7  -5 -18   -0.22    1.02
  -7  -5 -17    0.25    0.96
  -7  -5 -16    0.14    0.92
  -6  -4  -7   22.45    1.13
  -4  -4  -9   22.10    1.30
  -2  -4 -12   52.39    1.72
   0  -4 -23    2.44    1.51
   0  -4 -22   -0.08    1.26
   0  -4 -21    0.46    1.24
   0  -4 -20   -0.64    1.29
   0  -4 -19   -0.35    1.39
   0  -4 -18    2.31    1.24
   0  -4 -17    2.93    1.18
   1  -3 -10   36.40    1.34
   7  -1 -13    2.45    0.69
  -7  -5 -14    0.45    0.87
  -5  -5 -19   -0.01    1.08
   3  -3 -14    1.29    1.30
   4  -2 -10  254.48    2.46
   8   0 -12   29.35    0.83
   9  -1 -24    0.93    0.99
   9  -1 -22    0.33    1.01
  -7  -5 -13    0.49    0.82
  -5  -5 -18   -0.05    0.99
  -5  -5 -17   -0.22    1.03
  -5  -5 -16   -0.45    1.00
  -4  -4  -8   15.51    1.13
  -2  -4 -11   22.75    1.33
   0  -4 -14   -0.56    1.01
   1  -3  -9    9.88    0.97
   3  -3 -13   19.66    1.48
   5  -3 -25    1.64    1.18
   5  -3 -21    3.21    1.30
   5  -3 -20   12.87    1.25
   7  -1 -12    0.50    0.71
   9  -1 -21   12.49    1.11
   9  -1 -20    0.44    0.93
  -7  -5 -12    0.21    0.81
  -6  -4  -6   -0.25    0.79
  -5  -5 -15    0.22    0.88
  -3  -3  -4   11.70    0.79
  -2  -4 -10    4.82    1.10
  -1  -3  -6   85.88    1.57
   2  -4 -23    0.91    1.51
   2  -4 -22    1.91    1.38
   2  -4 -21    2.47    1.31
   2  -4 -19    0.53    1.28
   4  -2  -9   17.53    1.00
   5  -3 -19    3.84    1.25
   5  -3 -18    0.51    1.18
   8  -2 -24    2.00    1.27
   8  -2 -23   -0.98    1.18
   9  -1 -18    2.28    0.98
  -7  -5 -11   -0.11    0.69
  -5  -5 -14    0.00    0.90
  -4  -4  -7   50.42    1.42
  -3  -5 -20    1.09    0.93
  -3  -5 -19    0.23    1.07
  -3  -5 -18    0.40    1.01
  -3  -5 -17    0.50    0.85
   2  -4 -18   -0.33    1.21
   2  -4 -17    0.36    1.25
   2  -2  -6   28.08    0.82
   5  -3 -17    0.81    1.06
   5  -3 -16    1.04    0.96
   8  -2 -27    2.01    1.25
   8  -2 -26   -1.27    1.18
   8  -2 -25    0.08    0.98
   8  -2 -22    1.01    1.06
   8  -2 -21    0.07    1.07
   8  -2 -20    8.43    1.22
   8   0 -11    4.48    0.63
   9  -1 -17    3.45    0.97
  -6  -4  -5    7.66    0.90
  -5  -3  -2   24.35    0.79
  -3  -5 -16    0.03    0.96
  -2  -4  -9    4.12    1.06
   2  -4 -16   -0.32    1.22
   3  -3 -11    1.12    0.99
   5  -3 -15    0.96    0.90
   7  -1 -11   62.52    1.24
   8  -2 -19   11.11    1.12
   8  -2 -18   11.12    1.09
   9  -1 -16   14.99    1.06
  -3  -5 -15   -0.19    0.81
  -3  -5 -14   -0.35    0.80
  -1  -5 -20   -0.26    1.14
  -1  -5 -19    0.04    0.97
  -1  -3  -5  239.85    2.19
   2  -4 -15    0.39    1.06
   4  -4 -23   -0.22    1.37
   4  -2  -8   77.55    1.42
   5  -3 -14    6.18    1.06
   5  -1  -7   20.56    0.72
   7  -3 -24    0.78    1.33
   8  -2 -17    0.09    0.86
   9  -1 -15    5.62    0.96
  -4  -4  -6   48.06    1.37
  -3  -5 -13    0.18    0.72
  -3  -3  -3    1.97    0.61
  -2  -4  -8    8.59    1.03
  -1  -5 -18   -0.39    1.00
  -1  -5 -17   -0.07    1.16
   1  -3  -7   59.30    1.35
   2  -4 -14    1.16    1.00
   3  -3 -10   19.08    0.94
   4  -4 -22    2.56    1.17
   4  -4 -21    2.83    1.22
   4  -4 -20    1.27    1.34
   4  -4 -19    1.15    1.19
   6  -2 -11   16.95    0.97
   7  -3 -25    1.25    1.16
   7  -3 -22    2.04    1.20
   7  -3 -21   -0.43    1.27
   7  -1 -10  161.66    1.74
  -3  -5 -12    0.21    0.92
  -1  -5 -16    1.34    1.27
   2  -2  -5  386.52    2.34
   4  -4 -18    2.36    1.23
   5  -3 -13    2.86    1.15
   8  -2 -15    1.33    0.99
  -6  -4  -4   -0.03    0.61
  -2  -4  -7    0.19    0.84
  -1  -5 -15   -0.15    1.09
  -1  -5 -14    1.34    1.13
   0  -4  -9    1.61    0.99
   1  -5 -20    0.29    1.26
   1  -5 -19    0.28    1.13
   2  -4 -12    4.11    1.11
   3  -3  -9    6.21    0.88
   4  -4 -16    1.65    1.22
   4  -2  -7   31.59    0.98
   5  -3 -12   17.71    1.21
   6  -2 -10   -0.06    0.71
  10  -2 -26   -0.34    1.07
  10  -2 -24    0.58    1.04
  10  -2 -23    6.93    1.19
  10  -2 -22   -0.52    1.09
  10   0 -14   16.02    0.80
  -4  -4  -5   20.17    0.99
  -3  -5 -11    7.29    1.11
  -1  -5 -13    9.70    1.33
  -1  -3  -4    0.08    0.68
   1  -3  -6   48.83    1.25
   4  -4 -15    2.98    1.19
   6  -4 -23   -0.34    1.21
   6  -4 -22    2.46    1.34
   7  -3 -16   11.65    1.24
   7  -1  -9  122.89    1.50
  10  -2 -21    1.38    1.05
  10  -2 -20    0.50    0.90
  11  -1 -19    8.82    1.10
   0  -4  -8    1.12    0.86
   2  -4 -11    0.45    0.94
   3  -3  -8    3.56    0.86
   4  -4 -14    0.45    1.05
   5  -3 -11    6.22    1.05
   6  -4 -21   -0.29    1.35
   6  -4 -20    2.51    1.37
   7  -3 -15    2.85    1.00
   8  -2 -13    1.67    0.86
   9  -3 -25   -0.60    1.28
   9  -3 -23    0.22    1.07
  10  -2 -19   -0.59    0.96
  10   0 -13    0.15    0.63
  11  -1 -18   20.72    1.23
  -6  -4  -3    1.59    0.68
  -5  -5  -8    1.00    0.86
  -3  -3  -2    2.59    0.75
  -2  -4  -6   17.27    0.94
  -1  -5 -12   -0.19    1.07
   2  -4 -10    8.03    1.24
   2  -2  -4  240.59    1.77
   3  -5 -20    0.01    1.37
   4  -4 -13   -1.04    0.94
   6  -4 -19    1.06    1.12
   6  -4 -18   -1.27    1.18
   6  -2  -9   20.83    0.99
   7  -3 -14    4.09    0.92
   9  -3 -22    0.41    1.03
   9  -3 -21    7.77    1.34
   9  -3 -20    1.62    1.15
   9  -1 -12    7.66    0.79
  10  -2 -18    0.41    0.92
  -4  -6 -16    0.52    0.95
  -4  -6 -15    0.37    0.88
  -4  -4  -4   16.57    0.86
  -3  -5  -9    0.11    0.92
   1  -3  -5    2.48    0.74
   3  -5 -18    1.29    1.37
   4  -2  -6    6.29    0.70
   5  -3 -10    4.03    0.93
   6  -4 -17    0.41    1.20
   8  -2 -12   19.38    1.05
   9  -3 -19    8.38    1.19
  10  -2 -17   -0.61    0.88
  -5  -5  -7    2.19    0.90
  -4  -6 -14    0.01    0.83
  -2  -6 -17   -0.06    1.01
   0  -4  -7   40.22    1.29
   1  -5 -13    3.18    1.25
   2  -4  -9    7.31    1.12
   3  -5 -17    0.96    1.32
   4  -4 -12    7.88    1.09
   7  -3 -13    1.48    1.07
   7  -1  -8   94.95    1.27
   9  -3 -18    0.15    1.16
  10  -2 -16   15.98    1.18
  10   0 -12   21.83    0.81
  11  -1 -16    1.39    0.77
  -4  -6 -13   -0.10    0.83
  -3  -5  -8   14.86    1.13
  -2  -6 -16   -0.41    0.96
  -1  -5 -10    4.64    1.09
  -1  -3  -3    8.39    0.69
   1  -5 -12    1.16    1.11
   3  -5 -16    4.24    1.28
   3  -5 -15   17.04    1.52
   5  -3  -9   60.84    1.53
   6  -4 -15   36.71    1.74
   6  -2  -8   44.41    1.18
   9  -3 -17   -0.22    1.08
   9  -1 -11    2.26    0.67
  10  -2 -15   12.17    1.20
  12  -2 -23    0.19    0.91
  -2  -6 -15    0.17    0.91
   4  -4 -11    5.19    0.96
   5  -5 -19    0.47    1.33
   6  -4 -14    7.92    1.22
   7  -3 -12    0.29    0.70
   8  -4 -20    5.47    1.22
   8  -4 -19    3.65    1.36
  11  -3 -25   -0.10    1.20
  11  -3 -24    0.56    1.03
  11  -1 -15    0.44    0.74
  12  -2 -22    0.11    0.98
  12  -2 -21    2.26    1.00
  -4  -6 -12   -0.06    0.73
  -4  -4  -3    2.85    0.59
  -3  -5  -7    0.96    1.00
  -2  -6 -14   -0.24    0.90
   0  -6 -17    0.91    0.97
   0  -6 -16    0.46    1.15
   0  -4  -6    0.01    0.72
   1  -5 -11   31.43    1.47
   3  -5 -14   -0.83    1.07
   3  -3  -6   96.83    1.56
   4  -4 -10   84.57    1.99
   6  -4 -13    3.58    1.00
   7  -3 -11   26.42    1.22
   8  -4 -18    5.60    1.28
  11  -3 -23   -1.01    1.00
  11  -3 -22    0.91    1.07
  11  -3 -21    0.24    1.20
  12  -2 -20   11.52    1.16
  -4  -6 -11    0.14    0.80
  -3  -3  -1  374.98    2.17
  -2  -6 -13   -0.66    0.85
  -2  -4  -4    9.04    0.78
  -1  -5  -8    4.14    1.00
   0  -6 -15    0.63    1.13
   1  -5 -10   14.15    1.20
   3  -5 -13    5.52    1.26
   4  -2  -5   41.31    0.89
   5  -5 -17    2.32    1.10
   5  -5 -16   -0.47    1.21
   5  -3  -8    4.85    0.84
   8  -4 -17    0.58    1.11
   9  -1 -10   26.87    0.96
  10   0 -11   31.27    0.84
  11  -3 -20    0.37    1.13
  11  -1 -14    0.79    0.85
  12  -2 -19    3.89    0.99
  -2  -6 -12    4.67    1.10
   0  -6 -14   -0.02    1.07
   2  -6 -17    0.00    1.29
   4  -4  -9    7.30    1.15
   5  -5 -15    0.20    1.10
   6  -4 -12    1.65    0.99
   6  -2  -7    0.27    0.51
   7  -5 -20    0.17    1.16
   7  -1  -7   16.04    0.74
   8  -4 -16    0.92    1.09
  10  -4 -22    0.42    1.04
  10  -2 -13    1.16    0.87
  11  -3 -19    5.76    1.18
  12  -2 -18    1.33    0.88
  -3  -5  -6   12.44    1.06
  -2  -6 -11    5.96    1.12
   0  -6 -13    0.40    1.18
   1  -5  -9    2.36    0.95
   2  -6 -16    0.32    1.15
   7  -3 -10   68.00    1.57
   8  -4 -15    0.36    1.11
  10  -4 -21    0.55    1.22
  10  -4 -20    0.46    1.07
  11  -3 -18    9.57    1.25
  11  -1 -13   10.74    0.90
  12  -2 -17    1.60    0.88
  -4  -4  -2    0.53    0.61
  -1  -5  -7   13.99    1.13
   2  -6 -15   -0.15    1.31
   3  -3  -5   23.60    0.85
   5  -3  -7    4.77    0.82
   7  -5 -18    0.14    1.13
  11  -3 -17    1.66    1.02
  12  -2 -16   -0.08    0.93
  -3  -5  -5   -0.04    0.95
  -2  -6 -10    1.44    1.04
   0  -6 -12    1.90    1.19
   1  -5  -8    0.77    0.92
   2  -6 -14    1.27    1.11
   4  -2  -4   22.36    0.79
   5  -5 -13    0.51    1.14
   6  -2  -6   27.21    0.90
   7  -5 -17    2.09    1.07
   7  -5 -16    2.07    1.26
   7  -3  -9   63.16    1.51
  11  -3 -16    1.44    1.02
  11  -1 -12   10.52    0.88
  13  -3 -24    0.09    1.14
  13  -3 -23    2.04    1.06
  13  -3 -22    1.37    1.08
  -1  -5  -6   27.65    1.35
   0  -6 -11    2.88    1.19
   0  -4  -4    9.70    0.83
   2  -6 -13    2.73    1.28
   5  -5 -12    5.39    1.20
   6  -4 -10   -0.63    0.78
   8  -4 -13    0.23    0.97
  10  -2 -11   16.24    0.92
  11  -3 -15    0.86    0.88
  12  -2 -15    5.81    0.98
  13  -3 -21    0.52    1.04
  -2  -6  -9    0.26    1.03
   3  -5  -9    1.31    0.97
   4  -4  -7    8.72    1.02
   5  -3  -6    1.23    0.74
   7  -5 -15    1.06    1.10
   8  -4 -12    7.15    1.07
   9  -5 -19    0.95    1.25
   9  -3 -11    2.09    1.01
  10  -4 -16    6.07    1.14
  12  -4 -22   -0.29    1.19
  13  -3 -20   -0.25    1.09
   0  -6 -10    0.56    1.08
   1  -5  -7   13.23    1.03
   3  -3  -4   28.36    0.84
   4  -6 -14   -0.08    1.38
   5  -5 -11    2.61    1.13
   6  -4  -9    3.52    1.05
   7  -5 -14    1.54    1.25
   9  -5 -18   -0.95    1.26
  10  -4 -15    5.02    1.22
  11  -3 -14    0.37    0.93
  12  -4 -21    0.17    1.04
  12  -4 -20    6.11    1.09
  12  -2 -14   10.20    1.10
  14  -2 -19    0.30    0.99
  -3  -5  -4    2.42    0.83
  -2  -6  -8    0.00    0.96
  -2  -4  -2   18.99    0.87
  -1  -5  -5   54.40    1.50
  -1  -3  -1    0.95    0.58
   2  -6 -11    0.47    1.17
   3  -5  -8   -0.06    0.92
   7  -5 -13   -0.14    1.18
   8  -4 -11    2.89    0.95
   9  -5 -17    0.81    1.21
   9  -3 -10   10.71    1.07
   9  -1  -8    1.89    0.62
  10  -4 -14    4.84    1.06
  10  -2 -10    2.14    0.77
  12  -4 -19    1.35    1.25
  13  -3 -18   -0.61    1.12
  14  -2 -18   14.25    1.15
  -4  -4  -1    2.48    0.52
   0  -4  -3    0.13    0.67
   1  -5  -6   10.04    1.08
   4  -6 -13    1.01    1.22
   4  -4  -6    1.88    0.87
   5  -5 -10    0.28    1.00
   5  -3  -5   51.73    1.21
   6  -6 -16   -1.79    1.28
   6  -4  -8   11.32    1.16
   6  -2  -5  104.28    1.43
   7  -5 -12    0.17    1.22
   7  -3  -7    6.83    0.85
   8  -2  -7    2.40    0.75
   9  -5 -16    1.52    1.25
  12  -4 -18    0.13    1.12
  12  -2 -13   56.87    1.61
  13  -3 -17   -0.49    0.98
  13  -1 -14    0.04    0.72
  14  -2 -17    8.51    1.04
  -2  -6  -7    0.73    0.89
   0  -6  -8   -0.20    1.03
   2  -6 -10    2.47    1.14
   2  -4  -4   65.32    1.41
   4  -6 -12    0.38    1.28
   4  -2  -3    0.35    0.55
   5  -5  -9   12.75    1.16
   6  -6 -15    8.01    1.35
   8  -4 -10   15.53    1.17
   9  -5 -15    1.69    1.24
  10  -4 -13   -0.22    1.10
  11  -3 -12    5.26    0.88
  12  -4 -17    1.97    1.20
  13  -3 -16    0.55    0.96
  -3  -5  -3   -0.40    0.71
   3  -5  -7    0.93    0.84
   3  -3  -3   42.00    1.07
   6  -6 -14    1.46    1.22
   7  -5 -11    4.36    1.25
   9  -5 -14   11.11    1.49
   9  -3  -9    6.80    0.94
  10  -2  -9   68.74    1.45
  11  -5 -18    3.58    1.25
  12  -4 -16    1.00    1.16
  12  -2 -12    5.86    0.94
  13  -1 -13    0.72    0.75
  14  -2 -16    0.57    0.85
  15  -3 -21   -0.30    0.98
  -2  -6  -6    4.55    0.89
   1  -5  -5    1.22    0.94
   2  -6  -9    0.24    1.12
   4  -6 -11    1.51    1.08
   4  -4  -5    8.38    0.94
   6  -4  -7    0.76    0.67
   8  -4  -9    5.25    0.97
   9  -5 -13    2.88    1.14
   9  -1  -7   66.51    1.10
  10  -4 -12    3.53    1.02
  11  -5 -17    0.61    1.28
  11  -3 -11    0.77    0.80
  13  -3 -15   14.14    1.13
  14  -4 -20    1.76    1.12
  14  -2 -15    2.59    0.95
  15  -3 -20    4.28    1.01
  -2  -4  -1    8.39    0.69
   0  -4  -2    0.45    0.64
   1  -7 -12   -0.84    1.19
   3  -5  -6   18.54    1.17
   4  -6 -10   18.84    1.50
   5  -5  -8   -0.16    0.97
   5  -3  -4  206.45    2.05
   6  -2  -4  157.98    1.67
   7  -5 -10   15.41    1.29
   7  -3  -6   21.13    0.97
   8  -6 -15    0.13    1.08
   8  -2  -6   11.97    0.85
   9  -3  -8    0.05    0.85
  10  -4 -11    5.97    0.98
  11  -5 -16   -0.20    1.21
  12  -2 -11    6.52    0.98
  13  -3 -14    0.73    0.91
  14  -4 -19    0.73    0.95
  15  -3 -19    2.58    1.09
  -4  -4   0    0.07    0.54
  -1  -5  -3    0.67    0.88
  -1  -3   0    1.47    0.52
   1  -7 -11    4.24    1.20
   1  -3  -1   -0.07    0.56
   2  -4  -3    1.52    0.72
   6  -4  -6    7.82    1.04
   8  -4  -8    5.59    0.93
   9  -5 -12    1.58    1.15
  10  -2  -8   80.98    1.48
  11  -5 -15    0.66    1.05
  11  -1  -9   14.08    0.77
  13  -1 -12   10.03    0.83
  14  -4 -18    4.49    1.24
  15  -3 -18    0.31    1.05
  -3  -5  -2    2.16    0.76
   3  -7 -12    1.02    1.21
   4  -6  -9    2.22    1.17
   4  -4  -4    4.45    0.80
   7  -5  -9   17.67    1.35
   8  -6 -14    0.47    1.09
  13  -3 -13    0.63    0.94
  14  -4 -17    3.36    1.16
  15  -3 -17    0.46    1.03
   1  -7 -10    2.61    1.11
   2  -6  -7   -0.11    1.00
   3  -5  -5    3.97    0.93
   3  -3  -2   21.12    0.75
   7  -3  -5    4.42    0.77
   8  -6 -13   -1.12    1.24
   9  -5 -11    1.11    0.93
   9  -3  -7   26.04    1.15
  11  -5 -14    1.38    1.07
  12  -2 -10   -0.60    0.86
  14  -4 -16    0.79    1.08
  14  -2 -13    4.14    0.99
   0  -6  -5    3.21    0.98
   0  -4  -1    3.99    0.79
   3  -7 -11   -1.28    1.20
   5  -3  -3   96.38    1.49
   6  -4  -5   29.81    1.27
   7  -5  -8   11.57    1.22
   8  -4  -7    0.91    0.86
   8  -2  -5    5.45    0.79
   9  -5 -10    0.72    1.12
   9  -1  -6   14.59    0.73
  10  -4  -9   19.79    1.17
  10  -2  -7   58.73    1.25
  11  -5 -13    2.25    1.17
  13  -3 -12    4.86    1.01
  13  -1 -11    0.49    0.63
  -2  -4   0    0.63    0.54
  -1  -5  -2    0.36    0.71
   1  -7  -9   -0.15    0.92
   1  -5  -3    0.94    0.78
   2  -6  -6    1.76    1.03
   2  -4  -2    4.25    0.77
   3  -7 -10    0.36    1.19
   6  -6  -9    1.96    1.11
   6  -2  -3   14.89    0.78
  10  -6 -14    0.73    1.13
  11  -5 -12    0.91    1.06
  11  -1  -8   17.16    0.79
  14  -4 -15    0.25    1.09
  15  -3 -15   -0.83    1.05
   1  -7  -8    0.15    1.00
   3  -5  -4    6.72    1.00
   4  -6  -7    1.86    1.09
   7  -5  -7    1.11    1.00
   8  -6 -11    2.50    1.17
   8  -4  -6    3.25    0.97
   9  -5  -9    2.02    1.09
   9  -3  -6    4.62    0.88
  12  -4 -11    1.60    1.05
  12  -2  -9    8.62    0.95
  13  -5 -15    3.15    1.26
  13  -3 -11    0.95    0.85
  14  -4 -14    2.35    1.11
  14  -2 -12   -0.44    0.96
  15  -3 -14    0.82    1.06
  16  -4 -19    0.50    0.98
  -4  -4   1   10.74    0.62
   0  -6  -4    0.75    0.86
   1  -3   0    2.15    0.59
   2  -6  -5   27.40    1.31
   3  -7  -9    0.73    1.12
   3  -3  -1   44.80    1.05
   5  -7 -11    0.48    1.20
   6  -6  -8    1.89    1.00
   7  -3  -4    0.90    0.68
   8  -6 -10    1.80    1.14
  10  -6 -13    0.46    1.07
  10  -4  -8   30.77    1.32
  11  -5 -11   -0.03    1.14
  13  -5 -14   -2.05    1.27
  13  -1 -10    9.96    0.85
  16  -4 -18    0.48    1.00
  -1  -3   1    0.69    0.50
   1  -5  -2   15.56    0.95
   4  -6  -6    0.68    0.95
   7  -5  -6    3.03    0.91
   9  -5  -8    0.87    1.05
  10  -6 -12    0.90    1.21
  10  -2  -6    3.18    0.78
  12  -4 -10    0.52    0.94
  13  -3 -10    6.35    0.94
  14  -4 -13    1.80    1.12
  14  -2 -11    2.08    0.90
  15  -3 -13   10.25    1.22
  16  -4 -17    0.77    1.05
  17  -3 -17    7.55    1.22
  -1  -5  -1    1.10    0.70
   0  -4   0  334.91    2.50
   2  -4  -1    1.95    0.65
   3  -7  -8    0.64    1.04
   3  -5  -3    8.33    1.03
   4  -2  -1   50.78    0.89
   5  -5  -4   53.45    1.50
   5  -3  -2   34.18    1.04
   6  -6  -7    0.12    1.04
   8  -6  -9    0.89    1.22
   8  -4  -5    2.37    0.95
   9  -1  -5  145.39    1.48
  10  -4  -7   17.63    1.07
  11  -5 -10    4.97    1.11
  11  -3  -7   10.14    1.13
  11  -1  -7   20.69    0.83
  12  -2  -8   27.88    1.05
  13  -5 -13   -0.48    1.07
  14  -4 -12   -0.47    0.94
  16  -4 -16    1.29    1.07
  16  -2 -14    4.70    0.91
   0  -6  -3    0.24    0.79
   1  -7  -6   -0.16    1.06
   2  -6  -4    9.41    1.16
   4  -6  -5    2.09    0.91
   5  -7  -9    0.20    1.23
   6  -4  -3    2.25    0.83
   7  -3  -3    1.03    0.72
   9  -5  -7    5.23    1.11
  12  -4  -9    2.40    1.05
  13  -5 -12    1.24    1.19
  13  -3  -9    0.26    0.87
  14  -2 -10    2.18    0.96
  15  -3 -12   21.57    1.34
  16  -4 -15   -0.13    1.15
  17  -3 -16    0.17    1.15
  -2  -4   1    1.24    0.54
   3  -7  -7    0.32    1.04
   6  -6  -6   -0.11    1.05
   6  -2  -2    2.34    0.65
   8  -6  -8    0.24    1.28
  10  -6 -10   -0.17    1.17
  11  -5  -9    0.38    0.98
  13  -1  -9    0.89    0.62
  14  -4 -11    0.25    1.04
  15  -5 -15    0.44    0.96
  16  -2 -13    0.94    0.83
  17  -3 -15    1.73    1.08
   1  -5  -1    0.48    0.80
   5  -7  -8    0.06    1.03
   8  -4  -4   17.65    1.30
  10  -4  -6    0.30    0.82
  11  -3  -6    8.73    0.97
  12  -4  -8    7.76    1.11
  12  -2  -7   17.78    0.96
  15  -5 -14    0.20    1.11
  15  -3 -11   -0.18    1.05
  16  -4 -14    1.81    1.05
  -1  -5   0   -0.51    0.68
   0  -6  -2   -0.01    0.84
   1  -3   1    0.91    0.63
   2  -6  -3   -0.34    0.90
   2  -4   0    0.77    0.63
   3  -7  -6    1.08    1.12
   3  -3   0  173.21    1.89
   4  -6  -4   -0.64    0.93
   5  -7  -7    0.89    1.16
   5  -3  -1    3.17    0.81
   7  -7  -9    5.44    1.25
   8  -2  -3  399.50    2.63
   9  -5  -6    2.11    0.96
   9  -3  -4   -0.54    0.80
  11  -5  -8    2.37    0.99
  12  -6 -11    1.05    1.19
  13  -5 -10   -0.13    1.01
  13  -3  -8   20.75    1.20
  14  -4 -10    1.19    1.09
  14  -2  -9    8.15    0.93
  16  -4 -13    0.92    1.15
  16  -2 -12    2.84    0.85
  17  -3 -14    0.49    1.04
  18  -4 -17    1.03    1.10
   0  -4   1    4.03    0.69
   6  -6  -5    5.64    1.06
   6  -4  -2    0.43    0.85
   7  -7  -8    1.78    1.27
   7  -3  -2   11.10    0.83
  10  -4  -5   -0.35    0.87
  11  -1  -6   16.29    0.78
  12  -4  -7    5.17    1.04
  13  -1  -8   42.39    1.12
  15  -3 -10    5.57    1.01
  18  -4 -16    0.94    1.16
   2  -6  -2    1.21    0.95
   3  -7  -5    0.46    0.97
   3  -5  -1    9.83    1.04
   4  -6  -3    0.66    1.02
   5  -5  -2    4.58    0.90
   9  -1  -4    0.79    0.63
  10  -6  -8    7.97    1.21
  11  -5  -7    1.70    1.03
  11  -3  -5    0.88    0.90
  12  -6 -10    1.25    1.15
  12  -2  -6    0.78    0.73
  13  -5  -9   -0.75    1.17
  13  -3  -7   54.99    1.54
  16  -4 -12    1.24    1.14
  16  -2 -11    4.13    0.96
  17  -3 -13   -0.56    0.91
   4  -2   0    0.20    0.51
   6  -6  -4    6.14    1.21
   7  -7  -7    0.44    1.06
   7  -5  -3    1.33    1.00
   9  -3  -3   16.58    0.98
  10  -6  -7    3.50    1.10
  14  -2  -8    6.21    0.92
  15  -3  -9    3.33    1.11
  16  -4 -11    1.69    1.19
  17  -3 -12    0.53    0.88
  18  -4 -15   -0.25    1.12
  -2  -4   2    4.15    0.58
  -1  -5   1    0.79    0.83
   3  -7  -4    0.29    1.10
   5  -7  -5    3.32    1.18
   6  -4  -1    0.71    0.78
   9  -5  -4   -0.86    0.94
  10  -4  -4   -0.92    0.86
  11  -5  -6    0.22    1.08
  12  -6  -9    1.48    1.07
  18  -4 -14   -0.99    1.12
   2  -6  -1    0.03    0.91
   2  -4   1    8.11    0.78
   4  -6  -2    1.64    0.99
   5  -5  -1    1.60    0.95
   5  -3   0    1.89    0.69
   6  -6  -3    0.39    1.10
   7  -7  -6    0.51    1.19
   7  -3  -1   10.69    0.77
   8  -2  -2   15.57    0.87
  10  -6  -6    0.82    1.06
  11  -3  -4    0.35    0.85
  11  -1  -5    1.61    0.66
  12  -6  -8    1.85    1.09
  13  -3  -6    4.81    1.02
  13  -1  -7   99.25    1.46
  15  -5 -10    1.52    1.21
  16  -4 -10    0.48    1.12
  16  -2 -10    1.25    0.86
  17  -3 -11    0.03    0.92
   0  -4   2    1.33    0.68
   3  -5   0   44.80    1.39
   8  -6  -4    4.12    1.23
   9  -7  -7    0.79    1.08
  11  -5  -5   -0.16    1.11
  12  -4  -5    3.17    0.99
  12  -2  -5    3.35    0.78
  13  -5  -7   15.67    1.39
  14  -2  -7   23.27    1.13
  15  -3  -8    0.61    0.93
  17  -5 -12    1.04    1.15
  18  -4 -13    0.50    0.98
   1  -5   1    0.44    0.75
   1  -3   2    0.89    0.66
   3  -7  -3    2.04    1.07
   5  -7  -4    9.46    1.17
   7  -7  -5   -0.35    1.13
   9  -5  -3    2.91    1.04
   9  -3  -2    2.55    0.81
   9  -1  -3   36.67    0.92
  12  -6  -7    1.37    1.22
  15  -5  -9    1.52    1.24
  16  -4  -9    0.47    1.12
  16  -2  -9    1.74    0.91
  17  -3 -10    3.61    0.90
  18  -4 -12    8.00    1.35
   4  -6  -1    1.76    0.97
   4  -4   1    2.99    0.77
   6  -6  -2    0.11    1.05
   6  -4   0    2.75    0.96
   9  -7  -6    0.15    1.16
  11  -5  -4    0.59    0.98
  13  -5  -6    1.62    1.06
  15  -3  -7    0.74    0.93
  17  -5 -11   -0.07    1.16
  19  -3 -13    2.88    1.09
  -1  -5   2   13.87    0.89
   2  -6   0   -0.64    0.82
   2  -4   2   19.11    0.87
   3  -7  -2    0.71    1.08
   3  -5   1   75.78    1.70
   5  -7  -3    2.23    1.17
   5  -5   0    0.44    0.90
   6  -2   0   17.87    0.80
   7  -7  -4    0.81    1.18
   8  -6  -3   22.34    1.40
   8  -4  -1    5.98    1.09
  11  -3  -3   54.45    1.45
  12  -6  -6    0.96    1.13
  12  -4  -4    8.61    1.09
  14  -6  -8    0.25    1.24
  14  -4  -6    0.84    0.97
  14  -2  -6   -1.08    0.87
  15  -5  -8    0.84    0.99
  16  -4  -8    0.85    1.04
  17  -3  -9    1.11    0.99
  18  -4 -11    2.96    1.21
  19  -3 -12    0.67    1.00
  -2  -4   3    1.28    0.53
  -1  -3   3    0.24    0.65
   5  -3   1   -0.52    0.72
   7  -3   0   15.92    0.91
   8  -2  -1   19.73    0.93
   9  -7  -5    1.80    1.24
   9  -5  -2    0.28    0.95
  10  -6  -4   -0.12    0.99
  10  -4  -2    4.14    0.96
  11  -1  -4    0.18    0.62
  13  -5  -5    1.27    1.06
  15  -5  -7    0.39    1.02
  15  -1  -8    2.33    0.66
  16  -2  -8   -0.15    0.89
  17  -5 -10    0.81    1.02
  20  -4 -14    0.14    0.97
   1  -5   2    0.09    0.74
   4  -6   0    0.57    0.99
   5  -7  -2    0.19    0.95
   6  -6  -1   -0.66    1.02
   7  -7  -3    0.44    1.11
   8  -6  -2   -0.23    1.15
   9  -3  -1    1.59    0.62
  10  -2  -2   11.03    0.81
  12  -6  -5    1.87    1.16
  12  -4  -3    1.84    0.88
  14  -6  -7    0.81    1.38
  14  -4  -5    1.54    1.16
  15  -3  -6    2.48    0.98
  16  -4  -7   13.73    1.38
  17  -5  -9    0.21    0.99
  19  -3 -11    1.19    1.08
  20  -4 -13    1.11    1.11
   0  -4   3    0.53    0.61
   2  -6   1    0.56    0.80
   3  -7  -1   -0.03    1.12
   4  -4   2   -0.24    0.71
   5  -5   1    0.01    0.93
   6  -4   1  101.95    1.89
   8  -4   0    1.89    1.07
   9  -7  -4   -0.44    1.19
   9  -5  -1   -0.10    0.92
  10  -6  -3    1.10    1.20
  11  -3  -2  143.98    2.16
  13  -5  -4    1.29    1.20
  14  -2  -5    2.11    0.83
  15  -5  -6    0.01    1.06
  17  -3  -8    4.47    1.04
  18  -4  -9    0.04    1.02
   1  -3   3    7.87    0.70
   3  -5   2    2.25    0.93
   6  -6   0    0.59    1.08
   9  -1  -2    6.03    0.69
  10  -4  -1    2.11    0.88
  11  -5  -2   35.81    1.57
  12  -6  -4    1.72    1.22
  12  -2  -3    3.69    0.81
  13  -1  -5    0.52    0.69
  14  -6  -6   -0.30    1.24
  14  -4  -4   -0.13    0.96
  15  -3  -5    1.60    0.87
  15  -1  -7    1.43    0.77
  16  -4  -6   11.00    1.22
  16  -2  -7   37.38    1.34
  19  -3 -10    0.04    0.84
  20  -4 -12   -0.22    1.01
   2  -4   3   29.54    1.01
   4  -6   1    0.76    0.95
   5  -7  -1   -0.40    1.06
   5  -3   2   23.25    1.01
   6  -2   1  358.14    2.46
   7  -7  -2    0.97    1.00
   7  -3   1    7.35    0.88
   8  -6  -1    0.51    0.97
   8  -2   0   11.31    0.86
   9  -7  -3    1.57    1.22
   9  -3   0    5.92    0.93
  15  -5  -5    0.67    1.07
  17  -3  -7    0.33    1.01
  18  -4  -8    0.48    0.99
  18  -2  -9   -0.81    0.85
  20  -4 -11    0.23    1.10
   1  -5   3    0.13    0.80
   2  -6   2    2.08    0.89
   5  -5   2    3.28    1.07
   7  -5   1    0.77    0.95
   8  -4   1    9.73    1.03
   9  -5   0    1.40    0.97
  10  -2  -1    4.63    0.75
  11  -3  -1    0.86    0.95
  11  -1  -3  104.59    1.46
  12  -6  -3   -0.64    1.18
  13  -5  -3    0.14    1.17
  14  -6  -5    1.18    1.05
  19  -3  -9   -0.55    0.94
  -2  -4   4   62.83    1.14
   4  -2   2    0.70    0.63
   5  -7   0    0.12    0.91
   6  -6   1   19.49    1.24
   7  -7  -1   -0.56    1.07
   8  -6   0    0.18    1.03
   9  -7  -2   -0.24    1.24
  10  -4   0   12.60    0.97
  11  -5  -1    0.30    1.14
  14  -4  -3   -0.08    1.06
  14  -2  -4    1.56    0.82
  17  -3  -6    7.02    1.01
  18  -4  -7   -0.05    1.15
  20  -4 -10   -0.80    1.08
   0  -4   4    9.29    0.80
   3  -5   3   -0.29    0.91
   4  -6   2    0.52    0.89
  12  -6  -2   -0.20    1.02
  12  -4  -1    0.34    0.90
  12  -2  -2    4.40    0.80
  13  -5  -2   -0.75    1.09
  13  -3  -2    0.32    0.98
  14  -6  -4   -0.68    1.07
  15  -5  -4    0.27    1.07
  15  -1  -6    7.27    0.77
  18  -2  -8    0.43    0.83
  19  -3  -8    0.82    1.06
  -1  -3   4    5.85    0.73
   7  -7   0    0.61    1.09
   7  -5   2    1.14    0.91
   7  -3   2    3.07    0.79
   9  -7  -1    0.47    1.18
   9  -5   1    0.08    1.03
   9  -3   1    1.26    0.89
  13  -1  -4    5.67    0.72
  14  -4  -2   41.84    1.55
  16  -2  -5    6.27    1.04
  18  -4  -6   -0.85    1.02
  20  -4  -9    0.98    0.96
   1  -5   4    0.85    0.78
   1  -3   4   -0.04    0.81
   2  -4   4    9.95    0.96
   5  -7   1   -0.13    0.98
   5  -5   3   31.17    1.33
   5  -3   3  153.22    1.96
   6  -6   2   17.96    1.27
   7  -1   0   36.06    0.77
   8  -4   2   17.88    1.23
   8  -2   1   36.87    1.17
  10  -4   1    0.44    0.85
  10  -2   0   48.47    1.22
  11  -5   0   -0.57    1.04
  11  -3   0    1.64    0.91
  14  -6  -3    0.17    1.11
  14  -2  -3    1.73    0.90
  15  -5  -3    2.08    1.25
  15  -3  -3    3.35    0.95
  17  -5  -5   -0.27    1.14
  17  -3  -5    1.57    0.95
  18  -2  -7   -0.38    0.87
  19  -3  -7    1.02    1.07
  20  -4  -8    0.06    0.96
   4  -6   3    0.13    0.90
   6  -2   2  272.13    2.23
  11  -1  -2  322.93    2.38
  12  -6  -1   -0.41    1.07
  12  -4   0   -0.68    0.94
  13  -5  -1    0.30    1.00
  18  -4  -5    0.09    1.11
   3  -5   4    2.00    0.90
   3  -3   4   12.29    1.10
   4  -4   4   18.63    1.10
   7  -7   1    0.10    1.03
   7  -5   3    3.04    0.92
   8  -6   2    3.22    1.12
   9  -7   0    0.43    1.18
  10  -6   1    0.72    1.21
  11  -5   1    2.48    1.17
  14  -6  -2    8.79    1.39
  14  -4  -1   13.68    1.37
  15  -5  -2    0.81    1.25
  15  -1  -5    2.22    0.73
  16  -2  -4    3.11    1.05
  17  -5  -4   -0.09    1.08
  17  -3  -4    0.70    0.92
  20  -4  -7    1.99    1.11
  -2  -4   5  135.68    1.64
   2  -6   4    1.02    0.90
   4  -2   3   10.24    0.78
   5  -7   2    0.17    0.87
   5  -5   4    0.04    0.78
   6  -6   3    1.29    0.99
   7  -3   3   14.21    1.02
   8  -4   3    5.43    1.11
   9  -3   2  137.79    2.05
  10  -4   2   -0.37    0.87
  11  -3   1    4.18    0.98
  12  -6   0    0.84    1.12
  13  -5   0    4.99    1.25
  13  -1  -3    5.75    0.76
  14  -2  -2  117.41    1.92
  15  -3  -2    2.70    0.88
  18  -2  -6    0.36    0.83
  19  -3  -6    8.56    1.20
   0  -4   5   28.83    0.97
   1  -5   5   50.54    1.49
   4  -6   4    1.03    0.99
   7  -7   2   -0.61    1.05
   9  -7   1   -0.12    1.17
  12  -4   1    1.73    0.90
  13  -3   0   18.17    1.15
  14  -6  -1    3.06    1.24
  15  -5  -1   -0.65    1.28
  17  -5  -3    1.70    1.14
  20  -4  -6    1.26    1.12
  21  -3  -8    1.09    1.02
   3  -5   5   -0.02    0.98
   5  -7   3    3.17    1.05
   5  -3   4    0.25    0.83
   8  -6   3    1.73    1.07
   8  -2   2   58.78    1.34
  10  -6   2    0.68    1.12
  10  -2   1    4.17    0.79
  11  -5   2    1.09    1.17
  11  -1  -1    7.39    0.79
  12  -6   1   -1.26    1.07
  14  -4   0    0.03    0.98
  15  -3  -1    1.19    0.95
  15  -1  -4    6.05    0.83
  17  -3  -3    1.65    0.95
  18  -2  -5    2.55    0.90
  19  -3  -5   12.38    1.26
  -1  -3   5    3.02    0.82
   4  -4   5   19.19    0.99
   6  -6   4   -0.19    0.95
   7  -5   4    0.81    0.92
   7  -1   1   15.06    0.73
   9  -7   2    6.02    1.21
  10  -4   3    2.13    0.83
  11  -3   2   -0.72    0.95
  13  -5   1   -0.32    1.02
  14  -6   0   -0.21    1.16
  16  -4  -1   -0.16    1.07
  17  -5  -2    0.96    1.18
  18  -4  -3    0.68    1.15
  20  -4  -5   -0.42    1.10
  21  -3  -7   -0.15    1.02
   1  -3   5  245.92    2.20
   5  -5   5   -0.12    0.81
   7  -7   3   -0.97    1.00
   8  -4   4   23.08    1.36
   9  -3   3   66.10    1.58
  13  -3   1    1.99    0.86
  13  -1  -2    0.84    0.71
  14  -4   1    0.29    1.03
  15  -5   0   -0.77    1.04
  17  -3  -2    1.46    0.98
  19  -3  -4   -0.56    1.08
  22  -4  -7    0.31    1.14
   3  -3   5    2.19    0.89
   4  -6   5    2.83    0.92
   6  -4   5    7.87    1.06
   8  -6   4    2.86    1.12
  11  -5   3    2.42    1.05
  13  -5   2    1.04    1.08
  14  -6   1    0.27    1.03
  16  -2  -2    0.07    0.94
  17  -5  -1    6.90    1.27
  17  -1  -5    1.74    0.74
  18  -2  -4    2.15    0.86
  20  -4  -4    0.21    1.08
  21  -3  -6    0.45    0.98
   0  -4   6    0.30    0.68
   1  -5   6   23.97    1.11
   5  -3   5    1.30    0.80
   6  -6   5    0.73    1.02
   7  -5   5   -0.01    0.89
   8  -2   3   11.32    0.90
   9  -7   3    3.50    1.20
  10  -2   2    1.86    0.74
  15  -5   1   -0.36    1.17
  15  -1  -3    6.87    0.83
  16  -4   0    2.20    0.98
  19  -3  -3    0.99    0.97
  22  -4  -6    0.67    1.21
  -2  -4   6    8.84    0.72
   5  -5   6    0.15    0.97
   7  -7   4    0.17    0.86
   8  -4   5    1.34    0.97
   9  -3   4    0.97    0.94
  10  -6   4   -0.83    1.08
  10  -4   4    1.11    0.74
  11  -1   0    5.95    0.77
  13  -3   2    1.40    0.79
  14  -4   2    0.47    1.10
  14  -2   0    0.62    0.88
  17  -5   0    3.40    1.20
  18  -4  -1    1.65    1.14
  20  -4  -3   -0.67    1.08
  21  -3  -5   -0.67    1.02
   4  -6   6    9.30    1.05
   6  -2   4    1.69    0.79
   8  -6   5   -0.13    1.06
   9  -7   4    0.47    0.94
  12   0  -3    4.29    0.59
  13  -1  -1    0.85    0.66
  14  -6   2    0.19    0.99
  15  -5   2    0.44    1.13
  16  -4   1    6.38    1.15
  16  -2  -1    1.43    0.93
  17  -1  -4    1.67    0.72
  18  -2  -3    1.81    0.77
   6  -6   6   -0.19    1.01
   6  -4   6    0.23    0.97
   7  -7   5    0.14    0.94
   7  -5   6    9.44    1.19
   7  -3   5    2.14    0.68
  15  -1  -2    3.84    0.82
  17  -5   1   -0.25    0.96
  17  -3   0    9.68    1.01
  18  -4   0    0.42    0.99
  19  -3  -2    0.68    0.96
  20  -4  -2   -0.02    1.05
  21  -3  -4    1.16    1.05
  -7   1 -20    9.78    1.61
  -4   0 -14   42.58    1.70
  -2   0 -13   14.88    1.37
   2   2 -24    2.11    1.62
 -11   1 -19    0.03    1.04
 -10   0 -13    1.42    1.12
  -8   0 -14    2.01    1.44
  -7   1 -21    2.98    1.78
  -5   1 -21    0.58    1.57
  -4   2 -25    0.64    1.75
  -3   1 -21    0.63    1.61
  -2   0 -14    2.27    1.33
  -2   2 -25    1.70    1.69
  -1   1 -21   11.51    1.81
   0   0 -12   69.26    1.60
   2   0  -9   42.01    1.18
   3   1 -19    2.97    1.34
   5   1 -17    1.99    1.33
   5   3 -26   -2.28    1.68
   6   2 -22    5.65    1.51
   7   1 -14    7.77    0.99
 -12   0 -12    0.23    0.85
 -11   1 -20    0.42    1.28
  -9   1 -21    0.82    1.23
  -8   0 -15    1.68    1.60
  -5   1 -22    1.00    1.54
  -4   0 -15   12.40    1.65
  -3   1 -22   10.57    1.90
  -2   0 -15    4.42    1.26
   0   0 -13   10.59    1.23
   2   0 -10   35.62    1.33
   2   2 -25    2.02    1.86
   3   1 -20    5.05    1.43
   4   2 -24    5.78    1.67
   5   1 -18    3.28    1.31
   7   1 -15    4.38    1.09
 -13   1 -19   -0.51    1.09
  -7   1 -22    9.70    1.89
  -6   0 -16   -0.04    1.37
  -4   0 -16   26.14    1.90
  -1   1 -22    1.48    1.67
   0   0 -14    0.62    1.18
   2   0 -12   10.84    1.22
   2   0 -11   12.56    1.11
   6   2 -23    0.37    1.49
   7   1 -16   26.24    1.50
 -13   1 -20   -0.20    1.20
 -11   1 -21   -0.50    1.29
  -9   1 -22    0.01    1.41
  -7   1 -23    2.17    1.77
  -6   0 -17   21.72    1.73
  -5   1 -23    1.96    1.98
  -4   0 -17    1.01    1.34
  -3   1 -23    1.95    1.95
  -2   0 -16    4.22    1.44
  -1   1 -23    8.77    1.72
   0   0 -15    4.87    1.50
   2   0 -13   86.05    1.91
   2   2 -26   -0.77    1.77
   3   1 -21    7.00    1.58
   6   2 -24   -1.21    1.34
 -11   1 -22    0.46    1.39
 -10   0 -16   -0.51    1.09
  -9   1 -23    0.01    1.19
  -8   0 -17    4.24    1.60
  -5   1 -24    0.80    1.91
  -3   1 -24    1.00    1.65
  -2   0 -17   44.96    2.32
   0   0 -16  104.33    2.46
   2   0 -14    7.64    1.20
   3   1 -22    1.47    1.50
   5   1 -20   19.98    1.67
   7   1 -17   21.86    1.43
 -13   1 -21   -0.51    1.18
 -10   0 -17   -0.66    1.04
  -8   0 -18   10.56    1.66
  -7   1 -24    4.95    1.91
  -6   0 -18   21.38    1.72
  -4   0 -18    3.65    1.36
  -2   0 -18   23.51    1.75
  -1   1 -24    3.81    2.00
   0   0 -17    4.00    1.68
   2   0 -15    1.59    1.21
   2   2 -27    0.81    1.55
   6   2 -25   -0.69    1.51
 -12   0 -16    0.13    0.93
 -10   0 -18   -0.01    0.98
  -8   0 -19    0.15    1.77
  -6   0 -19   -0.12    1.60
  -5   1 -25    2.81    1.83
  -4   0 -19   -0.03    1.60
  -3   1 -25    3.94    1.80
  -2   0 -19   15.88    1.71
  -1   1 -25   -1.28    1.68
   0   0 -18    0.12    1.44
   2   0 -16    0.34    1.23
   3   1 -23    7.74    1.80
   4   0 -10  399.60    2.86
   4   2 -27   -0.26    1.73
   7   1 -19   -0.15    1.38
   9   1 -14  102.01    1.81
   9   1 -13   16.12    0.90
 -12   0 -17   -0.12    1.10
  -6   0 -20    1.22    1.73
  -4   0 -20   -0.10    1.85
  -2   0 -20    1.13    1.51
   0   0 -19    0.79    1.41
   2   0 -17   -0.28    1.43
   3   1 -24   -1.01    1.54
   4   0 -13    0.81    1.04
   4   0 -12   45.62    1.49
   5   1 -22    0.81    1.43
   6   2 -26    0.05    1.47
   7   1 -20    0.02    1.39
   9   1 -15    6.88    1.01
 -12   0 -18    0.01    1.16
 -10   0 -19    0.36    1.01
  -8   0 -20   16.80    1.78
  -6   0 -21    8.88    1.62
  -4   0 -21   27.82    2.12
  -3   1 -26   -0.19    1.69
   4   0 -15    5.72    1.11
   4   0 -14    3.45    1.13
   5   1 -23    5.25    1.61
   6   2 -27    0.94    1.40
   9   1 -16   14.91    1.17
 -12   0 -19    0.16    1.18
 -10   0 -20   -0.34    1.24
  -8   0 -21   -0.43    1.85
  -2   0 -21   -1.35    1.69
   0   0 -20    2.23    1.38
   3   1 -25    0.20    1.67
   4   0 -16    8.54    1.33
   7   1 -21    0.08    1.21
 -14   0 -18   -0.05    0.96
 -12   0 -20   -0.50    1.22
 -10   0 -21    0.36    1.27
  -8   0 -22    0.41    1.80
  -6   0 -22    2.22    1.68
  -4   0 -22    0.64    1.56
  -2   0 -22   -0.06    1.82
   0   0 -21    6.12    1.58
   1   1 -27    2.03    1.67
   3   1 -26    3.40    1.66
   4   0 -17   65.86    2.06
   5   1 -24    2.11    1.44
   7   1 -22    8.89    1.50
 -10   0 -22   -0.38    1.18
  -6   0 -23    0.21    1.84
  -4   0 -23    9.73    2.09
  -2   0 -23   -0.16    1.76
   0   0 -22    3.09    1.71
   4   0 -18    5.67    1.59
   5   1 -25    3.01    1.66
   7   1 -23   12.34    1.55
 -12   0 -21   -0.01    1.25
  -8   0 -23   -1.14    1.66
  -7  -1 -11    0.95    1.09
  -7  -1  -9    0.55    1.00
  -6   0 -24    0.08    1.78
  -4   0 -24    1.22    1.84
  -2   0 -24    7.54    1.77
   0   0 -23    9.72    1.87
   4   0 -19    7.03    1.48
   5   1 -26   -0.45    1.53
   6   0 -13    5.26    1.11
 -12   0 -22    0.85    1.30
 -10   0 -23   -0.08    1.17
  -9  -1 -12   11.35    1.41
  -9  -1 -10    6.74    1.15
  -9  -1  -9   29.25    1.33
  -9  -1  -8    0.56    0.86
  -8   0 -24    2.04    1.85
  -7  -1 -15   64.74    2.16
  -7  -1 -14    0.78    1.30
  -7  -1 -13   -0.42    1.17
  -7  -1  -7   47.59    1.31
  -6   0 -25    1.67    1.85
  -5  -1 -15    8.84    1.54
  -4   0 -25    3.27    1.68
  -3  -1 -11   58.14    1.72
  -3  -1 -10   56.23    1.66
   0   0 -24   -0.14    1.83
   4   0 -20    3.86    1.29
   6   0 -16   10.31    1.21
   6   0 -15  161.92    2.39
   6   0 -14   32.95    1.35
   6   0 -11   37.60    1.18
 -11  -1 -11   20.47    1.34
 -11  -1  -9    5.10    0.98
 -11  -1  -8   11.62    1.10
  -9  -1 -14    3.28    1.43
  -9  -1  -7   53.88    1.37
  -7  -1  -6   98.41    1.56
  -5  -1 -16    7.05    1.55
  -5  -1  -7   43.17    1.29
  -3  -1 -14    6.17    1.26
  -2   0 -25    0.91    1.60
   0   0 -25    1.89    1.56
   4   0 -21   10.70    1.49
   5   1 -27    0.29    1.58
   6   0 -18    2.13    1.09
   6   0 -17   -1.43    1.24
 -11  -1 -15    0.45    1.35
 -11  -1  -7    7.96    0.95
  -9  -1 -17    0.79    1.25
  -9  -1 -16    1.28    1.37
  -9  -1  -6   60.34    1.31
  -7  -1 -18    1.24    1.39
  -7  -1 -17    4.20    1.44
  -5  -1 -18   10.64    1.62
  -5  -1 -17    5.57    1.38
  -4   0 -26    1.66    1.68
  -3  -1 -17   38.95    1.83
  -3  -1 -16   31.73    1.86
  -3  -1  -8  107.44    1.63
  -2   0 -26    0.01    1.94
  -1  -1 -15    6.10    1.28
  -1  -1 -14   20.74    1.49
  -1  -1 -13   59.35    1.83
  -1  -1 -12    1.54    1.20
  -1  -1 -11    0.73    1.19
   4   0 -22    6.06    1.51
   5   1 -28    5.29    1.76
   6   0 -19   -0.79    1.42
   7   1 -26    1.96    1.51
 -11  -1  -6    5.41    0.79
  -9  -1 -18   28.57    1.88
  -9  -1  -5    1.30    0.73
  -7  -1 -19    4.50    1.63
  -5  -1 -19   18.15    1.83
  -3  -1 -19    1.10    1.34
  -3  -1 -18    2.05    1.45
  -3  -1  -7   43.00    1.14
  -1  -1 -17    1.04    1.60
  -1  -1 -16    3.49    1.49
  -1  -1 -10   71.47    1.62
  -1  -1  -9   44.44    1.38
   0   0 -26    5.61    1.60
   4   0 -23   -0.93    1.41
   6   0 -20   17.39    1.49
   7   1 -27   -1.03    1.48
 -11  -1 -18    1.57    1.26
 -11  -1 -17    0.91    1.39
  -9  -1 -19   -0.36    1.50
  -7  -1 -20   10.55    1.82
  -5  -1 -20    3.88    1.67
  -3  -1 -20    0.84    1.56
  -1  -1 -19    7.66    1.42
  -1  -1 -18    0.74    1.33
  -1  -1  -8   31.75    1.08
   0   0 -27   -1.01    1.81
   1  -1 -14    8.68    1.20
   2   0 -26    0.08    1.80
   4   0 -24    9.38    1.56
   6   0 -22   11.79    1.63
   6   0 -21    3.03    1.28
   7   1 -28   -0.95    1.57
 -13  -1 -17   -0.14    0.98
 -11  -1 -19   -0.67    1.33
 -11  -1  -5   54.68    1.16
  -9  -1 -20    5.27    1.68
  -7  -1 -21    2.35    1.74
  -5  -1 -22    3.45    1.78
  -3  -1 -21   -0.88    1.63
  -1  -1 -20   14.71    1.73
   1  -1 -17    0.91    1.48
   1  -1 -16   16.62    1.59
   1  -1 -15    0.34    1.20
   1  -1 -13   36.71    1.28
   1  -1 -12    3.10    1.16
   1  -1 -11  285.28    2.81
   2   0 -27    2.54    1.66
   4   0 -25    0.68    1.54
   6   0 -23   -0.22    1.31
 -13  -1 -18    0.62    1.11
 -11  -1 -20   -0.16    1.12
  -9  -1 -22   -0.32    1.76
  -9  -1 -21    0.07    1.42
  -7  -1 -22    7.37    1.74
  -5  -1 -23    1.68    1.73
  -3  -1 -22   11.56    1.81
  -1  -1 -21   12.20    1.74
  -1  -1  -7  146.20    1.68
   1  -1 -19    7.14    1.35
   1  -1 -18   78.26    1.99
   1  -1 -10   79.86    1.67
   4   0 -26    5.58    1.71
   6   0 -24    1.01    1.56
   8   0 -19   15.42    1.54
   8   0 -18   16.75    1.33
   8   0 -17    0.79    1.08
   8   0 -16   -0.23    1.06
   8   0 -15    3.69    0.97
   8   0 -14    2.84    0.90
   8   0 -13    1.20    0.89
 -13  -1 -19    0.28    1.02
 -11  -1 -21    0.00    1.13
  -9  -1 -23    1.87    1.51
  -7  -1 -23    2.81    1.61
  -5  -1 -24    0.93    1.54
  -3  -1 -23    1.31    1.63
  -1  -1 -23    7.95    1.68
   1  -1 -21    1.99    1.49
   1  -1 -20    0.08    1.34
   1  -1  -9   20.27    1.12
   4   0 -27    1.58    1.65
   6   0 -25    1.00    1.50
   8   0 -21   -1.15    1.20
   8   0 -20   15.06    1.43
   8   0 -12   30.93    0.99
 -13  -1 -21    0.06    1.14
 -13  -1 -20   -0.16    1.04
 -11  -1 -22    0.09    1.08
  -9  -1 -24    0.13    1.39
  -7  -1 -24    6.86    1.59
  -5  -1 -25    2.46    1.55
  -3  -1 -25    2.81    1.77
  -3  -1 -24   -0.47    1.48
  -1  -1 -24    3.11    1.86
   1  -1 -22    3.64    1.66
   3  -1 -15  130.29    2.32
   3  -1 -14    3.47    1.09
   4   0 -28    1.59    1.64
   6   0 -26    1.53    1.57
   8   0 -22    2.15    1.22
   8   0 -11    5.42    0.89
  -3  -1 -26   -0.40    1.80
  -1  -1 -25   -1.17    1.63
   1  -1 -24   -0.21    1.47
   1  -1 -23    7.04    1.53
   1  -1  -8   23.44    1.02
   3  -1 -12   20.97    1.28
   6   0 -27    1.11    1.55
   8   0 -24    3.98    1.36
   8   0 -23    0.22    1.23
  -1  -1 -26    0.23    1.72
   1  -1 -25    3.13    1.59
   3  -1 -11    6.72    1.04
   6   0 -28    1.43    1.53
   8   0 -25   -0.67    1.42
   1  -1 -26    1.58    1.61
   3  -1 -24   -0.54    1.79
   5  -1 -19   11.56    1.33
   5  -1 -18    2.95    1.41
   8   0 -26   -0.67    1.35
   1  -1 -27    2.15    1.68
   3  -1 -25    0.17    1.55
   5  -1 -22    0.19    1.26
   5  -1 -21    2.62    1.45
   5  -1 -20   20.75    1.51
   5  -1 -15    2.07    0.96
   5  -1 -14   15.97    1.14
   8   0 -27    1.77    1.35
  -8  -2 -17    1.55    1.24
  -8  -2 -16    0.88    1.23
  -8  -2 -15    0.64    1.08
  -8  -2 -14    1.33    1.17
  -6  -2 -18   11.79    1.60
  -6  -2 -17   17.23    1.55
  -6  -2 -16    0.64    1.34
  -6  -2 -15    0.88    1.05
  -6  -2 -14    0.92    1.35
  -4  -2 -17    0.03    1.20
  -4  -2 -16   14.29    1.35
  -4  -2 -15    7.60    1.39
   3  -1 -26    2.67    1.80
   8   0 -28    1.92    1.30
 -10  -2 -18   -0.83    1.24
 -10  -2 -17    8.55    1.37
 -10  -2 -16   16.99    1.54
 -10  -2 -15    7.11    1.27
 -10  -2 -14    5.26    1.22
  -8  -2 -20   12.00    1.69
  -8  -2 -19    2.19    1.43
  -8  -2 -18    6.39    1.36
  -8  -2 -13   90.89    2.23
  -6  -2 -21    5.10    1.54
  -6  -2 -20    0.56    1.50
  -6  -2 -19    0.22    1.31
  -6  -2 -12   21.29    1.41
  -4  -2 -21   13.54    1.66
  -4  -2 -20    3.04    1.56
  -4  -2 -19    1.68    1.38
  -4  -2 -18    1.83    1.31
  -2  -2 -18   18.14    1.49
  -2  -2 -17   35.48    1.70
  -2  -2 -16    3.47    1.25
   3  -1 -27    1.05    1.38
   5  -1 -25    1.22    1.56
   5  -1 -12   34.54    1.30
  10   0 -14   14.96    0.89
 -12  -2 -17    1.28    1.20
 -12  -2 -16    0.48    1.22
 -12  -2 -15    3.18    1.17
 -10  -2 -21   -0.40    1.48
 -10  -2 -20   -1.50    1.44
 -10  -2 -19    1.24    1.40
 -10  -2 -12    4.88    1.12
 -10  -2 -11    8.12    1.21
  -8  -2 -22    0.08    1.58
  -8  -2 -21   -0.05    1.50
  -6  -2 -11    0.58    0.96
  -4  -2 -23    5.42    1.72
  -4  -2 -22   -0.76    1.65
  -2  -2 -21   -0.11    1.40
  -2  -2 -20    0.41    1.43
  -2  -2 -19   15.65    1.50
  -2  -2 -15    2.49    1.27
  -2  -2 -14    4.27    1.25
   3  -1  -8    7.91    0.79
   5  -1 -26   -0.51    1.59
   7  -1 -21    0.70    1.09
   7  -1 -19    0.33    1.18
   7  -1 -18    4.82    1.27
   7  -1 -17   24.87    1.39
  10   0 -13   -0.27    0.68
 -12  -2 -20    3.37    1.27
 -12  -2 -19    0.95    1.36
 -12  -2 -18    7.79    1.51
 -12  -2 -14    0.06    1.08
 -10  -2 -22    2.88    1.61
  -8  -2 -23   -0.21    1.61
  -6  -2 -10   17.71    1.11
  -4  -2 -24    0.95    1.64
  -2  -2 -23    1.08    1.63
  -2  -2 -22    2.21    1.43
  -2  -2 -13    8.21    0.90
  -2  -2 -12  153.81    2.38
   0  -2 -21    4.36    1.41
   0  -2 -20   -0.10    1.50
   0  -2 -19   -0.28    1.39
   0  -2 -18   -0.41    1.28
   0  -2 -17    2.72    1.29
   0  -2 -16   65.65    2.16
   0  -2 -15    6.43    1.23
   5  -1 -27    1.92    1.32
   7  -1 -24   -0.37    1.41
   7  -1 -23   11.54    1.55
   7  -1 -22    7.56    1.37
   7  -1 -16   26.70    1.38
   7  -1 -15    6.12    1.15
 -12  -2 -21    0.28    1.22
  -6  -2  -9    2.25    0.88
  -2  -2 -25    1.25    1.68
  -2  -2 -24    2.99    1.45
  -2  -2 -11   56.69    1.54
   0  -2 -23    2.83    1.77
   0  -2 -22    2.29    1.40
   5  -1 -10    9.07    0.89
   7  -1 -25    1.52    1.52
   7  -1 -14    8.81    0.94
 -10  -2  -9   48.63    1.43
   0  -2 -25    1.55    1.50
   0  -2 -24   -1.16    1.38
   0  -2 -13    9.27    1.24
   2  -2 -22    6.42    1.34
   2  -2 -21    3.59    1.53
   2  -2 -20   18.49    1.63
   2  -2 -19    0.89    1.25
   2  -2 -18    1.00    1.20
   2  -2 -17    1.06    1.04
   2  -2 -16    2.03    1.23
   7  -1 -27   -0.40    1.23
   7  -1 -26    2.84    1.29
   7  -1 -13    2.51    0.94
  -6  -2  -8   84.45    1.60
  -2  -2 -10    9.40    1.02
   0  -2 -26    1.44    1.68
   0  -2 -12   53.76    1.56
   2  -2 -24    2.15    1.48
   2  -2 -23    1.48    1.29
   2  -2 -15    0.90    1.21
   7  -1 -28   -0.14    1.45
  -2  -2  -9   18.09    1.16
   0  -2 -11   52.37    1.51
   2  -2 -25    1.70    1.45
   2  -2 -14    3.90    1.09
   9  -1 -25   -0.86    1.31
   9  -1 -24    1.85    1.18
   9  -1 -23   -0.51    1.18
   9  -1 -22    0.78    1.08
   9  -1 -21   12.46    1.24
 -10  -2  -7    8.93    0.85
  -8  -2  -7   -0.02    0.71
  -6  -2  -7   69.56    1.44
   0  -2 -10    1.11    0.94
   2  -2 -13   51.42    1.56
   4  -2 -25    1.08    1.55
   4  -2 -24    5.60    1.54
   4  -2 -23    0.15    1.50
   9  -1 -27    1.21    1.24
   9  -1 -26    0.67    1.15
   9  -1 -17    3.55    1.04
  -2  -2  -8   35.27    1.16
   2  -2 -12   11.55    1.12
   4  -2 -26    2.66    1.44
   5  -1  -8    7.61    0.78
   7  -1 -11   70.71    1.35
   9  -1 -15    6.44    1.08
  -8  -2  -6    2.22    0.71
   0  -2  -9   11.86    1.08
   2  -2 -11    3.81    1.00
   4  -2 -14    2.41    1.05
   6  -2 -23   -0.43    1.41
   6  -2 -21    0.54    1.16
   6  -2 -20   12.02    1.40
  -9  -3 -20    1.54    1.36
  -9  -3 -19   -1.01    1.34
  -9  -3 -18   10.48    1.49
  -7  -3 -22    2.00    1.35
  -7  -3 -21    0.44    1.55
  -7  -3 -20    4.34    1.48
  -7  -3 -19    0.73    1.50
  -7  -3 -18    1.79    1.31
  -6  -2  -6    0.92    0.76
  -5  -3 -19    9.02    1.55
  -5  -3 -18    4.94    1.38
  -5  -3 -17    1.90    1.31
  -3  -3 -21    0.76    1.38
  -3  -3 -20   -0.39    1.29
  -3  -3 -19   -0.27    1.23
   4  -2 -13   -0.85    0.90
   6  -2 -26    1.30    1.20
   6  -2 -25    0.42    1.39
   6  -2 -19    1.04    1.14
   6  -2 -18    0.88    1.04
   9  -1 -14  105.80    1.76
 -11  -3 -20    0.29    1.22
 -11  -3 -19    0.72    1.23
 -11  -3 -18    0.73    1.25
  -9  -3 -22   -0.81    1.42
  -9  -3 -21   -0.09    1.15
  -9  -3 -17    0.64    1.22
  -9  -3 -16    0.37    1.14
  -9  -3 -15   -0.71    1.12
  -7  -3 -15   23.76    1.57
  -5  -3 -16    4.07    1.14
  -5  -3 -15    2.33    1.20
  -3  -3 -24    1.30    1.46
  -3  -3 -23    1.96    1.45
  -3  -3 -22    3.31    1.33
  -3  -3 -18    0.16    1.25
  -3  -3 -17   20.00    1.54
  -3  -3 -16   12.34    1.27
  -2  -2  -7   -0.42    0.82
  -1  -3 -22   -0.59    1.42
  -1  -3 -21    7.60    1.32
  -1  -3 -20    5.73    1.32
  -1  -3 -19    2.22    1.30
   2  -2 -10   20.53    1.15
   6  -2 -27    1.95    1.34
   6  -2 -17   -0.58    1.13
   6  -2 -16    5.76    1.19
   7  -1 -10  162.99    1.77
 -11  -3 -21    3.06    1.36
 -11  -3 -16   -0.60    1.04
 -11  -3 -15    0.13    1.13
  -9  -3 -14    0.24    1.06
  -7  -3 -14    0.37    0.99
  -5  -3 -14   11.89    1.23
  -3  -3 -15   -1.55    1.11
  -1  -3 -24    4.47    1.56
  -1  -3 -23    4.28    1.37
  -1  -3 -18   -0.79    1.28
  -1  -3 -17    1.62    1.22
   0  -2  -8    1.48    0.85
   4  -2 -12   32.34    1.25
   6  -2 -15  108.59    2.14
   9  -1 -13   17.34    0.94
 -11  -3 -14   15.43    1.24
 -10  -2  -5   20.84    0.74
  -7  -3 -12    1.93    1.21
  -6  -2  -5   30.87    0.96
  -3  -3 -14    1.20    1.02
  -1  -3 -16    0.42    1.07
   1  -3 -25    2.67    1.28
   1  -3 -24   -1.00    1.37
   1  -3 -23    1.27    1.38
   1  -3 -22    0.78    1.54
   1  -3 -21   -1.08    1.44
   1  -3 -20    0.08    1.24
   1  -3 -19   -0.34    1.43
   1  -3 -18   35.02    1.73
   2  -2  -9   33.42    1.19
   8  -2 -26   -0.12    1.23
   8  -2 -25    0.51    1.21
   8  -2 -24    2.80    1.30
   8  -2 -23    1.78    1.22
   8  -2 -22    2.44    1.24
   8  -2 -21   -1.10    1.21
   8  -2 -20    9.56    1.29
 -11  -3 -13    8.73    1.06
  -9  -3 -12    5.12    1.06
  -3  -3 -13    4.82    1.31
  -2  -2  -6   57.54    1.25
  -1  -3 -14    9.66    1.29
   1  -3 -17    0.35    1.15
   4  -2 -11   20.85    1.05
   8  -2 -27    1.52    1.20
   8  -2 -19   11.38    1.22
   8  -2 -18   11.07    1.14
   9  -1 -12    7.96    0.76
 -11  -3 -12    0.40    1.01
  -9  -3 -11    6.79    1.00
  -7  -3 -11    0.10    0.96
  -5  -3 -11    0.92    1.06
  -4  -2  -5   74.40    1.27
   0  -2  -7  147.34    1.80
   1  -3 -16    7.25    1.16
   1  -3 -15   -0.70    0.97
   3  -3 -25   -0.74    1.39
   3  -3 -24    0.71    1.23
   3  -3 -23    3.88    1.31
   3  -3 -22    2.51    1.35
   3  -3 -21    2.06    1.23
   3  -3 -20    1.49    1.29
   3  -3 -19   -0.72    1.27
   6  -2 -13    6.44    0.96
   8  -2 -17   -0.27    1.09
  -9  -3 -10    5.89    1.08
  -7  -3 -10    7.28    1.09
   1  -3 -14    1.64    1.26
   2  -2  -8  100.18    1.53
   3  -3 -17    1.26    1.13
   4  -2 -10  260.79    2.49
   8  -2 -16    1.02    1.05
   9  -1 -11    1.41    0.70
 -10  -2  -4    4.84    0.63
  -8  -2  -4   88.38    1.27
  -6  -2  -4    1.29    0.71
  -1  -3 -12   -0.59    0.99
   3  -3 -16   14.08    1.32
   5  -3 -25    0.53    1.36
   5  -3 -24    1.35    1.44
   5  -3 -23    0.78    1.45
   5  -3 -22   -3.64    1.41
   6  -2 -12    8.07    0.89
  10  -2 -26    1.35    1.18
  10  -2 -25    5.13    1.18
  10  -2 -24    0.39    1.18
  10  -2 -23    6.41    1.22
  10  -2 -22    1.27    1.07
  10  -2 -21    2.25    1.05
  -9  -3  -9   10.15    0.96
  -7  -3  -9   -0.35    0.94
  -2  -2  -5   94.69    1.34
  -1  -3 -11   -0.23    1.02
   0  -2  -6   -0.38    0.77
   1  -3 -13   14.23    1.32
   3  -3 -15   64.20    1.77
   4  -2  -9   17.07    0.98
   7  -1  -8   96.96    1.24
  10  -2 -20   -0.68    0.97
  10  -2 -19    0.85    0.98
  11  -1 -14    1.57    0.57
  -6  -4 -21    1.87    1.20
  -6  -4 -20    1.84    1.31
  -5  -3  -9    7.32    0.96
   1  -3 -12   -0.21    1.10
   2  -2  -7    7.67    0.79
   3  -3 -14   -0.06    1.29
   6  -2 -11   18.71    0.98
   8  -2 -14    1.68    0.91
  10  -2 -18    0.17    0.96
  -8  -4 -20    5.64    1.36
  -8  -4 -19    1.35    1.26
  -8  -4 -18    1.60    1.15
  -6  -4 -19   -0.89    1.42
  -6  -4 -18    5.85    1.41
  -4  -4 -18    0.60    1.25
  -4  -2  -4   71.08    1.15
  -2  -4 -22    1.06    1.30
  -2  -4 -21    0.79    1.34
  -2  -4 -20    0.65    1.18
  -1  -3 -10   23.47    1.24
   7  -3 -25    1.69    1.23
   7  -3 -24    0.11    1.16
   7  -3 -23    5.66    1.22
   7  -3 -22    3.50    1.35
   7  -3 -21    0.08    1.22
   9  -1 -10   25.35    0.78
  10  -2 -17   -0.25    0.95
 -10  -4 -19    0.25    1.14
 -10  -4 -18   -0.07    1.09
 -10  -4 -17    1.65    1.14
  -8  -4 -17    0.24    1.27
  -8  -4 -16    1.71    1.04
  -6  -4 -17    5.10    1.21
  -6  -4 -16    0.77    1.18
  -5  -3  -8    3.67    0.88
  -4  -4 -17   -0.79    1.25
  -2  -4 -19    4.20    1.24
  -2  -4 -18    7.15    1.40
   0  -4 -22   -0.01    1.38
   0  -4 -21    0.49    1.36
   0  -4 -20   -0.46    1.23
   1  -3 -11  130.60    2.14
   6  -2 -10    0.20    0.74
   7  -3 -20    0.70    1.07
   7  -3 -19    0.07    1.17
  10  -2 -16   15.21    1.22
 -10  -4 -16    4.58    1.26
  -8  -4 -15   -0.31    1.20
  -6  -4 -15   -0.55    1.19
  -4  -4 -16    3.37    1.19
  -4  -4 -15    1.00    1.11
  -2  -4 -17   10.96    1.38
  -2  -4 -16   -0.15    1.10
  -1  -3  -9   15.62    1.07
   0  -4 -19   -0.40    1.34
   2  -4 -22    2.52    1.24
   3  -3 -12    9.97    1.20
   4  -2  -8   77.03    1.25
   7  -3 -18    1.46    1.19
 -10  -4 -15    3.31    1.09
  -8  -4 -14    1.01    1.09
  -7  -3  -7   28.92    1.14
  -6  -4 -14    0.36    1.06
  -5  -3  -7   19.27    1.06
  -4  -4 -14    9.07    1.19
  -2  -4 -15    0.93    1.20
  -2  -2  -4   37.11    0.91
   0  -2  -5  120.46    1.36
   2  -4 -21    0.91    1.27
   2  -4 -20    7.54    1.52
   2  -2  -6   27.83    0.98
   7  -3 -17    9.39    1.18
   8  -2 -12   20.68    0.97
   9  -3 -25   -0.54    1.25
   9  -3 -23    0.17    1.13
   9  -3 -22    0.01    1.03
  10  -2 -15   11.48    1.04
  11  -1 -12   10.18    0.67
 -10  -4 -14    1.75    1.04
  -6  -4 -13    1.89    1.12
  -4  -4 -13    1.39    1.16
   0  -4 -16   23.08    1.56
   2  -4 -19    0.59    1.17
   3  -3 -11    2.72    0.96
   4  -4 -23    0.42    1.33
   4  -4 -22    1.67    1.21
   6  -2  -9   21.65    0.99
   7  -3 -16   13.82    1.21
   9  -3 -21    7.20    1.28
   9  -3 -20    0.32    1.03
   9  -1  -9   15.72    0.69
 -10  -4 -13    1.52    1.00
  -8  -4 -12   -0.30    0.88
  -1  -3  -8   14.74    0.83
   0  -4 -15    2.98    1.26
   1  -3  -9   10.01    0.99
   4  -4 -21    1.44    1.42
   4  -4 -20    1.26    1.39
   4  -2  -7   34.12    1.02
   7  -3 -15    1.35    1.06
   8  -2 -11    3.15    0.75
  10  -2 -14   10.64    0.94
 -10  -4 -12    1.16    0.91
  -7  -3  -6   34.53    1.13
  -4  -4 -12    2.65    1.04
  -2  -4 -13    1.55    1.00
   2  -4 -16    0.05    1.20
   3  -3 -10   18.47    1.14
   4  -4 -19   -0.78    1.34
   5  -3 -12   17.36    1.20
   6  -4 -23    0.33    1.28
   9  -3 -18    0.39    1.09
  11  -1 -11    1.22    0.58
 -10  -4 -11    3.22    0.98
  -6  -4 -11   -0.42    0.91
  -4  -4 -11    1.18    0.92
  -2  -4 -12   51.38    1.72
   0  -4 -13    0.81    1.11
   2  -4 -15    0.78    1.14
   4  -4 -17   13.24    1.39
   6  -4 -22    2.44    1.40
   6  -4 -21    1.78    1.30
   7  -3 -14    3.82    1.15
   9  -3 -17    0.68    1.08
  10  -2 -13    0.42    0.81
  11  -3 -24    1.77    1.14
  11  -3 -23    1.16    1.04
  11  -3 -22    0.29    1.09
  -6  -4 -10    6.37    1.13
   0  -2  -4   47.29    0.95
   1  -3  -8    7.64    0.74
   2  -4 -14    1.24    1.04
   2  -2  -5  404.17    2.41
   4  -4 -16    0.51    1.22
   6  -4 -20    4.58    1.38
   6  -2  -8   45.99    1.13
   7  -3 -13    1.43    0.97
   9  -3 -16    6.00    1.09
  11  -3 -21    2.46    1.10
 -10  -4 -10    0.24    0.94
  -9  -3  -5    0.25    0.73
  -7  -3  -5    1.62    0.72
  -5  -5 -19    4.37    1.29
  -4  -4 -10    0.27    1.09
  -2  -4 -11   21.86    1.26
   0  -4 -12   15.79    1.24
   2  -4 -13   17.38    1.27
   3  -3  -9    6.49    0.73
   4  -4 -15    3.06    1.10
   4  -2  -6    4.96    0.72
   8  -4 -23   -0.14    1.14
   9  -1  -8    1.28    0.53
  10  -2 -12   11.04    0.94
  11  -3 -20   -0.14    1.03
  -8  -4  -9    7.17    1.15
  -7  -5 -18    0.76    1.24
  -7  -5 -17   -0.46    1.06
  -5  -5 -18    0.31    1.19
  -5  -5 -17    0.33    1.33
  -5  -3  -5    1.21    0.76
  -2  -4 -10    3.80    1.14
  -1  -5 -19    0.52    1.35
   0  -4 -11   15.56    1.17
   5  -3 -10    4.10    0.94
   7  -3 -12   -0.06    1.02
   9  -3 -15    3.12    0.95
  11  -3 -19    6.30    1.16
  -9  -5 -17    0.65    1.17
  -7  -5 -16   -0.32    1.17
  -5  -5 -16    1.46    1.19
  -4  -4  -9   20.88    1.32
  -3  -5 -16    3.38    1.44
  -1  -5 -18   -1.23    1.39
   1  -5 -20    0.85    1.32
   1  -5 -19    0.89    1.36
   1  -3  -7   59.35    1.28
   2  -4 -12    5.03    1.05
   3  -3  -8    4.22    0.88
   4  -4 -14    1.65    1.01
   9  -3 -14   45.49    1.65
  11  -3 -18   10.39    1.09
  -9  -5 -16   -0.04    0.95
  -9  -5 -15    0.99    1.05
  -7  -5 -15    7.25    1.26
  -5  -5 -15    0.60    1.31
  -3  -5 -15   -0.86    1.38
  -1  -5 -17    0.57    1.24
  -1  -5 -16    0.18    1.18
   0  -4 -10    1.34    1.21
   1  -5 -18   10.91    1.44
   4  -4 -13    0.56    1.05
   6  -2  -7    0.26    0.67
   8  -4 -19    2.13    1.15
  10  -2 -11   17.34    0.91
  11  -3 -17    1.12    0.96
  -9  -5 -14    0.00    1.13
  -9  -3  -4    1.27    0.69
  -8  -4  -8    7.22    1.06
  -7  -5 -14    0.42    1.15
  -7  -3  -4    8.18    0.76
  -6  -4  -8   28.63    1.32
  -5  -5 -14    0.92    1.31
  -4  -4  -8   14.60    1.21
  -1  -5 -15   -0.64    1.14
   1  -5 -17    1.98    1.33
   2  -4 -11    1.21    1.02
   2  -2  -4  244.52    1.85
   3  -5 -20    0.91    1.21
   3  -5 -19    0.80    1.35
   5  -3  -9   60.62    1.52
   8  -4 -18    6.46    1.15
   9  -3 -13   11.38    1.14
  10  -4 -23    2.51    1.24
  10  -4 -22   -0.01    1.19
  -7  -5 -13    1.97    1.17
  -5  -5 -13   11.89    1.29
  -5  -3  -4    0.34    0.77
  -3  -5 -14   -0.60    1.11
  -1  -3  -5  230.09    2.28
   0  -4  -9    1.32    1.14
   1  -5 -16    2.88    1.49
   1  -3  -6   48.55    1.32
   3  -5 -18    1.79    1.26
   3  -3  -7    3.07    0.85
   4  -4 -12    7.59    1.09
   4  -2  -5   45.69    1.01
   8  -4 -17    0.54    1.06
  10  -4 -21    1.66    1.15
  10  -4 -20   -0.76    1.24
  -9  -5 -13   -0.67    1.12
  -8  -4  -7   -1.00    0.93
  -7  -5 -12   -0.87    1.19
  -3  -5 -13    0.99    1.20
  -1  -5 -14    0.34    1.14
   1  -5 -15    0.12    1.31
   2  -4 -10    7.42    1.26
   3  -5 -17    0.07    1.44
   5  -5 -20    2.61    1.28
   5  -5 -19    1.01    1.22
   7  -3 -10   68.74    1.55
   8  -4 -16   -0.37    1.14
   8  -2  -8   23.37    0.92
   9  -3 -12    3.08    0.90
  10  -4 -19   -0.18    1.02
  10  -2 -10    1.37    0.71
  11  -3 -15    0.84    0.92
  -9  -5 -12    1.97    1.04
  -5  -5 -12   14.63    1.26
  -3  -5 -12    0.63    1.17
  -1  -5 -13    8.75    1.32
   1  -5 -14    0.75    1.17
   3  -5 -16    5.70    1.50
   4  -4 -11    5.85    1.01
   5  -5 -18    0.49    1.34
   5  -3  -8    4.87    0.89
   6  -2  -6   27.36    0.88
   8  -4 -15    1.27    1.07
  10  -4 -18    0.15    1.02
  -9  -5 -11    1.16    1.03
  -7  -5 -11    0.28    1.08
  -5  -5 -11    0.93    1.08
  -1  -5 -12    0.57    1.12
   0  -4  -8    0.55    1.05
   1  -5 -13    3.05    1.22
   2  -4  -9    8.06    1.25
   3  -5 -15   16.86    1.51
   5  -5 -17    1.26    1.36
   7  -5 -20    1.62    1.28
  10  -4 -17    0.54    1.15
  12  -4 -22   -0.89    1.09
  12  -2 -12    5.16    0.78
  -9  -3  -3   64.88    1.17
  -8  -4  -6    0.24    0.83
  -7  -3  -3   15.08    0.79
  -6  -4  -6   -0.57    0.97
  -5  -3  -3  149.01    1.81
  -3  -5 -11    5.54    1.26
  -1  -3  -4   -0.18    0.85
   3  -5 -14   -0.10    1.21
   3  -3  -6   98.26    1.68
   4  -4 -10   88.50    2.07
   7  -5 -19   -0.05    1.24
   8  -4 -14   -1.07    1.02
   9  -3 -11    1.76    0.89
  12  -4 -21   -0.46    1.08
  -9  -5 -10    1.35    1.11
  -7  -5 -10    0.89    1.02
  -4  -4  -6   46.02    1.49
  -3  -5 -10    5.55    1.15
  -1  -5 -11    0.56    1.17
   0  -4  -7   39.57    1.47
   2  -4  -8   24.61    1.34
   2  -2  -3    8.20    0.62
   5  -5 -15    0.19    1.18
   5  -3  -7    5.66    0.87
   6  -4 -11    5.49    1.09
   7  -5 -18    0.38    1.43
   8  -4 -13   -0.36    1.05
   8  -2  -7    2.48    0.75
  10  -4 -16    5.59    1.17
  10  -2  -9   69.03    1.26
  11  -3 -13    5.89    1.01
  12  -4 -20    5.00    1.10
  -4  -6 -16    0.69    1.30
  -3  -3  -3    2.09    0.77
   3  -5 -13    5.11    1.24
   4  -4  -9    7.51    1.23
   4  -2  -4   24.09    0.81
  10  -4 -15    5.06    1.12
  12  -4 -19    1.19    1.15
  12  -2 -11    6.82    0.81
  -9  -5  -9    3.31    1.04
  -8  -4  -5    0.58    0.76
  -6  -6 -15    0.58    1.24
  -6  -4  -5    6.92    0.98
  -5  -5  -9    1.41    1.04
  -4  -6 -15    0.52    1.33
  -3  -5  -9    0.91    0.99
  -2  -6 -16   -0.46    1.18
  -1  -5 -10    3.61    1.18
   5  -5 -14    0.12    1.15
   6  -4 -10    0.44    0.98
   7  -3  -8   39.75    1.29
   8  -4 -12    6.94    1.07
   9  -5 -19    1.72    1.35
  11  -3 -12    4.91    0.99
  12  -4 -18    1.21    1.09
  -8  -6 -14   -0.12    1.17
  -6  -6 -14   -0.54    1.21
  -4  -6 -14    1.17    1.34
  -4  -4  -5   19.87    1.13
  -2  -6 -15    1.44    1.14
   0  -6 -16    6.31    1.29
   1  -3  -4    6.51    0.93
   3  -3  -5   24.15    1.04
   4  -4  -8   22.60    1.32
   5  -5 -13    0.50    1.33
   6  -2  -5  105.86    1.37
   9  -5 -18    0.18    1.21
  12  -4 -17    1.20    1.05
  -9  -5  -8    0.46    0.90
  -9  -3  -2  138.94    1.61
  -7  -5  -8   26.99    1.38
  -7  -3  -2    2.44    0.67
  -6  -6 -13    0.04    1.19
  -5  -5  -8    0.72    1.03
  -4  -6 -13    1.25    1.19
  -3  -5  -8   14.21    1.25
  -2  -6 -14    1.37    1.29
  -1  -5  -9    3.65    1.10
  -1  -3  -3    8.44    0.85
   0  -6 -15    1.42    1.23
   2  -6 -16    0.27    1.25
   3  -5 -11   -0.88    1.22
   5  -3  -6    0.13    0.57
   8  -4 -11    2.77    0.96
   9  -5 -17    1.23    1.26
   9  -3  -9    8.05    0.93
  10  -2  -8   80.25    1.29
  12  -4 -16   -0.73    1.09
  -8  -6 -13    7.19    1.14
  -8  -4  -4   22.61    1.19
  -6  -6 -12    0.58    1.24
  -2  -6 -13   -1.59    1.42
   0  -6 -14    1.59    1.34
   1  -5  -9    1.68    1.05
   2  -6 -15    0.37    1.30
   6  -4  -9    5.10    1.13
   8  -2  -6   12.23    0.75
   9  -5 -16    1.77    1.31
  10  -4 -13    0.25    1.05
  12  -2 -10   -0.40    0.60
  -8  -6 -12    0.44    1.12
  -7  -5  -7    9.55    1.15
  -5  -5  -7    3.53    1.13
  -4  -6 -12    1.12    1.16
  -4  -4  -4   18.63    1.05
  -3  -3  -2    3.94    0.76
  -2  -6 -12   11.51    1.54
  -1  -5  -8    2.61    1.13
   0  -6 -13    0.51    1.36
   0  -4  -5   28.92    1.31
   2  -6 -14   -0.75    1.34
   2  -4  -6    9.31    1.11
   3  -5 -10    3.52    1.16
   4  -6 -16   -1.40    1.40
   4  -4  -7   10.38    1.16
   5  -5 -11    2.71    1.23
   8  -4 -10   16.41    1.15
   9  -5 -15    2.64    1.32
  11  -5 -19    0.37    1.14
  -8  -6 -11    1.53    1.10
  -6  -6 -11    0.39    1.20
  -4  -6 -11   -0.17    1.30
  -3  -5  -7    1.83    1.08
   0  -6 -12    2.26    1.25
   1  -5  -8    1.31    1.07
   1  -3  -3   -0.25    0.82
   2  -6 -13    2.30    1.49
   3  -3  -4   28.65    1.16
   4  -6 -15    0.49    1.40
   4  -2  -3    0.31    0.56
   6  -4  -8   11.10    1.25
  10  -4 -12    3.55    1.04
  11  -5 -18    2.54    1.16
  11  -3 -10   12.90    1.07
  -7  -5  -6    8.28    1.18
  -5  -5  -6    0.22    1.02
  -2  -6 -11    6.19    1.46
   4  -6 -14    0.50    1.36
   5  -5 -10   -0.05    1.20
   6  -6 -16   -1.88    1.40
   9  -5 -14   11.78    1.55
   9  -3  -8    0.71    0.71
  11  -5 -17   -0.72    1.19
  12  -4 -14    3.54    1.05
  -8  -6 -10   -0.17    1.12
  -6  -6 -10    1.20    1.08
  -4  -6 -10    0.49    1.24
  -3  -5  -6   12.74    1.15
  -2  -6 -10    1.31    1.20
  -1  -3  -2    1.29    0.73
   0  -6 -11    3.47    1.40
   2  -6 -12   -0.63    1.51
   2  -4  -5  132.39    2.18
   4  -6 -13    0.14    1.21
   7  -3  -6   21.12    1.03
   8  -4  -9    5.79    1.15
  10  -4 -11    5.32    1.03
  10  -2  -7   59.71    1.10
  11  -5 -16   -0.26    1.21
  12  -2  -9    9.57    0.69
  -9  -3  -1    0.16    0.65
  -6  -6  -9    0.37    1.07
  -5  -3  -1    0.89    0.71
  -4  -6  -9    3.82    1.36
  -4  -4  -3    1.79    0.83
   0  -6 -10    0.57    1.40
   1  -5  -7   13.22    1.29
   2  -6 -11    0.12    1.25
   3  -5  -8   -0.18    1.10
   5  -5  -9   12.20    1.35
   6  -6 -14    3.35    1.23
   6  -4  -7    0.95    1.07
   8  -2  -5    3.90    0.74
   9  -5 -13    4.19    1.18
  11  -5 -15   -0.24    1.10
  -8  -6  -9    0.69    1.23
  -5  -5  -5   -0.65    1.04
  -3  -3  -1  358.00    2.56
  -2  -6  -9    0.93    1.37
   3  -3  -3   43.95    1.25
   4  -6 -12    2.30    1.38
   8  -4  -8    6.44    1.13
   9  -5 -12    1.43    1.16
   9  -3  -7   26.67    1.08
  10  -4 -10    0.77    0.87
  11  -3  -9    4.74    0.89
  13  -5 -18    0.09    1.17
   5  -3  -4  210.69    2.09
  -1   3   8    7.67    0.40
   1   3   5  237.16    1.56
   2   4   8    8.46    0.65
   4   2  -1   53.07    0.74
   5   5  10    3.88    0.76
   7   3  -1   11.61    0.65
   7   5   8   26.65    1.05
   9   1  -6   14.12    0.52
  10   2  -5    2.01    0.50
  13   3  -4    3.55    0.73
  14   4  -1   14.48    0.91
  15   5   3    4.53    0.95
  17   5   3    0.57    0.75
  18   4  -2   -0.82    0.76
  19   3  -5   12.90    0.79
   4   4   5   19.03    0.80
  11   1  -7   21.43    0.49
  11   5   4    4.44    0.84
  12   2  -6    0.85    0.47
  12   4  -1   -0.24    0.68
  13   5   3   -0.14    0.86
  15   5   2    1.71    0.88
  16   2  -7   35.83    0.92
  16   4  -2   -0.39    0.75
  17   3  -5    1.66    0.59
  17   5   2   -0.96    0.85
  20   4  -2    0.67    0.66
  21   3  -5   -0.10    0.71
   2   4   7    0.14    0.55
   3   3   2    3.36    0.58
   5   3   0    1.78    0.58
   5   5   9    1.97    0.70
   6   2  -3   14.68    0.60
  10   6  12   -0.42    0.82
  11   5   3    3.15    0.78
  13   5   2   -0.24    0.73
  14   2  -7   20.98    0.81
  15   3  -5    1.29    0.56
  17   5   1   -0.47    0.86
  18   4  -3    0.00    0.70
  20   4  -3    0.97    0.76
  -1   3   7   61.51    0.81
   0   4  10    0.52    0.49
   1   3   4    1.05    0.47
   3   5  11    6.50    0.74
   4   4   4   18.56    0.78
   5   5   8    1.45    0.70
   6   4   2   92.42    1.39
   7   5   6    9.20    0.81
   8   6  13    7.32    0.75
   9   3  -3   16.39    0.77
   9   5   4    0.60    0.81
  10   4  -1    1.98    0.64
  10   6  10   -0.27    0.83
  10   6  11    0.48    0.84
  11   3  -4   -0.44    0.64
  12   4  -2    2.11    0.66
  13   3  -5    0.01    0.66
  15   5   1   -0.95    0.89
  16   4  -3    0.25    0.76
  17   3  -6    6.37    0.74
  19   3  -6    9.60    0.77
  22   4  -3    0.11    0.77
   7   3  -2   11.68    0.63
   7   5   5   -0.61    0.70
   8   4   0    2.83    0.75
   8   6  12    0.27    0.71
  10   6   9    3.07    0.77
  11   5   2    0.12    0.85
  12   6   8    0.91    0.81
  13   5   1    0.94    0.80
  15   3  -6    3.92    0.68
  17   5   0    3.27    0.88
  20   4  -4   -0.11    0.72
   0   4   9    2.43    0.48
   3   3   1  361.06    1.97
   3   5  10    4.02    0.69
   5   5   7    4.20    0.68
   6   4   1  104.94    1.45
   8   6  10   -0.44    0.80
   8   6  11    1.50    0.74
   9   5   3   20.56    0.99
  10   2  -6    2.35    0.46
  10   6   8    7.59    0.98
  12   2  -7   17.55    0.69
  12   6   7   -0.08    0.73
  15   5   0   -0.27    0.80
  16   2  -8    0.03    0.53
  16   4  -4    0.92    0.73
  18   4  -4    2.56    0.65
  22   4  -4    1.79    0.74
  -1   3   6   47.07    0.78
   3   5   9    0.29    0.61
   5   3  -1    2.81    0.54
   5   5   6    0.59    0.63
   6   6  12    0.28    0.72
   9   3  -4    0.25    0.56
   9   5   2   35.10    1.14
  10   4  -2    3.38    0.66
  10   6   7   -0.09    0.79
  11   3  -5   -0.33    0.63
  11   5   1    1.59    0.83
  12   4  -3    0.61    0.69
  13   3  -6    5.66    0.77
  13   5   0    6.38    0.85
  14   4  -4   -0.25    0.66
  15   5  -1    0.15    0.75
  17   3  -7    0.26    0.52
  19   3  -7    1.59    0.67
   0   4   8    1.00    0.47
   1   3   3    8.28    0.53
   2   4   5   23.25    0.73
   3   5   8   15.15    0.85
   6   2  -4  154.52    1.22
   6   6  11    0.69    0.73
   8   4  -1    5.93    0.80
   8   6   8    0.96    0.82
   9   1  -7   65.82    0.79
  10   6   6    0.53    0.80
  11   1  -8   16.54    0.49
  14   2  -8    5.49    0.56
  17   5  -2    2.28    0.80
  18   4  -5    1.81    0.75
  19   5  -2    0.30    0.79
  20   4  -5    0.25    0.60
  22   4  -5    2.83    0.81
   4   4   2    0.44    0.56
   5   5   5    0.69    0.61
   6   4   0    3.59    0.71
   7   5   3    2.49    0.69
   8   6   7   -0.68    0.82
   9   5   1   -0.33    0.78
  10   4  -3    2.64    0.59
  11   5   0    1.02    0.74
  12   6   4    1.82    0.91
  14   6   3    0.24    0.86
  15   3  -7    1.21    0.60
  15   5  -2   -0.30    0.84
  16   4  -5    2.41    0.69
   0   4   7   39.53    0.84
   2   4   4    9.44    0.62
   3   3   0  176.98    1.43
   3   5   7    1.78    0.69
   5   3  -2   32.90    0.83
   6   6   9    0.16    0.75
   7   5   2    0.47    0.65
   8   4  -2    6.07    0.83
  11   3  -6    7.47    0.66
  12   6   3    9.98    0.91
  14   4  -5    0.73    0.68
  14   6   2   -0.23    0.77
  17   3  -8    5.14    0.65
  17   5  -3    0.18    0.84
  18   4  -6   -0.62    0.72
  19   5  -3   -1.08    0.81
  20   4  -6    1.23    0.67
  -1   3   5    2.53    0.43
   5   5   4    0.32    0.62
   6   6   8    5.81    0.74
   8   2  -6   11.47    0.55
   8   6   6   -0.15    0.82
   9   5   0    0.49    0.73
  11   5  -1    1.10    0.72
  12   2  -8   25.83    0.70
  13   3  -7   52.74    1.12
  13   5  -2   -0.12    0.69
  16   4  -6    9.23    0.87
   1   5   9    2.59    0.68
   3   5   6   11.26    0.79
   4   2  -3    0.53    0.38
   4   4   1    2.83    0.56
   6   6   7    4.23    0.81
   7   3  -4    0.95    0.50
   8   6   5   -0.33    0.89
  10   4  -4    0.44    0.59
  10   6   3   -0.13    0.80
  12   6   2    0.78    0.84
  14   2  -9    6.77    0.55
  14   4  -6   -0.41    0.73
  15   3  -8    0.88    0.57
  17   5  -4    0.27    0.86
  19   5  -4   -0.22    0.75
  20   4  -7    2.34    0.66
   0   4   6    0.03    0.50
   2   4   3   29.25    0.80
   3   5   5    0.08    0.73
   4   6  10    0.52    0.66
   8   4  -3  128.25    1.70
   8   6   4    4.78    0.82
   9   5  -1   -0.72    0.76
  12   6   1    0.03    0.74
  13   5  -3    0.91    0.70
  14   6   0   -0.80    0.79
  18   4  -7    0.85    0.62
  -3   3   8    3.75    0.37
   1   5   8    1.99    0.69
   3   3  -1   44.93    0.88
   4   4   0    0.33    0.57
   4   6   9    3.09    0.74
   5   3  -3   97.11    1.18
   6   6   6    0.62    0.76
   7   5   0    3.90    0.69
   9   3  -6    4.36    0.59
  10   6   2    0.28    0.91
  11   3  -7   10.01    0.68
  13   3  -8   20.86    0.83
  16   4  -7   13.68    0.82
  17   3  -9    0.22    0.53
  17   5  -5    0.20    0.87
  19   5  -5    3.58    0.78
  -1   3   4    5.80    0.47
   0   4   5   28.03    0.76
   1   3   1    1.14    0.46
   2   4   2   18.40    0.74
   3   5   4    1.30    0.75
   4   6   8    1.92    0.78
   6   4  -2    1.13    0.45
   6   6   5    1.65    0.77
   9   1  -8    2.18    0.42
   9   5  -2    0.42    0.70
  10   4  -5    0.39    0.62
  10   6   1   -0.53    0.76
  11   1  -9   13.69    0.49
  11   5  -3   14.25    1.00
  12   2  -9    8.88    0.60
  12   4  -6   -0.11    0.67
  12   6   0   -0.56    0.81
  13   5  -4    0.52    0.73
  14   4  -7    6.74    0.75
  14   6  -1    3.58    0.94
  15   3  -9    5.24    0.61
  15   5  -5   -0.02    0.86
  18   4  -8    0.56    0.68
   4   6   7   12.43    0.88
   7   3  -5    3.71    0.40
   8   2  -7    2.38    0.48
  12   6  -1    0.12    0.88
  16   4  -8    0.34    0.67
  17   5  -6    1.86    0.73
  19   5  -6    2.84    0.75
  -3   3   7    3.40    0.41
  -2   4   8   23.57    0.68
   1   5   6   25.67    0.98
   3   5   3    0.06    0.73
   4   2  -4   23.07    0.58
   4   4  -1   11.75    0.73
   6   4  -3    3.33    0.70
   6   6   4    0.58    0.69
   7   5  -1    2.21    0.67
   7   7   9    0.11    0.79
  10   6   0    3.25    0.91
  11   3  -8    6.60    0.72
  11   5  -4   -0.18    0.83
  14   6  -2   10.33    0.94
  15   5  -6    0.54    0.85
  -1   3   3   -0.02    0.51
   0   4   4    9.19    0.60
   3   3  -2   22.00    0.73
   4   6   6   10.41    0.79
   5   3  -4  210.46    1.65
   7   7   8    5.16    0.91
   8   6   1    1.47    0.86
   9   3  -7   26.47    0.79
   9   5  -3    2.50    0.75
  12   4  -7    5.72    0.71
  12   6  -2    0.68    0.82
  13   3  -9    0.12    0.63
  14   4  -8    0.74    0.71
  14   6  -3   -0.57    0.91
  17   5  -7    0.57    0.80
  18   4  -9   -0.76    0.70
  19   5  -7    0.48    0.76
  -2   4   7    1.54    0.49
   1   3   0    1.38    0.47
   1   5   5   52.93    1.18
   3   5   2    3.15    0.78
   4   6   5    3.29    0.80
   5   5   0   -0.18    0.64
   7   5  -2    4.28    0.75
   7   7   7    1.40    0.88
   8   4  -5    1.08    0.72
  10   6  -1    0.17    0.85
  11   5  -5   -0.93    0.78
  15   3 -10    4.45    0.62
  16   4  -9    0.67    0.73
   0   4   3    1.11    0.51
   4   4  -2   10.94    0.73
   4   6   4    1.22    0.81
   5   7   9    0.48    0.60
   6   4  -4   42.82    1.11
   6   6   2   19.36    1.05
   7   7   6    1.15    0.91
   9   5  -4    0.35    0.77
  10   2  -9   69.08    0.98
  10   6  -2    1.51    0.87
  12   2 -10    0.15    0.50
  12   4  -8    8.64    0.77
  12   6  -3    0.60    0.84
  14   6  -4    1.23    0.80
  15   5  -7   -0.69    0.86
  19   5  -8    0.77    0.81
  -3   3   6   94.02    0.94
   1   5   4    0.66    0.68
   2   4   0    0.28    0.60
   2   6   7    0.58    0.66
   3   5   1   80.20    1.46
   5   5  -1    1.64    0.67
   5   7   8    0.74    0.72
   7   7   5    0.06    0.87
   8   4  -6    4.13    0.73
   9   7   3    4.68    0.94
  11   3  -9    4.80    0.68
  13   3 -10    4.92    0.72
  14   4  -9    2.84    0.73
  17   5  -8    1.66    0.79
  18   4 -10    2.41    0.65
  -2   4   6    8.99    0.56
  -1   3   2   96.42    1.03
   2   6   6    2.84    0.73
   3   3  -3   41.76    0.79
   4   6   3    0.81    0.79
   5   3  -5   53.17    0.98
   5   7   7   -0.08    0.76
   7   7   4    0.68    0.86
   9   3  -8    1.24    0.54
   9   5  -5   14.81    0.99
  10   6  -3    0.63    0.94
  11   5  -6    1.38    0.73
  12   6  -4    0.43    0.89
  13   5  -7   15.88    0.99
  14   6  -5   -0.24    0.82
  15   3 -11    1.30    0.64
  15   5  -8   -0.19    0.82
  16   4 -10    0.13    0.68
  19   5  -9    0.01    0.75
  -1   5   7   12.01    0.71
   0   4   2    0.43    0.52
   1   3  -1    1.01    0.51
   1   5   3    0.83    0.72
   2   2  -3    7.76    0.46
   4   2  -5   43.54    0.68
   4   4  -3    0.75    0.69
   5   5  -2    4.42    0.73
   5   7   6    0.22    0.75
   7   5  -4    0.47    0.67
   7   7   3    0.37    0.89
   8   6  -2    0.29    0.95
  12   4  -9    3.20    0.68
  17   5  -9   -0.46    0.76
  -1   5   6    8.94    0.73
   2   4  -1    1.37    0.46
   2   6   5    3.39    0.74
   4   6   2    0.58    0.73
   5   7   5   -0.61    0.72
   6   2  -7    1.03    0.45
   8   4  -7    0.07    0.74
  10   4  -8   32.45    1.01
  10   6  -4    0.76    0.91
  12   6  -5   -0.23    0.86
  13   5  -8    7.55    0.90
  14   4 -10    2.22    0.67
  15   5  -9    0.78    0.82
  -3   3   5   25.02    0.61
   1   5   2   -0.08    0.70
   2   6   4    1.22    0.72
   3   3  -4   29.77    0.84
   4   6   1    1.47    0.78
   5   7   4    0.27    0.85
   6   6  -1   -0.59    0.82
   7   7   2    0.12    0.90
   9   3  -9    7.56    0.60
   9   5  -6    1.59    0.74
   9   7   0   -1.22    0.89
  10   2 -10    1.17    0.42
  11   3 -10   12.87    0.75
  12   2 -11    5.97    0.49
  13   3 -11    1.05    0.59
  16   4 -11    1.08    0.67
  17   5 -10    1.03    0.76
  -1   3   1    0.23    0.46
  -1   5   5    0.76    0.61
   0   4   1    3.41    0.63
   0   6   7    6.18    0.67
   2   4  -2    4.67    0.61
   3   5  -1    8.93    0.80
   3   7   7   -1.03    0.71
   4   4  -4    3.63    0.71
   5   3  -6   -0.08    0.41
   6   4  -6    9.20    0.77
   7   5  -5    0.24    0.75
   7   7   1    0.99    0.91
   9   7  -1    0.80    0.76
  10   6  -5   -0.49    0.90
  12   4 -10    0.05    0.62
  12   6  -6   -0.83    0.85
  13   5  -9   -0.73    0.72
  14   6  -7    0.35    0.87
  -2   4   4   62.69    1.00
   1   3  -2   94.94    1.12
   1   5   1    1.09    0.74
   2   6   3    4.28    0.80
   3   7   6    0.19    0.71
   4   6   0    0.91    0.82
   6   6  -2   -0.01    0.72
   7   3  -8   40.92    0.95
   9   5  -7    6.69    0.90
  10   4  -9   21.85    0.87
  14   4 -11    0.40    0.62
  15   5 -10    1.51    0.80
  -1   5   4    1.25    0.63
   0   6   6    0.23    0.62
   2   2  -4  244.06    1.41
   2   6   2    3.82    0.72
   3   5  -2    3.65    0.67
   3   7   5    0.25    0.74
   5   7   2    0.52    0.89
  10   6  -6    1.07    0.88
  12   6  -7    1.24    0.87
  14   6  -8    0.34    0.79
  16   4 -12    1.18    0.63
  17   5 -11   -0.15    0.71
   0   0   0    0.00    0.00
;
_shelx_hkl_checksum              62095
loop_
_space_group_symop_operation_xyz
'x, y, z'
'-x, y, -z'
'x+1/2, y+1/2, z'
'-x+1/2, y+1/2, -z'
'-x, -y, -z'
'x, -y, z'
'-x+1/2, -y+1/2, -z'
'x+1/2, -y+1/2, z'
loop_
_atom_site_label
_atom_site_type_symbol
_atom_site_fract_x
_atom_site_fract_y
_atom_site_fract_z
_atom_site_U_iso_or_equiv
_atom_site_adp_type
_atom_site_occupancy
_atom_site_site_symmetry_order
_atom_site_calc_flag
_atom_site_refinement_flags_posn
_atom_site_refinement_flags_adp
_atom_site_refinement_flags_occupancy
_atom_site_disorder_assembly
_atom_site_disorder_group
Bi1 Bi 0.45118(5) 0.000000 0.18970(5) 0.0260(2) Uani 0.9415(18) 2 d S T P . .
Cu1 Cu 0.486(4) 0.000000 0.216(4) 0.058(16) Uiso 0.058(2) 2 d S . P . .
Bi2 Bi 0.15166(3) 0.000000 0.06265(4) 0.0283(2) Uani 0.7585(18) 2 d S T P . .
Ag2 Ag 0.15166(3) 0.000000 0.06265(4) 0.0283(2) Uani 0.200(0) 2 d S T P . .
Bi3 Bi 0.24386(4) 0.000000 0.62216(4) 0.0393(2) Uani 1 2 d S T P . .
Se1 Se 0.40233(8) 0.000000 0.36000(9) 0.0248(3) Uani 1 2 d S T P . .
Se2A Se 0.79288(14) 0.000000 0.1301(3) 0.0192(7) Uiso 0.731(19) 2 d S . P . .
Se2B Se 0.7987(4) 0.000000 0.1029(9) 0.021(2) Uiso 0.269(19) 2 d S . P . .
Se3 Se 0.13829(8) 0.000000 0.45506(8) 0.0218(3) Uani 1 2 d S T P . .
Se4 Se 0.09502(8) 0.000000 0.22958(9) 0.0259(3) Uani 1 2 d S T P . .
Se5 Se 0.000000 0.500000 0.000000 0.0191(4) Uani 1 4 d S T P . .
Cu3 Cu 0.0249(15) 0.000000 0.562(2) 0.083(11) Uani 0.104(6) 2 d S T P . .
Cu4 Cu 0.4635(12) 0.000000 0.5252(12) 0.077(5) Uani 0.221(7) 2 d S T P . .
Cu5 Cu 0.000000 0.328(3) 0.500000 0.062(3) Uani 0.317(7) 2 d S T P . .
loop_
_atom_site_aniso_label
_atom_site_aniso_U_11
_atom_site_aniso_U_22
_atom_site_aniso_U_33
_atom_site_aniso_U_23
_atom_site_aniso_U_13
_atom_site_aniso_U_12
Bi1 0.0282(4) 0.0263(3) 0.0234(4) 0.000 0.0043(3) 0.000
Bi2 0.0254(3) 0.0265(3) 0.0330(4) 0.000 0.0049(2) 0.000
Ag2 0.0254(3) 0.0265(3) 0.0330(4) 0.000 0.0049(2) 0.000
Bi3 0.0446(3) 0.0402(3) 0.0285(4) 0.000 -0.0068(2) 0.000
Se1 0.0261(6) 0.0252(6) 0.0251(8) 0.000 0.0103(5) 0.000
Se3 0.0221(5) 0.0221(6) 0.0206(7) 0.000 0.0018(4) 0.000
Se4 0.0229(6) 0.0231(6) 0.0294(8) 0.000 -0.0023(5) 0.000
Se5 0.0193(7) 0.0196(8) 0.0179(9) 0.000 0.0016(6) 0.000
Cu3 0.030(10) 0.15(3) 0.068(19) 0.000 -0.006(10) 0.000
Cu4 0.074(10) 0.057(8) 0.087(12) 0.000 -0.024(8) 0.000
Cu5 0.023(3) 0.115(9) 0.045(5) 0.000 -0.005(3) 0.000
loop_
_atom_type_symbol
_atom_type_description
_atom_type_scat_dispersion_real
_atom_type_scat_dispersion_imag
_atom_type_scat_source
Cu Cu 0.3240 0.8257 'International Tables Vol C Tables 4.2.6.8 and 6.1.1.4'
Se Se 0.2367 1.4831 'International Tables Vol C Tables 4.2.6.8 and 6.1.1.4'
Ag Ag -1.6473 0.7167 'International Tables Vol C Tables 4.2.6.8 and 6.1.1.4'
Bi Bi -1.3494 7.2566 'International Tables Vol C Tables 4.2.6.8 and 6.1.1.4'
loop_
_geom_angle_atom_site_label_1
_geom_angle_atom_site_label_2
_geom_angle_atom_site_label_3
_geom_angle
_geom_angle_site_symmetry_1
_geom_angle_site_symmetry_3
_geom_angle_publ_flag
Cu1 Bi1 Se1 69(5) . . ?
Cu1 Bi1 Se4 52(2) . 3 ?
Se1 Bi1 Se4 93.71(4) . 3 ?
Cu1 Bi1 Se4 52(2) . 3_545 ?
Se1 Bi1 Se4 93.71(4) . 3_545 ?
Se4 Bi1 Se4 93.59(4) 3 3_545 ?
Cu1 Bi1 Se2A 132.9(18) . 3_445 ?
Se1 Bi1 Se2A 90.55(10) . 3_445 ?
Se4 Bi1 Se2A 174.50(9) 3 3_445 ?
Se4 Bi1 Se2A 89.60(3) 3_545 3_445 ?
Cu1 Bi1 Se2A 132.9(19) . 3_455 ?
Se1 Bi1 Se2A 90.55(10) . 3_455 ?
Se4 Bi1 Se2A 89.60(3) 3 3_455 ?
Se4 Bi1 Se2A 174.50(9) 3_545 3_455 ?
Se2A Bi1 Se2A 86.87(5) 3_445 3_455 ?
Cu1 Bi1 Se5 112(5) . 3_545 ?
Se1 Bi1 Se5 178.69(4) . 3_545 ?
Se4 Bi1 Se5 87.19(3) 3 3_545 ?
Se4 Bi1 Se5 87.19(3) 3_545 3_545 ?
Se2A Bi1 Se5 88.50(10) 3_445 3_545 ?
Se2A Bi1 Se5 88.50(10) 3_455 3_545 ?
Cu1 Bi1 Se2B 136.7(9) . 3_445 ?
Se1 Bi1 Se2B 98.6(3) . 3_445 ?
Se4 Bi1 Se2B 167.1(3) 3 3_445 ?
Se4 Bi1 Se2B 89.40(6) 3_545 3_445 ?
Se2A Bi1 Se2B 8.11(18) 3_445 3_445 ?
Se2A Bi1 Se2B 86.51(6) 3_455 3_445 ?
Se5 Bi1 Se2B 80.4(3) 3_545 3_445 ?
Cu1 Bi1 Se2B 136.7(10) . 3_455 ?
Se1 Bi1 Se2B 98.6(3) . 3_455 ?
Se4 Bi1 Se2B 89.40(6) 3 3_455 ?
Se4 Bi1 Se2B 167.1(3) 3_545 3_455 ?
Se2A Bi1 Se2B 86.51(6) 3_445 3_455 ?
Se2A Bi1 Se2B 8.11(18) 3_455 3_455 ?
Se5 Bi1 Se2B 80.4(3) 3_545 3_455 ?
Se2B Bi1 Se2B 85.02(16) 3_445 3_455 ?
Bi1 Cu1 Se4 118(3) . 3 ?
Bi1 Cu1 Se4 118(3) . 3_545 ?
Se4 Cu1 Se4 110(2) 3 3_545 ?
Bi1 Cu1 Se1 99(5) . . ?
Se4 Cu1 Se1 105.1(17) 3 . ?
Se4 Cu1 Se1 105.1(17) 3_545 . ?
Se2B Bi2 Se4 178.30(11) 5_655 . ?
Se2B Bi2 Se2B 85.7(3) 5_655 3_455 ?
Se4 Bi2 Se2B 95.5(3) . 3_455 ?
Se2B Bi2 Se2B 85.7(3) 5_655 3_445 ?
Se4 Bi2 Se2B 95.5(3) . 3_445 ?
Se2B Bi2 Se2B 92.35(14) 3_455 3_445 ?
Se2B Bi2 Se2A 94.29(14) 5_655 3_455 ?
Se4 Bi2 Se2A 86.90(11) . 3_455 ?
Se2B Bi2 Se2A 8.6(2) 3_455 3_455 ?
Se2B Bi2 Se2A 92.59(7) 3_445 3_455 ?
Se2B Bi2 Se2A 94.29(14) 5_655 3_445 ?
Se4 Bi2 Se2A 86.90(11) . 3_445 ?
Se2B Bi2 Se2A 92.59(7) 3_455 3_445 ?
Se2B Bi2 Se2A 8.6(2) 3_445 3_445 ?
Se2A Bi2 Se2A 91.54(6) 3_455 3_445 ?
Se2B Bi2 Se5 88.29(8) 5_655 1_545 ?
Se4 Bi2 Se5 90.49(2) . 1_545 ?
Se2B Bi2 Se5 173.7(3) 3_455 1_545 ?
Se2B Bi2 Se5 89.15(7) 3_445 1_545 ?
Se2A Bi2 Se5 176.99(9) 3_455 1_545 ?
Se2A Bi2 Se5 89.82(3) 3_445 1_545 ?
Se2B Bi2 Se5 88.29(8) 5_655 . ?
Se4 Bi2 Se5 90.49(2) . . ?
Se2B Bi2 Se5 89.15(7) 3_455 . ?
Se2B Bi2 Se5 173.7(3) 3_445 . ?
Se2A Bi2 Se5 89.82(3) 3_455 . ?
Se2A Bi2 Se5 176.99(9) 3_445 . ?
Se5 Bi2 Se5 88.711(15) 1_545 . ?
Se2B Bi2 Se2A 0.52(12) 5_655 5_655 ?
Se4 Bi2 Se2A 177.77(4) . 5_655 ?
Se2B Bi2 Se2A 86.1(3) 3_455 5_655 ?
Se2B Bi2 Se2A 86.1(3) 3_445 5_655 ?
Se2A Bi2 Se2A 94.65(11) 3_455 5_655 ?
Se2A Bi2 Se2A 94.65(11) 3_445 5_655 ?
Se5 Bi2 Se2A 87.92(3) 1_545 5_655 ?
Se5 Bi2 Se2A 87.92(3) . 5_655 ?
Se3 Bi3 Se1 79.79(3) . 7_546 ?
Se3 Bi3 Se1 79.79(3) . 7_556 ?
Se1 Bi3 Se1 90.69(3) 7_546 7_556 ?
Se3 Bi3 Cu3 50.2(6) . . ?
Se1 Bi3 Cu3 50.5(2) 7_546 . ?
Se1 Bi3 Cu3 50.5(2) 7_556 . ?
Se3 Bi3 Se3 82.39(3) . 7_556 ?
Se1 Bi3 Se3 162.11(4) 7_546 7_556 ?
Se1 Bi3 Se3 87.73(2) 7_556 7_556 ?
Cu3 Bi3 Se3 117.2(4) . 7_556 ?
Se3 Bi3 Se3 82.39(3) . 7_546 ?
Se1 Bi3 Se3 87.73(2) 7_546 7_546 ?
Se1 Bi3 Se3 162.11(4) 7_556 7_546 ?
Cu3 Bi3 Se3 117.2(4) . 7_546 ?
Se3 Bi3 Se3 88.34(3) 7_556 7_546 ?
Cu4 Se1 Cu5 23.8(3) 5_656 7_556 ?
Cu4 Se1 Cu5 23.8(3) 5_656 3_545 ?
Cu5 Se1 Cu5 34.3(6) 7_556 3_545 ?
Cu4 Se1 Cu4 32.3(9) 5_656 . ?
Cu5 Se1 Cu4 22.9(2) 7_556 . ?
Cu5 Se1 Cu4 22.9(2) 3_545 . ?
Cu4 Se1 Cu3 56.1(5) 5_656 7_556 ?
Cu5 Se1 Cu3 39.2(6) 7_556 7_556 ?
Cu5 Se1 Cu3 73.3(6) 3_545 7_556 ?
Cu4 Se1 Cu3 59.2(6) . 7_556 ?
Cu4 Se1 Cu3 56.1(5) 5_656 7_546 ?
Cu5 Se1 Cu3 73.3(6) 7_556 7_546 ?
Cu5 Se1 Cu3 39.2(6) 3_545 7_546 ?
Cu4 Se1 Cu3 59.2(6) . 7_546 ?
Cu3 Se1 Cu3 111.5(10) 7_556 7_546 ?
Cu4 Se1 Cu1 103.3(15) 5_656 . ?
Cu5 Se1 Cu1 118.7(13) 7_556 . ?
Cu5 Se1 Cu1 118.7(13) 3_545 . ?
Cu4 Se1 Cu1 135.6(14) . . ?
Cu3 Se1 Cu1 101.7(10) 7_556 . ?
Cu3 Se1 Cu1 101.7(9) 7_546 . ?
Cu4 Se1 Bi1 114.9(5) 5_656 . ?
Cu5 Se1 Bi1 129.55(9) 7_556 . ?
Cu5 Se1 Bi1 129.55(9) 3_545 . ?
Cu4 Se1 Bi1 147.2(4) . . ?
Cu3 Se1 Bi1 107.7(6) 7_556 . ?
Cu3 Se1 Bi1 107.7(6) 7_546 . ?
Cu1 Se1 Bi1 11.6(14) . . ?
Cu4 Se1 Bi3 113.4(3) 5_656 7_546 ?
Cu5 Se1 Bi3 114.3(2) 7_556 7_546 ?
Cu5 Se1 Bi3 89.6(2) 3_545 7_546 ?
Cu4 Se1 Bi3 91.4(3) . 7_546 ?
Cu3 Se1 Bi3 139.9(6) 7_556 7_546 ?
Cu3 Se1 Bi3 65.8(4) 7_546 7_546 ?
Cu1 Se1 Bi3 118.3(8) . 7_546 ?
Bi1 Se1 Bi3 111.04(4) . 7_546 ?
Cu4 Se1 Bi3 113.4(3) 5_656 7_556 ?
Cu5 Se1 Bi3 89.6(2) 7_556 7_556 ?
Cu5 Se1 Bi3 114.3(2) 3_545 7_556 ?
Cu4 Se1 Bi3 91.4(3) . 7_556 ?
Cu3 Se1 Bi3 65.8(4) 7_556 7_556 ?
Cu3 Se1 Bi3 139.9(6) 7_546 7_556 ?
Cu1 Se1 Bi3 118.3(8) . 7_556 ?
Bi1 Se1 Bi3 111.04(4) . 7_556 ?
Bi3 Se1 Bi3 90.69(3) 7_546 7_556 ?
Bi2 Se2A Bi2 91.53(6) 3_545 3 ?
Bi2 Se2A Bi1 175.15(17) 3_545 3 ?
Bi2 Se2A Bi1 90.641(16) 3 3 ?
Bi2 Se2A Bi1 90.641(16) 3_545 3_545 ?
Bi2 Se2A Bi1 175.15(17) 3 3_545 ?
Bi1 Se2A Bi1 86.87(5) 3 3_545 ?
Bi2 Se2A Bi2 85.35(11) 3_545 5_655 ?
Bi2 Se2A Bi2 85.35(11) 3 5_655 ?
Bi1 Se2A Bi2 90.52(10) 3 5_655 ?
Bi1 Se2A Bi2 90.52(10) 3_545 5_655 ?
Bi2 Se2B Bi2 94.3(3) 5_655 3_545 ?
Bi2 Se2B Bi2 94.3(3) 5_655 3 ?
Bi2 Se2B Bi2 92.35(14) 3_545 3 ?
Bi2 Se2B Bi1 98.2(3) 5_655 3 ?
Bi2 Se2B Bi1 167.0(5) 3_545 3 ?
Bi2 Se2B Bi1 89.97(7) 3 3 ?
Bi2 Se2B Bi1 98.2(3) 5_655 3_545 ?
Bi2 Se2B Bi1 89.97(7) 3_545 3_545 ?
Bi2 Se2B Bi1 167.0(5) 3 3_545 ?
Bi1 Se2B Bi1 85.02(16) 3 3_545 ?
Cu3 Se3 Cu3 47.9(13) 5_556 . ?
Cu3 Se3 Cu5 40.6(5) 5_556 . ?
Cu3 Se3 Cu5 39.3(3) . . ?
Cu3 Se3 Cu5 40.6(5) 5_556 5_556 ?
Cu3 Se3 Cu5 39.3(3) . 5_556 ?
Cu5 Se3 Cu5 65.9(5) . 5_556 ?
Cu3 Se3 Cu4 56.8(3) 5_556 7_546 ?
Cu3 Se3 Cu4 60.0(4) . 7_546 ?
Cu5 Se3 Cu4 88.0(5) . 7_546 ?
Cu5 Se3 Cu4 22.4(3) 5_556 7_546 ?
Cu3 Se3 Cu4 56.8(3) 5_556 7_556 ?
Cu3 Se3 Cu4 60.0(4) . 7_556 ?
Cu5 Se3 Cu4 22.4(3) . 7_556 ?
Cu5 Se3 Cu4 88.0(5) 5_556 7_556 ?
Cu4 Se3 Cu4 109.6(7) 7_546 7_556 ?
Cu3 Se3 Bi3 118.7(8) 5_556 . ?
Cu3 Se3 Bi3 70.7(6) . . ?
Cu5 Se3 Bi3 92.91(4) . . ?
Cu5 Se3 Bi3 92.91(4) 5_556 . ?
Cu4 Se3 Bi3 96.0(3) 7_546 . ?
Cu4 Se3 Bi3 96.0(3) 7_556 . ?
Cu3 Se3 Bi3 123.7(4) 5_556 7_556 ?
Cu3 Se3 Bi3 135.17(9) . 7_556 ?
Cu5 Se3 Bi3 101.8(3) . 7_556 ?
Cu5 Se3 Bi3 164.3(2) 5_556 7_556 ?
Cu4 Se3 Bi3 162.8(4) 7_546 7_556 ?
Cu4 Se3 Bi3 79.4(4) 7_556 7_556 ?
Bi3 Se3 Bi3 97.61(3) . 7_556 ?
Cu3 Se3 Bi3 123.7(4) 5_556 7_546 ?
Cu3 Se3 Bi3 135.17(9) . 7_546 ?
Cu5 Se3 Bi3 164.3(2) . 7_546 ?
Cu5 Se3 Bi3 101.8(2) 5_556 7_546 ?
Cu4 Se3 Bi3 79.4(4) 7_546 7_546 ?
Cu4 Se3 Bi3 162.8(4) 7_556 7_546 ?
Bi3 Se3 Bi3 97.61(3) . 7_546 ?
Bi3 Se3 Bi3 88.34(3) 7_556 7_546 ?
Cu1 Se4 Cu1 110(2) 3_445 3_455 ?
Cu1 Se4 Bi2 100.0(13) 3_445 . ?
Cu1 Se4 Bi2 100.0(13) 3_455 . ?
Cu1 Se4 Bi1 10.1(13) 3_445 3_445 ?
Cu1 Se4 Bi1 101.9(11) 3_455 3_445 ?
Bi2 Se4 Bi1 95.25(4) . 3_445 ?
Cu1 Se4 Bi1 101.9(11) 3_445 3_455 ?
Cu1 Se4 Bi1 10.1(13) 3_455 3_455 ?
Bi2 Se4 Bi1 95.25(4) . 3_455 ?
Bi1 Se4 Bi1 93.59(4) 3_445 3_455 ?
Bi2 Se5 Bi2 180.00(2) 5 1_565 ?
Bi2 Se5 Bi2 88.711(15) 5 5_565 ?
Bi2 Se5 Bi2 91.289(15) 1_565 5_565 ?
Bi2 Se5 Bi2 91.289(15) 5 . ?
Bi2 Se5 Bi2 88.711(15) 1_565 . ?
Bi2 Se5 Bi2 180.0 5_565 . ?
Bi2 Se5 Bi1 93.047(16) 5 3_455 ?
Bi2 Se5 Bi1 86.953(16) 1_565 3_455 ?
Bi2 Se5 Bi1 93.047(16) 5_565 3_455 ?
Bi2 Se5 Bi1 86.952(16) . 3_455 ?
Bi2 Se5 Bi1 86.953(16) 5 7 ?
Bi2 Se5 Bi1 93.047(16) 1_565 7 ?
Bi2 Se5 Bi1 86.953(16) 5_565 7 ?
Bi2 Se5 Bi1 93.048(16) . 7 ?
Bi1 Se5 Bi1 180.0 3_455 7 ?
Cu5 Cu3 Cu5 110.8(18) . 5_556 ?
Cu5 Cu3 Cu3 55.4(9) . 5_556 ?
Cu5 Cu3 Cu3 55.4(9) 5_556 5_556 ?
Cu5 Cu3 Se3 80.0(7) . 5_556 ?
Cu5 Cu3 Se3 80.0(7) 5_556 5_556 ?
Cu3 Cu3 Se3 72.2(12) 5_556 5_556 ?
Cu5 Cu3 Cu4 125.6(15) . 3_445 ?
Cu5 Cu3 Cu4 22.8(5) 5_556 3_445 ?
Cu3 Cu3 Cu4 72.6(8) 5_556 3_445 ?
Se3 Cu3 Cu4 69.4(6) 5_556 3_445 ?
Cu5 Cu3 Cu4 22.8(5) . 3_455 ?
Cu5 Cu3 Cu4 125.6(15) 5_556 3_455 ?
Cu3 Cu3 Cu4 72.6(8) 5_556 3_455 ?
Se3 Cu3 Cu4 69.4(6) 5_556 3_455 ?
Cu4 Cu3 Cu4 132.1(12) 3_445 3_455 ?
Cu5 Cu3 Se3 73.4(10) . . ?
Cu5 Cu3 Se3 73.4(10) 5_556 . ?
Cu3 Cu3 Se3 59.8(13) 5_556 . ?
Se3 Cu3 Se3 132.1(13) 5_556 . ?
Cu4 Cu3 Se3 95.0(10) 3_445 . ?
Cu4 Cu3 Se3 95.0(10) 3_455 . ?
Cu5 Cu3 Cu4 114.4(15) . 7_546 ?
Cu5 Cu3 Cu4 15.2(4) 5_556 7_546 ?
Cu3 Cu3 Cu4 61.0(8) 5_556 7_546 ?
Se3 Cu3 Cu4 95.2(7) 5_556 7_546 ?
Cu4 Cu3 Cu4 32.7(9) 3_445 7_546 ?
Cu4 Cu3 Cu4 133.6(13) 3_455 7_546 ?
Se3 Cu3 Cu4 62.5(7) . 7_546 ?
Cu5 Cu3 Cu4 15.2(4) . 7_556 ?
Cu5 Cu3 Cu4 114.4(15) 5_556 7_556 ?
Cu3 Cu3 Cu4 61.0(8) 5_556 7_556 ?
Se3 Cu3 Cu4 95.2(7) 5_556 7_556 ?
Cu4 Cu3 Cu4 133.6(13) 3_445 7_556 ?
Cu4 Cu3 Cu4 32.7(9) 3_455 7_556 ?
Se3 Cu3 Cu4 62.5(7) . 7_556 ?
Cu4 Cu3 Cu4 113.8(14) 7_546 7_556 ?
Cu5 Cu3 Se1 67.3(4) . 7_556 ?
Cu5 Cu3 Se1 167.1(13) 5_556 7_556 ?
Cu3 Cu3 Se1 121.2(8) 5_556 7_556 ?
Se3 Cu3 Se1 111.5(7) 5_556 7_556 ?
Cu4 Cu3 Se1 166.1(14) 3_445 7_556 ?
Cu4 Cu3 Se1 57.3(3) 3_455 7_556 ?
Se3 Cu3 Se1 94.1(6) . 7_556 ?
Cu4 Cu3 Se1 152.7(10) 7_546 7_556 ?
Cu4 Cu3 Se1 60.3(3) 7_556 7_556 ?
Cu5 Cu3 Se1 167.1(13) . 7_546 ?
Cu5 Cu3 Se1 67.3(4) 5_556 7_546 ?
Cu3 Cu3 Se1 121.2(8) 5_556 7_546 ?
Se3 Cu3 Se1 111.5(7) 5_556 7_546 ?
Cu4 Cu3 Se1 57.3(3) 3_445 7_546 ?
Cu4 Cu3 Se1 166.1(14) 3_455 7_546 ?
Se3 Cu3 Se1 94.1(6) . 7_546 ?
Cu4 Cu3 Se1 60.3(3) 7_546 7_546 ?
Cu4 Cu3 Se1 152.7(10) 7_556 7_546 ?
Se1 Cu3 Se1 111.5(10) 7_556 7_546 ?
Cu5 Cu3 Cu5 126.7(14) . 1_545 ?
Cu5 Cu3 Cu5 16.0(5) 5_556 1_545 ?
Cu3 Cu3 Cu5 71.3(5) 5_556 1_545 ?
Se3 Cu3 Cu5 84.4(4) 5_556 1_545 ?
Cu4 Cu3 Cu5 15.9(5) 3_445 1_545 ?
Cu4 Cu3 Cu5 140.4(11) 3_455 1_545 ?
Se3 Cu3 Cu5 80.8(6) . 1_545 ?
Cu4 Cu3 Cu5 18.4(4) 7_546 1_545 ?
Cu4 Cu3 Cu5 129.7(12) 7_556 1_545 ?
Se1 Cu3 Cu5 161.6(8) 7_556 1_545 ?
Se1 Cu3 Cu5 51.89(10) 7_546 1_545 ?
Cu5 Cu4 Cu5 93(2) 7_556 3_545 ?
Cu5 Cu4 Cu4 46.5(12) 7_556 5_656 ?
Cu5 Cu4 Cu4 46.5(12) 3_545 5_656 ?
Cu5 Cu4 Cu3 40.8(10) 7_556 3 ?
Cu5 Cu4 Cu3 124.6(17) 3_545 3 ?
Cu4 Cu4 Cu3 82.1(9) 5_656 3 ?
Cu5 Cu4 Cu3 124.6(17) 7_556 3_545 ?
Cu5 Cu4 Cu3 40.8(10) 3_545 3_545 ?
Cu4 Cu4 Cu3 82.1(9) 5_656 3_545 ?
Cu3 Cu4 Cu3 132.1(12) 3 3_545 ?
Cu5 Cu4 Se1 84.6(8) 7_556 5_656 ?
Cu5 Cu4 Se1 84.6(8) 3_545 5_656 ?
Cu4 Cu4 Se1 82.1(11) 5_656 5_656 ?
Cu3 Cu4 Se1 66.6(6) 3 5_656 ?
Cu3 Cu4 Se1 66.6(6) 3_545 5_656 ?
Cu5 Cu4 Cu3 108.6(17) 7_556 7_546 ?
Cu5 Cu4 Cu3 26.3(8) 3_545 7_546 ?
Cu4 Cu4 Cu3 65.2(8) 5_656 7_546 ?
Cu3 Cu4 Cu3 147.3(9) 3 7_546 ?
Cu3 Cu4 Cu3 46.4(13) 3_545 7_546 ?
Se1 Cu4 Cu3 106.8(7) 5_656 7_546 ?
Cu5 Cu4 Cu3 26.3(8) 7_556 7_556 ?
Cu5 Cu4 Cu3 108.6(17) 3_545 7_556 ?
Cu4 Cu4 Cu3 65.2(8) 5_656 7_556 ?
Cu3 Cu4 Cu3 46.4(13) 3 7_556 ?
Cu3 Cu4 Cu3 147.3(9) 3_545 7_556 ?
Se1 Cu4 Cu3 106.8(7) 5_656 7_556 ?
Cu3 Cu4 Cu3 113.8(14) 7_546 7_556 ?
Cu5 Cu4 Se1 73.5(10) 7_556 . ?
Cu5 Cu4 Se1 73.5(10) 3_545 . ?
Cu4 Cu4 Se1 65.6(12) 5_656 . ?
Cu3 Cu4 Se1 106.9(9) 3 . ?
Cu3 Cu4 Se1 106.9(9) 3_545 . ?
Se1 Cu4 Se1 147.7(9) 5_656 . ?
Cu3 Cu4 Se1 60.5(7) 7_546 . ?
Cu3 Cu4 Se1 60.5(7) 7_556 . ?
Cu5 Cu4 Se3 163.7(14) 7_556 7_546 ?
Cu5 Cu4 Se3 77.0(9) 3_545 7_546 ?
Cu4 Cu4 Se3 122.2(6) 5_656 7_546 ?
Cu3 Cu4 Se3 154.6(12) 3 7_546 ?
Cu3 Cu4 Se3 53.8(5) 3_545 7_546 ?
Se1 Cu4 Se3 106.9(5) 5_656 7_546 ?
Cu3 Cu4 Se3 57.5(5) 7_546 7_546 ?
Cu3 Cu4 Se3 146.2(8) 7_556 7_546 ?
Se1 Cu4 Se3 91.2(4) . 7_546 ?
Cu5 Cu4 Se3 77.0(9) 7_556 7_556 ?
Cu5 Cu4 Se3 163.7(14) 3_545 7_556 ?
Cu4 Cu4 Se3 122.2(6) 5_656 7_556 ?
Cu3 Cu4 Se3 53.8(5) 3 7_556 ?
Cu3 Cu4 Se3 154.6(12) 3_545 7_556 ?
Se1 Cu4 Se3 106.9(5) 5_656 7_556 ?
Cu3 Cu4 Se3 146.2(8) 7_546 7_556 ?
Cu3 Cu4 Se3 57.5(5) 7_556 7_556 ?
Se1 Cu4 Se3 91.2(4) . 7_556 ?
Se3 Cu4 Se3 109.6(7) 7_546 7_556 ?
Cu4 Cu5 Cu4 87(2) 7_556 3_455 ?
Cu4 Cu5 Cu5 43.5(12) 7_556 5_566 ?
Cu4 Cu5 Cu5 43.5(12) 3_455 5_566 ?
Cu4 Cu5 Cu3 116.5(13) 7_556 5_556 ?
Cu4 Cu5 Cu3 138.4(11) 3_455 5_556 ?
Cu5 Cu5 Cu3 145.4(9) 5_566 5_556 ?
Cu4 Cu5 Cu3 138.4(11) 7_556 . ?
Cu4 Cu5 Cu3 116.5(13) 3_455 . ?
Cu5 Cu5 Cu3 145.4(9) 5_566 . ?
Cu3 Cu5 Cu3 69.2(18) 5_556 . ?
Cu4 Cu5 Se1 83.6(10) 7_556 7_556 ?
Cu4 Cu5 Se1 71.6(9) 3_455 7_556 ?
Cu5 Cu5 Se1 72.9(3) 5_566 7_556 ?
Cu3 Cu5 Se1 140.3(9) 5_556 7_556 ?
Cu3 Cu5 Se1 73.5(8) . 7_556 ?
Cu4 Cu5 Se1 71.6(9) 7_556 3_455 ?
Cu4 Cu5 Se1 83.6(10) 3_455 3_455 ?
Cu5 Cu5 Se1 72.9(3) 5_566 3_455 ?
Cu3 Cu5 Se1 73.5(8) 5_556 3_455 ?
Cu3 Cu5 Se1 140.3(9) . 3_455 ?
Se1 Cu5 Se1 145.7(6) 7_556 3_455 ?
Cu4 Cu5 Se3 80.6(10) 7_556 . ?
Cu4 Cu5 Se3 162.1(12) 3_455 . ?
Cu5 Cu5 Se3 122.9(3) 5_566 . ?
Cu3 Cu5 Se3 59.4(7) 5_556 . ?
Cu3 Cu5 Se3 67.3(9) . . ?
Se1 Cu5 Se3 94.10(9) 7_556 . ?
Se1 Cu5 Se3 104.41(11) 3_455 . ?
Cu4 Cu5 Se3 162.1(12) 7_556 5_556 ?
Cu4 Cu5 Se3 80.6(10) 3_455 5_556 ?
Cu5 Cu5 Se3 122.9(2) 5_566 5_556 ?
Cu3 Cu5 Se3 67.3(9) 5_556 5_556 ?
Cu3 Cu5 Se3 59.4(7) . 5_556 ?
Se1 Cu5 Se3 104.41(11) 7_556 5_556 ?
Se1 Cu5 Se3 94.10(9) 3_455 5_556 ?
Se3 Cu5 Se3 114.1(5) . 5_556 ?
Cu4 Cu5 Cu5 136.5(12) 7_556 5_556 ?
Cu4 Cu5 Cu5 136.5(12) 3_455 5_556 ?
Cu5 Cu5 Cu5 180.000(11) 5_566 5_556 ?
Cu3 Cu5 Cu5 34.6(9) 5_556 5_556 ?
Cu3 Cu5 Cu5 34.6(9) . 5_556 ?
Se1 Cu5 Cu5 107.1(3) 7_556 5_556 ?
Se1 Cu5 Cu5 107.1(3) 3_455 5_556 ?
Se3 Cu5 Cu5 57.1(3) . 5_556 ?
Se3 Cu5 Cu5 57.1(3) 5_556 5_556 ?
Cu4 Cu5 Cu3 53.0(13) 7_556 1_565 ?
Cu4 Cu5 Cu3 39.4(12) 3_455 1_565 ?
Cu5 Cu5 Cu3 18.7(5) 5_566 1_565 ?
Cu3 Cu5 Cu3 164.0(5) 5_556 1_565 ?
Cu3 Cu5 Cu3 126.7(14) . 1_565 ?
Se1 Cu5 Cu3 54.8(6) 7_556 1_565 ?
Se1 Cu5 Cu3 91.0(6) 3_455 1_565 ?
Se3 Cu5 Cu3 123.4(5) . 1_565 ?
Se3 Cu5 Cu3 118.7(5) 5_556 1_565 ?
Cu5 Cu5 Cu3 161.3(5) 5_556 1_565 ?
Cu4 Cu5 Cu3 39.4(12) 7_556 5_566 ?
Cu4 Cu5 Cu3 53.0(13) 3_455 5_566 ?
Cu5 Cu5 Cu3 18.7(5) 5_566 5_566 ?
Cu3 Cu5 Cu3 126.7(14) 5_556 5_566 ?
Cu3 Cu5 Cu3 164.0(5) . 5_566 ?
Se1 Cu5 Cu3 91.0(6) 7_556 5_566 ?
Se1 Cu5 Cu3 54.8(6) 3_455 5_566 ?
Se3 Cu5 Cu3 118.7(5) . 5_566 ?
Se3 Cu5 Cu3 123.4(5) 5_556 5_566 ?
Cu5 Cu5 Cu3 161.3(5) 5_556 5_566 ?
Cu3 Cu5 Cu3 37.3(11) 1_565 5_566 ?
loop_
_geom_bond_atom_site_label_1
_geom_bond_atom_site_label_2
_geom_bond_distance
_geom_bond_site_symmetry_2
_geom_bond_publ_flag
Bi1 Cu1 0.57(6) . ?
Bi1 Se1 2.7940(14) . ?
Bi1 Se4 2.8699(9) 3 ?
Bi1 Se4 2.8699(9) 3_545 ?
Bi1 Se2A 3.0427(14) 3_445 ?
Bi1 Se2A 3.0427(14) 3_455 ?
Bi1 Se5 3.0830(7) 3_545 ?
Bi1 Se2B 3.096(5) 3_445 ?
Bi1 Se2B 3.096(5) 3_455 ?
Cu1 Se4 2.56(3) 3 ?
Cu1 Se4 2.56(3) 3_545 ?
Cu1 Se1 2.64(6) . ?
Bi2 Se2B 2.727(15) 5_655 ?
Bi2 Se4 2.7884(15) . ?
Bi2 Se2B 2.900(3) 3_455 ?
Bi2 Se2B 2.900(3) 3_445 ?
Bi2 Se2A 2.9195(15) 3_455 ?
Bi2 Se2A 2.9195(15) 3_445 ?
Bi2 Se5 2.9922(4) 1_545 ?
Bi2 Se5 2.9922(4) . ?
Bi2 Se2A 3.164(5) 5_655 ?
Bi3 Se3 2.7187(14) . ?
Bi3 Se1 2.9408(8) 7_546 ?
Bi3 Se1 2.9408(8) 7_556 ?
Bi3 Cu3 2.99(2) . ?
Bi3 Se3 3.0023(9) 7_556 ?
Bi3 Se3 3.0023(9) 7_546 ?
Se1 Cu4 2.322(14) 5_656 ?
Se1 Cu5 2.436(4) 7_556 ?
Se1 Cu5 2.436(4) 3_545 ?
Se1 Cu4 2.526(16) . ?
Se1 Cu3 2.531(15) 7_556 ?
Se1 Cu3 2.531(15) 7_546 ?
Se3 Cu3 2.21(2) 5_556 ?
Se3 Cu3 2.43(3) . ?
Se3 Cu5 2.527(7) . ?
Se3 Cu5 2.527(7) 5_556 ?
Se3 Cu4 2.560(11) 7_546 ?
Se3 Cu4 2.560(11) 7_556 ?
Cu3 Cu5 1.670(19) . ?
Cu3 Cu5 1.670(19) 5_556 ?
Cu3 Cu3 1.90(6) 5_556 ?
Cu3 Cu4 2.289(11) 3_445 ?
Cu3 Cu4 2.289(11) 3_455 ?
Cu3 Cu4 2.498(19) 7_546 ?
Cu3 Cu4 2.498(19) 7_556 ?
Cu3 Cu5 2.965(16) 1_545 ?
Cu4 Cu5 0.989(11) 7_556 ?
Cu4 Cu5 0.989(11) 3_545 ?
Cu4 Cu4 1.36(4) 5_656 ?
Cu5 Cu5 1.44(3) 5_566 ?
Cu5 Cu5 2.75(3) 5_556 ?
