#------------------------------------------------------------------------------
#$Date: 2022-09-09 01:50:06 +0300 (Fri, 09 Sep 2022) $
#$Revision: 277740 $
#$URL: file:///home/coder/svn-repositories/cod/cif/7/71/12/7711217.cif $
#------------------------------------------------------------------------------
#
# This file is available in the Crystallography Open Database (COD),
# http://www.crystallography.net/
#
# All data on this site have been placed in the public domain by the
# contributors.
#
data_7711217
loop_
_publ_author_name
'Luo, Bo-Hong'
'Zhao, Si-Yang'
'Pu, Yong-Li'
'Zhou, Xiang-Yu'
'Xie, Jun-Zhou'
'Chen, Long'
'Wu, Min'
'Zhou, Min'
'Zhang, Hua-Xin'
_publ_section_title
;
 Influence of the pendant groups on electrochemical water oxidation
 catalyzed by cobalt(II) triazolylpyridine complexes
;
_journal_name_full               'Dalton Transactions'
_journal_paper_doi               10.1039/D2DT01780F
_journal_year                    2022
_chemical_formula_moiety         'C20 H20 Cl2 Co N8 O4, 2[CH4O]'
_chemical_formula_sum            'C22 H28 Cl2 Co N8 O6'
_chemical_formula_weight         630.356
_space_group_crystal_system      triclinic
_space_group_IT_number           2
_space_group_name_Hall           '-P 1'
_space_group_name_H-M_alt        'P -1'
_symmetry_Int_Tables_number      2
_audit_creation_date             2022-09-02
_audit_creation_method
;
Olex2 1.5-dev
(compiled 2022.05.24 svn.r152b0213 for OlexSys, GUI svn.r6264)
;
_audit_update_record
;
2022-09-06 deposited with the CCDC.	2022-09-08 downloaded from the CCDC.
;
_cell_angle_alpha                86.849(4)
_cell_angle_beta                 75.453(4)
_cell_angle_gamma                62.022(6)
_cell_formula_units_Z            1
_cell_length_a                   8.2052(5)
_cell_length_b                   8.6632(5)
_cell_length_c                   11.9123(4)
_cell_measurement_reflns_used    4753
_cell_measurement_temperature    293(2)
_cell_measurement_theta_max      75.2580
_cell_measurement_theta_min      3.8440
_cell_volume                     721.87(8)
_computing_cell_refinement       'CrysAlisPro 1.171.41.123a (Rigaku OD, 2022)'
_computing_data_collection       'CrysAlisPro 1.171.41.123a (Rigaku OD, 2022)'
_computing_data_reduction        'CrysAlisPro 1.171.41.123a (Rigaku OD, 2022)'
_computing_molecular_graphics    'Olex2 1.5-dev (Dolomanov et al., 2009)'
_computing_publication_material  'Olex2 1.5-dev (Dolomanov et al., 2009)'
_computing_structure_refinement  'olex2.refine 1.5-dev (Bourhis et al., 2015)'
_computing_structure_solution    'SHELXS-97 (Sheldrick, 1990)'
_diffrn_measured_fraction_theta_full 0.9729
_diffrn_measured_fraction_theta_max 0.9250
_diffrn_measurement_device_type  'CCD area detector'
_diffrn_measurement_method       'phi and omega scans'
_diffrn_radiation_type           'Cu K\a'
_diffrn_radiation_wavelength     1.54178
_diffrn_reflns_av_R_equivalents  0.0471
_diffrn_reflns_av_unetI/netI     0.0404
_diffrn_reflns_Laue_measured_fraction_full 0.9729
_diffrn_reflns_Laue_measured_fraction_max 0.9250
_diffrn_reflns_limit_h_max       10
_diffrn_reflns_limit_h_min       -10
_diffrn_reflns_limit_k_max       10
_diffrn_reflns_limit_k_min       -8
_diffrn_reflns_limit_l_max       14
_diffrn_reflns_limit_l_min       -14
_diffrn_reflns_number            6604
_diffrn_reflns_point_group_measured_fraction_full 0.9729
_diffrn_reflns_point_group_measured_fraction_max 0.9250
_diffrn_reflns_theta_full        67.6786
_diffrn_reflns_theta_max         75.51
_diffrn_reflns_theta_min         5.80
_exptl_absorpt_coefficient_mu    6.800
_exptl_absorpt_correction_T_max  1.00000
_exptl_absorpt_correction_T_min  0.10988
_exptl_absorpt_correction_type   multi-scan
_exptl_absorpt_process_details   'SADABS (Sheldrick,1996)'
_exptl_crystal_colour            pink
_exptl_crystal_colour_primary    pink
_exptl_crystal_density_diffrn    1.450
_exptl_crystal_description       block
_exptl_crystal_F_000             324.611
_exptl_crystal_size_max          0.21
_exptl_crystal_size_mid          0.19
_exptl_crystal_size_min          0.15
_refine_diff_density_max         0.4712
_refine_diff_density_min         -0.7965
_refine_diff_density_rms         0.0925
_refine_ls_d_res_high            0.7962
_refine_ls_d_res_low             7.6300
_refine_ls_goodness_of_fit_ref   1.0517
_refine_ls_hydrogen_treatment    constr
_refine_ls_matrix_type           full
_refine_ls_number_constraints    17
_refine_ls_number_parameters     160
_refine_ls_number_reflns         2763
_refine_ls_number_restraints     0
_refine_ls_restrained_S_all      1.0517
_refine_ls_R_factor_all          0.0619
_refine_ls_R_factor_gt           0.0592
_refine_ls_shift/su_max          -0.0003
_refine_ls_shift/su_mean         0.0000
_refine_ls_structure_factor_coef Fsqd
_refine_ls_weighting_details
'w=1/[\s^2^(Fo^2^)+(0.1230P)^2^+0.1786P] where P=(Fo^2^+2Fc^2^)/3'
_refine_ls_weighting_scheme      calc
_refine_ls_wR_factor_gt          0.1662
_refine_ls_wR_factor_ref         0.1702
_reflns_Friedel_coverage         0.0
_reflns_limit_h_max              10
_reflns_limit_h_min              -9
_reflns_limit_k_max              10
_reflns_limit_k_min              -10
_reflns_limit_l_max              14
_reflns_limit_l_min              0
_reflns_number_gt                2589
_reflns_number_total             2763
_reflns_threshold_expression     I>=2u(I)
_iucr_refine_instructions_details
;
TITL 0725-luo2 in P1 New:P-1
CELL 1.54178 8.2052 8.6632 11.9123 86.849 75.453 62.022
ZERR 1 0.0005 0.0005 0.0004 0.004 0.004 0.006
LATT 1
SFAC C H Cl Co N O
UNIT 22 28 2 1 8 6

L.S. 20
PLAN  -20
CONF
FMAP 2
ACTA 
BOND $H
MORE -1
ABIN 
OMIT 0 0 1
OMIT -5 -10 2
OMIT -5 -10 1
WGHT 0.122992 0.1786
FVAR 0.224043
REM <olex2.extras>
REM <selected_cif_records
REM  <bonds
REM   <row "$M">
REM  >
REM  <angles
REM   <row "$* $M $*">
REM  >
REM >
REM <HklSrc "%.\\0725-luo2.hkl">
REM </olex2.extras>

Co1   4     0.50000  0.50000  0.50000  10.50000  0.03251  0.04745  0.02948 =
 -0.00436  0.00499 -0.02832 
Cl1   3     0.66103  0.30374  0.63880  11.00000  0.05197  0.06561  0.04843 =
 0.01220 -0.01317 -0.03954 
O2    6    -0.29734  0.52189  0.97031  11.00000  0.04630  0.10857  0.03383 =
 0.00531  0.00648 -0.03557 
O1    6     0.01287  0.34427  0.89531  11.00000  0.05992  0.08220  0.04420 =
 0.01430 -0.00369 -0.01379 
N2    5     0.24699  0.48366  0.58385  11.00000  0.03410  0.05177  0.03040 =
 -0.00057  0.00373 -0.02828 
N4    5    -0.00602  0.48581  0.68318  11.00000  0.03033  0.06026  0.03230 =
 0.00695 -0.00164 -0.02719 
N1    5     0.53131  0.27942  0.40730  11.00000  0.03767  0.04414  0.02927 =
 0.00133 -0.00144 -0.02422 
N3    5     0.10056  0.56890  0.67111  11.00000  0.03757  0.05801  0.03400 =
 0.00014  0.00366 -0.03039 
C8    1    -0.17892  0.54646  0.77687  11.00000  0.02892  0.06860  0.03678 =
 0.00715  0.00115 -0.02422 
AFIX 23
H8a   2    -0.23448  0.67207  0.79253  11.00000 -1.20000 
H8b   2    -0.27079  0.52323  0.75344  11.00000 -1.20000 
AFIX 0
C6    1     0.23494  0.34873  0.53980  11.00000  0.03355  0.04513  0.03028 =
 0.00842 -0.00832 -0.02564 
C5    1     0.39067  0.23582  0.44214  11.00000  0.03627  0.04116  0.03018 =
 0.00842 -0.00818 -0.02293 
C7    1     0.07233  0.35056  0.60443  11.00000  0.03614  0.05701  0.03580 =
 0.00832 -0.00756 -0.03078 
AFIX 43
H7    2     0.02555  0.27398  0.59570  11.00000 -1.20000 
AFIX 0
C9    1    -0.13757  0.45561  0.88657  11.00000  0.03881  0.05999  0.03329 =
 0.00240 -0.00203 -0.02715 
C3    1     0.54864 -0.00369  0.29888  11.00000  0.06871  0.04294  0.04342 =
 -0.00160 -0.01388 -0.02860 
AFIX 43
H3    2     0.55498 -0.09931  0.26246  11.00000 -1.20000 
AFIX 0
C1    1     0.67946  0.18195  0.31970  11.00000  0.04380  0.05028  0.03791 =
 -0.00308  0.00441 -0.02670 
AFIX 43
H1    2     0.77797  0.21095  0.29556  11.00000 -1.20000 
AFIX 0
C4    1     0.39337  0.09558  0.38942  11.00000  0.04983  0.04766  0.04384 =
 0.00661 -0.01574 -0.02982 
AFIX 43
H4    2     0.29316  0.06898  0.41438  11.00000 -1.20000 
AFIX 0
C2    1     0.69308  0.03974  0.26319  11.00000  0.05628  0.05056  0.04174 =
 -0.00801  0.00037 -0.02304 
AFIX 43
H2    2     0.79827 -0.02523  0.20211  11.00000 -1.20000 
AFIX 0
C10   1    -0.28781  0.44763  1.08274  11.00000  0.08034  0.15441  0.03194 =
 0.01617 -0.00152 -0.06246 
AFIX 33
H10a  2    -0.41137  0.50546  1.13651  11.00000 -1.50000 
H10b  2    -0.24842  0.32471  1.07401  11.00000 -1.50000 
H10c  2    -0.19736  0.46381  1.11175  11.00000 -1.50000 
AFIX 0
HKLF 4

END
Q3 1 0.592593 0.266667 0.65 11 0.05 0.42
Q1 1 0.592593 0.533333 0.475 11 0.05 0.47
Q4 1 0.259259 0.433333 0.55 11 0.05 0.38
Q2 1 0.444444 0.566667 0.575 11 0.05 0.45
Q5 1 0.62963 0.433333 0.625 11 0.05 0.35

  REM The information below was added by Olex2.
  REM
  REM R1 = 0.0592 for 2589 Fo > 4sig(Fo) and 0.0619 for all 2763 data
  REM 160 parameters refined using 0 restraints
  REM Highest difference peak 0.4712, deepest hole -0.7965
  REM Mean Shift 0.0000, Max Shift -0.0003.

  REM +++ Tabular Listing of Refinement Information +++
  REM R1_all = 0.0619
  REM R1_gt = 0.0592
  REM wR_ref = 0.1702
  REM GOOF = 1.0517
  REM Shift_max = -0.0003
  REM Shift_mean = 0.0000
  REM Reflections_all = 2763
  REM Reflections_gt = 2589
  REM Parameters = 160
  REM Hole = -0.7965
  REM Peak = 0.4712
  REM Flack = n/a

  
;
_cod_data_source_file            d2dt01780f2.cif
_cod_data_source_block           0725-luo2
_cod_depositor_comments
;
The following automatic conversions were performed:

data item '_exptl_absorpt_correction_type' value 'MULTI-SCAN' was
changed to 'multi-scan' in accordance with the
/home/data/users/saulius/crontab/automatic-downloads/rss-feeds/RSC/lib/dictionaries/cif_core.dic
dictionary named 'cif_core.dic' version 2.4.2 last updated on
2011-04-26.

Automatic conversion script
Id: cif_fix_values 7556 2019-12-06 15:28:31Z antanas 
;
_cod_original_formula_sum        'C22 H28 Cl2 Co1 N8 O6'
_cod_database_code               7711217
_olex2_refinement_description
;
1. Fixed Uiso
 At 1.2 times of:
  All C(H) groups, All C(H,H) groups
 At 1.5 times of:
  All C(H,H,H) groups
2. Others
 Fixed Sof: O3(0.5) O33(0.5)
3.a Secondary CH2 refined with riding coordinates:
 C8(H8a,H8b)
3.b Me refined with riding coordinates:
 C10(H10a,H10b,H10c)
3.c Aromatic/amide H refined with riding coordinates:
 C7(H7), C3(H3), C1(H1), C4(H4), C2(H2)
;
_smtbx_masks_special_details
;
A solvent mask was calculated and 39 electrons were 
found in a volume of 184\%A^3^ in 1 void per unit cell. 
This is consistent with the presence of 2[CH4O] per Formula Unit 
which account for 36 electrons per unit cell.
;
_smtbx_masks_void_probe_radius   1.2
_smtbx_masks_void_truncation_radius 1.2
_shelx_fab_file
;
-9 -8 1 -0.1806 -0.5053
-9 -7 1 -0.2302 -0.0453
-9 -7 2 0.2229 -0.3181
-9 -6 1 0.1284 0.0884
-9 -6 2 0.3109 -0.1089
-9 -6 3 0.0295 -0.2247
-9 -5 1 0.3469 -0.1153
-9 -5 2 0.3543 -0.1159
-9 -5 3 0.2854 -0.0062
-9 -4 1 0.2396 -0.0123
-9 -4 2 0.1857 0.0175
-9 -4 3 0.2345 0.0639
-9 -3 1 -0.1069 0.1126
-9 -3 2 -0.1072 0.2185
-9 -3 3 -0.0450 0.1326
-9 -2 1 -0.4535 0.1697
-9 -2 2 -0.2908 0.2268
-9 -1 1 -0.2931 0.3573
-8 -9 1 0.3503 -0.0550
-8 -9 2 -0.5018 0.3075
-8 -8 1 0.2252 -0.0576
-8 -8 2 -0.2502 0.2723
-8 -8 3 -0.5867 0.2329
-8 -8 4 -0.2109 -0.3284
-8 -7 1 0.2485 -0.0732
-8 -7 2 0.3314 -0.0689
-8 -7 3 -0.0951 -0.0398
-8 -7 4 0.0560 -0.1293
-8 -7 5 0.0629 -0.2513
-8 -6 1 0.1284 0.0939
-8 -6 2 0.3007 -0.1002
-8 -6 3 0.0042 -0.0774
-8 -6 4 0.0145 0.1357
-8 -6 5 0.1809 0.2503
-8 -5 1 0.0139 -0.0215
-8 -5 2 0.0758 0.0423
-8 -5 3 -0.0562 0.1098
-8 -5 4 -0.2654 0.1372
-8 -5 5 -0.1374 0.0776
-8 -5 6 -0.0737 0.0805
-8 -4 1 -0.2382 -0.1914
-8 -4 2 -0.0203 -0.0507
-8 -4 3 -0.0284 0.0121
-8 -4 4 -0.4042 -0.0773
-8 -4 5 -0.3698 -0.1866
-8 -4 6 -0.1633 -0.3630
-8 -3 1 -0.5314 0.0610
-8 -3 2 -0.0939 0.0131
-8 -3 3 -0.0153 -0.0854
-8 -3 4 -0.2328 -0.1109
-8 -3 5 -0.1349 -0.0342
-8 -2 1 -0.3497 0.1410
-8 -2 2 0.2241 0.1501
-8 -2 3 0.2701 0.1096
-8 -2 4 0.2326 0.1469
-8 -2 5 0.2605 0.1993
-8 -1 1 0.0471 -0.0475
-8 -1 2 0.5424 -0.0096
-8 -1 3 0.4424 0.1784
-8 -1 4 0.4572 0.2450
-8 0 1 0.1736 -0.0809
-8 0 2 0.2479 -0.1387
-8 0 3 0.0479 0.1602
-8 1 1 0.1084 -0.1861
-7 -10 1 0.6843 -0.1794
-7 -10 2 -0.5862 0.1664
-7 -9 1 0.0187 0.0515
-7 -9 2 -0.8717 0.1813
-7 -9 3 0.0410 0.0582
-7 -9 4 0.2034 -0.2274
-7 -8 1 -0.5850 0.2671
-7 -8 2 -0.6386 0.2297
-7 -8 3 0.3029 -0.0330
-7 -8 4 0.6478 -0.3159
-7 -8 5 0.4571 -0.1048
-7 -8 6 0.6712 0.2086
-7 -7 1 -0.2631 -0.0475
-7 -7 2 -0.1748 0.0478
-7 -7 3 0.0743 0.0276
-7 -7 4 0.2401 -0.0582
-7 -7 5 0.1154 0.0149
-7 -7 6 0.3021 0.2465
-7 -7 7 0.0318 0.2714
-7 -6 1 -0.2370 -0.2263
-7 -6 2 -0.0336 -0.2037
-7 -6 3 -0.0444 -0.0369
-7 -6 4 0.1011 0.1281
-7 -6 5 0.2900 0.0637
-7 -6 6 0.2773 0.0621
-7 -6 7 0.1171 -0.1252
-7 -5 1 -0.8254 0.1418
-7 -5 2 -0.2502 0.0168
-7 -5 3 0.1382 -0.0571
-7 -5 4 0.4125 -0.0240
-7 -5 5 0.7948 -0.0688
-7 -5 6 0.5050 0.0314
-7 -5 7 0.2588 -0.0185
-7 -4 1 -0.5489 0.0948
-7 -4 2 -0.1669 0.1817
-7 -4 3 0.0772 0.0630
-7 -4 4 0.2017 -0.0679
-7 -4 5 0.7222 -0.0823
-7 -4 6 0.6087 0.0980
-7 -4 7 0.3176 0.3511
-7 -4 8 -0.1393 0.6389
-7 -3 1 0.1066 -0.2434
-7 -3 2 0.0614 -0.1085
-7 -3 3 -0.2120 -0.0109
-7 -3 4 -0.2316 0.0478
-7 -3 5 0.4413 0.0771
-7 -3 6 0.6791 0.0105
-7 -3 7 0.3278 0.2320
-7 -2 1 0.1600 0.0116
-7 -2 2 0.0760 -0.0867
-7 -2 3 -0.3463 -0.0453
-7 -2 4 -0.3249 0.0418
-7 -2 5 0.2353 0.0402
-7 -2 6 0.3876 -0.1659
-7 -2 7 -0.0188 -0.0261
-7 -1 1 0.2698 0.1896
-7 -1 2 0.1162 0.1125
-7 -1 3 -0.3206 0.0953
-7 -1 4 -0.3764 0.0001
-7 -1 5 -0.1840 -0.0011
-7 -1 6 -0.3172 0.0085
-7 -1 7 -0.4568 0.2106
-7 0 1 0.5376 -0.0515
-7 0 2 0.0186 -0.0227
-7 0 3 -0.3500 0.0723
-7 0 4 -0.4303 -0.0725
-7 0 5 -0.5003 0.1166
-7 0 6 -0.7064 0.3441
-7 1 1 0.3573 -0.0911
-7 1 2 -0.2961 -0.0386
-7 1 3 -0.2946 0.0025
-7 1 4 -0.1478 -0.1852
-7 1 5 -0.3363 0.1360
-7 2 1 -0.0610 -0.0480
-7 2 2 -0.3789 0.0685
-7 2 3 -0.1056 -0.1029
-6 -10 1 1.3938 0.2682
-6 -10 2 -0.1174 0.2626
-6 -10 3 0.7849 0.0901
-6 -9 1 0.6758 -0.0330
-6 -9 2 -1.0202 0.1113
-6 -9 3 0.3590 0.1188
-6 -9 4 0.1901 0.0065
-6 -9 5 0.5140 0.0255
-6 -8 1 0.2721 -0.1300
-6 -8 2 -0.8355 -0.1894
-6 -8 3 0.0924 -0.1340
-6 -8 4 0.1254 -0.0955
-6 -8 5 0.5155 0.0621
-6 -8 6 1.1239 0.0428
-6 -8 7 0.0731 0.0003
-6 -7 1 -0.4383 0.2016
-6 -7 2 -0.4054 0.0139
-6 -7 3 0.0164 -0.1041
-6 -7 4 0.0106 -0.1253
-6 -7 5 0.1828 0.0399
-6 -7 6 0.6578 0.1690
-6 -7 7 -0.0407 0.1181
-6 -7 8 0.1748 0.0468
-6 -6 1 -0.7742 0.0282
-6 -6 2 -0.2543 0.1206
-6 -6 3 -0.1313 0.1224
-6 -6 4 -0.1012 0.0510
-6 -6 5 -0.0982 -0.0378
-6 -6 6 -0.1299 0.0587
-6 -6 7 -0.4136 0.0293
-6 -6 8 -0.0388 0.0584
-6 -5 1 -0.1108 -0.2589
-6 -5 2 0.3590 -0.1674
-6 -5 3 0.1580 -0.0325
-6 -5 4 -0.1701 0.0629
-6 -5 5 -0.4905 -0.0371
-6 -5 6 -0.9033 -0.0065
-6 -5 7 -0.6767 -0.1004
-6 -5 8 -0.1617 0.0090
-6 -5 9 0.2582 -0.1929
-6 -4 1 0.2548 0.1308
-6 -4 2 0.5195 -0.0240
-6 -4 3 0.2546 -0.1427
-6 -4 4 -0.2044 -0.0971
-6 -4 5 -0.5918 -0.0347
-6 -4 6 -0.9473 0.0724
-6 -4 7 -0.5252 0.0083
-6 -4 8 0.0217 -0.0170
-6 -4 9 0.4403 -0.2853
-6 -3 1 -0.2291 0.1744
-6 -3 2 -0.2360 0.1876
-6 -3 3 -0.1031 0.0811
-6 -3 4 0.1335 -0.0030
-6 -3 5 0.1694 -0.0180
-6 -3 6 -0.0646 0.0042
-6 -3 7 -0.2286 0.0972
-6 -3 8 0.0329 0.0295
-6 -3 9 0.0711 -0.1389
-6 -2 1 -0.5670 -0.2283
-6 -2 2 -0.7090 -0.1213
-6 -2 3 -0.1730 0.0359
-6 -2 4 0.6987 0.0664
-6 -2 5 0.9798 -0.0044
-6 -2 6 0.6074 -0.0831
-6 -2 7 -0.1630 0.1584
-6 -2 8 0.0144 0.1724
-6 -2 9 -0.2726 0.2674
-6 -1 1 -0.1765 -0.0135
-6 -1 2 -0.5975 -0.1305
-6 -1 3 -0.1668 -0.0695
-6 -1 4 0.5494 -0.0543
-6 -1 5 0.7529 -0.0268
-6 -1 6 0.3368 -0.0278
-6 -1 7 -0.1904 0.1672
-6 -1 8 0.2183 0.0986
-6 0 1 0.2520 0.1624
-6 0 2 -0.5868 0.1209
-6 0 3 -0.3679 0.0979
-6 0 4 -0.0794 -0.0168
-6 0 5 0.1160 0.0730
-6 0 6 -0.0971 -0.0133
-6 0 7 0.0419 -0.1577
-6 0 8 0.3317 -0.4030
-6 1 1 0.1851 -0.1074
-6 1 2 -0.6465 0.0234
-6 1 3 -0.2366 0.0822
-6 1 4 -0.1891 0.0080
-6 1 5 -0.1080 0.1548
-6 1 6 -0.2385 -0.1621
-6 1 7 0.2753 -0.4956
-6 2 1 0.0452 -0.0631
-6 2 2 -0.3446 -0.0042
-6 2 3 0.2538 -0.0362
-6 2 4 0.1314 0.0253
-6 2 5 -0.1682 0.1990
-6 2 6 -0.4008 -0.2394
-6 3 1 -0.1008 0.0787
-6 3 2 -0.1112 0.0321
-6 3 3 0.3229 -0.0952
-6 3 4 0.2310 0.2113
-6 4 1 -0.2376 0.0727
-6 4 2 -0.2142 -0.0770
-5 -10 1 2.9347 -0.0950
-5 -10 2 -0.9154 -0.1065
-5 -10 3 -0.8418 -0.0561
-5 -10 4 -1.8208 0.0537
-5 -9 1 1.3971 0.2160
-5 -9 2 -1.0182 0.1638
-5 -9 3 0.0665 0.0198
-5 -9 4 -1.1007 -0.1029
-5 -9 5 -1.3175 -0.0765
-5 -9 6 -0.8214 -0.0551
-5 -8 1 -0.4705 -0.0271
-5 -8 2 -1.3012 0.1142
-5 -8 3 0.1935 0.1354
-5 -8 4 -0.3917 -0.0413
-5 -8 5 -0.9583 -0.0968
-5 -8 6 -1.1946 -0.0634
-5 -8 7 -2.7323 0.1260
-5 -8 8 -1.5413 0.3403
-5 -7 1 -0.1568 -0.2033
-5 -7 2 -0.3559 -0.1759
-5 -7 3 -0.1005 -0.0504
-5 -7 4 -0.5886 -0.0425
-5 -7 5 -0.9243 -0.0103
-5 -7 6 -0.7691 -0.0204
-5 -7 7 -1.7663 0.0330
-5 -7 8 -0.4835 0.1949
-5 -7 9 -0.1660 0.1989
-5 -6 1 0.8017 0.1893
-5 -6 2 1.0376 0.0667
-5 -6 3 0.3569 -0.0428
-5 -6 4 -0.2660 -0.1110
-5 -6 5 -0.6282 -0.0657
-5 -6 6 -0.2480 0.0229
-5 -6 7 -0.2445 -0.0004
-5 -6 8 0.9025 0.0716
-5 -6 9 0.6479 0.1136
-5 -6 10 0.2339 0.4237
-5 -5 1 1.0418 0.0661
-5 -5 2 1.4557 0.2226
-5 -5 3 0.7417 0.1820
-5 -5 4 0.1241 0.0333
-5 -5 5 -0.5299 -0.0952
-5 -5 6 -0.4955 -0.0176
-5 -5 7 -0.1064 -0.0238
-5 -5 8 0.5724 0.0690
-5 -5 9 0.2981 -0.0024
-5 -5 10 0.0050 0.1691
-5 -4 1 0.4789 -0.2835
-5 -4 2 0.9191 -0.1694
-5 -4 3 0.3864 -0.0286
-5 -4 4 -0.1577 0.0614
-5 -4 5 -0.8859 0.0230
-5 -4 6 -0.8500 0.0284
-5 -4 7 -0.4742 -0.0548
-5 -4 8 -0.2271 -0.0232
-5 -4 9 -0.3856 -0.1464
-5 -4 10 -0.3469 -0.0600
-5 -3 1 -0.8347 0.1376
-5 -3 2 0.1098 -0.0959
-5 -3 3 0.1098 -0.1714
-5 -3 4 -0.0535 -0.0886
-5 -3 5 -0.6978 0.0021
-5 -3 6 -0.4355 0.0428
-5 -3 7 -0.3832 0.0229
-5 -3 8 -0.1966 -0.0093
-5 -3 9 -0.3897 -0.0484
-5 -3 10 -0.2056 0.0308
-5 -2 1 -1.7686 0.2379
-5 -2 2 -0.1188 0.2075
-5 -2 3 0.5535 0.1374
-5 -2 4 0.7711 0.0174
-5 -2 5 -0.0384 -0.0741
-5 -2 6 0.0334 -0.0769
-5 -2 7 -0.4345 0.0796
-5 -2 8 -0.0128 0.0756
-5 -2 9 -0.2900 0.1325
-5 -2 10 0.0227 0.0573
-5 -1 1 -1.5340 -0.2501
-5 -1 2 0.0584 -0.0950
-5 -1 3 0.9031 0.0869
-5 -1 4 1.0934 0.0794
-5 -1 5 0.1585 -0.0107
-5 -1 6 -0.0739 -0.0450
-5 -1 7 -0.6404 0.0757
-5 -1 8 0.0077 -0.0378
-5 -1 9 -0.2994 -0.0296
-5 -1 10 0.0890 -0.3190
-5 0 1 -0.7256 -0.0747
-5 0 2 -0.1126 -0.1684
-5 0 3 0.5035 -0.1228
-5 0 4 0.5323 -0.0595
-5 0 5 -0.0101 0.0534
-5 0 6 -0.2584 0.0421
-5 0 7 -0.4117 -0.0048
-5 0 8 0.0985 -0.1856
-5 0 9 -0.1098 -0.1341
-5 1 1 -0.3414 0.1848
-5 1 2 -0.4403 0.1017
-5 1 3 0.1266 0.0068
-5 1 4 0.0894 -0.0150
-5 1 5 0.0765 0.1256
-5 1 6 -0.1119 0.0159
-5 1 7 0.1379 -0.0343
-5 1 8 0.1245 0.0067
-5 1 9 0.0368 0.2218
-5 2 1 -0.5374 -0.0804
-5 2 2 -0.3874 -0.0355
-5 2 3 0.2950 -0.0229
-5 2 4 0.1394 0.0355
-5 2 5 0.1918 0.1211
-5 2 6 -0.0068 -0.0623
-5 2 7 0.4411 0.1267
-5 2 8 0.0676 0.3959
-5 3 1 -0.5103 -0.0952
-5 3 2 0.1090 -0.1260
-5 3 3 0.6165 -0.0770
-5 3 4 0.2717 0.0811
-5 3 5 -0.0312 -0.0295
-5 3 6 -0.2505 -0.2472
-5 3 7 0.2073 0.1454
-5 4 1 -0.3610 0.0387
-5 4 2 0.3256 -0.0188
-5 4 3 0.5512 0.0636
-5 4 4 0.2778 0.2765
-5 4 5 -0.2268 -0.1122
-5 5 1 -0.4161 0.0545
-5 5 2 -0.0606 -0.0557
-5 5 3 0.0775 0.0415
-4 -10 1 0.8675 -0.0356
-4 -10 2 -1.6445 0.0910
-4 -10 3 -0.5894 0.1760
-4 -10 4 -1.1042 0.1816
-4 -10 5 -0.6561 0.1058
-4 -9 1 1.1158 -0.1208
-4 -9 2 -1.1430 -0.0790
-4 -9 3 -0.8774 -0.0222
-4 -9 4 -2.4031 0.0475
-4 -9 5 -1.9057 0.0401
-4 -9 6 -0.1550 -0.0938
-4 -9 7 -0.5775 -0.1881
-4 -8 1 0.4535 0.1254
-4 -8 2 0.0430 0.1240
-4 -8 3 0.3452 0.0129
-4 -8 4 -1.2812 -0.0956
-4 -8 5 -1.5749 -0.0765
-4 -8 6 -0.5208 -0.0682
-4 -8 7 -1.1187 -0.0844
-4 -8 8 0.5138 -0.0947
-4 -7 1 -0.5774 -0.0267
-4 -7 2 -0.1184 0.1507
-4 -7 3 0.2424 0.1886
-4 -7 4 -0.1444 0.0447
-4 -7 5 -0.2829 -0.0225
-4 -7 6 0.1558 -0.0598
-4 -7 7 -0.9334 -0.0163
-4 -7 8 0.4495 0.0442
-4 -7 9 0.1071 -0.0813
-4 -7 10 0.0576 0.0570
-4 -6 1 -0.4574 -0.2110
-4 -6 2 -0.4723 -0.2116
-4 -6 3 -0.9269 -0.0729
-4 -6 4 -0.7121 0.0260
-4 -6 5 -0.3249 0.0929
-4 -6 6 0.3565 0.0154
-4 -6 7 -0.4215 -0.0654
-4 -6 8 0.1251 -0.0182
-4 -6 9 -0.8178 -0.0316
-4 -6 10 -0.7478 0.0234
-4 -5 1 -0.0675 0.2166
-4 -5 2 -0.1543 0.0046
-4 -5 3 -1.1851 -0.1375
-4 -5 4 -1.4459 -0.1342
-4 -5 5 -1.3090 -0.0007
-4 -5 6 -0.3751 0.0780
-4 -5 7 -0.1887 0.0008
-4 -5 8 0.1633 -0.0249
-4 -5 9 -0.6384 -0.0973
-4 -5 10 -0.5046 -0.0691
-4 -5 11 -0.1957 -0.3081
-4 -4 1 -0.6212 0.1655
-4 -4 2 -0.0438 0.2724
-4 -4 3 -0.9397 0.1864
-4 -4 4 -1.4400 0.0170
-4 -4 5 -1.6417 -0.0683
-4 -4 6 -0.6127 -0.0117
-4 -4 7 0.0539 0.0046
-4 -4 8 0.5304 0.0532
-4 -4 9 0.2686 -0.0256
-4 -4 10 0.3483 0.0071
-4 -4 11 0.2342 -0.0369
-4 -3 1 -1.4019 -0.3184
-4 -3 2 0.1283 -0.1732
-4 -3 3 -0.6221 0.0330
-4 -3 4 -0.8805 0.1109
-4 -3 5 -1.2164 0.0353
-4 -3 6 -0.1700 -0.0423
-4 -3 7 0.0177 -0.0768
-4 -3 8 0.4365 -0.0136
-4 -3 9 0.3074 0.0081
-4 -3 10 0.3233 0.0667
-4 -3 11 0.1156 0.1017
-4 -2 1 -1.4255 0.0539
-4 -2 2 0.8766 -0.1572
-4 -2 3 -0.0639 -0.1614
-4 -2 4 -0.1926 -0.0715
-4 -2 5 -0.8874 -0.0225
-4 -2 6 -0.0702 0.0051
-4 -2 7 -0.6685 0.0354
-4 -2 8 -0.1201 0.0132
-4 -2 9 -0.3003 0.0161
-4 -2 10 -0.0814 -0.0447
-4 -2 11 -0.0881 -0.0136
-4 -1 1 -1.1029 0.3163
-4 -1 2 1.4456 0.2729
-4 -1 3 0.3449 0.1289
-4 -1 4 0.2001 -0.0227
-4 -1 5 -0.7467 -0.0913
-4 -1 6 -0.2209 0.0119
-4 -1 7 -1.1082 0.1369
-4 -1 8 -0.2600 0.0570
-4 -1 9 -0.4353 0.0119
-4 -1 10 0.0364 -0.1519
-4 -1 11 0.0289 -0.0201
-4 0 1 -1.2092 -0.1943
-4 0 2 1.1597 -0.0202
-4 0 3 0.4067 0.0613
-4 0 4 0.3964 0.0536
-4 0 5 -0.2648 0.0059
-4 0 6 0.0277 0.0165
-4 0 7 -0.5933 0.0122
-4 0 8 0.1531 -0.0691
-4 0 9 -0.0804 0.0073
-4 0 10 0.3211 -0.0399
-4 0 11 0.0884 0.2214
-4 1 1 -1.1572 -0.1178
-4 1 2 0.7519 -0.1904
-4 1 3 0.4836 -0.1829
-4 1 4 0.5023 -0.0757
-4 1 5 0.2262 0.0065
-4 1 6 0.1744 -0.0526
-4 1 7 -0.0064 -0.1072
-4 1 8 0.2113 -0.0317
-4 1 9 0.0108 0.2193
-4 1 10 0.2289 0.2522
-4 2 1 -0.7215 0.2202
-4 2 2 0.9467 0.1254
-4 2 3 0.7649 0.0119
-4 2 4 0.4468 -0.0066
-4 2 5 0.1502 0.0117
-4 2 6 -0.2471 -0.0701
-4 2 7 -0.0394 0.0383
-4 2 8 -0.2576 0.2412
-4 2 9 -0.2447 0.4000
-4 3 1 -0.5390 -0.0313
-4 3 2 1.2362 0.0286
-4 3 3 0.8778 0.0654
-4 3 4 0.2861 0.0605
-4 3 5 -0.2213 -0.0164
-4 3 6 -0.6124 -0.0091
-4 3 7 -0.1263 0.2978
-4 3 8 -0.3732 0.4122
-4 4 1 -0.1420 -0.1057
-4 4 2 1.3509 -0.1162
-4 4 3 0.7894 -0.0307
-4 4 4 0.2740 -0.0231
-4 4 5 -0.3260 -0.2388
-4 4 6 -0.4393 -0.0992
-4 4 7 0.0459 0.3107
-4 5 1 0.3402 0.0692
-4 5 2 1.1871 -0.0032
-4 5 3 0.6949 0.0749
-4 5 4 0.4356 0.0637
-4 5 5 -0.0905 -0.3046
-4 6 1 0.1256 0.0942
-4 6 2 0.4425 -0.0035
-4 6 3 0.3322 0.1082
-3 -10 1 0.4790 -0.0467
-3 -10 2 -0.2588 0.0242
-3 -10 3 1.1142 0.0308
-3 -10 4 1.3615 -0.0068
-3 -10 5 1.8465 -0.0457
-3 -9 1 -0.2244 -0.1167
-3 -9 2 -1.0076 0.0438
-3 -9 3 0.6186 0.0850
-3 -9 4 1.9820 0.0822
-3 -9 5 3.9390 -0.0111
-3 -9 6 4.3867 -0.0899
-3 -9 7 1.5105 -0.0249
-3 -8 1 -0.5457 -0.0971
-3 -8 2 -0.9781 -0.1066
-3 -8 3 -0.4447 -0.1100
-3 -8 4 0.5728 -0.0010
-3 -8 5 2.4505 0.0650
-3 -8 6 3.1856 0.0319
-3 -8 7 0.8474 -0.0236
-3 -8 8 0.5153 -0.0186
-3 -8 9 -0.3846 -0.0944
-3 -7 1 -0.9380 0.2118
-3 -7 2 -0.5219 0.0980
-3 -7 3 -0.6347 -0.0662
-3 -7 4 -0.2450 -0.1256
-3 -7 5 0.3763 -0.0268
-3 -7 6 0.6979 0.0544
-3 -7 7 -0.6213 0.0664
-3 -7 8 0.3890 -0.0027
-3 -7 9 -0.0500 -0.1716
-3 -7 10 -0.1885 -0.0886
-3 -6 1 -1.8323 -0.0325
-3 -6 2 -1.0024 0.1180
-3 -6 3 -0.7484 0.1883
-3 -6 4 0.1235 0.0572
-3 -6 5 0.5817 -0.0346
-3 -6 6 0.5661 -0.0665
-3 -6 7 -0.5483 0.0497
-3 -6 8 0.2288 0.1365
-3 -6 9 -0.2378 0.0211
-3 -6 10 -0.1175 -0.0968
-3 -6 11 -0.1311 -0.3867
-3 -5 1 -2.6490 -0.3480
-3 -5 2 -1.6534 -0.2532
-3 -5 3 -1.2791 0.0093
-3 -5 4 -0.2275 0.0998
-3 -5 5 0.7872 0.0657
-3 -5 6 1.1449 -0.0749
-3 -5 7 0.3501 -0.0829
-3 -5 8 0.2865 0.0325
-3 -5 9 -0.3668 0.0717
-3 -5 10 -0.0353 0.0195
-3 -5 11 0.0562 -0.1917
-3 -5 12 0.0148 -0.0532
-3 -4 1 -3.3568 0.1809
-3 -4 2 -1.4257 -0.0181
-3 -4 3 -1.3672 -0.1170
-3 -4 4 -0.9546 -0.1225
-3 -4 5 -0.0883 -0.0131
-3 -4 6 0.6748 0.0315
-3 -4 7 0.5789 -0.0130
-3 -4 8 0.4722 -0.0418
-3 -4 9 0.0198 -0.0659
-3 -4 10 0.1978 -0.0168
-3 -4 11 0.1550 -0.0012
-3 -4 12 0.1346 0.0545
-3 -3 1 -3.7224 0.2561
-3 -3 2 -0.3234 0.2933
-3 -3 3 -0.6933 0.1649
-3 -3 4 -0.6010 -0.0118
-3 -3 5 -0.4497 -0.0619
-3 -3 6 0.3323 0.0070
-3 -3 7 0.3850 0.0469
-3 -3 8 0.5934 0.0491
-3 -3 9 0.2177 -0.0219
-3 -3 10 0.0420 -0.0180
-3 -3 11 -0.0274 0.0434
-3 -3 12 0.0398 0.0035
-3 -2 1 -3.6900 -0.3541
-3 -2 2 0.9187 -0.1807
-3 -2 3 0.0967 0.0482
-3 -2 4 0.5083 0.1363
-3 -2 5 -0.1048 0.0405
-3 -2 6 0.4936 -0.0310
-3 -2 7 0.0899 -0.0363
-3 -2 8 0.6217 0.0286
-3 -2 9 0.0320 0.0489
-3 -2 10 -0.3059 0.0141
-3 -2 11 -0.2192 0.0090
-3 -2 12 -0.0745 -0.1092
-3 -1 1 -3.6516 -0.0598
-3 -1 2 1.2628 -0.2221
-3 -1 3 0.0925 -0.1933
-3 -1 4 0.9664 -0.0536
-3 -1 5 -0.1483 -0.0213
-3 -1 6 0.2571 0.0145
-3 -1 7 -0.4021 -0.0065
-3 -1 8 0.7043 -0.0224
-3 -1 9 0.1575 0.0026
-3 -1 10 -0.0234 -0.0256
-3 -1 11 -0.0221 0.0239
-3 -1 12 -0.0294 -0.0423
-3 0 1 -3.3422 0.3539
-3 0 2 0.9652 0.2890
-3 0 3 -0.4840 0.0877
-3 0 4 0.4845 -0.0133
-3 0 5 -0.6161 -0.0656
-3 0 6 -0.3360 0.0169
-3 0 7 -0.7093 0.0017
-3 0 8 0.7862 -0.0414
-3 0 9 0.5269 0.0086
-3 0 10 0.5191 0.0343
-3 0 11 0.1533 0.1843
-3 0 12 -0.0756 0.1899
-3 1 1 -2.7976 -0.1319
-3 1 2 0.8103 0.0540
-3 1 3 -0.6924 0.0946
-3 1 4 0.0186 0.1180
-3 1 5 -0.6448 0.0491
-3 1 6 -0.4991 -0.0073
-3 1 7 -0.4440 -0.0839
-3 1 8 0.5714 -0.0339
-3 1 9 0.4231 0.1064
-3 1 10 0.4671 0.1150
-3 1 11 -0.0037 0.1750
-3 2 1 -2.0933 -0.1801
-3 2 2 0.9080 -0.2260
-3 2 3 -0.5156 -0.1715
-3 2 4 -0.0885 -0.0186
-3 2 5 -0.2792 0.0296
-3 2 6 -0.2798 -0.0584
-3 2 7 0.0127 -0.0959
-3 2 8 0.0119 0.0187
-3 2 9 -0.1558 0.1048
-3 2 10 0.0139 -0.0267
-3 2 11 -0.0541 -0.1216
-3 3 1 -1.1266 0.2142
-3 3 2 1.0462 0.0881
-3 3 3 -0.5524 0.0103
-3 3 4 -0.3425 -0.0052
-3 3 5 -0.3289 -0.0222
-3 3 6 -0.2389 -0.0667
-3 3 7 0.2650 -0.0092
-3 3 8 -0.3013 0.0151
-3 3 9 -0.4353 -0.1011
-3 3 10 -0.1877 -0.2862
-3 4 1 -0.6322 0.0542
-3 4 2 0.6883 0.0825
-3 4 3 -0.9843 0.1078
-3 4 4 -0.7543 0.0344
-3 4 5 -0.7191 -0.0597
-3 4 6 -0.2561 0.0310
-3 4 7 0.4388 0.1796
-3 4 8 0.0158 0.0804
-3 4 9 -0.1087 -0.2058
-3 5 1 -0.4697 -0.0958
-3 5 2 0.2040 -0.1274
-3 5 3 -1.0273 -0.0315
-3 5 4 -0.6138 -0.0373
-3 5 5 -0.6462 -0.1374
-3 5 6 -0.0042 0.1104
-3 5 7 0.4610 0.3179
-3 6 1 0.0729 0.0545
-3 6 2 0.3457 -0.0456
-3 6 3 -0.2499 0.0559
-3 6 4 0.0644 0.0967
-3 6 5 -0.1278 -0.0632
-3 6 6 0.2733 0.1200
-3 7 1 0.3217 0.1183
-3 7 2 0.3406 0.0428
-3 7 3 0.2379 0.1189
-2 -10 1 0.4014 0.0150
-2 -10 2 -0.0904 -0.0233
-2 -10 3 0.0216 -0.0358
-2 -10 4 -0.3876 -0.0663
-2 -9 1 0.5823 0.0788
-2 -9 2 0.1404 0.0960
-2 -9 3 0.1627 0.0020
-2 -9 4 -0.2547 -0.0682
-2 -9 5 -0.7524 -0.1397
-2 -9 6 -1.3802 -0.0877
-2 -9 7 -1.8983 0.0314
-2 -8 1 0.3326 -0.0910
-2 -8 2 0.3180 0.0556
-2 -8 3 0.2440 0.1061
-2 -8 4 0.3838 0.1280
-2 -8 5 -0.1329 -0.0172
-2 -8 6 -1.2861 -0.0844
-2 -8 7 -2.2080 -0.0201
-2 -8 8 -0.6763 0.0841
-2 -8 9 0.2266 0.0704
-2 -7 1 0.1011 -0.1423
-2 -7 2 0.8434 -0.1704
-2 -7 3 0.5930 -0.0879
-2 -7 4 0.8088 0.0763
-2 -7 5 0.2207 0.0772
-2 -7 6 -0.7009 -0.0350
-2 -7 7 -1.2767 -0.1048
-2 -7 8 0.1293 -0.0266
-2 -7 9 0.3970 0.1075
-2 -7 10 0.0473 0.2618
-2 -6 1 -0.4275 0.2002
-2 -6 2 1.2545 0.0415
-2 -6 3 1.3890 -0.0884
-2 -6 4 1.3384 -0.1204
-2 -6 5 0.4889 -0.0227
-2 -6 6 -0.5947 0.0182
-2 -6 7 -1.0445 0.0017
-2 -6 8 0.0181 -0.0519
-2 -6 9 -0.0706 -0.0359
-2 -6 10 -0.3040 0.0905
-2 -6 11 -0.1364 0.1151
-2 -5 1 -1.1197 0.0607
-2 -5 2 1.0201 0.2046
-2 -5 3 1.4678 0.2011
-2 -5 4 1.2918 0.0015
-2 -5 5 0.8610 -0.0459
-2 -5 6 -0.4308 -0.0198
-2 -5 7 -1.0538 0.0781
-2 -5 8 -0.6106 0.0694
-2 -5 9 -0.6125 0.0080
-2 -5 10 -0.3407 -0.0304
-2 -5 11 -0.1106 -0.0017
-2 -5 12 -0.0172 0.2038
-2 -4 1 -1.1687 -0.2991
-2 -4 2 1.6496 -0.1803
-2 -4 3 1.3686 0.0140
-2 -4 4 0.6666 0.0450
-2 -4 5 0.8180 0.0660
-2 -4 6 0.0313 -0.0009
-2 -4 7 -0.1838 -0.0175
-2 -4 8 -0.2156 -0.0079
-2 -4 9 -0.3417 0.0185
-2 -4 10 -0.1881 0.0002
-2 -4 11 -0.2154 -0.0182
-2 -4 12 -0.1578 -0.0036
-2 -4 13 -0.0626 0.0462
-2 -3 1 -1.5395 0.1132
-2 -3 2 3.1291 -0.1116
-2 -3 3 1.7908 -0.1751
-2 -3 4 0.5847 -0.1155
-2 -3 5 0.5378 0.0320
-2 -3 6 0.4739 0.0618
-2 -3 7 0.7594 -0.0202
-2 -3 8 0.4487 -0.0855
-2 -3 9 -0.1226 -0.0846
-2 -3 10 -0.3668 -0.0298
-2 -3 11 -0.3225 0.0227
-2 -3 12 -0.2019 -0.0726
-2 -3 13 -0.0720 -0.0344
-2 -2 1 -3.6273 0.2728
-2 -2 2 3.2411 0.2635
-2 -2 3 1.2822 0.1664
-2 -2 4 0.4704 0.0285
-2 -2 5 -0.1227 -0.0652
-2 -2 6 0.5437 -0.0344
-2 -2 7 0.8983 0.0113
-2 -2 8 0.5111 0.0584
-2 -2 9 -0.4712 0.0123
-2 -2 10 -0.6748 -0.0090
-2 -2 11 -0.0956 0.0420
-2 -2 12 0.0372 0.0074
-2 -2 13 0.1037 0.1172
-2 -1 1 -6.2452 -0.3014
-2 -1 2 2.2383 -0.0921
-2 -1 3 0.1801 0.1070
-2 -1 4 0.1490 0.1421
-2 -1 5 -0.9927 -0.0217
-2 -1 6 0.3045 -0.0569
-2 -1 7 0.7535 -0.0168
-2 -1 8 0.7923 0.0851
-2 -1 9 -0.4017 0.0505
-2 -1 10 -0.5603 -0.0222
-2 -1 11 0.0631 -0.0091
-2 -1 12 -0.0571 0.0617
-2 -1 13 -0.0210 0.2425
-2 0 1 -6.5678 -0.1329
-2 0 2 2.0010 -0.2327
-2 0 3 0.0995 -0.2229
-2 0 4 0.5499 -0.0708
-2 0 5 -0.9769 -0.0101
-2 0 6 0.3656 0.0693
-2 0 7 1.0069 0.0067
-2 0 8 1.5311 -0.0302
-2 0 9 0.2165 -0.0676
-2 0 10 -0.2934 -0.0686
-2 0 11 -0.2726 -0.0067
-2 0 12 -0.4945 0.1068
-2 0 13 -0.1912 0.1786
-2 1 1 -4.2338 0.3576
-2 1 2 2.1937 0.2558
-2 1 3 0.0840 0.0234
-2 1 4 0.7916 -0.0239
-2 1 5 -0.3485 -0.0058
-2 1 6 0.6150 0.0638
-2 1 7 1.2734 -0.0115
-2 1 8 1.6167 -0.0469
-2 1 9 0.3978 -0.0297
-2 1 10 -0.2674 0.0057
-2 1 11 -0.5948 0.0689
-2 1 12 -0.5398 0.1337
-2 2 1 -2.0973 -0.0548
-2 2 2 1.5949 0.0890
-2 2 3 -0.8597 0.1134
-2 2 4 0.0697 0.1219
-2 2 5 -0.1501 0.0566
-2 2 6 0.4128 -0.0241
-2 2 7 0.9688 -0.0545
-2 2 8 0.7487 0.0260
-2 2 9 0.1824 0.0652
-2 2 10 0.0350 -0.0169
-2 2 11 -0.1317 -0.0569
-2 2 12 -0.0210 -0.0457
-2 3 1 -1.2568 -0.2788
-2 3 2 0.9271 -0.2682
-2 3 3 -1.3769 -0.1424
-2 3 4 -0.3149 -0.0230
-2 3 5 -0.0903 -0.0007
-2 3 6 0.0799 -0.0709
-2 3 7 0.4816 -0.0263
-2 3 8 -0.0976 0.0516
-2 3 9 0.1375 -0.0004
-2 3 10 0.6063 -0.1700
-2 3 11 0.6097 -0.2294
-2 4 1 -0.5040 0.1334
-2 4 2 1.1189 0.0375
-2 4 3 -0.7333 0.0099
-2 4 4 0.2512 -0.0274
-2 4 5 0.2310 -0.0321
-2 4 6 0.1802 -0.0183
-2 4 7 0.3567 0.0535
-2 4 8 -0.3424 -0.0073
-2 4 9 0.0298 -0.1788
-2 4 10 0.5306 -0.2640
-2 5 1 -0.1273 0.1442
-2 5 2 1.1583 0.1423
-2 5 3 -0.1906 0.1601
-2 5 4 0.5790 0.0650
-2 5 5 0.2109 -0.0258
-2 5 6 0.2874 0.0470
-2 5 7 0.2857 0.1028
-2 5 8 -0.2581 -0.0645
-2 5 9 -0.1733 -0.3050
-2 6 1 -0.2788 -0.1037
-2 6 2 0.4812 -0.1110
-2 6 3 -0.3682 0.0201
-2 6 4 0.1472 0.0046
-2 6 5 -0.2624 -0.1667
-2 6 6 0.0756 -0.0965
-2 6 7 0.0092 -0.0226
-2 6 8 -0.1291 -0.0965
-2 7 1 -0.0538 -0.0823
-2 7 2 -0.0252 -0.1419
-2 7 3 -0.4497 -0.0333
-2 7 4 -0.1945 0.0025
-2 7 5 -0.3707 -0.2204
-2 8 1 0.1198 0.0394
-2 8 2 -0.1527 -0.0522
-1 -10 1 -0.0098 -0.2005
-1 -10 2 -0.0302 -0.0006
-1 -9 1 -0.2585 -0.0639
-1 -9 2 -0.1816 0.0003
-1 -9 3 -0.0007 0.0194
-1 -9 4 0.0363 0.0160
-1 -9 5 0.1276 0.0215
-1 -9 6 0.1843 0.1385
-1 -9 7 0.1438 0.1476
-1 -8 1 -0.2204 0.1228
-1 -8 2 0.1250 0.1158
-1 -8 3 0.0671 0.0094
-1 -8 4 0.2294 -0.0427
-1 -8 5 -0.0877 -0.0726
-1 -8 6 -0.4338 0.0797
-1 -8 7 -0.3164 0.1059
-1 -8 8 -0.2609 -0.0447
-1 -8 9 -0.3486 -0.1998
-1 -7 1 0.3571 -0.0759
-1 -7 2 0.6582 0.0282
-1 -7 3 0.0117 0.0757
-1 -7 4 0.1317 0.0722
-1 -7 5 -0.2976 -0.0689
-1 -7 6 -0.6140 -0.0502
-1 -7 7 -0.2208 0.0124
-1 -7 8 0.1025 0.0131
-1 -7 9 0.0426 -0.0909
-1 -7 10 -0.4277 -0.1892
-1 -6 1 1.4376 -0.2059
-1 -6 2 1.4195 -0.2259
-1 -6 3 -0.0503 -0.0927
-1 -6 4 -0.6197 0.0668
-1 -6 5 -0.9058 0.0516
-1 -6 6 -1.0231 -0.0246
-1 -6 7 -0.3339 -0.0407
-1 -6 8 0.0756 0.0116
-1 -6 9 -0.1035 0.0394
-1 -6 10 -0.4480 -0.0601
-1 -6 11 0.1113 -0.1682
-1 -5 1 1.9786 0.1854
-1 -5 2 2.0927 0.0321
-1 -5 3 0.4663 -0.0768
-1 -5 4 -0.6824 -0.0789
-1 -5 5 -0.7558 0.0118
-1 -5 6 -1.4234 0.0108
-1 -5 7 -0.9105 -0.0039
-1 -5 8 -0.6266 -0.0179
-1 -5 9 -0.6102 0.0239
-1 -5 10 -0.3535 -0.0199
-1 -5 11 0.2612 -0.0826
-1 -5 12 0.3624 -0.1270
-1 -4 1 2.1258 0.1421
-1 -4 2 2.6371 0.2483
-1 -4 3 0.7435 0.1816
-1 -4 4 -0.2726 0.0052
-1 -4 5 0.4890 -0.0233
-1 -4 6 -0.4781 -0.0405
-1 -4 7 -0.2588 0.0196
-1 -4 8 -0.6408 0.0540
-1 -4 9 -0.6957 0.0892
-1 -4 10 -0.2337 0.0092
-1 -4 11 0.2001 -0.0452
-1 -4 12 0.4471 -0.0790
-1 -4 13 0.3264 -0.0315
-1 -3 1 4.1130 -0.3142
-1 -3 2 5.0958 -0.1793
-1 -3 3 1.0111 0.0198
-1 -3 4 -0.4708 0.0771
-1 -3 5 0.8513 0.0842
-1 -3 6 0.7180 -0.0169
-1 -3 7 1.1242 -0.0545
-1 -3 8 -0.0505 -0.0172
-1 -3 9 -0.4943 0.0612
-1 -3 10 -0.2947 0.0509
-1 -3 11 -0.0186 0.0297
-1 -3 12 0.2050 -0.0527
-1 -3 13 0.1782 0.0362
-1 -2 1 7.7264 -0.0266
-1 -2 2 9.6973 -0.1953
-1 -2 3 2.5613 -0.1600
-1 -2 4 0.0058 -0.0701
-1 -2 5 0.5390 0.0215
-1 -2 6 1.2323 0.0310
-1 -2 7 1.4530 -0.0260
-1 -2 8 -0.2130 -0.0610
-1 -2 9 -0.6600 -0.0729
-1 -2 10 -0.3057 -0.0273
-1 -2 11 0.1885 0.0262
-1 -2 12 0.0968 -0.0831
-1 -2 13 0.0875 -0.1081
-1 -1 1 9.9275 0.2976
-1 -1 2 12.9758 0.2442
-1 -1 3 4.2556 0.1314
-1 -1 4 1.5677 -0.0172
-1 -1 5 0.9865 -0.1056
-1 -1 6 1.9576 -0.0224
-1 -1 7 1.2730 0.0542
-1 -1 8 -0.6842 0.0826
-1 -1 9 -1.0471 -0.0251
-1 -1 10 -0.3455 -0.0473
-1 -1 11 0.4127 -0.0133
-1 -1 12 0.0157 -0.0482
-1 -1 13 0.1227 -0.1429
-1 -1 14 -0.0097 -0.4519
-1 0 1 9.0745 -0.1288
-1 0 2 12.5187 0.0115
-1 0 3 4.2287 0.0984
-1 0 4 2.3785 0.0995
-1 0 5 1.3765 -0.0059
-1 0 6 2.5346 -0.0072
-1 0 7 1.4081 -0.0027
-1 0 8 -0.5064 0.0561
-1 0 9 -1.2038 0.0207
-1 0 10 -0.7074 0.0275
-1 0 11 -0.0023 0.0186
-1 0 12 -0.2618 0.0658
-1 0 13 0.1424 -0.0322
-1 1 1 5.9335 -0.1598
-1 1 2 8.9562 -0.2472
-1 1 3 2.6998 -0.2333
-1 1 4 2.0886 -0.0558
-1 1 5 1.2219 0.0484
-1 1 6 2.1373 0.0594
-1 1 7 1.2763 -0.0499
-1 1 8 -0.2786 -0.0539
-1 1 9 -1.1345 -0.0027
-1 1 10 -0.9351 0.0634
-1 1 11 -0.3300 0.0130
-1 1 12 -0.1647 0.0175
-1 1 13 0.2926 -0.1532
-1 2 1 2.6204 0.2289
-1 2 2 4.7219 0.1247
-1 2 3 0.9765 -0.0300
-1 2 4 1.6827 -0.0349
-1 2 5 1.1940 0.0172
-1 2 6 1.2298 0.0209
-1 2 7 0.6622 -0.0190
-1 2 8 -0.5043 -0.0053
-1 2 9 -0.7871 0.0345
-1 2 10 -0.4702 0.0233
-1 2 11 0.0138 -0.0591
-1 2 12 0.2723 -0.1095
-1 2 13 0.3954 -0.3111
-1 3 1 0.7064 0.0206
-1 3 2 2.1841 0.1393
-1 3 3 -0.0633 0.1536
-1 3 4 1.1977 0.1031
-1 3 5 0.9428 0.0455
-1 3 6 0.3175 -0.0371
-1 3 7 0.1559 0.0029
-1 3 8 -0.5678 0.0468
-1 3 9 -0.0774 0.0249
-1 3 10 0.2752 -0.0883
-1 3 11 0.3271 -0.1429
-1 3 12 0.2570 -0.1727
-1 4 1 -0.0282 -0.1886
-1 4 2 1.3699 -0.1663
-1 4 3 -0.4711 -0.0925
-1 4 4 0.5528 -0.0477
-1 4 5 0.3029 -0.0179
-1 4 6 -0.2081 -0.0606
-1 4 7 0.1093 0.0053
-1 4 8 -0.2822 0.0035
-1 4 9 0.3730 -0.0606
-1 4 10 0.4591 -0.1637
-1 4 11 0.1631 -0.1786
-1 5 1 -0.1165 0.0590
-1 5 2 1.0483 -0.0430
-1 5 3 -0.6042 -0.0659
-1 5 4 0.2264 -0.0611
-1 5 5 0.0327 -0.0178
-1 5 6 -0.0303 0.0143
-1 5 7 0.2582 0.0562
-1 5 8 -0.1740 -0.0578
-1 5 9 0.0814 -0.1706
-1 5 10 0.0409 -0.2000
-1 6 1 0.1804 0.1151
-1 6 2 0.7472 0.1105
-1 6 3 -0.5828 0.1419
-1 6 4 0.1611 0.0882
-1 6 5 0.0513 0.0083
-1 6 6 0.2813 0.0797
-1 6 7 0.1942 0.1462
-1 6 8 -0.2543 -0.0125
-1 6 9 -0.2872 -0.1747
-1 7 1 0.2763 -0.0771
-1 7 2 0.3201 -0.0025
-1 7 3 -0.5268 0.0788
-1 7 4 -0.0343 0.0029
-1 7 5 -0.1233 -0.1912
-1 7 6 0.2087 -0.0743
-1 7 7 -0.0310 0.1239
-1 8 1 -0.0284 -0.1731
-1 8 2 -0.1437 -0.0955
-1 8 3 -0.3830 -0.0458
-1 8 4 -0.1808 -0.0509
-1 8 5 -0.2183 -0.2460
0 -9 1 0.0935 -0.0772
0 -9 2 0.2503 -0.0261
0 -9 3 0.2215 -0.0169
0 -9 4 0.0756 -0.0566
0 -9 5 0.2639 0.0031
0 -9 6 0.2520 0.1397
0 -8 1 -0.0340 -0.0250
0 -8 2 -0.0021 -0.0594
0 -8 3 -0.4296 -0.0594
0 -8 4 -0.3032 -0.0161
0 -8 5 0.0848 0.0670
0 -8 6 0.3179 0.1594
0 -8 7 0.4850 -0.0146
0 -8 8 -0.0136 -0.1258
0 -7 1 0.0092 0.1683
0 -7 2 -0.4008 0.1120
0 -7 3 -1.2873 0.0002
0 -7 4 -0.9823 -0.0492
0 -7 5 -0.6907 -0.0603
0 -7 6 -0.3094 0.0474
0 -7 7 0.3902 -0.0234
0 -7 8 0.2925 -0.0797
0 -7 9 0.6283 -0.0006
0 -7 10 0.1489 0.1314
0 -6 1 0.1436 -0.0060
0 -6 2 -0.8424 0.0887
0 -6 3 -1.7642 0.0892
0 -6 4 -1.2157 0.0449
0 -6 5 -0.8309 -0.0876
0 -6 6 -0.6932 -0.0576
0 -6 7 0.0662 -0.0316
0 -6 8 0.2084 -0.0108
0 -6 9 0.5199 0.0149
0 -6 10 0.2049 0.0566
0 -6 11 0.2789 0.1974
0 -5 1 0.2285 -0.2197
0 -5 2 -0.8431 -0.1871
0 -5 3 -1.4927 -0.0774
0 -5 4 -0.9019 0.0639
0 -5 5 -0.2552 0.0394
0 -5 6 -0.7389 -0.0082
0 -5 7 -0.0710 -0.0397
0 -5 8 0.1323 -0.0394
0 -5 9 0.4540 -0.0015
0 -5 10 0.6505 0.0274
0 -5 11 0.6080 0.1427
0 -5 12 0.1664 0.1887
0 -4 1 0.5431 0.1590
0 -4 2 0.0000 -0.0073
0 -4 3 -0.5807 -0.1101
0 -4 4 0.0258 -0.0595
0 -4 5 0.7777 0.0307
0 -4 6 -0.7358 0.0610
0 -4 7 -0.3421 0.0504
0 -4 8 -0.3700 -0.0144
0 -4 9 0.1169 -0.0359
0 -4 10 0.7341 -0.0580
0 -4 11 0.4645 0.0344
0 -4 12 0.1425 0.1231
0 -4 13 -0.2367 0.1778
0 -3 1 2.7461 0.2601
0 -3 2 0.9927 0.2338
0 -3 3 -1.4100 0.1337
0 -3 4 -0.0927 0.0014
0 -3 5 1.6580 -0.0240
0 -3 6 -0.0023 -0.0096
0 -3 7 -0.2760 0.0582
0 -3 8 -1.2774 0.0583
0 -3 9 -0.6841 0.0293
0 -3 10 0.1716 -0.0646
0 -3 11 0.0897 -0.0406
0 -3 12 0.1940 0.0196
0 -3 13 -0.0050 0.1305
0 -3 14 0.1487 0.0969
0 -2 1 8.6634 -0.3049
0 -2 2 2.7213 -0.1489
0 -2 3 -4.3003 0.0493
0 -2 4 -2.2492 0.0661
0 -2 5 1.2257 0.0243
0 -2 6 1.0993 -0.0606
0 -2 7 0.3278 -0.0652
0 -2 8 -1.5459 -0.0201
0 -2 9 -0.7803 0.0435
0 -2 10 0.0556 0.0394
0 -2 11 0.2326 0.0294
0 -2 12 0.3694 -0.0491
0 -2 13 0.2988 -0.0056
0 -2 14 0.2262 -0.0389
0 -1 1 16.1335 -0.3786
0 -1 2 6.1271 -0.3054
0 -1 3 -5.3903 -0.1338
0 -1 4 -3.5631 -0.0445
0 -1 5 0.0786 0.0190
0 -1 6 1.2672 0.0224
0 -1 7 0.2783 -0.0129
0 -1 8 -1.2302 -0.0451
0 -1 9 0.0902 -0.0558
0 -1 10 0.6800 -0.0056
0 -1 11 0.6273 0.0137
0 -1 12 0.1696 -0.0746
0 -1 13 0.1295 -0.1142
0 -1 14 -0.1427 -0.1403
0 0 1 19.9668 0.1675
0 0 2 8.8039 0.1354
0 0 3 -3.9412 0.0916
0 0 4 -2.9312 0.0061
0 0 5 -0.9295 -0.0310
0 0 6 0.2149 0.0164
0 0 7 -0.8164 0.0566
0 0 8 -1.2178 0.0509
0 0 9 0.5623 -0.0317
0 0 10 0.9474 -0.0238
0 0 11 0.6489 -0.0103
0 0 12 -0.1915 0.0418
0 0 13 -0.1391 -0.0187
0 0 14 -0.4862 -0.0539
0 1 0 24.7428 0.5202
0 1 1 17.2413 0.3578
0 1 2 7.9461 0.1869
0 1 3 -2.7571 0.1163
0 1 4 -2.4424 0.0775
0 1 5 -1.9964 0.0025
0 1 6 -1.2466 -0.0460
0 1 7 -1.7933 -0.0442
0 1 8 -1.4399 0.0194
0 1 9 0.1927 0.0432
0 1 10 0.5797 0.0700
0 1 11 0.5064 0.0329
0 1 12 -0.1160 0.1542
0 1 13 -0.0904 0.0888
0 1 14 -0.4840 0.1661
0 2 0 15.2296 0.4294
0 2 1 9.4051 0.1208
0 2 2 4.3856 -0.1025
0 2 3 -2.1328 -0.1761
0 2 4 -1.7862 -0.0832
0 2 5 -2.0273 0.0093
0 2 6 -1.7808 -0.0050
0 2 7 -1.6967 -0.0448
0 2 8 -1.3109 -0.0254
0 2 9 -0.1286 0.0372
0 2 10 0.3017 0.0548
0 2 11 0.5058 -0.0298
0 2 12 0.1865 0.0137
0 2 13 0.0279 -0.0825
0 3 0 6.0201 -0.1173
0 3 1 1.5818 -0.0796
0 3 2 0.9247 -0.0170
0 3 3 -1.3899 -0.0558
0 3 4 -0.2866 -0.0528
0 3 5 -0.5845 0.0136
0 3 6 -1.0597 0.0129
0 3 7 -0.8046 0.0260
0 3 8 -0.9052 0.0121
0 3 9 -0.1933 0.0155
0 3 10 0.0591 -0.0328
0 3 11 0.2652 -0.0990
0 3 12 0.1521 -0.1502
0 3 13 0.0324 -0.2697
0 4 0 1.7565 -0.2125
0 4 1 -1.6035 -0.0813
0 4 2 -0.4525 0.0901
0 4 3 -1.0392 0.1381
0 4 4 0.4795 0.1072
0 4 5 0.3780 0.0621
0 4 6 -0.3779 -0.0208
0 4 7 -0.1403 0.0309
0 4 8 -0.7242 0.0398
0 4 9 -0.4413 0.0018
0 4 10 -0.4036 -0.1043
0 4 11 -0.1688 -0.1372
0 4 12 -0.0347 -0.2167
0 5 0 1.1670 0.1189
0 5 1 -0.8498 0.0543
0 5 2 0.0535 -0.0340
0 5 3 -0.7911 -0.0333
0 5 4 0.4069 0.0073
0 5 5 0.2464 -0.0029
0 5 6 -0.3660 -0.0558
0 5 7 -0.1495 0.0217
0 5 8 -0.7835 0.0306
0 5 9 -0.6299 -0.0293
0 5 10 -0.4920 -0.1537
0 5 11 -0.1409 -0.1877
0 6 0 1.1301 0.0510
0 6 1 0.2672 0.0301
0 6 2 0.5956 -0.0538
0 6 3 -0.3546 -0.0605
0 6 4 0.5575 -0.0336
0 6 5 0.1526 -0.0626
0 6 6 -0.3442 -0.0500
0 6 7 -0.3237 0.0175
0 6 8 -0.6940 -0.0495
0 6 9 -0.4284 -0.1224
0 6 10 -0.1167 -0.1827
0 7 0 0.7512 -0.1224
0 7 1 0.2833 -0.0983
0 7 2 0.2239 0.0262
0 7 3 -0.2675 0.0883
0 7 4 0.6138 0.0689
0 7 5 0.2191 -0.0223
0 7 6 -0.0825 0.0466
0 7 7 -0.3025 0.0930
0 7 8 -0.4657 -0.0762
0 7 9 -0.2153 -0.1757
0 8 0 0.2761 0.0705
0 8 1 -0.1286 -0.0377
0 8 2 -0.2284 0.0804
0 8 3 -0.3139 0.0891
0 8 4 0.3239 0.0689
0 8 5 0.0937 -0.0100
0 8 6 0.0755 0.1162
0 8 7 -0.2125 0.1756
0 9 0 -0.0544 0.2035
0 9 1 -0.2416 0.0198
0 9 2 -0.0924 0.0527
0 9 3 -0.0760 0.0142
0 9 4 0.0686 0.0679
1 -9 0 -0.0305 -0.1573
1 -9 1 0.2831 0.0988
1 -9 2 0.0946 0.0750
1 -9 3 -0.0108 0.0888
1 -8 0 0.1705 -0.0519
1 -8 1 0.0009 0.0875
1 -8 2 -0.0423 0.0112
1 -8 3 -0.1626 0.0580
1 -8 4 0.0259 -0.0169
1 -8 5 0.2652 0.0132
1 -8 6 0.0189 -0.0127
1 -8 7 -0.1360 -0.1620
1 -7 0 0.4295 -0.0293
1 -7 1 -0.2404 0.0111
1 -7 2 -0.2450 -0.0654
1 -7 3 -0.2920 -0.0290
1 -7 4 0.3919 -0.0203
1 -7 5 0.5788 0.0358
1 -7 6 0.2380 0.0206
1 -7 7 -0.0035 -0.1068
1 -7 8 -0.3940 -0.0445
1 -7 9 -0.0181 0.0094
1 -7 10 -0.1753 -0.0999
1 -6 0 0.6743 -0.0496
1 -6 1 -0.3841 0.0091
1 -6 2 -0.4850 0.0193
1 -6 3 -0.3281 -0.0193
1 -6 4 0.4589 -0.0164
1 -6 5 0.4296 0.0000
1 -6 6 0.1730 0.0589
1 -6 7 0.1950 0.0014
1 -6 8 -0.2750 -0.0046
1 -6 9 -0.4383 -0.0432
1 -6 10 -0.7830 -0.1534
1 -6 11 -0.5688 -0.1732
1 -5 0 0.8998 -0.0046
1 -5 1 -1.1572 -0.0067
1 -5 2 -1.4295 0.0852
1 -5 3 -0.7441 0.0700
1 -5 4 0.1265 0.0728
1 -5 5 0.1495 -0.0322
1 -5 6 -0.1482 -0.0120
1 -5 7 0.2987 -0.0243
1 -5 8 -0.0036 0.0128
1 -5 9 -0.4159 0.0282
1 -5 10 -0.5860 -0.0310
1 -5 11 -0.8198 -0.1183
1 -5 12 -0.5107 -0.2422
1 -4 0 1.5259 0.1674
1 -4 1 -2.1085 -0.0037
1 -4 2 -2.2395 -0.0426
1 -4 3 -1.1999 -0.0439
1 -4 4 -0.1648 0.0431
1 -4 5 0.0251 -0.0120
1 -4 6 -0.6053 -0.0143
1 -4 7 0.3262 -0.0569
1 -4 8 0.2082 -0.0231
1 -4 9 -0.0420 0.0794
1 -4 10 0.0989 0.1090
1 -4 11 -0.6232 0.0094
1 -4 12 -0.3714 -0.1570
1 -4 13 -0.2782 -0.2693
1 -3 0 1.9314 0.0242
1 -3 1 -3.6587 0.0160
1 -3 2 -3.0392 -0.0580
1 -3 3 -1.5728 -0.1023
1 -3 4 0.6523 -0.0578
1 -3 5 0.8693 -0.0040
1 -3 6 -0.7532 0.0700
1 -3 7 0.0479 0.0381
1 -3 8 0.0292 -0.0370
1 -3 9 0.4827 -0.0240
1 -3 10 0.7733 0.0055
1 -3 11 -0.1462 0.0450
1 -3 12 0.1802 0.0200
1 -3 13 0.0355 -0.0817
1 -3 14 0.2577 -0.1017
1 -2 0 0.8665 -0.2820
1 -2 1 -8.5399 -0.0578
1 -2 2 -8.1358 0.0136
1 -2 3 -5.4208 0.0533
1 -2 4 1.0424 -0.0021
1 -2 5 2.6560 -0.0057
1 -2 6 0.1967 0.0271
1 -2 7 -0.3103 0.0613
1 -2 8 -0.5381 0.0246
1 -2 9 0.9480 0.0007
1 -2 10 1.2894 -0.0487
1 -2 11 0.4717 0.0078
1 -2 12 0.5254 0.0380
1 -2 13 0.0595 0.0313
1 -2 14 0.0024 -0.0142
1 -1 0 -0.2325 0.0344
1 -1 1 -14.6754 0.1053
1 -1 2 -16.7379 0.0131
1 -1 3 -13.2717 0.0462
1 -1 4 -1.6703 0.0080
1 -1 5 2.5758 -0.0045
1 -1 6 0.9034 -0.0597
1 -1 7 -0.6297 -0.0404
1 -1 8 -0.9069 -0.0081
1 -1 9 1.0802 0.0446
1 -1 10 1.1263 0.0194
1 -1 11 0.5636 0.0115
1 -1 12 0.2979 -0.0395
1 -1 13 -0.1379 -0.0165
1 -1 14 -0.3095 0.0109
1 0 0 0.8798 0.2831
1 0 1 -15.6858 0.2843
1 0 2 -20.0901 0.0494
1 0 3 -17.5257 -0.0418
1 0 4 -4.8626 -0.0828
1 0 5 0.1136 -0.0257
1 0 6 0.0952 -0.0112
1 0 7 -0.8780 0.0004
1 0 8 -0.4759 -0.0340
1 0 9 1.1228 -0.0406
1 0 10 0.4842 -0.0269
1 0 11 0.1100 -0.0172
1 0 12 -0.0986 -0.0335
1 0 13 -0.0569 -0.0645
1 0 14 -0.1979 -0.0327
1 1 0 3.2165 -0.1528
1 1 1 -11.0393 -0.1160
1 1 2 -15.1541 -0.0424
1 1 3 -13.9480 0.0316
1 1 4 -4.5803 0.0066
1 1 5 -1.4337 -0.0035
1 1 6 -0.6647 0.0247
1 1 7 -0.5629 0.0705
1 1 8 0.4918 0.0407
1 1 9 1.3892 -0.0103
1 1 10 0.4396 -0.0133
1 1 11 0.1229 -0.0048
1 1 12 -0.0851 0.0878
1 1 13 0.1167 -0.0033
1 1 14 -0.0102 -0.0029
1 2 0 4.2852 -0.1405
1 2 1 -5.4087 -0.3630
1 2 2 -7.3472 -0.1908
1 2 3 -7.1974 0.0294
1 2 4 -2.3116 0.1146
1 2 5 -1.3907 0.0732
1 2 6 -0.8542 -0.0038
1 2 7 -0.2015 -0.0376
1 2 8 0.8846 -0.0269
1 2 9 1.5058 0.0219
1 2 10 1.0168 0.0527
1 2 11 0.6634 0.0317
1 2 12 0.0803 0.1525
1 2 13 -0.0966 0.0898
1 2 14 -0.1656 0.2294
1 3 0 3.4564 0.3187
1 3 1 -1.7026 0.0881
1 3 2 -1.2864 0.0152
1 3 3 -2.0350 -0.0488
1 3 4 -0.7593 -0.0240
1 3 5 -1.4195 0.0238
1 3 6 -1.4819 -0.0145
1 3 7 -0.5270 -0.0798
1 3 8 0.4177 -0.0872
1 3 9 1.2021 -0.0027
1 3 10 1.3140 0.0337
1 3 11 0.8940 -0.0238
1 3 12 0.0326 -0.0264
1 3 13 -0.3672 -0.0585
1 4 0 2.1268 0.0796
1 4 1 -0.3773 0.2120
1 4 2 1.2253 0.1908
1 4 3 0.1642 0.0030
1 4 4 -0.0594 -0.0798
1 4 5 -1.3004 -0.0411
1 4 6 -1.7616 -0.0054
1 4 7 -0.6816 0.0399
1 4 8 -0.0301 0.0540
1 4 9 0.7224 0.0620
1 4 10 1.0560 0.0166
1 4 11 0.7165 -0.0719
1 4 12 0.0015 -0.2362
1 4 13 -0.2289 -0.2943
1 5 0 1.4093 -0.2519
1 5 1 -0.4215 -0.1590
1 5 2 0.7584 -0.0636
1 5 3 0.0119 -0.0015
1 5 4 0.1901 0.0558
1 5 5 -0.6874 0.0381
1 5 6 -1.1185 0.0222
1 5 7 -0.2779 0.0993
1 5 8 -0.1993 0.1003
1 5 9 0.2015 0.0076
1 5 10 0.5718 -0.0889
1 5 11 0.4598 -0.1161
1 5 12 0.0177 -0.2574
1 6 0 0.9357 0.0327
1 6 1 -0.4158 -0.1058
1 6 2 -0.0294 -0.1483
1 6 3 -0.3296 -0.0612
1 6 4 0.3344 0.0502
1 6 5 -0.3086 -0.0002
1 6 6 -0.5920 -0.0247
1 6 7 -0.0938 0.0315
1 6 8 -0.3564 -0.0279
1 6 9 -0.1725 -0.1537
1 6 10 0.1921 -0.2102
1 6 11 0.1835 -0.1404
1 7 0 0.4507 0.1117
1 7 1 -0.1662 0.0799
1 7 2 -0.0181 0.0513
1 7 3 0.0155 0.0041
1 7 4 0.4979 -0.0062
1 7 5 -0.3151 -0.0820
1 7 6 -0.4572 -0.0199
1 7 7 -0.1555 0.0533
1 7 8 -0.3247 -0.0362
1 7 9 -0.1363 -0.1114
1 7 10 0.0838 -0.1264
1 8 0 0.1969 -0.0951
1 8 1 -0.0758 -0.0701
1 8 2 0.0752 0.0321
1 8 3 0.1825 0.0333
1 8 4 0.3690 0.0700
1 8 5 -0.3767 0.0523
1 8 6 -0.2842 0.1610
1 8 7 -0.1619 0.1939
1 8 8 -0.1838 0.0795
1 9 0 0.0496 0.0327
1 9 1 -0.1247 -0.0844
1 9 2 0.0678 -0.0491
1 9 3 0.0341 -0.0056
1 9 4 0.1066 0.1291
1 9 5 -0.3006 0.1396
1 10 0 -0.0644 0.2278
2 -8 0 0.2322 -0.2890
2 -8 1 0.1470 0.0239
2 -8 2 0.0013 -0.0312
2 -8 3 0.0082 0.1166
2 -8 4 -0.0189 0.0011
2 -8 5 0.0714 0.1041
2 -7 0 -0.0122 -0.1406
2 -7 1 -0.3256 -0.0121
2 -7 2 -0.1645 -0.0835
2 -7 3 0.0033 0.0641
2 -7 4 0.3702 -0.0218
2 -7 5 0.3604 0.0706
2 -7 6 0.0577 -0.0326
2 -7 7 0.0180 -0.0467
2 -7 8 0.0794 0.0572
2 -7 9 0.1884 -0.0417
2 -6 0 -0.1060 0.0642
2 -6 1 -0.7847 0.0472
2 -6 2 -0.4497 -0.0555
2 -6 3 -0.0651 -0.0447
2 -6 4 0.5168 -0.0669
2 -6 5 0.4621 0.0278
2 -6 6 0.3108 -0.0096
2 -6 7 0.2305 -0.0104
2 -6 8 0.1273 0.0251
2 -6 9 0.1716 -0.0812
2 -6 10 0.2368 -0.1354
2 -6 11 0.1818 0.0836
2 -5 0 0.7544 0.0328
2 -5 1 -0.3593 0.0812
2 -5 2 0.3916 0.1239
2 -5 3 0.8916 0.0444
2 -5 4 0.8499 0.0199
2 -5 5 0.4127 -0.0027
2 -5 6 0.2803 0.0102
2 -5 7 0.2189 0.0014
2 -5 8 -0.0218 0.0230
2 -5 9 -0.1093 -0.0526
2 -5 10 0.2392 -0.0711
2 -5 11 -0.0596 0.0859
2 -5 12 0.2084 0.2680
2 -4 0 1.0049 -0.0993
2 -4 1 -0.7077 -0.1223
2 -4 2 1.4813 0.0451
2 -4 3 2.5158 0.0658
2 -4 4 1.8180 0.1229
2 -4 5 0.7792 0.0074
2 -4 6 0.1412 -0.0043
2 -4 7 0.1508 -0.0488
2 -4 8 -0.1684 0.0429
2 -4 9 -0.1898 0.0662
2 -4 10 0.3230 -0.0021
2 -4 11 -0.5030 -0.0751
2 -4 12 -0.0678 0.0618
2 -4 13 -0.1338 0.1942
2 -3 0 -0.1978 0.1356
2 -3 1 -3.1465 -0.0847
2 -3 2 0.7159 -0.1459
2 -3 3 2.2074 -0.1695
2 -3 4 1.7236 -0.0321
2 -3 5 0.4060 -0.0098
2 -3 6 -0.4940 0.0344
2 -3 7 0.1812 -0.0684
2 -3 8 0.0009 -0.0226
2 -3 9 0.1127 0.0781
2 -3 10 0.3559 0.0706
2 -3 11 -0.7081 -0.0498
2 -3 12 -0.0783 -0.0508
2 -3 13 -0.2848 -0.0321
2 -3 14 -0.0853 0.1862
2 -2 0 -2.8619 0.1327
2 -2 1 -7.0045 0.2022
2 -2 2 -1.2106 0.0819
2 -2 3 1.2866 -0.0740
2 -2 4 2.1723 -0.1190
2 -2 5 -0.0672 -0.0603
2 -2 6 -1.7088 0.0472
2 -2 7 -0.3036 0.0012
2 -2 8 0.2892 -0.0527
2 -2 9 0.8179 -0.0183
2 -2 10 0.2773 0.0145
2 -2 11 -0.8595 0.0575
2 -2 12 -0.2895 0.0288
2 -2 13 -0.5767 -0.0830
2 -2 14 -0.3270 -0.0094
2 -1 0 -7.6518 -0.3078
2 -1 1 -11.9651 -0.0032
2 -1 2 -3.2714 0.1301
2 -1 3 2.4716 0.2012
2 -1 4 6.3022 0.0889
2 -1 5 2.3604 -0.0001
2 -1 6 -1.4057 -0.0269
2 -1 7 -0.8263 0.0272
2 -1 8 0.4229 0.0258
2 -1 9 1.5420 0.0168
2 -1 10 0.3881 -0.0448
2 -1 11 -0.7397 0.0222
2 -1 12 -0.6797 0.0115
2 -1 13 -0.8526 -0.0309
2 -1 14 -0.3715 -0.0318
2 0 0 -11.5814 -0.0436
2 0 1 -15.4185 -0.1535
2 0 2 -5.1972 -0.1791
2 0 3 3.3583 0.0286
2 0 4 9.8895 0.1097
2 0 5 5.5531 0.0720
2 0 6 0.9373 -0.0609
2 0 7 0.1344 -0.0416
2 0 8 0.9485 -0.0080
2 0 9 1.6485 0.0476
2 0 10 0.2925 -0.0003
2 0 11 -0.4186 0.0166
2 0 12 -0.6467 -0.0114
2 0 13 -0.6274 0.0057
2 0 14 -0.1878 0.0307
2 1 0 -10.4509 0.3901
2 1 1 -13.7332 0.1665
2 1 2 -5.3450 -0.0581
2 1 3 1.8349 -0.1317
2 1 4 7.9279 -0.0972
2 1 5 5.0285 -0.0043
2 1 6 2.6509 0.0095
2 1 7 2.0412 0.0048
2 1 8 1.9834 -0.0513
2 1 9 1.2061 -0.0315
2 1 10 -0.3268 -0.0233
2 1 11 -0.6550 -0.0008
2 1 12 -0.6925 0.0073
2 1 13 -0.3733 -0.0334
2 1 14 -0.0591 0.0025
2 2 0 -5.9309 -0.0843
2 2 1 -8.7667 0.0273
2 2 2 -3.5821 0.1632
2 2 3 -0.1997 0.0456
2 2 4 3.2562 -0.0749
2 2 5 2.0142 -0.0556
2 2 6 2.2951 0.0417
2 2 7 2.7244 0.0662
2 2 8 2.3943 0.0137
2 2 9 0.7897 -0.0107
2 2 10 -0.6659 -0.0276
2 2 11 -1.1827 -0.0325
2 2 12 -1.1335 0.0433
2 2 13 -0.5283 -0.0305
2 2 14 -0.0153 0.0145
2 3 0 -2.2413 -0.2714
2 3 1 -4.5270 -0.2685
2 3 2 -1.6139 -0.0188
2 3 3 -1.1655 0.0362
2 3 4 0.1236 0.0446
2 3 5 -0.2800 0.0342
2 3 6 0.7960 0.0195
2 3 7 1.6442 -0.0395
2 3 8 1.5953 -0.0173
2 3 9 0.4725 0.0482
2 3 10 -0.3300 0.0567
2 3 11 -1.0813 0.0179
2 3 12 -1.1021 0.0919
2 3 13 -0.4319 0.0908
2 3 14 0.1698 0.2298
2 4 0 -0.9013 0.2193
2 4 1 -2.0756 0.0669
2 4 2 -0.0548 -0.0342
2 4 3 -0.8948 -0.1027
2 4 4 -0.7079 -0.0176
2 4 5 -1.1273 0.0421
2 4 6 -0.4309 0.0041
2 4 7 0.3652 -0.0787
2 4 8 0.5589 -0.0338
2 4 9 0.1562 0.0476
2 4 10 0.1105 0.0556
2 4 11 -0.4394 -0.0279
2 4 12 -0.4056 -0.0745
2 4 13 0.1122 0.0108
2 5 0 -1.0291 0.0960
2 5 1 -1.2707 0.2061
2 5 2 0.5110 0.1210
2 5 3 -0.1874 0.0086
2 5 4 -0.2763 -0.0112
2 5 5 -0.9889 -0.0402
2 5 6 -0.6390 -0.0382
2 5 7 0.1025 0.0099
2 5 8 0.2855 0.0640
2 5 9 0.1684 0.0416
2 5 10 0.4359 -0.0152
2 5 11 0.0494 -0.1320
2 5 12 0.0187 -0.3062
2 5 13 0.3349 -0.2131
2 6 0 -0.8753 -0.2370
2 6 1 -1.1187 -0.1017
2 6 2 -0.0302 -0.0145
2 6 3 -0.1627 0.0551
2 6 4 -0.1798 0.0621
2 6 5 -0.8941 -0.0527
2 6 6 -0.4497 -0.0431
2 6 7 0.3148 0.0766
2 6 8 0.4472 0.1044
2 6 9 0.4515 0.0401
2 6 10 0.6326 0.0144
2 6 11 0.0896 -0.0433
2 6 12 -0.1497 -0.2283
2 7 0 -0.0362 0.0427
2 7 1 -0.4947 -0.0297
2 7 2 -0.3865 -0.0977
2 7 3 -0.4152 -0.0884
2 7 4 -0.5475 -0.0300
2 7 5 -1.0018 -0.0761
2 7 6 -0.2984 -0.0022
2 7 7 0.3266 0.0966
2 7 8 0.3517 0.0675
2 7 9 0.4508 0.0650
2 7 10 0.4761 0.1326
2 8 0 0.6223 0.1593
2 8 1 0.0977 0.1443
2 8 2 -0.2541 0.0339
2 8 3 -0.3569 -0.0631
2 8 4 -0.5008 -0.0421
2 8 5 -0.6090 -0.0755
2 8 6 0.1403 0.0047
2 8 7 0.3030 0.0434
2 8 8 0.1239 -0.0057
2 8 9 0.2382 0.0606
2 9 0 0.7220 -0.0832
2 9 1 0.1247 -0.0150
2 9 2 -0.1844 0.0450
2 9 3 -0.3447 0.0910
2 9 4 -0.2875 0.1293
2 9 5 -0.1960 0.0079
2 9 6 0.3984 -0.0252
2 9 7 0.1816 -0.0526
2 10 0 0.2750 -0.1419
2 10 1 -0.1071 -0.1277
2 10 2 -0.0918 -0.0303
2 10 3 -0.3230 0.1375
3 -7 0 -0.2190 -0.2137
3 -7 1 -0.5579 0.0767
3 -7 2 -0.4379 -0.0604
3 -7 3 -0.1443 0.0803
3 -7 4 0.0695 -0.1346
3 -7 5 0.1565 0.0515
3 -7 6 -0.0398 -0.0388
3 -7 7 -0.0588 0.1134
3 -6 0 -0.1037 -0.1602
3 -6 1 -0.4144 -0.0376
3 -6 2 -0.0905 -0.0909
3 -6 3 0.2510 0.0926
3 -6 4 0.3681 -0.0225
3 -6 5 -0.0060 0.1081
3 -6 6 -0.4234 -0.0409
3 -6 7 -0.4171 0.0849
3 -6 8 -0.1820 0.0370
3 -6 9 -0.0708 -0.1676
3 -5 0 -0.0642 0.0852
3 -5 1 -0.6960 0.0225
3 -5 2 -0.2235 -0.0700
3 -5 3 0.0450 -0.0215
3 -5 4 0.0030 -0.0002
3 -5 5 -0.1649 0.1066
3 -5 6 -0.3172 0.0166
3 -5 7 -0.4132 0.0404
3 -5 8 -0.1562 -0.0549
3 -5 9 0.0165 -0.2009
3 -5 10 0.2228 -0.0804
3 -5 11 -0.1855 0.1937
3 -4 0 0.2665 0.1034
3 -4 1 -0.8036 0.1196
3 -4 2 0.2160 0.1082
3 -4 3 -0.1529 -0.0252
3 -4 4 -1.0073 -0.0498
3 -4 5 -0.8344 -0.0636
3 -4 6 -0.4766 -0.0093
3 -4 7 -0.2798 0.0444
3 -4 8 -0.0234 0.0552
3 -4 9 0.0074 -0.0753
3 -4 10 0.0136 -0.0471
3 -4 11 -0.7260 0.1389
3 -4 12 0.1137 0.3552
3 -3 0 0.1518 -0.2104
3 -3 1 -0.7336 -0.1369
3 -3 2 1.9105 0.0516
3 -3 3 0.7651 0.0521
3 -3 4 -1.2517 0.0818
3 -3 5 -1.5502 -0.0574
3 -3 6 -1.2314 -0.0525
3 -3 7 -0.4493 -0.0504
3 -3 8 -0.0941 0.0988
3 -3 9 0.0571 0.0625
3 -3 10 -0.0585 -0.0342
3 -3 11 -0.8555 -0.0477
3 -3 12 0.2692 0.1981
3 -3 13 0.2421 0.2376
3 -2 0 -0.8556 0.0131
3 -2 1 -1.3546 -0.1049
3 -2 2 3.1979 -0.1220
3 -2 3 1.8014 -0.0880
3 -2 4 -0.4619 0.0724
3 -2 5 -1.6537 0.0691
3 -2 6 -1.5641 0.0252
3 -2 7 -0.1495 -0.1267
3 -2 8 0.0264 -0.0523
3 -2 9 0.1145 0.0351
3 -2 10 -0.1498 0.0288
3 -2 11 -0.4371 -0.0346
3 -2 12 0.6578 -0.0129
3 -2 13 0.2819 -0.0147
3 -2 14 0.1747 0.2074
3 -1 0 -1.5517 0.2337
3 -1 1 -1.2195 0.2666
3 -1 2 4.9623 0.0857
3 -1 3 3.8622 -0.0740
3 -1 4 1.5603 -0.0902
3 -1 5 -1.4875 0.0003
3 -1 6 -1.7802 0.0746
3 -1 7 0.3457 0.0068
3 -1 8 0.5869 -0.0729
3 -1 9 0.2756 -0.0580
3 -1 10 -0.6521 -0.0065
3 -1 11 -0.5742 0.0724
3 -1 12 0.4109 -0.0080
3 -1 13 0.3073 -0.1000
3 -1 14 0.3744 0.0062
3 0 0 -1.7199 -0.2719
3 0 1 0.0146 -0.0448
3 0 2 7.4924 0.0905
3 0 3 7.3047 0.1255
3 0 4 4.7230 0.0046
3 0 5 -0.7033 -0.0541
3 0 6 -1.9726 -0.0122
3 0 7 -0.0325 0.1058
3 0 8 0.4663 0.0605
3 0 9 0.1071 -0.0067
3 0 10 -1.0651 -0.0661
3 0 11 -0.9438 0.0412
3 0 12 -0.2411 0.0217
3 0 13 0.1893 0.0025
3 0 14 0.4880 -0.0145
3 1 0 -1.7654 -0.1550
3 1 1 0.2531 -0.2976
3 1 2 7.2334 -0.1792
3 1 3 7.7956 0.0317
3 1 4 5.9100 0.1088
3 1 5 0.5924 0.0344
3 1 6 -1.0232 -0.0626
3 1 7 -0.6588 -0.0069
3 1 8 -0.8928 0.0164
3 1 9 -1.1509 0.0381
3 1 10 -1.3043 -0.0302
3 1 11 -0.7083 -0.0068
3 1 12 -0.1302 -0.0052
3 1 13 0.3046 0.0279
3 1 14 0.3523 0.0327
3 2 0 -1.5056 0.4130
3 2 1 -0.5123 0.1985
3 2 2 4.1865 0.0364
3 2 3 4.4322 -0.0934
3 2 4 3.8639 -0.0301
3 2 5 1.1885 0.0246
3 2 6 0.5187 0.0083
3 2 7 -0.5271 -0.0497
3 2 8 -1.8692 -0.0659
3 2 9 -2.3529 -0.0103
3 2 10 -1.4539 -0.0097
3 2 11 -0.4320 -0.0148
3 2 12 0.3444 0.0003
3 2 13 0.6080 -0.0252
3 2 14 0.3410 0.0239
3 3 0 -1.1889 -0.0098
3 3 1 -1.0657 0.1794
3 3 2 1.7273 0.2153
3 3 3 1.3071 -0.0181
3 3 4 1.4667 -0.0877
3 3 5 0.8872 -0.0489
3 3 6 1.2132 0.0343
3 3 7 0.2313 -0.0011
3 3 8 -0.9886 0.0119
3 3 9 -1.7137 0.0284
3 3 10 -0.9426 0.0195
3 3 11 -0.4870 -0.0006
3 3 12 0.2583 0.0394
3 3 13 0.5430 -0.0309
3 3 14 0.3753 -0.0015
3 4 0 -0.8783 -0.3247
3 4 1 -1.1336 -0.2324
3 4 2 0.5684 -0.0866
3 4 3 -0.2718 -0.0364
3 4 4 0.0155 0.0239
3 4 5 0.0868 0.0238
3 4 6 0.9763 0.0232
3 4 7 0.9151 -0.0303
3 4 8 0.5564 0.0228
3 4 9 -0.2932 0.0269
3 4 10 -0.1587 0.0080
3 4 11 -0.5165 -0.0121
3 4 12 -0.1039 0.0441
3 4 13 0.1521 0.0710
3 4 14 0.1160 0.1268
3 5 0 -0.6622 0.1746
3 5 1 -0.8283 0.0289
3 5 2 0.1367 -0.1059
3 5 3 -0.8393 -0.0461
3 5 4 -0.7295 0.0589
3 5 5 -0.6092 0.0644
3 5 6 0.5978 0.0237
3 5 7 1.0312 -0.0324
3 5 8 0.9128 -0.0342
3 5 9 -0.1021 -0.0626
3 5 10 -0.1671 -0.0386
3 5 11 -0.5958 -0.0048
3 5 12 -0.2934 0.0452
3 5 13 -0.0717 0.1974
3 6 0 -0.7720 0.1455
3 6 1 -0.6924 0.2036
3 6 2 -0.0679 0.0774
3 6 3 -0.5406 0.0620
3 6 4 -0.5988 0.0256
3 6 5 -0.5085 -0.0476
3 6 6 0.6290 -0.0464
3 6 7 0.8583 0.0061
3 6 8 0.4486 -0.0072
3 6 9 -0.6045 -0.0058
3 6 10 -0.6411 0.0919
3 6 11 -0.8190 0.1558
3 6 12 -0.3567 0.1270
3 7 0 -0.6081 -0.1951
3 7 1 -0.6217 -0.1091
3 7 2 -0.4293 -0.0780
3 7 3 -0.2728 0.0358
3 7 4 -0.3769 0.0477
3 7 5 -0.1643 -0.0604
3 7 6 0.6455 -0.0701
3 7 7 0.5736 0.0084
3 7 8 0.1369 0.0108
3 7 9 -0.5684 0.1184
3 7 10 -0.6835 0.2455
3 7 11 -0.8156 0.2428
3 8 0 -0.1673 0.0190
3 8 1 -0.1456 -0.0823
3 8 2 -0.3708 -0.1337
3 8 3 -0.0791 -0.0058
3 8 4 -0.2721 0.0965
3 8 5 -0.0432 0.0112
3 8 6 0.2666 -0.0459
3 8 7 -0.0238 -0.0620
3 8 8 -0.1510 -0.0901
3 8 9 -0.2405 0.0768
3 8 10 -0.3339 0.1580
3 9 0 0.0195 0.1485
3 9 1 0.2033 0.1027
3 9 2 0.0385 0.0153
3 9 3 0.2768 0.0474
3 9 4 0.1467 0.0678
3 9 5 0.1806 -0.0553
3 9 6 0.0253 -0.1105
3 9 7 -0.4518 -0.1524
3 9 8 -0.3168 -0.1744
3 10 0 0.0822 0.0421
3 10 1 0.1168 0.0550
3 10 2 0.1136 -0.0062
3 10 3 0.1735 -0.0007
3 10 4 0.2608 -0.0564
3 10 5 0.1872 -0.1745
4 -6 0 -0.4792 -0.1792
4 -6 1 -0.3518 0.0630
4 -6 2 -0.1142 -0.0804
4 -6 3 0.0248 0.1126
4 -6 4 -0.1481 -0.1428
4 -6 5 -0.2678 0.0894
4 -6 6 -0.2564 -0.0474
4 -6 7 0.1531 0.1569
4 -6 8 0.1552 -0.0494
4 -5 0 -0.1339 -0.1618
4 -5 1 -0.2257 -0.0243
4 -5 2 0.0052 -0.0861
4 -5 3 0.0948 0.1151
4 -5 4 -0.2747 -0.0577
4 -5 5 -0.4788 0.0515
4 -5 6 -0.3417 -0.0929
4 -5 7 0.1787 0.1092
4 -5 8 0.4525 -0.0283
4 -5 9 0.2791 -0.1058
4 -5 10 0.0472 0.0933
4 -4 0 -0.2328 0.0462
4 -4 1 -0.5998 0.0015
4 -4 2 -0.1578 -0.1157
4 -4 3 -0.2328 -0.0183
4 -4 4 -0.5786 -0.0062
4 -4 5 -0.3151 0.0615
4 -4 6 -0.2436 -0.0262
4 -4 7 -0.0134 0.0221
4 -4 8 0.3937 -0.0698
4 -4 9 0.3906 -0.0940
4 -4 10 0.3143 0.1331
4 -4 11 0.1525 0.2809
4 -3 0 0.1663 0.1441
4 -3 1 -0.2746 0.1688
4 -3 2 0.2598 0.0746
4 -3 3 -0.9646 -0.0250
4 -3 4 -1.6283 -0.0223
4 -3 5 -0.6280 -0.0146
4 -3 6 -0.2792 0.0477
4 -3 7 0.0789 0.0470
4 -3 8 0.3040 0.0035
4 -3 9 0.1774 -0.1231
4 -3 10 0.1123 -0.0256
4 -3 11 0.2336 0.1299
4 -3 12 1.0782 0.2337
4 -3 13 0.4958 -0.0227
4 -2 0 0.8897 -0.1950
4 -2 1 0.8710 -0.0695
4 -2 2 1.8650 0.0576
4 -2 3 -0.6450 0.0654
4 -2 4 -1.8839 0.0776
4 -2 5 -0.9100 -0.0349
4 -2 6 -0.3711 -0.0113
4 -2 7 0.4873 -0.0158
4 -2 8 0.3513 0.0779
4 -2 9 0.0427 -0.0236
4 -2 10 -0.2104 -0.0928
4 -2 11 -0.0022 -0.0700
4 -2 12 0.6767 0.1118
4 -2 13 0.0280 0.1304
4 -1 0 0.5101 -0.0653
4 -1 1 0.9181 -0.1710
4 -1 2 2.9084 -0.1775
4 -1 3 0.3646 -0.0971
4 -1 4 -1.0226 0.0472
4 -1 5 -0.9178 0.0445
4 -1 6 -0.4845 0.0006
4 -1 7 0.7139 -0.0861
4 -1 8 0.1644 -0.0111
4 -1 9 -0.1329 0.0334
4 -1 10 -0.3462 0.0105
4 -1 11 0.0836 -0.0510
4 -1 12 0.3606 -0.0524
4 -1 13 -0.2647 0.0492
4 -1 14 -0.2428 0.2742
4 0 0 0.1606 0.2725
4 0 1 0.7403 0.2432
4 0 2 3.2156 0.0713
4 0 3 0.9626 -0.0689
4 0 4 -0.8945 -0.0697
4 0 5 -2.0063 0.0162
4 0 6 -1.4518 0.0613
4 0 7 0.1953 0.0193
4 0 8 -0.2165 -0.0589
4 0 9 -0.3108 -0.0273
4 0 10 -0.4329 0.0312
4 0 11 0.1709 0.0646
4 0 12 0.4268 -0.0478
4 0 13 0.1665 -0.0586
4 0 14 0.0359 0.0214
4 1 0 0.5995 -0.1690
4 1 1 1.2468 0.0459
4 1 2 3.4177 0.1762
4 1 3 1.3621 0.1327
4 1 4 -1.0070 0.0079
4 1 5 -2.8609 -0.0549
4 1 6 -2.4495 -0.0099
4 1 7 -0.9639 0.0899
4 1 8 -0.8108 0.0351
4 1 9 -0.2991 0.0005
4 1 10 -0.1553 -0.0201
4 1 11 0.1433 0.0383
4 1 12 0.3662 -0.0066
4 1 13 0.4133 -0.0393
4 1 14 0.2129 -0.0891
4 2 0 0.8761 -0.2316
4 2 1 1.0424 -0.3300
4 2 2 2.4965 -0.1939
4 2 3 1.1181 -0.0365
4 2 4 -0.4516 0.0590
4 2 5 -1.7126 -0.0025
4 2 6 -1.9537 -0.0421
4 2 7 -1.7842 -0.0048
4 2 8 -1.5281 0.0139
4 2 9 -0.3970 0.0148
4 2 10 0.3446 -0.0352
4 2 11 0.2631 -0.0225
4 2 12 0.3106 0.0259
4 2 13 0.2645 0.0450
4 2 14 0.1623 0.0448
4 3 0 1.2139 0.3283
4 3 1 0.5111 0.1223
4 3 2 1.2309 -0.0520
4 3 3 0.3746 -0.1243
4 3 4 -0.0576 -0.0012
4 3 5 -0.2632 0.0581
4 3 6 -0.7686 0.0587
4 3 7 -1.5245 -0.0464
4 3 8 -1.4689 -0.0646
4 3 9 -0.4981 -0.0481
4 3 10 0.4610 -0.0232
4 3 11 0.2382 -0.0091
4 3 12 0.3215 0.0468
4 3 13 0.1660 0.0190
4 3 14 0.1728 0.0797
4 4 0 1.7901 0.0478
4 4 1 0.5650 0.2423
4 4 2 0.9762 0.2239
4 4 3 0.1953 0.0815
4 4 4 0.0970 0.0014
4 4 5 0.2644 -0.0097
4 4 6 0.1459 0.0313
4 4 7 -0.4491 -0.0341
4 4 8 -0.5052 -0.0045
4 4 9 -0.3317 0.0147
4 4 10 0.3665 0.0577
4 4 11 0.1721 0.0281
4 4 12 0.3072 -0.0174
4 4 13 0.1209 -0.1392
4 4 14 0.1070 -0.1043
4 5 0 1.8367 -0.3628
4 5 1 0.7109 -0.2025
4 5 2 1.0238 -0.0577
4 5 3 0.3047 0.0576
4 5 4 0.1867 -0.0035
4 5 5 0.3863 -0.0668
4 5 6 0.7251 -0.0624
4 5 7 0.2911 -0.0365
4 5 8 -0.0096 0.0493
4 5 9 -0.4316 0.0756
4 5 10 0.3038 0.0778
4 5 11 0.3701 -0.0179
4 5 12 0.3737 -0.1447
4 5 13 0.0820 -0.2232
4 6 0 0.9595 0.0562
4 6 1 0.6586 -0.0285
4 6 2 1.0067 -0.1185
4 6 3 0.5717 -0.0268
4 6 4 0.2120 -0.0418
4 6 5 0.3231 -0.0293
4 6 6 0.6734 -0.0068
4 6 7 0.0781 0.0461
4 6 8 -0.4144 0.0238
4 6 9 -0.9184 0.0000
4 6 10 0.0428 -0.0379
4 6 11 0.4132 -0.1435
4 6 12 0.4048 -0.2693
4 7 0 -0.0632 0.1929
4 7 1 0.2990 0.2111
4 7 2 0.7441 0.0849
4 7 3 1.0246 0.0618
4 7 4 0.4583 -0.0104
4 7 5 0.4207 0.0030
4 7 6 0.3767 0.0443
4 7 7 -0.1892 0.1025
4 7 8 -0.5308 -0.0244
4 7 9 -0.9389 -0.0527
4 7 10 -0.2230 -0.1176
4 7 11 0.1714 -0.2131
4 8 0 0.0897 -0.0776
4 8 1 0.1170 -0.0704
4 8 2 0.0034 -0.0478
4 8 3 0.8373 0.0237
4 8 4 0.4556 0.0017
4 8 5 0.5355 -0.0222
4 8 6 0.1771 -0.0047
4 8 7 -0.0594 0.0637
4 8 8 -0.0763 -0.0180
4 8 9 -0.3725 0.0502
4 8 10 -0.1850 -0.0544
4 9 0 0.6805 0.0238
4 9 1 0.4011 -0.0814
4 9 2 -0.4313 -0.0718
4 9 3 0.2547 -0.0017
4 9 4 0.0736 -0.0231
4 9 5 0.2328 -0.0880
4 9 6 -0.1873 -0.0790
4 9 7 -0.1047 0.0098
4 9 8 0.1398 0.0491
4 10 0 0.2887 0.0368
4 10 1 0.3217 0.0476
4 10 2 -0.3655 0.0850
4 10 3 -0.0053 0.1159
4 10 4 -0.0607 0.0245
4 10 5 -0.0540 -0.0942
4 10 6 -0.3397 -0.1041
5 -5 0 -0.5258 -0.1777
5 -5 1 -0.0421 0.0961
5 -5 2 -0.1014 -0.1120
5 -5 3 -0.1802 0.0996
5 -5 4 -0.2726 -0.1713
5 -5 5 0.0203 0.0911
5 -5 6 0.3821 -0.0346
5 -5 7 0.5385 0.1372
5 -5 8 0.1244 -0.1454
5 -4 0 -0.1277 -0.1460
5 -4 1 0.2163 0.0470
5 -4 2 0.0260 -0.0873
5 -4 3 -0.3456 0.1303
5 -4 4 -0.6628 -0.0731
5 -4 5 -0.3428 0.0256
5 -4 6 0.0670 -0.0792
5 -4 7 0.2983 0.0829
5 -4 8 0.2130 -0.0633
5 -4 9 0.0321 -0.0554
5 -4 10 -0.0715 0.0958
5 -3 0 0.3130 0.0127
5 -3 1 0.4862 -0.0030
5 -3 2 0.2874 -0.1581
5 -3 3 -0.4170 -0.0018
5 -3 4 -0.7280 -0.0025
5 -3 5 -0.3126 0.0534
5 -3 6 -0.3018 -0.0011
5 -3 7 -0.1192 0.0164
5 -3 8 0.0584 -0.0377
5 -3 9 -0.0961 -0.0451
5 -3 10 -0.1806 0.0615
5 -3 11 -0.0619 0.0393
5 -3 12 -0.0169 -0.0593
5 -2 0 0.6871 0.1524
5 -2 1 0.4155 0.1428
5 -2 2 -0.0980 0.0133
5 -2 3 -1.3365 -0.0423
5 -2 4 -1.2505 -0.0504
5 -2 5 -0.1846 -0.0212
5 -2 6 -0.0625 0.0615
5 -2 7 0.3156 0.0567
5 -2 8 0.1797 0.0518
5 -2 9 -0.1737 -0.0604
5 -2 10 -0.2603 -0.0508
5 -2 11 -0.0084 -0.0412
5 -2 12 0.0136 0.0104
5 -2 13 -0.3612 -0.0635
5 -1 0 0.8643 -0.1649
5 -1 1 0.4439 -0.0440
5 -1 2 -0.1061 0.0802
5 -1 3 -1.8022 0.0755
5 -1 4 -1.7478 0.0348
5 -1 5 -0.4627 -0.0517
5 -1 6 0.1329 -0.0115
5 -1 7 1.0778 0.0193
5 -1 8 0.5800 0.1060
5 -1 9 0.1110 0.0132
5 -1 10 -0.1348 -0.0735
5 -1 11 0.0279 -0.1015
5 -1 12 -0.0945 0.0334
5 -1 13 -0.2510 0.1401
5 0 0 0.0826 -0.1117
5 0 1 0.1239 -0.1965
5 0 2 0.2188 -0.1590
5 0 3 -1.3816 -0.0673
5 0 4 -1.9148 0.0550
5 0 5 -1.0868 0.0519
5 0 6 -0.1348 -0.0151
5 0 7 1.3247 -0.0698
5 0 8 0.8109 -0.0250
5 0 9 0.5332 0.0256
5 0 10 0.1933 0.0166
5 0 11 0.2100 -0.0301
5 0 12 0.0158 -0.0032
5 0 13 0.0183 0.1120
5 0 14 0.2169 0.1787
5 1 0 -0.9207 0.2929
5 1 1 -0.4762 0.1963
5 1 2 0.0654 -0.0005
5 1 3 -1.1620 -0.1042
5 1 4 -2.2521 -0.0505
5 1 5 -1.7551 0.0334
5 1 6 -0.7275 0.0389
5 1 7 0.8747 0.0045
5 1 8 0.7201 -0.0659
5 1 9 0.7990 -0.0153
5 1 10 0.4267 0.0348
5 1 11 0.2718 0.0426
5 1 12 0.2133 0.0009
5 1 13 0.1818 -0.0022
5 1 14 0.0730 0.0109
5 2 0 -0.8411 -0.0793
5 2 1 -0.6287 0.0888
5 2 2 -0.1205 0.1485
5 2 3 -0.7420 0.1072
5 2 4 -1.8454 0.0056
5 2 5 -1.5148 -0.0536
5 2 6 -1.2520 -0.0067
5 2 7 -0.1459 0.0781
5 2 8 0.3107 0.0497
5 2 9 0.9848 0.0200
5 2 10 0.7404 -0.0184
5 2 11 0.2748 -0.0173
5 2 12 0.2291 0.0033
5 2 13 -0.0021 -0.0389
5 2 14 -0.2064 -0.0572
5 3 0 0.2625 -0.2798
5 3 1 -0.4376 -0.2881
5 3 2 -0.1392 -0.1410
5 3 3 -0.1173 0.0186
5 3 4 -0.7310 0.0379
5 3 5 -0.4035 -0.0264
5 3 6 -1.0984 -0.0331
5 3 7 -0.7325 -0.0177
5 3 8 -0.0102 0.0241
5 3 9 0.9416 0.0201
5 3 10 0.9219 -0.0256
5 3 11 0.3603 -0.0626
5 3 12 0.3057 0.0028
5 3 13 -0.0088 -0.0203
5 3 14 -0.1126 0.0217
5 4 0 1.2733 0.2366
5 4 1 -0.2204 0.0941
5 4 2 -0.0414 -0.0519
5 4 3 0.0865 -0.0891
5 4 4 -0.2151 -0.0588
5 4 5 0.3033 0.0331
5 4 6 -0.3872 0.0630
5 4 7 -0.3013 -0.0405
5 4 8 0.1079 -0.0370
5 4 9 0.5684 -0.0238
5 4 10 0.6150 -0.0004
5 4 11 0.2450 -0.0280
5 4 12 0.2621 0.0265
5 4 13 0.1971 0.0261
5 4 14 0.2691 0.1597
5 5 0 1.3377 0.0834
5 5 1 -0.2682 0.2394
5 5 2 -0.0515 0.1903
5 5 3 -0.0199 0.0770
5 5 4 -0.2094 -0.0345
5 5 5 0.4598 0.0403
5 5 6 0.2015 0.0744
5 5 7 0.1539 0.0015
5 5 8 0.1791 -0.0214
5 5 9 0.2233 -0.0340
5 5 10 0.4740 0.0170
5 5 11 0.2153 0.0510
5 5 12 -0.0422 0.1129
5 5 13 0.0717 0.1336
5 6 0 0.9136 -0.2884
5 6 1 -0.3584 -0.1797
5 6 2 -0.4552 -0.0627
5 6 3 -0.4728 0.0511
5 6 4 -0.5740 0.0215
5 6 5 0.2660 0.0380
5 6 6 0.2407 -0.0294
5 6 7 -0.0024 -0.0485
5 6 8 -0.1177 -0.0703
5 6 9 -0.0314 -0.0363
5 6 10 0.6121 0.0507
5 6 11 0.3976 0.1506
5 6 12 -0.2247 0.2023
5 7 0 0.2412 0.0927
5 7 1 -0.0927 -0.0734
5 7 2 -0.4884 -0.1549
5 7 3 -0.5336 -0.0778
5 7 4 -1.0428 -0.0120
5 7 5 -0.2533 0.0234
5 7 6 -0.1409 -0.0873
5 7 7 -0.1535 -0.0648
5 7 8 -0.3163 -0.0664
5 7 9 -0.4150 0.0977
5 7 10 0.2205 0.2008
5 7 11 0.1869 0.2530
5 8 0 -0.3560 0.1832
5 8 1 0.1270 0.1436
5 8 2 -0.0966 0.0713
5 8 3 0.2622 0.0258
5 8 4 -0.8282 0.0472
5 8 5 -0.5177 0.0385
5 8 6 -0.5022 -0.0894
5 8 7 0.0073 -0.0491
5 8 8 -0.1846 -0.0158
5 8 9 -0.6344 0.2524
5 8 10 -0.3614 0.2938
5 9 0 0.4568 -0.1432
5 9 1 0.5098 -0.0703
5 9 2 -0.0355 0.0252
5 9 3 0.6239 0.0381
5 9 4 -0.5538 0.1021
5 9 5 -0.6669 0.1112
5 9 6 -0.8478 0.0050
5 9 7 -0.0224 0.0080
5 9 8 -0.0964 -0.0021
5 9 9 -0.4347 0.1978
5 10 0 1.4365 0.0168
5 10 1 1.0414 -0.0315
5 10 2 -0.0568 -0.0360
5 10 3 0.2726 -0.0749
5 10 4 -0.6154 0.0027
5 10 5 -0.8283 0.0997
5 10 6 -0.9709 0.1098
6 -4 0 0.0216 -0.1706
6 -4 1 0.1619 0.1155
6 -4 2 -0.1200 -0.1510
6 -4 3 -0.1647 0.1149
6 -4 4 0.1636 -0.1419
6 -4 5 0.3580 0.0585
6 -4 6 0.3649 -0.0509
6 -4 7 -0.0839 0.0648
6 -4 8 -0.2782 -0.1287
6 -3 0 0.3801 -0.0917
6 -3 1 0.3019 0.0809
6 -3 2 -0.0202 -0.0740
6 -3 3 -0.2370 0.1587
6 -3 4 0.1539 -0.0582
6 -3 5 0.4343 -0.0233
6 -3 6 0.5998 -0.0986
6 -3 7 0.3541 0.0205
6 -3 8 0.3144 -0.0036
6 -3 9 0.1255 0.0362
6 -3 10 0.0018 0.1133
6 -2 0 0.5478 0.0771
6 -2 1 0.2265 0.0064
6 -2 2 0.0505 -0.1189
6 -2 3 -0.1906 0.0102
6 -2 4 0.3119 -0.0152
6 -2 5 0.5524 0.0119
6 -2 6 0.6126 -0.0225
6 -2 7 0.5843 -0.0226
6 -2 8 0.5330 0.0135
6 -2 9 0.1580 0.0211
6 -2 10 0.1475 0.0904
6 -2 11 0.3166 0.1344
6 -1 0 0.3585 0.2079
6 -1 1 -0.2137 0.1401
6 -1 2 -0.2624 0.0383
6 -1 3 -0.3768 -0.0851
6 -1 4 0.3626 -0.0925
6 -1 5 0.7106 -0.0234
6 -1 6 0.6650 0.0694
6 -1 7 0.6495 0.0572
6 -1 8 0.2238 0.0495
6 -1 9 -0.1014 -0.0581
6 -1 10 0.1458 -0.0510
6 -1 11 0.4621 0.0493
6 -1 12 0.3638 0.2195
6 0 0 0.1886 -0.1108
6 0 1 -0.1876 0.0221
6 0 2 -0.1950 0.1395
6 0 3 -0.4132 0.0488
6 0 4 0.1414 0.0031
6 0 5 0.6741 -0.0482
6 0 6 0.8267 -0.0161
6 0 7 0.9307 0.0318
6 0 8 0.1901 0.0788
6 0 9 -0.1087 0.0129
6 0 10 -0.0054 -0.0508
6 0 11 0.1400 -0.0232
6 0 12 0.0555 0.1326
6 0 13 0.0574 0.1885
6 1 0 0.0308 -0.1340
6 1 1 0.2753 -0.1615
6 1 2 0.2606 -0.1199
6 1 3 -0.1305 -0.0312
6 1 4 -0.0486 0.0655
6 1 5 0.7222 0.0217
6 1 6 1.0489 -0.0661
6 1 7 1.2797 -0.0567
6 1 8 0.5222 -0.0040
6 1 9 0.1748 0.0661
6 1 10 -0.1270 0.0326
6 1 11 -0.2519 -0.0307
6 1 12 -0.2244 -0.0170
6 1 13 -0.1897 -0.0048
6 2 0 0.0861 0.2644
6 2 1 0.5913 0.1706
6 2 2 0.4927 -0.0372
6 2 3 0.1743 -0.0753
6 2 4 -0.1497 -0.0486
6 2 5 0.6955 0.0062
6 2 6 0.7163 0.0214
6 2 7 1.0607 0.0285
6 2 8 0.7468 -0.0351
6 2 9 0.5269 -0.0204
6 2 10 -0.0694 -0.0275
6 2 11 -0.3698 -0.0376
6 2 12 -0.1591 -0.0287
6 2 13 -0.0875 -0.0880
6 3 0 0.3043 0.0037
6 3 1 0.3607 0.1553
6 3 2 0.3534 0.1427
6 3 3 0.4328 0.0950
6 3 4 -0.1219 -0.0564
6 3 5 0.4721 -0.0488
6 3 6 -0.1862 0.0301
6 3 7 0.3020 0.0696
6 3 8 0.6310 0.0134
6 3 9 0.7695 -0.0374
6 3 10 0.1719 -0.0481
6 3 11 -0.2355 0.0071
6 3 12 -0.1154 0.0923
6 3 13 -0.0830 -0.0124
6 4 0 0.2493 -0.2577
6 4 1 -0.2799 -0.2378
6 4 2 -0.0323 -0.1211
6 4 3 0.3667 0.0072
6 4 4 -0.1728 -0.0121
6 4 5 0.3433 0.0240
6 4 6 -0.6512 -0.0014
6 4 7 -0.2241 -0.0462
6 4 8 0.1035 -0.0012
6 4 9 0.3407 0.0240
6 4 10 0.0355 0.0374
6 4 11 -0.1657 0.0458
6 4 12 -0.2484 0.0963
6 4 13 -0.2707 -0.0115
6 5 0 -0.1421 0.1256
6 5 1 -0.5571 -0.0009
6 5 2 -0.0341 -0.0720
6 5 3 0.3290 -0.0700
6 5 4 -0.2057 -0.0179
6 5 5 0.3644 0.0972
6 5 6 -0.5194 0.0402
6 5 7 -0.2902 -0.0332
6 5 8 -0.3806 0.0152
6 5 9 -0.3020 0.0313
6 5 10 -0.3312 0.0247
6 5 11 -0.3020 -0.0345
6 5 12 -0.4961 -0.0770
6 5 13 -0.2986 -0.1544
6 6 0 -0.5921 0.0654
6 6 1 -0.5875 0.1943
6 6 2 0.1011 0.2138
6 6 3 0.6085 0.0908
6 6 4 0.1562 0.0108
6 6 5 0.6393 0.0063
6 6 6 -0.1842 -0.0284
6 6 7 -0.0483 0.0271
6 6 8 -0.1536 0.0238
6 6 9 0.0194 -0.0454
6 6 10 0.1091 -0.0712
6 6 11 -0.0692 -0.0887
6 6 12 -0.4948 -0.1620
6 7 0 -0.3054 -0.2352
6 7 1 -0.2988 -0.1578
6 7 2 -0.0349 -0.0157
6 7 3 0.5826 0.0088
6 7 4 0.1859 0.0367
6 7 5 0.7623 -0.0478
6 7 6 0.1383 -0.0936
6 7 7 0.3535 0.0402
6 7 8 0.2832 -0.0357
6 7 9 0.5847 -0.1412
6 7 10 0.8393 -0.1769
6 7 11 0.5219 -0.1261
6 8 0 0.3247 0.0964
6 8 1 0.6560 -0.1086
6 8 2 0.4867 -0.1732
6 8 3 0.7456 -0.1493
6 8 4 -0.2601 0.0591
6 8 5 0.3054 0.0233
6 8 6 0.1070 -0.0176
6 8 7 0.5164 0.1298
6 8 8 0.0748 0.0487
6 8 9 0.1888 -0.0239
6 8 10 0.6246 -0.1610
6 9 0 -0.2992 0.2637
6 9 1 0.6182 0.1702
6 9 2 0.9168 0.0492
6 9 3 1.3021 -0.0329
6 9 4 -0.2092 0.1279
6 9 5 -0.0100 0.0148
6 9 6 -0.0409 -0.1036
6 9 7 0.4637 0.0357
6 9 8 -0.2792 0.0860
6 10 0 -1.3791 -0.1138
6 10 1 -0.6224 -0.0547
6 10 2 0.0829 -0.0198
6 10 3 1.0350 -0.0118
6 10 4 0.0422 0.1352
6 10 5 0.0510 -0.0272
6 10 6 -0.0248 -0.2437
7 -3 0 0.0956 0.0347
7 -3 1 -0.0685 0.1364
7 -3 2 0.0031 -0.1338
7 -3 3 -0.0322 0.0706
7 -3 4 0.4340 -0.1534
7 -3 5 0.1097 0.0214
7 -3 6 0.1094 0.0487
7 -3 7 -0.2371 0.1385
7 -2 0 0.2233 0.0542
7 -2 1 -0.0966 0.0053
7 -2 2 -0.0881 -0.0422
7 -2 3 -0.5323 0.1136
7 -2 4 -0.1653 -0.0320
7 -2 5 -0.5750 -0.0160
7 -2 6 -0.3058 -0.0375
7 -2 7 -0.4589 0.0132
7 -2 8 -0.2115 0.0102
7 -2 9 -0.3599 -0.0565
7 -1 0 0.3423 0.0177
7 -1 1 -0.0415 -0.1309
7 -1 2 0.0252 -0.0390
7 -1 3 -0.6858 0.0265
7 -1 4 -0.4829 0.0745
7 -1 5 -1.0044 0.0451
7 -1 6 -0.5821 -0.0446
7 -1 7 -0.5322 -0.1022
7 -1 8 -0.3808 -0.0485
7 -1 9 -0.4939 -0.0402
7 -1 10 0.0074 0.0194
7 -1 11 0.2888 0.1099
7 0 0 0.0009 0.0859
7 0 1 -0.1942 0.0722
7 0 2 0.1654 0.1079
7 0 3 -0.3147 -0.0699
7 0 4 -0.0387 -0.0092
7 0 5 -0.5454 -0.0017
7 0 6 -0.2164 0.0038
7 0 7 -0.2349 -0.0121
7 0 8 -0.3305 0.0146
7 0 9 -0.4721 0.0089
7 0 10 -0.0713 0.0405
7 0 11 0.1351 0.1274
7 0 12 0.1557 0.1858
7 1 0 -0.3622 -0.1270
7 1 1 -0.1909 0.0499
7 1 2 0.2632 0.1377
7 1 3 0.1151 0.0266
7 1 4 0.5196 0.0217
7 1 5 0.2163 -0.0571
7 1 6 0.3087 -0.0451
7 1 7 0.1180 0.0452
7 1 8 -0.1490 0.0897
7 1 9 -0.4721 0.0742
7 1 10 -0.4385 -0.0182
7 1 11 -0.3082 -0.0370
7 1 12 -0.0542 0.0109
7 2 0 -0.0958 -0.1444
7 2 1 0.1687 -0.1666
7 2 2 0.2339 -0.1623
7 2 3 0.1723 -0.0167
7 2 4 0.4843 0.0628
7 2 5 0.4137 0.0139
7 2 6 0.2057 -0.0501
7 2 7 0.1046 -0.0316
7 2 8 0.0548 -0.0333
7 2 9 -0.3235 0.0069
7 2 10 -0.5689 -0.0601
7 2 11 -0.4803 -0.0964
7 2 12 -0.1477 -0.0732
7 2 13 -0.1304 -0.0857
7 3 0 0.1397 0.2390
7 3 1 0.3064 0.1244
7 3 2 0.1333 -0.0682
7 3 3 0.1478 -0.0414
7 3 4 0.1188 -0.0533
7 3 5 0.1199 0.0337
7 3 6 -0.3843 0.0349
7 3 7 -0.0701 -0.0158
7 3 8 0.2919 -0.0837
7 3 9 0.0042 -0.0305
7 3 10 -0.3994 -0.0002
7 3 11 -0.3964 0.0201
7 3 12 -0.1767 -0.0091
7 3 13 -0.1692 -0.1195
7 4 0 -0.5632 0.0329
7 4 1 -0.3125 0.1670
7 4 2 -0.0830 0.1685
7 4 3 0.3065 0.0958
7 4 4 0.0589 -0.0768
7 4 5 0.0751 -0.0157
7 4 6 -0.7496 0.0166
7 4 7 -0.2307 0.0338
7 4 8 0.1907 0.0602
7 4 9 0.1097 0.0893
7 4 10 -0.1991 0.0810
7 4 11 -0.2297 0.0455
7 4 12 -0.2722 -0.0543
7 4 13 -0.1271 -0.2206
7 5 0 -0.9351 -0.3029
7 5 1 -0.8485 -0.2449
7 5 2 -0.5723 -0.0596
7 5 3 -0.0817 0.0060
7 5 4 -0.3332 -0.0115
7 5 5 -0.0812 0.0026
7 5 6 -0.9941 -0.0489
7 5 7 -0.5773 -0.0189
7 5 8 -0.4454 0.0482
7 5 9 -0.1954 0.0250
7 5 10 -0.0915 -0.0235
7 5 11 0.0394 -0.0659
7 5 12 -0.2475 -0.1221
7 6 0 -0.1575 0.0677
7 6 1 -0.3984 -0.0788
7 6 2 -0.6285 -0.0872
7 6 3 -0.5093 -0.1242
7 6 4 -0.9709 0.0108
7 6 5 -0.5782 0.0428
7 6 6 -1.2779 0.0351
7 6 7 -0.7887 0.0452
7 6 8 -0.8127 -0.0436
7 6 9 -0.3805 -0.1326
7 6 10 -0.1185 -0.0673
7 6 11 0.0453 0.0225
7 6 12 -0.2753 0.0182
7 7 0 -0.0914 0.2304
7 7 1 -0.1330 0.1967
7 7 2 -0.1786 0.1360
7 7 3 0.1362 -0.0351
7 7 4 -0.4156 0.0704
7 7 5 -0.0649 -0.0013
7 7 6 -0.6597 0.0853
7 7 7 -0.1966 0.1276
7 7 8 -0.4096 -0.0661
7 7 9 -0.1142 -0.0831
7 7 10 -0.0791 0.1783
7 7 11 -0.1215 0.3507
7 8 0 -0.7430 -0.0255
7 8 1 -0.4212 -0.0715
7 8 2 -0.1297 -0.0325
7 8 3 0.5386 -0.0482
7 8 4 0.2716 0.1359
7 8 5 1.0358 -0.0695
7 8 6 0.6696 -0.0126
7 8 7 0.7631 0.0160
7 8 8 0.0151 -0.1734
7 8 9 0.0843 -0.0879
7 8 10 0.0462 0.2185
7 9 0 -0.5244 0.1682
7 9 1 0.0674 -0.0842
7 9 2 -0.1079 -0.1837
7 9 3 -0.1394 -0.1606
7 9 4 -0.5095 0.0708
7 9 5 0.7991 -0.1567
7 9 6 1.0480 -0.0994
7 9 7 1.0227 -0.0218
7 9 8 -0.0430 -0.1416
7 10 0 -0.3230 0.4565
7 10 1 0.7095 0.2274
7 10 2 0.2380 0.0140
7 10 3 -0.5265 -0.0876
7 10 4 -1.2172 -0.0090
7 10 5 -0.0845 -0.2577
8 -2 2 0.0576 -0.1245
8 -2 3 -0.2804 -0.0076
8 -2 4 0.0878 -0.0680
8 -2 5 -0.3598 0.0487
8 -1 0 0.1426 0.0034
8 -1 1 -0.0890 -0.1383
8 -1 2 0.1848 0.0362
8 -1 3 -0.2654 0.0157
8 -1 4 0.2447 0.0301
8 -1 5 -0.2482 0.0059
8 -1 6 0.2465 0.0009
8 -1 7 -0.0482 0.0506
8 -1 8 -0.1302 0.0954
8 0 0 -0.0868 -0.0393
8 0 1 -0.0854 -0.1160
8 0 2 0.3588 0.0377
8 0 3 -0.1116 -0.0839
8 0 4 0.4172 0.0939
8 0 5 -0.1769 0.0365
8 0 6 0.3459 -0.0099
8 0 7 -0.0263 0.0003
8 0 8 -0.2737 0.0361
8 0 9 -0.4556 -0.0296
8 0 10 -0.0914 -0.1109
8 1 0 -0.1826 0.1187
8 1 1 0.2052 0.1404
8 1 2 0.6642 0.0762
8 1 3 0.1546 -0.1537
8 1 4 0.4821 0.0050
8 1 5 -0.3487 -0.0236
8 1 6 0.0397 0.0047
8 1 7 -0.2761 0.0356
8 1 8 -0.3993 0.0108
8 1 9 -0.5507 -0.0418
8 1 10 -0.1985 -0.1212
8 1 11 -0.0237 -0.0671
8 2 0 -0.1659 -0.0486
8 2 1 0.4404 0.1183
8 2 2 0.7280 0.1137
8 2 3 0.3687 0.0443
8 2 4 0.6376 0.0317
8 2 5 -0.2255 -0.0793
8 2 6 -0.0399 -0.0520
8 2 7 -0.2558 0.0330
8 2 8 -0.1971 0.0450
8 2 9 -0.4799 0.0545
8 2 10 -0.2198 -0.0203
8 2 11 0.0945 0.0307
8 3 0 -0.1883 -0.1766
8 3 1 0.1781 -0.1291
8 3 2 0.2169 -0.0882
8 3 3 0.2153 0.0608
8 3 4 0.6541 0.0431
8 3 5 0.1746 -0.0029
8 3 6 0.3040 -0.0564
8 3 7 0.2598 -0.0589
8 3 8 0.2908 -0.0212
8 3 9 -0.3558 0.0740
8 3 10 -0.3855 0.0407
8 3 11 -0.1714 0.0497
8 3 12 -0.1511 0.0247
8 4 0 0.0405 0.1292
8 4 1 0.1576 0.0812
8 4 2 0.0423 -0.0270
8 4 3 0.1285 -0.0469
8 4 4 0.3054 -0.0733
8 4 5 0.0731 0.0569
8 4 6 0.1613 0.0290
8 4 7 0.4150 -0.0373
8 4 8 0.3855 -0.0371
8 4 9 -0.3995 0.0072
8 4 10 -0.6746 -0.0558
8 4 11 -0.6510 -0.1070
8 4 12 -0.6861 -0.1849
8 5 0 0.2036 0.0383
8 5 1 0.3390 0.1614
8 5 2 0.3687 0.1923
8 5 3 0.4931 0.0219
8 5 4 0.1259 -0.0752
8 5 5 -0.2566 -0.0065
8 5 6 -0.4749 0.0125
8 5 7 -0.0115 0.0413
8 5 8 0.0799 0.0601
8 5 9 -0.2317 0.0247
8 5 10 -0.4343 -0.0707
8 5 11 -0.5549 -0.1291
8 6 0 -0.0659 -0.2528
8 6 1 -0.2066 -0.1782
8 6 2 -0.0363 0.0428
8 6 3 0.4703 -0.0152
8 6 4 0.1235 0.0006
8 6 5 -0.1338 -0.0919
8 6 6 -0.5647 -0.0529
8 6 7 -0.1017 0.0203
8 6 8 0.0050 0.0248
8 6 9 0.2167 0.0436
8 6 10 0.1434 0.0934
8 6 11 -0.0477 0.1102
8 7 0 -0.0500 0.0371
8 7 1 -0.4834 -0.1214
8 7 2 -0.4633 -0.0435
8 7 3 0.1339 -0.0938
8 7 4 -0.0744 0.0692
8 7 5 0.0576 -0.0783
8 7 6 -0.2338 0.0611
8 7 7 0.1786 0.0589
8 7 8 0.0756 -0.0443
8 7 9 0.3395 0.0682
8 7 10 0.1664 0.2579
8 8 0 0.4416 0.3424
8 8 1 0.3237 0.1002
8 8 2 0.1526 0.0624
8 8 3 0.2868 -0.0155
8 8 4 -0.1501 0.1387
8 8 5 0.1121 -0.1017
8 8 6 -0.1211 0.1042
8 8 7 0.1297 0.0392
8 8 8 -0.0993 -0.0672
8 8 9 0.1808 0.1404
8 9 0 0.6431 0.2492
8 9 1 0.8409 -0.1261
8 9 2 0.4831 -0.1397
8 9 3 0.2650 -0.0655
8 9 4 -0.0601 0.1034
8 9 5 0.3314 -0.1944
8 9 6 -0.0127 -0.0261
8 9 7 -0.1001 -0.1269
8 10 2 0.0563 -0.3834
9 0 2 0.4226 0.2403
9 0 3 -0.0481 -0.0121
9 0 4 0.0337 0.0408
9 0 5 -0.4208 -0.1603
9 1 0 0.0411 -0.2323
9 1 1 0.4210 -0.0576
9 1 2 0.5391 0.0693
9 1 3 0.0282 -0.0757
9 1 4 0.0441 0.1156
9 1 5 -0.5979 -0.0912
9 1 6 -0.0945 -0.1144
9 1 7 -0.2226 -0.0492
9 1 8 -0.3191 -0.0460
9 2 0 0.0935 -0.0584
9 2 1 0.3045 0.0524
9 2 2 0.1303 0.0226
9 2 3 -0.3005 -0.0273
9 2 4 -0.1608 0.1203
9 2 5 -0.7802 -0.0126
9 2 6 -0.1484 -0.0054
9 2 7 -0.1601 -0.0171
9 2 8 -0.1010 -0.0879
9 2 9 -0.1284 -0.1153
9 3 0 0.4645 -0.0744
9 3 1 0.2741 0.0941
9 3 2 -0.1393 0.0954
9 3 3 -0.3290 0.1133
9 3 4 -0.0307 0.0916
9 3 5 -0.6128 0.0059
9 3 6 -0.0986 0.0011
9 3 7 -0.1289 -0.0169
9 3 8 0.0858 -0.0226
9 3 9 -0.0407 -0.0017
9 3 10 0.1296 -0.0464
9 4 0 0.6089 -0.1220
9 4 1 0.3003 -0.0659
9 4 2 0.0037 -0.0959
9 4 3 0.0660 -0.0495
9 4 4 0.3270 -0.0166
9 4 5 -0.2433 0.0371
9 4 6 -0.0643 -0.0268
9 4 7 -0.3039 -0.0644
9 4 8 -0.1642 0.0130
9 4 9 -0.2694 0.0681
9 4 10 0.0929 0.0134
9 5 0 0.4557 0.0344
9 5 1 0.3235 0.0529
9 5 2 0.1733 -0.0561
9 5 3 0.1347 -0.1588
9 5 4 0.0358 -0.0522
9 5 5 -0.3712 0.0810
9 5 6 -0.2109 0.0178
9 5 7 -0.3675 -0.0431
9 5 8 -0.3612 -0.0315
9 5 9 -0.4360 -0.0622
9 5 10 -0.0973 -0.1406
9 6 0 0.0360 -0.0615
9 6 1 0.1841 0.1280
9 6 2 0.2157 0.2175
9 6 3 0.0404 0.0446
9 6 4 -0.4910 0.0957
9 6 5 -0.7159 0.0650
9 6 6 -0.3288 0.0454
9 6 7 -0.0525 -0.0286
9 6 8 0.0078 -0.1207
9 6 9 -0.0323 -0.1738
9 7 0 -0.4464 -0.1119
9 7 1 -0.1384 -0.1348
9 7 2 0.1717 0.0687
9 7 3 0.1982 0.0095
9 7 4 -0.4694 0.1086
9 7 5 -0.6637 -0.0741
9 7 6 -0.3367 -0.0236
9 7 7 0.1366 -0.1811
9 7 8 0.2986 -0.3034
9 8 0 -0.3035 0.2281
9 8 1 -0.1298 -0.2377
9 8 2 0.1211 -0.1975
9 8 3 0.2891 -0.2010
9 8 4 -0.2075 -0.0317
9 8 5 -0.3612 -0.2128
9 8 6 -0.3599 -0.0330
9 8 7 -0.1295 -0.2591
9 9 2 -0.0054 -0.1689
9 9 3 0.1307 -0.1348
9 9 4 0.0150 -0.0514
10 3 2 -0.5823 0.1228
10 3 3 -0.2359 0.0192
10 3 4 -0.0687 -0.0389
10 3 5 -0.2140 -0.2018
10 4 1 -0.4269 0.2411
10 4 2 -0.4985 0.1650
10 4 3 -0.0994 0.1007
10 4 4 0.0084 0.0054
10 4 5 -0.3124 -0.1455
10 4 6 -0.0335 -0.2352
10 5 1 -0.0969 -0.0019
10 5 2 -0.1384 -0.0558
10 5 3 -0.0316 -0.0070
10 5 4 -0.1159 0.0858
10 5 5 -0.4462 -0.0227
10 5 6 -0.2031 -0.2293
10 5 7 -0.2102 -0.2493
10 6 1 0.2361 0.1628
10 6 2 0.0475 0.0317
10 6 3 -0.1462 -0.0861
10 6 4 -0.2736 -0.0029
10 6 5 -0.3456 -0.1249
10 6 6 -0.0563 -0.2426
10 7 2 0.0281 0.3353
10 7 3 -0.2022 0.0491
10 7 4 -0.2746 -0.0512
10 7 5 -0.1154 -0.2743
0 0 0 0.0 0.0
;
_iucr_refine_fcf_details
;
data_0725-luo2_CCDC1
_computing_structure_refinement   'olex2.refine 1.5-dev (Bourhis et al., 2015)'
_shelx_refln_list_code            4
loop_
  _space_group_symop_id
  _space_group_symop_operation_xyz
  1  x,y,z
  2  -x,-y,-z

_space_group_crystal_system       triclinic
_space_group_IT_number            2
_space_group_name_H-M_alt         'P -1'
_space_group_name_Hall            '-P 1'
_symmetry_space_group_name_H-M    'P -1'
_symmetry_space_group_name_Hall   '-P 1'
_symmetry_Int_Tables_number       2
_cell_length_a                    8.2052(5)
_cell_length_b                    8.6632(5)
_cell_length_c                    11.9123(4)
_cell_angle_alpha                 86.849(4)
_cell_angle_beta                  75.453(4)
_cell_angle_gamma                 62.022(6)
_cell_volume                      721.87(8)
loop_
  _refln_index_h
  _refln_index_k
  _refln_index_l
  _refln_F_squared_calc
  _refln_F_squared_meas
  _refln_F_squared_sigma
  _refln_F_squared_weight
  _refln_observed_status
-9 -7 1 74.347 88.467 3.786 7.174 o
-9 -6 1 53.368 52.523 2.690 14.868 o
-9 -6 3 32.864 21.918 1.793 41.337 o
-9 -5 1 4.045 3.477 1.388 310.745 o
-9 -5 2 29.136 28.294 2.192 39.126 o
-9 -5 3 49.966 39.252 2.391 18.949 o
-9 -4 1 41.124 45.244 2.180 22.246 o
-9 -4 2 6.448 8.767 1.993 145.897 o
-9 -4 3 62.812 53.966 12.852 3.836 o
-9 -3 1 3.227 3.836 1.388 324.822 o
-9 -3 2 3.210 2.391 1.793 227.987 o
-9 -3 3 18.291 17.733 1.594 82.210 o
-9 -2 1 22.458 23.312 2.192 52.869 o
-9 -2 2 4.967 4.782 1.594 233.391 o
-8 -9 1 4.100 6.575 2.590 110.922 o
-8 -9 2 19.598 21.519 2.391 56.829 o
-8 -8 1 2.878 2.590 2.391 139.395 o
-8 -8 2 4.668 4.782 1.793 200.962 o
-8 -8 3 3.824 3.587 1.594 257.888 o
-8 -8 4 60.767 63.959 2.391 11.829 o
-8 -7 1 11.897 14.681 2.254 89.493 o
-8 -7 2 9.597 7.084 1.767 150.867 o
-8 -7 3 18.828 17.136 3.387 44.609 o
-8 -7 4 11.661 12.951 2.391 87.476 o
-8 -6 1 209.513 224.258 69.638 0.158 o
-8 -6 2 137.701 144.827 4.436 2.584 o
-8 -6 3 11.034 16.476 2.346 85.719 o
-8 -6 4 3.758 4.782 1.993 178.046 o
-8 -6 5 24.681 23.882 2.192 48.532 o
-8 -5 1 238.272 266.398 10.162 0.821 o
-8 -5 2 152.388 149.243 15.442 1.442 o
-8 -5 3 25.952 22.515 2.590 43.151 o
-8 -5 5 13.275 12.553 2.192 90.955 o
-8 -5 6 40.378 36.303 1.333 27.766 o
-8 -4 1 9.932 11.756 3.786 49.315 o
-8 -4 2 28.750 22.947 1.841 46.306 o
-8 -4 3 34.972 29.671 2.180 32.246 o
-8 -4 4 108.968 142.066 5.380 3.290 o
-8 -4 5 43.866 38.429 2.291 22.330 o
-8 -4 6 49.310 34.949 1.793 21.440 o
-8 -3 1 5.835 5.847 2.010 157.582 o
-8 -3 2 2.994 3.885 1.691 244.450 o
-8 -3 3 3.971 5.101 1.658 231.564 o
-8 -3 4 53.213 45.318 7.870 8.046 o
-8 -3 5 37.721 37.260 2.192 26.851 o
-8 -2 1 26.503 24.250 2.058 46.774 o
-8 -2 2 13.201 11.669 1.867 107.762 o
-8 -2 3 14.245 17.335 2.989 58.093 o
-8 -2 4 3.768 5.051 2.092 163.647 o
-8 -2 5 44.202 37.858 1.993 23.049 o
-8 -1 1 92.015 86.435 3.686 5.781 o
-8 -1 2 24.956 26.962 4.085 28.289 o
-8 -1 3 4.432 3.553 1.494 273.065 o
-8 -1 4 2.732 3.786 1.594 272.754 o
-8 0 1 14.375 13.806 1.082 130.740 o
-8 0 2 27.828 27.895 2.192 41.019 o
-7 -10 1 49.191 75.118 4.981 10.292 o
-7 -9 1 24.916 41.824 7.273 12.177 o
-7 -9 3 133.015 188.374 99.725 0.086 o
-7 -9 4 19.850 21.519 1.793 67.051 o
-7 -8 1 11.514 17.995 1.840 101.933 o
-7 -8 2 46.715 45.429 3.587 16.481 o
-7 -8 3 114.349 120.547 4.583 3.575 o
-7 -8 4 28.854 37.459 2.590 31.974 o
-7 -8 5 30.954 30.087 1.793 38.502 o
-7 -8 6 10.011 -11.158 8.369 12.274 o
-7 -7 1 22.487 23.367 2.335 50.793 o
-7 -7 2 3.123 2.356 1.714 246.975 o
-7 -7 3 40.865 39.942 2.185 23.912 o
-7 -7 4 78.435 83.088 4.583 6.681 o
-7 -7 5 136.690 162.329 7.970 2.160 o
-7 -7 6 130.121 127.602 6.077 2.820 o
-7 -6 1 310.884 332.461 21.918 0.427 o
-7 -6 2 232.927 238.610 49.115 0.268 o
-7 -6 3 124.718 120.331 6.908 2.946 o
-7 -6 4 16.841 14.545 3.188 52.081 o
-7 -6 5 15.734 14.415 2.058 84.009 o
-7 -6 6 32.422 36.662 2.989 27.324 o
-7 -6 7 28.240 29.315 1.333 45.822 o
-7 -5 1 646.776 715.310 20.124 0.121 o
-7 -5 2 466.252 491.551 14.545 0.238 o
-7 -5 3 139.330 153.224 6.376 2.323 o
-7 -5 5 23.044 29.688 3.985 29.372 o
-7 -5 6 4.587 4.474 1.531 254.409 o
-7 -5 7 37.377 37.568 1.616 28.927 o
-7 -4 1 123.886 144.366 4.835 2.891 o
-7 -4 2 360.130 398.383 9.763 0.390 o
-7 -4 3 347.342 368.577 7.670 0.436 o
-7 -4 4 38.923 47.222 2.745 21.380 o
-7 -4 5 5.756 8.568 2.989 81.668 o
-7 -4 6 12.087 9.564 2.192 101.131 o
-7 -4 7 5.991 6.933 0.906 346.296 o
-7 -3 1 17.493 23.512 2.680 53.747 o
-7 -3 2 28.704 21.999 2.463 41.252 o
-7 -3 3 246.425 269.985 8.568 0.804 o
-7 -3 4 170.985 189.245 6.476 1.611 o
-7 -3 5 78.195 87.760 12.752 3.182 o
-7 -3 6 8.134 13.350 2.590 88.714 o
-7 -3 7 7.376 7.062 1.101 266.525 o
-7 -2 1 115.690 105.972 5.280 3.688 o
-7 -2 2 46.964 47.621 4.384 14.390 o
-7 -2 3 186.300 186.698 6.376 1.471 o
-7 -2 4 104.005 104.026 3.541 4.530 o
-7 -2 5 56.551 57.023 5.878 9.455 o
-7 -2 6 56.406 63.772 10.859 4.880 o
-7 -2 7 32.631 28.053 3.686 26.123 o
-7 -1 1 830.654 800.974 26.201 0.080 o
-7 -1 2 67.673 60.333 2.219 10.902 o
-7 -1 3 3.874 4.583 2.192 152.322 o
-7 -1 5 7.069 6.575 1.793 170.683 o
-7 0 1 280.177 254.065 5.778 0.737 o
-7 0 2 68.423 63.448 2.516 10.298 o
-7 0 3 16.890 16.598 1.767 84.936 o
-7 0 4 5.851 4.991 1.358 266.983 o
-7 0 5 12.025 9.709 1.295 157.487 o
-7 0 6 2.313 2.989 0.996 571.775 o
-7 1 1 105.808 103.203 2.401 4.617 o
-7 1 2 106.092 94.843 3.387 4.689 o
-7 1 3 62.584 49.613 2.391 13.078 o
-7 2 1 8.919 7.572 1.594 171.714 o
-7 2 3 59.457 49.215 2.192 14.157 o
-6 -10 1 56.401 106.998 5.778 6.911 o
-6 -10 2 25.670 39.089 36.961 0.637 o
-6 -9 1 271.056 291.304 9.963 0.670 o
-6 -9 3 48.067 54.196 3.387 15.107 o
-6 -9 4 11.174 13.245 15.840 3.459 o
-6 -9 5 8.533 8.568 1.395 192.842 o
-6 -8 1 21.544 26.854 2.202 51.200 o
-6 -8 2 142.661 185.303 7.173 1.953 o
-6 -8 3 169.219 177.333 6.177 1.710 o
-6 -8 4 87.263 88.578 5.978 5.260 o
-6 -8 5 52.495 70.316 11.756 4.406 o
-6 -8 6 2.407 7.173 1.196 370.094 o
-6 -8 7 7.827 -10.759 8.169 12.963 o
-6 -7 1 7.517 7.143 1.326 225.942 o
-6 -7 2 11.482 6.931 1.283 179.018 o
-6 -7 3 114.476 127.811 4.057 3.507 o
-6 -7 4 303.174 356.442 19.228 0.445 o
-6 -7 5 696.479 807.417 48.717 0.083 o
-6 -7 6 76.406 83.212 3.686 7.276 o
-6 -6 1 5.667 6.675 2.234 133.508 o
-6 -6 2 47.648 43.983 2.469 18.776 o
-6 -6 3 23.643 15.081 1.957 62.658 o
-6 -6 4 119.619 140.188 14.346 1.876 o
-6 -6 5 648.909 726.427 53.598 0.089 o
-6 -6 6 121.916 124.930 5.778 3.108 o
-6 -6 7 71.852 63.254 3.686 9.013 o
-6 -6 8 3.744 5.098 0.908 479.729 o
-6 -5 1 209.203 238.838 5.616 1.107 o
-6 -5 2 64.411 66.331 5.405 8.416 o
-6 -5 3 42.138 39.000 8.269 8.715 o
-6 -5 4 16.932 9.963 2.790 64.795 o
-6 -5 5 202.123 184.307 7.771 1.302 o
-6 -5 6 85.823 67.313 3.279 7.295 o
-6 -5 7 136.798 159.987 4.840 2.416 o
-6 -5 8 46.416 39.252 1.616 22.171 o
-6 -5 9 5.431 4.834 0.622 508.344 o
-6 -4 1 247.687 265.929 9.064 0.801 o
-6 -4 2 24.142 32.551 2.015 44.439 o
-6 -4 3 24.265 25.239 2.296 46.911 o
-6 -4 4 7.042 8.185 1.718 172.669 o
-6 -4 5 30.719 23.055 1.909 42.684 o
-6 -4 6 6.086 6.809 1.832 173.358 o
-6 -4 7 153.828 140.164 3.574 2.344 o
-6 -4 8 60.593 48.943 1.336 14.569 o
-6 -4 9 44.621 39.848 1.494 23.264 o
-6 -3 1 70.312 73.319 2.968 8.960 o
-6 -3 2 40.884 44.574 2.197 22.523 o
-6 -3 3 161.086 167.981 10.411 1.630 o
-6 -3 4 303.474 322.535 11.756 0.536 o
-6 -3 5 429.293 472.116 27.297 0.232 o
-6 -3 6 15.226 17.352 1.957 83.891 o
-6 -3 7 28.518 33.351 2.180 36.971 o
-6 -3 8 6.017 7.063 1.349 247.253 o
-6 -3 9 69.205 56.758 3.587 9.970 o
-6 -2 1 38.347 42.311 3.126 21.701 o
-6 -2 2 63.229 68.055 2.991 10.489 o
-6 -2 3 853.039 920.090 127.620 0.031 o
-6 -2 4 1015.890 1101.500 30.983 0.050 o
-6 -2 5 486.696 555.585 10.355 0.214 o
-6 -2 6 5.782 10.162 3.985 49.117 o
-6 -2 7 12.653 14.964 1.380 125.570 o
-6 -2 8 26.653 24.235 1.520 51.801 o
-6 -2 9 5.915 5.579 0.996 347.640 o
-6 -1 1 37.358 41.591 3.839 19.875 o
-6 -1 2 12.445 12.840 1.952 104.426 o
-6 -1 3 44.597 39.482 3.188 19.328 o
-6 -1 4 50.981 47.820 3.587 14.833 o
-6 -1 5 327.237 315.001 6.682 0.525 o
-6 -1 6 71.678 89.756 9.963 4.316 o
-6 -1 7 57.202 57.982 3.587 12.075 o
-6 -1 8 10.930 10.340 1.191 173.730 o
-6 0 1 27.824 28.630 1.869 43.148 o
-6 0 2 135.839 125.065 3.514 2.936 o
-6 0 3 12.072 15.342 2.391 82.560 o
-6 0 4 14.951 14.311 2.291 79.013 o
-6 0 5 109.161 97.496 7.671 3.597 o
-6 0 6 84.101 85.536 2.745 6.743 o
-6 0 7 116.666 107.098 3.734 3.853 o
-6 0 8 47.694 39.551 1.268 21.924 o
-6 1 1 20.660 16.554 1.452 78.900 o
-6 1 2 10.555 10.737 1.258 170.274 o
-6 1 3 72.733 66.615 3.188 8.968 o
-6 1 4 9.953 6.493 1.579 168.491 o
-6 1 5 20.025 20.793 2.391 56.705 o
-6 1 6 69.597 59.465 2.989 10.131 o
-6 2 1 14.505 15.084 1.225 119.341 o
-6 2 2 11.233 12.922 1.120 161.411 o
-6 2 3 102.430 101.263 4.085 4.586 o
-6 2 4 46.193 40.869 1.694 21.708 o
-6 2 5 2.403 3.188 0.956 589.037 o
-6 2 6 12.334 12.951 1.196 145.904 o
-6 3 1 11.514 14.893 1.621 120.821 o
-6 3 2 11.234 9.564 1.395 158.221 o
-6 3 3 19.157 13.819 4.085 36.231 o
-6 3 4 12.493 12.435 1.096 152.591 o
-6 4 1 1.520 0.747 0.811 973.142 o
-6 4 2 0.793 0.399 0.996 789.825 o
-5 -10 4 63.130 99.825 17.136 2.245 o
-5 -9 1 97.701 120.746 5.778 4.007 o
-5 -9 2 5.708 11.905 2.099 131.522 o
-5 -9 3 1.938 5.978 2.790 103.444 o
-5 -9 4 6.581 4.981 1.993 157.482 o
-5 -9 5 5.927 4.421 1.585 224.700 o
-5 -9 6 28.453 41.245 11.158 6.022 o
-5 -8 1 10.466 10.242 1.466 156.487 o
-5 -8 2 9.113 10.662 2.590 89.753 o
-5 -8 3 58.742 51.338 1.841 14.384 o
-5 -8 4 15.664 13.569 2.989 58.853 o
-5 -8 5 28.267 25.165 1.893 44.867 o
-5 -8 6 9.805 6.177 1.594 169.898 o
-5 -8 7 49.125 -9.763 10.361 6.818 o
-5 -7 1 22.099 17.666 1.104 77.850 o
-5 -7 2 159.749 170.736 5.402 1.909 o
-5 -7 3 265.769 262.424 4.396 0.784 o
-5 -7 4 120.551 130.218 7.771 2.808 o
-5 -7 5 6.303 4.918 1.240 284.993 o
-5 -7 6 6.731 10.527 1.206 229.239 o
-5 -7 7 59.147 34.368 2.989 15.427 o
-5 -7 8 21.097 25.584 1.388 64.486 o
-5 -7 9 66.487 49.414 1.993 12.473 o
-5 -6 1 9.602 11.599 0.816 215.503 o
-5 -6 2 38.044 46.475 1.738 24.811 o
-5 -6 3 157.788 154.431 4.224 2.115 o
-5 -6 4 223.886 241.272 11.457 0.909 o
-5 -6 5 15.614 14.591 3.885 41.328 o
-5 -6 6 12.838 15.978 2.241 84.696 o
-5 -6 7 37.066 38.166 1.812 28.313 o
-5 -6 8 5.490 3.310 0.880 448.238 o
-5 -6 9 12.939 8.960 1.050 169.169 o
-5 -5 1 48.128 49.149 2.866 16.836 o
-5 -5 2 136.013 153.838 13.947 1.682 o
-5 -5 3 6.409 5.744 1.370 247.787 o
-5 -5 4 7.227 0.797 2.192 144.600 o
-5 -5 5 26.697 23.113 3.587 32.375 o
-5 -5 6 68.205 69.918 3.292 9.320 o
-5 -5 7 232.264 257.897 8.169 0.894 o
-5 -5 8 8.624 6.185 1.139 244.090 o
-5 -5 9 6.674 8.713 1.191 248.519 o
-5 -5 10 3.918 3.135 0.528 778.123 o
-5 -4 1 157.873 133.396 5.305 2.240 o
-5 -4 2 384.616 382.404 10.001 0.368 o
-5 -4 3 29.394 32.676 1.693 39.441 o
-5 -4 4 54.977 56.120 1.966 14.680 o
-5 -4 5 37.995 43.422 2.422 23.886 o
-5 -4 6 39.230 39.651 2.524 23.944 o
-5 -4 7 708.352 734.756 34.371 0.097 o
-5 -4 8 391.304 352.442 4.715 0.391 o
-5 -4 9 118.075 122.888 4.782 3.382 o
-5 -4 10 8.488 7.072 1.295 216.224 o
-5 -3 1 255.118 206.108 7.440 0.919 o
-5 -3 2 1219.210 1182.830 27.995 0.038 o
-5 -3 3 222.977 201.432 5.229 1.145 o
-5 -3 4 12.285 10.736 1.913 112.325 o
-5 -3 5 67.869 66.698 4.309 8.868 o
-5 -3 6 257.130 302.662 9.564 0.699 o
-5 -3 7 654.103 728.599 37.260 0.104 o
-5 -3 8 179.494 170.128 4.155 1.699 o
-5 -3 9 85.758 87.149 2.648 6.542 o
-5 -2 1 35.887 29.099 1.946 32.807 o
-5 -2 2 715.923 675.708 12.692 0.114 o
-5 -2 3 898.115 797.368 14.332 0.076 o
-5 -2 4 453.803 468.549 11.556 0.260 o
-5 -2 5 108.384 128.929 7.433 3.189 o
-5 -2 6 6.431 7.497 2.138 136.209 o
-5 -2 7 16.043 19.327 3.786 40.413 o
-5 -2 8 24.894 25.702 2.241 46.209 o
-5 -2 9 80.840 86.730 7.472 5.062 o
-5 -2 10 48.089 42.839 2.192 19.366 o
-5 -1 1 30.050 30.806 2.495 34.566 o
-5 -1 2 206.514 189.985 4.203 1.327 o
-5 -1 3 10.145 11.588 1.792 129.432 o
-5 -1 4 15.609 12.995 1.473 109.100 o
-5 -1 5 12.354 15.495 1.540 117.954 o
-5 -1 6 105.009 123.781 3.827 3.978 o
-5 -1 7 117.822 116.943 7.771 3.039 o
-5 -1 8 6.241 6.177 2.989 83.029 o
-5 -1 9 43.838 44.433 2.790 19.617 o
-5 -1 10 42.096 41.444 1.993 23.232 o
-5 0 1 127.840 124.207 3.200 3.204 o
-5 0 2 15.286 15.679 1.253 111.407 o
-5 0 3 358.720 343.729 9.716 0.430 o
-5 0 4 6.854 8.807 1.285 229.644 o
-5 0 5 67.205 79.867 3.061 8.886 o
-5 0 6 180.512 183.061 9.066 1.441 o
-5 0 7 184.718 167.772 15.840 1.149 o
-5 0 8 37.253 36.064 2.790 25.273 o
-5 0 9 55.197 55.281 1.815 14.881 o
-5 1 1 19.570 22.168 3.112 44.906 o
-5 1 2 225.915 231.041 6.244 1.022 o
-5 1 3 77.106 68.890 2.257 8.647 o
-5 1 4 7.023 5.758 1.238 261.846 o
-5 1 5 13.067 12.100 1.421 130.657 o
-5 1 6 72.577 68.408 2.457 9.248 o
-5 1 7 149.874 133.896 4.583 2.431 o
-5 1 8 38.616 35.016 4.384 18.745 o
-5 1 9 42.575 33.673 1.793 25.935 o
-5 2 1 31.349 29.255 3.159 29.748 o
-5 2 2 413.529 354.464 51.805 0.173 o
-5 2 3 38.269 31.235 2.077 29.164 o
-5 2 4 25.600 22.637 2.226 47.663 o
-5 2 5 16.516 13.441 1.531 100.959 o
-5 2 6 5.815 6.376 1.793 182.597 o
-5 2 7 9.920 8.369 1.594 158.771 o
-5 2 8 36.863 39.252 1.793 28.105 o
-5 3 1 11.280 9.564 3.387 58.363 o
-5 3 2 232.944 226.349 6.376 0.994 o
-5 3 3 82.221 91.257 3.786 6.328 o
-5 3 4 21.796 22.547 2.153 55.409 o
-5 3 5 12.228 12.951 2.192 94.048 o
-5 3 6 1.321 2.590 1.395 383.210 o
-5 3 7 2.589 2.790 0.797 725.538 o
-5 4 1 15.826 17.003 1.321 102.356 o
-5 4 2 1.610 2.989 1.395 370.817 o
-5 4 3 13.451 10.867 1.127 149.134 o
-5 4 4 29.422 27.477 1.694 42.976 o
-5 4 5 42.153 34.670 1.793 25.882 o
-5 5 1 5.727 4.309 0.723 469.776 o
-5 5 2 1.369 0.927 0.580 1529.730 o
-4 -10 1 10.358 10.560 3.387 58.911 o
-4 -10 2 8.440 6.775 2.989 78.224 o
-4 -10 3 14.795 18.730 2.790 60.514 o
-4 -9 1 55.348 32.207 8.169 8.054 o
-4 -9 2 1.690 6.006 1.957 194.453 o
-4 -9 3 118.079 105.660 49.613 0.330 o
-4 -9 4 49.708 93.263 2.886 10.735 o
-4 -9 5 8.583 44.433 15.541 3.508 o
-4 -9 6 48.393 56.587 12.154 4.493 o
-4 -8 1 8.724 9.277 1.396 186.104 o
-4 -8 2 19.049 21.420 1.546 74.230 o
-4 -8 3 47.045 43.008 2.463 19.258 o
-4 -8 4 20.218 13.242 1.487 86.092 o
-4 -8 5 13.073 4.799 1.579 148.395 o
-4 -8 6 19.922 28.285 1.767 58.898 o
-4 -7 1 193.246 184.908 5.867 1.430 o
-4 -7 2 571.754 510.900 17.940 0.176 o
-4 -7 3 306.091 261.030 7.172 0.637 o
-4 -7 4 35.783 37.541 1.441 30.873 o
-4 -7 5 5.568 4.089 1.444 260.961 o
-4 -7 6 3.324 4.334 1.243 367.589 o
-4 -7 7 25.894 20.579 1.658 55.637 o
-4 -7 8 7.504 11.158 2.192 117.466 o
-4 -7 9 29.800 27.497 1.793 41.717 o
-4 -6 1 110.032 98.282 2.466 4.516 o
-4 -6 2 140.101 113.696 2.893 3.016 o
-4 -6 3 507.349 481.715 11.996 0.221 o
-4 -6 4 398.419 383.614 5.900 0.361 o
-4 -6 5 182.051 188.108 10.660 1.339 o
-4 -6 6 17.257 13.887 1.445 99.057 o
-4 -6 7 194.554 204.082 3.711 1.378 o
-4 -6 8 8.111 5.854 1.230 241.975 o
-4 -6 9 10.352 7.418 1.245 193.812 o
-4 -6 10 53.031 63.760 2.590 13.514 o
-4 -5 1 9.351 8.767 3.985 46.981 o
-4 -5 2 27.450 30.286 5.380 19.096 o
-4 -5 3 60.035 68.941 6.775 7.530 o
-4 -5 4 403.653 366.337 25.831 0.289 o
-4 -5 5 349.345 341.553 9.464 0.448 o
-4 -5 6 490.351 495.313 17.457 0.218 o
-4 -5 7 107.779 100.945 3.270 4.458 o
-4 -5 8 17.687 16.017 1.355 94.533 o
-4 -5 9 3.820 3.387 1.594 259.423 o
-4 -5 10 108.091 84.019 2.491 5.026 o
-4 -5 11 233.118 194.668 4.782 1.108 o
-4 -4 1 14.220 9.905 1.149 145.255 o
-4 -4 2 516.939 522.273 10.008 0.207 o
-4 -4 3 148.720 181.582 10.859 1.658 o
-4 -4 4 151.881 146.734 6.743 2.134 o
-4 -4 5 237.445 242.867 7.040 0.921 o
-4 -4 6 671.615 735.441 14.548 0.116 o
-4 -4 7 21.938 22.749 1.893 58.785 o
-4 -4 8 365.384 344.890 5.555 0.433 o
-4 -4 9 220.080 186.897 5.778 1.206 o
-4 -4 10 59.508 52.137 1.815 14.068 o
-4 -4 11 26.553 24.477 1.295 53.759 o
-4 -3 1 576.210 505.206 13.517 0.180 o
-4 -3 2 193.421 196.502 5.642 1.382 o
-4 -3 3 101.749 91.523 4.399 4.816 o
-4 -3 4 12.841 15.351 1.747 105.993 o
-4 -3 5 8.497 8.666 1.298 204.284 o
-4 -3 6 722.643 724.338 43.536 0.089 o
-4 -3 7 205.406 222.089 7.132 1.158 o
-4 -3 8 352.945 375.986 9.963 0.414 o
-4 -3 9 97.860 91.791 2.376 5.457 o
-4 -3 10 9.364 8.647 1.143 210.341 o
-4 -3 11 5.325 4.184 1.196 328.976 o
-4 -2 1 1485.000 1438.590 39.352 0.026 o
-4 -2 2 1069.330 1093.510 16.393 0.049 o
-4 -2 3 67.284 46.883 2.099 12.507 o
-4 -2 4 295.487 339.797 8.800 0.555 o
-4 -2 5 13.438 15.951 1.159 126.476 o
-4 -2 6 71.416 93.496 4.084 7.081 o
-4 -2 7 234.911 219.675 6.175 1.005 o
-4 -2 8 53.859 54.235 7.073 8.505 o
-4 -2 9 216.116 200.018 5.924 1.185 o
-4 -2 10 203.011 205.006 8.767 1.191 o
-4 -2 11 26.564 22.914 1.793 50.531 o
-4 -1 1 192.472 180.208 4.240 1.499 o
-4 -1 2 927.493 946.358 15.702 0.065 o
-4 -1 3 332.037 277.014 9.365 0.541 o
-4 -1 4 200.782 192.358 4.737 1.356 o
-4 -1 5 49.540 46.983 1.643 18.673 o
-4 -1 6 125.734 119.270 6.464 2.992 o
-4 -1 7 184.742 163.745 44.831 0.350 o
-4 -1 8 38.422 35.178 3.074 23.714 o
-4 -1 9 46.169 51.329 5.380 12.224 o
-4 -1 10 234.217 244.225 9.464 0.895 o
-4 -1 11 101.446 98.430 3.188 4.883 o
-4 0 1 139.665 172.132 6.862 2.118 o
-4 0 2 132.034 129.912 3.686 2.962 o
-4 0 3 89.205 67.289 1.796 7.395 o
-4 0 4 395.728 411.428 21.121 0.299 o
-4 0 5 263.301 261.215 9.345 0.749 o
-4 0 6 71.068 55.754 2.813 10.318 o
-4 0 7 24.344 20.733 1.757 57.596 o
-4 0 8 31.414 27.721 4.384 22.988 o
-4 0 9 4.658 3.649 1.289 324.858 o
-4 0 10 68.414 61.967 2.989 10.120 o
-4 0 11 30.043 27.297 1.395 44.157 o
-4 1 1 401.201 408.758 7.704 0.340 o
-4 1 2 8.449 7.443 1.248 220.523 o
-4 1 3 4.797 6.687 0.986 369.516 o
-4 1 4 122.372 121.268 5.148 3.227 o
-4 1 5 160.417 141.577 3.409 2.214 o
-4 1 6 378.527 371.882 21.419 0.331 o
-4 1 7 90.932 92.153 4.284 5.485 o
-4 1 8 71.775 61.910 2.322 9.962 o
-4 1 9 17.287 17.636 1.854 79.289 o
-4 1 10 2.306 3.587 1.196 434.646 o
-4 2 1 477.746 487.295 8.027 0.242 o
-4 2 2 64.799 53.838 2.410 12.040 o
-4 2 3 4.456 3.625 0.999 439.472 o
-4 2 4 101.609 92.295 2.807 5.122 o
-4 2 5 24.837 28.632 2.010 46.418 o
-4 2 6 135.606 141.299 2.951 2.764 o
-4 2 7 38.601 46.254 1.408 25.246 o
-4 2 8 57.681 62.865 6.476 8.330 o
-4 2 9 13.573 14.944 1.594 109.966 o
-4 3 1 396.136 382.302 13.748 0.342 o
-4 3 2 177.070 163.746 26.500 0.745 o
-4 3 3 11.599 7.173 1.793 134.224 o
-4 3 4 20.578 16.538 1.993 67.879 o
-4 3 5 44.480 38.054 1.487 23.920 o
-4 3 6 5.932 7.254 1.164 283.920 o
-4 3 7 42.377 46.607 1.601 22.403 o
-4 3 8 49.259 47.422 2.192 17.901 o
-4 4 1 60.475 41.643 4.782 11.462 o
-4 4 2 59.636 42.241 11.158 4.959 o
-4 4 3 13.115 16.538 4.583 33.148 o
-4 4 4 28.669 26.198 3.192 32.811 o
-4 4 5 6.323 6.104 0.949 338.343 o
-4 4 6 4.740 5.184 1.050 377.715 o
-4 4 7 8.965 10.162 1.196 199.268 o
-4 5 1 4.945 4.370 1.870 188.230 o
-4 5 3 3.364 3.468 0.997 496.952 o
-4 5 4 31.674 30.133 2.092 35.824 o
-4 5 5 12.160 12.035 0.765 177.515 o
-4 6 1 7.153 7.372 1.594 190.951 o
-4 6 2 6.208 4.384 1.395 258.023 o
-4 6 3 0.992 1.295 0.564 1662.160 o
-3 -10 1 8.651 8.540 1.585 170.592 o
-3 -10 2 45.705 28.891 2.192 24.313 o
-3 -10 3 65.921 66.550 3.587 9.715 o
-3 -9 1 12.444 8.280 1.953 115.510 o
-3 -9 2 28.230 29.356 7.073 13.070 o
-3 -9 3 1.577 6.422 1.723 238.874 o
-3 -9 4 4.174 1.514 1.395 327.325 o
-3 -9 5 21.089 88.467 15.541 3.174 o
-3 -9 6 37.363 56.189 12.354 4.664 o
-3 -8 1 42.362 40.369 1.585 24.334 o
-3 -8 2 6.825 7.974 1.295 235.339 o
-3 -8 3 16.738 15.603 1.658 90.776 o
-3 -8 4 24.198 31.282 2.207 43.495 o
-3 -8 5 147.357 91.918 17.342 1.535 o
-3 -8 6 68.260 13.748 14.346 3.492 o
-3 -8 7 101.836 46.824 11.955 3.351 o
-3 -7 1 528.925 458.812 11.049 0.216 o
-3 -7 2 673.868 579.828 10.747 0.136 o
-3 -7 3 142.241 133.047 5.300 2.550 o
-3 -7 4 27.137 27.424 1.559 47.659 o
-3 -7 5 9.994 9.626 1.648 148.186 o
-3 -7 6 47.946 37.053 6.701 10.693 o
-3 -7 7 173.835 171.874 9.166 1.552 o
-3 -7 8 162.744 158.603 5.778 1.935 o
-3 -7 9 19.264 19.128 1.993 67.928 o
-3 -6 1 673.862 601.319 10.132 0.134 o
-3 -6 2 1192.780 1104.130 11.747 0.042 o
-3 -6 3 139.541 128.469 3.878 2.770 o
-3 -6 4 134.684 124.671 2.869 3.015 o
-3 -6 5 15.595 15.109 0.972 120.789 o
-3 -6 6 27.230 21.661 1.430 54.079 o
-3 -6 7 10.945 20.488 1.298 122.107 o
-3 -6 8 111.412 112.577 4.184 3.895 o
-3 -6 9 85.897 88.268 3.786 6.149 o
-3 -6 10 18.392 15.940 1.594 85.236 o
-3 -6 11 1.754 2.790 0.797 819.523 o
-3 -5 1 152.415 132.038 22.117 1.056 o
-3 -5 2 868.313 776.142 19.825 0.079 o
-3 -5 3 242.711 235.890 8.169 0.897 o
-3 -5 4 194.516 173.001 4.544 1.508 o
-3 -5 5 10.614 13.967 1.486 138.191 o
-3 -5 6 8.597 13.944 1.255 174.462 o
-3 -5 7 7.854 5.743 1.214 250.395 o
-3 -5 8 21.529 21.855 1.550 66.101 o
-3 -5 9 5.958 7.043 1.098 300.389 o
-3 -5 10 123.095 117.862 2.410 3.526 o
-3 -5 11 194.315 161.393 4.384 1.574 o
-3 -4 1 12.655 10.088 0.978 170.689 o
-3 -4 2 8.336 7.354 0.839 284.164 o
-3 -4 3 37.092 43.752 2.353 24.553 o
-3 -4 4 306.676 243.562 6.974 0.661 o
-3 -4 5 474.173 470.580 18.431 0.232 o
-3 -4 6 102.709 101.327 4.082 4.570 o
-3 -4 7 33.927 37.384 1.843 31.203 o
-3 -4 8 70.642 69.728 2.440 9.452 o
-3 -4 9 3.162 3.106 1.023 502.431 o
-3 -4 10 84.055 87.183 2.524 6.730 o
-3 -4 11 39.090 33.948 1.594 29.074 o
-3 -4 12 82.335 76.898 5.978 5.954 o
-3 -3 1 548.374 467.201 7.311 0.207 o
-3 -3 2 175.937 164.208 5.280 1.743 o
-3 -3 3 355.955 390.900 7.662 0.407 o
-3 -3 4 52.828 69.538 3.732 11.619 o
-3 -3 5 192.841 202.040 9.365 1.255 o
-3 -3 6 433.174 483.060 19.427 0.251 o
-3 -3 7 253.256 239.412 4.999 0.878 o
-3 -3 8 276.282 282.079 3.733 0.715 o
-3 -3 9 349.457 372.066 5.867 0.436 o
-3 -3 10 89.135 79.843 4.085 6.126 o
-3 -3 11 11.264 10.759 1.793 124.989 o
-3 -3 12 45.427 39.065 3.985 16.974 o
-3 -2 1 4431.890 4302.080 197.557 0.003 o
-3 -2 2 487.431 495.337 12.752 0.227 o
-3 -2 3 827.091 860.650 14.860 0.080 o
-3 -2 4 20.356 34.667 2.241 46.295 o
-3 -2 5 13.246 10.685 1.248 144.822 o
-3 -2 6 149.120 159.132 9.464 1.884 o
-3 -2 7 11.830 14.248 1.046 153.024 o
-3 -2 8 173.118 164.281 6.739 1.717 o
-3 -2 9 82.577 75.758 3.288 7.191 o
-3 -2 10 6.495 10.203 1.673 173.560 o
-3 -2 11 2.734 4.583 1.594 266.695 o
-3 -2 12 2.978 2.973 0.908 592.419 o
-3 -1 1 1739.940 1700.210 38.455 0.019 o
-3 -1 2 327.590 290.134 12.254 0.516 o
-3 -1 3 2817.520 2714.930 70.535 0.007 o
-3 -1 4 695.954 657.527 14.346 0.119 o
-3 -1 5 5.507 7.372 1.395 244.570 o
-3 -1 6 46.500 41.843 1.953 20.808 o
-3 -1 7 9.931 16.813 1.474 133.335 o
-3 -1 8 333.566 344.909 5.553 0.487 o
-3 -1 9 14.296 12.975 1.690 107.170 o
-3 -1 10 81.954 101.655 6.177 5.115 o
-3 -1 11 55.005 52.602 2.790 14.253 o
-3 -1 12 5.729 5.181 0.996 360.398 o
-3 0 1 67.196 67.546 3.985 9.149 o
-3 0 2 190.308 200.764 5.878 1.385 o
-3 0 3 2748.520 2706.000 174.643 0.006 o
-3 0 4 1353.570 1254.560 19.449 0.033 o
-3 0 5 154.729 124.303 3.435 2.493 o
-3 0 6 115.145 130.034 2.869 3.559 o
-3 0 7 6.966 10.178 2.622 95.021 o
-3 0 8 76.858 79.525 2.677 7.844 o
-3 0 9 51.770 48.986 2.153 16.705 o
-3 0 10 181.618 169.363 4.981 1.655 o
-3 0 11 64.901 62.565 2.989 10.684 o
-3 0 12 5.841 5.000 0.797 420.953 o
-3 1 1 18.937 19.925 2.590 55.971 o
-3 1 2 28.897 34.132 2.590 33.442 o
-3 1 3 357.605 314.090 6.117 0.469 o
-3 1 4 355.277 350.276 8.867 0.434 o
-3 1 5 391.486 389.700 6.136 0.365 o
-3 1 6 247.179 252.556 11.357 0.794 o
-3 1 7 142.645 119.943 4.366 2.764 o
-3 1 8 85.709 80.706 2.248 6.953 o
-3 1 9 5.784 6.926 1.289 264.365 o
-3 1 10 31.117 30.087 2.192 35.832 o
-3 1 11 15.030 19.327 1.594 92.100 o
-3 2 1 117.386 145.997 3.408 3.174 o
-3 2 2 45.157 44.409 1.763 21.192 o
-3 2 3 242.354 255.564 5.488 0.887 o
-3 2 4 72.025 76.299 2.143 8.884 o
-3 2 5 224.020 206.365 3.341 1.146 o
-3 2 6 106.646 108.436 3.378 4.314 o
-3 2 7 50.168 58.815 2.152 15.568 o
-3 2 8 20.530 24.941 4.682 26.599 o
-3 2 9 4.917 4.691 1.023 389.576 o
-3 2 10 42.890 43.872 4.184 16.500 o
-3 3 1 288.533 280.192 7.564 0.657 o
-3 3 2 230.716 204.428 5.479 1.083 o
-3 3 3 523.087 477.498 19.128 0.202 o
-3 3 4 4.708 4.384 1.594 239.634 o
-3 3 5 3.747 5.318 1.139 377.825 o
-3 3 6 13.705 11.875 1.367 129.742 o
-3 3 7 12.265 15.615 1.265 131.698 o
-3 3 8 109.132 125.554 8.966 2.946 o
-3 3 9 32.987 28.868 2.790 30.911 o
-3 4 1 126.493 107.232 4.043 3.448 o
-3 4 2 159.621 107.595 5.978 2.402 o
-3 4 3 518.267 444.410 96.636 0.067 o
-3 4 4 16.314 10.509 2.291 80.614 o
-3 4 5 4.126 4.003 0.974 457.198 o
-3 4 6 3.373 3.670 0.917 537.210 o
-3 4 7 5.454 5.896 0.797 418.118 o
-3 4 8 24.739 23.732 1.191 59.672 o
-3 4 9 8.556 7.683 0.564 312.095 o
-3 5 1 53.366 54.502 3.591 13.332 o
-3 5 2 43.843 51.407 3.587 16.444 o
-3 5 3 273.181 324.978 11.756 0.602 o
-3 5 4 65.493 81.067 6.775 6.580 o
-3 5 5 25.930 21.738 2.071 49.641 o
-3 5 6 6.256 4.856 0.810 401.634 o
-3 5 7 10.041 9.564 0.996 208.361 o
-3 6 1 8.674 7.125 1.679 166.992 o
-3 6 2 1.458 0.240 2.092 192.616 o
-3 6 3 55.651 60.398 9.166 6.137 o
-3 6 4 39.292 38.270 1.893 26.346 o
-3 6 5 8.113 7.213 0.765 303.794 o
-3 6 6 16.740 13.748 1.196 110.434 o
-3 7 1 4.896 4.384 1.793 200.673 o
-3 7 2 8.239 6.177 0.996 275.398 o
-3 7 3 2.511 2.448 1.196 448.448 o
-2 -10 1 25.709 34.470 3.587 29.051 o
-2 -10 3 24.359 22.198 9.664 8.321 o
-2 -10 4 30.713 24.109 1.594 44.272 o
-2 -9 1 1.481 1.452 2.989 95.631 o
-2 -9 2 1.705 7.372 2.391 134.644 o
-2 -9 3 33.094 33.002 5.479 16.819 o
-2 -9 4 61.661 53.377 18.132 2.253 o
-2 -9 5 7.676 1.395 1.793 188.390 o
-2 -8 1 2.188 2.856 1.380 364.037 o
-2 -8 2 27.327 33.727 2.536 35.549 o
-2 -8 3 1.651 3.861 2.039 188.914 o
-2 -8 4 156.229 156.210 8.767 1.862 o
-2 -8 5 262.683 258.579 42.475 0.306 o
-2 -8 6 142.783 88.073 4.726 3.160 o
-2 -8 7 76.363 41.128 16.538 2.534 o
-2 -8 8 1.409 0.399 1.395 409.647 o
-2 -7 1 48.049 40.394 1.276 21.485 o
-2 -7 2 4.106 3.862 0.855 520.388 o
-2 -7 3 31.974 30.940 1.374 38.920 o
-2 -7 4 44.027 47.408 3.286 17.752 o
-2 -7 5 75.877 82.481 2.131 7.970 o
-2 -7 6 92.443 79.487 2.416 6.346 o
-2 -7 7 85.123 100.757 38.256 0.550 o
-2 -7 8 21.543 24.541 1.815 58.792 o
-2 -7 9 2.415 2.989 1.594 283.832 o
-2 -7 10 0.826 3.587 0.996 653.403 o
-2 -6 1 189.997 168.885 6.324 1.524 o
-2 -6 2 117.092 97.882 5.723 3.709 o
-2 -6 3 151.807 136.087 5.717 2.299 o
-2 -6 4 44.196 42.968 1.470 22.634 o
-2 -6 5 5.244 5.846 0.834 416.962 o
-2 -6 6 4.019 4.615 1.450 282.504 o
-2 -6 7 9.683 8.992 1.333 183.200 o
-2 -6 8 18.302 17.534 2.590 59.386 o
-2 -6 9 55.922 53.399 2.989 13.645 o
-2 -6 10 45.670 41.826 1.616 21.870 o
-2 -6 11 1.312 2.092 0.704 1083.550 o
-2 -5 1 287.726 288.895 11.457 0.613 o
-2 -5 2 301.099 242.281 5.254 0.691 o
-2 -5 3 1244.190 1186.300 17.169 0.038 o
-2 -5 4 202.159 192.155 7.298 1.285 o
-2 -5 5 19.622 20.381 1.151 81.326 o
-2 -5 6 39.646 57.596 2.054 20.117 o
-2 -5 7 10.378 6.413 0.893 241.329 o
-2 -5 8 16.183 14.132 1.531 100.899 o
-2 -5 9 90.445 93.135 2.469 5.937 o
-2 -5 10 112.462 101.360 2.503 4.312 o
-2 -5 11 87.289 77.814 2.113 6.972 o
-2 -5 12 20.057 15.342 0.996 93.239 o
-2 -4 1 10.024 8.602 1.031 212.670 o
-2 -4 2 17.354 26.238 2.013 63.373 o
-2 -4 3 471.159 375.800 6.684 0.290 o
-2 -4 4 1349.930 1370.300 23.809 0.031 o
-2 -4 5 557.704 600.745 22.515 0.159 o
-2 -4 6 346.324 380.603 8.070 0.427 o
-2 -4 7 11.680 10.633 1.273 157.986 o
-2 -4 8 91.425 79.098 3.387 6.196 o
-2 -4 9 73.257 75.237 2.705 8.553 o
-2 -4 10 68.376 64.420 1.800 10.600 o
-2 -4 11 51.878 49.976 1.870 16.847 o
-2 -4 12 6.885 6.974 1.196 260.500 o
-2 -3 1 103.744 88.523 4.314 4.808 o
-2 -3 2 56.501 55.121 2.219 14.131 o
-2 -3 3 455.973 462.349 9.791 0.263 o
-2 -3 4 2049.530 2346.300 38.951 0.012 o
-2 -3 5 962.419 1022.350 26.500 0.057 o
-2 -3 6 814.689 840.040 23.512 0.081 o
-2 -3 7 567.194 566.391 8.371 0.175 o
-2 -3 8 63.298 60.220 1.482 12.258 o
-2 -3 9 4.024 3.793 1.070 423.237 o
-2 -3 10 65.576 62.746 1.800 11.316 o
-2 -3 11 17.416 15.393 1.993 78.783 o
-2 -3 12 13.863 13.501 0.839 146.703 o
-2 -2 1 1283.030 1223.850 23.797 0.035 o
-2 -2 2 662.699 613.581 10.708 0.135 o
-2 -2 3 236.584 239.355 11.556 0.857 o
-2 -2 4 8.634 8.951 1.108 223.752 o
-2 -2 5 320.569 330.536 8.157 0.516 o
-2 -2 6 994.648 1095.680 29.091 0.052 o
-2 -2 7 1668.890 1792.420 22.391 0.020 o
-2 -2 8 26.986 27.480 1.144 50.978 o
-2 -2 9 109.977 105.646 3.710 4.175 o
-2 -2 10 5.331 4.061 1.594 233.351 o
-2 -2 11 14.331 10.162 1.793 109.470 o
-2 -2 12 9.225 10.338 1.245 189.513 o
-2 -2 13 6.935 7.453 0.663 356.713 o
-2 -1 1 1611.690 1579.970 57.185 0.021 o
-2 -1 2 1384.670 1187.930 25.703 0.032 o
-2 -1 3 10.102 12.752 1.793 126.000 o
-2 -1 4 89.770 82.689 3.587 6.125 o
-2 -1 6 259.768 290.679 8.169 0.724 o
-2 -1 7 1265.140 1366.660 33.683 0.033 o
-2 -1 8 159.122 193.313 3.087 1.839 o
-2 -1 9 336.200 337.481 5.771 0.488 o
-2 -1 10 110.111 118.935 3.373 3.923 o
-2 -1 11 3.492 3.188 1.594 265.775 o
-2 -1 12 17.668 18.530 1.793 78.090 o
-2 -1 13 10.382 9.564 1.395 166.593 o
-2 0 1 1726.720 1733.280 36.264 0.019 o
-2 0 2 2690.370 2715.790 55.591 0.008 o
-2 0 3 2032.150 1875.310 117.159 0.012 o
-2 0 4 13.806 11.726 1.295 133.280 o
-2 0 5 186.050 188.024 3.274 1.544 o
-2 0 6 20.880 23.309 1.249 70.301 o
-2 0 7 66.428 70.767 2.043 10.262 o
-2 0 8 92.221 101.783 2.538 5.474 o
-2 0 9 329.015 342.479 7.522 0.491 o
-2 0 10 360.313 365.234 25.006 0.330 o
-2 0 11 87.078 99.028 3.985 5.599 o
-2 0 12 4.268 5.785 0.986 406.630 o
-2 0 13 1.573 3.188 1.196 470.978 o
-2 1 1 348.113 396.309 10.560 0.404 o
-2 1 2 13.801 18.730 1.993 85.368 o
-2 1 3 269.786 207.221 7.173 0.854 o
-2 1 4 38.703 51.296 1.717 22.948 o
-2 1 5 693.666 668.087 18.530 0.117 o
-2 1 6 240.842 250.129 13.150 0.790 o
-2 1 7 70.732 70.908 2.380 9.375 o
-2 1 8 5.579 6.658 1.058 325.165 o
-2 1 9 19.647 20.511 1.521 74.241 o
-2 1 10 34.900 45.787 2.029 26.376 o
-2 1 11 40.145 48.816 1.867 22.516 o
-2 1 12 41.027 34.072 1.594 27.471 o
-2 2 1 13.597 23.512 2.192 72.664 o
-2 2 2 643.697 735.633 18.132 0.120 o
-2 2 3 32.527 26.151 0.982 43.302 o
-2 2 4 200.395 200.012 3.136 1.353 o
-2 2 5 1407.900 1418.950 20.390 0.029 o
-2 2 6 806.124 783.693 12.330 0.089 o
-2 2 7 71.101 76.652 2.790 8.709 o
-2 2 8 41.563 40.416 2.192 23.335 o
-2 2 9 41.645 39.575 1.812 24.530 o
-2 2 10 4.468 5.418 1.082 371.951 o
-2 2 11 62.644 63.019 1.531 12.061 o
-2 3 1 423.815 394.320 6.125 0.326 o
-2 3 2 8.096 8.986 0.835 270.530 o
-2 3 3 42.876 33.119 1.230 27.284 o
-2 3 4 9.687 10.197 0.973 211.265 o
-2 3 5 547.866 557.976 6.924 0.186 o
-2 3 6 484.227 466.039 4.828 0.247 o
-2 3 7 214.394 223.208 2.969 1.158 o
-2 3 8 10.826 11.687 1.106 173.811 o
-2 3 9 15.603 15.489 1.960 85.778 o
-2 3 10 4.320 3.387 0.986 456.769 o
-2 4 1 381.463 364.877 40.946 0.227 o
-2 4 2 163.033 137.327 4.483 2.159 o
-2 4 3 16.019 11.909 2.092 86.177 o
-2 4 4 6.985 6.785 2.391 114.954 o
-2 4 5 112.915 115.998 2.959 3.913 o
-2 4 6 66.719 69.431 1.754 10.463 o
-2 4 7 168.488 188.106 3.221 1.747 o
-2 4 8 53.247 60.138 2.039 14.525 o
-2 4 9 28.561 26.286 2.192 41.113 o
-2 4 10 2.561 2.391 0.996 575.025 o
-2 5 1 196.587 201.953 6.788 1.304 o
-2 5 2 141.783 168.980 12.354 1.685 o
-2 5 3 5.812 5.169 4.284 44.513 o
-2 5 4 17.952 17.260 3.786 39.665 o
-2 5 5 72.156 61.181 2.391 9.922 o
-2 5 6 10.913 10.896 0.925 191.633 o
-2 5 7 29.634 26.158 0.981 48.176 o
-2 5 8 13.421 12.228 1.694 113.711 o
-2 5 9 31.475 30.485 1.395 39.779 o
-2 6 1 49.077 42.140 3.716 15.973 o
-2 6 2 20.893 21.966 4.882 25.610 o
-2 6 3 13.470 14.466 2.349 81.208 o
-2 6 4 41.325 37.431 7.372 10.293 o
-2 6 5 124.593 114.527 3.985 3.395 o
-2 6 6 4.080 4.969 0.845 494.310 o
-2 6 7 6.199 5.181 0.797 400.867 o
-2 6 8 23.029 23.711 1.196 64.103 o
-2 7 1 1.858 0.598 2.192 173.314 o
-2 7 2 3.783 2.590 2.192 158.100 o
-2 7 4 8.996 8.861 1.494 174.949 o
-2 7 5 51.309 50.417 8.269 7.552 o
-2 8 2 2.255 3.425 1.196 439.604 o
-1 -10 1 30.856 33.783 1.435 38.246 o
-1 -10 2 33.149 35.957 1.435 34.306 o
-1 -9 1 1.456 -1.196 1.993 212.260 o
-1 -9 2 17.520 13.947 2.391 69.663 o
-1 -9 3 49.968 48.544 5.679 11.293 o
-1 -9 4 2.364 2.790 1.993 195.561 o
-1 -9 6 0.665 -1.793 1.594 336.441 o
-1 -8 1 5.750 2.590 2.019 168.069 o
-1 -8 2 6.575 7.978 1.401 222.181 o
-1 -8 3 72.812 114.312 22.814 1.359 o
-1 -8 4 14.051 21.655 2.138 75.462 o
-1 -8 5 67.045 73.374 9.365 5.119 o
-1 -8 6 53.743 57.195 7.671 7.725 o
-1 -8 7 4.596 4.839 1.435 273.686 o
-1 -8 8 0.929 1.423 1.196 537.230 o
-1 -8 9 1.270 1.993 0.797 939.185 o
-1 -7 1 4.438 3.847 1.522 263.709 o
-1 -7 2 26.978 30.255 2.371 39.126 o
-1 -7 3 4.699 6.210 1.126 338.447 o
-1 -7 4 7.094 11.699 2.790 84.456 o
-1 -7 5 96.923 108.704 9.564 3.351 o
-1 -7 6 147.719 164.564 34.371 0.564 o
-1 -7 7 73.330 79.257 7.572 5.636 o
-1 -7 8 4.481 3.786 2.192 151.216 o
-1 -6 1 54.364 44.097 1.198 17.722 o
-1 -6 2 10.231 15.104 1.040 165.723 o
-1 -6 3 7.737 6.905 0.922 291.712 o
-1 -6 4 35.134 42.258 2.172 26.984 o
-1 -6 5 49.257 57.222 2.646 15.470 o
-1 -6 6 191.701 207.370 4.167 1.381 o
-1 -6 7 151.033 170.080 10.759 1.702 o
-1 -6 8 17.275 26.102 2.590 53.469 o
-1 -6 9 4.515 4.384 1.793 204.431 o
-1 -6 11 7.343 8.923 0.908 278.687 o
-1 -5 1 811.469 766.851 15.511 0.088 o
-1 -5 2 1018.130 1036.340 17.189 0.054 o
-1 -5 3 120.645 126.952 5.380 3.165 o
-1 -5 4 151.391 191.521 11.457 1.544 o
-1 -5 5 4.415 7.152 0.889 406.499 o
-1 -5 6 23.212 18.155 0.957 74.967 o
-1 -5 7 295.877 299.570 7.395 0.611 o
-1 -5 8 269.845 277.514 5.705 0.733 o
-1 -5 9 332.366 311.429 8.369 0.510 o
-1 -5 10 24.763 25.305 2.192 47.261 o
-1 -5 11 6.702 6.669 1.101 286.089 o
-1 -4 1 195.893 193.979 20.423 0.858 o
-1 -4 2 434.687 440.558 11.885 0.284 o
-1 -4 3 582.701 550.135 8.139 0.172 o
-1 -4 4 10.693 13.148 1.009 173.780 o
-1 -4 5 415.366 376.310 7.317 0.343 o
-1 -4 6 3.957 5.112 0.833 502.733 o
-1 -4 7 138.633 136.376 3.117 2.741 o
-1 -4 8 92.873 101.831 3.614 5.215 o
-1 -4 9 260.482 254.689 4.920 0.816 o
-1 -4 10 197.290 206.159 7.671 1.258 o
-1 -4 11 40.619 35.665 1.371 27.739 o
-1 -4 12 3.220 3.951 0.956 514.584 o
-1 -3 1 445.948 447.206 16.040 0.263 o
-1 -3 2 125.036 104.547 2.738 3.677 o
-1 -3 3 1423.520 1462.340 24.373 0.028 o
-1 -3 4 295.468 278.836 14.346 0.577 o
-1 -3 5 1725.220 1776.110 19.874 0.019 o
-1 -3 6 9.730 8.453 1.281 191.273 o
-1 -3 7 8.235 4.757 1.264 243.866 o
-1 -3 8 3.297 4.616 1.196 382.359 o
-1 -3 9 173.349 180.575 4.756 1.693 o
-1 -3 10 127.958 134.295 3.168 3.051 o
-1 -3 11 162.689 148.881 2.412 2.141 o
-1 -3 12 66.948 60.491 1.625 11.352 o
-1 -2 1 413.768 446.151 11.855 0.300 o
-1 -2 2 1385.700 1509.050 19.259 0.028 o
-1 -2 3 495.358 441.302 20.778 0.223 o
-1 -2 4 56.646 53.448 6.874 8.492 o
-1 -2 5 1342.270 1346.730 31.880 0.031 o
-1 -2 6 286.403 284.845 16.538 0.565 o
-1 -2 7 246.200 255.582 17.733 0.679 o
-1 -2 8 128.414 148.148 3.934 2.799 o
-1 -2 9 161.523 148.572 7.704 1.913 o
-1 -2 10 3.006 2.842 1.289 380.240 o
-1 -2 11 138.627 133.140 3.309 2.771 o
-1 -2 12 71.106 77.070 2.322 8.889 o
-1 -2 13 125.968 139.475 3.985 2.974 o
-1 -1 1 837.017 714.469 49.016 0.073 o
-1 -1 2 479.207 473.374 7.745 0.246 o
-1 -1 3 28.826 23.530 1.143 51.251 o
-1 -1 4 24.828 22.225 1.111 62.145 o
-1 -1 5 361.400 364.596 12.752 0.398 o
-1 -1 6 798.119 778.456 14.645 0.090 o
-1 -1 7 434.024 471.429 7.779 0.280 o
-1 -1 8 128.786 131.872 3.331 3.051 o
-1 -1 9 333.484 336.192 5.245 0.496 o
-1 -1 10 110.666 111.620 2.808 4.122 o
-1 -1 11 39.964 45.429 2.790 21.182 o
-1 -1 12 23.127 25.895 3.288 36.993 o
-1 -1 13 105.964 121.144 3.985 3.972 o
-1 0 1 3336.380 3335.060 65.952 0.005 o
-1 0 2 160.732 163.186 4.981 1.968 o
-1 0 3 184.427 150.811 12.453 1.379 o
-1 0 4 443.985 370.691 49.813 0.169 o
-1 0 5 274.654 263.011 9.365 0.709 o
-1 0 6 348.328 444.850 7.157 0.382 o
-1 0 7 93.820 93.092 6.575 4.586 o
-1 0 8 255.973 290.260 4.154 0.769 o
-1 0 9 1186.590 1280.980 23.123 0.038 o
-1 0 10 6.121 8.951 0.990 294.503 o
-1 0 11 41.328 44.831 2.790 20.670 o
-1 0 12 14.358 18.132 1.793 91.027 o
-1 0 13 9.058 7.591 1.494 181.030 o
-1 1 1 35.137 23.113 1.395 39.811 o
-1 1 2 2743.930 2588.070 52.403 0.008 o
-1 1 3 29.778 18.132 1.793 49.060 o
-1 1 4 355.811 293.297 9.166 0.479 o
-1 1 5 344.085 426.595 12.752 0.381 o
-1 1 6 109.640 138.878 6.974 3.090 o
-1 1 7 206.314 251.204 7.467 1.056 o
-1 1 8 180.412 187.129 8.013 1.467 o
-1 1 9 1094.310 1133.050 17.399 0.046 o
-1 1 10 12.718 20.472 1.300 110.757 o
-1 1 11 24.958 27.126 4.483 25.459 o
-1 1 12 13.098 12.951 1.993 99.408 o
-1 2 1 115.222 104.117 3.985 3.940 o
-1 2 2 110.795 85.080 3.387 4.698 o
-1 2 3 282.965 256.834 7.771 0.707 o
-1 2 4 1455.340 1273.410 28.891 0.029 o
-1 2 5 301.806 280.146 9.763 0.604 o
-1 2 6 19.599 21.718 3.387 41.357 o
-1 2 7 162.506 156.996 3.176 2.055 o
-1 2 8 70.351 77.566 3.353 8.459 o
-1 2 9 286.813 300.703 8.369 0.627 o
-1 2 10 18.890 20.929 1.550 75.479 o
-1 2 11 82.948 86.479 4.583 6.167 o
-1 2 12 33.239 32.919 3.786 23.942 o
-1 3 1 38.174 39.053 2.391 25.232 o
-1 3 2 338.249 352.582 7.771 0.464 o
-1 3 3 111.247 137.060 2.610 3.594 o
-1 3 4 344.723 329.456 8.617 0.469 o
-1 3 5 253.124 251.606 13.350 0.742 o
-1 3 6 189.584 200.426 3.681 1.440 o
-1 3 7 282.446 281.577 6.015 0.684 o
-1 3 8 57.084 58.136 1.430 14.185 o
-1 3 9 69.777 76.977 2.764 8.883 o
-1 3 10 8.966 10.207 0.987 221.649 o
-1 3 11 42.988 48.895 3.387 17.621 o
-1 4 1 360.660 321.221 52.801 0.189 o
-1 4 2 71.198 70.551 7.372 6.160 o
-1 4 3 84.735 91.307 8.667 4.305 o
-1 4 4 109.263 106.312 2.723 4.323 o
-1 4 5 9.877 11.137 1.054 193.727 o
-1 4 6 7.515 9.111 0.884 275.935 o
-1 4 7 70.924 71.299 1.831 9.549 o
-1 4 8 176.365 188.650 2.995 1.653 o
-1 4 9 108.642 95.486 2.232 4.693 o
-1 4 10 3.239 2.909 1.050 487.886 o
-1 4 11 7.141 7.372 0.996 287.442 o
-1 5 1 517.909 513.245 30.542 0.174 o
-1 5 2 296.571 292.755 14.047 0.562 o
-1 5 3 10.851 8.065 3.188 65.734 o
-1 5 4 77.983 79.546 15.840 2.464 o
-1 5 5 234.426 234.397 10.560 0.896 o
-1 5 6 3.411 7.659 0.980 405.699 o
-1 5 7 119.442 129.556 5.407 3.159 o
-1 5 8 124.496 127.202 6.177 2.957 o
-1 5 9 71.305 67.555 6.874 6.585 o
-1 5 10 15.982 9.980 3.587 48.176 o
-1 6 1 6.855 7.798 1.299 235.562 o
-1 6 2 11.172 7.870 1.385 167.992 o
-1 6 3 5.646 4.746 1.215 308.209 o
-1 6 4 78.951 77.992 14.446 2.790 o
-1 6 5 7.443 6.857 1.870 157.955 o
-1 6 6 2.979 4.277 0.826 601.194 o
-1 6 7 14.008 18.276 1.245 111.590 o
-1 6 8 31.979 34.670 2.192 32.650 o
-1 6 9 60.191 53.210 13.449 3.649 o
-1 7 1 5.413 4.380 1.380 275.811 o
-1 7 2 62.648 65.216 4.384 9.637 o
-1 7 3 84.068 76.313 3.985 6.742 o
-1 7 5 4.860 4.474 0.897 443.970 o
-1 7 6 4.434 4.999 0.671 551.737 o
-1 7 7 15.182 15.234 1.694 97.204 o
-1 8 1 9.472 9.806 1.205 193.831 o
-1 8 2 3.240 4.184 2.192 156.750 o
-1 8 3 2.380 2.790 1.993 195.441 o
-1 8 4 13.247 15.479 1.494 114.697 o
-1 8 5 9.378 11.357 1.395 167.689 o
0 -9 1 5.092 7.970 1.594 211.339 o
0 -9 2 3.165 3.188 1.594 270.718 o
0 -9 3 0.956 0.199 1.594 330.028 o
0 -9 4 2.757 2.351 1.050 527.124 o
0 -9 5 0.339 -0.199 1.196 600.174 o
0 -9 6 0.997 0.996 0.797 1065.370 o
0 -8 1 4.649 4.174 1.641 232.147 o
0 -8 2 37.006 45.489 2.757 22.791 o
0 -8 3 24.730 25.508 2.866 39.889 o
0 -8 4 31.921 38.403 2.776 28.135 o
0 -8 5 1.655 1.150 1.815 245.514 o
0 -8 6 19.642 22.435 3.786 36.152 o
0 -8 8 1.512 3.188 1.395 370.794 o
0 -7 1 2.741 5.332 1.754 225.305 o
0 -7 2 13.844 14.810 1.919 95.434 o
0 -7 3 5.988 6.837 1.555 213.520 o
0 -7 4 33.380 27.966 6.270 14.701 o
0 -7 5 53.421 74.195 10.959 4.745 o
0 -7 7 3.153 3.249 1.616 264.790 o
0 -7 8 2.302 4.604 2.192 160.612 o
0 -7 9 2.102 1.993 1.196 473.768 o
0 -7 10 2.784 5.186 1.395 317.449 o
0 -6 1 11.454 10.426 0.953 185.374 o
0 -6 2 6.266 4.841 1.121 315.273 o
0 -6 3 10.268 8.422 1.235 189.419 o
0 -6 4 61.260 70.752 5.100 8.797 o
0 -6 5 317.472 416.413 11.073 0.432 o
0 -6 6 43.078 54.029 3.159 17.183 o
0 -6 7 24.798 26.711 2.489 42.987 o
0 -6 8 2.860 3.470 1.673 252.968 o
0 -6 9 6.415 5.778 1.993 155.916 o
0 -6 10 7.581 7.771 1.594 184.217 o
0 -6 11 19.115 17.838 0.986 91.967 o
0 -5 1 917.081 851.540 54.395 0.058 o
0 -5 2 489.757 526.402 53.100 0.131 o
0 -5 3 44.874 55.365 4.515 13.698 o
0 -5 4 7.835 9.472 1.264 212.330 o
0 -5 5 6.840 9.194 0.893 290.432 o
0 -5 6 20.988 21.587 1.953 61.315 o
0 -5 7 113.585 121.360 3.867 3.678 o
0 -5 8 269.849 274.927 14.246 0.646 o
0 -5 9 95.260 88.866 3.786 5.441 o
0 -5 10 12.899 14.346 1.793 106.132 o
0 -5 11 7.001 9.963 1.793 157.364 o
0 -5 12 0.745 1.286 0.765 1155.110 o
0 -4 1 1327.630 1146.580 33.972 0.034 o
0 -4 2 412.975 386.745 10.959 0.331 o
0 -4 3 68.785 85.718 4.384 7.587 o
0 -4 4 7.179 6.615 0.950 305.242 o
0 -4 5 15.286 13.025 1.164 123.472 o
0 -4 6 4.029 3.674 0.847 535.604 o
0 -4 7 80.954 80.284 2.674 7.343 o
0 -4 8 228.333 228.734 4.110 1.041 o
0 -4 9 119.449 113.115 3.027 3.701 o
0 -4 10 44.331 38.455 2.391 21.817 o
0 -4 11 32.416 32.172 2.989 28.908 o
0 -4 12 3.483 3.985 1.594 259.976 o
0 -3 1 183.550 162.998 18.231 1.055 o
0 -3 2 503.205 560.870 9.709 0.204 o
0 -3 3 23.047 18.775 1.342 69.282 o
0 -3 4 187.019 200.446 8.568 1.332 o
0 -3 5 45.363 33.516 3.353 19.792 o
0 -3 6 16.165 13.971 4.085 38.294 o
0 -3 7 2.689 3.913 1.474 307.266 o
0 -3 8 5.581 6.330 0.843 389.472 o
0 -3 9 73.823 81.187 2.277 8.260 o
0 -3 10 201.004 195.571 3.522 1.361 o
0 -3 11 258.770 257.651 7.372 0.795 o
0 -3 12 75.048 65.952 3.188 8.695 o
0 -3 13 5.735 2.989 1.395 279.468 o
0 -2 1 2833.620 2682.840 38.109 0.007 o
0 -2 2 652.775 607.714 12.553 0.137 o
0 -2 3 271.937 295.793 14.745 0.608 o
0 -2 4 1310.780 1315.630 21.134 0.033 o
0 -2 5 1529.610 1699.690 22.191 0.023 o
0 -2 6 63.765 58.716 3.786 10.539 o
0 -2 7 147.894 171.468 4.782 2.113 o
0 -2 8 15.122 12.404 1.107 129.343 o
0 -2 9 3.559 2.726 0.960 528.483 o
0 -2 10 77.942 83.346 2.366 7.604 o
0 -2 11 100.417 97.359 3.352 4.945 o
0 -2 12 126.543 130.741 15.342 1.744 o
0 -2 13 18.720 20.236 1.268 82.986 o
0 -1 1 409.856 319.199 6.575 0.385 o
0 -1 2 1865.740 1538.810 31.282 0.018 o
0 -1 3 142.746 128.554 2.949 2.745 o
0 -1 4 22.561 16.843 0.813 81.674 o
0 -1 5 1337.540 1460.580 20.852 0.030 o
0 -1 6 356.087 411.652 12.752 0.375 o
0 -1 7 912.603 973.376 60.174 0.052 o
0 -1 8 11.574 18.886 1.869 98.443 o
0 -1 9 382.627 446.315 7.931 0.339 o
0 -1 10 4.592 3.456 0.843 509.485 o
0 -1 11 46.061 40.924 2.142 20.878 o
0 -1 12 162.923 179.724 5.778 1.789 o
0 -1 13 95.270 113.374 3.985 4.663 o
0 -1 14 7.028 6.575 1.196 261.611 o
0 0 2 736.924 556.507 12.354 0.123 o
0 0 3 1075.390 1046.260 22.316 0.049 o
0 0 4 851.603 933.489 21.121 0.072 o
0 0 5 327.534 361.441 10.361 0.463 o
0 0 6 13.860 22.243 3.188 50.909 o
0 0 7 239.916 270.709 5.713 0.862 o
0 0 8 110.456 94.035 2.956 4.543 o
0 0 9 10.511 10.929 1.229 172.057 o
0 0 10 169.195 145.945 6.446 1.899 o
0 0 11 45.344 49.969 5.280 12.695 o
0 0 12 18.278 26.102 2.989 45.812 o
0 0 13 20.899 21.519 2.391 54.385 o
0 0 14 5.395 4.583 1.395 270.877 o
0 1 0 6738.300 6239.320 85.802 0.001 o
0 1 1 825.816 683.429 14.147 0.093 o
0 1 2 1583.520 1230.370 25.504 0.026 o
0 1 3 609.469 485.451 41.743 0.131 o
0 1 4 90.666 99.028 4.384 5.252 o
0 1 5 46.478 56.986 3.587 14.811 o
0 1 6 65.778 75.895 3.985 8.774 o
0 1 7 106.982 131.691 13.449 2.194 o
0 1 8 448.347 525.478 9.922 0.246 o
0 1 9 81.522 92.282 5.924 5.519 o
0 1 10 308.760 345.997 7.781 0.526 o
0 1 11 212.865 219.938 11.656 1.008 o
0 1 13 4.816 6.376 1.594 224.849 o
0 2 0 3727.030 4216.100 58.819 0.004 o
0 2 1 18.987 20.124 1.196 83.545 o
0 2 2 1003.470 957.549 94.146 0.037 o
0 2 3 1730.320 1692.760 91.954 0.017 o
0 2 4 1522.990 1369.780 21.726 0.026 o
0 2 5 377.859 372.798 11.158 0.378 o
0 2 6 141.307 183.111 5.579 2.084 o
0 2 7 30.554 34.600 2.246 33.759 o
0 2 8 38.205 37.931 2.021 26.847 o
0 2 9 150.812 165.503 4.418 2.131 o
0 2 10 336.971 364.629 9.365 0.450 o
0 2 11 293.341 299.795 8.388 0.611 o
0 2 12 24.599 21.429 1.763 56.207 o
0 2 13 14.509 12.041 1.494 117.472 o
0 3 0 6.476 7.101 0.535 409.319 o
0 3 1 145.998 111.590 3.288 2.859 o
0 3 2 118.119 94.644 4.981 3.861 o
0 3 3 448.228 401.551 47.721 0.170 o
0 3 4 1632.170 1608.880 23.638 0.022 o
0 3 5 449.036 473.220 11.556 0.261 o
0 3 6 937.018 1013.370 17.220 0.061 o
0 3 7 8.734 8.538 1.064 231.132 o
0 3 8 46.926 57.297 2.379 16.630 o
0 3 9 51.676 55.392 4.782 11.817 o
0 3 10 24.782 31.421 1.664 47.403 o
0 3 11 280.528 286.358 3.800 0.694 o
0 3 12 79.076 71.046 2.010 8.325 o
0 4 0 1402.550 1296.220 58.978 0.028 o
0 4 1 7.743 5.778 2.590 101.021 o
0 4 2 15.241 15.541 2.989 57.931 o
0 4 3 9.864 13.971 2.391 91.616 o
0 4 4 694.177 650.991 68.144 0.075 o
0 4 5 285.975 300.668 14.844 0.568 o
0 4 6 178.929 194.668 4.184 1.566 o
0 4 7 62.490 61.340 2.989 11.258 o
0 4 8 113.655 136.937 8.767 2.744 o
0 4 9 2.740 3.386 1.352 354.757 o
0 4 10 30.209 42.175 2.176 30.925 o
0 4 11 72.028 72.156 2.202 9.163 o
0 5 0 732.677 681.437 24.707 0.104 o
0 5 1 45.963 60.373 6.575 9.667 o
0 5 2 113.422 81.966 23.512 1.206 o
0 5 3 28.761 25.064 2.574 38.350 o
0 5 4 78.672 60.733 3.030 8.642 o
0 5 5 143.149 137.399 3.492 2.602 o
0 5 6 40.486 42.537 2.418 22.718 o
0 5 7 146.499 157.664 5.387 2.221 o
0 5 8 131.790 140.237 5.268 2.708 o
0 5 9 16.804 21.535 2.192 66.862 o
0 5 10 13.025 12.945 1.191 140.135 o
0 5 11 16.547 17.733 1.395 94.743 o
0 6 0 353.431 343.778 8.017 0.445 o
0 6 1 164.754 179.387 6.131 1.754 o
0 6 2 118.743 96.841 7.931 3.260 o
0 6 3 6.430 6.343 0.886 346.278 o
0 6 4 4.669 5.184 1.408 275.629 o
0 6 5 24.247 24.813 1.694 54.249 o
0 6 6 83.064 96.946 2.666 6.344 o
0 6 7 17.133 18.312 1.579 85.909 o
0 6 8 21.004 33.326 1.893 50.117 o
0 6 9 46.167 40.713 1.474 22.143 o
0 6 10 32.047 22.425 4.882 21.231 o
0 7 0 14.837 19.535 1.721 88.575 o
0 7 1 70.641 69.109 3.609 8.828 o
0 7 2 231.481 191.185 19.925 0.764 o
0 7 3 331.153 335.229 22.715 0.393 o
0 7 4 84.429 91.432 2.633 6.473 o
0 7 6 1.953 3.993 1.723 248.914 o
0 7 7 3.451 3.011 1.177 412.369 o
0 7 8 11.156 9.573 1.395 158.927 o
0 7 9 5.157 3.587 0.598 584.466 o
0 8 0 3.583 1.414 2.192 162.271 o
0 8 1 35.806 35.245 1.989 29.899 o
0 8 2 39.181 42.336 5.181 15.082 o
0 8 3 58.761 66.094 10.560 4.927 o
0 8 4 39.932 51.328 10.959 5.627 o
0 8 5 14.535 19.897 1.460 97.213 o
0 8 6 13.042 10.424 2.192 95.736 o
0 9 0 0.937 2.989 1.395 387.985 o
0 9 1 7.416 9.579 1.178 229.683 o
0 9 2 6.293 4.782 2.192 139.084 o
0 9 4 4.349 5.579 1.395 281.221 o
1 -9 1 36.739 35.666 1.993 28.939 o
1 -9 2 17.227 17.136 1.594 87.489 o
1 -8 0 69.369 66.488 3.085 9.536 o
1 -8 1 84.477 84.229 2.885 6.729 o
1 -8 2 34.276 39.074 3.517 23.070 o
1 -8 3 43.416 54.099 2.383 18.596 o
1 -8 4 10.032 10.616 2.192 107.453 o
1 -8 5 4.665 6.099 1.333 285.090 o
1 -8 6 4.847 5.978 1.594 227.050 o
1 -8 7 6.031 5.579 1.395 250.782 o
1 -7 0 19.696 19.888 1.869 68.243 o
1 -7 1 4.556 5.817 1.745 204.755 o
1 -7 2 25.337 29.558 2.274 42.490 o
1 -7 3 114.750 145.663 10.162 2.436 o
1 -7 4 90.237 99.638 3.925 5.381 o
1 -7 5 1.371 0.272 2.391 149.285 o
1 -7 6 18.206 19.124 1.956 71.652 o
1 -7 7 0.657 1.568 1.137 597.257 o
1 -7 8 1.972 4.122 0.947 593.892 o
1 -7 9 3.947 5.492 0.996 422.093 o
1 -6 0 2.832 3.215 1.307 372.614 o
1 -6 1 1.735 2.645 1.205 469.927 o
1 -6 2 1.990 1.609 1.332 408.502 o
1 -6 3 47.804 57.985 5.299 11.479 o
1 -6 4 436.928 477.400 10.560 0.271 o
1 -6 5 148.238 161.292 6.082 2.119 o
1 -6 6 157.718 166.017 4.532 2.011 o
1 -6 7 3.576 3.594 1.723 231.978 o
1 -6 8 13.050 16.451 1.815 99.457 o
1 -6 9 4.513 3.509 1.297 327.847 o
1 -6 10 1.884 0.996 1.196 503.987 o
1 -6 11 52.435 49.016 1.793 16.910 o
1 -5 0 116.299 82.713 2.099 4.637 o
1 -5 1 8.268 6.934 0.841 291.246 o
1 -5 2 22.020 32.072 3.164 36.350 o
1 -5 3 15.463 16.859 1.307 105.145 o
1 -5 4 167.515 180.423 6.653 1.692 o
1 -5 5 6.010 9.629 1.541 198.210 o
1 -5 6 168.547 208.191 7.827 1.487 o
1 -5 7 113.965 125.407 3.971 3.577 o
1 -5 8 9.898 10.602 1.552 152.921 o
1 -5 9 1.367 1.943 1.494 346.295 o
1 -5 10 7.300 5.220 3.487 63.041 o
1 -5 11 2.482 1.936 1.096 521.609 o
1 -5 12 5.075 6.177 0.996 365.745 o
1 -4 0 640.636 509.085 15.541 0.154 o
1 -4 1 172.070 164.979 6.775 1.724 o
1 -4 2 320.030 340.140 35.467 0.301 o
1 -4 3 11.717 15.491 1.934 102.574 o
1 -4 4 5.873 4.918 1.274 286.451 o
1 -4 5 115.244 103.264 3.800 3.983 o
1 -4 6 6.504 4.968 0.979 343.208 o
1 -4 7 73.823 73.184 2.564 8.677 o
1 -4 8 128.464 131.398 3.118 3.082 o
1 -4 9 37.077 44.642 2.138 24.952 o
1 -4 10 3.495 3.188 1.594 265.723 o
1 -4 13 15.440 9.365 0.797 153.360 o
1 -3 0 278.140 253.985 15.342 0.636 o
1 -3 1 376.778 360.568 13.350 0.379 o
1 -3 2 1449.960 1552.760 34.670 0.025 o
1 -3 3 889.888 925.519 22.715 0.068 o
1 -3 4 24.930 36.064 3.387 30.430 o
1 -3 5 1034.990 1191.960 16.192 0.048 o
1 -3 6 75.604 67.918 2.486 8.830 o
1 -3 7 18.897 21.679 6.077 19.012 o
1 -3 8 388.739 393.730 5.691 0.366 o
1 -3 9 121.966 121.289 2.804 3.477 o
1 -3 10 232.218 208.803 106.898 0.072 o
1 -2 0 59.745 77.835 6.575 7.327 o
1 -2 1 13.280 17.569 1.101 124.059 o
1 -2 2 991.459 1033.110 23.113 0.055 o
1 -2 3 2717.870 3078.770 39.659 0.007 o
1 -2 4 2822.090 3107.540 56.587 0.007 o
1 -2 5 347.256 339.826 7.734 0.460 o
1 -2 6 121.911 154.866 5.202 2.775 o
1 -2 7 314.556 330.069 19.327 0.446 o
1 -2 8 70.886 65.992 5.320 7.793 o
1 -2 9 75.383 74.658 2.457 8.414 o
1 -2 10 225.430 215.695 3.897 1.101 o
1 -2 11 16.407 18.929 2.192 71.252 o
1 -2 12 14.226 10.361 1.993 100.127 o
1 -2 13 1.410 1.196 1.395 399.045 o
1 -1 0 2031.300 2066.230 41.643 0.014 o
1 -1 1 412.334 481.788 10.959 0.288 o
1 -1 2 4055.260 4241.850 83.486 0.003 o
1 -1 3 19411.000 19925.100 388.937 0.000 o
1 -1 4 5588.560 6056.510 85.309 0.002 o
1 -1 5 26.371 24.526 1.832 49.048 o
1 -1 6 412.745 426.261 34.968 0.224 o
1 -1 7 100.211 110.061 4.295 4.435 o
1 -1 8 3.669 4.184 2.391 133.186 o
1 -1 9 121.188 125.414 4.019 3.325 o
1 -1 10 7.016 5.971 1.112 284.679 o
1 -1 11 11.404 13.330 1.013 164.214 o
1 -1 12 111.646 112.776 4.384 3.852 o
1 -1 13 120.004 123.498 5.679 3.197 o
1 -1 14 34.472 36.264 1.793 31.419 o
1 0 0 1152.450 1096.150 64.557 0.037 o
1 0 1 1915.050 2105.280 42.042 0.014 o
1 0 2 2967.620 3203.660 56.886 0.006 o
1 0 3 363.346 365.255 18.431 0.366 o
1 0 4 650.881 690.385 24.607 0.119 o
1 0 5 66.969 62.814 2.463 10.651 o
1 0 6 1649.740 1885.670 29.374 0.019 o
1 0 7 123.822 143.287 6.440 2.744 o
1 0 8 75.529 84.516 3.937 7.185 o
1 0 9 8.446 10.376 1.384 184.273 o
1 0 10 4.304 4.065 1.249 341.436 o
1 0 11 21.039 19.852 2.391 55.671 o
1 0 12 109.615 122.031 3.686 3.842 o
1 0 13 151.864 159.345 13.250 1.566 o
1 0 14 159.689 168.566 4.583 1.960 o
1 1 0 202.985 119.420 2.296 1.763 o
1 1 1 229.923 90.511 10.162 1.368 o
1 1 2 776.010 703.963 21.320 0.097 o
1 1 3 400.244 479.380 8.833 0.303 o
1 1 4 12.605 19.593 5.878 21.741 o
1 1 5 84.212 77.422 2.807 7.110 o
1 1 6 571.964 622.955 11.618 0.161 o
1 1 7 1445.470 1660.550 37.260 0.024 o
1 1 8 859.342 1043.670 26.301 0.064 o
1 1 9 128.553 145.054 7.572 2.499 o
1 1 10 32.318 41.893 2.456 28.058 o
1 1 11 91.098 103.354 3.061 5.399 o
1 1 12 76.294 78.567 2.080 8.178 o
1 1 13 48.931 51.384 3.288 15.444 o
1 1 14 110.997 116.761 3.387 3.930 o
1 2 0 70.526 105.736 2.849 7.049 o
1 2 1 75.766 50.092 1.954 10.486 o
1 2 2 6960.020 6454.310 74.573 0.001 o
1 2 3 26.269 18.561 1.134 62.952 o
1 2 4 69.093 94.673 2.680 7.865 o
1 2 5 6.703 8.182 1.494 205.131 o
1 2 6 11.982 17.937 1.330 122.314 o
1 2 7 368.826 446.131 10.179 0.349 o
1 2 8 610.589 746.778 35.467 0.112 o
1 2 9 549.656 635.789 100.223 0.058 o
1 2 10 277.816 328.414 17.335 0.529 o
1 2 11 127.721 162.680 5.878 2.498 o
1 2 12 3.605 5.487 1.000 435.342 o
1 2 13 2.616 3.587 1.793 227.944 o
1 2 14 39.457 35.068 1.594 28.313 o
1 3 0 19.961 18.342 0.997 86.775 o
1 3 1 36.618 26.761 1.958 33.178 o
1 3 2 4114.920 3886.010 234.319 0.003 o
1 3 3 2414.240 2290.620 87.870 0.009 o
1 3 4 401.432 383.558 11.357 0.344 o
1 3 5 161.522 174.145 7.173 1.777 o
1 3 6 14.512 21.507 1.441 94.101 o
1 3 7 89.699 105.536 9.464 3.631 o
1 3 8 119.075 192.875 7.173 2.266 o
1 3 9 26.461 26.349 1.812 47.533 o
1 3 10 25.895 24.748 2.092 46.985 o
1 3 11 50.078 44.997 2.039 18.301 o
1 3 12 77.186 75.821 4.184 7.336 o
1 4 0 471.729 448.513 14.545 0.248 o
1 4 1 231.734 255.411 7.984 0.905 o
1 4 2 640.782 664.495 31.581 0.118 o
1 4 3 373.390 325.083 6.575 0.433 o
1 4 4 263.523 234.769 4.152 0.850 o
1 4 5 610.368 626.476 10.857 0.148 o
1 4 6 71.735 53.749 1.876 10.942 o
1 4 7 160.832 177.047 7.870 1.731 o
1 4 8 97.459 116.195 12.652 2.586 o
1 4 9 26.569 29.107 4.184 26.128 o
1 4 10 116.012 147.326 5.479 2.996 o
1 4 11 45.972 45.443 1.832 20.397 o
1 4 12 87.116 99.489 13.449 2.731 o
1 5 0 399.241 343.776 8.292 0.379 o
1 5 1 18.654 16.119 2.092 71.417 o
1 5 2 17.577 18.642 1.064 95.920 o
1 5 3 73.311 54.385 1.923 10.557 o
1 5 4 64.448 66.679 5.234 8.540 o
1 5 5 137.112 148.707 4.682 2.537 o
1 5 6 84.241 83.697 2.536 6.875 o
1 5 7 113.402 125.727 4.782 3.491 o
1 5 8 193.268 176.735 5.778 1.470 o
1 5 9 10.136 9.564 2.391 98.165 o
1 5 10 3.710 2.491 0.981 513.786 o
1 5 11 4.161 3.664 0.956 471.941 o
1 6 0 83.882 72.345 1.503 7.777 o
1 6 1 279.446 245.633 15.401 0.643 o
1 6 2 180.735 169.122 7.308 1.581 o
1 6 3 14.795 17.171 1.179 112.414 o
1 6 4 26.774 29.197 1.281 48.814 o
1 6 5 211.743 209.255 4.220 1.211 o
1 6 7 149.827 172.551 5.579 2.033 o
1 6 8 64.989 73.125 3.387 9.498 o
1 6 9 5.533 6.895 1.203 288.584 o
1 6 10 4.482 2.808 0.747 591.642 o
1 7 0 39.376 29.957 2.189 28.347 o
1 7 1 100.180 84.361 2.359 5.557 o
1 7 2 153.621 142.289 8.550 2.008 o
1 7 3 98.807 92.106 5.978 4.547 o
1 7 4 111.206 95.393 5.081 4.114 o
1 7 5 56.771 61.097 3.446 12.000 o
1 7 6 7.080 10.959 3.188 69.380 o
1 7 7 21.156 30.164 1.793 53.937 o
1 7 8 44.700 56.307 1.766 18.585 o
1 7 9 17.135 13.748 1.395 101.661 o
1 8 0 21.629 20.729 6.177 18.067 o
1 8 1 9.893 7.587 2.790 82.703 o
1 8 2 19.401 18.926 3.387 43.022 o
1 8 3 55.511 59.840 9.365 6.005 o
1 8 4 68.251 77.384 5.336 7.472 o
1 8 5 54.300 74.271 2.565 11.976 o
1 8 6 3.868 4.782 1.658 234.872 o
1 8 7 3.042 1.793 1.196 440.680 o
1 8 8 1.287 2.645 0.765 936.566 o
1 9 0 2.880 2.082 1.388 353.483 o
1 9 1 5.149 4.747 1.327 290.583 o
1 9 2 2.030 1.588 1.269 440.917 o
1 9 3 17.953 22.715 1.793 70.694 o
1 9 4 21.877 28.692 3.387 35.859 o
1 9 5 16.448 18.730 2.192 71.410 o
1 10 0 20.758 25.305 1.793 60.031 o
2 -7 0 10.968 11.191 2.107 106.881 o
2 -7 1 31.758 30.231 2.285 34.504 o
2 -7 2 20.505 23.617 2.373 53.482 o
2 -7 3 20.217 23.806 1.742 63.967 o
2 -7 4 1.102 1.198 1.207 525.993 o
2 -7 5 2.013 2.823 1.673 268.558 o
2 -7 6 0.865 0.859 1.070 673.782 o
2 -7 7 18.938 19.145 2.790 53.026 o
2 -7 8 30.811 34.072 1.993 35.212 o
2 -7 9 20.700 16.538 0.996 87.501 o
2 -6 0 2.703 2.291 2.278 153.591 o
2 -6 1 8.543 7.843 1.324 206.154 o
2 -6 2 46.174 51.910 2.405 17.881 o
2 -6 3 52.717 46.746 2.338 16.508 o
2 -6 4 27.264 27.514 1.989 43.780 o
2 -6 5 83.064 88.179 3.449 6.500 o
2 -6 6 22.311 21.314 1.295 68.354 o
2 -6 7 7.750 6.465 1.255 238.898 o
2 -6 8 0.672 -0.219 1.132 646.877 o
2 -6 9 0.964 1.694 0.845 926.765 o
2 -6 11 12.288 12.553 0.996 159.846 o
2 -5 0 104.270 111.942 4.507 4.162 o
2 -5 1 5.708 5.784 1.296 275.565 o
2 -5 2 1.309 2.243 1.005 659.119 o
2 -5 3 80.368 90.384 8.520 4.559 o
2 -5 4 26.378 26.113 1.871 47.306 o
2 -5 5 138.643 155.780 4.931 2.415 o
2 -5 6 116.169 133.525 3.251 3.429 o
2 -5 7 7.875 9.649 1.352 199.482 o
2 -5 8 6.223 6.853 1.521 215.792 o
2 -5 9 67.902 62.759 2.346 10.555 o
2 -5 10 2.037 2.391 1.196 468.300 o
2 -5 11 10.247 9.647 0.897 213.894 o
2 -4 0 427.142 422.535 40.049 0.200 o
2 -4 1 483.756 495.536 15.342 0.225 o
2 -4 2 4.181 4.864 2.099 160.818 o
2 -4 3 31.678 28.537 1.566 39.897 o
2 -4 4 8.673 8.937 1.159 216.863 o
2 -4 5 114.287 135.213 5.350 3.236 o
2 -4 6 404.659 413.848 6.832 0.335 o
2 -4 7 18.770 17.380 1.465 84.159 o
2 -4 8 4.313 4.873 1.348 301.366 o
2 -4 9 14.801 17.302 2.012 83.742 o
2 -4 10 2.026 4.782 1.594 275.945 o
2 -4 11 8.361 7.591 1.494 188.787 o
2 -4 12 6.245 5.579 0.765 399.241 o
2 -3 0 161.898 149.228 5.280 2.042 o
2 -3 1 522.305 594.826 11.088 0.186 o
2 -3 2 62.193 83.336 20.523 1.744 o
2 -3 3 11.821 13.340 3.885 45.031 o
2 -3 4 5.821 8.051 2.092 142.303 o
2 -3 5 10.443 8.472 2.010 121.919 o
2 -3 6 592.680 634.258 10.903 0.152 o
2 -3 7 311.239 289.836 6.874 0.588 o
2 -3 8 448.551 401.788 7.172 0.298 o
2 -3 9 102.578 101.605 3.885 4.607 o
2 -3 10 4.275 4.782 1.793 204.833 o
2 -3 11 2.406 5.181 1.793 221.815 o
2 -3 12 1.052 1.993 1.395 397.973 o
2 -3 13 1.117 0.399 1.196 552.381 o
2 -2 0 175.150 213.995 6.974 1.429 o
2 -2 1 1172.450 1347.330 29.688 0.037 o
2 -2 2 230.335 265.174 36.264 0.393 o
2 -2 4 1005.740 1249.620 60.174 0.041 o
2 -2 5 1579.480 1902.270 60.174 0.019 o
2 -2 6 1620.780 1790.420 23.473 0.020 o
2 -2 7 65.850 77.150 8.966 5.311 o
2 -2 8 30.983 28.526 5.081 19.624 o
2 -2 9 80.980 78.119 2.223 7.599 o
2 -2 10 84.910 82.266 3.786 6.481 o
2 -2 11 11.333 9.902 1.056 182.451 o
2 -2 12 13.347 12.416 4.682 32.899 o
2 -2 13 40.018 39.053 2.192 24.695 o
2 -1 0 86.394 128.242 3.514 4.833 o
2 -1 1 223.689 218.244 4.925 1.091 o
2 -1 2 201.109 203.561 11.258 1.132 o
2 -1 3 2258.030 2538.110 83.984 0.010 o
2 -1 4 2323.120 2634.500 108.890 0.009 o
2 -1 5 1317.720 1563.560 39.651 0.028 o
2 -1 6 103.515 102.002 3.796 4.564 o
2 -1 7 145.850 149.040 5.000 2.336 o
2 -1 8 7.762 9.377 1.893 144.478 o
2 -1 9 39.237 30.940 2.022 28.721 o
2 -1 10 144.982 141.544 4.296 2.471 o
2 -1 11 88.730 90.660 3.825 5.827 o
2 -1 12 95.479 91.254 2.989 5.529 o
2 -1 13 1.990 2.989 1.268 419.356 o
2 0 0 157.552 166.941 15.243 1.354 o
2 0 1 940.224 1164.570 41.444 0.050 o
2 0 2 2131.320 2480.890 35.786 0.011 o
2 0 3 597.480 681.437 15.741 0.141 o
2 0 4 27.620 17.661 1.268 59.293 o
2 0 5 1510.690 1769.090 27.051 0.022 o
2 0 6 1370.010 1511.460 24.091 0.028 o
2 0 7 18.962 29.888 1.315 65.386 o
2 0 8 26.015 29.006 1.613 47.789 o
2 0 9 23.690 16.722 1.232 72.088 o
2 0 10 208.987 215.916 9.664 1.094 o
2 0 11 208.820 196.090 7.771 1.209 o
2 0 12 125.174 113.582 2.313 3.535 o
2 0 13 41.474 41.388 1.898 23.855 o
2 0 14 4.593 5.105 1.050 384.356 o
2 1 0 1338.690 1443.360 59.675 0.027 o
2 1 1 379.079 319.658 11.158 0.412 o
2 1 2 4480.260 5501.910 111.381 0.002 o
2 1 3 53.379 77.130 3.387 11.133 o
2 1 4 216.754 211.198 10.660 1.037 o
2 1 5 1177.930 1147.520 35.068 0.040 o
2 1 6 981.589 1081.280 17.943 0.055 o
2 1 7 138.156 150.085 3.217 2.585 o
2 1 8 490.226 614.755 13.588 0.194 o
2 1 9 4.866 6.128 1.338 279.460 o
2 1 10 19.271 19.593 1.749 72.316 o
2 1 11 65.425 72.059 3.088 9.716 o
2 1 12 119.012 122.412 3.693 3.481 o
2 1 13 36.036 39.333 1.851 28.539 o
2 1 14 3.260 4.034 0.956 509.978 o
2 2 0 280.840 226.850 3.119 0.801 o
2 2 1 7919.850 6976.080 108.796 0.001 o
2 2 2 768.107 876.105 20.921 0.085 o
2 2 3 95.264 90.234 2.965 5.585 o
2 2 4 4.928 8.270 1.339 257.746 o
2 2 5 242.753 229.830 5.072 0.950 o
2 2 6 1204.360 1353.710 16.979 0.036 o
2 2 7 54.183 59.472 2.869 13.457 o
2 2 8 651.926 722.874 74.022 0.071 o
2 2 9 149.625 174.253 6.675 1.963 o
2 2 10 52.459 67.582 2.824 12.927 o
2 2 11 7.952 9.187 1.515 182.097 o
2 2 12 87.597 89.221 3.935 5.932 o
2 2 13 61.424 66.117 3.911 10.193 o
2 2 14 4.898 4.953 0.765 482.342 o
2 3 0 397.133 384.072 12.601 0.344 o
2 3 1 2785.180 2351.360 35.288 0.008 o
2 3 2 522.725 482.348 9.909 0.215 o
2 3 3 3372.550 3527.160 82.290 0.005 o
2 3 4 1626.590 1789.320 40.747 0.020 o
2 3 5 43.031 78.903 3.587 12.896 o
2 3 6 9.245 24.153 12.852 5.168 o
2 3 7 16.119 17.240 2.180 74.690 o
2 3 8 182.939 186.017 4.301 1.566 o
2 3 9 132.693 135.405 3.214 2.901 o
2 3 10 9.788 14.261 1.757 125.602 o
2 3 11 14.932 15.573 1.726 96.409 o
2 3 12 4.540 6.090 1.183 328.110 o
2 3 13 3.168 2.495 0.839 648.700 o
2 4 0 332.104 318.714 9.664 0.497 o
2 4 1 1333.430 1201.860 32.578 0.033 o
2 4 2 467.576 463.210 10.859 0.253 o
2 4 3 938.051 912.567 16.338 0.065 o
2 4 4 733.561 793.154 18.929 0.097 o
2 4 5 270.556 311.503 9.365 0.649 o
2 4 6 68.835 82.478 3.431 8.298 o
2 4 7 3.792 4.327 1.173 379.642 o
2 4 8 22.197 22.566 2.007 56.738 o
2 4 9 43.316 49.390 5.337 13.037 o
2 4 10 175.879 201.867 10.670 1.333 o
2 4 11 241.390 248.415 4.156 0.920 o
2 4 12 75.714 73.571 4.384 7.497 o
2 4 13 10.610 12.553 1.395 150.248 o
2 5 0 40.775 34.470 4.184 18.758 o
2 5 1 62.734 65.775 2.905 10.854 o
2 5 2 223.396 208.976 4.611 1.127 o
2 5 3 30.076 20.895 1.350 49.888 o
2 5 4 652.105 670.093 10.913 0.130 o
2 5 5 614.562 633.673 7.278 0.147 o
2 5 6 217.370 226.546 5.473 1.097 o
2 5 7 240.161 290.176 6.977 0.808 o
2 5 8 84.737 82.990 4.156 6.328 o
2 5 9 111.391 132.528 6.376 3.220 o
2 5 10 31.982 46.718 2.138 27.790 o
2 5 11 19.890 23.721 1.806 63.846 o
2 5 12 53.202 53.774 7.870 7.700 o
2 6 0 42.373 32.052 2.690 23.772 o
2 6 1 43.660 35.267 2.677 22.213 o
2 6 2 9.935 10.284 0.894 214.000 o
2 6 3 5.001 5.599 0.596 521.255 o
2 6 4 10.537 7.518 0.721 245.369 o
2 6 5 209.586 210.931 3.157 1.234 o
2 6 6 269.039 270.123 4.447 0.757 o
2 6 7 457.055 465.304 13.350 0.255 o
2 6 8 96.262 92.909 3.088 5.398 o
2 6 9 7.230 9.404 2.391 109.015 o
2 6 10 6.019 5.219 1.594 216.881 o
2 6 11 4.159 4.981 0.996 423.904 o
2 6 12 9.468 8.568 0.797 248.962 o
2 7 0 233.047 234.231 4.231 0.998 o
2 7 1 243.555 215.736 13.344 0.840 o
2 7 2 13.287 10.877 1.323 139.233 o
2 7 3 32.843 28.520 1.668 37.857 o
2 7 4 53.401 48.523 2.202 16.147 o
2 7 5 4.441 5.340 1.362 290.012 o
2 7 6 43.293 44.094 3.086 19.180 o
2 7 7 223.598 269.208 8.568 0.902 o
2 7 8 110.152 132.155 2.971 3.698 o
2 7 9 34.153 33.149 1.474 34.582 o
2 7 10 1.827 2.590 0.797 822.782 o
2 8 0 33.010 39.467 76.512 0.150 o
2 8 1 72.089 77.720 2.984 8.413 o
2 8 2 27.319 29.524 1.611 45.223 o
2 8 3 21.164 22.799 1.287 69.687 o
2 8 4 2.417 4.170 1.387 339.997 o
2 8 5 2.152 0.905 2.439 140.029 o
2 8 6 3.018 3.491 1.723 239.162 o
2 8 7 17.020 27.022 2.039 62.755 o
2 8 8 6.850 8.842 1.191 244.069 o
2 8 9 7.633 7.372 0.996 275.605 o
2 9 0 1.837 0.229 1.516 345.121 o
2 9 1 41.084 40.583 1.946 24.227 o
2 9 2 81.815 83.557 3.915 6.647 o
2 9 3 51.406 55.459 1.839 16.069 o
2 9 4 17.615 19.363 7.572 13.455 o
2 9 5 1.834 1.793 1.691 272.896 o
2 9 6 2.964 4.096 1.245 381.195 o
2 10 0 20.739 19.235 2.790 50.161 o
2 10 1 6.099 7.756 1.388 233.233 o
2 10 2 1.246 1.196 2.192 174.884 o
3 -7 0 6.450 5.380 1.993 157.021 o
3 -7 1 1.340 1.568 1.098 593.093 o
3 -7 2 1.113 1.594 1.793 254.491 o
3 -7 3 3.029 3.814 1.435 314.093 o
3 -7 4 3.359 3.587 1.993 185.313 o
3 -6 0 24.261 28.702 2.867 38.633 o
3 -6 1 50.444 47.445 2.562 16.847 o
3 -6 2 120.122 115.354 8.867 2.825 o
3 -6 3 58.942 71.526 3.662 10.383 o
3 -6 4 39.809 44.652 1.703 24.337 o
3 -6 5 1.561 1.967 1.032 625.519 o
3 -6 6 1.185 2.167 0.886 810.150 o
3 -6 7 0.649 -0.333 1.023 784.010 o
3 -6 8 1.407 2.078 0.956 708.115 o
3 -6 9 20.033 19.128 1.395 77.681 o
3 -5 0 10.609 8.814 2.442 95.228 o
3 -5 1 3.136 2.125 1.670 258.960 o
3 -5 2 58.319 61.304 3.133 11.984 o
3 -5 3 92.081 113.772 8.767 3.619 o
3 -5 4 231.094 278.762 48.418 0.267 o
3 -5 5 56.922 58.131 2.900 12.908 o
3 -5 6 9.733 15.775 1.526 135.434 o
3 -5 7 5.786 5.000 0.899 390.997 o
3 -5 8 3.138 2.868 1.045 496.329 o
3 -5 9 1.535 2.161 0.908 746.996 o
3 -5 10 2.663 0.000 1.993 203.581 o
3 -5 11 1.439 1.395 1.594 312.280 o
3 -4 0 6.097 7.970 2.006 149.355 o
3 -4 1 4.681 4.368 2.030 167.954 o
3 -4 2 10.238 6.893 1.294 193.394 o
3 -4 3 3.521 2.148 1.739 237.616 o
3 -4 4 51.931 54.425 2.556 15.196 o
3 -4 5 162.232 183.953 4.712 1.812 o
3 -4 6 17.066 21.409 1.213 88.560 o
3 -4 7 80.827 85.216 2.204 7.233 o
3 -4 8 0.784 1.254 1.181 560.280 o
3 -4 9 5.321 4.227 1.104 356.406 o
3 -4 10 28.734 27.689 1.694 43.840 o
3 -4 11 7.303 5.181 2.391 116.837 o
3 -3 0 116.978 119.011 16.338 1.774 o
3 -3 1 9.070 13.415 1.840 127.182 o
3 -3 2 12.411 27.247 6.575 17.341 o
3 -3 3 26.026 27.856 2.076 44.567 o
3 -3 4 67.627 66.091 15.442 2.770 o
3 -3 5 70.758 63.826 2.721 9.750 o
3 -3 6 6.656 9.299 1.034 269.415 o
3 -3 7 890.892 926.473 11.820 0.070 o
3 -3 8 841.923 854.561 11.494 0.079 o
3 -3 9 191.851 193.585 9.365 1.293 o
3 -3 10 2.516 2.016 1.143 487.917 o
3 -3 11 29.293 33.323 1.531 40.084 o
3 -2 0 85.395 65.891 1.799 7.915 o
3 -2 1 662.495 781.435 43.835 0.093 o
3 -2 2 267.034 276.360 12.354 0.676 o
3 -2 6 65.503 86.436 9.564 4.799 o
3 -2 7 636.533 638.155 27.497 0.126 o
3 -2 8 478.165 470.630 11.556 0.242 o
3 -2 9 82.622 82.057 3.327 6.862 o
3 -2 10 10.975 11.878 5.380 26.840 o
3 -2 11 4.147 3.686 1.127 396.634 o
3 -2 12 13.453 10.819 1.127 149.343 o
3 -2 13 0.988 2.590 1.395 391.837 o
3 -1 0 51.686 46.641 2.524 16.608 o
3 -1 1 1426.290 1670.100 62.764 0.023 o
3 -1 2 761.174 802.085 28.891 0.088 o
3 -1 3 1040.240 1218.620 29.290 0.046 o
3 -1 4 82.793 87.082 3.885 6.420 o
3 -1 5 142.408 187.526 5.380 2.042 o
3 -1 6 899.340 953.641 37.758 0.062 o
3 -1 7 33.830 29.852 1.451 36.929 o
3 -1 8 213.725 193.635 2.865 1.272 o
3 -1 9 297.791 292.994 4.199 0.631 o
3 -1 10 68.508 70.739 1.793 10.012 o
3 -1 11 74.503 69.413 2.153 9.020 o
3 -1 12 5.291 2.763 1.096 384.539 o
3 0 0 398.807 490.878 15.641 0.284 o
3 0 1 156.182 182.678 4.718 1.903 o
3 0 2 23.328 27.099 1.832 52.246 o
3 0 3 1680.730 1863.190 40.647 0.018 o
3 0 4 186.046 211.405 7.970 1.316 o
3 0 5 16.851 19.925 2.192 68.776 o
3 0 6 38.880 52.459 2.666 20.350 o
3 0 7 5.986 7.185 0.947 332.534 o
3 0 8 16.109 15.374 1.099 112.427 o
3 0 9 48.148 44.096 1.408 20.299 o
3 0 10 88.843 82.892 1.942 6.614 o
3 0 11 270.221 263.061 4.591 0.765 o
3 0 12 74.912 74.150 3.969 7.781 o
3 0 13 30.889 30.616 1.474 40.066 o
3 0 14 11.936 10.414 6.077 21.551 o
3 1 0 19.890 21.519 1.993 63.320 o
3 1 1 153.654 217.088 8.070 1.580 o
3 1 2 11.885 25.274 1.960 81.663 o
3 1 3 35.131 67.455 22.117 1.668 o
3 1 4 822.244 1007.210 26.700 0.070 o
3 1 5 419.744 477.058 15.940 0.272 o
3 1 6 117.368 117.271 4.576 3.527 o
3 1 7 576.371 606.355 11.955 0.162 o
3 1 8 20.091 23.029 1.115 75.278 o
3 1 9 25.915 23.090 1.227 57.300 o
3 1 10 12.528 13.283 1.294 137.277 o
3 1 11 86.353 80.759 3.067 6.660 o
3 1 12 103.203 113.790 2.546 4.459 o
3 1 13 102.012 105.900 3.310 4.623 o
3 1 14 8.508 6.177 1.395 208.600 o
3 2 0 2955.140 2904.670 58.779 0.007 o
3 2 1 175.774 134.904 3.907 1.996 o
3 2 2 475.199 538.747 29.589 0.188 o
3 2 3 15.245 22.515 3.387 45.601 o
3 2 4 111.433 149.438 7.173 2.878 o
3 2 5 1028.180 1162.740 92.751 0.034 o
3 2 6 1267.590 1334.380 27.098 0.034 o
3 2 7 2147.700 1968.440 109.189 0.011 o
3 2 8 277.977 267.463 5.338 0.725 o
3 2 9 7.081 8.496 2.331 115.400 o
3 2 10 3.133 5.265 1.323 331.739 o
3 2 11 2.417 3.600 1.362 356.139 o
3 2 12 14.915 18.254 2.690 63.101 o
3 2 13 6.237 6.376 1.993 155.101 o
3 3 0 871.904 726.886 11.550 0.084 o
3 3 1 461.456 385.229 7.519 0.293 o
3 3 2 186.027 208.615 9.166 1.288 o
3 3 3 654.644 716.704 20.324 0.119 o
3 3 4 11.678 11.474 1.579 133.561 o
3 3 5 191.775 196.638 4.161 1.429 o
3 3 6 24.478 19.880 1.685 59.220 o
3 3 7 478.631 479.090 26.799 0.207 o
3 3 8 505.180 485.153 9.066 0.224 o
3 3 9 250.450 227.204 8.269 0.880 o
3 3 10 16.529 15.628 1.894 84.285 o
3 3 11 8.765 13.142 3.985 45.754 o
3 3 12 18.189 21.190 1.472 79.044 o
3 3 13 62.788 62.936 2.073 11.726 o
3 3 14 60.686 52.602 1.993 13.533 o
3 4 0 536.735 488.796 11.052 0.204 o
3 4 1 468.645 419.422 13.748 0.262 o
3 4 2 268.207 223.629 24.906 0.539 o
3 4 3 1159.140 1106.070 32.976 0.042 o
3 4 4 180.024 202.530 10.238 1.316 o
3 4 5 29.486 38.544 1.930 34.584 o
3 4 6 44.169 42.263 11.656 5.121 o
3 4 7 93.881 102.986 3.587 5.122 o
3 4 8 305.348 305.473 17.377 0.499 o
3 4 9 261.418 260.983 4.373 0.803 o
3 4 10 372.007 416.734 7.604 0.369 o
3 4 11 251.966 277.380 5.927 0.797 o
3 4 12 11.723 9.748 1.616 137.053 o
3 4 13 12.121 8.568 0.996 185.558 o
3 4 14 2.321 1.993 0.598 1067.880 o
3 5 0 4.666 4.848 1.867 189.042 o
3 5 1 6.946 7.173 2.590 101.323 o
3 5 2 39.247 48.607 2.851 20.592 o
3 5 3 682.347 648.217 29.450 0.113 o
3 5 4 116.492 107.877 4.348 3.763 o
3 5 5 211.108 192.799 5.026 1.265 o
3 5 6 16.033 20.317 1.256 94.796 o
3 5 7 34.279 29.328 4.427 21.247 o
3 5 8 34.438 24.490 1.712 38.130 o
3 5 9 156.616 167.854 4.556 2.013 o
3 5 10 243.657 249.911 8.767 0.853 o
3 5 11 217.990 220.079 9.365 1.038 o
3 5 12 11.157 10.832 1.196 168.093 o
3 6 0 120.749 81.486 17.136 1.808 o
3 6 1 8.363 5.778 3.188 71.430 o
3 6 2 81.293 75.999 4.184 6.927 o
3 6 3 220.008 205.207 7.994 1.100 o
3 6 4 168.776 123.586 6.064 2.093 o
3 6 5 92.886 86.928 5.353 5.194 o
3 6 6 22.422 26.362 1.553 58.153 o
3 6 7 9.711 9.330 1.140 200.507 o
3 6 8 4.970 6.518 1.913 173.238 o
3 6 9 12.182 15.219 2.142 92.111 o
3 6 10 53.171 52.766 2.241 15.468 o
3 6 11 85.917 87.870 3.188 6.348 o
3 6 12 17.287 20.523 1.395 85.435 o
3 7 0 83.245 71.089 1.820 7.855 o
3 7 1 30.189 23.340 0.970 49.832 o
3 7 2 6.917 5.659 0.657 395.470 o
3 7 3 10.769 10.068 1.253 172.017 o
3 7 4 4.140 4.064 0.707 592.013 o
3 7 5 15.073 12.708 1.001 132.896 o
3 7 6 86.797 95.592 2.144 6.196 o
3 7 7 44.026 47.405 2.358 19.844 o
3 7 8 27.175 28.735 1.677 45.569 o
3 7 9 19.712 15.851 1.333 86.480 o
3 7 10 3.958 4.583 0.996 441.403 o
3 8 0 100.580 93.364 2.738 5.165 o
3 8 1 74.159 66.725 1.658 9.460 o
3 8 2 35.084 31.358 2.099 31.767 o
3 8 3 41.435 45.507 2.093 22.211 o
3 8 4 29.916 25.720 1.658 43.800 o
3 8 5 28.561 30.401 1.565 42.970 o
3 8 6 24.383 27.161 2.099 47.396 o
3 8 7 11.950 18.113 1.402 118.713 o
3 8 8 12.241 15.940 1.993 96.724 o
3 8 9 17.315 17.933 1.395 90.796 o
3 9 0 4.822 6.422 3.885 53.529 o
3 9 1 34.458 34.498 2.261 30.174 o
3 9 2 138.511 144.855 5.579 2.483 o
3 9 3 148.113 162.360 4.200 2.215 o
3 9 4 27.803 27.408 1.899 43.828 o
3 9 5 2.071 3.631 1.898 211.767 o
3 9 6 2.508 4.909 1.531 284.722 o
3 9 8 21.366 23.312 1.395 66.803 o
3 10 0 1.773 5.637 1.690 249.062 o
3 10 1 5.841 10.011 1.538 198.438 o
3 10 2 8.054 12.354 2.391 100.588 o
3 10 3 22.442 21.918 1.793 60.052 o
4 -6 0 41.348 37.793 2.889 22.102 o
4 -6 1 49.541 45.472 2.024 18.450 o
4 -6 2 12.502 14.120 1.460 125.459 o
4 -6 3 15.295 15.236 1.898 89.484 o
4 -6 4 0.731 2.391 1.245 489.300 o
4 -6 5 3.215 2.285 0.789 695.611 o
4 -5 0 47.350 48.624 7.073 9.479 o
4 -5 1 46.401 46.528 8.667 7.604 o
4 -5 2 5.482 6.887 2.202 136.885 o
4 -5 3 77.800 81.892 3.514 7.275 o
4 -5 4 16.134 16.832 2.391 69.526 o
4 -5 5 1.745 1.612 1.531 327.998 o
4 -5 6 2.128 2.848 1.030 562.781 o
4 -5 7 5.292 5.178 0.886 412.046 o
4 -5 8 1.144 1.338 0.810 987.265 o
4 -5 9 11.730 10.815 1.295 155.013 o
4 -4 0 32.998 29.432 3.387 27.183 o
4 -4 1 43.057 36.632 2.357 23.108 o
4 -4 2 13.456 9.486 1.815 114.758 o
4 -4 3 33.730 41.439 3.255 23.841 o
4 -4 4 8.657 11.995 2.680 85.074 o
4 -4 5 9.084 9.425 3.085 70.928 o
4 -4 6 10.070 10.499 1.398 164.725 o
4 -4 7 11.211 10.702 1.396 153.035 o
4 -4 8 26.977 27.253 2.153 42.926 o
4 -4 9 5.924 5.380 2.192 139.449 o
4 -4 10 102.484 89.862 3.387 5.038 o
4 -3 0 66.314 68.971 5.579 7.918 o
4 -3 1 3.213 3.842 4.384 44.117 o
4 -3 2 215.154 263.608 7.771 0.969 o
4 -3 3 13.083 14.060 4.085 40.482 o
4 -3 4 144.210 176.060 12.553 1.611 o
4 -3 5 101.693 124.969 4.449 4.001 o
4 -3 6 122.049 144.696 5.739 2.845 o
4 -3 7 25.182 32.962 2.463 38.880 o
4 -3 8 13.282 16.751 1.957 92.266 o
4 -3 9 31.811 29.688 2.989 30.299 o
4 -3 10 2.368 3.188 1.993 194.063 o
4 -3 11 41.184 49.016 2.590 20.264 o
4 -3 12 7.620 1.793 1.793 187.061 o
4 -2 0 262.691 255.544 4.313 0.809 o
4 -2 1 133.992 108.220 6.276 2.944 o
4 -2 2 74.790 79.536 3.969 7.501 o
4 -2 3 2.972 2.590 1.426 331.351 o
4 -2 4 16.212 18.369 1.942 79.282 o
4 -2 5 42.297 56.389 2.851 17.672 o
4 -2 6 125.815 149.435 6.997 2.571 o
4 -2 7 216.329 225.195 4.953 1.115 o
4 -2 9 5.531 5.181 2.192 142.009 o
4 -2 10 44.026 44.831 2.790 19.448 o
4 -2 11 0.967 1.395 1.594 320.021 o
4 -2 12 10.537 8.439 1.050 204.117 o
4 -1 0 856.988 901.983 25.504 0.072 o
4 -1 1 455.214 489.077 22.316 0.228 o
4 -1 2 367.126 460.239 7.273 0.350 o
4 -1 3 13.130 13.150 3.188 58.363 o
4 -1 4 11.257 12.521 1.604 131.279 o
4 -1 5 2.334 3.188 2.989 92.855 o
4 -1 6 18.670 17.916 5.380 23.619 o
4 -1 7 115.067 96.610 3.386 4.194 o
4 -1 8 23.862 29.015 1.839 49.435 o
4 -1 9 157.140 144.894 3.955 2.221 o
4 -1 10 22.592 22.783 2.291 51.719 o
4 -1 11 2.990 1.793 1.594 284.192 o
4 -1 12 5.512 6.371 1.196 296.784 o
4 -1 13 1.884 1.926 0.811 839.891 o
4 0 0 340.170 416.669 8.946 0.407 o
4 0 1 15.712 13.840 1.898 90.583 o
4 0 2 1109.030 1379.220 23.033 0.039 o
4 0 3 648.004 793.481 15.641 0.114 o
4 0 4 317.645 348.084 10.361 0.493 o
4 0 5 163.433 191.284 7.970 1.617 o
4 0 6 83.399 92.373 4.856 5.809 o
4 0 7 24.933 27.696 1.814 48.969 o
4 0 8 37.008 36.593 1.820 28.967 o
4 0 9 246.379 233.364 6.639 0.906 o
4 0 10 231.822 217.145 17.634 0.781 o
4 0 11 110.707 103.779 10.261 2.918 o
4 0 12 8.916 9.029 1.326 193.051 o
4 0 13 9.631 10.296 1.143 194.621 o
4 1 0 147.091 150.036 9.166 1.996 o
4 1 1 42.636 66.948 4.184 13.469 o
4 1 2 960.154 1435.570 214.194 0.014 o
4 1 3 1021.640 1472.630 250.159 0.011 o
4 1 4 446.240 629.600 138.479 0.038 o
4 1 5 174.350 220.856 7.073 1.402 o
4 1 6 24.587 25.076 1.953 50.415 o
4 1 7 6.576 6.819 1.205 266.526 o
4 1 8 2.958 3.792 0.844 609.164 o
4 1 9 351.782 335.100 7.416 0.457 o
4 1 10 262.355 246.668 9.863 0.772 o
4 1 11 173.519 182.631 10.261 1.450 o
4 1 12 26.762 29.485 3.387 31.518 o
4 1 13 10.815 11.955 1.395 151.080 o
4 1 14 10.508 8.767 0.996 207.304 o
4 2 0 1048.610 1093.260 19.258 0.050 o
4 2 1 107.779 114.133 3.232 4.147 o
4 2 2 17.282 25.066 3.043 46.967 o
4 2 3 88.563 119.026 4.510 4.760 o
4 2 4 111.766 101.699 10.361 2.898 o
4 2 5 565.716 632.347 11.477 0.161 o
4 2 6 774.768 813.336 29.390 0.085 o
4 2 7 446.367 418.048 36.762 0.204 o
4 2 8 13.959 10.738 1.322 134.518 o
4 2 9 18.332 15.611 1.590 86.213 o
4 2 10 2.411 4.711 1.406 327.017 o
4 2 11 102.319 99.625 3.786 4.692 o
4 2 12 81.539 89.954 2.824 6.753 o
4 2 13 43.310 50.568 1.493 20.993 o
4 2 14 3.325 4.782 0.996 466.188 o
4 3 0 196.924 152.306 25.404 0.748 o
4 3 1 508.299 406.073 10.759 0.245 o
4 3 4 16.919 14.610 4.981 27.889 o
4 3 5 19.901 17.082 1.511 79.437 o
4 3 6 294.112 243.072 24.408 0.488 o
4 3 7 110.587 93.894 2.922 4.545 o
4 3 8 9.805 10.398 1.301 176.755 o
4 3 9 96.254 84.881 3.985 5.456 o
4 3 10 2.677 0.791 1.942 210.179 o
4 3 11 23.919 30.332 1.602 50.446 o
4 3 12 43.412 45.928 2.246 20.729 o
4 3 13 158.758 177.697 15.541 1.292 o
4 3 14 112.690 112.214 18.132 1.633 o
4 4 0 693.300 626.842 14.944 0.123 o
4 4 1 1787.680 1624.890 41.843 0.019 o
4 4 2 2057.490 2001.360 70.933 0.013 o
4 4 3 7.684 11.608 1.316 193.421 o
4 4 4 5.534 9.218 0.945 316.055 o
4 4 5 170.175 172.908 3.244 1.824 o
4 4 6 6.287 7.764 1.181 267.340 o
4 4 7 200.607 165.688 5.046 1.472 o
4 4 8 95.119 83.187 5.377 5.164 o
4 4 9 231.146 236.550 24.819 0.597 o
4 4 10 13.716 15.088 1.812 99.685 o
4 4 11 12.225 14.675 2.138 93.159 o
4 4 12 34.423 40.224 2.010 28.902 o
4 4 13 42.319 43.227 5.778 12.886 o
4 4 14 22.155 18.546 4.583 28.117 o
4 5 0 71.076 70.136 7.970 5.809 o
4 5 1 719.078 658.125 14.346 0.114 o
4 5 2 2335.070 2074.130 79.601 0.011 o
4 5 3 324.536 255.931 5.752 0.603 o
4 5 4 134.536 126.670 5.930 2.741 o
4 5 5 11.749 14.263 1.060 152.977 o
4 5 6 6.932 6.321 0.834 341.752 o
4 5 7 15.103 9.432 1.186 137.696 o
4 5 8 7.542 6.458 1.323 231.395 o
4 5 9 26.006 24.226 4.682 24.355 o
4 5 10 22.804 21.805 1.806 59.164 o
4 5 11 25.455 26.899 3.587 31.890 o
4 5 12 24.399 29.834 5.479 19.568 o
4 5 13 18.361 22.316 1.395 77.958 o
4 6 0 407.877 370.241 4.817 0.359 o
4 6 1 131.185 94.489 2.054 3.684 o
4 6 2 406.326 350.449 3.954 0.374 o
4 6 3 49.976 41.568 1.695 19.625 o
4 6 4 228.894 193.158 5.896 1.123 o
4 6 5 254.381 212.149 8.670 0.890 o
4 6 6 18.791 14.979 1.034 99.786 o
4 6 7 6.331 4.341 1.191 302.488 o
4 6 8 26.518 21.909 2.491 43.883 o
4 6 9 5.246 7.070 1.621 210.592 o
4 6 10 40.911 35.894 7.472 10.246 o
4 6 11 43.348 44.433 2.989 19.333 o
4 6 12 43.308 49.215 2.192 20.099 o
4 7 0 78.500 58.831 1.530 9.438 o
4 7 1 12.175 7.880 0.865 199.938 o
4 7 2 6.208 7.408 0.866 340.600 o
4 7 3 7.060 5.367 0.678 390.829 o
4 7 4 37.022 35.235 1.141 31.649 o
4 7 5 250.109 213.916 11.033 0.864 o
4 7 6 199.810 204.392 4.860 1.312 o
4 7 7 140.251 128.971 3.406 2.776 o
4 7 8 39.056 35.146 2.172 26.722 o
4 7 9 8.933 8.647 1.474 178.845 o
4 7 10 2.909 1.674 1.594 286.403 o
4 8 0 321.240 294.433 8.556 0.550 o
4 8 1 236.485 205.478 3.757 1.065 o
4 8 2 37.517 40.994 1.245 28.384 o
4 8 3 21.419 17.340 1.156 80.164 o
4 8 4 4.688 5.231 0.877 441.839 o
4 8 5 154.966 122.007 33.374 0.607 o
4 8 6 199.528 190.491 4.079 1.388 o
4 8 7 85.269 92.452 3.985 5.970 o
4 8 8 20.189 22.515 2.192 58.065 o
4 8 9 1.996 0.399 1.196 512.159 o
4 8 10 1.259 0.199 0.598 1660.180 o
4 9 0 178.189 172.012 14.408 1.246 o
4 9 1 180.622 163.845 4.069 1.726 o
4 9 2 112.720 98.596 3.985 4.169 o
4 9 3 24.032 24.224 1.652 55.789 o
4 9 4 1.647 3.634 1.563 300.572 o
4 9 5 1.518 1.395 3.985 54.553 o
4 9 7 16.804 17.335 2.192 72.337 o
4 9 8 29.573 31.083 1.793 39.619 o
4 10 0 24.026 25.703 1.897 51.504 o
4 10 1 54.174 70.136 2.617 12.425 o
4 10 2 41.495 58.849 2.346 18.474 o
4 10 3 11.686 16.538 2.192 89.524 o
4 10 6 2.570 1.793 1.395 361.831 o
5 -5 0 2.893 2.314 0.845 675.528 o
5 -5 1 7.479 6.712 1.474 207.473 o
5 -5 2 78.040 83.486 3.985 6.969 o
5 -5 3 29.740 27.756 2.989 32.782 o
5 -5 4 0.670 0.847 1.101 653.515 o
5 -5 5 4.643 4.583 0.788 498.724 o
5 -5 6 8.823 7.140 1.096 237.885 o
5 -5 8 1.560 1.395 0.797 940.532 o
5 -4 0 2.716 2.819 1.569 287.616 o
5 -4 1 6.045 5.579 1.989 159.448 o
5 -4 2 138.440 144.011 6.874 2.384 o
5 -4 3 45.878 52.931 3.057 16.604 o
5 -4 4 2.309 2.068 2.192 167.235 o
5 -4 5 2.675 2.452 1.120 484.337 o
5 -4 6 12.944 13.086 1.322 133.254 o
5 -4 7 0.709 1.091 1.205 547.654 o
5 -4 9 5.922 6.376 1.594 210.934 o
5 -4 10 17.178 14.346 1.196 106.111 o
5 -3 0 21.076 23.910 4.981 24.457 o
5 -3 1 19.664 15.512 4.782 28.296 o
5 -3 2 30.742 28.891 3.387 28.853 o
5 -3 3 57.612 71.584 3.588 10.676 o
5 -3 4 28.761 34.615 2.949 31.017 o
5 -3 5 178.900 190.093 5.552 1.553 o
5 -3 6 27.507 34.423 2.050 38.411 o
5 -3 7 1.095 1.642 1.303 452.125 o
5 -3 8 0.894 0.199 2.590 129.127 o
5 -3 10 1.116 0.399 1.594 325.755 o
5 -3 11 4.014 2.192 1.196 398.724 o
5 -2 0 183.632 181.074 16.139 1.105 o
5 -2 1 26.564 28.173 3.288 32.977 o
5 -2 2 46.897 51.654 8.767 7.288 o
5 -2 3 48.548 59.828 8.667 7.012 o
5 -2 4 13.616 20.211 3.786 42.143 o
5 -2 5 130.529 155.350 17.534 1.415 o
5 -2 6 114.853 121.865 8.966 2.855 o
5 -2 7 25.019 29.123 2.322 42.762 o
5 -2 8 29.019 27.098 2.989 33.700 o
5 -2 9 33.344 31.083 2.790 29.741 o
5 -2 11 6.599 5.778 1.594 206.372 o
5 -2 12 2.265 3.188 1.196 443.689 o
5 -1 0 449.241 439.746 15.143 0.266 o
5 -1 1 346.645 366.223 13.549 0.414 o
5 -1 2 155.832 170.372 4.240 2.018 o
5 -1 3 38.925 29.936 4.284 19.921 o
5 -1 4 63.981 64.708 2.970 10.671 o
5 -1 5 12.636 16.384 1.942 96.268 o
5 -1 6 231.212 268.829 16.239 0.732 o
5 -1 7 90.850 106.685 4.061 5.087 o
5 -1 8 271.923 262.379 5.049 0.757 o
5 -1 9 20.367 20.124 2.391 56.690 o
5 -1 10 12.734 9.763 1.993 108.222 o
5 -1 12 2.208 1.395 1.395 375.834 o
5 -1 13 51.402 48.418 1.993 17.163 o
5 0 0 239.292 239.555 8.091 0.905 o
5 0 1 707.872 788.134 42.739 0.087 o
5 0 2 667.845 732.067 10.958 0.119 o
5 0 3 207.777 221.970 6.675 1.152 o
5 0 4 196.246 292.128 6.455 1.014 o
5 0 5 5.331 5.340 1.409 261.944 o
5 0 6 46.173 52.802 2.445 17.638 o
5 0 7 6.917 8.973 1.993 142.277 o
5 0 8 140.373 150.128 6.553 2.318 o
5 0 9 170.699 171.189 3.577 1.820 o
5 0 10 24.857 27.730 1.398 53.008 o
5 0 11 46.557 42.042 2.989 18.505 o
5 0 12 12.412 10.361 1.993 108.328 o
5 0 13 11.542 9.465 0.986 188.088 o
5 0 14 2.342 2.790 0.797 751.588 o
5 1 0 7.181 6.775 4.782 35.474 o
5 1 1 91.450 94.889 2.922 5.701 o
5 1 2 1208.120 1339.790 32.478 0.035 o
5 1 3 864.662 1002.020 62.365 0.053 o
5 1 4 661.505 1033.160 150.434 0.027 o
5 1 5 6.646 9.564 2.653 95.145 o
5 1 6 51.343 50.210 3.980 13.736 o
5 1 7 84.153 85.399 2.551 6.798 o
5 1 8 43.971 42.618 1.835 22.174 o
5 1 9 244.387 230.869 4.040 0.949 o
5 1 10 145.553 138.552 2.387 2.583 o
5 1 11 82.289 85.929 3.088 6.791 o
5 1 12 15.565 12.951 2.192 82.513 o
5 1 13 0.882 2.989 1.594 308.380 o
5 1 14 0.933 0.996 0.797 1076.930 o
5 2 0 6.705 4.791 1.317 261.405 o
5 2 1 154.294 143.286 3.588 2.304 o
5 2 2 44.098 31.701 1.692 25.829 o
5 2 3 14.579 16.006 1.438 107.806 o
5 2 4 1279.820 1882.520 30.296 0.026 o
5 2 5 505.976 647.659 16.239 0.177 o
5 2 6 130.305 140.827 4.400 2.809 o
5 2 7 11.572 8.944 1.101 181.847 o
5 2 8 25.826 33.700 1.409 45.692 o
5 2 9 3.689 3.799 0.939 502.355 o
5 2 10 7.770 10.838 1.230 207.511 o
5 2 11 49.190 55.927 2.202 16.322 o
5 2 12 99.848 117.667 3.830 4.350 o
5 2 13 29.185 26.700 2.192 40.049 o
5 2 14 13.030 13.947 1.196 135.719 o
5 3 0 97.694 75.680 4.172 5.619 o
5 3 1 454.625 521.427 13.241 0.238 o
5 3 2 31.057 40.565 4.058 21.894 o
5 3 3 10.682 20.208 3.288 54.512 o
5 3 4 906.586 1165.450 19.646 0.057 o
5 3 5 636.402 723.452 26.998 0.117 o
5 3 6 291.096 271.972 51.706 0.223 o
5 3 7 44.565 29.688 3.587 20.208 o
5 3 8 4.189 2.944 0.944 495.640 o
5 3 9 38.579 36.261 1.611 28.491 o
5 3 10 8.730 12.694 2.690 83.575 o
5 3 11 9.930 9.923 2.291 103.641 o
5 3 12 53.340 58.307 2.138 14.671 o
5 3 13 40.150 48.447 2.491 21.145 o
5 4 0 674.362 648.910 14.553 0.125 o
5 4 1 186.886 156.084 6.699 1.609 o
5 4 2 71.475 74.421 5.081 7.467 o
5 4 3 10.119 7.831 3.288 63.928 o
5 4 4 375.110 343.164 10.560 0.404 o
5 4 5 216.945 198.646 3.865 1.217 o
5 4 6 337.861 277.521 5.177 0.548 o
5 4 7 162.686 135.464 5.123 2.149 o
5 4 8 244.049 203.977 5.694 1.004 o
5 4 9 48.195 42.640 5.380 12.659 o
5 4 10 23.945 21.401 5.679 19.856 o
5 4 11 29.327 39.850 2.391 31.638 o
5 4 12 18.046 19.858 3.288 45.484 o
5 4 13 2.828 1.810 0.811 738.160 o
5 4 14 32.123 26.700 1.196 42.532 o
5 5 0 356.255 353.305 23.113 0.352 o
5 5 1 596.687 513.441 25.903 0.156 o
5 5 2 942.224 804.240 61.270 0.055 o
5 5 3 819.844 720.658 9.491 0.092 o
5 5 4 416.048 383.643 7.839 0.337 o
5 5 5 54.204 44.384 1.366 17.576 o
5 5 6 4.851 3.585 0.900 465.025 o
5 5 7 34.168 32.020 2.186 31.877 o
5 5 8 272.108 220.484 8.333 0.804 o
5 5 9 133.762 108.193 3.587 3.238 o
5 5 10 6.966 3.188 4.184 46.398 o
5 5 11 3.053 3.413 1.508 294.701 o
5 5 12 9.980 11.523 2.092 111.455 o
5 5 13 2.804 3.587 0.797 666.113 o
5 6 0 29.402 31.271 2.113 37.604 o
5 6 1 342.747 288.917 11.935 0.491 o
5 6 2 399.556 329.913 8.745 0.386 o
5 6 3 228.454 187.504 5.649 1.149 o
5 6 4 356.360 309.805 4.867 0.479 o
5 6 5 6.400 8.957 0.948 295.220 o
5 6 6 3.413 1.795 1.644 264.133 o
5 6 7 11.152 11.391 4.882 31.808 o
5 6 8 54.710 38.266 9.066 6.913 o
5 6 9 226.931 206.026 22.515 0.690 o
5 6 10 144.326 130.395 33.873 0.601 o
5 6 11 83.467 88.659 9.066 4.259 o
5 6 12 2.156 4.981 0.996 521.885 o
5 7 0 235.632 207.153 8.481 0.996 o
5 7 1 242.636 252.810 5.390 0.893 o
5 7 2 4.662 6.191 0.870 423.213 o
5 7 3 321.966 266.479 5.069 0.599 o
5 7 4 786.501 728.040 16.338 0.095 o
5 7 5 86.869 75.811 2.313 7.066 o
5 7 6 19.797 16.637 1.761 75.005 o
5 7 7 11.605 5.978 1.458 166.607 o
5 7 8 32.253 22.121 2.488 36.826 o
5 7 9 72.943 51.444 4.981 8.650 o
5 7 10 28.657 18.137 5.081 22.130 o
5 7 11 20.744 23.312 1.395 68.608 o
5 8 0 22.794 25.878 1.130 62.504 o
5 8 1 4.431 4.832 0.954 432.296 o
5 8 2 38.028 33.831 1.778 29.414 o
5 8 3 46.865 33.341 1.752 23.357 o
5 8 4 241.995 202.722 6.327 1.010 o
5 8 5 106.135 75.877 4.682 4.939 o
5 8 6 134.680 120.679 3.398 3.038 o
5 8 7 39.780 34.690 2.202 26.269 o
5 8 8 2.130 -0.370 1.435 376.780 o
5 8 9 2.702 0.996 1.196 469.605 o
5 8 10 1.393 1.594 0.564 1445.300 o
5 9 0 99.219 80.853 4.753 5.180 o
5 9 1 18.207 23.432 2.322 58.936 o
5 9 2 10.680 14.428 1.390 141.989 o
5 9 3 5.519 8.759 2.790 91.746 o
5 9 4 28.162 25.703 2.989 35.120 o
5 9 5 7.456 0.996 2.590 109.191 o
5 9 7 45.036 59.177 2.790 16.308 o
5 9 8 18.923 19.527 1.594 76.801 o
5 10 0 9.510 25.504 3.985 40.364 o
5 10 1 56.644 54.196 4.384 11.560 o
5 10 5 3.779 6.775 2.192 147.022 o
5 10 6 5.413 5.978 1.793 188.125 o
6 -4 0 17.883 17.136 1.191 95.156 o
6 -4 1 53.813 52.004 2.790 14.678 o
6 -4 2 26.885 26.301 2.391 41.505 o
6 -4 3 5.261 6.177 1.793 188.619 o
6 -4 4 9.045 6.974 1.395 196.377 o
6 -4 5 2.022 2.484 1.050 564.953 o
6 -4 6 0.512 0.814 0.811 1142.730 o
6 -4 7 0.965 1.395 1.196 536.205 o
6 -4 8 19.316 14.147 1.196 95.353 o
6 -3 0 1.875 2.192 2.391 143.964 o
6 -3 1 21.556 17.933 3.587 38.770 o
6 -3 2 35.555 34.500 2.391 28.694 o
6 -3 3 29.811 29.888 2.790 33.202 o
6 -3 4 143.155 138.629 4.159 2.549 o
6 -3 5 27.743 24.606 2.099 44.213 o
6 -3 6 4.433 4.588 1.082 387.583 o
6 -3 7 1.738 2.170 1.245 455.107 o
6 -3 8 0.685 1.793 1.793 257.976 o
6 -3 9 7.114 5.778 1.395 231.664 o
6 -3 10 13.940 10.560 0.996 153.058 o
6 -2 0 2.403 3.563 1.007 541.118 o
6 -2 1 2.836 4.682 1.793 219.942 o
6 -2 2 5.353 7.841 1.977 157.814 o
6 -2 3 5.049 8.511 2.230 132.446 o
6 -2 4 264.083 304.254 7.771 0.692 o
6 -2 5 84.237 98.014 3.734 5.915 o
6 -2 6 31.287 30.981 2.524 33.106 o
6 -2 7 1.203 1.707 1.616 306.038 o
6 -2 8 1.904 0.598 2.192 173.081 o
6 -2 9 0.500 -0.598 1.793 269.309 o
6 -2 10 17.095 9.963 1.793 96.742 o
6 -2 11 22.173 16.737 1.395 74.439 o
6 -1 0 4.170 5.214 1.245 331.117 o
6 -1 1 60.572 63.082 4.583 9.913 o
6 -1 2 3.075 4.184 1.793 220.038 o
6 -1 3 22.010 22.515 2.590 48.721 o
6 -1 4 102.088 151.231 5.579 3.335 o
6 -1 5 151.883 186.698 6.376 1.861 o
6 -1 6 136.862 161.393 5.778 2.337 o
6 -1 7 204.115 219.522 5.304 1.212 o
6 -1 8 42.173 49.095 2.058 20.955 o
6 -1 9 10.405 10.162 2.391 96.200 o
6 -1 10 0.667 0.598 1.793 264.458 o
6 -1 11 0.910 1.700 1.050 662.437 o
6 -1 12 24.819 18.331 1.395 64.141 o
6 0 0 244.034 262.164 7.174 0.847 o
6 0 1 120.437 127.083 4.424 3.280 o
6 0 2 85.897 86.419 3.255 6.392 o
6 0 3 14.104 10.989 1.684 113.853 o
6 0 4 2.403 7.575 2.490 122.658 o
6 0 5 68.763 79.558 3.109 8.668 o
6 0 6 139.263 147.216 6.904 2.336 o
6 0 7 164.996 192.177 4.368 1.735 o
6 0 8 113.421 118.121 4.583 3.653 o
6 0 9 12.608 12.245 1.474 130.477 o
6 0 10 5.426 4.350 1.793 195.699 o
6 0 11 7.468 7.372 1.594 187.533 o
6 0 12 8.713 8.767 1.395 189.438 o
6 1 0 482.426 470.847 8.072 0.244 o
6 1 1 157.921 152.542 5.749 2.054 o
6 1 2 168.523 192.476 5.778 1.646 o
6 1 3 90.784 88.158 3.255 5.924 o
6 1 4 6.054 7.892 2.813 90.273 o
6 1 5 23.832 28.522 2.350 44.536 o
6 1 6 28.837 30.432 1.362 43.792 o
6 1 7 62.712 60.861 3.617 10.695 o
6 1 8 270.266 256.213 18.431 0.607 o
6 1 9 22.913 24.274 1.694 57.666 o
6 1 10 95.148 96.518 2.790 5.409 o
6 1 11 6.282 6.775 1.793 176.644 o
6 1 12 18.467 14.346 1.594 88.118 o
6 1 13 19.314 20.722 1.395 77.405 o
6 2 0 52.669 59.127 2.212 14.670 o
6 2 1 65.249 70.695 3.184 9.787 o
6 2 2 120.684 114.840 8.182 2.927 o
6 2 3 133.270 150.799 13.632 1.753 o
6 2 4 14.037 17.630 2.447 72.201 o
6 2 5 15.732 23.791 2.258 65.264 o
6 2 6 42.120 43.722 2.123 22.255 o
6 2 7 4.150 3.827 1.013 442.146 o
6 2 8 84.096 75.909 5.522 6.078 o
6 2 9 4.525 5.684 1.139 347.543 o
6 2 10 112.149 103.282 3.061 4.217 o
6 2 11 22.742 27.281 3.985 30.312 o
6 2 12 2.278 3.985 1.050 509.236 o
6 2 13 2.598 1.793 0.996 591.928 o
6 3 0 112.426 121.321 6.035 3.414 o
6 3 1 4.300 5.805 2.058 162.220 o
6 3 2 7.224 8.625 2.015 139.413 o
6 3 3 151.541 179.411 7.231 1.868 o
6 3 4 263.806 319.016 9.152 0.659 o
6 3 5 310.474 347.044 71.033 0.132 o
6 3 6 338.191 352.598 27.803 0.338 o
6 3 7 107.233 86.744 11.457 2.925 o
6 3 8 28.786 23.569 1.913 45.120 o
6 3 9 12.770 15.863 1.860 100.196 o
6 3 10 59.230 54.428 3.013 12.675 o
6 3 11 67.294 63.316 3.088 10.125 o
6 3 12 56.798 72.791 10.361 4.990 o
6 3 13 3.461 4.981 0.996 454.998 o
6 4 0 452.506 514.700 7.898 0.250 o
6 4 1 113.370 120.389 4.929 3.565 o
6 4 2 8.611 8.308 2.747 86.841 o
6 4 3 3.996 1.828 2.062 176.490 o
6 4 4 80.470 66.942 7.188 5.786 o
6 4 5 652.799 593.066 15.242 0.138 o
6 4 6 1056.960 945.195 24.556 0.053 o
6 4 7 386.491 305.595 9.829 0.417 o
6 4 8 16.889 14.828 1.757 88.656 o
6 4 9 59.391 57.150 6.476 8.450 o
6 4 10 4.475 4.041 2.391 130.277 o
6 4 11 9.233 9.287 1.228 198.072 o
6 4 12 24.570 21.494 1.050 64.438 o
6 4 13 15.779 15.143 1.196 112.040 o
6 5 0 751.265 852.021 15.262 0.091 o
6 5 1 307.762 308.096 8.206 0.567 o
6 5 2 187.209 199.160 9.602 1.299 o
6 5 3 53.690 48.720 2.197 16.020 o
6 5 4 5.557 7.591 1.919 163.936 o
6 5 5 31.699 23.831 2.109 39.341 o
6 5 6 125.814 103.651 3.235 3.620 o
6 5 7 197.087 175.669 8.376 1.358 o
6 5 8 137.715 107.011 3.288 3.158 o
6 5 9 4.351 -0.399 3.387 72.821 o
6 5 10 8.787 8.188 4.284 42.021 o
6 5 11 1.364 1.129 2.491 136.654 o
6 5 12 33.772 28.544 2.291 33.310 o
6 5 13 38.755 24.906 1.196 35.073 o
6 6 0 217.214 235.037 11.258 0.959 o
6 6 1 292.199 273.238 13.841 0.597 o
6 6 2 156.485 149.237 4.782 2.155 o
6 6 3 18.927 15.603 1.263 92.088 o
6 6 4 212.564 176.866 8.444 1.232 o
6 6 5 9.318 6.182 1.000 251.216 o
6 6 6 98.747 76.311 3.347 5.748 o
6 6 7 161.710 137.425 6.843 2.046 o
6 6 8 111.863 92.472 3.686 4.402 o
6 6 9 47.292 35.654 1.942 22.041 o
6 6 10 122.207 111.029 7.671 3.018 o
6 6 11 46.123 53.798 1.993 18.188 o
6 7 0 10.089 13.157 1.958 114.838 o
6 7 1 90.927 101.149 4.871 5.037 o
6 7 2 30.413 28.591 1.812 40.026 o
6 7 3 93.697 65.159 4.744 6.096 o
6 7 4 117.746 98.915 3.575 3.999 o
6 7 5 173.694 139.844 4.947 1.950 o
6 7 6 50.580 39.728 2.157 19.015 o
6 7 7 10.231 6.973 1.219 201.290 o
6 7 8 32.647 25.124 2.291 36.201 o
6 7 9 42.801 29.938 1.658 27.517 o
6 7 10 51.080 30.286 1.395 22.442 o
6 8 0 4.142 5.565 1.953 177.828 o
6 8 1 5.732 6.581 1.504 227.180 o
6 8 2 10.927 9.848 1.553 147.353 o
6 8 3 71.420 80.836 6.376 6.391 o
6 8 4 51.547 46.431 2.159 17.253 o
6 8 5 121.538 104.054 3.857 3.706 o
6 8 6 137.275 122.912 13.150 1.909 o
6 8 7 5.772 6.324 3.686 58.105 o
6 8 8 3.005 1.793 1.594 283.961 o
6 8 9 4.367 5.181 2.192 148.128 o
6 9 0 144.313 150.699 26.301 0.847 o
6 9 1 30.542 27.035 5.978 16.333 o
6 9 2 17.869 19.413 2.603 58.162 o
6 9 3 3.967 9.234 3.188 75.551 o
6 9 4 13.934 16.897 5.280 26.022 o
6 9 5 56.963 66.749 3.587 11.242 o
6 9 7 17.207 22.715 2.192 64.454 o
6 9 8 6.647 7.970 1.395 222.203 o
6 10 5 2.186 7.572 1.993 179.335 o
6 10 6 33.154 39.452 2.192 29.511 o
7 -3 1 4.392 3.295 0.908 493.442 o
7 -3 2 8.275 7.365 1.050 253.062 o
7 -3 3 23.490 20.915 1.333 65.038 o
7 -3 5 2.801 4.373 0.908 556.739 o
7 -3 6 0.676 0.399 0.797 1185.210 o
7 -2 0 4.380 5.978 1.993 169.301 o
7 -2 1 4.283 6.321 1.255 311.408 o
7 -2 2 10.087 10.893 1.767 133.789 o
7 -2 4 2.884 3.317 1.104 464.803 o
7 -2 5 1.738 2.448 1.047 585.454 o
7 -2 6 7.320 7.208 1.007 283.151 o
7 -2 7 1.034 1.141 0.747 1151.930 o
7 -2 8 5.099 3.985 1.395 282.119 o
7 -2 9 9.000 8.767 1.196 208.745 o
7 -1 0 16.109 18.473 1.288 98.091 o
7 -1 1 49.779 51.716 1.894 17.282 o
7 -1 2 92.236 95.242 4.583 5.216 o
7 -1 4 48.135 64.159 3.387 13.726 o
7 -1 5 30.302 21.487 1.867 44.789 o
7 -1 6 53.615 58.276 2.099 14.632 o
7 -1 7 6.830 4.991 0.989 330.144 o
7 -1 8 4.103 2.790 1.793 216.632 o
7 -1 9 3.561 1.395 1.594 278.392 o
7 -1 10 1.869 1.793 1.196 487.572 o
7 -1 11 4.014 3.387 0.797 575.281 o
7 0 0 25.543 21.754 1.697 54.693 o
7 0 1 142.740 148.478 3.561 2.485 o
7 0 2 9.831 10.759 2.192 108.006 o
7 0 3 14.561 20.124 3.587 44.409 o
7 0 4 4.773 8.767 3.188 74.678 o
7 0 5 3.527 9.572 1.516 235.144 o
7 0 6 118.449 113.290 3.542 3.684 o
7 0 7 19.051 18.885 1.416 81.283 o
7 0 8 1.938 2.524 1.245 441.407 o
7 0 9 0.939 1.222 1.050 677.506 o
7 0 10 1.568 1.594 1.395 389.685 o
7 0 11 1.170 0.598 1.196 545.190 o
7 0 12 2.327 1.993 0.797 798.452 o
7 1 0 205.095 205.336 10.062 1.139 o
7 1 1 305.772 305.407 6.496 0.584 o
7 1 2 41.423 35.577 3.786 19.629 o
7 1 3 19.508 24.562 2.291 55.744 o
7 1 4 3.466 6.279 2.322 136.411 o
7 1 5 56.053 70.274 4.284 10.367 o
7 1 6 3.374 4.412 1.318 338.057 o
7 1 7 17.201 15.901 1.371 96.674 o
7 1 8 51.536 46.374 1.972 17.532 o
7 1 9 119.507 110.805 5.280 3.469 o
7 1 10 9.312 10.695 1.494 162.707 o
7 1 11 5.344 4.782 1.395 269.977 o
7 1 12 4.658 3.985 0.996 423.882 o
7 2 0 67.929 82.546 2.972 8.650 o
7 2 1 85.483 97.209 3.710 5.859 o
7 2 2 285.505 322.759 22.615 0.463 o
7 2 3 276.668 304.694 9.484 0.640 o
7 2 4 26.100 31.678 3.031 33.932 o
7 2 5 17.799 21.707 2.745 53.597 o
7 2 6 10.681 13.148 2.180 100.159 o
7 2 7 9.186 9.738 1.403 177.565 o
7 2 8 47.039 49.506 3.786 15.337 o
7 2 9 223.764 216.543 18.530 0.785 o
7 2 10 173.672 159.918 13.848 1.348 o
7 2 11 6.097 7.372 1.395 235.077 o
7 2 12 1.583 1.793 0.996 663.924 o
7 2 13 2.510 2.590 0.598 972.050 o
7 3 0 220.183 216.505 12.254 0.965 o
7 3 1 19.272 16.904 1.952 71.849 o
7 3 2 101.635 124.119 3.672 4.140 o
7 3 3 465.398 576.378 28.094 0.188 o
7 3 4 322.825 400.635 45.230 0.224 o
7 3 5 114.507 139.078 13.947 1.987 o
7 3 6 4.261 3.786 2.113 161.810 o
7 3 7 4.529 5.978 2.192 145.172 o
7 3 8 62.468 53.987 2.989 12.023 o
7 3 9 225.071 208.036 19.327 0.773 o
7 3 10 158.541 152.154 19.726 1.121 o
7 3 11 15.864 17.136 1.594 93.245 o
7 3 12 13.027 15.342 1.395 121.037 o
7 3 13 1.204 1.594 0.598 1417.520 o
7 4 0 126.479 160.662 9.551 2.187 o
7 4 1 62.719 70.959 6.252 7.632 o
7 4 2 4.615 9.299 2.692 98.880 o
7 4 3 198.663 255.705 9.667 1.039 o
7 4 4 212.380 245.724 19.427 0.752 o
7 4 5 467.421 503.470 12.354 0.237 o
7 4 6 186.284 147.763 7.073 1.646 o
7 4 7 33.037 33.687 2.010 33.038 o
7 4 8 6.718 4.824 1.333 257.694 o
7 4 9 2.387 3.781 1.177 437.520 o
7 4 10 16.934 18.331 1.594 86.268 o
7 4 11 8.327 8.966 1.196 217.456 o
7 4 12 48.105 48.019 1.793 18.867 o
7 5 0 67.748 80.913 3.907 8.257 o
7 5 1 39.364 28.815 3.133 24.747 o
7 5 2 8.636 9.329 5.081 30.869 o
7 5 3 6.966 7.153 1.376 226.484 o
7 5 4 5.631 6.686 1.378 251.454 o
7 5 5 46.914 47.001 4.483 14.274 o
7 5 6 10.682 8.921 1.200 184.389 o
7 5 7 12.382 8.906 1.893 117.767 o
7 5 8 27.714 36.958 2.590 33.228 o
7 5 9 48.773 28.493 2.590 21.566 o
7 5 10 9.246 11.740 1.494 158.446 o
7 5 11 3.915 5.327 0.723 552.761 o
7 5 12 23.793 17.741 0.811 75.290 o
7 6 0 140.046 152.683 48.318 0.330 o
7 6 1 245.192 249.353 6.177 0.881 o
7 6 2 88.097 73.421 9.265 4.295 o
7 6 3 33.971 30.322 2.563 30.801 o
7 6 4 276.108 223.959 8.313 0.782 o
7 6 5 121.744 89.478 5.199 3.784 o
7 6 6 6.963 5.195 1.101 297.625 o
7 6 7 201.336 189.629 4.433 1.369 o
7 6 8 267.441 251.822 7.572 0.771 o
7 6 9 111.671 68.941 3.587 5.075 o
7 6 10 19.234 21.512 6.077 18.958 o
7 6 11 2.525 2.790 1.196 441.387 o
7 7 0 51.036 50.491 3.075 15.303 o
7 7 1 227.587 260.715 5.601 0.943 o
7 7 2 203.656 209.612 6.974 1.217 o
7 7 3 64.534 69.960 21.619 1.617 o
7 7 4 9.825 16.466 1.957 107.954 o
7 7 5 4.876 5.210 1.885 183.012 o
7 7 6 25.651 19.340 1.289 61.899 o
7 7 7 13.171 11.338 2.719 73.389 o
7 7 8 78.169 64.141 10.162 4.455 o
7 7 9 157.924 126.442 39.053 0.469 o
7 7 10 50.994 54.794 2.790 15.101 o
7 8 0 7.094 5.659 1.989 152.110 o
7 8 1 59.840 71.222 7.173 7.112 o
7 8 2 303.563 330.221 8.369 0.551 o
7 8 3 292.654 288.354 30.983 0.385 o
7 8 4 99.455 94.846 24.408 1.164 o
7 8 5 34.940 30.613 4.523 20.324 o
7 8 6 16.635 6.241 1.957 100.183 o
7 8 7 2.819 5.778 1.793 214.482 o
7 8 8 4.976 5.718 2.092 154.205 o
7 8 9 19.819 16.936 1.793 73.757 o
7 9 0 5.032 3.288 5.679 26.469 o
7 9 1 3.448 2.817 2.530 123.677 o
7 9 2 24.152 24.179 4.981 23.247 o
7 9 3 56.916 37.459 4.782 12.543 o
7 9 4 90.045 72.645 10.560 3.772 o
7 9 5 95.983 69.937 4.384 5.878 o
7 9 6 9.579 10.560 1.993 122.159 o
8 -2 3 1.910 1.660 0.622 1154.770 o
8 -2 4 16.108 11.756 1.196 120.921 o
8 -2 5 2.632 3.786 0.797 672.734 o
8 -1 0 1.235 0.996 1.196 532.987 o
8 -1 1 5.266 5.380 1.793 192.318 o
8 -1 2 17.053 15.441 1.200 103.605 o
8 -1 3 38.205 33.076 2.790 25.615 o
8 -1 4 46.507 41.375 1.993 20.846 o
8 -1 5 81.508 68.766 1.901 8.192 o
8 -1 6 1.751 1.196 1.395 390.113 o
8 0 0 22.860 19.716 1.304 68.978 o
8 0 1 67.399 61.007 3.387 10.076 o
8 0 2 79.557 65.630 3.587 7.939 o
8 0 3 58.816 48.418 3.985 12.237 o
8 0 4 18.807 17.534 2.590 58.420 o
8 0 5 118.836 98.324 3.149 4.017 o
8 0 6 38.764 26.718 1.435 33.257 o
8 0 7 3.732 3.859 0.789 583.712 o
8 0 8 13.981 10.162 1.196 143.664 o
8 0 9 18.853 11.955 1.196 103.428 o
8 1 0 250.526 233.492 8.269 0.866 o
8 1 1 182.267 163.254 4.774 1.689 o
8 1 2 6.912 6.669 2.241 127.005 o
8 1 3 21.671 21.878 2.489 51.214 o
8 1 4 28.548 22.316 3.188 34.617 o
8 1 5 96.317 101.294 3.574 5.028 o
8 1 6 93.932 83.866 4.682 5.440 o
8 1 7 37.690 35.301 1.673 29.433 o
8 1 8 18.458 13.748 1.594 89.386 o
8 1 9 2.087 1.196 0.845 814.957 o
8 1 10 7.293 5.579 0.996 306.761 o
8 2 0 96.274 109.695 6.476 4.134 o
8 2 1 210.339 216.984 5.380 1.176 o
8 2 2 7.540 5.052 2.346 119.531 o
8 2 3 7.684 5.569 2.666 97.084 o
8 2 4 60.782 74.227 3.773 9.769 o
8 2 5 4.865 5.701 2.180 145.306 o
8 2 6 48.134 47.911 2.666 17.428 o
8 2 7 74.803 72.639 3.073 8.348 o
8 2 8 101.094 87.471 3.188 5.239 o
8 2 9 49.952 41.011 9.166 7.016 o
8 2 10 5.811 6.599 0.845 374.279 o
8 3 0 35.865 44.034 4.981 16.272 o
8 3 1 300.179 369.589 10.461 0.505 o
8 3 2 21.748 24.913 4.682 26.059 o
8 3 3 27.569 38.885 7.671 11.128 o
8 3 4 3.611 1.006 2.807 104.013 o
8 3 5 6.153 7.073 2.536 107.401 o
8 3 6 3.386 5.380 2.790 100.822 o
8 3 7 5.541 7.970 2.391 118.274 o
8 3 8 78.255 86.204 22.914 1.382 o
8 3 9 124.989 115.171 25.006 1.013 o
8 4 0 13.959 15.741 4.384 35.273 o
8 4 1 192.065 250.070 11.058 1.055 o
8 4 2 48.009 60.859 4.200 12.912 o
8 4 3 141.834 215.788 9.564 1.633 o
8 4 4 129.828 151.935 16.438 1.523 o
8 4 5 59.787 66.506 6.177 8.214 o
8 4 6 10.249 10.046 1.757 136.299 o
8 4 7 23.222 24.083 5.679 19.695 o
8 4 8 40.761 41.770 11.955 5.019 o
8 4 9 13.544 19.327 2.590 67.393 o
8 4 12 34.990 21.121 1.196 42.415 o
8 5 0 213.666 217.781 10.361 1.044 o
8 5 1 194.694 232.507 6.964 1.200 o
8 5 2 3.274 7.639 2.866 93.889 o
8 5 3 23.242 30.796 2.563 41.609 o
8 5 4 120.086 132.469 4.047 3.244 o
8 5 5 119.375 117.095 2.962 3.634 o
8 5 6 11.592 9.868 1.574 140.445 o
8 5 7 63.662 74.979 3.428 9.531 o
8 5 8 93.554 109.524 3.716 4.920 o
8 5 9 6.806 7.970 2.192 128.422 o
8 5 10 10.388 8.369 1.793 138.339 o
8 5 11 93.539 95.043 3.188 5.489 o
8 6 0 208.295 183.732 52.502 0.260 o
8 6 1 133.798 146.648 9.564 2.181 o
8 6 2 3.480 4.008 2.866 97.282 o
8 6 3 3.065 2.390 1.738 241.790 o
8 6 4 19.385 20.542 3.189 44.990 o
8 6 5 52.213 50.954 5.106 11.625 o
8 6 6 91.693 119.749 8.070 3.714 o
8 6 7 108.764 129.296 4.482 3.632 o
8 6 8 20.696 19.424 2.039 63.046 o
8 6 9 2.214 3.786 1.993 192.998 o
8 6 10 8.540 10.759 1.594 160.411 o
8 7 0 154.716 184.041 17.933 1.161 o
8 7 1 287.529 365.795 14.446 0.503 o
8 7 2 93.993 97.035 3.985 5.209 o
8 7 3 41.624 48.421 12.254 4.716 o
8 7 4 29.844 29.668 5.380 18.507 o
8 7 5 44.983 45.401 4.173 15.680 o
8 7 6 79.580 92.452 4.981 6.035 o
8 7 7 77.517 91.058 4.981 6.247 o
8 7 8 38.518 50.211 3.587 18.517 o
8 7 9 26.639 29.688 2.391 39.700 o
8 8 0 33.583 34.082 2.202 31.392 o
8 8 1 98.185 129.531 4.491 4.046 o
8 8 2 83.598 103.610 5.778 5.107 o
8 8 3 101.064 92.084 18.630 1.730 o
8 8 4 57.828 46.645 3.309 13.599 o
8 8 5 6.124 8.812 1.893 158.078 o
8 8 6 5.825 6.276 1.691 197.605 o
8 8 7 20.515 20.839 1.673 68.316 o
8 8 8 23.223 23.711 2.192 51.143 o
8 9 0 24.625 32.207 6.775 14.257 o
8 9 1 2.946 3.467 1.658 255.579 o
8 9 2 19.242 31.083 3.188 39.325 o
8 9 3 100.292 113.121 5.181 4.183 o
8 9 4 105.965 115.366 5.579 3.825 o
8 9 5 18.825 22.515 2.790 50.576 o
8 9 6 1.975 1.993 1.395 374.163 o
9 0 2 14.800 11.158 1.196 132.725 o
9 0 3 64.506 54.595 2.590 11.875 o
9 0 5 4.532 5.181 0.996 404.473 o
9 1 0 7.882 5.579 1.594 192.790 o
9 1 1 3.738 1.993 1.196 411.653 o
9 1 2 2.473 3.387 1.793 230.495 o
9 1 3 1.647 0.598 1.793 254.106 o
9 1 4 23.800 20.618 1.409 63.624 o
9 1 5 12.879 7.899 1.268 159.980 o
9 1 6 1.900 2.291 0.986 631.335 o
9 1 7 10.419 5.579 1.395 188.100 o
9 1 8 0.602 1.196 0.996 770.661 o
9 2 0 62.131 53.610 2.254 12.816 o
9 2 1 5.408 5.579 2.192 141.610 o
9 2 2 15.226 19.527 2.989 54.788 o
9 2 3 1.294 1.674 1.326 431.907 o
9 2 4 4.051 4.981 1.993 175.209 o
9 2 5 4.492 3.786 1.474 275.071 o
9 2 6 3.200 3.293 1.333 351.349 o
9 2 7 56.333 52.245 9.963 5.701 o
9 2 9 6.104 5.778 1.196 289.914 o
9 3 0 63.741 59.576 3.985 10.281 o
9 3 1 18.115 22.316 3.387 42.589 o
9 3 2 130.547 131.361 8.867 2.445 o
9 3 3 70.491 61.772 3.014 9.777 o
9 3 4 22.687 27.054 2.439 46.257 o
9 3 5 1.977 3.435 1.202 446.268 o
9 3 6 5.138 5.419 1.071 353.484 o
9 3 7 46.227 39.457 10.162 6.287 o
9 3 9 23.018 26.301 1.993 51.688 o
9 4 0 4.597 6.177 2.790 97.045 o
9 4 1 16.701 20.523 3.985 36.802 o
9 4 2 324.896 393.796 8.568 0.449 o
9 4 3 396.804 409.049 45.728 0.192 o
9 4 4 137.306 121.627 15.043 1.717 o
9 4 5 4.596 4.114 1.273 325.722 o
9 4 6 15.437 15.143 1.474 104.145 o
9 4 7 1.754 1.594 1.196 496.706 o
9 4 8 4.956 3.131 0.714 560.993 o
9 4 9 3.074 2.210 0.692 806.636 o
9 5 0 11.251 9.621 1.806 127.722 o
9 5 1 6.084 9.763 3.786 53.660 o
9 5 2 66.586 84.823 3.760 8.247 o
9 5 3 165.170 223.958 8.369 1.424 o
9 5 4 137.878 163.230 18.231 1.293 o
9 5 5 79.081 87.915 7.870 4.947 o
9 5 6 12.785 10.634 1.953 107.953 o
9 5 7 1.786 1.364 0.908 761.595 o
9 5 8 1.746 1.833 0.995 651.700 o
9 5 9 4.453 2.590 0.996 464.671 o
9 6 0 15.882 23.910 3.587 41.260 o
9 6 1 44.670 50.762 5.679 11.993 o
9 6 2 9.298 5.380 4.184 44.343 o
9 6 3 29.575 46.027 4.184 20.830 o
9 6 4 104.306 127.701 13.649 2.226 o
9 6 5 128.455 172.075 19.527 1.232 o
9 6 6 153.292 178.475 10.959 1.621 o
9 6 7 76.664 84.647 3.885 7.090 o
9 6 8 31.277 32.079 1.993 35.786 o
9 6 9 1.308 1.196 0.996 709.438 o
9 7 0 91.339 137.881 5.778 3.918 o
9 7 1 17.943 19.979 1.608 79.087 o
9 7 2 9.373 8.762 2.076 122.237 o
9 7 3 2.397 3.400 2.192 163.291 o
9 7 4 3.487 1.993 3.188 81.469 o
9 7 5 24.267 23.229 1.508 58.035 o
9 7 6 95.468 122.141 3.985 4.428 o
9 7 7 95.458 114.060 2.865 4.830 o
9 7 8 62.581 72.727 2.790 10.334 o
9 8 0 97.599 123.137 4.981 4.121 o
9 8 1 51.274 70.555 6.575 8.493 o
9 8 2 24.928 29.882 1.989 45.503 o
9 8 3 2.905 5.911 1.673 236.702 o
9 8 4 10.213 15.146 1.832 116.120 o
9 8 5 2.462 4.981 2.192 158.769 o
9 8 6 23.474 30.685 2.391 43.110 o
9 8 7 32.715 34.884 4.583 20.107 o
9 9 3 96.047 140.031 8.269 3.226 o
9 9 4 39.140 61.768 2.989 17.565 o
10 3 3 14.925 11.357 1.594 112.430 o
10 3 5 32.062 29.091 1.793 37.757 o
10 4 2 60.832 47.623 5.679 9.751 o
10 4 3 4.964 4.184 1.594 237.494 o
10 4 4 5.893 4.446 0.845 415.659 o
10 4 5 1.394 1.268 0.765 1032.240 o
10 4 6 15.553 15.940 1.594 97.372 o
10 5 1 11.035 12.354 1.594 134.062 o
10 5 2 81.268 88.069 3.985 6.471 o
10 5 3 9.527 10.560 1.993 122.435 o
10 5 4 12.544 16.139 2.192 87.239 o
10 5 5 2.378 2.192 0.986 601.380 o
10 5 6 4.162 3.387 1.395 307.132 o
10 6 1 5.944 4.874 0.908 384.624 o
10 6 2 22.659 32.478 2.590 41.017 o
10 6 4 69.811 76.979 3.985 8.198 o
10 7 2 4.485 3.985 1.196 355.435 o
10 7 4 19.142 21.519 1.793 69.004 o
;
_olex2_submission_special_instructions 'No special instructions were received'
loop_
_space_group_symop_id
_space_group_symop_operation_xyz
1 x,y,z
2 -x,-y,-z
loop_
_atom_site_label
_atom_site_type_symbol
_atom_site_fract_x
_atom_site_fract_y
_atom_site_fract_z
_atom_site_U_iso_or_equiv
_atom_site_adp_type
_atom_site_occupancy
_atom_site_site_symmetry_order
_atom_site_refinement_flags_posn
_atom_site_refinement_flags_adp
_atom_site_refinement_flags_occupancy
Co1 Co 0.5 0.5 0.5 0.0349(2) Uani 1.000000 2 S T P
Cl1 Cl 0.66103(12) 0.30374(11) 0.63880(7) 0.0507(3) Uani 1.000000 1 . . .
O2 O -0.2973(4) 0.5219(4) 0.9703(2) 0.0667(8) Uani 1.000000 1 . . .
O1 O 0.0129(4) 0.3443(4) 0.8953(2) 0.0727(9) Uani 1.000000 1 . . .
N2 N 0.2470(3) 0.4837(3) 0.5839(2) 0.0377(5) Uani 1.000000 1 . . .
N4 N -0.0060(3) 0.4858(4) 0.6832(2) 0.0400(6) Uani 1.000000 1 . . .
N1 N 0.5313(4) 0.2794(3) 0.4073(2) 0.0364(5) Uani 1.000000 1 . . .
N3 N 0.1006(4) 0.5689(4) 0.6711(2) 0.0424(6) Uani 1.000000 1 . . .
C8 C -0.1789(4) 0.5465(5) 0.7769(3) 0.0463(8) Uani 1.000000 1 . . .
H8a H -0.2345(4) 0.6721(5) 0.7925(3) 0.0556(9) Uiso 1.000000 1 R . .
H8b H -0.2708(4) 0.5232(5) 0.7534(3) 0.0556(9) Uiso 1.000000 1 R . .
C6 C 0.2349(4) 0.3487(4) 0.5398(2) 0.0336(6) Uani 1.000000 1 . . .
C5 C 0.3907(4) 0.2358(4) 0.4421(2) 0.0342(6) Uani 1.000000 1 . . .
C7 C 0.0723(4) 0.3506(4) 0.6044(3) 0.0399(6) Uani 1.000000 1 . . .
H7 H 0.0256(4) 0.2740(4) 0.5957(3) 0.0478(8) Uiso 1.000000 1 R . .
C9 C -0.1376(5) 0.4556(5) 0.8866(3) 0.0438(7) Uani 1.000000 1 . . .
C3 C 0.5486(6) -0.0037(4) 0.2989(3) 0.0506(8) Uani 1.000000 1 . . .
H3 H 0.5550(6) -0.0993(4) 0.2625(3) 0.0607(10) Uiso 1.000000 1 R . .
C1 C 0.6795(5) 0.1819(4) 0.3197(3) 0.0449(7) Uani 1.000000 1 . . .
H1 H 0.7780(5) 0.2110(4) 0.2956(3) 0.0538(9) Uiso 1.000000 1 R . .
C4 C 0.3934(5) 0.0956(4) 0.3894(3) 0.0436(7) Uani 1.000000 1 . . .
H4 H 0.2932(5) 0.0690(4) 0.4144(3) 0.0524(8) Uiso 1.000000 1 R . .
C2 C 0.6931(6) 0.0397(5) 0.2632(3) 0.0525(8) Uani 1.000000 1 . . .
H2 H 0.7983(6) -0.0252(5) 0.2021(3) 0.0631(10) Uiso 1.000000 1 R . .
C10 C -0.2878(8) 0.4476(9) 1.0827(3) 0.0889(17) Uani 1.000000 1 . . .
H10a H -0.4114(8) 0.5055(9) 1.1365(3) 0.133(3) Uiso 1.000000 1 R . .
H10b H -0.2484(8) 0.3247(9) 1.0740(3) 0.133(3) Uiso 1.000000 1 R . .
H10c H -0.1974(8) 0.4638(9) 1.1117(3) 0.133(3) Uiso 1.000000 1 R . .
loop_
_atom_site_aniso_label
_atom_site_aniso_U_11
_atom_site_aniso_U_22
_atom_site_aniso_U_33
_atom_site_aniso_U_12
_atom_site_aniso_U_13
_atom_site_aniso_U_23
Co1 0.0325(4) 0.0475(4) 0.0295(3) -0.0283(3) 0.0050(2) -0.0044(2)
Cl1 0.0520(5) 0.0656(5) 0.0484(5) -0.0395(4) -0.0132(3) 0.0122(4)
O2 0.0463(14) 0.109(2) 0.0338(12) -0.0356(15) 0.0065(10) 0.0053(13)
O1 0.0599(17) 0.0822(19) 0.0442(14) -0.0138(15) -0.0037(12) 0.0143(13)
N2 0.0341(12) 0.0518(14) 0.0304(11) -0.0283(11) 0.0037(9) -0.0006(10)
N4 0.0303(11) 0.0603(15) 0.0323(12) -0.0272(11) -0.0016(9) 0.0070(10)
N1 0.0377(12) 0.0441(13) 0.0293(11) -0.0242(10) -0.0014(9) 0.0013(9)
N3 0.0376(13) 0.0580(15) 0.0340(12) -0.0304(12) 0.0037(10) 0.0001(11)
C8 0.0289(14) 0.069(2) 0.0368(16) -0.0242(14) 0.0012(12) 0.0072(14)
C6 0.0335(13) 0.0451(15) 0.0303(13) -0.0256(12) -0.0083(11) 0.0084(11)
C5 0.0363(14) 0.0412(14) 0.0302(13) -0.0229(12) -0.0082(11) 0.0084(11)
C7 0.0361(14) 0.0570(17) 0.0358(14) -0.0308(13) -0.0076(11) 0.0083(12)
C9 0.0388(15) 0.0600(19) 0.0333(15) -0.0272(14) -0.0020(12) 0.0024(13)
C3 0.069(2) 0.0429(16) 0.0434(17) -0.0286(16) -0.0139(15) -0.0016(13)
C1 0.0438(17) 0.0503(17) 0.0379(15) -0.0267(14) 0.0044(12) -0.0031(12)
C4 0.0498(17) 0.0477(17) 0.0438(16) -0.0298(14) -0.0157(13) 0.0066(13)
C2 0.056(2) 0.0506(18) 0.0417(17) -0.0230(15) 0.0004(14) -0.0080(13)
C10 0.080(3) 0.154(5) 0.0319(19) -0.062(3) -0.0015(19) 0.016(2)
loop_
_atom_type_symbol
_atom_type_scat_dispersion_real
_atom_type_scat_dispersion_imag
_atom_type_scat_Cromer_Mann_a1
_atom_type_scat_Cromer_Mann_a2
_atom_type_scat_Cromer_Mann_a3
_atom_type_scat_Cromer_Mann_a4
_atom_type_scat_Cromer_Mann_b1
_atom_type_scat_Cromer_Mann_b2
_atom_type_scat_Cromer_Mann_b3
_atom_type_scat_Cromer_Mann_b4
_atom_type_scat_Cromer_Mann_c
_atom_type_scat_source
_atom_type_scat_dispersion_source
C 0.01920 0.00962 2.31000 1.02000 1.58860 0.86500 20.84390 10.20750 0.56870
51.65120 0.21560 'International Tables Volume C Table 6.1.1.4 (pp. 500-502)'
'Henke, Gullikson and Davis, At. Data and Nucl. Data Tables, 1993, 54, 2'
Cl 0.36842 0.69938 11.46040 7.19640 6.25560 1.64550 0.01040 1.16620 18.51940
47.77840 -9.55740 'International Tables Volume C Table 6.1.1.4 (pp. 500-502)'
'Henke, Gullikson and Davis, At. Data and Nucl. Data Tables, 1993, 54, 2'
Co -2.40906 3.56674 12.28410 7.34090 4.00340 2.34880 4.27910 0.27840 13.53590
71.16920 1.01180 'International Tables Volume C Table 6.1.1.4 (pp. 500-502)'
'Henke, Gullikson and Davis, At. Data and Nucl. Data Tables, 1993, 54, 2'
H 0.00000 0.00000 0.49300 0.32291 0.14019 0.04081 10.51090 26.12570 3.14236
57.79970 0.00304 'International Tables Volume C Table 6.1.1.4 (pp. 500-502)'
'Henke, Gullikson and Davis, At. Data and Nucl. Data Tables, 1993, 54, 2'
N 0.03256 0.01839 12.21260 3.13220 2.01250 1.16630 0.00570 9.89330 28.99750
0.58260 -11.52900 'International Tables Volume C Table 6.1.1.4 (pp. 500-502)'
'Henke, Gullikson and Davis, At. Data and Nucl. Data Tables, 1993, 54, 2'
O 0.05239 0.03376 3.04850 2.28680 1.54630 0.86700 13.27710 5.70110 0.32390
32.90890 0.25080 'International Tables Volume C Table 6.1.1.4 (pp. 500-502)'
'Henke, Gullikson and Davis, At. Data and Nucl. Data Tables, 1993, 54, 2'
loop_
_diffrn_refln_index_h
_diffrn_refln_index_k
_diffrn_refln_index_l
_diffrn_refln_intensity_net
_diffrn_refln_intensity_u
0 0 -1 109.45 2.16
0 0 -2 27.93 0.62
0 0 -3 52.51 1.12
0 0 -4 46.85 1.06
0 0 -5 18.14 0.52
0 0 -6 0.89 0.12
0 0 6 1.21 0.09
0 0 7 13.55 0.35
0 0 -7 13.66 0.5
0 0 8 4.56 0.19
0 0 -8 5.18 0.34
0 0 -8 4.71 0.3
0 0 -9 0.5 0.09
0 0 -9 0.56 0.18
0 0 9 0.5 0.12
0 0 -9 0.71 0.16
0 0 -10 6.78 0.22
0 0 -10 8.16 0.25
0 0 -10 7.98 0.43
0 0 -10 7.69 0.46
0 0 10 6.49 0.27
0 0 11 2.8 0.16
0 0 -11 2.27 0.13
0 0 12 1.31 0.15
0 0 13 1.08 0.12
0 0 14 0.23 0.07
0 -1 14 0.33 0.06
0 -1 13 5.69 0.2
0 -1 12 9.02 0.29
0 1 -11 1.83 0.12
0 1 -11 2.24 0.13
0 -1 11 2.1 0.16
0 1 -10 0.11 0.08
0 1 -10 0.27 0.16
0 1 -10 0.19 0.07
0 1 -10 0.12 0.13
0 -1 10 0.21 0.1
0 1 -9 22.93 0.54
0 1 -9 22.27 0.53
0 -1 9 21.06 0.53
0 1 -9 22.77 0.77
0 1 -9 24.01 0.84
0 1 -8 0.91 0.19
0 1 -8 0.69 0.15
0 -1 8 1.05 0.11
0 1 -7 51.9 1.31
0 1 -7 45.86 1.22
0 1 -6 20.66 0.64
0 1 -5 73.81 1.48
0 1 -5 72.79 1.48
0 1 -4 0.76 0.06
0 1 -4 0.94 0.09
0 1 -4 0.89 0.1
0 1 -4 0.88 0.1
0 1 -3 6.49 0.22
0 1 -3 6.42 0.2
0 1 -2 77.23 1.57
0 1 -1 16.02 0.33
0 -1 0 312.74 6.08
0 1 0 313.54 6.1
0 -1 -1 34.3 0.71
0 -1 -2 61.75 1.28
0 -1 -3 26.59 0.58
0 1 3 22.4 0.5
0 -1 -4 4.97 0.22
0 -1 -5 2.86 0.18
0 -1 -6 3.59 0.24
0 -1 -6 3.99 0.23
0 -1 -7 5.7 0.31
0 1 7 7.05 0.24
0 -1 -8 26.2 0.81
0 -1 -8 25.17 0.85
0 1 8 27.11 0.64
0 -1 -9 4.28 0.32
0 1 9 4.97 0.22
0 -1 -9 4.06 0.34
0 -1 -10 16.8 0.72
0 1 10 18.53 0.48
0 -1 -10 17.92 0.69
0 -1 -10 15.96 0.44
0 -1 -10 17.58 0.44
0 -1 -11 10.46 0.3
0 -1 -11 11.63 0.32
0 1 13 0.32 0.08
0 -2 13 0.99 0.09
0 -2 13 1.04 0.09
0 -2 12 5.7 0.22
0 -2 12 7.24 0.22
0 -2 11 4.52 0.19
0 2 -11 5.02 0.19
0 -2 11 5.1 0.2
0 2 -10 4.19 0.18
0 2 -10 4.33 0.33
0 -2 10 4.13 0.18
0 2 -9 0.22 0.13
0 2 -9 0.2 0.07
0 2 -9 -0.01 0.09
0 2 -9 0.15 0.15
0 2 -8 0.7 0.16
0 2 -8 0.69 0.17
0 2 -8 0.43 0.09
0 2 -8 0.67 0.07
0 2 -7 8.62 0.3
0 2 -7 8.58 0.4
0 2 -6 3.15 0.24
0 2 -6 2.77 0.21
0 2 -5 84.67 1.95
0 2 -5 87.36 1.96
0 2 -5 83.93 1.88
0 2 -4 65.05 1.5
0 2 -4 66.98 1.5
0 2 -3 13.98 0.44
0 2 -3 15.46 0.39
0 2 -2 30.5 0.63
0 2 -1 133.56 2.69
0 2 -1 135.74 2.72
0 2 0 209.91 4.2
0 -2 0 213.22 4.15
0 -2 -1 1.01 0.06
0 -2 -2 43.14 1
0 2 2 52.59 1.06
0 -2 -3 80.09 1.78
0 2 3 89.32 1.78
0 2 4 68.83 1.49
0 2 4 68.65 1.6
0 -2 -5 18.71 0.56
0 2 6 9.19 0.28
0 -2 -7 1.73 0.19
0 2 7 1.74 0.14
0 -2 -8 1.95 0.24
0 2 8 1.8 0.13
0 -2 -8 2.12 0.22
0 -2 -9 8.61 0.48
0 2 9 8.22 0.25
0 -2 -10 18.3 0.47
0 2 11 14.37 0.45
0 -2 -11 14.73 0.39
0 -2 -11 15.84 0.4
0 2 12 1.01 0.12
0 -2 -12 0.98 0.08
0 2 12 1.29 0.12
0 2 13 0.53 0.07
0 2 13 0.68 0.08
0 -3 13 0.15 0.07
0 -3 12 3.31 0.16
0 3 -11 13.28 0.35
0 -3 11 12.54 0.36
0 3 -10 9.76 0.25
0 3 -10 9.87 0.25
0 3 -9 4.15 0.17
0 3 -9 3.77 0.3
0 3 -9 4.09 0.18
0 3 -8 0.25 0.07
0 3 -8 0.3 0.14
0 3 -8 0.36 0.1
0 3 -8 0.35 0.07
0 3 -7 0.18 0.09
0 3 -7 0.22 0.13
0 3 -6 0.43 0.11
0 3 -6 0.84 0.11
0 3 -5 1.87 0.18
0 3 -5 2.25 0.27
0 3 -5 1.29 0.13
0 3 -5 1.7 0.14
0 3 -4 10.06 0.43
0 3 -3 0.94 0.12
0 3 -3 0.95 0.1
0 3 -3 0.93 0.14
0 3 -2 28.38 0.71
0 3 -2 27.94 0.67
0 3 -1 8.79 0.27
0 3 -1 6.96 0.34
0 3 0 0.38 0.06
0 -3 0 0.35 0.03
0 3 1 5.85 0.29
0 -3 -1 5.52 0.16
0 3 2 4.75 0.25
0 3 3 22.66 0.59
0 -3 -3 17.87 0.5
0 3 4 79.55 1.73
0 3 4 81.78 1.63
0 3 5 23.75 0.58
0 -3 -6 50.03 1.31
0 3 6 51.48 1.15
0 -3 -7 0.35 0.13
0 3 7 0.46 0.09
0 3 7 0.45 0.09
0 -3 -7 0.37 0.15
0 3 8 2.98 0.24
0 3 8 2.92 0.16
0 -3 -8 2.58 0.27
0 3 9 2.78 0.24
0 3 10 1.47 0.13
0 -3 -10 1.61 0.13
0 3 10 1.72 0.2
0 -3 -11 14.42 0.37
0 3 11 13.84 0.37
0 3 11 14.66 0.44
0 3 11 14.61 0.36
0 -3 -12 3.62 0.13
0 3 12 3.48 0.16
0 -4 12 0.2 0.08
0 -4 11 1.79 0.13
0 4 -11 1.49 0.1
0 4 -10 1.93 0.12
0 4 -9 5.57 0.21
0 4 -9 5.79 0.22
0 4 -8 11.51 0.34
0 4 -8 11.4 0.42
0 4 -8 11.5 0.33
0 4 -7 3.94 0.18
0 4 -7 4.26 0.19
0 4 -7 3.78 0.24
0 4 -6 0.19 0.08
0 4 -6 0.19 0.07
0 4 -6 0.15 0.14
0 4 -6 0.19 0.13
0 4 -6 0.19 0.11
0 4 -5 0.43 0.14
0 4 -5 0.63 0.12
0 4 -5 0.73 0.11
0 4 -5 0.6 0.25
0 4 -5 0.54 0.16
0 4 -5 0.81 0.17
0 4 -4 0.42 0.13
0 4 -4 0.33 0.11
0 4 -4 0.33 0.09
0 4 -4 0.32 0.14
0 4 -4 0.28 0.09
0 4 -3 4.45 0.24
0 4 -3 4.01 0.32
0 4 -2 19.41 0.55
0 4 -1 58.95 1.38
0 4 -1 55.54 1.6
0 4 0 67.45 1.45
0 4 0 61.53 1.68
0 4 1 0.29 0.13
0 4 2 0.78 0.15
0 4 3 0.56 0.08
0 4 3 0.8 0.08
0 4 4 34.67 0.76
0 4 4 27.83 1.06
0 4 5 15.91 0.43
0 4 5 14.42 0.37
0 4 6 9.57 0.28
0 4 6 9.99 0.3
0 4 7 3.28 0.24
0 4 7 2.98 0.16
0 4 8 7.43 0.35
0 4 8 6.55 0.25
0 4 9 0.21 0.17
0 -4 -9 0.21 0.1
0 4 9 0.1 0.11
0 -4 -10 2.17 0.13
0 4 10 1.92 0.14
0 4 10 2.33 0.2
0 4 11 3.61 0.14
0 4 11 3.64 0.18
0 5 -12 0.06 0.05
0 -5 12 0.07 0.06
0 -5 11 0.5 0.09
0 5 -10 0.72 0.09
0 5 -9 4.46 0.19
0 5 -8 14.67 0.5
0 5 -8 13.24 0.38
0 5 -7 5.98 0.24
0 5 -7 6.29 0.33
0 5 -6 1.09 0.12
0 5 -6 1.07 0.17
0 5 -5 0.42 0.2
0 5 -5 0.45 0.1
0 5 -5 0.45 0.27
0 5 -5 0.55 0.13
0 5 -5 0.5 0.09
0 5 -5 0.35 0.14
0 5 -5 0.94 0.65
0 5 -5 0.38 0.09
0 5 -4 0.31 0.08
0 5 -4 0.19 0.13
0 5 -4 0.49 0.1
0 5 -4 0.41 0.31
0 5 -4 0.36 0.13
0 5 -4 0.68 0.09
0 5 -3 2.83 0.21
0 5 -3 2.05 0.31
0 5 -3 3.28 0.24
0 5 -3 2.49 0.21
0 5 -2 23.7 0.71
0 5 -2 29.03 0.77
0 5 -1 39.07 1.42
0 5 -1 44.53 1.06
0 5 0 34.2 1.24
0 5 1 3.03 0.33
0 5 2 5.72 0.4
0 5 2 3.36 0.21
0 5 3 0.91 0.11
0 5 3 1.29 0.09
0 5 3 1.54 0.18
0 5 3 1.63 0.23
0 5 3 1 0.26
0 5 4 3.08 0.34
0 5 4 3.04 0.17
0 5 5 7.04 0.29
0 5 5 6.81 0.22
0 5 6 2.11 0.17
0 5 6 1.96 0.14
0 5 6 2.45 0.2
0 5 7 8.1 0.35
0 -5 -7 8.31 0.26
0 5 7 7.35 0.26
0 5 8 6.54 0.24
0 5 8 7.42 0.33
0 -5 -8 7.28 0.24
0 5 9 0.95 0.12
0 -5 -9 1.17 0.11
0 5 10 0.59 0.09
0 -5 -10 0.69 0.08
0 5 11 0.89 0.07
0 6 -11 0.91 0.07
0 -6 11 0.88 0.07
0 6 -10 0.39 0.08
0 6 -9 0.29 0.1
0 6 -8 0.11 0.11
0 6 -8 0.25 0.13
0 6 -7 1.45 0.2
0 6 -7 1.26 0.16
0 6 -6 2.73 0.2
0 6 -6 2.68 0.26
0 6 -5 21 1.18
0 6 -5 20.87 0.63
0 6 -4 3.76 0.28
0 6 -4 5.16 0.91
0 6 -4 3.22 0.22
0 6 -4 3.39 0.43
0 6 -4 4.41 0.66
0 6 -4 4.26 0.31
0 6 -4 3.04 0.21
0 6 -3 0.72 0.22
0 6 -3 0.3 0.11
0 6 -3 0.57 0.28
0 6 -3 0.31 0.09
0 6 -3 0.4 0.14
0 6 -3 0.77 0.44
0 6 -3 0.41 0.17
0 6 -2 0.28 0.15
0 6 -2 0.26 0.11
0 6 -2 0.08 0.19
0 6 -2 0.47 0.46
0 6 -2 0.24 0.08
0 6 -1 0.58 0.08
0 6 -1 0.68 0.17
0 6 -1 0.56 0.28
0 6 -1 0.44 0.1
0 6 -1 0.46 0.14
0 6 -1 0.4 0.11
0 6 0 17.21 1.31
0 6 0 17.8 0.44
0 6 0 15.91 0.54
0 6 0 18.02 0.54
0 6 0 15.93 0.94
0 6 1 8.53 0.25
0 6 1 10.26 0.68
0 6 1 8.28 0.86
0 6 1 9.43 0.35
0 6 1 9.2 0.39
0 6 2 4.37 0.58
0 6 2 6.46 0.49
0 6 2 4.82 0.18
0 6 2 5.35 0.24
0 6 2 3.5 0.25
0 6 3 0.43 0.22
0 6 3 0.31 0.1
0 6 3 0.35 0.09
0 6 3 0.29 0.08
0 6 3 0.31 0.11
0 6 3 0.24 0.21
0 6 4 0.39 0.22
0 6 4 0.32 0.09
0 6 4 0.15 0.08
0 -6 -5 1.17 0.1
0 6 5 1.34 0.12
0 -6 -6 4.97 0.18
0 6 6 4.73 0.2
0 6 7 0.84 0.13
0 -6 -7 0.96 0.1
0 -6 -8 1.74 0.11
0 6 8 1.55 0.14
0 6 9 2.01 0.11
0 -6 -9 2.07 0.1
0 6 10 0.91 0.05
0 6 10 1.4 0.07
0 7 -10 0.34 0.06
0 7 -10 0.2 0.04
0 7 -9 0.1 0.06
0 7 -8 0.12 0.09
0 7 -8 0.34 0.1
0 7 -7 0.21 0.12
0 7 -7 0.12 0.11
0 7 -5 3.11 0.28
0 7 -5 4.21 0.29
0 7 -4 2.2 0.27
0 7 -4 0.66 0.14
0 7 -4 1.07 0.21
0 7 -4 1.71 0.24
0 7 -3 0.4 0.26
0 7 -3 0.41 0.11
0 7 -3 0.34 0.19
0 7 -3 0.19 0.16
0 7 -2 0.99 0.22
0 7 -2 0.77 0.15
0 7 -2 0.72 0.29
0 7 -2 0.4 0.18
0 7 -1 0.28 0.12
0 7 -1 0.18 0.17
0 7 -1 0.35 0.2
0 7 0 0.96 0.22
0 7 0 0.97 0.12
0 7 0 1.17 0.2
0 7 0 0.64 0.23
0 7 1 3.77 0.2
0 7 1 3.12 0.29
0 7 1 3.35 0.16
0 7 2 10.14 0.28
0 7 2 8.14 0.41
0 7 3 15.8 0.38
0 7 3 18.08 0.45
0 7 4 4.69 0.21
0 7 4 4.52 0.17
0 7 6 0.15 0.14
0 7 6 0.24 0.11
0 7 7 0.2 0.11
0 7 7 0.12 0.07
0 7 8 0.54 0.08
0 7 8 0.4 0.08
0 7 9 0.18 0.03
0 8 -8 0.16 0.07
0 8 -6 1.27 0.14
0 8 -6 0.89 0.15
0 8 -5 0.02 0.14
0 8 -5 0.09 0.12
0 8 -4 1.86 0.18
0 8 -4 2.02 0.22
0 8 -3 1.7 0.28
0 8 -3 1.1 0.15
0 8 -3 1.27 0.21
0 8 -2 2.15 0.16
0 8 -2 2.36 0.27
0 8 -2 2.66 0.34
0 8 -1 0.36 0.11
0 8 -1 0.12 0.18
0 8 -1 0.1 0.11
0 8 0 0.22 0.21
0 8 0 0 0.1
0 8 1 1.72 0.12
0 8 1 1.87 0.18
0 8 2 2.49 0.19
0 8 2 1.97 0.11
0 8 3 2.93 0.13
0 8 3 3.99 0.2
0 8 4 2.94 0.16
0 8 4 1.84 0.18
0 8 5 0.94 0.13
0 8 5 1.09 0.11
0 8 5 0.87 0.15
0 8 6 0.66 0.11
0 8 6 0.44 0.07
0 9 -6 0.05 0.04
0 9 -5 -0.01 0.06
0 9 -4 0.15 0.08
0 9 -4 0.09 0.07
0 9 -3 0.01 0.08
0 9 -2 0.16 0.08
0 9 -1 0.4 0.08
0 9 0 0.15 0.07
0 9 1 0.54 0.07
0 9 1 0.45 0.1
0 9 1 0.32 0.1
0 9 2 0.24 0.11
0 9 4 0.28 0.07
-1 9 -1 1.79 0.1
-1 9 -2 0.86 0.08
-1 8 5 0.57 0.07
-1 8 4 0.68 0.11
-1 8 4 0.83 0.09
-1 8 3 0.14 0.1
-1 8 2 0.21 0.11
-1 8 1 0.43 0.12
-1 8 1 0.51 0.07
-1 8 0 3.04 0.27
-1 8 0 3.5 0.13
-1 8 0 3.14 0.17
-1 8 -1 4.26 0.34
-1 8 -1 4.22 0.16
-1 8 -2 2.29 0.23
-1 8 -2 1.79 0.12
-1 8 -2 2.21 0.28
-1 8 -3 2.67 0.14
-1 8 -3 2.83 0.23
-1 8 -4 0.6 0.1
-1 8 -4 0.38 0.12
-1 8 -5 0.26 0.09
-1 8 -5 0.35 0.1
-1 8 -6 0.3 0.08
-1 8 -7 0.28 0.07
-1 7 7 0.84 0.08
-1 7 7 0.67 0.08
-1 7 6 0.19 0.1
1 -7 -6 0.24 0.04
-1 7 6 0.32 0.08
-1 7 5 0.29 0.1
1 -7 -5 0.2 0.05
-1 7 3 3.83 0.2
-1 7 2 3.13 0.13
-1 7 2 3.57 0.2
-1 7 1 0.19 0.08
-1 7 1 0.35 0.17
-1 7 1 0.03 0.17
-1 7 1 0.35 0.18
-1 7 0 1.13 0.22
-1 7 0 0.93 0.25
-1 7 0 0.88 0.11
-1 7 0 1.33 0.26
-1 7 -1 0.1 0.2
-1 7 -1 0.32 0.11
-1 7 -1 0.44 0.21
-1 7 -2 1.39 0.14
-1 7 -2 1.47 0.32
-1 7 -2 1.73 0.25
-1 7 -3 6.95 0.29
-1 7 -3 7.97 0.42
-1 7 -4 5.05 0.32
-1 7 -4 4.97 0.25
-1 7 -5 0.13 0.16
-1 7 -5 -0.11 0.17
-1 7 -6 0.77 0.15
-1 7 -6 1.12 0.15
-1 7 -6 1.02 0.12
-1 7 -6 0.69 0.18
-1 7 -7 0.06 0.1
-1 7 -7 0.05 0.14
-1 7 -7 0.11 0.08
-1 7 -8 0.16 0.07
-1 7 -8 0.29 0.11
-1 7 -8 0.2 0.08
-1 7 -9 0.24 0.05
-1 7 -9 0.34 0.08
-1 6 9 3.32 0.1
-1 6 9 1.97 0.08
-1 6 8 1.74 0.11
-1 6 7 0.97 0.1
1 -6 -7 0.88 0.08
1 -6 -6 0.22 0.07
-1 6 6 0.25 0.1
1 -6 -6 0.19 0.06
-1 6 5 0.31 0.11
-1 6 5 0.4 0.18
-1 6 4 4.97 0.35
-1 6 4 3.52 0.18
-1 6 3 0.36 0.28
-1 6 3 0.27 0.08
-1 6 3 0.15 0.1
-1 6 2 0.27 0.14
-1 6 2 0.53 0.13
-1 6 2 0.36 0.09
-1 6 1 0.41 0.16
-1 6 1 0.23 0.2
-1 6 1 0.54 0.29
-1 6 1 0.71 0.45
-1 6 1 0.3 0.18
-1 6 1 0.39 0.09
-1 6 0 0.04 0.16
-1 6 0 0.15 0.28
-1 6 0 0.12 0.21
-1 6 0 0.22 0.17
-1 6 0 0.22 0.09
-1 6 -1 0.11 0.13
-1 6 -1 0.25 0.31
-1 6 -1 0.16 0.1
-1 6 -1 0.12 0.12
-1 6 -1 0.07 0.17
-1 6 -2 0.08 0.12
-1 6 -2 0.15 0.13
-1 6 -2 -0.02 0.17
-1 6 -2 0.26 0.18
-1 6 -2 0.03 0.26
-1 6 -2 -0.11 0.26
-1 6 -3 2.62 0.16
-1 6 -3 3.15 0.28
-1 6 -3 2.21 0.44
-1 6 -3 3.24 0.23
-1 6 -3 2.23 0.24
-1 6 -3 3.81 0.37
-1 6 -3 4.33 0.82
-1 6 -4 24.5 0.74
-1 6 -4 23.44 0.71
-1 6 -5 8.5 0.29
-1 6 -5 7.42 0.31
-1 6 -5 8.31 0.4
-1 6 -6 8.27 0.28
-1 6 -6 8.45 0.39
-1 6 -7 0.13 0.14
-1 6 -7 0.22 0.11
-1 6 -8 0.79 0.14
-1 6 -8 0.85 0.12
-1 6 -9 0.3 0.1
-1 6 -9 0.13 0.08
-1 6 -9 0.07 0.16
-1 6 -10 0.05 0.06
-1 6 -11 2.46 0.09
-1 5 10 0.28 0.05
-1 5 10 0.64 0.06
1 -5 -9 3.7 0.14
-1 5 9 3.01 0.14
1 -5 -8 6.09 0.19
1 -5 -8 6.71 0.21
-1 5 7 6.82 0.23
1 -5 -7 7.14 0.23
-1 5 7 6.21 0.23
1 -5 -7 5.87 0.2
-1 5 6 0.35 0.11
-1 5 6 0.4 0.14
1 -5 -6 0.34 0.08
1 -5 -6 0.44 0.09
1 -5 -5 12.27 0.33
-1 5 5 11.21 0.33
1 -5 -4 3.61 0.15
-1 5 4 5.2 0.32
-1 5 3 0.63 0.23
-1 5 3 0.31 0.1
-1 5 2 14.33 0.41
-1 5 2 15.74 0.73
-1 5 1 24.78 0.57
-1 5 1 22.28 0.73
-1 5 1 28.11 0.7
-1 5 1 29.57 1.15
-1 5 0 3.86 0.25
-1 5 0 4.34 0.19
-1 5 0 3.95 0.25
-1 5 0 4.2 0.16
-1 5 -1 0.34 0.08
-1 5 -1 0.46 0.1
-1 5 -1 0.34 0.07
-1 5 -1 0.13 0.12
-1 5 -1 0.22 0.25
-1 5 -1 0.44 0.12
-1 5 -2 1.73 0.14
-1 5 -2 1.17 0.33
-1 5 -2 1.71 0.11
-1 5 -2 1.17 0.16
-1 5 -3 1.05 0.17
-1 5 -3 0.95 0.13
-1 5 -3 0.72 0.27
-1 5 -3 0.75 0.1
-1 5 -3 0.72 0.14
-1 5 -4 8.35 0.47
-1 5 -4 10.01 0.41
-1 5 -4 7.85 0.33
-1 5 -4 9.67 0.36
-1 5 -4 8.3 0.62
-1 5 -4 9.3 0.29
-1 5 -5 0.45 0.16
-1 5 -5 0.29 0.13
-1 5 -5 0.27 0.11
-1 5 -5 0.27 0.14
-1 5 -5 0.24 0.17
-1 5 -5 0.84 0.12
-1 5 -5 0.41 0.21
-1 5 -6 9.5 0.32
-1 5 -6 10.25 0.6
-1 5 -6 12.06 0.41
-1 5 -6 10.8 0.33
-1 5 -6 10.51 0.44
-1 5 -6 8.35 0.54
-1 5 -7 6.4 0.25
-1 5 -7 6.1 0.33
-1 5 -8 0.58 0.12
-1 5 -8 0.5 0.14
-1 5 -8 0.48 0.15
-1 5 -9 0.03 0.09
-1 5 -9 0.18 0.11
-1 5 -10 0.15 0.08
-1 5 -10 0.5 0.17
1 -5 11 0.16 0.08
-1 5 -11 0.05 0.06
-1 5 -12 0.31 0.05
-1 4 11 0.37 0.05
-1 4 10 0.13 0.08
1 -4 -10 0.16 0.07
-1 4 9 4.56 0.24
1 -4 -9 4.91 0.17
1 -4 -9 4.78 0.19
-1 4 8 9.1 0.29
1 -4 -8 9.65 0.29
-1 4 8 9.35 0.36
1 -4 -8 9.69 0.28
-1 4 7 3.55 0.22
1 -4 -7 3.91 0.18
-1 4 7 3.45 0.17
1 -4 -7 3.43 0.15
-1 4 6 0.49 0.13
1 -4 -6 0.42 0.09
-1 4 6 0.41 0.1
-1 4 6 0.47 0.12
1 -4 -6 0.49 0.08
-1 4 5 0.53 0.1
1 -4 -5 0.55 0.09
-1 4 5 0.68 0.14
-1 4 5 0.51 0.11
-1 4 4 5.37 0.21
1 -4 -4 5.31 0.18
1 -4 -3 4.41 0.15
-1 4 3 5.28 0.33
-1 4 2 2.98 0.19
1 -4 -2 3.72 0.12
-1 4 1 19.46 0.78
-1 4 1 14.16 0.51
-1 4 0 25.55 0.78
-1 4 -1 8.28 0.34
-1 4 -2 15.38 0.54
-1 4 -2 18.94 0.63
-1 4 -3 0.82 0.16
-1 4 -3 0.81 0.15
-1 4 -3 0.6 0.21
-1 4 -4 0.2 0.17
-1 4 -4 0.27 0.13
-1 4 -4 0.24 0.1
-1 4 -4 0.27 0.14
-1 4 -5 4.87 0.39
-1 4 -5 5.44 0.28
-1 4 -5 4.99 0.35
-1 4 -6 0.24 0.15
-1 4 -6 0.15 0.1
-1 4 -6 0.33 0.12
-1 4 -6 0.31 0.08
-1 4 -6 0.16 0.15
-1 4 -7 3.68 0.25
-1 4 -7 3.76 0.17
-1 4 -7 3.31 0.32
-1 4 -8 6.43 0.27
-1 4 -8 6.44 0.32
-1 4 -8 6.8 0.24
-1 4 -9 2.22 0.19
-1 4 -9 2.25 0.13
-1 4 -10 0.16 0.08
-1 4 -13 0.47 0.04
1 -3 -11 2.31 0.12
-1 3 11 2.65 0.15
-1 3 10 0.54 0.1
-1 3 10 0.65 0.14
1 -3 -10 0.44 0.08
1 -3 -10 0.49 0.1
1 -3 -9 3.86 0.17
-1 3 9 3.87 0.24
1 -3 -8 2.83 0.16
1 -3 -8 2.58 0.27
-1 3 8 2.96 0.16
1 -3 -8 3.13 0.15
-1 3 8 3.01 0.23
-1 3 8 2.75 0.16
1 -3 -7 14.89 0.37
1 -3 -7 12.66 0.56
1 -3 -7 14.52 0.39
-1 3 7 13.83 0.37
-1 3 7 13.46 0.38
-1 3 7 14.59 0.45
-1 3 6 10.21 0.34
-1 3 6 10.45 0.31
-1 3 6 9.77 0.29
1 -3 -6 9.61 0.44
1 -3 -5 11.78 0.46
-1 3 5 13.12 0.37
1 -3 -4 15.6 0.5
1 -3 -4 16.35 0.51
-1 3 4 17.25 0.42
1 -3 -3 6.58 0.26
-1 3 3 7.18 0.21
-1 3 3 6.61 0.33
1 -3 -3 6.84 0.27
1 -3 -2 17.33 0.45
1 -3 -2 18.11 0.49
1 -3 -1 1.96 0.12
1 -3 0 13.39 0.36
-1 3 0 11.85 0.4
-1 3 -1 17.32 0.52
1 -3 1 18.66 0.46
-1 3 -2 77.93 1.74
-1 3 -3 46.45 1.14
-1 3 -4 1.81 0.17
-1 3 -5 59.41 1.6
-1 3 -5 60.72 1.42
-1 3 -5 61.59 1.57
-1 3 -5 57.27 1.54
-1 3 -6 3.03 0.27
-1 3 -6 3.54 0.28
-1 3 -6 3.67 0.28
-1 3 -6 3.38 0.2
-1 3 -7 1.44 0.2
-1 3 -7 0.83 0.13
-1 3 -8 20.3 0.48
-1 3 -8 18.71 0.56
-1 3 -8 19.77 0.48
-1 3 -8 20.14 0.73
-1 3 -9 5.94 0.22
-1 3 -9 5.67 0.38
-1 3 -9 6.26 0.26
-1 3 -9 5.68 0.38
-1 3 -9 6.35 0.22
-1 3 -10 0.55 0.19
-1 3 -10 11.28 0.24
-1 2 12 1.44 0.11
-1 2 12 1.82 0.11
-1 2 11 4.63 0.22
1 -2 -11 4.17 0.16
1 -2 -10 1.07 0.11
1 -2 -10 1.03 0.11
1 -2 -9 15.5 0.42
-1 2 9 14.66 0.42
1 -2 -8 4.37 0.18
-1 2 8 3.73 0.18
1 -2 -8 3.64 0.16
1 -2 -8 3.62 0.32
-1 2 7 7.82 0.26
1 -2 -7 8.06 0.42
1 -2 -7 7.87 0.23
1 -2 -6 1.09 0.17
1 -2 -5 14.06 0.49
1 -2 -4 63.91 1.45
1 -2 -3 12.89 0.39
1 -2 -2 4.27 0.17
1 -2 -1 5.44 0.19
1 -2 -1 5.04 0.17
-1 2 0 3.51 0.18
1 -2 0 4.17 0.16
-1 2 -1 0.81 0.09
1 -2 1 0.92 0.07
-1 2 -2 51.85 1.16
-1 2 -3 156.2 2.8
-1 2 -3 152.76 2.83
-1 2 -4 158.82 3.27
-1 2 -4 153.14 3.19
-1 2 -5 16.99 0.53
-1 2 -5 17.13 0.57
-1 2 -6 8.08 0.33
-1 2 -6 7.34 0.27
-1 2 -6 8.14 0.38
-1 2 -7 17.74 0.63
-1 2 -7 15.8 0.48
-1 2 -8 3.87 0.28
-1 2 -8 3 0.17
-1 2 -8 4.04 0.29
-1 2 -8 3.06 0.16
-1 2 -9 3.6 0.15
1 -2 9 3.81 0.16
-1 2 -9 4.06 0.3
1 -2 10 11.03 0.31
-1 2 -10 10.53 0.29
-1 2 -10 11.14 0.51
1 -2 11 0.95 0.11
1 -2 12 0.52 0.1
1 -2 13 0.06 0.07
-1 1 12 0.65 0.1
1 -1 -11 1.14 0.1
1 -1 -11 1.59 0.12
1 -1 -10 0.98 0.12
1 -1 -10 1.01 0.11
1 -1 -10 1.08 0.11
-1 1 9 55.83 1.24
1 -1 -9 57.83 1.24
1 -1 -9 58.36 1.23
1 -1 -9 54.31 1.57
1 -1 -8 10.18 0.28
1 -1 -8 11.07 0.51
1 -1 -8 9.27 0.48
-1 1 8 9.38 0.29
1 -1 -8 7.97 0.26
1 -1 -7 12.78 0.53
1 -1 -7 12.43 0.53
1 -1 -6 6.97 0.35
1 -1 -5 21.41 0.64
1 -1 -4 14.72 0.46
1 -1 -3 0.91 0.09
1 -1 -2 129.89 2.63
1 -1 -1 1.16 0.07
1 -1 0 103.7 2.09
1 -1 1 24.18 0.55
-1 1 -2 212.89 4.19
-1 1 -3 1000 19.52
-1 1 -4 306.58 6.07
-1 1 -4 301.33 6.04
-1 1 -5 1.14 0.13
-1 1 -5 1.31 0.13
-1 1 -6 19.63 0.62
-1 1 -6 23.14 0.67
-1 1 -7 5.65 0.31
-1 1 -7 5.4 0.3
-1 1 -8 0.21 0.12
-1 1 -9 6.33 0.22
-1 1 -9 6.68 0.4
-1 1 -9 5.86 0.35
-1 1 -10 0.33 0.14
-1 1 -10 0.36 0.15
1 -1 10 0.36 0.12
-1 1 -10 0.21 0.08
1 -1 11 0.74 0.13
-1 1 -11 0.7 0.07
-1 1 -11 0.56 0.09
1 -1 12 5.66 0.22
1 -1 13 6.47 0.21
1 -1 13 5.9 0.21
1 -1 14 1.82 0.09
-1 0 13 0.31 0.07
-1 0 13 0.46 0.09
1 0 -12 0.91 0.09
1 0 -11 2.25 0.14
1 0 -10 0.53 0.1
1 0 -10 0.34 0.08
1 0 -10 0.47 0.08
1 0 -9 61.02 1.34
-1 0 9 66.73 1.37
1 0 -9 60.3 1.35
1 0 -9 68.05 1.7
-1 0 9 66.32 1.38
1 0 -9 64.21 1.34
1 0 -8 15 0.37
1 0 -8 14.39 0.59
-1 0 8 13.99 0.39
-1 0 8 14.71 0.4
-1 0 7 4.86 0.19
1 0 -7 4.2 0.28
-1 0 6 22.82 0.52
1 0 -6 22.36 0.67
1 0 -6 21.33 0.7
1 0 -5 13.2 0.47
1 0 -4 16.69 0.38
1 0 -4 21.69 0.55
1 0 -3 8.38 0.28
1 0 -3 7.13 0.19
1 0 -2 8.19 0.25
1 0 -1 167.38 3.31
-1 0 0 58.12 1.13
1 0 0 51.64 1.11
1 0 1 105.66 2.11
-1 0 -2 163.59 3.19
-1 0 -2 157.88 3.19
-1 0 -3 17.38 0.45
-1 0 -3 19.23 0.46
-1 0 -4 35.84 0.82
-1 0 -4 33.37 0.82
-1 0 -5 3.26 0.18
-1 0 -5 3.05 0.17
-1 0 -6 93.44 2.07
-1 0 -6 95.84 2.1
1 0 7 7.6 0.23
-1 0 -7 6.41 0.32
-1 0 -7 7.01 0.36
-1 0 -8 4.31 0.27
-1 0 -8 4.16 0.29
-1 0 -9 0.53 0.08
-1 0 -9 0.49 0.14
-1 0 -10 0.24 0.16
-1 0 -10 0.23 0.13
-1 0 -10 0.17 0.08
1 0 11 1.15 0.15
-1 0 -11 0.91 0.1
1 0 12 5.95 0.22
1 0 12 6.32 0.24
1 0 13 8.66 0.26
1 0 13 7.33 0.24
1 0 14 8.46 0.23
-1 -1 13 6.08 0.2
1 1 -12 1.18 0.1
-1 -1 12 1.51 0.15
1 1 -11 2.28 0.14
-1 -1 10 5.74 0.24
1 1 -10 5.79 0.22
1 1 -10 5.33 0.2
1 1 -9 16.79 0.72
-1 -1 9 18.5 0.46
1 1 -9 16.57 0.44
-1 -1 9 15.89 0.44
1 1 -9 16.58 0.66
1 1 -9 16.63 0.43
-1 -1 8 6.26 0.22
1 1 -8 6.17 0.37
1 1 -8 6.71 0.21
-1 -1 8 6.9 0.24
1 1 -8 7.11 0.43
1 1 -7 23.22 0.55
1 1 -7 24.26 0.81
1 1 -7 23.94 0.76
1 1 -6 39.27 1.02
1 1 -6 38.85 1.06
1 1 -5 17.67 0.55
1 1 -5 18.95 0.58
1 1 -4 1.12 0.08
1 1 -4 1.21 0.11
1 1 -4 0.99 0.11
1 1 -3 1.14 0.1
1 1 -3 1.2 0.07
1 1 -2 23.45 0.54
1 1 -2 24.08 0.56
1 1 -1 33.26 0.77
1 1 -1 38.18 0.78
1 1 0 6.03 0.15
1 1 0 5.94 0.18
1 1 1 4.01 0.14
1 1 1 5.03 0.15
-1 -1 -2 36.44 0.77
-1 -1 -2 34.3 0.72
-1 -1 -3 24.86 0.55
1 1 3 23.11 0.54
-1 -1 -3 24.19 0.58
1 1 4 1.18 0.07
-1 -1 -4 0.59 0.07
-1 -1 -5 3.75 0.21
-1 -1 -5 3.99 0.19
-1 -1 -6 31.57 0.81
-1 -1 -6 30.93 0.84
-1 -1 -7 83.34 1.87
-1 -1 -8 52.38 1.32
-1 -1 -9 7.28 0.38
-1 -1 -10 2.04 0.26
-1 -1 -10 2.12 0.14
-1 -1 -11 5.06 0.2
1 1 11 5.36 0.24
-1 -1 -12 3.77 0.16
1 1 12 3.96 0.19
1 1 12 4.17 0.2
-1 -1 -13 2.44 0.12
1 1 13 2.77 0.15
1 1 14 5.86 0.17
-1 -2 13 7 0.2
1 2 -12 3.83 0.16
-1 -2 12 3.91 0.17
1 2 -11 6.56 0.23
-1 -2 11 6.81 0.24
-1 -2 10 0.16 0.11
1 2 -10 0.13 0.08
1 2 -9 6.25 0.24
1 2 -9 8.96 0.5
1 2 -9 7.33 0.41
1 2 -9 7.24 0.25
-1 -2 9 8.27 0.25
-1 -2 8 7.73 0.24
1 2 -8 8.3 0.47
1 2 -8 7.51 0.4
1 2 -8 7.48 0.24
1 2 -8 6.74 0.24
1 2 -7 13.77 0.58
1 2 -7 11.99 0.51
1 2 -6 13.51 0.51
1 2 -6 15.17 0.57
1 2 -5 67.59 1.6
1 2 -4 2.38 0.14
1 2 -4 3.07 0.18
1 2 -3 20.1 0.54
1 2 -3 19.9 0.55
1 2 -3 21.65 0.59
1 2 -3 24.44 0.63
1 2 -3 25.49 0.69
1 2 -2 77.53 1.74
1 2 -2 75.81 1.68
1 2 -2 74.06 1.61
1 2 -1 22.88 0.54
1 2 -1 21.69 0.63
1 2 0 5.08 0.26
1 2 0 5.56 0.15
1 2 0 5.18 0.12
1 2 1 2.61 0.13
1 2 1 2.59 0.17
1 2 1 2.27 0.16
1 2 2 323.56 6.53
1 2 2 319.73 6.52
-1 -2 -2 328.22 6.4
-1 -2 -3 0.85 0.08
1 2 3 0.86 0.09
1 2 3 1.02 0.07
1 2 4 4.81 0.17
-1 -2 -4 4.65 0.22
-1 -2 -5 0.36 0.06
-1 -2 -5 0.51 0.1
1 2 6 0.95 0.11
-1 -2 -6 0.82 0.13
-1 -2 -6 0.9 0.11
-1 -2 -7 22.64 0.69
-1 -2 -7 22.08 0.76
-1 -2 -8 39.11 1.08
-1 -2 -8 35.55 1.12
1 2 9 27.13 0.65
1 2 9 37.19 0.8
-1 -2 -10 15.3 0.69
1 2 10 17.04 0.5
1 2 11 8.48 0.3
1 2 11 7.89 0.27
1 2 12 0.29 0.12
-1 -2 -12 0.32 0.09
-1 -2 -12 0.23 0.07
1 2 13 0.18 0.09
1 2 14 1.76 0.08
-1 -3 12 2.98 0.12
-1 -3 12 2.9 0.15
1 3 -12 3.19 0.13
1 3 -11 7.67 0.25
1 3 -11 7.22 0.24
-1 -3 11 7.44 0.25
-1 -3 11 7.55 0.23
1 3 -10 6.74 0.22
-1 -3 10 6.74 0.23
1 3 -9 8.7 0.29
1 3 -9 9.44 0.27
1 3 -9 8.79 0.46
1 3 -8 0.17 0.07
1 3 -8 0.29 0.08
1 3 -7 0.25 0.07
1 3 -7 0.21 0.15
1 3 -6 0.45 0.09
1 3 -6 0.32 0.13
1 3 -6 0.46 0.13
1 3 -5 91.65 1.98
1 3 -5 86.37 2.06
1 3 -5 89.47 1.91
1 3 -5 88.65 2.04
1 3 -4 13.31 0.47
1 3 -4 14.75 0.52
1 3 -3 72.77 1.74
1 3 -3 73.99 1.72
1 3 -2 5.05 0.18
1 3 -2 5.6 0.27
1 3 -2 5.28 0.22
1 3 -1 21.55 0.55
1 3 -1 23.16 0.51
1 3 0 0.97 0.16
1 3 0 0.89 0.06
1 3 0 0.99 0.11
-1 -3 -1 1.23 0.07
1 3 1 1.36 0.18
1 3 1 1.63 0.13
1 3 2 182.16 4.18
1 3 2 205.68 4.04
-1 -3 -3 118.92 2.41
1 3 3 110.1 2.57
1 3 4 19.77 0.5
-1 -3 -4 18.63 0.53
-1 -3 -5 8.74 0.36
-1 -3 -6 1.08 0.16
1 3 6 1.07 0.11
-1 -3 -6 1.09 0.12
1 3 7 5.63 0.25
-1 -3 -7 4.68 0.31
1 3 8 9.68 0.36
1 3 9 1.52 0.18
-1 -3 -9 1.27 0.22
1 3 9 1.23 0.12
1 3 10 1.15 0.13
1 3 10 1.36 0.16
1 3 11 2.33 0.14
1 3 11 2.17 0.15
1 3 12 4.03 0.17
-1 -3 -12 3.61 0.15
-1 -4 12 0.21 0.08
1 4 -12 0.19 0.06
1 4 -11 1.81 0.11
1 4 -11 1.83 0.12
-1 -4 11 1.71 0.13
-1 -4 10 10.73 0.31
1 4 -10 9.96 0.3
1 4 -9 12.83 0.37
1 4 -9 12.24 0.36
1 4 -9 13.24 0.36
1 4 -8 5.16 0.21
1 4 -8 4.96 0.36
1 4 -7 6.94 0.25
1 4 -7 6.73 0.23
1 4 -7 6.94 0.41
1 4 -6 0.2 0.08
1 4 -6 0.29 0.12
1 4 -6 0.24 0.13
1 4 -6 0.25 0.07
1 4 -6 0.33 0.11
1 4 -5 18.85 0.66
1 4 -5 19.2 0.7
1 4 -5 18.7 0.57
1 4 -4 0.71 0.11
1 4 -4 0.7 0.2
1 4 -4 0.48 0.13
1 4 -4 0.53 0.1
1 4 -4 0.75 0.09
1 4 -3 26.39 0.71
1 4 -3 27.87 0.88
1 4 -3 27.56 0.71
1 4 -3 28.91 0.81
1 4 -2 21.73 0.62
1 4 -2 23.06 0.57
1 4 -2 20.91 0.74
1 4 -1 9.37 0.27
1 4 -1 11.42 0.64
1 4 0 22.51 0.73
1 4 1 12.84 0.5
1 4 1 12.78 0.67
-1 -4 -2 32.31 0.78
1 4 2 35.48 1.17
1 4 3 16.6 0.4
-1 -4 -3 15.94 0.45
1 4 4 11.55 0.3
-1 -4 -4 11.91 0.4
1 4 4 12.08 0.42
1 4 5 31.23 0.71
-1 -4 -5 31.74 0.85
1 4 6 2.73 0.14
-1 -4 -6 2.52 0.21
1 4 6 2.75 0.16
1 4 7 9.33 0.32
1 4 7 8.54 0.27
-1 -4 -8 4.97 0.35
1 4 8 6.24 0.27
1 4 9 1.22 0.14
1 4 9 1.64 0.14
1 4 10 7.67 0.25
1 4 10 7.12 0.24
-1 -4 -11 2.32 0.13
1 4 11 2.24 0.13
-1 -4 -12 4.35 0.15
-1 -4 -12 5.7 0.18
1 5 -11 0.3 0.07
-1 -5 11 0.38 0.09
1 5 -10 1.27 0.11
1 5 -9 15.63 0.42
1 5 -8 14.11 0.41
1 5 -8 13.75 0.4
1 5 -7 14.35 0.42
1 5 -7 13.54 0.66
1 5 -7 16.16 0.41
1 5 -7 14.68 0.44
1 5 -7 15.99 0.53
1 5 -7 14.67 0.4
1 5 -6 0.93 0.12
1 5 -6 0.88 0.1
1 5 -6 0.96 0.1
1 5 -6 0.87 0.2
1 5 -6 0.93 0.12
1 5 -6 0.83 0.18
1 5 -6 0.87 0.16
1 5 -5 0.31 0.09
1 5 -5 0.35 0.08
1 5 -5 0.32 0.17
1 5 -5 0.38 0.16
1 5 -5 0.48 0.12
1 5 -5 0.29 0.22
1 5 -5 0.34 0.13
1 5 -4 10.51 0.7
1 5 -4 9.36 0.35
1 5 -3 6.63 0.29
1 5 -3 6.09 0.29
1 5 -2 51.4 1.22
1 5 -2 52.61 1.22
1 5 -1 38.46 0.99
1 5 -1 38.53 1.26
1 5 0 17.3 0.72
1 5 0 17.23 0.51
1 5 1 0.98 0.26
1 5 1 0.77 0.11
1 5 2 0.95 0.07
1 5 2 0.99 0.23
1 5 2 0.86 0.1
1 5 2 1.03 0.19
1 5 3 2.48 0.15
1 5 3 2.87 0.12
1 5 3 2.71 0.32
1 5 4 3.97 0.26
1 5 4 2.76 0.16
1 5 4 2.95 0.31
1 5 4 3.56 0.14
1 5 5 7.26 0.22
1 5 5 7.73 0.26
1 5 6 4.25 0.18
1 5 6 4.15 0.18
1 5 7 6.31 0.24
1 5 8 8.87 0.29
1 5 9 0.48 0.12
1 5 10 0.15 0.1
-1 -5 -10 0.18 0.08
1 5 10 0.05 0.08
-1 -5 -11 0.2 0.06
1 5 11 0.16 0.08
1 6 -11 0.43 0.06
-1 -6 11 0.47 0.07
1 6 -9 0.22 0.09
1 6 -8 1.31 0.13
1 6 -7 9.2 0.39
1 6 -7 8.12 0.29
1 6 -6 10.16 0.35
1 6 -6 10.48 0.45
1 6 -6 10.57 0.32
1 6 -5 2.93 0.16
1 6 -5 2.75 0.19
1 6 -5 3.4 0.47
1 6 -5 2.66 0.32
1 6 -4 2.01 0.15
1 6 -4 2.23 0.22
1 6 -4 2.74 0.23
1 6 -4 2.08 0.3
1 6 -4 2.75 0.47
1 6 -4 2.14 0.15
1 6 -4 1.78 0.13
1 6 -3 0.57 0.34
1 6 -3 0.3 0.15
1 6 -3 0.21 0.09
1 6 -3 0.41 0.1
1 6 -3 0.31 0.1
1 6 -3 0.44 0.16
1 6 -3 0.36 0.14
1 6 -2 0.86 0.15
1 6 -2 0.85 0.11
1 6 -2 0.94 0.18
1 6 -2 0.67 0.35
1 6 -2 0.6 0.12
1 6 -2 0.68 0.08
1 6 -1 2.24 0.23
1 6 -1 2.11 0.14
1 6 -1 2.52 0.22
1 6 -1 2.34 0.14
1 6 -1 2.06 0.33
1 6 -1 2.29 0.48
1 6 -1 2.05 0.16
1 6 -1 2.18 0.11
1 6 0 3.88 0.18
1 6 0 3.51 0.52
1 6 0 3.63 0.24
1 6 0 3.83 0.16
1 6 0 3.66 0.41
1 6 0 3.38 0.19
1 6 0 3.43 0.14
1 6 1 11.06 0.44
1 6 1 12.94 0.89
1 6 1 13.78 0.4
1 6 1 10.05 0.43
1 6 1 13.17 0.33
1 6 1 8.41 0.9
1 6 2 7.15 0.9
1 6 2 8.2 0.68
1 6 2 8.78 0.26
1 6 2 7.19 0.33
1 6 2 8.94 0.25
1 6 3 1.01 0.2
1 6 3 0.81 0.09
1 6 3 0.94 0.1
1 6 3 0.59 0.23
1 6 3 0.82 0.12
1 6 4 1.56 0.13
1 6 4 1.38 0.1
1 6 4 1.49 0.11
1 6 5 10.47 0.31
1 6 5 10.53 0.29
1 6 7 8.66 0.28
-1 -6 -8 3.67 0.17
-1 -6 -9 0.43 0.08
1 6 9 0.33 0.11
1 6 9 0.19 0.09
1 6 10 0.13 0.06
-1 -6 -10 0.16 0.06
1 6 10 0.13 0.08
1 7 -8 0.19 0.11
1 7 -7 3.61 0.22
1 7 -7 4.37 0.25
1 7 -6 8.55 0.33
1 7 -6 5.1 0.84
1 7 -5 5.08 0.25
1 7 -5 6.04 0.34
1 7 -4 0.39 0.18
1 7 -4 0.67 0.13
1 7 -3 0.38 0.38
1 7 -3 0.33 0.1
1 7 -3 0.24 0.18
1 7 -3 0.5 0.23
1 7 -3 0.25 0.08
1 7 -2 2.27 0.28
1 7 -2 1.86 0.54
1 7 -2 1.15 0.12
1 7 -2 1.62 0.23
1 7 -2 1.54 0.17
1 7 -2 1.53 0.12
1 7 -1 -0.03 0.25
1 7 -1 0.21 0.2
1 7 -1 0.26 0.11
1 7 -1 -0.03 0.34
1 7 -1 0.33 0.16
1 7 0 1.84 0.14
1 7 0 1 0.31
1 7 0 1.22 0.13
1 7 0 1.46 0.21
1 7 0 1.38 0.23
1 7 0 1.32 0.45
1 7 1 4.52 0.47
1 7 1 4.17 0.2
1 7 1 3.98 0.3
1 7 1 3.78 0.59
1 7 1 4.36 0.18
1 7 2 8.06 0.54
1 7 2 5.94 0.33
1 7 2 7.73 0.27
1 7 2 5.56 0.63
1 7 2 7.14 0.23
1 7 3 4.38 0.17
1 7 3 4.98 0.22
1 7 4 5.08 0.22
1 7 4 4.57 0.18
1 7 5 3.27 0.18
1 7 5 3.3 0.22
1 7 5 2.77 0.15
1 7 6 0.55 0.16
-1 -7 -7 1.59 0.1
1 7 7 1.41 0.11
-1 -7 -8 2.68 0.12
1 7 8 3.04 0.15
1 7 8 2.81 0.16
1 7 9 0.69 0.07
1 8 -9 0.1 0.04
1 8 -8 0.14 0.08
1 8 -8 0.02 0.06
1 8 -7 0.26 0.12
1 8 -7 0.23 0.09
1 8 -6 2.52 0.16
1 8 -6 3.29 0.2
1 8 -5 3.3 0.19
1 8 -5 4.24 0.26
1 8 -4 1.09 0.13
1 8 -4 1.08 0.19
1 8 -3 7.76 1.18
1 8 -3 5.47 0.36
1 8 -2 0.36 0.19
1 8 -2 0.53 0.14
1 8 -2 0.33 0.09
1 8 -1 0.32 0.12
1 8 -1 -0.04 0.17
1 8 -1 0.06 0.12
1 8 0 0.55 0.16
1 8 0 1.17 0.12
1 8 1 0.46 0.11
1 8 1 0.18 0.2
1 8 2 1.05 0.11
1 8 2 0.71 0.14
1 8 3 2.65 0.14
1 8 3 3.59 0.21
1 8 4 3.51 0.15
1 8 4 4.28 0.21
1 8 4 4.25 0.28
1 8 5 3.71 0.19
1 8 5 3.85 0.27
1 8 5 3.66 0.23
1 8 6 0.22 0.1
1 8 6 0.27 0.15
1 8 7 0.09 0.06
1 8 8 0.16 0.06
1 8 8 0.11 0.05
1 9 -6 -0.09 0.08
1 9 -4 0.14 0.1
1 9 -3 2.2 0.15
1 9 -3 2.77 0.2
1 9 -2 0.7 0.12
1 9 -1 -0.06 0.1
1 9 0 0.1 0.09
1 9 0 0.11 0.11
1 9 1 0.29 0.09
1 9 1 0.2 0.14
1 9 1 0.19 0.14
1 9 2 0.11 0.1
1 9 2 0.14 0.08
1 9 2 -0.1 0.17
1 9 3 1.14 0.09
1 9 4 1.44 0.17
1 9 5 0.94 0.11
1 10 -2 1.83 0.12
1 10 -2 1.79 0.09
1 10 -1 1.61 0.12
1 10 -1 1.74 0.09
1 10 0 1.27 0.09
-2 8 2 0.23 0.06
-2 8 2 0.11 0.05
2 -7 -5 2.18 0.08
-2 7 5 3.01 0.11
-2 7 4 0.55 0.09
2 -7 -4 0.4 0.05
-2 7 2 0.13 0.11
-2 7 1 -0.08 0.13
-2 7 1 0.14 0.13
-2 7 0 0.6 0.18
-2 7 0 0.47 0.18
-2 7 0 0.61 0.19
-2 7 -1 1.99 0.24
-2 7 -1 1.33 0.22
-2 7 -1 1.45 0.1
-2 7 -1 1.45 0.26
-2 7 -2 1.38 0.2
-2 7 -2 0.88 0.21
-2 7 -2 1.18 0.1
-2 7 -3 1.21 0.18
-2 7 -3 1.2 0.11
-2 7 -3 1.14 0.24
-2 7 -4 0.09 0.11
-2 7 -4 0.12 0.16
-2 7 -4 0.06 0.1
-2 7 -4 -0.03 0.14
-2 7 -5 0.16 0.11
-2 7 -5 0.12 0.13
-2 7 -6 -0.03 0.09
-2 7 -6 0.11 0.09
-2 7 -6 0.05 0.1
-2 7 -7 0.8 0.1
-2 7 -7 1.08 0.1
-2 7 -8 1.71 0.1
-2 7 -9 0.83 0.05
-2 6 8 1.19 0.06
2 -6 -7 0.26 0.04
-2 6 6 0.22 0.08
2 -6 -6 0.26 0.05
-2 6 5 5.52 0.2
2 -6 -5 5.92 0.18
-2 6 4 1.66 0.14
-2 6 4 2.4 0.26
-2 6 3 0.73 0.13
-2 6 3 0.71 0.28
-2 6 2 0.8 0.15
-2 6 2 1.29 0.15
-2 6 1 2.06 0.25
-2 6 1 2.18 0.28
-2 6 0 0.03 0.22
-2 6 0 0.22 0.2
-2 6 0 0.09 0.18
-2 6 -1 0.56 0.28
-2 6 -1 0.52 0.15
-2 6 -1 0.29 0.2
-2 6 -1 0.37 0.1
-2 6 -1 0.28 0.15
-2 6 -2 2.76 0.21
-2 6 -2 2.78 0.38
-2 6 -2 2.47 0.16
-2 6 -3 2.48 0.24
-2 6 -3 2.25 0.22
-2 6 -3 2.33 0.17
-2 6 -4 1.29 0.2
-2 6 -4 1.32 0.19
-2 6 -4 1.81 0.27
-2 6 -4 1.27 0.16
-2 6 -5 4.49 0.29
-2 6 -5 4.67 0.25
-2 6 -5 4 0.28
-2 6 -6 1.13 0.17
-2 6 -6 0.74 0.17
-2 6 -6 1.04 0.16
-2 6 -6 1.01 0.13
-2 6 -6 1.2 0.12
-2 6 -7 0.37 0.09
-2 6 -7 0.38 0.13
-2 6 -7 0.19 0.12
-2 6 -8 0.05 0.07
-2 6 -8 0 0.09
-2 6 -8 -0.18 0.17
-2 6 -9 0.07 0.06
-2 6 -9 0.1 0.06
-2 6 -11 0.63 0.05
-2 5 9 1.53 0.07
2 -5 -8 0.7 0.07
2 -5 -8 0.53 0.06
-2 5 7 1.4 0.11
2 -5 -7 1.34 0.09
-2 5 7 1.32 0.11
2 -5 -7 1.21 0.09
-2 5 6 0.53 0.1
-2 5 6 0.52 0.14
2 -5 -6 0.58 0.08
2 -5 -6 0.53 0.08
-2 5 5 2.93 0.16
2 -5 -5 3.17 0.14
-2 5 4 1.2 0.26
2 -5 -4 0.82 0.08
-2 5 3 0.14 0.1
-2 5 3 0.57 0.26
-2 5 2 8.76 0.32
-2 5 2 7.52 0.55
-2 5 1 9.99 0.7
-2 5 1 10.18 0.39
-2 5 0 5.68 0.42
-2 5 0 6.51 0.67
-2 5 0 6.17 0.35
-2 5 0 5.47 0.25
-2 5 0 5.01 0.32
-2 5 -1 0.46 0.25
-2 5 -1 0.14 0.17
-2 5 -1 0.34 0.14
-2 5 -1 0.17 0.3
-2 5 -1 0.31 0.09
-2 5 -2 0.07 0.12
-2 5 -2 0.22 0.14
-2 5 -2 0.09 0.28
-2 5 -2 0.11 0.09
-2 5 -2 0.15 0.26
-2 5 -2 0.12 0.11
-2 5 -2 0.03 0.16
-2 5 -3 4.91 0.25
-2 5 -3 3.59 0.31
-2 5 -3 5.99 0.44
-2 5 -3 4.38 0.18
-2 5 -3 3.19 0.49
-2 5 -4 1.37 0.12
-2 5 -4 1.43 0.19
-2 5 -4 1.07 0.17
-2 5 -4 1.52 0.19
-2 5 -4 1.03 0.21
-2 5 -4 0.96 0.3
-2 5 -5 7.69 0.37
-2 5 -5 6.56 0.47
-2 5 -5 7.89 0.59
-2 5 -5 8.55 0.37
-2 5 -5 8.27 0.28
-2 5 -5 7.14 0.31
-2 5 -6 6.45 0.34
-2 5 -6 6.91 0.25
-2 5 -6 6.18 0.26
-2 5 -6 6.68 0.34
-2 5 -6 7.33 0.34
-2 5 -7 0.24 0.16
-2 5 -7 0.39 0.15
-2 5 -7 0.53 0.1
-2 5 -7 0.57 0.11
-2 5 -8 0.19 0.14
-2 5 -8 0.28 0.13
-2 5 -8 0.45 0.1
-2 5 -9 3.03 0.19
-2 5 -9 3.22 0.15
-2 5 -10 0.12 0.06
-2 5 -11 0.45 0.05
2 -5 11 0.54 0.07
-2 4 10 0.12 0.05
2 -4 -9 1.2 0.09
2 -4 -9 1.42 0.09
2 -4 -8 3.05 0.15
2 -4 -8 2.99 0.14
-2 4 7 9.41 0.28
2 -4 -7 9.55 0.28
2 -4 -7 9.36 0.28
-2 4 6 3.36 0.16
2 -4 -6 3.53 0.17
2 -4 -6 3.36 0.16
-2 4 6 3.8 0.21
-2 4 5 5.72 0.21
2 -4 -5 5.92 0.21
2 -4 -4 0.29 0.07
-2 4 4 0.53 0.19
2 -4 -3 0.65 0.07
-2 4 3 0.44 0.1
2 -4 -2 6.83 0.19
-2 4 2 7.28 0.49
-2 4 1 19.54 0.47
-2 4 1 15.43 0.64
-2 4 0 22.31 0.53
-2 4 0 18.29 0.78
-2 4 -1 24.87 0.77
-2 4 -2 0.23 0.12
-2 4 -2 0.27 0.22
-2 4 -3 1.42 0.2
-2 4 -3 1.36 0.1
-2 4 -3 1.87 0.26
-2 4 -3 1.41 0.13
-2 4 -4 0.46 0.08
-2 4 -4 0.31 0.16
-2 4 -4 0.52 0.12
-2 4 -4 0.4 0.18
-2 4 -5 6.64 0.24
-2 4 -5 6.4 0.44
-2 4 -5 7.94 0.37
-2 4 -5 5.54 0.47
-2 4 -5 6.36 0.32
-2 4 -5 7.03 0.29
-2 4 -6 19.56 0.85
-2 4 -6 22.05 0.53
-2 4 -6 20.05 0.54
-2 4 -6 21.11 0.65
-2 4 -6 20.58 0.6
-2 4 -6 19.91 0.84
-2 4 -7 1 0.16
-2 4 -7 0.79 0.23
-2 4 -7 0.79 0.15
-2 4 -7 0.86 0.11
-2 4 -8 0.19 0.1
-2 4 -8 0.26 0.13
-2 4 -8 0.3 0.13
-2 4 -9 0.84 0.14
-2 4 -9 0.7 0.1
-2 4 -9 1.1 0.14
-2 4 -10 0.24 0.08
2 -4 11 0.46 0.09
-2 4 -11 0.31 0.07
-2 4 -12 0.28 0.05
2 -4 12 0.28 0.06
-2 3 10 0.17 0.07
2 -3 -10 0.17 0.07
2 -3 -9 0.66 0.1
2 -3 -9 0.93 0.1
-2 3 9 0.63 0.12
-2 3 8 0.53 0.13
2 -3 -8 0.49 0.11
-2 3 8 0.63 0.11
2 -3 -8 0.64 0.1
-2 3 7 11.33 0.32
2 -3 -7 11.22 0.33
-2 3 7 10.68 0.36
-2 3 7 10.94 0.33
2 -3 -7 11.7 0.33
-2 3 6 22.92 0.57
-2 3 6 23.26 0.55
-2 3 6 23.25 0.6
2 -3 -6 22.81 0.79
2 -3 -6 24.27 0.57
2 -3 -6 23.49 0.56
2 -3 -5 28.05 0.64
2 -3 -5 27.08 0.85
-2 3 5 28.74 0.67
-2 3 5 27.75 0.67
-2 3 4 0.53 0.08
2 -3 -4 0.56 0.13
2 -3 -4 0.48 0.07
-2 3 3 1.6 0.1
2 -3 -3 1.66 0.16
2 -3 -3 1.71 0.09
2 -3 -2 0.49 0.1
-2 3 2 0.5 0.12
2 -3 -2 0.43 0.05
-2 3 1 19.05 0.67
2 -3 -1 19.66 0.56
2 -3 -1 20.17 0.44
-2 3 0 7.19 0.33
2 -3 0 7.72 0.3
-2 3 -1 29.43 0.83
2 -3 1 30.19 0.75
-2 3 -2 3.32 0.24
-2 3 -2 5.38 0.36
-2 3 -3 0.48 0.13
-2 3 -3 0.87 0.18
-2 3 -4 0.51 0.15
-2 3 -4 0.3 0.13
-2 3 -5 0.45 0.13
-2 3 -5 0.39 0.16
-2 3 -6 31.3 1.02
-2 3 -6 31.39 1.02
-2 3 -6 32.47 0.84
-2 3 -7 13.93 0.42
-2 3 -7 14.66 0.66
-2 3 -7 15.28 0.5
-2 3 -8 19.34 0.79
-2 3 -8 20.17 0.54
-2 3 -8 20.62 0.61
-2 3 -9 4.88 0.24
-2 3 -9 5.27 0.22
-2 3 -10 0.24 0.09
2 -3 11 0.26 0.09
2 -3 12 0.1 0.07
2 -3 13 0.02 0.06
2 -2 -11 3.1 0.13
-2 2 11 3.13 0.14
2 -2 -11 3.25 0.13
2 -2 -10 0.28 0.08
2 -2 -10 0.28 0.1
-2 2 10 0.25 0.11
2 -2 -9 2.24 0.14
-2 2 9 2.04 0.17
2 -2 -9 1.78 0.13
-2 2 9 1.87 0.14
2 -2 -8 1.92 0.14
-2 2 8 2.14 0.15
2 -2 -7 3.48 0.31
-2 2 7 3.56 0.2
2 -2 -7 4.1 0.18
-2 2 7 3.91 0.19
-2 2 6 39.55 0.93
2 -2 -6 36.9 1.11
2 -2 -6 40.77 0.89
2 -2 -6 37.88 1.12
2 -2 -6 39.98 0.89
2 -2 -5 68.57 1.69
-2 2 5 73.29 1.51
2 -2 -5 69.79 1.7
2 -2 -5 72.16 1.48
2 -2 -4 9.99 0.4
2 -2 -4 10.11 0.39
2 -2 -4 9.75 0.26
-2 2 4 10.34 0.28
2 -2 -3 1.33 0.14
-2 2 3 1.37 0.08
2 -2 -3 1.26 0.07
2 -2 -2 36.92 0.91
2 -2 -1 1.18 0.11
2 -2 0 10.74 0.35
2 -2 1 67.62 1.49
2 -2 2 15.39 0.41
-2 2 -2 11.75 0.31
-2 2 -4 65.34 1.38
-2 2 -4 59.3 1.5
-2 2 -5 92.21 2.12
-2 2 -5 98.25 2.02
-2 2 -6 89.27 2.12
-2 2 -6 91.42 2.1
-2 2 -6 89 1.92
-2 2 -7 4.45 0.3
-2 2 -7 3.55 0.2
-2 2 -8 1.81 0.22
-2 2 -8 1.3 0.11
2 -2 9 3.85 0.17
-2 2 -9 3.98 0.3
-2 2 -9 3.97 0.17
-2 2 -10 4.31 0.17
2 -2 10 3.93 0.17
2 -2 11 0.51 0.1
-2 2 -11 0.51 0.08
2 -2 11 0.46 0.1
2 -2 12 0.72 0.09
-2 2 -12 0.25 0.13
2 -2 13 1.96 0.11
2 -1 -12 1.71 0.08
-2 1 11 2.51 0.15
2 -1 -11 2.41 0.12
-2 1 10 2.47 0.17
2 -1 -10 2.12 0.13
2 -1 -10 2.38 0.16
-2 1 9 1.33 0.16
2 -1 -9 0.91 0.12
-2 1 9 1.02 0.15
2 -1 -9 0.93 0.11
2 -1 -8 0.39 0.18
2 -1 -8 0.55 0.18
2 -1 -8 0.33 0.09
-2 1 8 0.21 0.12
2 -1 -8 0.29 0.1
2 -1 -7 3.52 0.16
2 -1 -7 3.26 0.15
-2 1 7 4.01 0.19
2 -1 -7 3.52 0.3
2 -1 -6 12.93 0.34
2 -1 -6 11.61 0.51
2 -1 -5 33.53 0.93
2 -1 -4 2.38 0.14
2 -1 -4 2.65 0.11
2 -1 -4 2.67 0.19
2 -1 -3 10.4 0.36
2 -1 -2 0.94 0.1
2 -1 -1 19.89 0.53
2 -1 0 6.54 0.24
-2 1 0 6.31 0.26
-2 1 -1 10.76 0.36
2 -1 1 11.12 0.34
2 -1 2 10.75 0.33
-2 1 -2 9.62 0.33
-2 1 -3 131.62 2.66
-2 1 -3 123.19 2.56
-2 1 -4 126.71 2.68
-2 1 -4 137.64 2.77
-2 1 -5 80.48 1.77
-2 1 -5 76.5 1.71
-2 1 -6 5.13 0.28
-2 1 -6 5.11 0.26
-2 1 -7 7.59 0.35
-2 1 -7 7.36 0.36
-2 1 -8 0.42 0.07
-2 1 -8 0.61 0.14
-2 1 -9 1.48 0.19
2 -1 9 1.58 0.12
2 -1 10 6.81 0.23
2 -1 10 7.55 0.25
-2 1 -10 7.4 0.4
-2 1 -10 6.66 0.22
-2 1 -10 7.78 0.41
-2 1 -11 4.32 0.18
2 -1 11 5.05 0.2
2 -1 11 4.09 0.18
-2 1 -11 4.69 0.16
-2 1 -12 4.46 0.15
2 -1 12 4.76 0.19
2 -1 13 0.11 0.09
2 -1 13 0.19 0.09
-2 0 13 0.16 0.06
2 0 -12 0.28 0.07
-2 0 12 0.3 0.07
2 0 -11 4.97 0.2
2 0 -10 17.15 0.44
-2 0 10 19.66 0.5
2 0 -9 16.42 0.44
-2 0 9 18.01 0.48
2 0 -9 17.2 0.46
2 0 -8 4.94 0.37
2 0 -8 5.09 0.19
2 0 -8 4.67 0.36
-2 0 8 5.35 0.23
2 0 -7 3.52 0.29
2 0 -7 3.47 0.3
2 0 -7 3.53 0.15
-2 0 7 3.63 0.19
2 0 -6 1.11 0.18
2 0 -6 1.15 0.09
-2 0 6 1.21 0.1
2 0 -5 9.43 0.25
-2 0 5 9.59 0.26
2 0 -5 9.07 0.4
2 0 -4 0.55 0.07
2 0 -4 0.68 0.12
2 0 -3 88.11 1.92
2 0 -3 99.87 2
2 0 -2 136.3 2.79
2 0 -1 86.99 1.82
-2 0 0 9.13 0.28
2 0 0 7.6 0.26
-2 0 -1 60.47 1.26
2 0 1 56.31 1.25
-2 0 -2 125.99 2.55
2 0 2 123.02 2.53
-2 0 -3 34.2 0.79
-2 0 -4 0.92 0.09
-2 0 -4 0.85 0.09
-2 0 -5 89.59 1.92
-2 0 -5 87.97 1.92
-2 0 -6 75.38 1.7
-2 0 -6 76.34 1.72
-2 0 -7 1.58 0.17
2 0 7 1.53 0.08
-2 0 -7 1.33 0.14
-2 0 -8 1.42 0.16
2 0 8 1.51 0.11
-2 0 -8 1.34 0.18
2 0 9 0.85 0.11
2 0 9 0.88 0.1
-2 0 -9 0.71 0.15
-2 0 -9 0.83 0.17
2 0 10 11.33 0.33
2 0 10 10.36 0.31
-2 0 -11 10.19 0.29
2 0 11 9.41 0.31
-2 0 -12 5.86 0.21
2 0 12 5.45 0.22
-2 0 -12 5.74 0.18
2 0 13 2.15 0.14
2 0 13 2.01 0.13
2 0 14 0.22 0.08
2 0 14 0.28 0.07
-2 -1 13 0.48 0.07
2 1 -12 0.93 0.09
2 1 -11 0.16 0.08
-2 -1 10 6.06 0.25
2 1 -10 5.89 0.23
2 1 -9 16.66 0.43
2 1 -9 17.73 0.71
-2 -1 9 16.9 0.47
2 1 -8 9.27 0.48
-2 -1 8 10 0.3
2 1 -8 9.55 0.28
2 1 -8 9.57 0.52
-2 -1 8 9.78 0.32
-2 -1 7 70.24 1.42
2 1 -7 67.69 1.7
2 1 -7 69.38 1.42
2 1 -7 64.37 1.74
2 1 -7 60.8 1.42
-2 -1 7 75.92 1.46
2 1 -6 14.03 0.54
2 1 -6 14.85 0.38
2 1 -4 4.15 0.18
2 1 -3 0.64 0.09
2 1 -2 59.62 1.29
2 1 -1 76.27 1.68
2 1 -1 82.01 1.65
-2 -1 0 75.27 1.48
2 1 0 69.28 1.5
2 1 1 15.33 0.46
-2 -1 -1 16.45 0.36
2 1 2 276.13 5.59
2 1 3 4.1 0.21
-2 -1 -3 3.76 0.14
2 1 4 11.19 0.35
-2 -1 -4 10.12 0.3
2 1 5 55.82 1.24
-2 -1 -5 59.34 1.27
-2 -1 -6 53.8 1.24
-2 -1 -6 54.78 1.31
-2 -1 -7 7.25 0.31
-2 -1 -7 7.83 0.37
2 1 7 7.56 0.22
-2 -1 -8 29.43 0.84
2 1 8 32 0.72
-2 -1 -8 30.53 0.93
2 1 9 0.31 0.1
2 1 9 0.31 0.11
-2 -1 -9 0.3 0.16
2 1 10 1.07 0.14
-2 -1 -10 0.98 0.19
2 1 10 0.88 0.14
2 1 11 3.79 0.2
-2 -1 -11 3.48 0.17
-2 -1 -12 5.8 0.21
2 1 12 6.42 0.25
2 1 12 6.31 0.25
2 1 13 2.2 0.15
2 1 13 1.88 0.13
-2 -1 -13 1.9 0.11
2 1 14 0.22 0.08
2 1 14 0.19 0.06
-2 -2 13 0.36 0.06
2 2 -13 0.38 0.04
-2 -2 12 0.57 0.1
2 2 -12 0.48 0.08
2 2 -11 0.51 0.09
2 2 -10 0.28 0.1
-2 -2 10 0.12 0.11
-2 -2 9 4.87 0.21
2 2 -9 4.99 0.36
-2 -2 9 5.78 0.23
2 2 -9 5.37 0.22
2 2 -8 1.42 0.21
-2 -2 8 1.53 0.13
2 2 -8 1.35 0.12
2 2 -8 1.29 0.11
-2 -2 8 1.35 0.12
2 2 -7 91.46 2.23
-2 -2 7 90.35 1.83
-2 -2 7 88.48 1.85
2 2 -6 54.99 1.46
2 2 -5 16.93 0.6
2 2 -5 16.28 0.56
2 2 -4 0.51 0.1
2 2 -4 0.34 0.1
2 2 -4 0.46 0.09
2 2 -3 12.61 0.4
2 2 -3 11.45 0.37
2 2 -2 31.16 0.76
2 2 -2 30.42 0.76
2 2 -1 62.96 1.3
2 2 -1 58.79 1.34
2 2 -1 62.32 1.39
2 2 0 11.58 0.26
2 2 0 11.11 0.34
2 2 0 11.35 0.24
2 2 1 339.49 8.53
2 2 1 361.2 8.41
2 2 1 348.66 8.5
2 2 2 43.97 1.05
-2 -2 -3 4.37 0.12
-2 -2 -3 4.72 0.2
2 2 3 4.81 0.23
2 2 4 0.36 0.07
-2 -2 -4 0.48 0.05
-2 -2 -4 0.25 0.07
-2 -2 -5 11.67 0.33
-2 -2 -5 11.33 0.4
-2 -2 -6 68.86 1.48
-2 -2 -6 67.52 1.59
2 2 6 67.44 1.38
2 2 7 3.02 0.18
-2 -2 -7 2.92 0.24
-2 -2 -8 31.88 1.02
2 2 8 39.31 0.94
-2 -2 -9 9.23 0.47
2 2 9 8.56 0.28
2 2 10 3.28 0.18
2 2 10 3.56 0.23
2 2 11 0.33 0.13
2 2 11 0.42 0.15
-2 -2 -11 0.56 0.12
2 2 12 4.36 0.2
-2 -2 -12 4.83 0.19
2 2 12 4.11 0.21
2 2 13 3.44 0.16
-2 -2 -13 3.76 0.14
2 2 13 3.08 0.15
2 2 13 2.76 0.15
2 2 14 0.26 0.06
-2 -2 -14 0.24 0.05
-2 -3 12 0.63 0.07
2 3 -12 0.66 0.07
2 3 -12 0.75 0.08
2 3 -11 0.85 0.1
-2 -3 11 0.65 0.11
2 3 -10 3.23 0.15
2 3 -10 3.16 0.16
-2 -3 10 3.04 0.16
2 3 -9 0.18 0.09
2 3 -9 0.12 0.09
-2 -3 9 0.28 0.1
2 3 -8 2.99 0.15
-2 -3 8 3.29 0.16
-2 -3 8 2.88 0.15
2 3 -8 2.93 0.16
2 3 -8 2.99 0.27
2 3 -7 28.8 0.68
2 3 -7 28.69 0.91
2 3 -7 27.92 0.66
2 3 -6 42.16 1.18
2 3 -5 51.31 1.33
2 3 -4 113.83 2.35
2 3 -4 120.82 2.56
2 3 -4 119.06 2.52
2 3 -3 23.49 0.7
2 3 -3 22.92 0.69
2 3 -2 2.9 0.23
2 3 -2 2.86 0.18
2 3 -2 2.57 0.18
2 3 -1 5.01 0.19
2 3 -1 4.79 0.29
2 3 -1 4.14 0.13
2 3 -1 4.16 0.22
2 3 0 17.56 0.42
2 3 0 20.18 0.68
2 3 0 22.08 0.69
2 3 0 19.75 0.57
2 3 0 18.85 0.54
2 3 1 118.73 2.53
2 3 1 117.31 2.48
2 3 2 24.02 0.79
2 3 2 24.33 0.64
-2 -3 -3 172.83 3.53
2 3 3 181.09 3.56
-2 -3 -4 87.7 1.91
2 3 4 91.79 1.9
2 3 5 3.96 0.18
-2 -3 -6 1.74 0.18
2 3 6 0.45 0.11
2 3 7 0.96 0.16
-2 -3 -7 0.76 0.15
2 3 8 9.08 0.29
-2 -3 -8 9.99 0.48
2 3 8 9.33 0.27
2 3 9 6.86 0.25
-2 -3 -9 7.22 0.42
2 3 9 6.6 0.23
2 3 10 0.78 0.13
2 3 10 0.65 0.12
2 3 11 0.65 0.13
2 3 11 0.65 0.11
2 3 11 1.06 0.17
2 3 11 0.84 0.16
2 3 12 0.24 0.11
-2 -3 -12 0.48 0.11
2 3 12 0.3 0.11
2 3 12 0.14 0.1
2 3 13 0.08 0.07
-2 -3 -13 0.14 0.07
2 3 13 0.16 0.08
2 4 -12 0.35 0.06
2 4 -11 2.71 0.14
2 4 -11 2.38 0.13
-2 -4 11 2.44 0.13
2 4 -10 3.32 0.15
-2 -4 10 3.11 0.16
2 4 -10 3.25 0.16
2 4 -9 3.54 0.18
2 4 -9 3.71 0.17
-2 -4 9 4.05 0.18
2 4 -8 4.05 0.18
2 4 -8 3.71 0.31
2 4 -7 0.46 0.09
2 4 -7 0.63 0.11
2 4 -7 0.49 0.16
2 4 -6 18.85 0.48
2 4 -6 19.66 0.73
2 4 -5 31.47 0.91
2 4 -5 29.21 0.74
2 4 -4 68.15 1.7
2 4 -4 69.37 1.68
2 4 -3 18.94 0.64
2 4 -3 18.7 0.51
2 4 -3 19.02 0.62
2 4 -2 1.46 0.13
2 4 -2 1.08 0.17
2 4 -2 1.48 0.23
2 4 -2 1.16 0.15
2 4 -1 0.36 0.15
2 4 -1 0.45 0.14
2 4 -1 0.44 0.06
2 4 0 15.62 0.54
2 4 0 16.59 0.7
2 4 1 61.72 1.45
2 4 1 58.45 1.63
2 4 2 22.62 0.66
-2 -4 -2 23.71 0.58
-2 -4 -3 45.01 1.07
2 4 3 46.65 1.13
2 4 4 38.98 0.84
2 4 4 40.88 0.98
-2 -4 -5 15.06 0.51
2 4 5 16 0.42
2 4 6 3.78 0.22
-2 -4 -6 4.31 0.27
2 4 6 4.34 0.22
2 4 7 0.15 0.09
2 4 7 0.26 0.15
2 4 7 0.22 0.14
-2 -4 -7 0.27 0.12
2 4 8 1.35 0.23
-2 -4 -8 1.26 0.2
2 4 8 1.44 0.2
2 4 8 0.81 0.12
2 4 8 1.1 0.12
-2 -4 -9 2.06 0.24
2 4 9 3.43 0.26
2 4 9 3.11 0.29
2 4 9 2.13 0.16
2 4 9 2.15 0.16
2 4 10 9.73 0.31
2 4 10 11.05 0.44
2 4 10 11.53 0.41
2 4 10 9.14 0.29
2 4 11 12.61 0.34
2 4 11 12.75 0.43
2 4 11 11.84 0.33
2 4 11 12.86 0.39
2 4 12 3.42 0.18
-2 -4 -12 3.86 0.15
-2 -4 -13 0.63 0.07
2 5 -12 0.77 0.05
2 5 -11 3.94 0.15
-2 -5 11 3.87 0.15
-2 -5 10 5.12 0.19
2 5 -10 4.82 0.19
2 5 -10 5.32 0.2
2 5 -9 4.81 0.21
2 5 -9 4.4 0.2
2 5 -9 4.79 0.19
2 5 -8 0.77 0.12
2 5 -8 0.66 0.1
2 5 -7 0.35 0.09
2 5 -7 0.2 0.15
2 5 -7 0.33 0.09
2 5 -7 0.35 0.09
2 5 -7 0.31 0.11
2 5 -6 3.4 0.22
2 5 -6 2.81 0.31
2 5 -6 2.61 0.15
2 5 -6 2.81 0.15
2 5 -6 2.97 0.16
2 5 -5 1.34 0.21
2 5 -5 0.98 0.1
2 5 -5 0.94 0.2
2 5 -5 1 0.12
2 5 -5 1 0.11
2 5 -4 9.22 0.47
2 5 -4 10.19 0.37
2 5 -4 9.06 0.48
2 5 -3 58.97 1.6
2 5 -3 60.01 1.51
2 5 -3 59.56 1.39
2 5 -2 12.24 0.55
2 5 -2 11.74 0.43
2 5 -2 12.49 0.42
2 5 -1 14.23 0.42
2 5 -1 15.38 0.79
2 5 0 1.73 0.21
2 5 1 3.61 0.28
2 5 1 3.83 0.38
2 5 1 3.21 0.17
2 5 1 3.22 0.12
2 5 2 10.67 0.34
2 5 2 11.05 0.61
2 5 2 10.25 0.27
2 5 3 1.04 0.08
2 5 3 1.07 0.21
2 5 3 1.07 0.16
2 5 4 33.96 0.79
2 5 4 33.32 0.76
2 5 5 30.86 0.71
2 5 5 31.85 0.78
2 5 5 32.34 0.7
2 5 5 32.14 0.74
2 5 6 11.45 0.37
2 5 6 11.27 0.41
2 5 7 14.73 0.54
2 5 7 14.44 0.46
2 5 8 3.85 0.19
2 5 8 4.56 0.26
2 5 8 4.34 0.33
2 5 9 7.04 0.3
2 5 9 6.4 0.23
2 5 10 2.14 0.15
2 5 10 2.4 0.24
2 5 10 2.54 0.17
2 5 11 1.17 0.16
2 5 11 1.2 0.11
-2 -5 -12 3.14 0.13
-2 -5 -12 2.35 0.1
2 6 -11 0.11 0.05
2 6 -11 0.1 0.05
2 6 -10 2.11 0.12
-2 -6 10 2.09 0.11
2 6 -9 2.68 0.15
2 6 -8 0.88 0.13
2 6 -7 0.5 0.09
2 6 -7 0.37 0.1
2 6 -6 0.17 0.17
2 6 -6 0.34 0.18
2 6 -6 0.21 0.09
2 6 -5 0.3 0.19
2 6 -5 0.32 0.1
2 6 -5 0.32 0.09
2 6 -5 0.27 0.17
2 6 -5 0.31 0.11
2 6 -5 0.29 0.17
2 6 -5 0.3 0.15
2 6 -5 0.23 0.09
2 6 -4 2.15 0.14
2 6 -4 1.96 0.13
2 6 -4 2.23 0.29
2 6 -4 2.46 0.21
2 6 -4 2.21 0.16
2 6 -3 7.3 0.25
2 6 -3 7.45 0.26
2 6 -3 5.55 0.43
2 6 -3 7.22 0.33
2 6 -3 7.86 0.67
2 6 -3 6.32 0.24
2 6 -3 6.21 0.23
2 6 -2 4.22 0.38
2 6 -2 4.64 0.21
2 6 -2 4.63 0.27
2 6 -2 5.75 0.3
2 6 -2 5.7 0.58
2 6 -1 8.02 0.27
2 6 -1 8.8 0.31
2 6 -1 7.91 0.34
2 6 -1 9.03 0.37
2 6 -1 9.75 0.74
2 6 0 1.81 0.26
2 6 0 1.54 0.14
2 6 1 2.06 0.26
2 6 1 1.68 0.16
2 6 1 1.58 0.32
2 6 2 0.57 0.18
2 6 2 0.46 0.08
2 6 2 0.52 0.11
2 6 2 0.37 0.21
2 6 2 0.56 0.07
2 6 3 0.32 0.15
2 6 3 0.34 0.08
2 6 3 0.25 0.06
2 6 3 0.4 0.19
2 6 3 0.25 0.07
2 6 3 0.24 0.07
2 6 3 0.28 0.07
2 6 4 0.45 0.16
2 6 4 0.52 0.1
2 6 4 0.24 0.06
2 6 4 0.42 0.09
2 6 4 0.31 0.08
2 6 4 0.4 0.08
2 6 5 10.65 0.33
2 6 5 10.84 0.32
2 6 5 10.49 0.3
2 6 5 10.37 0.32
2 6 6 13.49 0.39
2 6 6 13.99 0.38
2 6 6 13.14 0.39
2 6 7 22.64 0.58
2 6 7 23.98 0.56
2 6 8 4.82 0.22
2 6 8 4.51 0.21
2 6 9 0.34 0.11
2 6 9 0.58 0.13
2 6 10 0.35 0.1
2 6 10 0.19 0.07
-2 -6 -11 0.25 0.05
-2 -6 -12 0.43 0.04
2 7 -10 0.18 0.05
2 7 -9 0.15 0.08
2 7 -8 1.26 0.14
2 7 -8 1.21 0.12
2 7 -7 1.42 0.69
2 7 -7 5.26 0.26
2 7 -6 4.21 0.22
2 7 -6 4.09 0.18
2 7 -6 3.48 0.24
2 7 -6 3.98 0.18
2 7 -5 4.12 0.2
2 7 -5 3.75 0.24
2 7 -5 4.42 0.24
2 7 -5 4.19 0.19
2 7 -4 2.72 0.18
2 7 -4 2.17 0.18
2 7 -4 2.82 0.24
2 7 -4 1.83 0.2
2 7 -4 2.27 0.15
2 7 -3 1.49 0.3
2 7 -3 1.74 0.21
2 7 -3 1.44 0.17
2 7 -3 1.52 0.13
2 7 -3 1.57 0.11
2 7 -2 0.02 0.2
2 7 -2 0.13 0.13
2 7 -2 0.28 0.08
2 7 -2 0.11 0.12
2 7 -2 0.43 0.33
2 7 -2 0.24 0.1
2 7 -2 0.16 0.09
2 7 -1 1.77 0.33
2 7 -1 1.88 0.2
2 7 -1 2.18 0.15
2 7 -1 2.36 0.48
2 7 -1 2.03 0.16
2 7 -1 1.9 0.16
2 7 -1 2.04 0.11
2 7 0 11.04 0.68
2 7 0 11.51 0.32
2 7 0 12.26 0.37
2 7 0 11.75 0.37
2 7 1 9.43 0.78
2 7 1 12.01 0.35
2 7 1 9.52 0.33
2 7 1 11.58 0.66
2 7 2 0.78 0.23
2 7 2 0.53 0.1
2 7 2 0.36 0.14
2 7 2 0.57 0.1
2 7 3 1.3 0.15
2 7 3 1.63 0.14
2 7 3 1.32 0.11
2 7 3 1.57 0.26
2 7 4 2.32 0.18
2 7 4 2.5 0.14
2 7 5 0.25 0.15
2 7 5 0.28 0.12
2 7 5 0.27 0.1
2 7 6 2.46 0.2
2 7 6 2.34 0.22
2 7 6 1.93 0.16
2 7 7 13.09 0.37
2 7 7 13.95 0.39
2 7 8 6.53 0.24
-2 -7 -8 6.91 0.22
2 7 8 6.38 0.24
2 7 9 1.59 0.11
-2 -7 -9 1.72 0.1
2 7 10 0.13 0.04
2 8 -8 0.02 0.07
2 8 -7 1.92 0.14
2 8 -7 3.58 0.62
2 8 -6 4.41 0.25
2 8 -6 4.51 0.75
2 8 -5 11.81 0.38
2 8 -5 18.29 0.51
2 8 -5 5.36 0.92
2 8 -5 6.69 0.36
2 8 -5 13.91 0.37
2 8 -4 8.3 0.31
2 8 -4 7.42 0.28
2 8 -3 0.23 0.15
2 8 -3 0.16 0.14
2 8 -2 1.68 0.21
2 8 -2 1.7 0.16
2 8 -1 0.11 0.12
2 8 -1 0.2 0.12
2 8 -1 0.12 0.12
2 8 0 8.56 1.22
2 8 0 0.88 0.16
2 8 1 3.85 0.18
2 8 1 4.01 0.27
2 8 2 1.57 0.15
2 8 2 1.46 0.12
2 8 2 1.41 0.16
2 8 3 1.22 0.15
2 8 3 1.19 0.13
2 8 3 1.16 0.11
2 8 3 1.08 0.18
2 8 3 0.75 0.21
2 8 4 0.37 0.14
2 8 4 -0.04 0.19
2 8 4 0.22 0.1
2 8 4 0.22 0.19
2 8 5 0.04 0.19
2 8 5 0.05 0.16
2 8 6 0.22 0.14
2 8 6 0.14 0.11
2 8 7 1.37 0.14
2 8 7 1.34 0.15
2 8 8 0.46 0.09
2 8 8 0.43 0.08
2 8 9 0.37 0.05
2 9 -5 0.07 0.09
2 9 -4 3.41 0.18
2 9 -4 1.59 0.15
2 9 -3 1.97 0.19
2 9 -3 1.42 0.14
2 9 -2 0.37 0.12
2 9 -1 -0.12 0.18
2 9 -1 0.18 0.1
2 9 0 -0.12 0.18
2 9 0 0 0.11
2 9 0 0.12 0.13
2 9 1 2.06 0.2
2 9 1 1.94 0.13
2 9 1 2.25 0.22
2 9 2 4.55 0.22
2 9 2 4.09 0.16
2 9 2 3.82 0.29
2 9 3 2.89 0.15
2 9 3 2.67 0.13
2 9 3 2.89 0.27
2 9 4 0.6 0.13
2 9 4 1.36 0.2
2 9 5 0.02 0.12
2 9 5 0.16 0.12
2 9 6 0.2 0.1
2 9 6 0.21 0.08
2 10 -4 1.21 0.08
2 10 -3 1.56 0.12
2 10 -3 0.59 0.08
2 10 -1 1.73 0.18
2 10 0 0.87 0.1
2 10 0 1.15 0.16
2 10 1 0.31 0.11
2 10 1 0.43 0.09
2 10 2 0.13 0.07
2 10 2 -0.09 0.15
-3 7 3 0.2 0.06
3 -7 -3 0.08 0.03
3 -7 -2 0.31 0.05
-3 7 1 0.22 0.09
-3 7 0 0.27 0.1
-3 7 -1 0.06 0.09
-3 7 -1 0.1 0.11
-3 7 -1 0.08 0.09
-3 7 -2 0.08 0.09
-3 7 -3 0.17 0.09
-3 7 -3 0.22 0.12
-3 7 -4 0.18 0.1
-3 6 6 0.69 0.06
-3 6 5 0.4 0.06
3 -6 -5 0.33 0.05
-3 6 4 2.03 0.11
3 -6 -4 1.84 0.09
-3 6 3 2.76 0.14
-3 6 3 3.68 0.25
-3 6 2 0.07 0.08
-3 6 2 -0.14 0.21
-3 6 1 0.5 0.13
-3 6 1 0.24 0.18
-3 6 1 0.26 0.13
-3 6 0 1.31 0.22
-3 6 0 1.71 0.2
-3 6 0 1.23 0.18
-3 6 -1 2.63 0.3
-3 6 -1 2.5 0.26
-3 6 -1 2.23 0.17
-3 6 -2 5.31 0.33
-3 6 -2 6.2 0.33
-3 6 -3 4.05 0.33
-3 6 -3 3.38 0.26
-3 6 -3 3.48 0.24
-3 6 -4 2.17 0.19
-3 6 -4 2.26 0.13
-3 6 -4 2.31 0.2
-3 6 -4 2.2 0.2
-3 6 -5 0.08 0.13
-3 6 -5 0.09 0.1
-3 6 -5 0.08 0.1
-3 6 -5 0.14 0.12
-3 6 -5 0.11 0.15
-3 6 -6 0.06 0.09
-3 6 -6 0.19 0.1
-3 6 -6 0.07 0.1
-3 6 -6 0.16 0.09
-3 6 -6 0.05 0.13
-3 6 -7 -0.02 0.08
-3 6 -7 -0.01 0.09
-3 6 -7 -0.02 0.1
-3 6 -8 0.1 0.06
-3 6 -8 0.11 0.08
-3 6 -9 0.96 0.07
3 -5 -7 0.48 0.05
-3 5 6 0.24 0.07
-3 5 6 0.19 0.09
3 -5 -6 0.27 0.06
-3 5 5 0.87 0.1
3 -5 -5 1.26 0.1
-3 5 5 1.04 0.16
3 -5 -4 3.88 0.16
-3 5 4 4.56 0.28
-3 5 3 16.31 0.59
-3 5 2 2.58 0.18
-3 5 1 2.55 0.29
-3 5 1 2.84 0.23
-3 5 0 0.37 0.2
-3 5 0 0.63 0.21
-3 5 0 0.32 0.23
-3 5 -1 0.15 0.2
-3 5 -1 0.1 0.13
-3 5 -1 0.18 0.15
-3 5 -1 -0.07 0.27
-3 5 -2 3.25 0.28
-3 5 -2 2.99 0.19
-3 5 -3 5.71 0.44
-3 5 -4 16.14 0.49
-3 5 -4 11.28 0.46
-3 5 -5 2.72 0.22
-3 5 -5 3.25 0.25
-3 5 -5 2.83 0.2
-3 5 -6 0.77 0.15
-3 5 -6 0.82 0.16
-3 5 -6 0.92 0.19
-3 5 -6 0.71 0.13
-3 5 -7 0.05 0.2
-3 5 -7 0.19 0.11
-3 5 -7 0.34 0.08
-3 5 -7 0.17 0.11
-3 5 -7 0.25 0.1
-3 5 -7 0.36 0.15
-3 5 -8 0.13 0.07
-3 5 -8 0.24 0.13
-3 5 -8 0.09 0.1
-3 5 -9 0.15 0.06
-3 5 -9 0.06 0.07
-3 5 -10 0 0.1
-3 5 -11 0.07 0.08
-3 4 9 0.37 0.04
3 -4 -9 0.4 0.04
3 -4 -8 1.25 0.09
3 -4 -8 1.14 0.08
-3 4 7 0.39 0.08
3 -4 -7 0.27 0.08
-3 4 7 0.25 0.08
3 -4 -7 0.22 0.08
-3 4 6 0.23 0.09
-3 4 6 0.19 0.12
3 -4 -6 0.17 0.08
3 -4 -6 0.15 0.09
-3 4 5 0.13 0.1
3 -4 -5 0.24 0.08
-3 4 5 0.22 0.16
3 -4 -5 0.21 0.09
3 -4 -4 0.49 0.08
-3 4 4 0.72 0.22
-3 4 3 15.91 0.57
3 -4 -3 25.61 0.52
-3 4 2 5.4 0.3
-3 4 1 5.44 0.24
-3 4 1 5.23 0.38
-3 4 0 0.4 0.25
-3 4 0 0.4 0.11
-3 4 -1 0.17 0.11
-3 4 -1 0.34 0.27
-3 4 -2 0.25 0.13
-3 4 -2 0.43 0.12
-3 4 -2 0.4 0.12
-3 4 -2 0.25 0.16
-3 4 -3 0.12 0.24
-3 4 -3 0.16 0.15
-3 4 -3 0.06 0.12
-3 4 -4 2.72 0.14
-3 4 -4 2.79 0.32
-3 4 -5 8.99 0.55
-3 4 -5 9.36 0.29
-3 4 -5 8.94 0.61
-3 4 -6 0.98 0.24
-3 4 -6 1.02 0.11
-3 4 -6 1.15 0.17
-3 4 -6 1.19 0.19
-3 4 -6 1.04 0.13
-3 4 -6 1.18 0.18
-3 4 -6 0.93 0.24
-3 4 -7 4.33 0.18
-3 4 -7 4.39 0.27
-3 4 -7 4.57 0.26
-3 4 -7 3.97 0.19
-3 4 -8 0.08 0.08
-3 4 -8 0.04 0.12
-3 4 -8 0.06 0.13
-3 4 -9 0.23 0.08
-3 4 -9 0.15 0.1
-3 4 -9 0.26 0.12
-3 4 -10 1.33 0.09
-3 4 -10 1.5 0.13
-3 4 -11 0.26 0.12
3 -3 -9 1.59 0.1
3 -3 -9 1.31 0.09
3 -3 -8 5.84 0.21
3 -3 -8 6.74 0.22
3 -3 -7 0.76 0.11
3 -3 -7 0.79 0.11
-3 3 7 0.8 0.11
-3 3 6 0.37 0.1
3 -3 -6 0.49 0.1
3 -3 -6 0.8 0.11
-3 3 6 0.5 0.13
-3 3 6 0.65 0.11
3 -3 -5 0.21 0.09
-3 3 5 0.3 0.11
3 -3 -5 0.3 0.1
3 -3 -4 0.22 0.08
3 -3 -3 22.68 0.71
3 -3 -3 24.6 0.52
3 -3 -2 9.87 0.41
3 -3 -2 10.42 0.27
3 -3 -1 14.17 0.34
-3 3 1 13.04 0.6
3 -3 -1 13.24 0.49
-3 3 1 14.74 0.38
3 -3 0 5.47 0.28
-3 3 0 7.11 0.48
-3 3 -1 0.79 0.17
3 -3 1 0.61 0.11
-3 3 -2 1.11 0.19
-3 3 -2 1.77 0.3
-3 3 -3 1.36 0.21
-3 3 -3 1.41 0.12
-3 3 -4 2.46 0.27
-3 3 -4 4.01 0.31
-3 3 -5 3.22 0.15
-3 3 -5 3.12 0.33
-3 3 -6 0.6 0.12
-3 3 -6 0.42 0.08
-3 3 -6 0.4 0.12
-3 3 -6 0.45 0.2
-3 3 -6 0.45 0.14
-3 3 -7 46.66 1.17
-3 3 -7 45.03 1.37
-3 3 -7 44.11 1.43
-3 3 -7 47.14 1.1
-3 3 -7 47.77 1.04
-3 3 -8 43.88 1
-3 3 -8 42.52 0.94
-3 3 -8 42.19 1.07
-3 3 -9 10.24 0.33
-3 3 -9 9.3 0.28
-3 3 -10 0.16 0.1
-3 3 -10 0.06 0.07
3 -3 11 1.66 0.1
-3 3 -11 1.69 0.12
3 -2 -10 2.41 0.12
3 -2 -10 1.99 0.11
3 -2 -9 0.21 0.08
3 -2 -9 0.24 0.1
-3 2 9 0.26 0.09
-3 2 8 0.99 0.12
3 -2 -8 1.46 0.13
3 -2 -7 2.72 0.16
3 -2 -7 3.16 0.17
-3 2 7 2.97 0.17
3 -2 -6 5.18 0.37
3 -2 -6 5.12 0.21
3 -2 -6 5.4 0.21
-3 2 6 5.99 0.25
3 -2 -5 10.3 0.3
3 -2 -5 10.2 0.49
3 -2 -5 10.23 0.3
-3 2 5 10.64 0.33
3 -2 -4 3.95 0.16
3 -2 -4 3.91 0.28
-3 2 4 3.65 0.17
3 -2 -3 12.74 0.33
3 -2 -3 13.02 0.5
3 -2 -2 2.22 0.1
3 -2 -2 2.26 0.19
3 -2 -1 7.33 0.2
3 -2 -1 7.32 0.33
-3 2 0 3.12 0.24
3 -2 0 3.3 0.11
3 -2 0 3.46 0.21
-3 2 -1 36.83 1.03
3 -2 1 41.23 1
-3 2 -2 13.16 0.52
3 -2 2 14.4 0.47
-3 2 -6 3.98 0.18
-3 2 -6 4.94 0.26
-3 2 -7 30.73 0.74
-3 2 -7 33.49 0.82
-3 2 -8 23.62 0.58
-3 2 -9 3.97 0.35
-3 2 -9 4.16 0.19
-3 2 -10 0.72 0.1
-3 2 -10 0.18 0.14
3 -2 11 0.23 0.08
-3 2 -11 0.14 0.08
-3 2 -12 0.58 0.08
3 -2 12 0.5 0.08
3 -2 13 0.13 0.07
3 -1 -11 0.97 0.08
3 -1 -10 1.51 0.11
3 -1 -9 0.31 0.1
3 -1 -9 0.36 0.12
-3 1 9 0.38 0.12
3 -1 -8 3.93 0.18
3 -1 -8 4.24 0.2
-3 1 8 3.99 0.21
3 -1 -7 5.75 0.4
3 -1 -7 5.73 0.23
3 -1 -7 6.39 0.24
3 -1 -6 11.86 0.56
3 -1 -6 13 0.37
3 -1 -5 19.27 0.48
3 -1 -5 19.6 0.7
3 -1 -5 19.83 0.49
3 -1 -4 17.29 0.42
3 -1 -4 18.18 0.62
3 -1 -3 15.64 0.37
3 -1 -3 16.03 0.55
3 -1 -2 1.66 0.08
3 -1 -2 1.92 0.17
3 -1 -1 1 0.13
-3 1 0 2.29 0.19
3 -1 0 2.38 0.17
-3 1 -1 80.5 1.88
3 -1 1 86.8 1.85
-3 1 -2 38.71 1.03
3 -1 2 41.61 1
-3 1 -3 61.16 1.47
-3 1 -4 4.24 0.19
-3 1 -4 4.63 0.28
-3 1 -5 9.21 0.33
-3 1 -5 9.75 0.44
-3 1 -6 46.14 1.14
-3 1 -6 49.93 1.3
-3 1 -7 1.56 0.22
-3 1 -7 1.33 0.15
3 -1 7 1.54 0.09
3 -1 8 9.42 0.28
-3 1 -8 9.4 0.28
-3 1 -8 9.98 0.41
-3 1 -8 10.18 0.28
-3 1 -8 9.68 0.49
3 -1 9 14.47 0.39
-3 1 -9 14.75 0.38
-3 1 -9 14.83 0.64
-3 1 -9 14.84 0.39
3 -1 10 3.66 0.15
-3 1 -10 3.45 0.15
3 -1 10 3.53 0.17
-3 1 -11 3.43 0.14
3 -1 11 3.56 0.17
3 -1 12 0.08 0.08
-3 1 -12 0.19 0.07
-3 0 12 0.19 0.06
3 0 -12 0.27 0.04
3 0 -11 3.14 0.15
3 0 -10 8.5 0.25
3 0 -9 2.4 0.14
3 0 -9 2.54 0.17
3 0 -8 4.06 0.19
3 0 -8 3.92 0.19
3 0 -7 0.25 0.17
3 0 -7 0.27 0.09
3 0 -7 0.32 0.17
3 0 -7 0.73 0.1
3 0 -6 6.64 0.38
3 0 -6 6.61 0.22
3 0 -6 6.4 0.22
3 0 -5 6.32 0.2
3 0 -5 5.99 0.34
3 0 -4 62.09 1.45
3 0 -4 63.67 1.32
3 0 -3 144.19 2.89
3 0 -3 126.66 2.83
3 0 -2 9.75 0.41
3 0 -2 10.34 0.38
3 0 -1 3.39 0.2
-3 0 0 25.42 0.67
3 0 0 23.85 0.65
-3 0 -1 9.36 0.34
3 0 1 8.98 0.33
3 0 2 1.35 0.13
-3 0 -2 1.37 0.13
-3 0 -3 93.51 2.04
-3 0 -4 10.61 0.4
-3 0 -5 1 0.11
-3 0 -6 2.52 0.18
-3 0 -6 2.76 0.2
-3 0 -7 0.45 0.11
-3 0 -7 0.37 0.11
3 0 7 0.32 0.06
-3 0 -8 0.68 0.08
3 0 8 0.48 0.09
3 0 8 0.97 0.09
3 0 8 0.79 0.09
-3 0 -8 0.85 0.14
-3 0 -8 0.71 0.15
3 0 9 2 0.14
-3 0 -9 2.21 0.12
3 0 9 2.39 0.13
-3 0 -9 2.15 0.22
3 0 10 4.27 0.2
3 0 10 4.12 0.17
-3 0 -10 4.06 0.3
-3 0 -10 4.15 0.17
-3 0 -11 13.45 0.36
3 0 11 12.68 0.37
-3 0 -11 13.41 0.35
3 0 12 4.2 0.19
-3 0 -12 3.54 0.16
3 0 12 3.2 0.16
-3 0 -12 3.92 0.15
3 0 13 1.55 0.13
-3 0 -13 1.53 0.09
3 0 14 0.67 0.08
-3 0 -14 0.06 0.09
3 1 -12 0.26 0.05
3 1 -11 2.64 0.14
3 1 -10 4.8 0.22
-3 -1 10 5.42 0.24
3 1 -9 0.62 0.1
-3 -1 9 0.72 0.16
3 1 -8 17.94 0.74
3 1 -8 17.56 0.46
3 1 -8 17.02 0.48
3 1 -8 16.71 0.71
3 1 -7 0.78 0.1
3 1 -7 0.91 0.11
3 1 -6 2.1 0.12
-3 -1 6 2.1 0.17
3 1 -5 0.37 0.07
3 1 -4 33 0.72
3 1 -3 139.73 2.87
3 1 -3 132.65 2.85
3 1 -2 15.19 0.48
3 1 -2 13.96 0.45
3 1 -1 85.33 1.93
-3 -1 0 1.08 0.1
-3 -1 -1 10.64 0.34
3 1 1 11.45 0.52
3 1 2 1.22 0.22
-3 -1 -2 1.28 0.11
3 1 3 5.05 0.37
-3 -1 -3 2.83 0.16
3 1 4 50.55 1.34
-3 -1 -5 23.25 0.6
3 1 5 24.85 0.71
-3 -1 -6 6.24 0.3
3 1 6 5.6 0.17
-3 -1 -6 6.22 0.26
3 1 7 29.94 0.67
-3 -1 -7 31.14 0.82
3 1 8 1.28 0.11
-3 -1 -8 1.18 0.18
3 1 8 1.06 0.09
3 1 8 1.14 0.11
3 1 9 1.14 0.12
-3 -1 -9 1.21 0.1
3 1 9 1.04 0.12
-3 -1 -9 1.28 0.2
3 1 10 0.61 0.13
-3 -1 -10 0.67 0.18
3 1 10 0.41 0.11
-3 -1 -10 0.8 0.1
3 1 11 3.96 0.2
-3 -1 -11 3.88 0.17
3 1 11 4.44 0.23
3 1 12 5.81 0.23
-3 -1 -12 5.53 0.2
3 1 12 5.85 0.24
-3 -1 -13 5.11 0.17
3 1 13 5.2 0.21
3 1 13 5.7 0.21
3 1 14 0.31 0.07
-3 -2 12 0.16 0.07
3 2 -12 0.14 0.06
3 2 -11 0.23 0.08
3 2 -10 0.49 0.11
-3 -2 10 0.54 0.13
3 2 -9 3.96 0.19
3 2 -9 3.63 0.19
-3 -2 8 8.89 0.28
3 2 -8 8.11 0.47
3 2 -8 7.59 0.27
-3 -2 7 0.64 0.09
3 2 -7 0.6 0.11
-3 -2 7 0.92 0.15
3 2 -7 0.84 0.19
3 2 -7 0.72 0.1
3 2 -6 8.66 0.43
3 2 -6 7.71 0.26
3 2 -5 0.53 0.07
3 2 -5 0.56 0.14
3 2 -4 1.8 0.17
3 2 -4 1.69 0.15
3 2 -3 42.95 1.04
3 2 -3 43.45 1.07
3 2 -2 24.86 0.64
3 2 -1 225.17 4.37
3 2 -1 205.34 4.46
3 2 0 145.78 2.95
3 2 1 6.69 0.34
3 2 1 6.81 0.24
3 2 2 25.84 0.67
3 2 2 28.81 0.86
3 2 3 1.13 0.17
3 2 4 7.5 0.36
-3 -2 -5 53.6 1.33
3 2 5 62.91 1.41
3 2 6 66.97 1.36
3 2 7 92.82 2.08
3 2 7 103.78 2.01
3 2 8 12.89 0.36
3 2 8 13.81 0.42
3 2 8 13.64 0.36
3 2 9 0.32 0.11
-3 -2 -9 0.28 0.16
3 2 9 0.67 0.17
3 2 10 0.24 0.12
-3 -2 -10 0.13 0.09
-3 -2 -10 0.32 0.17
3 2 10 0.51 0.18
3 2 11 0.09 0.12
-3 -2 -11 0.27 0.1
3 2 11 0.16 0.15
-3 -2 -12 1 0.11
3 2 12 0.73 0.14
3 2 13 0.32 0.1
3 3 -12 1.74 0.09
3 3 -12 2.14 0.09
3 3 -11 0.54 0.09
3 3 -10 4.19 0.17
3 3 -10 3.78 0.18
3 3 -9 18.48 0.48
-3 -3 9 18.93 0.47
3 3 -9 17.77 0.5
-3 -3 9 19.36 0.48
3 3 -8 14.13 0.4
-3 -3 8 13.76 0.37
3 3 -8 14.31 0.42
3 3 -8 13.65 0.61
-3 -3 8 14.66 0.39
-3 -3 7 11.55 0.32
3 3 -7 12.15 0.56
-3 -3 7 12.48 0.35
-3 -3 6 24.83 0.56
3 3 -6 22.88 0.82
3 3 -5 10.14 0.47
3 3 -4 3.49 0.26
3 3 -4 3.49 0.27
3 3 -3 20.22 0.67
3 3 -3 19.85 0.56
3 3 -3 18.82 0.6
3 3 -2 8.44 0.28
3 3 -2 7.91 0.35
3 3 -1 23.4 0.65
3 3 -1 23.61 0.57
3 3 -1 23.25 0.71
3 3 0 36.7 0.83
3 3 0 36.27 0.81
3 3 1 19.76 0.66
3 3 1 19.12 0.46
3 3 2 10.47 0.46
3 3 3 35.97 1.02
-3 -3 -4 0.53 0.1
3 3 4 0.64 0.13
-3 -3 -5 9.98 0.38
3 3 5 9.82 0.25
-3 -3 -6 0.95 0.15
3 3 6 0.91 0.14
3 3 6 1.12 0.15
-3 -3 -7 25.46 0.78
3 3 7 22.77 0.7
3 3 8 23.87 0.6
3 3 8 24.78 0.58
3 3 9 11.84 0.35
3 3 9 11.01 0.32
3 3 10 0.82 0.13
-3 -3 -10 0.65 0.18
3 3 10 0.84 0.22
3 3 11 0.48 0.12
3 3 11 0.88 0.18
3 3 12 1.05 0.12
3 3 12 0.97 0.12
3 3 12 1.2 0.15
3 3 13 3.27 0.16
3 3 13 2.94 0.14
3 3 13 3.27 0.14
-3 -3 -14 2.64 0.1
3 4 -12 4.16 0.13
3 4 -12 3.56 0.12
3 4 -11 1.78 0.11
3 4 -11 1.62 0.11
3 4 -10 4.38 0.17
3 4 -10 4.37 0.19
3 4 -9 0.18 0.08
-3 -4 9 0.17 0.09
3 4 -9 0.11 0.1
3 4 -8 3.41 0.17
-3 -4 8 3.71 0.16
3 4 -8 3.28 0.19
3 4 -7 1.86 0.14
3 4 -7 1.84 0.14
3 4 -7 2.04 0.26
3 4 -6 5.44 0.38
3 4 -6 4.56 0.19
3 4 -6 5.5 0.24
3 4 -6 5.21 0.22
3 4 -5 24.67 0.86
3 4 -5 22.82 0.72
3 4 -4 11.78 0.55
3 4 -4 12.48 0.43
3 4 -3 2.21 0.22
3 4 -3 2.19 0.14
3 4 -2 0.42 0.14
3 4 -2 0.49 0.11
3 4 -2 0.31 0.05
3 4 -2 0.43 0.14
3 4 -1 0.63 0.14
3 4 -1 0.65 0.17
3 4 -1 0.44 0.07
3 4 -1 0.5 0.05
3 4 0 24.75 0.87
3 4 0 24.38 0.72
3 4 1 21.05 0.69
3 4 2 9.62 0.56
3 4 2 12.12 0.47
-3 -4 -3 56.77 1.34
3 4 3 53.46 1.66
-3 -4 -4 11.14 0.38
3 4 4 9.39 0.26
3 4 4 8.98 0.53
3 4 4 10.79 0.31
-3 -4 -5 2.07 0.18
3 4 5 1.66 0.12
3 4 5 1.97 0.23
3 4 5 2.16 0.15
3 4 6 1.57 0.15
3 4 6 2.74 0.21
3 4 7 5.07 0.19
-3 -4 -7 5.43 0.32
3 4 8 14.66 0.41
3 4 8 16.99 0.41
3 4 8 14.31 0.55
-3 -4 -8 18.62 0.66
3 4 8 13.25 0.37
3 4 9 12.56 0.38
3 4 9 13.11 0.37
3 4 9 14.02 0.53
-3 -4 -9 13.09 0.58
3 4 10 21.09 0.55
3 4 10 20.75 0.53
3 4 11 14 0.39
3 4 11 13.81 0.46
3 4 12 0.46 0.11
3 4 12 0.52 0.12
-3 -4 -13 0.43 0.05
-3 -4 -14 0.1 0.03
3 5 -11 8.1 0.22
3 5 -10 5.97 0.2
3 5 -10 6.11 0.22
3 5 -10 5.66 0.21
3 5 -9 0.34 0.09
-3 -5 9 0.4 0.09
3 5 -9 0.29 0.11
3 5 -8 1.05 0.11
3 5 -8 1.14 0.11
3 5 -7 0.3 0.1
3 5 -7 0.26 0.12
3 5 -7 0.3 0.1
3 5 -6 0.75 0.11
3 5 -6 0.62 0.19
3 5 -6 0.69 0.11
3 5 -6 0.67 0.13
3 5 -5 0.72 0.11
3 5 -5 0.64 0.19
3 5 -5 0.7 0.12
3 5 -4 8.05 0.47
3 5 -4 8.39 0.28
3 5 -4 8.91 0.33
3 5 -4 9.11 0.33
3 5 -3 11.59 0.37
3 5 -3 12.41 0.58
3 5 -2 38.2 0.89
3 5 -2 40.19 1.17
3 5 -1 6.13 0.23
3 5 -1 8.35 0.5
3 5 0 0.23 0.12
3 5 0 0.26 0.15
3 5 1 0.36 0.13
-3 -5 -2 2.39 0.16
3 5 2 2.62 0.32
-3 -5 -3 33.78 0.84
3 5 3 29.37 1.13
3 5 3 30.48 0.71
3 5 3 36.31 1
3 5 4 5.06 0.2
-3 -5 -4 5.9 0.29
3 5 4 5.5 0.21
-3 -5 -5 9.67 0.41
3 5 5 9.68 0.32
3 5 6 0.84 0.14
-3 -5 -6 1.07 0.16
3 5 6 1.03 0.11
3 5 6 1.29 0.16
3 5 6 0.9 0.11
3 5 7 1.36 0.19
-3 -5 -7 1.87 0.21
3 5 7 2.42 0.23
3 5 7 1.45 0.13
3 5 7 0.73 0.1
3 5 8 1.52 0.14
3 5 8 1.21 0.22
-3 -5 -8 1.42 0.21
3 5 8 0.95 0.11
3 5 8 1.15 0.12
3 5 9 8.39 0.27
3 5 9 8.51 0.43
3 5 10 12.22 0.36
3 5 10 13.1 0.49
3 5 11 10.53 0.38
3 5 11 11.47 0.36
3 5 12 0.47 0.09
3 5 12 0.59 0.08
3 6 -11 0.14 0.04
3 6 -10 0.8 0.08
3 6 -9 4.43 0.19
3 6 -8 5.65 0.21
3 6 -7 0.94 0.12
3 6 -7 1.16 0.16
3 6 -7 0.98 0.15
3 6 -7 1.05 0.11
3 6 -6 1.02 0.17
3 6 -6 1.15 0.16
3 6 -6 1.18 0.14
3 6 -6 1 0.12
3 6 -5 0.81 0.11
3 6 -5 0.83 0.11
3 6 -5 0.85 0.13
3 6 -5 0.61 0.1
3 6 -5 0.68 0.14
3 6 -5 0.72 0.15
3 6 -4 5.98 0.24
3 6 -4 5.72 0.23
3 6 -4 6.26 0.29
3 6 -4 6.44 0.29
3 6 -4 6.41 0.24
3 6 -4 6.61 0.29
3 6 -4 7.22 0.5
3 6 -3 5.83 0.24
3 6 -3 6.36 0.23
3 6 -3 5.67 0.24
3 6 -3 6.97 0.27
3 6 -3 6.46 0.29
3 6 -3 6.33 0.23
3 6 -3 7.46 0.3
3 6 -3 7.42 0.5
3 6 -2 58.31 1.19
3 6 -2 54.93 1.21
3 6 -2 55.89 1.17
3 6 -2 55.78 1.25
3 6 -2 52.43 1.15
3 6 -2 54.71 1.59
3 6 -1 30.3 0.74
3 6 -1 30.07 0.7
3 6 0 3.68 0.18
3 6 0 5.4 0.39
3 6 1 0.29 0.16
3 6 2 4 0.16
3 6 2 3.58 0.17
3 6 3 11.16 0.3
3 6 3 8.92 0.29
3 6 3 9.29 0.34
3 6 3 7.78 0.31
3 6 3 10.79 0.28
3 6 3 10.94 0.3
3 6 3 10.97 0.32
3 6 3 10.33 0.31
3 6 3 12.91 0.57
3 6 4 6.37 0.22
3 6 4 6.78 0.22
3 6 4 4.5 0.2
3 6 4 5.89 0.25
3 6 4 4.65 0.23
3 6 4 6.82 0.2
3 6 4 6.75 0.24
3 6 4 6.17 0.22
3 6 4 8.44 0.46
3 6 5 4.82 0.19
3 6 5 3.15 0.17
3 6 5 5.24 0.22
3 6 5 3.69 0.19
3 6 5 4.61 0.21
3 6 5 4.5 0.18
3 6 6 1.45 0.14
3 6 6 1.52 0.17
3 6 6 1.32 0.14
3 6 6 1.11 0.11
3 6 7 0.65 0.14
3 6 7 0.33 0.08
3 6 7 0.52 0.16
3 6 7 0.47 0.13
3 6 8 0.35 0.16
3 6 8 0.31 0.12
3 6 9 0.85 0.14
3 6 9 0.96 0.17
3 6 9 0.59 0.1
3 6 10 2.74 0.15
3 6 10 2.52 0.17
3 6 11 4.41 0.16
-3 -6 -12 1.03 0.07
3 7 -9 0.96 0.1
3 7 -8 7.96 0.29
3 7 -7 8.24 0.25
3 7 -7 9.16 0.31
3 7 -6 1.15 0.18
3 7 -6 2.33 0.19
3 7 -6 1.05 0.14
3 7 -6 2.2 0.14
3 7 -5 0.52 0.12
3 7 -5 0.71 0.11
3 7 -5 0.18 0.14
3 7 -5 0.59 0.15
3 7 -5 0.05 0.12
3 7 -5 0.48 0.11
3 7 -4 1.64 0.14
3 7 -4 1.36 0.13
3 7 -4 1.53 0.17
3 7 -4 1 0.15
3 7 -4 1.39 0.13
3 7 -4 1.15 0.14
3 7 -3 7.27 0.27
3 7 -3 6.53 0.27
3 7 -3 6.94 0.28
3 7 -3 6.12 0.24
3 7 -3 8.2 0.33
3 7 -3 5.95 0.25
3 7 -3 5.83 0.25
3 7 -3 7.65 0.56
3 7 -2 26.6 0.71
3 7 -2 31.25 0.75
3 7 -2 27.93 0.66
3 7 -2 30.22 0.7
3 7 -2 32.16 0.8
3 7 -2 29.6 0.69
3 7 -2 26.36 0.7
3 7 -2 28.9 0.68
3 7 -2 28.81 1.15
3 7 -1 23.67 0.59
3 7 -1 20.84 0.63
3 7 -1 24.4 0.56
3 7 -1 21.34 0.6
3 7 -1 22.83 0.57
3 7 -1 24.38 0.65
3 7 0 3.45 0.18
3 7 0 4.03 0.16
3 7 0 3.25 0.19
3 7 0 3.4 0.14
3 7 0 3.58 0.19
3 7 0 3.42 0.37
3 7 1 1.08 0.12
3 7 1 1.25 0.13
3 7 1 1.23 0.1
3 7 1 1.11 0.11
3 7 1 1.12 0.14
3 7 1 1.17 0.15
3 7 1 1.3 0.26
3 7 2 0.48 0.21
3 7 2 0.3 0.11
3 7 2 0.33 0.08
3 7 2 0.4 0.12
3 7 2 0.2 0.09
3 7 2 0.22 0.08
3 7 2 0.25 0.08
3 7 2 0.24 0.11
3 7 2 0.24 0.12
3 7 3 0.87 0.23
3 7 3 0.77 0.11
3 7 3 0.53 0.1
3 7 3 0.42 0.08
3 7 3 0.29 0.09
3 7 3 0.45 0.09
3 7 3 0.38 0.13
3 7 3 0.31 0.12
3 7 4 0.17 0.1
3 7 4 0.26 0.09
3 7 4 0.11 0.14
3 7 4 0.21 0.09
3 7 4 0.27 0.09
3 7 4 0.23 0.12
3 7 4 0.16 0.07
3 7 5 0.69 0.14
3 7 5 0.68 0.11
3 7 5 0.42 0.08
3 7 5 0.82 0.12
3 7 5 0.63 0.13
3 7 6 4.81 0.22
3 7 6 4.91 0.22
3 7 6 5.1 0.24
3 7 6 4.48 0.19
3 7 7 2.54 0.18
3 7 7 2.31 0.18
3 7 7 2.71 0.19
3 7 7 2.12 0.13
3 7 8 1.48 0.16
3 7 8 1.37 0.14
3 7 8 1.48 0.14
3 7 9 0.79 0.1
3 7 9 0.8 0.09
3 7 10 0.23 0.05
3 8 -7 2.35 0.6
3 8 -6 0.69 0.72
3 8 -5 5.78 0.21
3 8 -5 3.18 0.2
3 8 -5 2.3 0.17
3 8 -5 5.73 0.21
3 8 -4 1.71 0.16
3 8 -4 1.68 0.15
3 8 -4 1.35 0.13
3 8 -3 0.69 0.14
3 8 -3 0.64 0.13
3 8 -3 0.9 0.11
3 8 -2 0.16 0.14
3 8 -2 0.42 0.08
3 8 -2 0.59 0.12
3 8 -2 0.42 0.12
3 8 -2 0.22 0.12
3 8 -1 1.79 0.15
3 8 -1 2.19 0.15
3 8 -1 2 0.17
3 8 -1 2.09 0.17
3 8 0 3.98 0.24
3 8 0 4.57 1.08
3 8 0 4.77 0.19
3 8 0 5.04 0.25
3 8 0 4.8 0.24
3 8 1 3.32 0.22
3 8 1 3.62 0.2
3 8 1 3.25 0.16
3 8 1 3.18 0.16
3 8 1 3.5 0.22
3 8 2 1.65 0.16
3 8 2 1.51 0.14
3 8 3 2.36 0.16
3 8 3 2.16 0.18
3 8 3 2.31 0.22
3 8 4 1.3 0.11
3 8 4 1.34 0.18
3 8 4 1.21 0.18
3 8 5 1.47 0.15
3 8 5 1.48 0.13
3 8 5 1.46 0.19
3 8 5 1.72 0.18
3 8 6 1.38 0.16
3 8 6 1.35 0.14
3 8 7 1 0.14
3 8 7 0.99 0.14
3 8 7 0.8 0.1
3 8 8 0.8 0.1
3 8 9 0.9 0.07
3 9 -6 2.82 0.62
3 9 -5 4.44 0.78
3 9 -4 0.16 0.12
3 9 -4 0.02 0.08
3 9 -3 0.27 0.14
3 9 -3 0.36 0.11
3 9 -2 1.87 0.2
3 9 -2 1.16 0.14
3 9 -1 0.44 0.17
3 9 -1 0.4 0.12
3 9 0 0.13 0.11
3 9 0 0.52 0.14
3 9 1 1.53 0.18
3 9 1 1.71 0.13
3 9 1 1.99 0.21
3 9 2 7.27 0.28
3 9 3 8.1 0.26
3 9 3 8.24 0.36
3 9 4 1.44 0.12
3 9 4 1.16 0.15
3 9 4 1.5 0.2
3 9 5 0.11 0.13
3 9 5 0.26 0.14
3 9 6 0.23 0.12
3 9 6 0.26 0.1
3 9 8 1.17 0.07
3 10 -3 3.34 0.18
3 10 -2 1.45 0.11
3 10 -1 0.53 0.17
3 10 -1 0.39 0.09
3 10 0 0.2 0.16
3 10 0 0.33 0.1
3 10 1 0.48 0.15
3 10 1 0.51 0.09
3 10 2 0.62 0.12
3 10 3 1.1 0.09
-4 6 3 0.07 0.04
4 -6 -3 0.06 0.04
-4 6 2 0.22 0.07
-4 6 1 0.37 0.08
-4 6 0 2.04 0.16
-4 6 0 1.75 0.15
-4 6 -1 2.29 0.17
-4 6 -1 2.07 0.19
-4 6 -1 2.42 0.17
-4 6 -2 0.67 0.11
-4 6 -2 0.67 0.15
-4 6 -2 0.78 0.13
-4 6 -3 0.77 0.14
-4 6 -3 0.76 0.13
-4 6 -4 0.08 0.08
-4 6 -4 0.17 0.1
-4 6 -5 0.09 0.06
-4 6 -5 0.13 0.08
-4 6 -5 0.13 0.07
-4 5 5 0.57 0.06
4 -5 -5 0.64 0.06
-4 5 5 0.59 0.09
-4 5 4 1.4 0.09
4 -5 -4 1.61 0.09
-4 5 3 0.12 0.08
-4 5 3 0.2 0.16
4 -5 -3 0.21 0.07
-4 5 1 0.17 0.11
-4 5 1 0.3 0.18
-4 5 0 2.76 0.21
-4 5 0 2.05 0.2
-4 5 -1 2.84 0.24
-4 5 -1 1.97 0.17
-4 5 -2 0.35 0.14
-4 5 -2 0.34 0.18
-4 5 -3 4.11 0.24
-4 5 -3 4.11 0.26
-4 5 -4 0.74 0.13
-4 5 -4 0.98 0.17
-4 5 -5 0.04 0.1
-4 5 -5 0.13 0.12
-4 5 -6 0.12 0.14
-4 5 -6 0.21 0.1
-4 5 -6 0.14 0.1
-4 5 -6 0.1 0.09
-4 5 -7 0.28 0.12
-4 5 -7 0.26 0.09
-4 5 -7 0.29 0.08
-4 5 -7 0.21 0.08
-4 5 -8 0.16 0.09
-4 5 -8 0.02 0.06
-4 5 -8 0.05 0.07
-4 5 -9 0.61 0.07
-4 5 -9 0.48 0.06
4 -4 -7 0.51 0.06
-4 4 6 0.23 0.08
4 -4 -6 0.28 0.07
-4 4 5 0.18 0.08
-4 4 5 0.4 0.13
4 -4 -5 0.39 0.09
4 -4 -5 0.28 0.07
-4 4 4 1.16 0.11
4 -4 -4 1.05 0.09
4 -4 -4 1.62 0.12
-4 4 4 1.7 0.21
-4 4 3 0.83 0.23
-4 4 2 1.4 0.17
-4 4 2 2.52 0.17
-4 4 1 2.09 0.24
-4 4 0 1.37 0.17
-4 4 0 1.71 0.28
-4 4 -1 1.78 0.33
-4 4 -1 1.86 0.17
-4 4 -1 1.83 0.19
-4 4 -2 0.42 0.14
-4 4 -2 0.51 0.12
-4 4 -3 2.09 0.19
-4 4 -3 2.05 0.32
-4 4 -4 0.59 0.17
-4 4 -4 0.62 0.22
-4 4 -5 0.6 0.17
-4 4 -5 0.13 0.17
-4 4 -5 0.66 0.19
-4 4 -6 0.55 0.13
-4 4 -6 0.6 0.12
-4 4 -6 0.2 0.18
-4 4 -6 0.59 0.15
-4 4 -7 0.54 0.15
-4 4 -7 0.53 0.13
-4 4 -7 0.54 0.1
-4 4 -8 1.33 0.14
-4 4 -8 1.42 0.17
-4 4 -9 0.27 0.11
-4 4 -10 4.51 0.17
4 -3 -8 2.38 0.11
4 -3 -7 2.42 0.13
-4 3 7 2.18 0.11
4 -3 -7 2.44 0.12
-4 3 6 0.4 0.12
4 -3 -6 0.34 0.1
4 -3 -6 0.36 0.09
-4 3 5 1.86 0.12
4 -3 -5 1.94 0.14
4 -3 -5 1.94 0.13
4 -3 -4 0.83 0.1
4 -3 -3 0.36 0.09
4 -3 -2 8.89 0.25
-4 3 2 6.23 0.36
4 -3 -1 19.55 0.44
-4 3 1 18.17 0.71
-4 3 0 3.91 0.39
-4 3 0 3.35 0.18
-4 3 -1 0.08 0.1
-4 3 -1 0.52 0.29
-4 3 -2 13.23 0.39
-4 3 -3 0.59 0.13
-4 3 -3 1 0.27
-4 3 -4 9.67 0.48
-4 3 -4 8.41 0.32
-4 3 -5 6.49 0.37
-4 3 -5 6.14 0.28
-4 3 -6 6.53 0.48
-4 3 -6 7.69 0.36
-4 3 -6 7.2 0.31
-4 3 -7 1.67 0.18
-4 3 -7 1.64 0.17
-4 3 -8 0.78 0.13
-4 3 -8 0.91 0.15
-4 3 -9 1.49 0.15
-4 3 -10 0.16 0.1
-4 3 -11 2.46 0.13
-4 3 -12 0.09 0.09
4 -2 -9 0.75 0.08
4 -2 -8 3.49 0.16
4 -2 -8 2.84 0.14
4 -2 -7 2.45 0.14
4 -2 -7 2.42 0.16
-4 2 7 2.27 0.14
-4 2 7 2.17 0.13
4 -2 -6 6.95 0.25
4 -2 -6 7.24 0.26
-4 2 6 7.09 0.26
4 -2 -5 1.36 0.13
-4 2 5 1.54 0.16
4 -2 -4 4.72 0.19
-4 2 4 4.52 0.21
4 -2 -3 0.19 0.08
4 -2 -3 0.13 0.13
-4 2 3 0.25 0.11
-4 2 3 0.15 0.1
4 -2 -2 2.75 0.14
4 -2 -2 2.55 0.24
4 -2 -1 24.34 0.56
-4 2 1 24.58 0.58
4 -2 0 12.82 0.33
4 -2 0 12.51 0.5
-4 2 0 12.98 0.35
-4 2 -1 5.07 0.35
4 -2 1 5.7 0.32
-4 2 -2 3.98 0.31
4 -2 2 4 0.26
-4 2 -3 0.19 0.16
-4 2 -3 0.1 0.08
-4 2 -4 1.05 0.21
-4 2 -4 0.88 0.11
-4 2 -5 2.98 0.32
-4 2 -5 2.79 0.16
-4 2 -6 7.29 0.27
-4 2 -6 6.85 0.49
-4 2 -6 8.13 0.36
-4 2 -7 11.38 0.36
-4 2 -7 11.76 0.63
-4 2 -7 10.99 0.41
-4 2 -9 0.26 0.11
-4 2 -10 2.25 0.14
-4 2 -11 0.07 0.08
4 -2 12 0.44 0.08
-4 2 -12 0.41 0.07
4 -1 -10 0.18 0.06
4 -1 -9 0.7 0.09
4 -1 -9 1.07 0.12
-4 1 9 0.91 0.1
4 -1 -8 3.02 0.16
-4 1 8 3.2 0.17
4 -1 -7 4.82 0.21
-4 1 7 4.39 0.22
4 -1 -6 17.57 0.49
4 -1 -6 19.72 0.51
4 -1 -5 7.2 0.25
4 -1 -5 7.18 0.43
-4 1 5 6.95 0.28
4 -1 -4 6.54 0.22
4 -1 -4 6.65 0.4
4 -1 -4 5.63 0.22
-4 1 4 5.77 0.24
4 -1 -3 0.24 0.14
4 -1 -3 0.36 0.08
4 -1 -3 0.33 0.15
4 -1 -3 0.35 0.08
4 -1 -2 0.42 0.14
4 -1 -2 0.36 0.07
4 -1 -1 20.29 0.47
4 -1 -1 20.97 0.68
4 -1 0 44.23 0.94
4 -1 0 46.79 1.17
-4 1 -1 23.36 0.77
4 -1 1 25.6 0.76
-4 1 -2 23.2 0.76
4 -1 2 22.71 0.51
4 -1 2 23.75 0.72
-4 1 -3 0.66 0.16
-4 1 -4 0.66 0.18
-4 1 -4 0.62 0.09
-4 1 -5 0.16 0.15
-4 1 -6 1.32 0.22
-4 1 -6 0.78 0.09
-4 1 -7 4.96 0.38
-4 1 -7 4.82 0.19
-4 1 -8 1.3 0.24
4 -1 8 1.48 0.1
4 -1 9 7.23 0.22
-4 1 -9 7.45 0.46
-4 1 -10 1.27 0.11
4 -1 10 1.04 0.09
-4 1 -11 0.09 0.08
-4 1 -12 0.27 0.07
4 -1 12 0.39 0.1
-4 1 -13 0.08 0.05
4 -1 13 0.12 0.07
4 0 -11 1.37 0.07
4 0 -10 3.11 0.15
4 0 -9 0.2 0.08
4 0 -9 0.16 0.11
4 0 -8 1.2 0.12
4 0 -8 1.64 0.16
4 0 -7 1.08 0.12
4 0 -7 0.99 0.13
4 0 -6 2.83 0.16
4 0 -6 2.68 0.3
4 0 -5 12.39 0.57
4 0 -5 12.66 0.36
-4 0 5 13.93 0.4
4 0 -4 22.07 0.75
4 0 -4 19.95 0.5
4 0 -3 3.31 0.15
4 0 -3 3.24 0.26
4 0 -3 3.39 0.14
4 0 -3 3.68 0.28
4 0 -2 6.23 0.37
4 0 -2 6.6 0.2
4 0 -1 8.3 0.23
4 0 -1 9.3 0.49
4 0 -1 9.1 0.39
-4 0 0 20.82 0.64
4 0 0 21 0.63
-4 0 -1 0.74 0.14
4 0 1 0.65 0.13
-4 0 -2 68.79 1.65
4 0 2 69.63 1.62
-4 0 -3 40.63 1.08
4 0 3 39.06 1.03
-4 0 -4 16.74 0.61
4 0 4 17.78 0.41
-4 0 -5 10.07 0.46
-4 0 -5 9.27 0.37
-4 0 -6 4.72 0.32
4 0 6 5.16 0.33
-4 0 -6 4.21 0.25
-4 0 -7 1.52 0.22
-4 0 -7 1.36 0.1
-4 0 -8 1.61 0.11
-4 0 -8 2.02 0.19
-4 0 -8 2.03 0.25
4 0 8 2.04 0.12
-4 0 -8 1.73 0.11
-4 0 -9 11.19 0.32
-4 0 -9 12.2 0.58
4 0 9 11.24 0.31
-4 0 -9 10.93 0.47
4 0 9 12.78 0.32
-4 0 -10 11.77 0.31
4 0 10 10 0.29
4 0 11 4.67 0.18
-4 0 -11 5.7 0.19
-4 0 -12 0.45 0.08
4 0 12 0.46 0.12
4 0 13 0.53 0.1
-4 0 -13 0.51 0.07
4 1 -11 4.94 0.16
4 1 -10 11.75 0.35
-4 -1 10 12.7 0.34
4 1 -9 2.36 0.14
-4 -1 9 2.9 0.19
4 1 -8 1.5 0.13
4 1 -8 1.93 0.16
-4 -1 8 1.99 0.2
4 1 -7 6.33 0.26
-4 -1 7 10.83 0.4
4 1 -6 6.79 0.42
4 1 -6 6.07 0.23
4 1 -6 5.58 0.39
4 1 -6 4.98 0.22
-4 -1 6 6.93 0.29
4 1 -5 2.32 0.14
4 1 -5 2.32 0.14
4 1 -5 2.13 0.24
-4 -1 5 2.6 0.19
4 1 -4 9.69 0.28
4 1 -4 9.56 0.45
4 1 -3 14.54 0.54
4 1 -3 13.6 0.36
4 1 -2 48.38 1.26
4 1 -2 46.91 1.01
4 1 -1 9.04 0.24
4 1 -1 9.06 0.46
4 1 0 7.53 0.46
-4 -1 -1 3.36 0.21
-4 -1 -2 63.16 1.53
4 1 2 84.66 2.11
4 1 3 88.2 2.12
-4 -1 -3 63.09 1.56
4 1 4 39.71 1.16
-4 -1 -4 25.81 0.79
-4 -1 -5 10.71 0.45
-4 -1 -5 11.42 0.44
4 1 6 1.34 0.2
-4 -1 -6 1.16 0.17
-4 -1 -6 1.28 0.15
-4 -1 -7 0.32 0.12
4 1 7 0.35 0.07
4 1 8 0.17 0.09
-4 -1 -8 0.24 0.06
4 1 8 0.12 0.08
-4 -1 -9 17.26 0.42
4 1 9 16.26 0.43
-4 -1 -9 17.98 0.66
4 1 9 17.29 0.42
4 1 9 15.73 0.44
-4 -1 -10 13.4 0.34
4 1 10 10.54 0.34
4 1 10 13.77 0.42
-4 -1 -10 12.29 0.55
4 1 10 11.77 0.36
-4 -1 -11 8.74 0.27
4 1 11 9.77 0.34
-4 -1 -12 1.29 0.11
-4 -1 -12 1.63 0.11
-4 -1 -13 0.6 0.07
-4 -1 -14 0.44 0.05
4 2 -11 1.15 0.09
4 2 -10 9.83 0.31
-4 -2 10 10.71 0.31
4 2 -9 9.45 0.3
4 2 -9 10.21 0.33
-4 -2 9 10.54 0.34
4 2 -8 2.44 0.15
-4 -2 8 3.15 0.21
4 2 -7 11.81 0.59
4 2 -7 10.64 0.36
4 2 -7 11.17 0.57
4 2 -6 4.85 0.36
4 2 -6 4.33 0.21
4 2 -6 4.26 0.34
4 2 -6 5.16 0.23
4 2 -5 0.83 0.18
4 2 -5 0.64 0.1
4 2 -5 0.93 0.18
4 2 -5 0.87 0.11
-4 -2 5 0.82 0.14
4 2 -4 17.7 0.45
4 2 -4 16.67 0.61
4 2 -4 16.21 0.59
4 2 -3 2.65 0.13
4 2 -3 2.08 0.11
4 2 -3 2.43 0.21
4 2 -3 2.27 0.22
4 2 -2 54.53 1.08
4 2 -2 55.36 1.27
4 2 -1 70.01 1.78
4 2 -1 73.96 1.64
4 2 0 54.12 1.49
4 2 0 55.4 1.27
-4 -2 -1 5.71 0.23
4 2 1 6.23 0.43
4 2 1 5.56 0.25
-4 -2 -2 1.52 0.12
4 2 2 1.25 0.25
4 2 2 0.88 0.11
-4 -2 -3 6.03 0.26
4 2 3 5.79 0.46
4 2 4 5.82 0.41
-4 -2 -4 4.78 0.25
-4 -2 -5 32.21 0.8
-4 -2 -5 31.21 0.83
4 2 6 42.33 1.03
-4 -2 -6 39.38 0.97
-4 -2 -7 23.48 0.71
4 2 7 19.79 0.45
4 2 8 0.55 0.1
-4 -2 -8 0.32 0.07
-4 -2 -8 0.79 0.17
4 2 8 0.57 0.09
4 2 8 0.69 0.15
-4 -2 -9 0.64 0.08
-4 -2 -9 0.85 0.19
4 2 9 0.82 0.11
4 2 9 1.09 0.18
-4 -2 -10 0.25 0.08
-4 -2 -10 0.21 0.15
-4 -2 -11 5 0.19
-4 -2 -12 4.48 0.18
4 2 12 4.57 0.23
-4 -2 -13 2.51 0.12
4 2 13 2.37 0.15
-4 -2 -13 2.66 0.12
-4 -2 -14 0.24 0.05
4 3 -11 0.21 0.06
4 3 -10 0.42 0.07
4 3 -10 0.46 0.1
4 3 -9 4.45 0.2
4 3 -9 4.55 0.21
-4 -3 9 4.82 0.21
-4 -3 8 18.87 0.5
4 3 -7 10.52 0.55
4 3 -7 11.28 0.38
4 3 -7 9.99 0.54
-4 -3 7 11.71 0.36
4 3 -6 38.55 1.26
4 3 -6 34.18 1.18
4 3 -5 0.32 0.16
4 3 -5 0.53 0.15
4 3 -5 0.36 0.12
-4 -3 5 0.48 0.11
4 3 -4 0.86 0.17
4 3 -4 0.8 0.15
4 3 -4 0.66 0.14
4 3 -3 4.9 0.32
4 3 -3 4.75 0.27
4 3 -3 4.12 0.28
4 3 -2 10.16 0.44
4 3 -2 9.64 0.37
4 3 -1 24.22 0.58
4 3 -1 24.48 0.76
4 3 -1 26.28 0.67
4 3 -1 27.12 0.86
4 3 0 6.15 0.3
4 3 0 8.7 0.3
4 3 1 20.38 0.54
4 3 4 0.63 0.08
4 3 4 1.13 0.21
-4 -3 -5 0.92 0.14
4 3 5 0.86 0.07
4 3 5 0.66 0.11
4 3 5 1.12 0.2
-4 -3 -6 13.52 0.49
4 3 6 11.07 0.41
4 3 7 4.74 0.17
4 3 7 4.63 0.29
4 3 8 0.52 0.1
-4 -3 -8 0.62 0.17
4 3 8 0.48 0.1
4 3 9 4.26 0.2
4 3 10 0.05 0.11
4 3 10 0.02 0.21
4 3 11 1.52 0.14
-4 -3 -11 1.61 0.13
4 3 11 1.39 0.15
-4 -3 -12 2.25 0.14
4 3 12 2.4 0.19
-4 -3 -13 9.57 0.25
4 3 13 8.01 0.27
-4 -3 -14 6.45 0.16
-4 -3 -14 4.63 0.15
4 4 -11 1.16 0.08
4 4 -11 1.29 0.08
4 4 -10 2.56 0.12
4 4 -10 2.69 0.14
4 4 -9 9.38 0.29
4 4 -8 16.99 0.47
4 4 -8 17.78 0.5
4 4 -8 17.19 0.48
4 4 -7 1.06 0.12
4 4 -7 1.25 0.15
4 4 -6 36.46 1.2
4 4 -6 37.17 0.92
4 4 -5 12.1 0.43
4 4 -5 12.37 0.62
4 4 -4 7.71 0.48
4 4 -4 6.82 0.35
4 4 -4 7.91 0.48
4 4 -3 8.75 0.36
4 4 -3 9.84 0.54
4 4 -2 25.36 0.86
4 4 -2 25.33 0.62
4 4 -2 27.41 0.7
4 4 -2 26.76 0.85
4 4 -1 0.46 0.1
4 4 -1 0.52 0.08
4 4 -1 0.49 0.15
4 4 0 31.46 0.75
4 4 1 81.55 2.1
4 4 2 97.58 1.98
4 4 2 104.7 2.5
4 4 3 0.57 0.07
4 4 3 0.67 0.2
4 4 4 0.38 0.07
4 4 4 0.56 0.09
4 4 4 0.51 0.17
-4 -4 -4 0.43 0.11
4 4 5 8.58 0.24
-4 -4 -5 8.51 0.37
4 4 5 8.69 0.55
4 4 5 8.96 0.32
-4 -4 -6 0.49 0.13
4 4 6 0.42 0.09
4 4 6 0.25 0.14
4 4 6 0.32 0.14
4 4 7 8.65 0.25
4 4 7 7.83 0.22
4 4 7 8.57 0.26
-4 -4 -8 4.71 0.32
4 4 8 4.48 0.34
4 4 8 3.87 0.18
4 4 9 8.32 0.39
-4 -4 -9 12.61 0.55
4 4 9 15.96 0.59
4 4 9 11.62 0.35
4 4 10 0.64 0.13
4 4 10 0.77 0.15
4 4 10 0.99 0.24
4 4 11 0.73 0.13
4 4 11 0.75 0.19
-4 -4 -12 2.09 0.13
4 4 12 1.9 0.16
-4 -4 -13 2.42 0.11
4 4 13 1.84 0.11
-4 -4 -14 1.1 0.05
-4 -4 -14 0.64 0.05
4 5 -11 9.77 0.24
4 5 -10 4.33 0.15
4 5 -10 4.08 0.16
4 5 -9 0.17 0.08
4 5 -8 0.67 0.11
4 5 -8 0.88 0.14
4 5 -8 0.86 0.11
4 5 -7 4.81 0.22
4 5 -7 5.46 0.27
4 5 -7 5.02 0.24
4 5 -6 23.26 0.62
4 5 -6 23.07 0.95
4 5 -6 26.85 0.72
4 5 -6 25.55 0.67
4 5 -5 16.5 0.8
4 5 -5 17.45 0.57
4 5 -4 19.15 0.47
4 5 -4 13.87 0.72
4 5 -4 15.23 0.54
4 5 -4 21.11 0.59
4 5 -4 20.19 0.82
4 5 -3 3.46 0.34
4 5 -2 1.52 0.27
4 5 -1 0.44 0.2
4 5 0 3.52 0.4
4 5 1 33.03 0.72
4 5 2 98.8 2.9
4 5 2 106.79 2.15
-4 -5 -3 13.49 0.45
4 5 3 12.57 0.78
4 5 3 12.54 0.32
4 5 4 7.05 0.56
4 5 4 6.48 0.24
-4 -5 -4 5.91 0.3
4 5 5 0.74 0.09
4 5 5 0.86 0.21
-4 -5 -5 0.8 0.14
4 5 5 0.63 0.08
4 5 6 0.42 0.09
4 5 6 0.29 0.09
4 5 6 0.24 0.09
4 5 6 0.31 0.15
4 5 6 0.28 0.08
4 5 7 0.42 0.11
-4 -5 -7 0.44 0.14
4 5 7 0.58 0.2
4 5 7 0.49 0.09
4 5 8 0.49 0.12
4 5 8 0.18 0.13
-4 -5 -8 0.43 0.15
4 5 8 0.14 0.24
4 5 8 0.26 0.09
4 5 9 0.84 0.16
4 5 9 1.31 0.1
4 5 10 1.01 0.16
4 5 10 1.13 0.11
4 5 11 1.35 0.18
-4 -5 -12 1.72 0.11
4 5 12 1.17 0.11
-4 -5 -13 1.12 0.07
4 6 -10 3.2 0.13
4 6 -9 0.36 0.08
4 6 -9 0.39 0.1
4 6 -8 0.34 0.09
4 6 -8 0.21 0.12
4 6 -8 0.3 0.12
4 6 -7 9.98 0.32
4 6 -7 10.41 0.34
4 6 -7 10.34 0.31
4 6 -6 0.68 0.16
4 6 -6 0.81 0.14
4 6 -6 0.63 0.1
4 6 -5 8.97 0.31
4 6 -5 10.04 0.37
4 6 -4 19.56 0.53
4 6 -4 19.39 0.5
4 6 -4 18.81 0.51
4 6 -3 24.36 0.63
4 6 -3 22.37 0.59
4 6 -3 24.87 0.62
4 6 -3 21.92 0.64
4 6 -3 26.32 0.72
4 6 -3 25.17 0.59
4 6 -2 5.71 0.25
4 6 -2 5.23 0.22
4 6 -2 5.75 0.22
4 6 -2 6.01 0.25
4 6 -2 5.19 0.22
4 6 -2 6.31 0.23
4 6 -1 4.9 0.2
4 6 -1 5.14 0.19
4 6 -1 4.43 0.22
4 6 -1 5.12 0.27
4 6 -1 5.24 0.47
4 6 0 18.96 0.47
4 6 0 16.92 0.53
4 6 0 19.19 0.55
4 6 0 18.3 0.5
4 6 0 19.24 0.97
4 6 0 18.75 0.47
4 6 0 18.97 0.58
4 6 1 4.77 0.19
4 6 1 4.94 0.19
4 6 1 4.71 0.21
4 6 1 4.35 0.25
4 6 2 17.75 0.44
4 6 2 18.01 0.98
4 6 2 17.5 0.44
4 6 2 17.79 0.42
4 6 2 17.7 0.44
4 6 2 16.74 0.56
4 6 3 2.4 0.13
4 6 3 1.92 0.13
4 6 3 1.7 0.16
4 6 3 2.08 0.11
4 6 3 1.71 0.33
4 6 3 2.01 0.12
4 6 3 2.22 0.13
4 6 4 10.27 0.29
4 6 4 10.32 0.29
4 6 4 8.61 0.31
4 6 4 9 0.35
4 6 4 10.15 0.27
4 6 4 9.16 0.28
4 6 5 11.54 0.32
4 6 5 8.18 0.33
4 6 5 10.19 0.35
4 6 5 11.76 0.31
4 6 5 8.4 0.35
4 6 5 12 0.38
4 6 5 11.11 0.31
4 6 5 10.43 0.3
4 6 6 0.89 0.12
4 6 6 0.42 0.1
4 6 6 0.8 0.11
4 6 6 0.82 0.17
4 6 6 0.81 0.11
4 6 6 0.7 0.1
4 6 7 0.27 0.12
4 6 7 0.1 0.1
4 6 7 0.2 0.19
4 6 7 0.31 0.11
4 6 8 0.84 0.13
4 6 8 1.28 0.24
4 6 8 1.19 0.11
4 6 9 0.28 0.19
4 6 9 0.38 0.09
4 6 10 2.35 0.2
4 6 10 1.6 0.1
4 6 11 2.23 0.15
-4 -6 -12 2.47 0.11
4 7 -9 1.38 0.09
4 7 -8 0.56 0.11
4 7 -7 1.1 0.15
4 7 -7 1 0.1
4 7 -6 0.23 0.11
4 7 -6 0.26 0.14
4 7 -6 0.18 0.09
4 7 -5 0.35 0.12
4 7 -5 0.36 0.11
4 7 -5 -0.07 0.12
4 7 -5 0.27 0.16
4 7 -5 0.12 0.1
4 7 -4 2.04 0.16
4 7 -4 1.85 0.16
4 7 -4 2.07 0.15
4 7 -4 1.65 0.19
4 7 -4 1.99 0.21
4 7 -4 1.63 0.14
4 7 -3 13.33 0.42
4 7 -3 12.69 0.39
4 7 -3 14.59 0.51
4 7 -3 13.32 0.41
4 7 -3 11.85 0.42
4 7 -2 28.15 0.67
4 7 -2 23.73 0.63
4 7 -2 27.58 0.68
4 7 -2 24.32 0.62
4 7 -2 27.28 0.63
4 7 -2 22.88 0.58
4 7 -1 8.58 0.31
4 7 -1 9.96 0.36
4 7 -1 9.7 0.31
4 7 -1 9.04 0.26
4 7 0 2.87 0.17
4 7 0 3.05 0.21
4 7 0 3.16 0.18
4 7 0 2.84 0.13
4 7 0 2.75 0.13
4 7 0 3.28 0.18
4 7 1 0.69 0.25
4 7 1 0.35 0.11
4 7 1 0.34 0.12
4 7 1 0.39 0.11
4 7 1 0.35 0.08
4 7 1 0.43 0.09
4 7 2 0.35 0.11
4 7 2 0.27 0.12
4 7 2 0.18 0.09
4 7 2 0.29 0.08
4 7 2 0.4 0.09
4 7 2 0.66 0.12
4 7 2 0.34 0.09
4 7 3 0.25 0.1
4 7 3 0.31 0.08
4 7 3 0.2 0.12
4 7 3 0.16 0.1
4 7 3 0.27 0.08
4 7 3 0.36 0.1
4 7 3 0.28 0.1
4 7 3 0.27 0.11
4 7 4 1.91 0.13
4 7 4 1.53 0.13
4 7 4 1.59 0.16
4 7 4 1.84 0.12
4 7 4 1.87 0.14
4 7 4 1.88 0.15
4 7 4 1.63 0.14
4 7 5 11.69 0.33
4 7 5 7.63 0.32
4 7 5 10.38 0.36
4 7 5 8.67 0.35
4 7 5 11.85 0.32
4 7 5 12.22 0.37
4 7 5 11.15 0.33
4 7 6 9.96 0.31
4 7 6 10.79 0.37
4 7 6 10.65 0.31
4 7 6 9.79 0.29
4 7 7 6.55 0.25
4 7 7 6.96 0.31
4 7 7 6.63 0.23
4 7 7 6.01 0.21
4 7 8 1.86 0.2
4 7 8 1.72 0.13
4 7 9 0.37 0.13
4 7 9 0.46 0.09
4 7 10 0.18 0.09
4 7 10 0.02 0.06
4 8 -6 1.38 0.15
4 8 -6 1.44 0.11
4 8 -5 0.19 0.13
4 8 -5 0.28 0.1
4 8 -4 0.68 0.13
4 8 -4 0.69 0.14
4 8 -4 0.63 0.12
4 8 -3 2.11 0.18
4 8 -3 2.2 0.17
4 8 -2 1.07 0.16
4 8 -2 1.1 0.11
4 8 -2 1.03 0.15
4 8 -1 0.62 0.15
4 8 -1 0.41 0.1
4 8 -1 0.38 0.13
4 8 0 13.24 0.44
4 8 0 15.15 0.52
4 8 0 15.88 0.45
4 8 0 13.88 0.38
4 8 0 15.09 0.48
4 8 0 13.77 0.36
4 8 0 16.91 0.46
4 8 1 10.03 0.35
4 8 1 10.49 0.43
4 8 1 9.73 0.29
4 8 1 10.79 0.37
4 8 1 10.11 0.3
4 8 1 11.12 0.37
4 8 2 2.13 0.17
4 8 2 1.9 0.16
4 8 2 1.9 0.13
4 8 2 2.01 0.15
4 8 2 2.26 0.14
4 8 2 2.14 0.19
4 8 3 0.82 0.13
4 8 3 0.72 0.12
4 8 3 0.81 0.11
4 8 3 1.06 0.14
4 8 3 0.98 0.17
4 8 4 0.26 0.1
4 8 4 0.26 0.11
4 8 4 0.24 0.1
4 8 4 0.33 0.13
4 8 4 0.2 0.14
4 8 4 0.28 0.09
4 8 5 4.31 0.22
4 8 5 7.66 0.27
4 8 6 9.77 0.3
4 8 6 9.37 0.28
4 8 7 4.64 0.2
4 8 8 1.13 0.11
4 8 9 0.02 0.06
4 8 10 0.01 0.03
4 9 -6 2.84 0.61
4 9 -5 2.23 0.78
4 9 -4 4.59 0.21
4 9 -4 4.76 0.2
4 9 -3 5.45 0.25
4 9 -3 0.47 1.13
4 9 -2 0.28 0.15
4 9 -2 0.32 0.13
4 9 -1 1.27 0.12
4 9 -1 2.09 0.18
4 9 0 7.64 0.33
4 9 0 10.84 1.23
4 9 0 8.2 0.26
4 9 0 10.01 0.36
4 9 1 8.26 0.33
4 9 1 8.2 0.26
4 9 2 5.13 0.19
4 9 2 4.73 0.2
4 9 3 1.19 0.14
4 9 3 1.17 0.12
4 9 3 1.37 0.2
4 9 4 0.15 0.09
4 9 4 0.24 0.16
4 9 5 -0.13 0.14
4 9 5 0.27 0.14
4 9 7 0.87 0.11
4 9 8 1.56 0.09
4 10 -3 0.94 0.14
4 10 -2 0.34 0.15
4 10 -1 0.53 0.17
4 10 0 1.29 0.19
4 10 0 1.29 0.11
4 10 1 3.52 0.23
4 10 1 3.52 0.16
4 10 2 2.91 0.19
4 10 2 2.98 0.15
4 10 3 0.83 0.11
4 10 6 0.09 0.07
-5 5 2 0.04 0.05
-5 5 2 0.03 0.08
5 -5 -2 0.06 0.04
-5 5 1 0.24 0.07
-5 5 1 0.22 0.08
5 -5 -1 0.2 0.05
-5 5 0 0.11 0.08
5 -5 0 0.12 0.05
-5 5 -1 0.32 0.11
-5 5 -1 0.35 0.1
-5 5 -2 4.19 0.2
-5 5 -3 1.25 0.12
-5 5 -3 1.55 0.14
-5 5 -4 0.06 0.07
-5 5 -4 0.02 0.09
-5 5 -5 0.16 0.07
-5 5 -5 0.19 0.08
-5 5 -5 0.23 0.09
-5 5 -5 0.32 0.08
-5 5 -6 0.39 0.06
-5 5 -6 0.28 0.08
-5 5 -8 0.07 0.04
-5 4 5 1.74 0.09
-5 4 4 1.31 0.07
5 -4 -4 1.48 0.09
-5 4 3 0.56 0.08
5 -4 -3 0.53 0.08
5 -4 -2 0.15 0.07
-5 4 1 0.82 0.12
-5 4 1 0.98 0.17
5 -4 -1 0.83 0.09
-5 4 0 0.13 0.14
-5 4 0 0.2 0.13
-5 4 0 0.09 0.14
-5 4 -1 0.22 0.18
-5 4 -1 0.32 0.12
-5 4 -2 6.75 0.4
-5 4 -2 7.44 0.28
-5 4 -3 2.55 0.26
-5 4 -3 2.71 0.19
-5 4 -4 -0.01 0.15
-5 4 -4 0.21 0.14
-5 4 -5 0.14 0.14
-5 4 -5 0.08 0.13
-5 4 -5 0.12 0.09
-5 4 -5 0.15 0.11
-5 4 -6 0.6 0.11
-5 4 -6 0.8 0.15
-5 4 -6 0.62 0.1
-5 4 -7 0.08 0.12
-5 4 -7 0.04 0.07
-5 4 -9 0.32 0.08
-5 4 -10 0.72 0.06
5 -3 -7 0.14 0.04
-5 3 6 0.13 0.07
-5 3 5 0.65 0.11
-5 3 4 0.95 0.09
5 -3 -4 1.28 0.11
-5 3 4 1.26 0.17
5 -3 -3 4.58 0.19
5 -3 -2 11.36 0.32
-5 3 1 0.48 0.17
-5 3 0 1.2 0.25
-5 3 -1 1.12 0.27
-5 3 -1 0.64 0.13
-5 3 -2 1.45 0.17
-5 3 -3 3.6 0.35
-5 3 -3 3.59 0.21
-5 3 -4 1.71 0.26
-5 3 -4 1.75 0.18
-5 3 -5 9.45 0.44
-5 3 -5 9.6 0.36
-5 3 -6 1.74 0.19
-5 3 -6 1.57 0.16
-5 3 -6 1.9 0.19
-5 3 -7 0.12 0.11
-5 3 -7 0.01 0.14
-5 3 -7 0.1 0.1
-5 3 -8 0.01 0.13
-5 3 -10 0.02 0.08
-5 3 -11 0.11 0.06
5 -2 -8 1.97 0.09
5 -2 -7 0.42 0.08
-5 2 6 0.32 0.09
5 -2 -5 0.63 0.1
5 -2 -5 0.73 0.12
5 -2 -4 0.9 0.11
5 -2 -4 1.33 0.13
-5 2 4 1.18 0.15
5 -2 -3 1.34 0.12
5 -2 -3 1.75 0.13
-5 2 3 1.6 0.15
-5 2 2 14.27 0.57
5 -2 -2 19.47 0.46
5 -2 -1 1.35 0.26
5 -2 -1 1.53 0.2
-5 2 0 9.57 0.3
5 -2 0 7.95 0.42
-5 2 -1 1.52 0.14
5 -2 1 1.19 0.18
-5 2 -2 1.9 0.27
-5 2 -2 2.78 0.17
-5 2 -3 2.34 0.29
-5 2 -3 3.21 0.19
-5 2 -4 0.72 0.21
-5 2 -4 1.1 0.14
-5 2 -5 6.45 0.48
-5 2 -5 8.21 0.3
-5 2 -6 6.64 0.33
-5 2 -6 5.74 0.26
-5 2 -7 1.57 0.17
-5 2 -7 1.35 0.16
-5 2 -8 1.36 0.15
-5 2 -9 1.56 0.14
-5 2 -11 0.29 0.08
-5 2 -12 0.16 0.06
5 -1 -9 1.69 0.09
5 -1 -8 1.99 0.12
-5 1 8 1.55 0.1
-5 1 7 6.72 0.23
5 -1 -6 3.26 0.17
5 -1 -6 3.38 0.18
-5 1 6 3.73 0.21
5 -1 -5 0.64 0.12
5 -1 -5 0.54 0.11
-5 1 5 0.66 0.15
5 -1 -4 0.22 0.1
5 -1 -4 0.33 0.1
-5 1 4 0.32 0.13
5 -1 -3 3.13 0.17
5 -1 -3 3.39 0.17
5 -1 -3 3.44 0.3
5 -1 -3 3.83 0.18
5 -1 -2 10.77 0.57
5 -1 -2 11.37 0.33
5 -1 -2 11.13 0.53
5 -1 -2 12.25 0.34
5 -1 -1 1.16 0.25
5 -1 -1 1.08 0.2
5 -1 0 22.07 0.76
5 -1 1 18.38 0.68
-5 1 -2 8.66 0.47
5 -1 2 8.24 0.42
-5 1 -2 8.65 0.29
-5 1 -3 1.82 0.25
-5 1 -3 1.39 0.13
-5 1 -4 3.02 0.31
-5 1 -4 3.31 0.17
-5 1 -5 0.75 0.21
-5 1 -5 0.84 0.11
-5 1 -6 13.91 0.4
-5 1 -6 12.28 0.64
-5 1 -7 5.35 0.23
-5 1 -7 5.37 0.44
-5 1 -8 13 0.38
5 -1 8 13.3 0.34
-5 1 -9 1.01 0.12
-5 1 -10 0.49 0.1
-5 1 -12 0.07 0.07
-5 1 -13 2.43 0.1
5 0 -9 2.82 0.14
-5 0 9 2.74 0.12
-5 0 8 1.81 0.14
5 0 -7 7.66 0.27
-5 0 7 9.25 0.31
5 0 -6 8.78 0.3
-5 0 6 9.69 0.35
5 0 -5 3.88 0.2
-5 0 5 4.18 0.24
5 0 -4 0.38 0.11
5 0 -4 0.42 0.18
5 0 -4 0.52 0.11
-5 0 4 0.39 0.15
5 0 -3 18.13 0.47
5 0 -3 17.42 0.69
5 0 -3 16.23 0.46
5 0 -2 0.56 0.2
5 0 -2 0.76 0.1
5 0 -2 0.83 0.19
5 0 -2 0.84 0.1
5 0 -1 6.33 0.21
5 0 -1 6.83 0.47
5 0 -1 6.37 0.38
5 0 -1 5.95 0.21
5 0 0 11.98 0.65
5 0 0 12.05 0.52
-5 0 -1 37.35 1.12
5 0 1 41.64 1.15
-5 0 -2 36.34 1.08
5 0 2 35.79 1.04
5 0 2 37.51 0.81
-5 0 -3 10.63 0.52
5 0 3 11.3 0.3
-5 0 -4 14.42 0.62
5 0 4 14.75 0.38
-5 0 -5 0.22 0.17
5 0 5 0.61 0.23
-5 0 -5 0.27 0.1
-5 0 -5 0.17 0.08
-5 0 -6 3.06 0.31
5 0 6 2.83 0.3
-5 0 -6 2.63 0.14
-5 0 -6 2.41 0.19
-5 0 -7 0.6 0.19
-5 0 -7 0.4 0.09
-5 0 -8 7.75 0.48
-5 0 -8 6.87 0.24
5 0 8 8.05 0.24
-5 0 -9 8.48 0.27
5 0 9 8.94 0.27
5 0 9 8.29 0.29
-5 0 -10 1.35 0.12
5 0 10 1.36 0.11
5 0 10 1.49 0.14
5 0 11 2.11 0.15
5 0 12 0.52 0.1
-5 0 -13 0.47 0.07
5 0 13 0.48 0.07
-5 0 -14 0.14 0.04
5 1 -10 2.08 0.1
-5 -1 9 2.23 0.14
-5 -1 8 0.31 0.15
5 1 -7 5.54 0.24
-5 -1 7 6.32 0.3
5 1 -6 6.15 0.25
-5 -1 6 6.3 0.3
5 1 -5 0.69 0.12
5 1 -5 0.54 0.19
5 1 -5 0.94 0.13
-5 -1 5 0.73 0.18
5 1 -4 0.65 0.11
5 1 -4 0.64 0.18
5 1 -4 0.66 0.12
5 1 -3 0.4 0.18
5 1 -3 0.71 0.11
5 1 -3 0.51 0.09
5 1 -2 9.53 0.3
5 1 -2 10.22 0.53
5 1 -2 9.33 0.28
5 1 -1 1.54 0.14
5 1 -1 1.57 0.28
5 1 0 0.34 0.24
-5 -1 -1 4.71 0.29
5 1 1 4.78 0.17
-5 -1 -2 69.11 1.65
5 1 2 65.85 1.39
-5 -1 -3 53.99 1.33
5 1 3 47.73 1.04
-5 -1 -4 45.28 1.3
5 1 4 60.38 1.71
-5 -1 -5 0.42 0.16
5 1 5 0.57 0.24
-5 -1 -6 2.9 0.27
5 1 6 3.19 0.32
-5 -1 -6 2.4 0.21
5 1 6 3.15 0.17
-5 -1 -6 2.41 0.12
5 1 6 1.75 0.13
-5 -1 -7 4.13 0.28
-5 -1 -7 4.29 0.16
-5 -1 -7 4.47 0.33
-5 -1 -8 1.91 0.11
5 1 8 2.37 0.13
-5 -1 -8 2.14 0.26
-5 -1 -8 2.31 0.12
5 1 8 1.85 0.15
-5 -1 -9 11.02 0.31
-5 -1 -9 11.91 0.57
-5 -1 -9 11.42 0.5
5 1 9 11.83 0.33
-5 -1 -9 12.31 0.32
5 1 9 10.89 0.38
5 1 10 7.05 0.24
-5 -1 -10 7.1 0.23
5 1 10 6.95 0.28
-5 -1 -10 6.73 0.22
-5 -1 -11 4.43 0.17
5 1 11 4.12 0.21
5 1 12 0.65 0.11
5 1 13 0.15 0.08
-5 -1 -14 0.05 0.04
5 2 -10 2.15 0.11
5 2 -9 4.01 0.16
-5 -2 9 4.76 0.19
5 2 -8 1.21 0.15
-5 -2 8 1.38 0.17
-5 -2 7 0.97 0.19
5 2 -6 0.36 0.13
-5 -2 6 0.4 0.19
5 2 -5 6.22 0.43
5 2 -5 5.76 0.26
5 2 -5 5.13 0.39
5 2 -5 7.27 0.3
-5 -2 5 7.1 0.3
5 2 -4 23.92 0.63
5 2 -4 22.76 0.84
5 2 -3 40.35 1.17
5 2 -3 41.59 1.25
5 2 -3 38.87 0.93
5 2 -2 32.83 0.78
5 2 -2 33.89 1.08
5 2 -2 35.51 0.98
5 2 -1 1.38 0.13
5 2 -1 1.47 0.26
5 2 -1 1.59 0.18
5 2 0 0.22 0.09
5 2 0 0.27 0.21
5 2 0 0.25 0.11
5 2 1 7.14 0.21
5 2 1 7.33 0.35
-5 -2 -2 1.8 0.16
5 2 2 1.78 0.37
5 2 2 1.82 0.18
5 2 2 1.51 0.16
5 2 2 1.45 0.09
-5 -2 -3 0.74 0.13
5 2 3 1.11 0.17
5 2 3 0.87 0.36
5 2 3 0.74 0.07
5 2 4 94.01 1.92
5 2 4 95.26 2.49
5 2 5 33.67 1.12
5 2 5 32.04 0.69
-5 -2 -6 6.68 0.36
5 2 6 7.22 0.24
5 2 6 7.67 0.47
-5 -2 -6 6.68 0.36
-5 -2 -7 0.5 0.15
-5 -2 -7 0.5 0.15
5 2 7 0.48 0.08
5 2 7 0.28 0.11
-5 -2 -8 1.84 0.1
-5 -2 -8 1.71 0.22
-5 -2 -8 1.63 0.22
5 2 8 1.43 0.12
-5 -2 -9 0.23 0.07
-5 -2 -9 0.07 0.14
-5 -2 -9 0.18 0.15
5 2 9 0.18 0.1
5 2 9 0.25 0.14
-5 -2 -10 0.6 0.09
5 2 10 0.46 0.1
5 2 10 0.53 0.16
-5 -2 -11 2.79 0.13
5 2 11 2.85 0.21
-5 -2 -12 5.59 0.19
-5 -2 -12 6.29 0.2
5 2 12 5.79 0.24
5 2 13 1.34 0.11
-5 -2 -14 0.7 0.06
5 3 -9 4.26 0.17
5 3 -9 4.19 0.19
-5 -3 9 4.64 0.18
5 3 -8 8.37 0.3
-5 -3 8 8.69 0.29
5 3 -7 34.58 0.89
-5 -3 7 38.32 0.88
-5 -3 6 15.19 0.48
5 3 -5 3.13 0.32
5 3 -5 2.93 0.29
-5 -3 5 3.63 0.22
5 3 -4 0.64 0.2
5 3 -4 0.53 0.16
5 3 -4 0.47 0.15
5 3 -3 9.95 0.46
5 3 -3 10.43 0.41
5 3 -3 9.78 0.51
5 3 -2 58.1 1.51
5 3 -2 60.91 1.71
5 3 -1 8.94 0.31
5 3 -1 10.85 0.5
5 3 -1 9.91 0.41
5 3 -1 11.52 0.31
5 3 -1 10.13 0.57
5 3 0 3.38 0.19
5 3 0 4.11 0.16
5 3 0 3.64 0.23
5 3 1 25.99 1.07
5 3 1 27.22 0.6
5 3 1 24.58 0.72
5 3 2 2.47 0.19
5 3 2 2.05 0.35
5 3 2 1.62 0.15
5 3 3 1.07 0.15
5 3 3 0.74 0.31
5 3 4 59.19 1.73
5 3 4 58.15 1.2
5 3 5 35.49 0.78
5 3 5 38.2 1.23
5 3 6 11.81 0.42
5 3 6 17 0.68
5 3 7 1.49 0.18
-5 -3 -8 0.14 0.06
5 3 8 0.17 0.09
5 3 8 0.13 0.15
-5 -3 -9 1.84 0.11
-5 -3 -9 1.98 0.24
5 3 9 1.63 0.14
5 3 9 2.01 0.23
-5 -3 -10 0.57 0.09
5 3 10 0.84 0.19
-5 -3 -11 0.44 0.08
5 3 11 0.67 0.17
-5 -3 -12 2.99 0.13
5 3 12 2.78 0.19
-5 -3 -13 2.3 0.11
-5 -3 -13 2.55 0.11
5 4 -10 0.3 0.05
5 4 -10 0.43 0.07
5 4 -9 5.94 0.21
5 4 -9 6.42 0.23
5 4 -8 17.6 0.47
5 4 -8 18.5 0.5
5 4 -8 17.35 0.49
-5 -4 8 17.37 0.44
5 4 -7 38.7 0.91
-5 -4 7 35.25 0.82
5 4 -6 1.88 0.19
-5 -4 6 2.07 0.17
5 4 -5 2.27 0.31
5 4 -5 2.18 0.21
-5 -4 5 2.15 0.17
5 4 -4 2.96 0.35
5 4 -4 2.5 0.19
5 4 -4 2.59 0.25
5 4 -4 2.79 0.23
-5 -4 4 3.09 0.17
5 4 -3 1.4 0.26
5 4 -3 1.86 0.17
5 4 -3 1.51 0.19
5 4 -3 1.91 0.28
5 4 -3 1.39 0.21
5 4 -3 1.61 0.14
5 4 -2 19.32 0.65
5 4 -2 19 0.79
5 4 -1 6.55 0.32
5 4 -1 7 0.48
5 4 0 32.13 0.9
5 4 0 33.38 1.25
5 4 1 8.3 0.25
5 4 1 7 0.3
5 4 1 7.96 0.59
5 4 2 3.69 0.14
5 4 2 4.2 0.48
5 4 3 0.35 0.07
5 4 3 0.68 0.28
5 4 4 17.7 0.42
5 4 4 16.64 0.45
-5 -4 -5 10.3 0.44
5 4 5 9.99 0.28
5 4 5 9.73 0.34
-5 -4 -6 14.14 0.53
5 4 6 14.69 0.36
5 4 6 13.88 0.47
5 4 6 13.15 0.33
5 4 7 6.02 0.3
-5 -4 -7 7.88 0.4
5 4 7 7.01 0.23
5 4 7 7.04 0.36
5 4 7 6.54 0.2
5 4 8 10.2 0.36
5 4 8 10.3 0.47
5 4 9 2.14 0.27
-5 -4 -10 0.92 0.11
5 4 10 1.49 0.23
-5 -4 -11 2 0.12
-5 -4 -12 1.07 0.09
5 4 12 0.74 0.14
-5 -4 -13 0.07 0.05
5 4 13 0.12 0.07
-5 -4 -14 1.34 0.06
5 5 -10 0.19 0.04
5 5 -10 0.13 0.05
5 5 -10 0.12 0.05
5 5 -9 0.45 0.08
5 5 -9 0.42 0.09
5 5 -8 0.29 0.1
5 5 -8 0.4 0.11
5 5 -8 0.24 0.09
5 5 -7 13.37 0.43
5 5 -7 12.55 0.4
5 5 -6 3.22 0.19
5 5 -6 3.87 0.25
5 5 -6 3.56 0.23
5 5 -5 1.16 0.18
5 5 -4 0.04 0.11
5 5 -3 0.19 0.1
5 5 -3 0.47 0.21
5 5 -3 0.3 0.1
5 5 -2 8.8 0.62
5 5 -2 7.4 0.31
5 5 -1 2.06 0.15
5 5 -1 2.66 0.15
5 5 -1 2.71 0.39
5 5 -1 2.62 0.2
5 5 0 19.5 1.03
5 5 0 17.18 0.54
5 5 1 24.24 1.26
5 5 1 26.84 1.11
5 5 2 38.74 0.84
5 5 2 44.89 1.51
5 5 3 37.56 0.84
5 5 3 35.28 0.8
5 5 3 36.47 0.81
5 5 3 35.45 0.78
-5 -5 -4 20.26 0.63
5 5 4 19.15 0.46
5 5 4 18.09 1.06
5 5 4 20.03 0.49
5 5 4 18.37 0.43
-5 -5 -5 2.18 0.2
5 5 5 2.43 0.14
5 5 5 2.25 0.37
5 5 5 2.47 0.17
5 5 5 2.01 0.12
5 5 5 2.04 0.17
5 5 6 0.14 0.11
-5 -5 -6 0.16 0.12
5 5 6 0.25 0.1
5 5 6 0.29 0.18
5 5 6 0.28 0.14
5 5 6 0.06 0.08
5 5 7 1.47 0.16
-5 -5 -7 1.96 0.21
5 5 7 1.77 0.23
5 5 7 1.5 0.11
-5 -5 -8 11.36 0.5
5 5 8 12.08 0.52
5 5 8 10.6 0.29
5 5 9 5.43 0.18
5 5 10 0.16 0.21
-5 -5 -11 0.23 0.09
5 5 11 0.08 0.14
-5 -5 -12 0.63 0.07
5 5 12 0.42 0.1
-5 -5 -13 0.18 0.04
5 6 -9 0.47 0.07
5 6 -9 0.42 0.08
5 6 -8 0.23 0.08
5 6 -8 0.11 0.1
5 6 -8 0.2 0.1
5 6 -8 0.12 0.08
5 6 -7 1.78 0.14
5 6 -7 2.02 0.18
5 6 -7 1.99 0.16
5 6 -6 0.86 0.17
5 6 -6 0.75 0.15
5 6 -5 0.85 0.14
5 6 -5 0.46 0.16
5 6 -4 11.64 0.38
5 6 -4 12.79 0.48
5 6 -3 7.91 0.32
5 6 -3 7.49 0.28
5 6 -3 8.23 0.56
5 6 -2 2.14 0.16
5 6 -2 2.08 0.18
5 6 -2 2.14 0.25
5 6 -2 2.55 0.15
5 6 -2 2.46 0.36
5 6 -2 2.52 0.2
5 6 -1 0.55 0.12
5 6 -1 0.32 0.11
5 6 -1 0.69 0.09
5 6 -1 0.48 0.16
5 6 -1 0.51 0.1
5 6 -1 0.73 0.27
5 6 -1 0.61 0.09
5 6 -1 0.62 0.15
5 6 0 1.54 0.12
5 6 0 1.21 0.16
5 6 0 1.92 0.37
5 6 0 1.57 0.11
5 6 0 1.89 0.2
5 6 1 13.11 0.39
5 6 1 16.56 0.41
5 6 1 12.99 0.44
5 6 1 15.5 1.02
5 6 1 14.53 0.36
5 6 2 16.17 0.44
5 6 2 18.31 0.46
5 6 2 17.97 0.54
5 6 2 14.64 0.44
5 6 2 15.64 1.06
5 6 2 17.07 0.43
5 6 2 16.62 0.41
5 6 2 14.23 0.57
5 6 3 9.74 0.3
5 6 3 10.02 0.32
5 6 3 8.27 0.37
-5 -6 -3 11.02 0.45
5 6 3 9.07 0.25
5 6 3 8.32 0.77
5 6 3 9.34 0.29
5 6 3 8.6 0.41
5 6 4 15.5 0.41
5 6 4 15.17 0.46
-5 -6 -4 15.93 0.56
5 6 4 16.51 1.01
5 6 4 15.26 0.43
5 6 4 16.36 0.39
5 6 4 14.23 0.53
5 6 5 0.34 0.11
5 6 5 0.31 0.13
-5 -6 -5 0.53 0.14
5 6 5 0.42 0.22
5 6 5 0.41 0.13
5 6 5 0.5 0.1
5 6 5 0.53 0.12
5 6 6 -0.04 0.12
5 6 6 0.01 0.17
5 6 6 0.23 0.09
5 6 7 0.22 0.13
5 6 7 0.71 0.11
5 6 8 1.24 0.17
5 6 8 2.15 0.13
5 6 9 12 0.48
5 6 9 9.74 0.26
5 6 10 9.01 0.35
5 6 10 5.61 0.17
-5 -6 -11 4.76 0.16
5 6 11 3.85 0.2
-5 -6 -12 0.25 0.05
5 7 -9 2.48 0.1
5 7 -8 1.28 0.09
5 7 -8 1.29 0.11
5 7 -7 1.93 0.16
5 7 -7 1.63 0.1
5 7 -6 0.52 0.12
5 7 -6 0.55 0.15
5 7 -6 0.55 0.13
5 7 -6 0.51 0.1
5 7 -5 0.33 0.12
5 7 -5 0.16 0.15
5 7 -5 0.3 0.15
5 7 -5 0.2 0.1
5 7 -4 6.96 0.29
5 7 -4 6.18 0.25
5 7 -3 13.2 0.4
5 7 -3 12.81 0.39
5 7 -3 13.44 0.36
5 7 -2 7.95 0.33
5 7 -2 7.86 0.31
5 7 -2 8.94 0.34
5 7 -2 9.08 0.44
5 7 -2 9.07 0.3
5 7 -1 0.68 0.12
5 7 -1 0.77 0.14
5 7 -1 0.83 0.15
5 7 -1 1.1 0.18
5 7 -1 0.85 0.12
5 7 -1 1 0.1
5 7 0 11.68 0.34
5 7 0 9.69 0.41
5 7 0 9.41 0.4
5 7 0 10.98 0.36
5 7 0 9.7 0.29
5 7 1 12.88 0.36
5 7 1 12.43 0.41
5 7 2 0.37 0.12
5 7 2 0.37 0.1
5 7 2 0.29 0.14
5 7 2 0.28 0.07
5 7 2 0.26 0.1
5 7 3 13.99 0.39
5 7 3 13.26 0.41
5 7 3 12.66 0.33
5 7 3 14.11 0.38
5 7 3 13.01 0.36
5 7 4 37.31 0.79
5 7 4 35.67 0.82
5 7 5 3.64 0.22
5 7 5 3.68 0.21
5 7 5 3.99 0.18
5 7 6 0.59 0.13
5 7 6 0.84 0.14
5 7 6 0.96 0.12
5 7 7 0.18 0.12
5 7 7 0.47 0.17
5 7 7 0.3 0.11
5 7 8 0.81 0.14
5 7 8 1.24 0.2
5 7 8 1.21 0.12
5 7 9 2.95 0.22
5 7 9 2.45 0.12
5 7 10 1.27 0.14
5 7 10 0.76 0.07
-5 -7 -11 1.17 0.07
5 8 -7 -0.49 0.52
5 8 -6 0.31 0.08
5 8 -5 1.38 0.15
5 8 -5 1.19 0.11
5 8 -4 0.82 0.14
5 8 -4 0.52 0.12
5 8 -3 2.53 0.19
5 8 -3 2.62 0.19
5 8 -3 2.77 0.18
5 8 -3 2.35 0.18
5 8 -2 0.37 0.14
5 8 -2 0.63 0.13
5 8 -1 0.42 0.14
5 8 -1 0.61 0.14
5 8 -1 0.49 0.11
5 8 0 1.33 0.16
5 8 0 1.29 0.19
5 8 0 1.26 0.14
5 8 0 1.11 0.09
5 8 0 1.55 0.12
5 8 1 0.29 0.13
5 8 1 0.3 0.12
5 8 1 0.3 0.08
5 8 1 0.03 0.14
5 8 1 0.22 0.1
5 8 2 2.03 0.17
5 8 2 1.54 0.2
5 8 2 1.7 0.11
5 8 2 1.32 0.16
5 8 2 1.72 0.14
5 8 3 1.85 0.16
5 8 3 1.72 0.15
5 8 3 1.56 0.2
5 8 3 1.19 0.16
5 8 3 1.85 0.12
5 8 3 1.49 0.15
5 8 4 10.57 0.32
5 8 4 9.46 0.34
5 8 4 9.6 0.39
5 8 4 10.69 0.32
5 8 5 3.58 0.21
5 8 5 4.05 0.23
5 8 6 6.14 0.27
5 8 6 6 0.22
5 8 7 1.79 0.18
5 8 7 1.71 0.14
5 8 8 -0.03 0.12
5 8 8 -0.01 0.09
5 8 9 0.05 0.06
-5 -8 -10 0.06 0.04
5 8 10 0.1 0.04
5 9 -6 2.07 0.56
5 9 -5 0.24 0.76
5 9 -5 0.22 0.08
5 9 -4 0.25 0.1
5 9 -3 0.3 0.14
5 9 -2 0.63 0.16
5 9 -2 0.57 0.14
5 9 -1 6.06 0.29
5 9 0 3.78 0.24
5 9 0 4.53 1.2
5 9 0 4.32 0.26
5 9 1 1.26 0.17
5 9 1 1.09 0.16
5 9 2 0.87 0.14
5 9 2 0.73 0.1
5 9 2 0.58 0.11
5 9 3 0.56 0.13
5 9 3 0.28 0.12
5 9 4 1.29 0.15
5 9 5 0.05 0.13
5 9 7 2.97 0.14
5 9 8 0.98 0.08
5 10 -4 5.01 0.86
5 10 -2 7.85 1.45
5 10 -1 17.68 1.54
5 10 0 1.28 0.2
5 10 1 2.72 0.22
5 10 5 0.34 0.11
5 10 6 0.3 0.09
-6 4 2 0.02 0.05
-6 4 1 0.05 0.05
-6 4 1 0.02 0.07
-6 4 0 0.86 0.08
6 -4 0 0.86 0.09
-6 4 -1 2.61 0.14
-6 4 -2 1.32 0.12
-6 4 -3 0.31 0.09
-6 4 -4 0.35 0.07
-6 4 -5 0.13 0.08
-6 4 -5 0.12 0.07
-6 4 -6 0.02 0.05
-6 4 -6 0.07 0.07
-6 4 -7 0.07 0.06
-6 4 -8 0.71 0.06
6 -3 -4 0.58 0.06
-6 3 4 0.69 0.08
6 -3 -3 0.54 0.07
-6 3 3 0.95 0.12
6 -3 -2 0.48 0.07
-6 3 1 0.69 0.1
-6 3 1 0.84 0.14
-6 3 0 0.11 0.12
-6 3 -1 0.9 0.18
-6 3 -2 1.9 0.23
-6 3 -2 1.66 0.14
-6 3 -3 1.5 0.14
-6 3 -4 7.21 0.35
-6 3 -4 6.81 0.26
-6 3 -5 1.3 0.16
-6 3 -5 1.18 0.14
-6 3 -6 0.18 0.11
-6 3 -6 0.22 0.1
-6 3 -6 0.27 0.08
-6 3 -7 0.12 0.1
-6 3 -7 0.1 0.08
-6 3 -8 0.09 0.09
-6 3 -9 0.29 0.07
-6 3 -10 0.53 0.05
6 -2 -6 0.65 0.06
-6 2 5 0.16 0.08
6 -2 -5 0.16 0.06
6 -2 -4 1.97 0.11
6 -2 -4 2.14 0.12
6 -2 -3 4.88 0.18
6 -2 -3 5.29 0.19
6 -2 -2 0.61 0.09
6 -2 -2 0.6 0.09
6 -2 -2 0.77 0.12
-6 2 1 0.76 0.16
6 -2 -1 0.89 0.13
6 -2 -1 0.84 0.1
6 -2 -1 0.55 0.09
-6 2 0 0.26 0.18
6 -2 0 0.13 0.08
6 -2 0 0.19 0.07
-6 2 -1 0.37 0.21
6 -2 1 0.19 0.07
-6 2 -2 0.49 0.23
-6 2 -2 0.35 0.11
-6 2 -3 0.39 0.13
-6 2 -3 0.49 0.22
-6 2 -4 14.78 0.57
-6 2 -4 15.56 0.45
-6 2 -5 4.77 0.3
-6 2 -5 5.01 0.24
-6 2 -6 1.48 0.19
-6 2 -6 1.61 0.17
-6 2 -7 0.1 0.11
-6 2 -7 0.07 0.12
-6 2 -8 0.03 0.11
-6 2 -9 -0.03 0.09
-6 2 -10 0.5 0.09
-6 2 -11 0.84 0.07
6 -1 -6 3.15 0.14
-6 1 6 2.85 0.12
6 -1 -5 0.95 0.1
-6 1 5 1.19 0.14
6 -1 -4 0.33 0.1
-6 1 4 0.32 0.13
6 -1 -3 3.47 0.17
-6 1 3 3.15 0.2
6 -1 -2 0.58 0.14
6 -1 -2 0.61 0.1
6 -1 -2 0.4 0.1
6 -1 -1 1.01 0.15
6 -1 -1 0.84 0.12
6 -1 -1 0.71 0.1
6 -1 0 0.25 0.1
6 -1 0 0.27 0.08
6 -1 1 3.41 0.16
6 -1 1 2.95 0.14
6 -1 2 0.21 0.09
-6 1 -3 1.13 0.13
-6 1 -4 7.59 0.28
-6 1 -5 9.37 0.32
-6 1 -6 8.1 0.29
-6 1 -7 11.03 0.35
-6 1 -7 11 0.41
6 -1 8 2.43 0.13
-6 1 -8 2.52 0.17
-6 1 -9 0.51 0.12
-6 1 -10 0.03 0.09
-6 1 -11 0.08 0.08
-6 1 -11 0.09 0.07
-6 1 -12 0.92 0.07
6 0 -8 1.99 0.09
-6 0 8 1.98 0.09
6 0 -7 4.99 0.18
6 0 -7 5.67 0.2
-6 0 7 5.49 0.19
6 0 -6 4.24 0.19
-6 0 6 4.35 0.2
6 0 -5 4.56 0.21
-6 0 5 5.33 0.26
6 0 -4 0.79 0.12
-6 0 4 0.56 0.15
6 0 -3 0.77 0.12
6 0 -2 6.43 0.26
6 0 -2 6.14 0.24
6 0 -1 1.46 0.16
6 0 -1 1.2 0.27
6 0 -1 1.15 0.22
6 0 -1 1.54 0.13
6 0 0 12.67 0.71
6 0 0 13.54 0.38
6 0 0 12.5 0.59
6 0 1 6.76 0.55
6 0 1 6.46 0.23
6 0 1 5.9 0.39
6 0 2 4.39 0.19
6 0 2 4.18 0.32
6 0 3 0.72 0.28
6 0 3 0.57 0.1
-6 0 -3 0.38 0.18
-6 0 -4 0.73 0.21
6 0 4 0.37 0.26
-6 0 -4 0.21 0.09
-6 0 -5 3.85 0.36
6 0 5 4.14 0.42
-6 0 -5 4 0.19
-6 0 -6 7.63 0.49
6 0 6 7.13 0.49
-6 0 -7 9.65 0.31
6 0 7 9.64 0.31
-6 0 -8 6.18 0.24
6 0 8 5.72 0.21
-6 0 -9 0.62 0.11
6 0 9 0.61 0.1
-6 0 -10 0.11 0.1
6 0 10 0.29 0.08
-6 0 -11 0.37 0.08
-6 0 -12 0.44 0.07
6 1 -8 0.47 0.08
-6 -1 8 0.57 0.09
-6 -1 7 2.91 0.18
6 1 -6 4.11 0.21
-6 -1 6 5.11 0.29
6 1 -5 15.93 0.46
-6 -1 5 15.67 0.49
6 1 -4 2.4 0.18
6 1 -3 1.83 0.14
6 1 -3 2.15 0.16
6 1 -2 0.58 0.15
6 1 -2 0.51 0.12
6 1 -2 0.37 0.21
6 1 -2 0.85 0.13
6 1 -1 1.87 0.17
6 1 -1 1.85 0.32
6 1 -1 2.45 0.22
6 1 0 23.12 0.66
6 1 0 23.35 1.04
6 1 0 24.11 0.59
6 1 1 8.37 0.35
6 1 1 7.73 0.61
6 1 1 7.22 0.25
6 1 2 9.66 0.29
-6 -1 -3 4.29 0.32
6 1 3 4.47 0.19
-6 -1 -4 0.33 0.16
6 1 4 0.52 0.3
-6 -1 -5 1.3 0.11
-6 -1 -5 1.6 0.23
6 1 5 1.91 0.35
-6 -1 -5 1.47 0.19
-6 -1 -6 1.54 0.12
-6 -1 -6 1.6 0.24
6 1 6 1.68 0.15
6 1 6 1.42 0.28
-6 -1 -6 1.35 0.18
6 1 6 1.43 0.16
-6 -1 -7 3.29 0.33
-6 -1 -7 3.18 0.15
6 1 7 3.46 0.17
-6 -1 -7 2.62 0.23
6 1 7 2.44 0.17
-6 -1 -8 13.77 0.36
6 1 8 11.92 0.34
-6 -1 -9 1.29 0.11
6 1 9 1.12 0.12
-6 -1 -10 4.98 0.17
6 1 10 4.7 0.17
-6 -1 -11 0.34 0.09
-6 -1 -12 0.72 0.08
-6 -1 -13 1.04 0.07
6 2 -9 0.28 0.05
6 2 -8 1.08 0.09
6 2 -8 1.27 0.11
-6 -2 8 1.35 0.12
6 2 -7 0.67 0.1
6 2 -7 0.79 0.12
-6 -2 7 0.85 0.16
-6 -2 6 0.51 0.2
6 2 -5 27.67 0.73
-6 -2 5 28.1 0.74
6 2 -4 56.83 1.29
-6 -2 4 53.72 1.26
6 2 -3 38.08 1.27
6 2 -3 50.89 1.12
6 2 -2 3.23 0.31
6 2 -2 3.69 0.22
6 2 -2 3.06 0.19
6 2 -2 3.64 0.23
6 2 -1 2.01 0.18
6 2 -1 1.63 0.32
6 2 -1 2.01 0.24
6 2 -1 2.49 0.22
6 2 0 2.94 0.21
6 2 0 3.1 0.42
6 2 0 3.07 0.16
6 2 0 2.61 0.27
6 2 1 3.53 0.25
6 2 1 4.1 0.51
6 2 1 3.43 0.16
6 2 1 3.18 0.28
6 2 1 4.09 0.31
6 2 2 7.01 0.34
6 2 2 6.99 0.66
6 2 2 5.34 0.2
6 2 2 4.79 0.31
6 2 2 6 0.38
6 2 3 9.35 0.38
6 2 3 8.93 0.73
6 2 3 6.74 0.23
6 2 3 6.8 0.4
6 2 4 0.92 0.18
6 2 4 0.89 0.36
6 2 4 0.84 0.19
6 2 5 1.31 0.17
6 2 5 1.16 0.34
6 2 5 1.06 0.17
6 2 6 2.56 0.18
6 2 6 2.51 0.36
-6 -2 -6 1.99 0.12
-6 -2 -6 2.24 0.24
6 2 6 2.06 0.18
-6 -2 -7 0.17 0.13
6 2 7 0.21 0.09
-6 -2 -7 0.19 0.07
-6 -2 -8 4.11 0.31
6 2 8 3.48 0.16
-6 -2 -8 4.41 0.17
6 2 8 3.12 0.19
6 2 9 0.24 0.1
6 2 9 0.34 0.11
-6 -2 -9 0.28 0.09
6 2 10 5.24 0.2
6 2 10 5.1 0.24
-6 -2 -11 1.49 0.1
6 2 11 1.09 0.13
-6 -2 -12 0.2 0.07
6 2 12 0.2 0.08
-6 -2 -13 0.09 0.05
6 3 -9 2.69 0.1
6 3 -9 3.05 0.12
6 3 -8 0.24 0.08
6 3 -8 0.28 0.09
6 3 -8 0.26 0.09
-6 -3 8 0.54 0.1
6 3 -7 1.59 0.15
-6 -3 7 1.76 0.16
6 3 -6 0.83 0.13
6 3 -6 0.92 0.15
6 3 -5 22.31 0.62
-6 -3 5 25.05 0.65
6 3 -4 15.6 0.48
-6 -3 4 16.78 0.5
6 3 -3 9.08 0.33
6 3 -3 8.94 0.38
6 3 -3 7.06 0.43
6 3 -3 7.34 0.49
6 3 -2 2.4 0.18
6 3 -2 1.97 0.25
6 3 -2 2.19 0.31
6 3 -2 2.19 0.2
6 3 -1 4.01 0.2
6 3 -1 3.37 0.21
6 3 -1 3.17 0.27
6 3 -1 3.59 0.42
6 3 -1 3.93 0.26
6 3 0 5.17 0.28
6 3 0 5.98 0.23
6 3 0 6.91 0.29
6 3 0 5.53 0.34
6 3 0 6.71 0.36
6 3 1 0.28 0.17
6 3 1 0.3 0.13
6 3 2 0.44 0.18
6 3 2 0.22 0.36
6 3 2 0.49 0.13
6 3 3 9.03 0.41
6 3 3 8.91 0.78
6 3 4 15.84 0.52
6 3 4 16.59 0.98
6 3 5 20.35 0.56
6 3 5 13.22 0.54
6 3 6 21.3 0.53
-6 -3 -6 17.88 0.65
6 3 6 14.49 0.45
6 3 6 21.73 0.9
6 3 6 14.77 0.52
-6 -3 -7 5.1 0.34
6 3 7 3.95 0.22
6 3 8 1.19 0.12
6 3 8 1.17 0.16
6 3 9 0.99 0.14
6 3 9 0.72 0.1
6 3 9 0.67 0.14
-6 -3 -10 2.58 0.12
6 3 10 2.51 0.2
-6 -3 -10 3 0.14
-6 -3 -11 3.27 0.13
6 3 11 2.96 0.19
-6 -3 -12 4.03 0.14
6 3 12 2.99 0.16
-6 -3 -13 0.25 0.05
6 4 -9 1.93 0.09
6 4 -9 2.08 0.1
6 4 -8 2.48 0.14
6 4 -8 2.34 0.14
6 4 -8 2.44 0.14
-6 -4 8 2.53 0.12
6 4 -7 6.95 0.27
-6 -4 7 7.1 0.24
6 4 -6 0.27 0.13
-6 -4 6 0.41 0.13
6 4 -5 1.34 0.18
6 4 -5 1.1 0.16
-6 -4 5 1.03 0.16
6 4 -4 0.51 0.16
6 4 -4 0.42 0.15
-6 -4 4 0.31 0.14
6 4 -3 1.29 0.18
6 4 -3 1.25 0.15
6 4 -2 1.83 0.19
6 4 -2 1.7 0.22
6 4 -2 1.37 0.26
6 4 -2 1.5 0.17
6 4 -1 13.47 0.56
6 4 -1 13.1 0.78
6 4 0 26.6 0.63
6 4 0 24.97 0.66
6 4 0 25.78 0.8
6 4 1 6.03 0.32
6 4 1 6.06 0.39
6 4 2 0.48 0.15
6 4 2 0.26 0.35
6 4 3 -0.08 0.17
6 4 3 0.16 0.14
6 4 3 0.28 0.36
6 4 4 2.18 0.25
6 4 4 3.28 0.15
6 4 4 3.84 0.15
6 4 4 2.6 0.26
-6 -4 -5 31.22 0.9
6 4 5 31.17 0.65
6 4 5 28.25 0.68
6 4 5 28.84 0.63
6 4 6 41.48 1.25
-6 -4 -6 51.93 1.3
6 4 6 50.35 1.03
6 4 6 46.2 1.1
6 4 6 47.13 1
6 4 6 45.81 1.15
6 4 7 16.76 0.58
-6 -4 -7 16.86 0.62
6 4 7 14.67 0.4
6 4 7 14.04 0.48
6 4 7 15.36 0.37
6 4 8 0.93 0.15
6 4 8 0.64 0.11
6 4 8 0.66 0.16
6 4 9 3.08 0.18
6 4 9 2.43 0.23
-6 -4 -10 0.27 0.07
6 4 10 0.03 0.14
-6 -4 -11 0.48 0.07
6 4 11 0.41 0.13
-6 -4 -12 1.07 0.07
-6 -4 -12 1.09 0.08
-6 -4 -13 0.76 0.06
6 5 -9 0.25 0.04
6 5 -9 0.23 0.05
6 5 -8 1.97 0.11
6 5 -8 1.97 0.12
6 5 -7 7.54 0.27
6 5 -7 8.48 0.3
6 5 -7 8.12 0.3
6 5 -6 3.31 0.2
6 5 -6 3.12 0.22
6 5 -6 3.75 0.25
6 5 -5 9.25 0.39
6 5 -4 0.5 0.14
6 5 -3 1.45 0.19
6 5 -3 2.28 0.19
6 5 -2 2.89 0.23
6 5 -2 3.78 0.47
6 5 -2 3.59 0.24
6 5 -1 11.7 0.38
6 5 -1 12.32 0.87
6 5 -1 12.32 0.48
6 5 0 42.77 1.02
6 5 0 42.75 1.16
6 5 1 15.91 0.43
6 5 1 15.65 0.98
6 5 1 14.35 0.62
6 5 2 9.24 0.31
6 5 2 11.17 0.43
6 5 2 10.11 0.83
6 5 3 2.58 0.16
6 5 3 2.88 0.25
6 5 3 2.22 0.15
6 5 3 2.24 0.12
6 5 3 2.57 0.14
6 5 3 2.8 0.49
6 5 4 0.21 0.15
6 5 4 0.63 0.1
6 5 4 0.31 0.1
6 5 4 0.19 0.08
6 5 4 0.1 0.29
6 5 5 0.9 0.16
-6 -5 -5 1.12 0.17
6 5 5 0.52 0.17
6 5 5 1.42 0.13
6 5 5 1.24 0.35
6 5 5 1.04 0.13
6 5 5 1.24 0.11
6 5 5 1.92 0.35
-6 -5 -6 5.02 0.31
6 5 6 6.02 0.22
6 5 6 5.1 0.53
6 5 6 4.83 0.25
6 5 6 5.06 0.19
6 5 6 4.64 0.25
6 5 7 7.28 0.38
-6 -5 -7 9.44 0.44
6 5 7 9.73 0.29
6 5 7 7.73 0.36
6 5 7 8.86 0.25
6 5 8 5.6 0.28
6 5 8 5.27 0.18
6 5 9 -0.02 0.17
-6 -5 -10 0.48 0.07
6 5 10 0.05 0.16
-6 -5 -11 0.14 0.06
6 5 11 -0.11 0.12
-6 -5 -12 1.5 0.07
6 5 12 1.27 0.1
-6 -5 -13 1.25 0.06
6 6 -8 0.26 0.06
6 6 -8 0.25 0.07
6 6 -7 2.99 0.16
6 6 -7 3.36 0.17
6 6 -6 6.27 0.29
6 6 -5 33.89 0.87
6 6 -5 39.27 0.98
6 6 -4 6.46 0.31
6 6 -4 7.9 0.42
6 6 -3 0.73 0.13
6 6 -3 0.79 0.15
6 6 -2 2.14 0.15
6 6 -2 2.34 0.22
6 6 -1 0.19 0.19
6 6 -1 0.4 0.28
6 6 -1 0.42 0.16
6 6 0 11.44 0.33
6 6 0 12.57 0.51
6 6 1 14.83 0.4
6 6 1 16.79 0.5
6 6 1 10.28 0.44
6 6 1 13.99 1.12
6 6 1 12.52 0.35
6 6 1 13.49 0.58
6 6 2 7.31 0.27
6 6 2 7.79 0.36
6 6 3 0.78 0.12
6 6 3 1.01 0.18
6 6 3 0.72 0.09
6 6 3 0.71 0.2
6 6 4 10.41 0.36
6 6 4 6.04 0.38
-6 -6 -4 9.66 0.43
6 6 4 8.61 0.87
6 6 4 8.61 0.29
6 6 4 9.19 0.27
6 6 4 7.61 0.42
6 6 5 0.29 0.14
6 6 5 0.18 0.15
-6 -6 -5 0.35 0.12
6 6 5 0.21 0.25
6 6 5 0.35 0.11
6 6 5 0.4 0.11
6 6 5 0.27 0.14
6 6 6 3.26 0.26
6 6 6 3.28 0.27
6 6 6 3.71 0.23
6 6 6 4.22 0.17
6 6 6 3.88 0.23
6 6 7 6.41 0.33
6 6 7 6.37 0.32
6 6 7 7.34 0.23
6 6 8 4.36 0.29
6 6 8 4.73 0.17
6 6 9 1.71 0.21
6 6 9 1.81 0.11
6 6 10 5.9 0.24
6 6 10 5.13 0.26
-6 -6 -11 2.7 0.1
6 7 -6 4.02 0.18
6 7 -6 4.39 0.22
6 7 -5 38.18 0.93
6 7 -5 43.07 1.03
6 7 -4 17.06 0.51
6 7 -4 18.99 0.62
6 7 -3 6.34 0.31
6 7 -3 6.47 0.27
6 7 -2 0.15 0.13
6 7 -2 0.35 0.13
6 7 -2 0.38 0.21
6 7 -2 0.44 0.1
6 7 -1 0.25 0.12
6 7 -1 0.39 0.16
6 7 -1 0.26 0.17
6 7 -1 0.46 0.11
6 7 0 0.53 0.17
6 7 0 0.53 0.16
6 7 0 0.6 0.14
6 7 0 1.02 0.23
6 7 1 5.84 0.23
6 7 1 4.37 0.32
6 7 1 3.8 0.24
6 7 1 5.47 0.28
6 7 1 5.06 0.2
6 7 1 5.2 0.37
6 7 2 1.45 0.14
6 7 2 1.47 0.14
6 7 2 1.28 0.23
6 7 3 2.66 0.27
6 7 3 3.52 0.18
6 7 3 3.12 0.31
6 7 4 4.74 0.31
6 7 4 5.07 0.22
6 7 5 7.35 0.34
6 7 5 6.54 0.32
6 7 5 6.53 0.28
6 7 5 7.44 0.25
6 7 6 1.82 0.15
6 7 6 1.74 0.19
6 7 6 2.15 0.18
6 7 6 2.16 0.15
6 7 7 0.13 0.14
6 7 7 0.44 0.11
6 7 7 0.34 0.14
6 7 7 0.4 0.11
6 7 8 1.09 0.17
6 7 8 1.32 0.11
6 7 9 1.53 0.15
6 7 9 1.49 0.1
6 7 10 1.52 0.07
6 8 -7 -0.54 0.41
6 8 -6 0.36 0.06
6 8 -5 4.16 0.19
6 8 -5 2.98 0.15
6 8 -4 4.78 0.24
6 8 -4 4.18 0.2
6 8 -3 8.9 0.31
6 8 -2 9.3 0.36
6 8 -1 1.42 0.18
6 8 -1 1.3 0.14
6 8 0 0.25 0.17
6 8 0 0.3 0.12
6 8 1 0.17 0.17
6 8 1 0.28 0.13
6 8 1 0.44 0.11
6 8 2 0.53 0.12
6 8 2 0.16 0.17
6 8 2 0.45 0.16
6 8 2 0.62 0.12
6 8 3 4.43 0.23
6 8 3 3.79 0.18
6 8 4 2.48 0.19
6 8 4 2.05 0.21
6 8 4 2.36 0.16
6 8 5 5.36 0.26
6 8 5 5.04 0.29
6 8 6 5.33 0.26
6 8 6 6.65 0.22
6 8 7 0.1 0.11
6 8 7 0.47 0.11
6 8 8 0.01 0.09
6 8 8 0.17 0.09
6 8 9 0.32 0.06
6 8 9 0.1 0.09
6 9 -5 0.43 0.07
6 9 -4 -0.86 0.96
6 9 -4 0.73 0.1
6 9 -3 2.72 0.17
6 9 -1 14.62 0.5
6 9 0 8.83 0.39
6 9 0 6.19 0.34
6 9 1 1.57 0.17
6 9 1 0.97 0.18
6 9 2 0.83 0.2
6 9 2 0.71 0.15
6 9 2 1.12 0.12
6 9 3 0.26 0.13
6 9 3 0.58 0.12
6 9 4 0.49 0.14
6 9 4 1.02 0.14
6 9 5 3.35 0.18
6 9 7 1.14 0.11
6 9 8 0.4 0.07
6 10 -2 -1.63 1.42
6 10 -2 2.08 0.18
6 10 -1 5.37 0.29
6 10 5 0.38 0.1
6 10 6 1.98 0.11
7 -3 1 0.16 0.07
-7 3 -1 0.17 0.06
7 -3 2 0.32 0.08
-7 3 -2 0.4 0.07
-7 3 -3 1.1 0.09
7 -3 3 0.98 0.1
7 -3 5 0.25 0.07
-7 3 -5 0.19 0.06
-7 3 -6 0.02 0.04
-7 2 3 2.47 0.11
7 -2 -1 0.38 0.08
7 -2 0 0.3 0.1
7 -2 1 0.35 0.12
7 -2 1 0.27 0.09
-7 2 -1 0.35 0.13
-7 2 -2 0.52 0.15
7 -2 2 0.56 0.11
-7 2 -4 0.1 0.12
7 -2 4 0.23 0.1
-7 2 -4 0.16 0.08
-7 2 -5 0.06 0.11
7 -2 5 0.2 0.09
-7 2 -5 0.1 0.08
-7 2 -6 0.21 0.09
-7 2 -6 0.3 0.1
7 -2 6 0.4 0.08
7 -2 6 0.46 0.1
-7 2 -7 0.05 0.08
-7 2 -7 0.02 0.06
7 -2 7 0.1 0.06
-7 2 -8 0.2 0.07
-7 2 -9 0.44 0.06
7 -1 -3 2.49 0.12
7 -1 -2 4.76 0.17
7 -1 -1 4.98 0.18
-7 1 1 5.34 0.22
7 -1 -1 5.32 0.24
-7 1 0 1.01 0.18
7 -1 0 0.8 0.12
7 -1 0 0.94 0.1
7 -1 0 1.01 0.16
7 -1 1 2.57 0.18
7 -1 1 2.53 0.13
7 -1 1 2.8 0.22
7 -1 2 4.78 0.23
-7 1 -4 3.22 0.17
7 -1 5 1.12 0.15
-7 1 -5 1.05 0.12
-7 1 -6 3.03 0.21
7 -1 6 3.16 0.17
-7 1 -6 2.74 0.17
7 -1 6 2.72 0.19
7 -1 7 0.34 0.1
-7 1 -7 0.25 0.11
7 -1 7 0.25 0.09
-7 1 -7 0.15 0.1
-7 1 -8 0.14 0.09
-7 1 -9 0.07 0.08
-7 1 -10 0.09 0.06
-7 1 -11 0.17 0.04
-7 0 6 0.15 0.05
7 0 -5 0.43 0.07
-7 0 5 0.56 0.09
7 0 -4 0.22 0.08
-7 0 4 0.3 0.13
7 0 -3 0.77 0.11
-7 0 3 0.93 0.15
7 0 -2 2.95 0.17
-7 0 2 3.34 0.21
7 0 -2 3.33 0.2
7 0 -1 12.52 0.35
7 0 -1 13.1 0.44
7 0 0 1.04 0.14
7 0 0 1.02 0.13
7 0 0 1.29 0.19
7 0 1 7.11 0.3
7 0 1 7.52 0.25
7 0 1 7.8 0.38
7 0 2 0.54 0.11
7 0 3 1.01 0.18
7 0 4 0.44 0.16
7 0 5 0.39 0.16
7 0 5 0.46 0.14
-7 0 -5 0.53 0.11
7 0 6 5.69 0.24
-7 0 -6 5.99 0.24
7 0 6 5.24 0.27
7 0 7 0.99 0.12
-7 0 -7 0.95 0.12
7 0 7 0.89 0.13
7 0 8 0.14 0.08
-7 0 -8 0.11 0.1
7 0 9 0.08 0.07
-7 0 -9 0.04 0.08
-7 0 -10 0.08 0.07
-7 0 -11 0.03 0.06
-7 0 -12 0.1 0.04
7 1 -5 0.33 0.09
7 1 -3 0.23 0.11
7 1 -2 3.03 0.18
7 1 -2 2.84 0.18
7 1 -2 3.29 0.23
7 1 -1 38.8 0.97
7 1 -1 41.43 0.94
7 1 0 9.72 0.38
7 1 0 10.73 0.34
7 1 1 15.06 0.5
7 1 1 15.52 0.43
7 1 2 1.68 0.14
7 1 2 2.06 0.25
7 1 3 1.38 0.19
7 1 3 1.15 0.13
7 1 4 0.31 0.17
7 1 4 0.32 0.16
7 1 5 3.72 0.24
7 1 5 3.29 0.25
7 1 6 0.24 0.13
7 1 6 0.17 0.12
-7 -1 -6 0.25 0.1
7 1 7 0.82 0.13
-7 -1 -7 0.88 0.11
7 1 7 0.64 0.12
-7 -1 -8 2.4 0.14
7 1 8 2.25 0.14
-7 -1 -9 5.84 0.21
7 1 9 5.31 0.19
-7 -1 -10 0.61 0.09
7 1 10 0.46 0.08
-7 -1 -11 0.24 0.07
-7 -1 -12 0.2 0.05
7 2 -7 1.24 0.08
-7 -2 7 1.61 0.1
7 2 -6 2.73 0.14
-7 -2 6 3.82 0.19
7 2 -5 2.63 0.16
-7 -2 5 3.22 0.22
7 2 -4 5.13 0.23
-7 -2 4 5.35 0.28
7 2 -3 9.37 0.32
7 2 -2 2.39 0.22
7 2 -1 5.02 0.27
7 2 -1 5.55 0.25
7 2 0 4.02 0.26
7 2 0 4.03 0.21
7 2 0 4.54 0.32
7 2 1 4.77 0.57
7 2 1 5.08 0.22
7 2 1 4.09 0.33
7 2 1 5.07 0.31
7 2 2 15.44 0.43
7 2 2 17.71 0.65
7 2 3 15.45 0.55
7 2 3 14.8 0.95
7 2 4 1.64 0.23
7 2 4 1.67 0.43
7 2 4 1.51 0.23
7 2 5 1.13 0.2
7 2 5 1.05 0.19
7 2 6 0.62 0.15
7 2 6 0.7 0.16
7 2 7 0.33 0.12
-7 -2 -7 0.57 0.09
7 2 7 0.43 0.12
-7 -2 -8 2.66 0.14
7 2 8 2.28 0.14
-7 -2 -9 11.78 0.31
7 2 9 9.92 0.29
-7 -2 -10 8.69 0.24
7 2 10 7.3 0.23
-7 -2 -11 0.37 0.07
-7 -2 -12 0.09 0.05
-7 -2 -13 0.13 0.03
7 3 -7 0.31 0.07
-7 -3 7 0.41 0.09
-7 -3 6 0.67 0.13
7 3 -5 3.84 0.2
-7 -3 5 5.12 0.26
7 3 -4 9.19 0.33
-7 -3 4 9.84 0.36
7 3 -3 13.55 0.43
7 3 -2 1.07 0.17
7 3 -2 1.14 0.18
7 3 -1 1.18 0.22
7 3 -1 1.18 0.17
7 3 0 11.37 0.45
7 3 0 10.14 0.51
7 3 1 0.82 0.25
7 3 1 1 0.18
7 3 1 0.67 0.21
7 3 1 0.79 0.17
7 3 2 6.62 0.38
7 3 2 6.01 0.24
7 3 2 6.38 0.44
7 3 3 29.67 0.88
7 3 3 26.85 1.4
7 3 4 22.02 0.68
7 3 4 17.48 0.71
7 3 5 7.59 0.36
7 3 5 6.19 0.37
7 3 6 0.22 0.15
7 3 6 0.16 0.15
7 3 7 0.3 0.11
-7 -3 -8 2.83 0.13
7 3 8 2.53 0.15
-7 -3 -9 11.32 0.29
7 3 9 9.38 0.29
-7 -3 -10 8.54 0.23
7 3 10 6.56 0.22
-7 -3 -11 0.86 0.08
-7 -3 -12 0.77 0.07
-7 -3 -13 0.08 0.03
7 4 -7 0.35 0.08
7 4 -7 0.27 0.09
-7 -4 7 0.38 0.07
-7 -4 6 0.48 0.11
-7 -4 5 0.43 0.15
7 4 -4 2.37 0.2
-7 -4 4 2.37 0.19
-7 -4 3 18.36 0.53
7 4 -3 18.65 0.56
7 4 -2 20.44 0.59
7 4 -2 19.46 0.63
7 4 -1 7.11 0.31
7 4 -1 7.45 0.39
7 4 0 8.86 0.33
7 4 0 8.05 0.33
7 4 0 6.14 0.38
7 4 0 6.9 0.66
7 4 0 8.96 0.47
7 4 1 3.82 0.26
7 4 1 2.73 0.53
7 4 1 3.32 0.35
7 4 2 0.53 0.24
7 4 2 0.45 0.18
7 4 2 0.4 0.39
7 4 3 12.98 0.55
7 4 3 12.29 1.03
7 4 4 13.28 0.6
7 4 4 11.33 0.57
7 4 5 25.93 0.91
7 4 5 24.69 0.83
7 4 6 7.17 0.25
7 4 6 7.88 0.36
7 4 7 1.61 0.13
7 4 7 1.8 0.16
7 4 8 0.3 0.1
7 4 8 0.19 0.09
7 4 9 0.14 0.11
-7 -4 -9 0.22 0.07
-7 -4 -10 0.92 0.08
-7 -4 -11 0.45 0.06
-7 -4 -12 2.41 0.09
7 5 -7 1.89 0.11
7 5 -7 1.88 0.12
7 5 -6 0.22 0.1
7 5 -6 0.23 0.12
7 5 -5 1.49 0.2
7 5 -3 7.69 0.32
7 5 -2 24.67 0.73
7 5 -1 35.9 1.01
7 5 0 4.1 0.24
7 5 0 3.98 0.34
7 5 1 1.42 0.19
7 5 1 1.5 0.28
7 5 2 0.62 0.18
7 5 2 0.11 0.37
7 5 3 0.3 0.23
7 5 3 0.37 0.1
7 5 3 0.4 0.2
7 5 3 0.4 0.13
7 5 3 0.2 0.39
7 5 4 0.26 0.2
7 5 4 0.35 0.11
7 5 4 0.23 0.2
7 5 4 0.4 0.12
7 5 4 0.4 0.38
7 5 5 2.49 0.17
7 5 5 2.04 0.24
7 5 6 0.5 0.15
7 5 6 0.45 0.2
7 5 6 0.53 0.11
7 5 6 0.33 0.09
7 5 7 0.53 0.11
7 5 7 0.34 0.1
7 5 8 2.03 0.2
7 5 8 1.77 0.13
7 5 9 1.43 0.13
-7 -5 -10 0.63 0.07
7 5 10 0.48 0.1
7 5 11 0.34 0.08
7 5 11 0.22 0.07
-7 -5 -11 0.25 0.05
7 5 12 0.91 0.07
-7 -5 -12 0.88 0.05
7 6 -7 1.42 0.09
7 6 -7 1.53 0.1
7 6 -6 1.84 0.15
7 6 -5 0.67 0.13
7 6 -5 0.8 0.17
7 6 -4 0.73 0.16
7 6 -3 5.54 0.26
7 6 -3 6.84 0.44
7 6 -3 6.21 0.29
7 6 -2 8.65 0.54
7 6 -2 13.58 0.47
7 6 -1 15.85 0.44
7 6 -1 18.05 0.6
7 6 0 5.11 0.37
7 6 0 9.96 0.49
7 6 1 12.53 0.36
7 6 1 12.47 0.61
7 6 2 3.37 0.19
7 6 2 4.3 0.3
7 6 3 1.47 0.15
7 6 3 1.65 0.25
7 6 4 11.27 0.59
7 6 4 11.21 0.59
7 6 5 5.49 0.28
7 6 5 4.65 0.22
7 6 5 4.76 0.19
7 6 5 3.67 0.17
7 6 5 4.13 0.3
7 6 6 0.32 0.17
7 6 6 0.06 0.19
7 6 6 0.25 0.09
7 6 6 0.31 0.11
7 6 6 0.31 0.13
7 6 7 9.67 0.43
7 6 7 9.46 0.26
7 6 8 13.06 0.46
7 6 8 12.3 0.4
7 6 9 3.46 0.18
7 6 10 1.4 0.14
7 6 10 0.79 0.1
7 6 11 0.14 0.06
7 7 -6 6.14 0.2
7 7 -6 6.75 0.24
7 7 -5 7.81 0.26
7 7 -5 8.61 0.32
7 7 -4 4.17 0.23
7 7 -3 2.05 0.2
7 7 -3 1.97 0.15
7 7 -3 2.03 0.27
7 7 -2 0.12 0.14
7 7 -2 0.2 0.13
7 7 -2 -0.01 0.2
7 7 -1 1.23 0.19
7 7 -1 1.03 0.12
7 7 -1 1.47 0.23
7 7 0 2.46 0.18
7 7 0 2.72 0.3
7 7 1 12.95 0.36
7 7 1 13.29 0.45
7 7 2 10.52 0.35
7 7 3 3.95 0.21
7 7 3 1.78 0.28
7 7 4 0.76 0.15
7 7 4 0.87 0.13
7 7 5 0.15 0.15
7 7 5 0.14 0.13
7 7 5 0.43 0.12
7 7 6 1 0.19
7 7 6 1 0.13
7 7 6 0.81 0.11
7 7 6 1.08 0.12
7 7 7 0.28 0.17
7 7 7 0.74 0.11
7 7 7 0.45 0.1
7 7 8 3.58 0.14
7 7 8 2.56 0.16
7 7 9 8.42 0.29
7 7 9 4.5 0.2
7 7 10 2.75 0.14
7 8 -6 -0.56 0.42
7 8 -5 1.51 0.09
7 8 -4 1.88 0.13
7 8 -3 6.05 0.23
7 8 -2 2.28 0.18
7 8 -1 0.86 0.17
7 8 -1 0.92 0.11
7 8 0 0.32 0.18
7 8 0 0.26 0.12
7 8 1 3.09 0.31
7 8 1 3.81 0.24
7 8 2 16.91 0.47
7 8 2 16.07 0.56
7 8 3 15.6 0.43
7 8 3 12.49 0.51
7 8 4 5.6 0.26
7 8 4 3.15 0.27
7 8 5 1.44 0.18
7 8 5 1.22 0.16
7 8 5 0.76 0.18
7 8 5 1.92 0.14
7 8 6 0.34 0.15
7 8 6 0.29 0.13
7 8 7 0.29 0.09
7 8 8 0.15 0.1
7 8 8 0.36 0.08
7 8 9 0.85 0.09
7 9 -4 1.08 0.09
7 9 -3 -0.3 1.06
7 9 -3 9.71 0.3
7 9 -1 2.38 0.19
7 9 -1 1.65 0.2
7 9 0 0.45 0.17
7 9 0 -0.12 0.17
7 9 1 0.28 0.18
7 9 1 0.26 0.12
7 9 1 -0.14 0.16
7 9 2 0.86 0.21
7 9 2 1.36 0.17
7 9 3 1.88 0.24
7 9 4 4.14 0.26
7 9 4 3.08 0.24
7 9 5 3.51 0.22
7 9 6 0.53 0.1
7 10 -1 3.77 0.25
8 -2 3 0.05 0.05
-8 2 -3 0.11 0.04
-8 2 -4 0.59 0.06
-8 2 -5 0.19 0.04
8 -1 0 0.05 0.06
8 -1 1 0.27 0.09
-8 1 -2 0.78 0.12
8 -1 2 0.73 0.09
8 -1 2 0.83 0.11
8 -1 3 1.66 0.14
-8 1 -4 1.95 0.15
8 -1 4 2.15 0.12
-8 1 -5 3.5 0.18
8 -1 5 3.5 0.15
8 -1 5 3.34 0.17
8 -1 6 0.06 0.07
-8 0 2 1.4 0.11
8 0 -1 0.7 0.08
-8 0 1 0.67 0.11
8 0 -1 0.7 0.1
-8 0 0 0.95 0.14
8 0 0 1 0.09
8 0 0 1 0.13
8 0 1 2.91 0.17
8 0 1 3.25 0.2
8 0 2 3.14 0.18
8 0 2 3.5 0.22
8 0 3 2.43 0.2
8 0 4 0.88 0.13
8 0 5 5.04 0.21
8 0 5 4.79 0.24
-8 0 -6 1.49 0.14
8 0 6 1.27 0.11
8 0 6 1.29 0.13
-8 0 -7 0.2 0.08
8 0 7 0.18 0.07
8 0 7 0.2 0.06
-8 0 -8 0.51 0.06
-8 0 -9 0.6 0.06
-8 -1 4 0.19 0.08
8 1 -3 0.12 0.07
-8 -1 3 0.27 0.11
8 1 -2 1.2 0.1
-8 -1 2 1.61 0.15
8 1 -1 4.19 0.18
8 1 -1 4.56 0.23
8 1 0 11.4 0.32
8 1 0 12.23 0.42
8 1 1 7.72 0.3
8 1 1 8.3 0.26
8 1 1 8.63 0.37
8 1 2 0.34 0.17
8 1 2 0.33 0.15
8 1 3 1.03 0.16
8 1 3 1.19 0.2
8 1 4 1.12 0.16
8 1 5 5.22 0.24
8 1 5 4.9 0.27
8 1 6 4.42 0.21
8 1 6 3.95 0.22
8 1 7 1.76 0.13
8 1 7 1.78 0.11
8 1 8 0.69 0.08
8 1 9 0.06 0.06
-8 -1 -9 0.06 0.06
-8 -1 -10 0.28 0.05
-8 -2 5 1.9 0.1
8 2 -4 0.18 0.07
-8 -2 4 0.39 0.13
-8 -2 3 0.87 0.15
8 2 -2 0.64 0.12
-8 -2 2 0.47 0.15
8 2 -1 1.17 0.13
8 2 -1 1.29 0.17
8 2 0 5.28 0.22
8 2 0 5.93 0.32
8 2 1 10.57 0.4
8 2 1 11.11 0.34
8 2 2 0.22 0.19
8 2 2 0.28 0.15
8 2 3 0.19 0.2
8 2 3 0.36 0.18
8 2 4 3.61 0.25
8 2 4 3.87 0.29
8 2 5 0.32 0.15
8 2 5 0.25 0.16
8 2 6 2.51 0.18
8 2 6 2.26 0.2
8 2 7 3.84 0.19
8 2 7 3.39 0.15
8 2 7 3.85 0.21
8 2 8 4.39 0.16
8 2 9 2.66 0.17
8 2 9 1.74 0.1
8 2 10 0.31 0.06
-8 -2 -10 0.35 0.06
-8 -3 5 1.87 0.11
8 3 -4 1.94 0.13
-8 -3 4 2.73 0.18
8 3 -3 0.24 0.1
-8 -3 3 0.28 0.15
8 3 -2 0.16 0.12
8 3 -2 0.23 0.12
8 3 -1 0.31 0.16
8 3 -1 0.28 0.13
8 3 0 2.21 0.25
8 3 1 18.95 0.55
8 3 1 17.9 0.68
8 3 2 0.91 0.25
8 3 2 1.38 0.19
8 3 3 1.52 0.23
8 3 3 2.29 0.25
8 3 4 0.04 0.21
8 3 4 0.06 0.19
8 3 5 0.41 0.18
8 3 5 0.3 0.18
8 3 6 0.27 0.14
8 3 7 0.4 0.12
8 3 8 5.82 0.28
8 3 8 3.52 0.16
8 3 9 7.3 0.26
8 3 9 4.79 0.17
8 4 -6 1.83 0.09
8 4 -6 1.65 0.1
8 4 -5 1.78 0.14
-8 -4 5 2.01 0.11
-8 -4 4 7.13 0.27
8 4 -3 1.41 0.15
-8 -4 3 1.57 0.16
8 4 -2 1.25 0.16
-8 -4 2 1.07 0.16
8 4 -2 1.12 0.16
8 4 -1 0.59 0.19
8 4 0 0.79 0.22
8 4 1 12.14 0.44
8 4 1 13.25 0.6
8 4 2 3.12 0.26
8 4 2 2.92 0.36
8 4 3 10.83 0.48
8 4 4 8.36 0.44
8 4 4 6.71 0.44
8 4 5 3.67 0.33
8 4 5 3.05 0.28
8 4 6 0.46 0.16
8 4 6 0.76 0.22
8 4 6 0.43 0.1
8 4 7 1.62 0.22
8 4 7 1.05 0.11
8 4 8 2.94 0.22
8 4 8 1.74 0.11
8 4 9 0.97 0.13
8 4 12 1.06 0.06
8 5 -6 1.79 0.09
8 5 -6 1.86 0.1
8 5 -5 0.63 0.11
-8 -5 3 1.13 0.13
-8 -5 2 6.82 0.26
8 5 -2 8.37 0.33
8 5 -1 13.37 0.51
8 5 0 10.93 0.52
8 5 1 11.59 0.43
8 5 1 11.82 0.6
8 5 2 0.5 0.27
8 5 2 0.31 0.17
8 5 3 1.66 0.25
8 5 3 1.5 0.15
8 5 4 6.38 0.25
8 5 4 6.76 0.26
8 5 4 7.13 0.46
8 5 5 6.02 0.25
8 5 5 6.38 0.42
8 5 5 5.63 0.23
8 5 5 5.74 0.37
8 5 6 0.36 0.15
8 5 6 0.63 0.13
8 5 6 0.43 0.11
8 5 7 3.67 0.21
8 5 7 3.94 0.3
8 5 8 5.47 0.25
8 5 8 5.53 0.28
8 5 9 0.4 0.11
8 5 10 0.42 0.09
8 5 11 4.77 0.16
8 6 -5 1.11 0.09
8 6 -5 1.33 0.12
8 6 -4 0.24 0.1
8 6 -3 0.79 0.15
8 6 -3 0.88 0.19
8 6 -2 7.33 0.32
8 6 -2 7.21 0.31
8 6 -1 7.11 0.42
8 6 -1 14.1 0.49
8 6 0 6.72 0.37
8 6 0 11.99 0.52
8 6 1 7.36 0.48
8 6 2 0.29 0.17
8 6 2 0.06 0.27
8 6 3 0.15 0.09
8 6 3 0.23 0.2
8 6 3 -0.11 0.26
8 6 4 1.12 0.14
8 6 4 1.11 0.26
8 6 4 0.52 0.24
8 6 5 2.84 0.19
8 6 5 2.22 0.31
8 6 5 2.09 0.26
8 6 6 6.27 0.28
8 6 6 5.46 0.38
8 6 7 6.65 0.3
8 6 7 6.27 0.34
8 6 8 1.04 0.15
8 6 8 0.91 0.14
8 6 9 0.19 0.1
8 6 10 0.54 0.08
8 7 -4 0.65 0.12
8 7 -3 0.86 0.17
8 7 -2 0.39 0.11
8 7 -2 0.3 0.15
8 7 -1 0.83 0.16
8 7 -1 0.61 0.16
8 7 0 8.65 0.31
8 7 0 10.45 0.49
8 7 1 18.86 0.56
8 7 1 17.41 0.74
8 7 2 4.87 0.2
8 7 3 2.59 0.16
8 7 3 1.36 0.3
8 7 4 1.6 0.15
8 7 4 1.06 0.24
8 7 5 2.6 0.19
8 7 5 2.04 0.21
8 7 5 1.95 0.23
8 7 6 4.64 0.25
8 7 7 4.57 0.25
8 7 8 2.52 0.18
8 7 9 1.49 0.12
8 8 -4 3.21 0.12
8 8 -3 0.18 0.08
8 8 -2 0.24 0.09
8 8 -1 0.13 0.12
8 8 0 1.83 0.21
8 8 0 1.66 0.13
8 8 1 6.31 0.38
8 8 1 6.6 0.28
8 8 2 5.2 0.29
8 8 3 3.55 0.3
8 8 3 5.42 0.32
8 8 4 2.36 0.23
8 8 4 2.32 0.24
8 8 5 0.52 0.12
8 8 5 0.33 0.12
8 8 6 0.28 0.12
8 8 6 0.35 0.12
8 8 7 1.04 0.13
8 8 7 1.05 0.11
8 8 8 1.19 0.11
8 9 -2 1.08 0.12
8 9 -1 0.33 0.13
8 9 0 1.9 0.19
8 9 0 1.22 0.18
8 9 1 0.15 0.15
8 9 1 0.19 0.1
8 9 2 1.56 0.16
8 9 3 5.38 0.32
8 9 3 5.9 0.29
8 9 4 5.79 0.28
8 9 5 1.13 0.14
8 9 6 0.1 0.07
9 0 2 0.56 0.06
9 0 3 2.74 0.13
9 0 5 0.26 0.05
-9 -1 0 0.28 0.08
9 1 1 0.16 0.08
-9 -1 -1 0.04 0.08
9 1 2 0.17 0.09
9 1 3 0.03 0.09
9 1 4 0.96 0.1
9 1 4 1.1 0.1
9 1 5 0.34 0.09
9 1 5 0.44 0.09
9 1 6 0.14 0.07
9 1 6 0.09 0.07
9 1 7 0.28 0.07
9 1 8 0.06 0.05
-9 -2 2 0.24 0.08
-9 -2 1 1.17 0.11
-9 -2 0 2.73 0.16
9 2 0 2.65 0.16
9 2 1 0.28 0.11
9 2 2 0.98 0.15
9 2 3 0.06 0.12
9 2 3 0.1 0.08
9 2 4 0.25 0.1
9 2 5 0.19 0.11
9 2 5 0.19 0.1
9 2 6 0.17 0.09
9 2 6 0.16 0.1
9 2 7 3.29 0.17
9 2 7 2.29 0.1
9 2 9 0.29 0.06
-9 -3 3 0.89 0.08
-9 -3 2 0.12 0.09
9 3 -1 0.17 0.09
-9 -3 1 0.22 0.11
9 3 0 2.99 0.2
9 3 1 1.12 0.17
9 3 2 6.27 0.24
9 3 2 7.16 0.34
9 3 3 3.02 0.19
9 3 3 3.23 0.25
9 3 4 1.31 0.16
9 3 4 1.42 0.19
9 3 5 0.25 0.13
9 3 5 0.18 0.13
9 3 5 0.12 0.08
9 3 6 0.3 0.11
9 3 6 0.34 0.13
9 3 6 0.22 0.07
9 3 7 2.66 0.18
9 3 7 1.64 0.1
9 3 9 1.32 0.1
9 4 -3 1.9 0.12
-9 -4 3 3.19 0.12
-9 -4 2 0.44 0.1
-9 -4 1 2.28 0.15
9 4 -1 2.26 0.16
9 4 0 0.31 0.14
9 4 1 1.03 0.2
9 4 2 19.41 0.54
9 4 2 20.27 0.66
9 4 3 22.42 0.61
9 4 3 17.83 0.65
9 4 4 5.68 0.2
9 4 4 7.19 0.36
9 4 5 0.26 0.15
9 4 5 0.24 0.15
9 4 5 0.16 0.08
9 4 6 0.75 0.09
9 4 6 0.78 0.13
9 4 7 0.08 0.06
9 4 8 0.13 0.05
9 4 8 0.24 0.1
9 4 8 0.14 0.06
9 4 9 0.1 0.04
9 4 9 0.13 0.07
9 5 -3 1.97 0.12
-9 -5 2 1.42 0.11
-9 -5 1 0.17 0.09
9 5 -1 0.18 0.11
-9 -5 0 0.41 0.11
9 5 0 0.59 0.16
9 5 1 0.49 0.19
9 5 2 4.2 0.23
9 5 2 4.37 0.33
9 5 3 11.24 0.42
9 5 4 8.98 0.38
9 5 4 7.15 0.39
9 5 5 4.8 0.29
9 5 5 4.01 0.27
9 5 6 0.64 0.17
9 5 6 0.46 0.12
9 5 7 0.05 0.06
9 5 7 0.09 0.07
9 5 8 0.1 0.06
9 5 8 0.08 0.09
9 5 9 0.13 0.05
9 6 -3 1.1 0.09
9 6 -1 2.51 0.16
9 6 -1 2.78 0.18
9 6 0 1.2 0.18
9 6 1 2.39 0.15
9 6 1 2.96 0.27
9 6 2 0.27 0.21
9 6 3 2.31 0.21
9 6 4 7.02 0.35
9 6 4 5.65 0.35
9 6 5 9.66 0.41
9 6 5 7.7 0.35
9 6 6 8.59 0.26
9 6 6 9.69 0.39
9 6 7 4.11 0.17
9 6 7 4.5 0.24
9 6 8 1.61 0.1
9 6 9 0.06 0.05
9 7 -1 4.44 0.19
9 7 0 6.92 0.29
9 7 1 1.2 0.18
9 7 1 0.91 0.1
9 7 1 1.05 0.21
9 7 2 0.49 0.12
9 7 2 0.32 0.21
9 7 3 0.26 0.13
9 7 3 0.04 0.19
9 7 4 0.1 0.16
9 7 5 1.18 0.09
9 7 5 1.13 0.14
9 7 6 6.13 0.2
9 7 7 5.69 0.19
9 7 7 5.77 0.22
9 7 8 3.65 0.14
9 8 0 6.18 0.25
9 8 1 4.01 0.24
9 8 1 3.35 0.14
9 8 2 1.4 0.18
9 8 2 1.54 0.12
9 8 3 0.34 0.13
9 8 3 0.26 0.11
9 8 4 0.77 0.13
9 8 4 0.75 0.13
9 8 5 0.25 0.11
9 8 6 1.54 0.12
9 8 7 1.95 0.09
9 8 7 1.49 0.09
9 9 3 6.54 0.27
9 9 3 7.37 0.24
9 9 4 3.1 0.15
10 3 3 0.57 0.08
10 3 5 1.46 0.09
-10 -4 -2 2.14 0.11
10 4 2 2.71 0.14
10 4 3 0.21 0.08
10 4 4 0.18 0.08
10 4 4 0.24 0.05
10 4 5 0.08 0.06
10 4 5 0.05 0.05
10 4 6 0.8 0.08
10 5 1 0.62 0.08
10 5 2 4.42 0.2
10 5 3 0.53 0.1
10 5 4 0.81 0.11
10 5 5 0.1 0.07
10 5 5 0.12 0.07
10 5 6 0.17 0.07
10 6 1 0.21 0.06
10 6 1 0.28 0.07
10 6 2 1.63 0.13
10 6 4 3.7 0.15
10 6 4 4.1 0.19
10 7 2 0.2 0.06
10 7 4 1.08 0.09
loop_
_geom_angle_atom_site_label_1
_geom_angle_atom_site_label_2
_geom_angle_atom_site_label_3
_geom_angle
_geom_angle_site_symmetry_1
_geom_angle_site_symmetry_3
_geom_angle_publ_flag
Cl1 Co1 Cl1 180.0 . 2_666 y
N2 Co1 Cl1 89.12(7) . . y
N2 Co1 Cl1 89.12(7) 2_666 2_666 y
N2 Co1 Cl1 90.88(7) . 2_666 y
N2 Co1 Cl1 90.88(7) 2_666 . y
N2 Co1 N2 180.0 2_666 . y
N1 Co1 Cl1 90.47(7) . 2_666 y
N1 Co1 Cl1 89.53(7) . . y
N1 Co1 Cl1 90.47(7) 2_666 . y
N1 Co1 Cl1 89.53(7) 2_666 2_666 y
N1 Co1 N2 102.97(9) . 2_666 y
N1 Co1 N2 77.03(9) . . y
N1 Co1 N2 77.03(9) 2_666 2_666 y
N1 Co1 N2 102.97(9) 2_666 . y
N1 Co1 N1 180.0 . 2_666 y
C10 O2 C9 116.8(4) . . ?
N3 N2 Co1 135.4(2) . . ?
C6 N2 Co1 113.99(18) . . ?
C6 N2 N3 110.5(2) . . ?
C8 N4 N3 119.0(3) . . ?
C7 N4 N3 111.8(2) . . ?
C7 N4 C8 129.2(3) . . ?
C5 N1 Co1 116.59(19) . 2_666 ?
C1 N1 Co1 125.2(2) . 2_666 ?
C1 N1 C5 118.2(3) . . ?
N4 N3 N2 105.3(2) . . ?
H8a C8 N4 109.43(19) . . ?
H8b C8 N4 109.43(18) . . ?
H8b C8 H8a 108.0 . . ?
C9 C8 N4 111.0(3) . . ?
C9 C8 H8a 109.4(2) . . ?
C9 C8 H8b 109.43(18) . . ?
C5 C6 N2 118.0(2) . . ?
C7 C6 N2 107.2(3) . . ?
C7 C6 C5 134.8(3) . . ?
C6 C5 N1 114.4(2) . . ?
C4 C5 N1 122.4(3) . . ?
C4 C5 C6 123.2(3) . . ?
C6 C7 N4 105.1(3) . . ?
H7 C7 N4 127.43(16) . . ?
H7 C7 C6 127.43(19) . . ?
O1 C9 O2 125.9(3) . . ?
C8 C9 O2 108.5(3) . . ?
C8 C9 O1 125.6(3) . . ?
C4 C3 H3 120.2(2) . . ?
C2 C3 H3 120.24(19) . . ?
C2 C3 C4 119.5(3) . . ?
H1 C1 N1 118.57(18) . . ?
C2 C1 N1 122.9(3) . . ?
C2 C1 H1 118.6(2) . . ?
C3 C4 C5 118.4(3) . . ?
H4 C4 C5 120.82(18) . . ?
H4 C4 C3 120.8(2) . . ?
C1 C2 C3 118.7(3) . . ?
H2 C2 C3 120.66(19) . . ?
H2 C2 C1 120.7(2) . . ?
H10a C10 O2 109.5 . . ?
H10b C10 O2 109.5 . . ?
H10b C10 H10a 109.5 . . ?
H10c C10 O2 109.5 . . ?
H10c C10 H10a 109.5 . . ?
H10c C10 H10b 109.5 . . ?
loop_
_geom_bond_atom_site_label_1
_geom_bond_atom_site_label_2
_geom_bond_distance
_geom_bond_site_symmetry_2
_geom_bond_publ_flag
Co1 Cl1 2.4598(8) . y
Co1 Cl1 2.4598(8) 2_666 y
Co1 N2 2.132(2) . y
Co1 N2 2.132(2) 2_666 y
Co1 N1 2.137(2) 2_666 y
Co1 N1 2.137(2) . y
O2 C9 1.320(4) . ?
O2 C10 1.458(5) . ?
O1 C9 1.184(4) . ?
N2 N3 1.301(3) . ?
N2 C6 1.361(4) . ?
N4 N3 1.349(4) . ?
N4 C8 1.450(4) . ?
N4 C7 1.333(4) . ?
N1 C5 1.341(4) . ?
N1 C1 1.333(4) . ?
C8 H8a 0.9700 . ?
C8 H8b 0.9700 . ?
C8 C9 1.517(5) . ?
C6 C5 1.466(4) . ?
C6 C7 1.356(4) . ?
C5 C4 1.387(4) . ?
C7 H7 0.9300 . ?
C3 H3 0.9300 . ?
C3 C4 1.382(5) . ?
C3 C2 1.369(6) . ?
C1 H1 0.9300 . ?
C1 C2 1.381(5) . ?
C4 H4 0.9300 . ?
C2 H2 0.9300 . ?
C10 H10a 0.9600 . ?
C10 H10b 0.9600 . ?
C10 H10c 0.9600 . ?
loop_
_geom_torsion_atom_site_label_1
_geom_torsion_atom_site_label_2
_geom_torsion_atom_site_label_3
_geom_torsion_atom_site_label_4
_geom_torsion
_geom_torsion_site_symmetry_1
_geom_torsion_site_symmetry_2
_geom_torsion_site_symmetry_3
_geom_torsion_site_symmetry_4
_geom_torsion_publ_flag
Co1 N2 N3 N4 -176.9(3) . . . . ?
Co1 N2 N3 N4 -176.9(3) 2_666 . . . ?
Co1 N2 C6 C5 -0.8(2) 2_666 . . . ?
Co1 N2 C6 C5 -0.8(2) . . . . ?
Co1 N2 C6 C7 177.4(2) . . . . ?
Co1 N2 C6 C7 177.4(2) 2_666 . . . ?
Co1 N1 C5 C6 0.2(2) 2_666 . . . ?
Co1 N1 C5 C6 0.2(2) . . . . ?
Co1 N1 C5 C4 180.0(2) 2_666 . . . ?
Co1 N1 C5 C4 180.0(2) . . . . ?
Co1 N1 C1 C2 179.6(3) . . . . ?
Co1 N1 C1 C2 179.6(3) 2_666 . . . ?
O2 C9 C8 N4 176.8(3) . . . . ?
O1 C9 C8 N4 -3.1(4) . . . . ?
N2 N3 N4 C8 178.0(2) . . . . ?
N2 N3 N4 C7 -0.1(3) . . . . ?
N2 C6 C5 N1 0.5(3) . . . . ?
N2 C6 C5 C4 -179.4(3) . . . . ?
N2 C6 C7 N4 0.4(2) . . . . ?
N4 C7 C6 C5 178.2(2) . . . . ?
N1 C5 C6 C7 -177.2(2) . . . . ?
N1 C5 C4 C3 1.0(3) . . . . ?
N1 C1 C2 C3 -0.3(4) . . . . ?
C6 C5 C4 C3 -179.2(3) . . . . ?
C5 C4 C3 C2 -0.7(4) . . . . ?
loop_
_smtbx_masks_void_nr
_smtbx_masks_void_average_x
_smtbx_masks_void_average_y
_smtbx_masks_void_average_z
_smtbx_masks_void_volume
_smtbx_masks_void_count_electrons
_smtbx_masks_void_content
1 -0.141 0.000 -0.659 183.6 38.9 '2 MeOH'
