#------------------------------------------------------------------------------
#$Date: 2022-09-07 01:50:44 +0300 (Wed, 07 Sep 2022) $
#$Revision: 277696 $
#$URL: file:///home/coder/svn-repositories/cod/cif/7/71/11/7711180.cif $
#------------------------------------------------------------------------------
#
# This file is available in the Crystallography Open Database (COD),
# http://www.crystallography.net/
#
# All data on this site have been placed in the public domain by the
# contributors.
#
data_7711180
loop_
_publ_author_name
'Fraunhofer, Christina'
'Paul, Theresa'
'Oeckler, Oliver'
_publ_section_title
;
 Temperature-dependent Cu and Ag ion mobility and associated changes of
 transport properties in pavonite-type Cu1.4Ag0.4Bi5.4Se9
;
_journal_name_full               'Dalton Transactions'
_journal_paper_doi               10.1039/D2DT01651F
_journal_year                    2022
_chemical_formula_sum            'Ag0.8 Bi10.8 Cu2.8 Se18'
_chemical_formula_weight         3942.47
_space_group_crystal_system      monoclinic
_space_group_IT_number           12
_space_group_name_Hall           '-C 2y'
_space_group_name_H-M_alt        'C 1 2/m 1'
_atom_sites_solution_primary     direct
_atom_sites_solution_secondary   difmap
_audit_creation_method           SHELXL-2017/1
_audit_update_record
;
2021-06-07 deposited with the CCDC.	2022-09-05 downloaded from the CCDC.
;
_cell_angle_alpha                90
_cell_angle_beta                 99.587(9)
_cell_angle_gamma                90
_cell_formula_units_Z            1
_cell_length_a                   13.7421(15)
_cell_length_b                   4.1883(5)
_cell_length_c                   15.3147(18)
_cell_measurement_reflns_used    10270
_cell_measurement_temperature    423(2)
_cell_measurement_theta_max      28.13
_cell_measurement_theta_min      2.08
_cell_volume                     869.14(18)
_computing_structure_refinement  'SHELXL-2017/1 (Sheldrick, 2017)'
_diffrn_ambient_temperature      423(2)
_diffrn_measured_fraction_theta_full 0.990
_diffrn_measured_fraction_theta_max 0.990
_diffrn_measurement_device_type  'Stoe Stadivari'
_diffrn_radiation_type           AgK\a
_diffrn_radiation_wavelength     0.56083
_diffrn_reflns_av_R_equivalents  0.0237
_diffrn_reflns_av_unetI/netI     0.0202
_diffrn_reflns_Laue_measured_fraction_full 0.990
_diffrn_reflns_Laue_measured_fraction_max 0.990
_diffrn_reflns_limit_h_max       16
_diffrn_reflns_limit_h_min       -13
_diffrn_reflns_limit_k_max       5
_diffrn_reflns_limit_k_min       -5
_diffrn_reflns_limit_l_max       16
_diffrn_reflns_limit_l_min       -19
_diffrn_reflns_number            4602
_diffrn_reflns_point_group_measured_fraction_full 0.990
_diffrn_reflns_point_group_measured_fraction_max 0.990
_diffrn_reflns_theta_full        19.664
_diffrn_reflns_theta_max         20.518
_diffrn_reflns_theta_min         2.128
_exptl_absorpt_coefficient_mu    40.909
_exptl_absorpt_correction_T_max  0.4773
_exptl_absorpt_correction_T_min  0.1472
_exptl_absorpt_correction_type   multi-scan
_exptl_absorpt_process_details   '(Blessing, 1995)'
_exptl_crystal_density_diffrn    7.532
_exptl_crystal_description       'irregular polyhedron'
_exptl_crystal_F_000             1627
_exptl_crystal_size_max          0.080
_exptl_crystal_size_mid          0.078
_exptl_crystal_size_min          0.042
_refine_diff_density_max         2.474
_refine_diff_density_min         -1.276
_refine_diff_density_rms         0.325
_refine_ls_extinction_coef       0.00110(11)
_refine_ls_extinction_expression Fc^*^=kFc[1+0.001xFc^2^\l^3^/sin(2\q)]^-1/4^
_refine_ls_extinction_method     'SHELXL-2017/1 (Sheldrick 2017)'
_refine_ls_goodness_of_fit_ref   1.061
_refine_ls_hydrogen_treatment    undef
_refine_ls_matrix_type           full
_refine_ls_number_parameters     76
_refine_ls_number_reflns         1005
_refine_ls_number_restraints     4
_refine_ls_restrained_S_all      1.058
_refine_ls_R_factor_all          0.0381
_refine_ls_R_factor_gt           0.0283
_refine_ls_shift/su_max          0.001
_refine_ls_shift/su_mean         0.000
_refine_ls_structure_factor_coef Fsqd
_refine_ls_weighting_details
'w=1/[\s^2^(Fo^2^)+(0.0447P)^2^+3.0403P] where P=(Fo^2^+2Fc^2^)/3'
_refine_ls_weighting_scheme      calc
_refine_ls_wR_factor_gt          0.0667
_refine_ls_wR_factor_ref         0.0704
_reflns_Friedel_coverage         0.000
_reflns_number_gt                841
_reflns_number_total             1005
_reflns_threshold_expression     'I > 2\s(I)'
_cod_data_source_file            d2dt01651f2.cif
_cod_data_source_block           CF215A_K3_150
_cod_original_sg_symbol_H-M      'C 2/m'
_cod_original_formula_sum        'Ag0.80 Bi10.80 Cu2.80 Se18'
_cod_database_code               7711180
_shelx_shelxl_version_number     2017/1
_shelx_space_group_comment
;
The symmetry employed for this shelxl refinement is uniquely defined
by the following loop, which should always be used as a source of
symmetry information in preference to the above space-group names.
They are only intended as comments.
;
_shelx_res_file
;
TITL CF215A_K3_150 in C2/m
    CF215A_K3_150.res
    created by SHELXL-2017/1 at 20:24:06 on 02-May-2021
CELL 0.56083  13.74210   4.18830  15.31470  90.0000  99.5870  90.0000
ZERR    1.00   0.0015   0.0005   0.0018   0.0000   0.0090   0.0000
LATT  7
SYMM -X, Y, -Z
SFAC CU SE AG BI
UNIT 2.8 18 0.8 10.8

L.S. 20
BOND
FMAP 2
PLAN 20

ACTA

SHEL 0.8 10000

OMIT 2 0 1
OMIT 2 0 2
OMIT 2 0 18

EXYZ BI2 AG2
EADP BI2 AG2

SUMP 6.8 0.001 4 2 4 4
SUMP 0.8 0.001 4 5
SUMP 2.8 0.001 4 3 4 7 4 8 4 9
SUMP 1 0.001 1 2 1 3

WGHT    0.044700    3.040300
EXTI    0.001099
FVAR       0.03356   0.94448   0.05561   0.75554   0.20001   0.74606   0.10711
FVAR       0.21248   0.32479
BI1   4    0.451256    0.000000    0.189752    20.50000    0.03263    0.02878 =
         0.02757    0.00000    0.00604    0.00000
CU1   1    0.488857    0.000000    0.221124    30.50000    0.08190
BI2   4    0.151712    0.000000    0.062835    40.50000    0.02922    0.02814 =
         0.03768    0.00000    0.00672    0.00000
AG2   3    0.151712    0.000000    0.062835    50.50000    0.02922    0.02814 =
         0.03768    0.00000    0.00672    0.00000
BI3   4    0.243808    0.000000    0.622071    10.50000    0.05041    0.04308 =
         0.03162    0.00000   -0.00579    0.00000
SE1   2    0.402279    0.000000    0.359765    10.50000    0.03006    0.02727 =
         0.02865    0.00000    0.01221    0.00000
SE2A  2    0.792686    0.000000    0.129928    60.50000    0.02293
SE2B  2    0.798496    0.000000    0.102028   -60.50000    0.02255
SE3   2    0.138242    0.000000    0.454996    10.50000    0.02585    0.02392 =
         0.02413    0.00000    0.00342    0.00000
SE4   2    0.094956    0.000000    0.229772    10.50000    0.02724    0.02503 =
         0.03317    0.00000   -0.00060    0.00000
SE5   2    0.000000    0.500000    0.000000    10.25000    0.02309    0.02134 =
         0.02292    0.00000    0.00430    0.00000
CU3   1    0.022427    0.000000    0.560244    70.50000    0.02001    0.15750 =
         0.12739    0.00000    0.00894    0.00000
CU4   1    0.464764    0.000000    0.523735    80.50000    0.07354    0.05722 =
         0.05569    0.00000   -0.02629    0.00000
CU5   1    0.000000    0.331509    0.500000    90.50000    0.03922    0.12835 =
         0.05849    0.00000    0.00828    0.00000
HKLF 4




REM  CF215A_K3_150 in C2/m
REM R1 =  0.0283 for     841 Fo > 4sig(Fo)  and  0.0381 for all    1005 data
REM     76 parameters refined using      4 restraints

END

WGHT      0.0447      3.0329

REM Highest difference peak  2.474,  deepest hole -1.276,  1-sigma level  0.325
Q1    1   0.2006  0.0000  0.5738  10.50000  0.05    2.47
Q2    1   0.4179  0.0000  0.1406  10.50000  0.05    2.38
Q3    1   0.2764  0.0000  0.6804  10.50000  0.05    2.07
Q4    1   0.1942  0.0000  0.1166  10.50000  0.05    2.04
Q5    1   0.1046  0.0000  0.0179  10.50000  0.05    1.77
Q6    1   0.3717  0.0000  0.3104  10.50000  0.05    1.61
Q7    1   0.8201  0.0000  0.0628  10.50000  0.05    1.60
Q8    1   0.0919  0.0000  0.1834  10.50000  0.05    1.58
Q9    1   0.1785  0.0000  0.5014  10.50000  0.05    1.38
Q10   1   0.0382  0.5000  0.0501  10.50000  0.05    1.19
Q11   1   0.1820  0.0000  0.0267  10.50000  0.05    1.18
Q12   1   0.4538  0.0000  0.4232  10.50000  0.05    1.11
Q13   1   0.7972  0.0000  0.1760  10.50000  0.05    0.99
Q14   1   0.7443  0.0000  0.0816  10.50000  0.05    0.99
Q15   1  -0.0001  0.0000  0.6312  10.50000  0.05    0.90
Q16   1  -0.0031  0.0000  0.6737  10.50000  0.05    0.88
Q17   1   0.1353  0.0000  0.2713  10.50000  0.05    0.87
Q18   1  -0.0019  0.0000  0.5590  10.50000  0.05    0.85
Q19   1   0.0990  0.0000  0.4001  10.50000  0.05    0.77
Q20   1   0.0645  0.2108  0.2871  11.00000  0.05    0.74
;
_shelx_res_checksum              51668
_shelx_hkl_file
;
  -7   3  -4    7.79    0.64
  -4  -2   2   37.81    0.86
  -1  -1   1    2.35    0.41
   0   2  -3    0.32    0.53
   1  -3   0    1.81    0.63
   5   1  -4  506.71    2.09
 -13  -1   2    1.46    0.58
  10   0  -7   66.93    0.77
  -4   2  -2    0.93    0.38
   0  -2   1    7.19    0.49
  -1   1  -1    0.19    0.29
   3   1  -3  135.95    1.02
   7   1  -6   46.17    0.84
   9   1  -8    2.60    0.57
  -5   3  -5    0.88    0.58
  -3  -1   2  101.41    0.92
   1   1  -2  241.30    1.19
   4   2  -6    3.77    0.51
   7  -3  -3    0.24    0.37
  -6   2  -2  234.85    1.41
   2   0  -1    7.50    0.11
   2   2  -5  362.32    2.21
  -7  -1   3    2.72    0.52
   0   2  -4   42.78    0.86
   1  -3   1    1.38    0.58
   3  -3   0  169.00    1.49
   6  -2  -2    2.05    0.33
 -13  -1   3    5.45    0.73
  -5   1   0    1.90    0.15
  -4  -2   3    0.15    0.58
   9   1  -9   14.02    0.72
   4   2  -7   28.24    0.76
   5  -3  -1    2.21    0.48
   7   1  -7   14.83    0.64
  -4   2  -3    8.36    0.55
   6   0  -4  252.35    1.06
   8   0  -6    8.63    0.40
   0  -2   2    0.79    0.45
   2   2  -6   25.58    0.83
   1  -3   2    0.27    0.56
   3   1  -4   78.69    0.83
 -11  -1   4    0.05    0.64
   3  -3   1  323.20    2.09
  -9  -1   4    0.29    0.59
  -6   2  -3    3.25    0.41
  -4  -2   4   22.14    0.83
  -1  -1   2  249.59    1.25
   5   1  -6    0.59    0.46
   7  -3  -2   10.71    0.47
  10   0  -9   75.04    0.91
   1  -1   1    0.94    0.29
  -8   2  -3   10.72    0.48
  -7  -1   4    2.38    0.53
  -3  -1   3  140.79    1.09
   0   2  -6   -0.15    0.58
   1   1  -3    0.48    0.35
  -6  -2   5  100.65    1.48
  -4   2  -4   60.04    0.94
   7   1  -9  113.33    1.34
  -1   1  -2    6.75    0.34
   0  -2   3   -0.01    0.46
   8   0  -7    7.31    0.41
  10   0 -10    0.89    0.40
 -12   0   3    3.40    0.37
 -10   0   3    2.32    0.35
   3   1  -5   53.50    0.76
   5   1  -7   18.00    0.69
  -6   2  -4    1.29    0.42
  -4  -2   5   39.96    0.97
   0   2  -7  127.13    1.46
   6   0  -5  176.76    1.03
 -13  -1   5   -0.19    0.53
  -9  -1   5  140.66    1.45
  -8   0   3  517.69    1.74
  -4   2  -5   63.11    1.05
   6  -2  -1    0.80    0.27
   7  -3  -1    8.97    0.46
   8  -2  -3  370.17    1.04
  -7  -1   5    8.07    0.68
   1   1  -4   10.58    0.45
   5  -3   1    0.62    0.43
   8   0  -8   40.18    0.69
   3   1  -6  223.68    1.49
  -6   2  -5   26.66    0.71
  -4   2  -6  124.38    1.37
  -2  -2   5  367.79    2.21
   0  -2   4   41.09    0.82
   3  -3   3    1.22    0.57
  -8   2  -5    0.72    0.47
  -3  -1   4   80.33    0.89
  -1  -1   3    0.63    0.37
 -11  -1   6   14.06    0.67
  -1   1  -3   33.70    0.53
   8   0  -9   16.30    0.57
  -9  -1   6   11.79    0.68
  -6   0   3   41.26    0.50
  -6   2  -6    0.94    0.52
  -5  -1   5   92.25    1.04
   6   0  -6   30.32    0.52
  -5   1  -1    0.37    0.19
   1  -1   2    6.48    0.37
   1   1  -5   17.64    0.50
   7  -3   0   13.98    0.47
 -10   0   4    1.96    0.38
  -8   2  -6    1.73    0.44
  -7  -1   6   44.22    0.90
   8   0 -10   60.88    0.94
  -2  -2   6   25.13    0.87
   0  -2   5  106.19    1.24
   4  -2   2   -0.28    0.36
   8   0 -11    4.01    0.55
 -11  -1  -1    8.06    0.46
   2   0   0    2.81    0.06
  -6   0  -4    5.67    0.28
  12   0  -8   42.46    1.12
  -9  -1   2    3.77    0.54
   1  -1   6  183.36    1.59
   8   0  -3  495.43    2.03
  10   0  -5    7.30    0.62
  -7  -1   4    1.90    0.62
  10   0  -6    0.91    0.62
 -11  -1   0    3.47    0.49
  -6   0 -12   33.97    1.01
  -6   0  -5   52.69    0.62
  -6   0 -11    1.15    0.56
  -6   0 -10   19.02    0.86
   8   0  -4   79.80    1.01
  10   0  -8  109.15    1.62
  -7  -1   5    8.85    0.79
  -6   0  -9    4.87    0.65
  -6   0  -8  105.62    1.21
  -6   0  -7   76.74    0.99
  -6   0  -6    2.92    0.42
  -1  -1   7  160.21    1.73
 -11  -1   1    6.11    0.62
  -3  -1   7    9.00    0.87
   4   0  -1  106.51    0.62
   7  -1   5   10.93    0.57
   8   0  -5    3.13    0.60
  -9  -1   4   -0.12    0.84
  -4   0 -12    5.65    0.83
  -5  -1   7   16.88    1.00
  -4   0 -11    3.42    0.81
   6   0  -3   40.74    0.68
   8   0  -9   16.53    1.03
   8   0  -7    8.39    0.85
  -4   0 -10    4.82    0.79
  -4   0  -9  112.48    1.53
  -4   0  -8   90.34    1.29
  -2   0 -11   64.94    1.39
   6   0  -9   23.82    1.12
  -4   0  -7  155.70    1.42
  -4   0  -3    6.62    0.26
  -2   0 -10   17.26    0.96
   4   0  -2   43.05    0.55
  -9  -1   6   11.96    0.94
  -4   0  -6  201.32    1.37
  -4   0  -5   83.65    0.84
  -4   0  -4   78.74    0.68
  -2   0  -9   21.31    0.90
   4   0 -10  352.02    2.87
 -11  -1   4    1.20    0.76
   0   0 -10    0.60    0.74
   2   0 -10   35.54    1.17
   4   0  -9   14.33    0.80
   4   0  -8  126.39    1.65
   4   0  -3    2.63    0.40
   0   0  -9   24.72    0.95
   2   0  -9   37.36    1.13
   4   0  -6    3.13    0.55
   4   0  -4   29.05    0.65
   0   0  -8    0.06    0.67
   2   0  -8  116.52    1.51
   2   0  -1    7.64    0.19
   3  -1   9    1.50    0.84
   4   0  -5   53.48    0.80
   5  -1   8    5.47    0.79
   0   0  -7  222.27    1.67
   2   0  -7    5.62    0.65
  -2   0  -5  152.95    1.13
   2   0  -6   56.77    0.85
   2   0  -5  453.24    2.07
  -2   0  -4   77.53    0.75
   0   0  -5  140.63    1.15
   2   0  -4  381.54    1.71
   2   0  -3   29.29    0.56
   2   0  -2   11.40    0.32
  -2   0  -3  186.32    0.89
   5  -1   9   23.58    0.87
  11  -1   0    4.28    0.28
   0   0  -4   50.70    0.64
  -2   0  -2   68.30    0.42
   0   0  -3    3.77    0.33
  11  -1  -7   16.85    0.82
  11  -1  -6   15.09    0.80
  -2   0  -1   25.08    0.12
   0   0  -2    5.46    0.21
   5  -1  10   51.29    1.20
  11  -1  -5    0.47    0.59
  11  -1  -4   -0.36    0.54
  11  -1  -2  282.85    1.58
  11  -1  -1    6.39    0.38
  -7  -1 -11    0.89    0.61
  -2   0   1    8.71    0.22
  11  -1  -3   88.01    1.02
  -2   0   2   11.93    0.37
   9  -1  -8    0.98    0.81
  -7  -1 -10   16.71    0.73
  -2   0   3   29.29    0.61
  -5  -1 -11    0.89    0.67
  -4   0   2   39.17    0.57
  -2   0   4  394.93    1.85
   9  -1  -7   61.86    1.26
  -9   1   4    0.66    0.37
  -3  -1 -10   47.05    1.07
  -2   2   8   81.13    0.84
  -1  -1  -9   38.53    0.89
  -1   3  10   32.09    0.80
   3  -1 -12   16.23    0.54
 -11   1   3   87.93    1.07
  -6   0   0   17.55    0.47
  -3  -1  -9    0.90    0.62
   2   2   7    0.77    0.52
   3  -1 -11    4.31    0.40
   7   1   1   14.40    0.69
  -1  -1  -8   23.51    0.62
   1   1   4    0.46    0.27
   4   0  -2   38.67    0.38
   5   1   2   76.15    0.91
   8   0  -6    8.54    0.36
 -10   0  -1    3.75    0.63
   3  -1 -10   42.55    0.57
   3   1   3    2.54    0.35
  11   1  -4    0.70    0.55
   0   2   7  123.25    1.12
 -13   1   3    4.41    0.48
 -11   1   4   -0.29    0.35
  -7   1   5    8.28    0.26
  -1   3   9    8.02    0.56
   6   0  -4  247.42    1.03
 -10   0   0   54.61    0.98
  -4   0   1  110.55    0.71
   2   0  -1    7.57    0.14
   2   2   6   53.19    0.89
  -8   0   1   39.81    0.75
   3  -1  -9   22.47    0.43
   5  -1 -12   29.27    0.44
  -5  -1  -5    5.04    0.46
  -3  -1  -5   14.51    0.56
  -2   2   7    5.43    0.40
   5   1   1    0.64    0.37
   8   0  -7    7.85    0.35
 -10   0   1    8.51    0.66
  -3   3   9    5.38    0.40
   7   1  -1   39.06    0.76
  11   1  -6   15.82    0.70
  -7  -1  -4   12.40    0.78
 -11   1   5    0.29    0.40
   0   2   6   -0.08    0.43
   3   1   2    7.38    0.36
  -3  -1  -4   17.46    0.55
  -1   3   8    6.35    0.50
   1   1   3   35.50    0.50
  11   1  -7   18.54    0.70
   3  -1  -8    6.91    0.31
   6   0  -5  189.76    0.88
   6   2   2  242.58    1.98
 -10   0   2    7.79    0.58
   5   1   0    2.02    0.38
 -12   0   2    8.85    0.69
  11   1  -8   14.32    0.66
  -7  -1  -2    5.15    0.63
  -3   3   8    2.55    0.43
   4   2   3    8.00    0.61
   9   1  -5  136.26    1.33
  -3  -1  -3    2.52    0.38
  -1  -1  -4   -0.10    0.31
   6   2   1  311.93    2.13
  -2   2   6   24.71    0.52
   2   2   4   32.08    0.71
  11   1  -9   12.30    0.63
 -10   0   3    1.95    0.46
   0   2   5  105.07    0.98
   3   1   1  702.85    2.06
  -8   0   3  509.21    2.05
  -7  -1  -1   13.84    0.68
   0  -2 -13    7.64    0.57
  -3   1  -7   42.51    0.69
   4   0  10    4.30    0.40
   0   0   4   44.10    0.21
   1   1 -12    2.74    0.28
   6   0  -8   53.85    0.71
  -5   1  10    8.06    0.44
  -5   1  -4    3.58    0.52
   4   0   9  101.51    1.05
   6   0   9    5.29    0.58
  -7   1   2   17.54    0.75
  -7   1   3    3.51    0.59
   2   0   7    0.70    0.28
   4   0  -6    2.51    0.28
   6   0  -7    0.15    0.34
  -7   1   6   48.23    1.01
   2   0  -4  394.38    0.88
   4   0   8   89.55    1.01
   6   0   8  103.02    1.33
   8   0  -7    7.76    0.64
  -1   1 -11    0.31    0.40
   0   0   3    3.10    0.08
   8   0   7    0.24    0.73
   4   0   7  161.04    1.36
   8   0  -6    8.99    0.68
   8   0   6    1.49    0.74
  10   0  -5    7.50    0.84
  -7   1   8   88.65    1.22
   2   0   6  105.01    0.80
   8   0  -5    2.82    0.79
   4   0   6  206.23    1.49
   6   0   6    3.40    0.62
  -7   1   9  115.02    1.32
   8   0   3   21.77    0.90
   8   0   4  113.47    1.57
  -5   1  -8    5.41    0.80
   4   0  -4   29.14    0.55
   8   0  -3  491.14    2.79
   8   0   1   70.32    1.29
   8   0   2  100.95    1.52
  -7   1  10  138.60    1.37
   0   0   2    3.49    0.04
   2   0  -3   29.41    0.32
   8   0  -1   40.74    0.95
   8   0   0   29.19    0.97
  -9   1   5  144.07    1.79
  -9   1   6   11.45    0.89
  -1   1 -12    1.97    0.38
   2   0   4   83.05    0.70
   4   0   4   81.14    0.93
   6   0  -3   39.67    0.71
   6   0  -2    9.10    0.55
   6   0   2  368.87    2.21
   6   0   3    1.20    0.55
  -9   1   7   59.84    1.22
   4   0  -3    3.30    0.35
   6   0  -1    4.20    0.46
   6   0   1  410.09    2.25
  -9   1   8    1.29    0.65
   4   0  -2   39.21    0.60
   4   0   3    7.09    0.48
   2   0   3  195.14    0.95
   4   0   0    3.12    0.43
   4   0   1    1.08    0.39
   4   0   2    0.76    0.38
  -5   1 -10   48.68    0.98
   2   0   2   67.72    0.55
  -7   1  12   -0.13    0.33
   2   0   0    3.49    0.18
   2   0   1   34.15    0.34
   1  -3  11   -0.13    0.67
   6  -4   8   23.13    1.65
  10  -4   3    1.51    1.30
  11  -3  -3   45.58    1.84
  12  -4   1    1.28    1.38
  13  -5  10    2.16    1.67
  13  -3  -4    3.76    1.42
  14  -4   0   -0.68    1.56
  16  -4  -1   -0.77    1.53
  21  -3  -6   -0.52    1.57
   1  -3  12    0.02    0.74
   4  -2   0   -0.24    0.74
   5  -3   3  131.61    2.08
   6  -4  10    5.01    1.37
   9  -3  -1    2.72    1.13
   9  -1  -7   61.40    1.15
  13  -1  -9    1.46    0.78
  16  -4   0    1.91    1.55
  16  -2  -8    0.21    1.17
   2  -2   3  111.62    1.38
   6  -2  -2    2.19    0.60
   7  -3   1    7.98    1.03
  10  -4   4    0.09    1.18
  10  -2  -5    1.31    0.87
  11  -3  -2  119.60    2.48
  11  -1  -8   14.95    0.82
  12  -2  -6    0.96    0.98
  14  -2  -7   18.54    1.30
  15  -3  -4    2.88    1.21
  18  -2  -8    0.65    1.10
  19  -3  -5    7.84    1.65
  21  -3  -5   -1.53    1.40
   0  -2   7  128.88    1.33
   5  -3   4    0.76    0.89
   6  -4  12    5.40    1.12
   6  -4  13   -0.32    1.02
   8  -4   8    5.51    1.13
  10  -4   5    4.47    1.31
  12  -4   3   42.06    1.94
  14  -4   2    1.50    1.35
  16  -4   1    3.73    1.54
  17  -3  -4    0.09    1.24
  18  -4   1   -0.39    1.60
  21  -3  -4    0.73    1.41
   7  -3   2    2.78    0.93
   8  -4   9    5.64    1.19
   8  -2  -3  357.45    2.92
   9  -3   0    5.65    1.11
  14  -4   3    0.85    1.41
  16  -2  -7   29.43    1.56
  18  -4   2    0.91    1.55
  19  -3  -4    0.80    1.22
   3  -3   9    0.46    0.82
   4  -2   1    4.87    0.74
   6  -2  -1    1.51    0.67
  14  -4   4    1.02    1.33
  16  -4   3   -0.31    1.41
  17  -3  -3    3.02    1.26
  18  -4   3    0.37    1.39
  21  -3  -3    0.55    1.37
   0  -2   8    1.29    0.56
   7  -3   3   12.65    1.10
   8  -4  11    3.63    1.07
   8  -4  12   -0.75    1.10
   8  -4  13   27.77    1.59
  10  -4   8   19.73    1.55
  10  -2  -4    1.23    0.73
  12  -4   6    2.61    1.38
  12  -2  -5    4.29    0.98
  13  -1  -8   37.49    1.23
  14  -4   5    6.52    1.44
  16  -4   4   -0.61    1.49
   5  -3   6    2.89    0.84
   8  -4  14    1.24    1.06
   8  -4  15   -0.65    1.23
   9  -1  -6   12.31    0.79
  10  -4   9   11.78    1.37
  11  -3   0   -0.49    1.19
  11  -1  -7   18.94    0.83
  13  -3  -1   -0.29    1.23
  14  -4   6    3.04    1.41
  16  -4   5   -0.11    1.48
  16  -2  -6   20.82    1.51
  17  -3  -2    1.41    1.34
  18  -4   5    5.67    1.56
  18  -2  -6    0.32    1.08
  19  -3  -2    0.67    1.35
  20  -2  -6    1.82    1.28
  21  -3  -2    0.47    1.41
   3  -3  11   23.21    1.06
   7  -3   4    7.84    1.00
   8  -2  -2   14.06    0.99
   9  -3   2  123.80    2.22
  10  -4  12    1.50    1.00
  12  -4   9    0.04    1.18
  14  -4   7    0.94    1.37
  14  -2  -5    0.84    1.04
  21  -3  -1    0.62    1.26
   0  -2   9    9.81    0.58
   2  -2   5   83.20    1.22
   3  -3  12    0.13    0.72
   4  -2   2    0.08    0.63
   6  -2   0   15.76    0.90
  10  -4  13    0.83    1.03
  10  -4  14    0.54    1.28
  10  -4  15    1.86    1.16
  11  -3   1    4.51    1.12
  12  -4  10    1.50    1.33
  12  -4  11    4.39    1.22
  12  -2  -4   22.20    1.25
  14  -4   8    0.35    1.45
  15  -1  -8    1.11    0.81
  16  -4   7    0.86    1.25
  16  -2  -5    5.06    1.29
   5  -3   8    2.67    0.85
   7  -3   5    1.10    0.95
  12  -4  12    0.07    1.37
  12  -4  14    0.12    1.12
  12  -4  15   -0.01    1.15
  12  -4  16    1.21    1.19
  14  -4  11    0.83    1.31
  14  -4  12    0.15    1.36
  15  -3   0   -0.37    1.09
  16  -4   9   -0.51    1.33
  18  -2  -5    2.53    1.12
  19  -3   0    0.32    1.42
  20  -2  -5   -0.28    1.19
  21  -3   0    0.59    1.21
   0  -2  10    1.70    0.58
   5  -3   9    5.90    0.93
   7  -1  -4    2.39    0.50
   8  -2  -1   19.10    1.02
   9  -3   4    1.01    0.94
  11  -3   2   -0.33    0.78
  13  -3   1    1.03    0.68
  13  -1  -7   89.42    1.54
  15  -3   1    1.29    1.03
  21  -3   1   -0.17    1.42
  22  -2  -4    2.47    1.24
   2  -2   6   53.71    1.02
   4  -2   3    8.51    0.71
   6  -2   1  311.20    2.43
   9  -1  -5  135.10    1.51
  10  -2  -2    9.42    0.93
  10   0  -8  107.14    1.11
  11  -1  -6   14.51    0.77
  13  -3   2   -0.02    0.95
  16  -2  -4    3.11    1.12
  17  -3   1   -0.38    1.25
  18  -2  -4    1.67    1.12
  20  -2  -4    0.60    1.14
   5  -3  11    0.72    0.84
   9  -3   5    0.16    1.02
  15  -1  -7    1.57    0.81
  17  -3   2   -0.67    1.31
  19  -3   2    2.30    1.40
  22  -2  -3    0.22    1.28
   5  -3  12   41.13    1.42
   5  -3  13   32.02    1.28
   8  -2   0   10.45    0.90
   9  -3   6   23.13    1.36
  11  -3   4   10.35    1.28
  13  -3   3    0.84    0.95
  14  -2  -3    1.55    1.00
  16  -2  -3    0.06    1.07
  17  -3   3    0.54    1.29
  17  -1  -7   -0.16    0.91
  18  -2  -3    2.00    1.12
  22  -2  -2   -0.12    1.06
   0  -2  12   44.89    0.89
   2  -2   7    0.48    0.56
   4  -2   4   62.95    1.17
   5  -3  14   11.23    1.06
   6  -2   2  231.02    2.13
   7  -3   9   -0.07    0.93
  10  -2  -1    3.39    0.84
  11  -3   5   18.17    1.43
  13  -3   4    6.29    1.14
  13  -1  -6   10.48    0.90
  17  -3   4    1.97    1.30
  19  -3   4   -1.23    1.48
  20  -2  -2   -0.38    1.27
   7  -3  10    7.33    1.05
   7  -3  11    0.74    0.98
  11  -3   6    0.48    1.04
  11  -1  -5   -0.15    0.76
  13  -3   5    1.06    1.02
  15  -3   5   10.76    1.38
  15  -1  -6    6.03    0.97
  16  -2  -2    1.00    0.91
  17  -3   5    0.49    1.34
  18  -2  -2   -0.19    1.16
  19  -3   5    0.61    1.30
  19  -1  -6   12.02    1.31
  22  -2  -1    0.35    1.29
   2  -2   8   29.40    0.95
   7  -3  12    2.40    0.95
   7  -3  13   -0.92    0.92
   8  -2   1   33.16    1.12
   9  -3   9    9.44    1.20
   9  -1  -4    0.33    0.63
  11  -3   7    2.05    1.02
  12  -2  -1    0.30    0.89
  12   0  -8   43.23    0.96
  13  -3   6   -0.86    1.07
  17  -3   6    8.70    1.47
  20  -2  -1    1.42    1.35
  22  -2   0    1.00    1.29
   6  -2   3    2.56    0.82
   7  -3  14   -0.14    0.96
   7  -3  15   18.94    1.22
   7  -3  16    1.28    0.93
   9  -3  10    4.56    1.06
  10  -2   0   41.15    1.17
  15  -3   7    1.68    1.35
  16  -2  -1    1.37    0.94
  17  -3   7    0.15    1.24
  18  -2  -1    4.00    1.22
  20  -2   0   13.48    1.58
  22  -2   1    1.01    1.19
   2  -2   9   16.96    0.82
   9  -3  11    3.36    0.96
   9  -3  13    1.56    1.00
   9  -3  14    0.99    1.01
   9  -3  16    0.32    1.01
   9  -3  17    0.43    1.13
  11  -3  10    9.30    1.25
  12  -2   0   -0.02    0.90
  13  -3   8    4.24    1.10
  13  -1  -5    0.31    0.73
  15  -3   8    0.42    1.22
  15  -3   9    0.04    1.30
  17  -3  10    1.38    1.35
  17  -3  11    0.85    1.27
  22  -2   2    1.65    1.26
   5  -1  -1    6.27    0.44
   8  -2   2   53.24    1.30
  10   0  -7   67.05    0.97
  11  -3  11    7.39    1.23
  11  -3  12    0.36    1.13
  11  -3  13    6.51    1.18
  11  -3  14   12.59    1.22
  11  -3  15    0.52    1.15
  11  -3  16   -0.01    1.20
  11  -3  17    0.76    1.05
  11  -1  -4    0.52    0.79
  13  -3  11    3.94    1.25
  13  -3  12    0.39    1.08
  13  -3  13    0.30    1.26
  13  -3  15    3.10    1.25
  13  -3  16    4.63    1.17
  13  -3  17   -0.77    1.15
  13  -3  18   -0.83    1.13
  15  -3  13   -0.21    1.27
  15  -3  14    0.43    1.46
  15  -1  -5    2.77    0.88
  23  -1  -3    0.96    1.26
   2  -2  10    7.57    0.64
   6  -2   4    0.86    0.58
  12  -2   1    3.67    0.96
  13  -3  14    0.43    1.13
  18  -2   1    1.37    1.27
  19  -1  -4   -0.23    0.97
  20  -2   2   -1.08    1.39
   2  -2  11   47.85    1.09
   4  -2   7  123.88    1.63
   8  -2   3   10.60    0.93
   9  -1  -3   31.65    0.92
  10  -2   2    1.44    0.89
  13  -1  -4    5.61    0.83
  14  -2   1    0.69    1.18
  17  -1  -4    1.27    1.11
  21  -1  -3    0.09    1.22
   2  -2  12  135.83    1.68
   6  -2   5   25.62    1.08
  12  -2   2    3.05    1.03
  12   0  -7   30.36    0.89
  14  -2   2    2.45    1.12
  18  -2   3    0.46    1.21
  19  -1  -3    1.05    0.99
  20  -2   4    1.72    1.50
   2  -2  13    7.35    0.66
   2  -2  14    4.34    0.69
   8  -2   4   78.26    1.58
  11  -1  -3   86.85    1.54
  16  -2   3    0.20    1.11
  17  -1  -3    2.12    1.24
  18  -2   4    4.30    1.35
  20  -2   6    2.51    1.30
   5  -1   0    2.08    0.44
   6  -2   6    0.99    0.55
  10  -2   4    3.43    0.94
  12  -2   3  120.10    2.26
  13  -1  -3    4.68    0.87
  15  -1  -3    5.24    1.10
  16  -2   4    2.75    1.05
  19  -1  -2    0.59    1.10
  20  -2   7    1.74    1.45
  21  -1  -1    0.43    1.27
  23  -1   1    5.50    1.43
   4  -2  10    2.24    0.67
   7  -1  -1   36.37    0.91
   8  -2   5    0.24    0.61
  12  -2   4    9.85    1.23
  16  -2   5    1.37    1.12
  18  -2   6    5.31    1.52
  21  -1   0   -0.32    1.19
  23  -1   2   -0.01    1.39
   4  -2  11    3.92    0.69
   6  -2   8   77.53    1.53
   8  -2   6    2.38    0.84
  10  -2   5   18.68    1.26
  10   0  -6    0.85    0.54
  11  -1  -2  270.34    2.55
  12  -2   5   14.28    1.30
  14  -2   5   20.53    1.38
  16  -2   6    0.24    1.25
  18  -2   8    1.39    1.37
  18  -2   9   -0.26    1.28
  19  -1  -1    0.13    1.16
   4  -2  12    3.50    0.74
   4  -2  13    1.33    0.86
   4  -2  14   25.45    1.17
   4  -2  15    6.53    0.95
   6  -2   9    1.84    0.75
  10  -2   6    7.85    1.07
  12  -2   6   12.84    1.28
  12   0  -6    0.03    0.65
  13  -1  -2    0.83    0.85
  14  -2   6    5.84    1.14
  15  -1  -2    2.84    0.99
  16  -2   7    0.43    1.28
  16  -2   8    3.38    1.22
  17  -1  -1   43.59    1.66
  18  -2  11   -0.01    1.43
  19  -1   0    0.53    1.09
  21  -1   1    1.09    1.21
   5  -1   1    0.02    0.44
   6  -2  10   15.14    1.01
   9  -1  -1    4.40    0.75
  10  -2   7    6.99    1.12
  12  -2   7    0.86    1.26
  12  -2  19    1.94    1.19
  14  -2   7    1.14    1.13
  14  -2   8    2.80    1.04
  14  -2  18   -1.14    1.22
  14   0  -6    0.59    0.66
  16  -2  11    1.42    1.44
  16  -2  14    2.13    1.38
  16  -2  15    1.15    1.42
  18   0  -5    3.98    1.14
  21  -1   2   -0.26    1.33
  24   0  -1   -0.28    1.17
   6  -2  11    0.53    0.85
   6  -2  12   16.74    1.03
   6  -2  16    0.55    1.03
   7  -1   0   31.07    0.93
   8  -2   9   19.16    1.21
  10  -2   8   48.00    1.61
  10  -2  18   -0.81    1.22
  12  -2   8    7.82    1.12
  12  -2  17    0.91    1.27
  12  -2  18    4.02    1.24
  13  -1  -1    0.22    0.86
  14  -2  10    3.01    1.25
  14  -2  14    6.42    1.47
  14  -2  15    5.12    1.29
  14  -2  16   -0.59    1.23
  14  -2  17    0.26    1.14
  17  -1   0   14.85    1.29
  19  -1   1    8.83    1.37
  21  -1   3   -0.70    1.29
   6  -2  13    5.60    0.90
   6  -2  14    0.48    0.85
   6  -2  15   -0.13    0.88
   8  -2  10    0.16    0.93
   8  -2  11   10.40    1.15
   8  -2  16    0.18    0.96
   8  -2  17    2.72    1.01
  10  -2  16   11.14    1.31
  10  -2  17    3.23    1.21
  12  -2   9    0.34    0.98
  12  -2  13    2.47    1.30
  12  -2  14    0.92    1.06
  12  -2  15    2.36    1.23
  12  -2  16    1.25    1.24
  14  -2  13    0.10    1.12
  15  -1   0    0.58    1.05
  16   0  -5    6.77    0.96
  19  -1   2    2.61    1.28
  22   0  -2    0.05    1.29
   8  -2  12   -0.38    0.91
   8  -2  13   76.97    1.94
   8  -2  14    1.23    1.10
   8  -2  15    0.35    0.88
   9  -1   0   10.58    0.86
  10  -2  11    5.84    1.14
  10  -2  12    2.98    1.03
  10  -2  13    0.68    0.96
  10  -2  14    4.57    1.09
  10  -2  15    3.37    1.20
  10   0  -5    7.96    0.70
  14   0  -5    3.33    0.86
  17  -1   1    0.66    0.99
  18   0  -4    1.73    1.04
  20   0  -3   -0.82    1.08
  21  -1   7    0.85    1.53
  22   0  -1    1.44    1.28
   5  -1   2   73.13    1.09
   7  -1   1   15.23    0.80
  11  -1   0    3.94    0.89
  12   0  -5    8.39    0.69
  19  -1   5    0.09    1.18
  20   0  -2   -0.08    1.14
  22   0   0    0.53    1.12
  13  -1   1    3.70    0.99
  16   0  -4    3.46    0.98
  18   0  -3    2.96    1.08
  19  -1   6   -0.54    1.43
  22   0   1   -0.52    1.33
   9  -1   1   -0.08    0.83
  11  -1   1    9.14    0.99
  17  -1   4    1.40    1.26
  19  -1   7    2.66    1.28
  19  -1   8    0.88    1.54
  19  -1   9    0.65    1.56
  19  -1  10    0.98    1.34
  19  -1  11    9.39    1.43
   7  -1   2    5.34    0.73
  13  -1   2    1.97    1.01
  14   0  -4    2.21    0.82
  15  -1   3   28.04    1.64
  16   0  -3    0.36    1.04
  17  -1   5   -1.28    1.15
  17  -1   6   20.14    1.59
  18   0  -2    0.92    1.08
  22   0   3    0.68    1.39
   5  -1   3  367.01    2.25
   9  -1   2  291.03    2.60
  10   0  -4    1.73    0.74
  11  -1   2   -0.25    0.86
  12   0  -4   32.89    1.02
  13  -1   3    3.44    1.06
  15  -1   4   28.83    1.52
  17  -1   7    0.19    1.31
  17  -1   8    0.95    1.36
  17  -1   9    3.44    1.28
  17  -1  13    0.66    1.52
  20   0   1    2.57    1.35
  22   0   4    0.98    1.44
  22   0   5   -0.87    1.46
  13  -1   4   15.48    1.23
  13  -1  20    0.77    1.21
  15  -1   5   21.23    1.37
  15  -1  17   -0.70    1.39
  17  -1  10    0.13    1.31
  17  -1  11    1.60    1.49
  17  -1  12    0.68    1.25
  18   0  -1    4.48    1.13
   3  -1   5   14.70    0.59
   5  -1   4    3.55    0.61
   7  -1   3   30.71    0.96
   9  -1   3  106.02    1.73
  11  -1  20   -0.16    1.20
  13  -1   5    3.78    1.12
  13  -1  18    0.89    1.25
  13  -1  19   -0.07    1.28
  14   0  -3    3.93    0.92
  15  -1   8    0.60    1.05
  15  -1  15    1.15    1.46
  15  -1  16    0.14    1.35
  16   0  -2   -0.41    1.02
  18   0   0   -0.43    1.06
  20   0   2   -0.06    1.16
  20   0   3   -0.27    1.14
  23   1   0    1.78    1.27
  11  -1   4   21.51    1.18
  11  -1  19    3.16    1.10
  12   0  -3    3.53    0.75
  13  -1   6   -0.16    1.25
  13  -1  17   -0.45    1.34
  15  -1   9    1.21    1.11
  15  -1  10   -1.27    1.23
  15  -1  11    4.54    1.38
  15  -1  12    2.62    1.35
  20   0   4    0.35    1.45
  -7  -3   4   -0.13    0.77
  -4  -6   0    0.99    1.29
  -1  -7  -2    0.55    1.60
   1  -7  -4   -0.09    1.71
   2  -2  -6   25.86    1.19
   3  -5  -8    0.99    1.33
   5  -5  -9   10.33    1.57
   6  -6  -9   -0.35    1.81
   6  -4 -10   -0.09    1.28
   7  -3 -10   54.19    1.78
   8  -4 -11    1.95    1.18
   9  -5 -11    0.69    1.47
   9  -3 -11    1.55    1.24
  12  -2 -11    5.35    1.10
  -6  -4   2    1.04    0.89
  -3  -7   1    1.26    1.52
  -3  -5  -2    2.02    1.43
  -3  -3  -2    4.19    1.00
  -2  -6  -2    2.72    1.40
  -1  -3  -4    0.39    1.08
   0  -6  -4    0.05    1.46
   1  -3  -6   42.38    1.56
   2  -6  -6    2.09    1.67
   2  -4  -7    1.12    1.34
   7  -5 -10   11.67    1.65
  12  -4 -12    1.21    1.39
  13  -5 -12    2.31    1.69
  13  -3 -12    2.64    1.31
  -5  -5   1    1.43    1.18
  -4  -6   1    1.84    1.22
  -2  -4  -3   23.91    1.47
   0  -4  -5   23.62    1.55
   0  -2  -4   42.20    1.19
   1  -7  -3    0.23    1.67
   3  -5  -7    0.54    1.38
   4  -6  -7    0.51    1.74
   4  -4  -8   18.76    1.66
   6  -6  -8    0.29    1.53
   8  -6  -9    0.04    1.60
  10  -4 -11    4.07    1.41
  11  -5 -11    0.16    1.71
  14  -4 -12    0.31    1.43
  15  -5 -12    6.96    1.74
  -3  -5  -1   62.85    2.24
  -2  -6  -1    0.63    1.48
   2  -6  -5   21.16    2.01
   3  -3  -7    2.52    1.19
   4  -2  -7   29.01    1.21
   5  -5  -8    0.93    1.42
   6  -4  -9    4.77    1.53
   9  -5 -10    2.45    1.62
  10  -2 -10    0.44    0.91
  11  -3 -11    1.52    1.25
  -6  -4   3    2.26    1.03
  -5  -5   2    3.57    1.18
  -4  -6   2    1.82    1.31
  -1  -7   0   -0.06    1.42
  -1  -5  -3    1.25    1.36
   0  -6  -3    1.20    1.44
   1  -7  -2    0.19    1.75
   1  -5  -5    0.44    1.22
   4  -6  -6    0.72    1.57
   5  -3  -8    4.69    1.17
   6  -2  -8   38.60    1.34
   7  -3  -9   55.76    1.80
   8  -2  -9   14.02    1.03
   9  -3 -10    9.22    1.35
  12  -4 -11    1.62    1.43
  13  -5 -11   -0.25    1.74
  15  -5 -11    0.32    1.69
  -7  -3   5    2.86    0.80
  -3  -3  -1  331.34    2.90
   1  -3  -5    3.74    1.07
   3  -5  -6   13.38    1.62
   5  -1  -6   -0.09    0.56
   6  -6  -7    0.88    1.86
   8  -6  -8    0.62    1.81
   9  -1  -8    2.10    0.88
  10  -4 -10    0.48    1.42
  11  -5 -10    3.86    1.72
  14  -4 -11    1.05    1.46
  -5  -3   2   29.76    1.14
  -2  -6   0   -0.80    1.40
  -2  -4  -2   16.83    1.23
  -1  -7   1   -0.25    1.58
  -1  -3  -3    6.57    1.04
   0  -6  -2    0.32    1.47
   0  -4  -4    7.09    1.02
   1  -7  -1    0.98    1.71
   2  -2  -5  372.29    2.78
   3  -7  -3    1.28    1.61
   4  -4  -7    6.05    1.52
   5  -5  -7    1.63    1.40
   6  -4  -8    7.12    1.56
   7  -5  -8    9.38    1.55
   7  -1  -7   14.21    0.81
  12  -6  -9    1.24    1.96
  13  -5 -10    0.45    1.88
  -4  -6   3   -0.33    1.21
  -2  -2  -1   38.67    0.94
   3  -3  -6   82.59    1.88
   6  -6  -6    1.35    1.55
   8  -6  -7    1.25    1.55
  12  -4 -10    0.49    1.45
  15  -5 -10    1.75    1.44
  -4  -4   1    9.53    1.11
  -2  -6   1    1.20    1.38
   0  -6  -1    1.14    1.60
   0  -2  -3    0.08    0.53
   1  -7   0   -0.28    1.74
   2  -4  -5  116.87    2.50
   3  -5  -5    3.48    1.37
   4  -2  -6    4.29    0.94
   5  -3  -7    4.08    1.11
   9  -3  -9    7.01    1.29
  10  -2  -9   57.35    1.49
  11  -5  -9    2.74    1.68
  12  -6  -8    2.24    1.74
  -3  -5   1    7.35    1.32
  -3  -3   0  158.49    2.06
  -2  -4  -1    6.59    1.18
   0  -4  -3   -0.05    1.25
   1  -5  -3   -0.08    1.42
   1  -3  -4    5.85    1.09
   4  -6  -4   -0.51    1.67
   4  -4  -6    0.52    1.36
   5  -7  -3    2.95    1.74
   5  -5  -6    0.08    1.39
   6  -2  -7    0.18    0.89
   7  -5  -7    0.55    1.52
   8  -2  -8   19.12    1.14
  10  -6  -7    4.58    1.90
  10  -4  -9   15.93    1.49
  13  -5  -9   -1.49    1.61
  13  -3 -10    3.16    1.27
  14  -4 -10    1.14    1.35
  -2  -6   2    1.21    1.26
  -1  -7   3   -0.84    1.36
  -1  -5  -1    0.55    1.45
   1  -7   1   -0.63    1.66
   6  -6  -5    3.64    1.94
   8  -6  -6   -0.38    1.86
  11  -1  -8   15.79    0.84
  15  -5  -9    3.15    1.83
  17  -5  -9   -2.72    1.72
  -6  -4   5   24.50    1.15
  -5  -3   3   89.27    1.54
  -4  -4   2   10.36    1.06
  -1  -7   4   -0.09    1.54
   0  -6   0   42.75    2.20
   3  -5  -4    6.88    1.40
   5  -7  -2   -0.60    1.74
  11  -5  -8    2.64    1.70
  11  -3  -9    3.22    1.27
  12  -4  -9    2.64    1.42
  12  -2  -9    7.54    1.05
  -3  -5   2    2.18    1.34
  -1  -5   0    1.69    1.50
   1  -7   2   -1.18    1.66
   2  -2  -4  232.32    2.22
   3  -7   0    6.71    1.66
   4  -6  -3   -0.94    1.59
   5  -5  -5   13.03    1.71
   7  -5  -6    2.56    1.50
   9  -5  -7    3.96    1.65
   9  -3  -8    1.52    1.20
  10  -6  -6    0.50    1.79
  10  -4  -8   28.69    1.72
  14  -4  -9    1.34    1.58
  -2  -6   3   -0.10    1.21
  -2  -4   0    1.12    0.97
  -1  -7   5   -0.51    1.63
   0  -4  -2   -0.31    0.88
   2  -6  -1    1.25    1.51
   3  -7   1    9.94    2.01
   4  -4  -5    8.75    1.40
   6  -4  -6    5.21    1.52
   9  -1  -7   60.82    1.25
  15  -5  -8   -0.04    1.80
  16  -4  -9   -0.63    1.72
  17  -5  -8    2.11    1.71
   0  -2  -2    0.99    0.70
   1  -7   3    0.57    1.65
   1  -3  -3    0.39    1.14
   3  -5  -3    6.38    1.39
   4  -2  -5   41.76    1.26
   7  -1  -6   47.01    1.07
   8  -2  -7    2.73    1.15
  10  -6  -5   -0.62    1.99
  11  -5  -7    0.03    1.64
  12  -4  -8    7.34    1.59
  -4  -4   3    0.31    0.91
  -3  -5   3    8.01    1.34
  -1  -5   1    0.99    1.33
   0  -6   2    0.62    1.31
   2  -6   0    0.42    1.63
   2  -4  -3    1.11    1.29
   3  -7   2    1.31    1.60
   6  -6  -3    0.17    1.65
   7  -5  -5   -0.30    1.49
   9  -5  -6   -0.48    1.55
  11  -3  -8    6.10    1.38
  14  -4  -8    1.50    1.47
  -5  -3   4  195.60    2.04
   3  -3  -4   25.62    1.39
   4  -6  -1    2.50    1.69
   4  -4  -4    4.43    1.36
   5  -7   1   -0.02    1.73
   9  -3  -7   21.66    1.46
  10  -6  -4   -1.05    1.72
  11  -5  -6   -0.31    1.66
  12  -2  -8   25.54    1.27
  15  -5  -7    0.17    1.69
  17  -5  -7   -0.44    1.72
  -3  -5   4    4.55    1.29
  -2  -6   5   22.77    1.72
   1  -7   5    4.60    1.74
   2  -6   1    1.00    1.58
   3  -5  -2    2.74    1.30
   6  -6  -2   -0.23    1.74
   9  -5  -5   10.12    1.81
   0  -6   3    0.35    1.38
   1  -5   0    0.95    1.47
   1  -3  -2   88.95    1.90
   2  -4  -2    4.05    1.23
   2  -2  -3    7.21    0.79
   5  -7   2    0.15    1.96
   5  -5  -3   18.52    1.49
   7  -5  -4    0.03    1.45
  10  -2  -7   49.21    1.43
  11  -1  -7   18.01    0.94
  13  -5  -6    0.41    1.68
  15  -5  -6   -1.42    2.02
  15  -3  -8    0.14    1.32
  17  -5  -6    2.69    1.79
  -3  -3   2   21.45    1.06
  -2  -6   6    3.03    1.31
   1  -7   6    3.75    1.72
   3  -7   4    0.26    1.84
   3  -5  -1    7.04    1.41
   6  -6  -1   -2.86    1.83
  11  -3  -7    8.98    1.42
  16  -4  -7   12.22    1.94
  -3  -5   5    3.00    1.19
  -2  -4   2    3.33    1.08
   0  -6   4    0.05    1.52
   1  -7   7    0.00    1.59
   2  -6   2    2.60    1.50
   3  -3  -3   39.58    1.43
   5  -7   3    3.23    2.03
   6  -4  -4   36.34    1.98
   7  -5  -3    0.16    1.41
   8  -4  -5    1.48    1.66
   8  -2  -6   10.92    1.12
   9  -5  -4   -0.38    1.68
  -2  -6   7    0.66    1.35
  -1  -5   3   -0.69    1.42
   1  -5   1    0.52    1.41
   3  -7   5   -0.70    1.60
   6  -6   0    0.60    1.69
   7  -3  -5    2.64    1.10
   8  -6  -1   -0.16    1.68
   9  -1  -6   12.27    0.95
  10  -6  -2    1.22    1.95
  12  -4  -6    1.00    1.44
  12  -2  -7   16.15    1.20
  13  -3  -7   46.45    2.11
  15  -5  -5    0.00    2.02
  17  -5  -5    0.04    1.84
  -5  -3   5   44.12    1.13
   1  -7   8    1.25    1.57
   2  -6   3    3.10    1.66
   2  -4  -1    1.55    1.20
   3  -7   6   -0.17    1.79
   3  -5   0   34.84    1.93
  10  -4  -5   -0.40    1.48
  14  -4  -6   -0.84    1.64
  15  -3  -7    0.98    1.46
  -3  -5   6   14.43    1.39
  -2  -4   3    0.56    1.13
   0  -4   1    3.57    1.19
   1  -5   2    0.80    1.44
   1  -3  -1    0.80    1.07
   4  -4  -2   10.54    1.39
   5  -5  -1    0.78    1.40
   6  -6   1   14.68    2.25
   7  -5  -2    1.62    1.64
   8  -6   0   -0.86    2.08
   8  -4  -4   16.87    1.92
   9  -5  -3    3.50    1.70
  11  -3  -6    6.22    1.43
  13  -5  -4    0.80    1.84
  14  -2  -7   18.27    1.22
  15  -5  -4    0.68    1.68
  17  -5  -4   -0.34    1.63
  -1  -5   4    1.10    1.28
   2  -6   4    1.89    1.60
   3  -7   7    0.00    1.73
   6  -4  -3    2.83    1.39
  10  -2  -6    1.71    0.93
  12  -4  -5    1.68    1.44
  -3  -5   7    1.50    1.24
   2  -2  -2   14.78    0.91
   3  -5   1   59.23    2.28
   3  -3  -2   20.47    1.34
   4  -6   3    1.25    1.83
   9  -5  -2   -0.21    1.56
   9  -3  -5   51.56    1.83
  14  -4  -5    0.18    1.66
  15  -3  -6    2.81    1.65
  16  -4  -5    2.43    1.72
  18  -4  -5    0.20    1.82
  -1  -5   5    0.04    1.44
   0  -6   7    5.30    1.55
   2  -6   5    1.85    1.68
   4  -2  -3    0.53    0.82
   5  -3  -3   94.47    2.03
   6  -6   2   14.70    1.94
   7  -5  -1    1.30    1.60
   7  -3  -4    1.25    1.07
   8  -6   1    1.06    1.79
   8  -2  -5    3.73    1.01
  11  -1  -6   15.11    0.78
  12  -6   0    0.96    2.04
  15  -5  -3    0.54    2.04
  17  -5  -3   -0.85    1.94
  -5  -3   6    1.23    0.77
   4  -4  -1    9.41    1.34
   6  -4  -2    0.87    1.43
   8  -4  -3  109.39    2.87
  11  -5  -2   30.72    2.42
  11  -3  -5    0.06    1.37
  -3  -5   8    0.68    1.27
   0  -6   8    0.19    1.48
   0  -2   0 1000.00    3.94
   2  -6   6    2.64    1.68
   6  -6   3   -0.45    1.60
   7  -5   0    2.04    1.53
   8  -6   2    3.58    1.72
  12  -6   1    1.14    1.97
  14  -4  -4   -0.74    1.69
  15  -5  -2    1.07    1.93
  17  -5  -2    1.18    1.95
  18  -4  -4    1.70    1.70
  -4  -4   7    6.62    1.00
  -1  -5   6    7.07    1.59
   0  -6   9    0.18    1.64
   1  -5   4    1.74    1.43
   2  -4   1    8.19    1.35
   4  -6   5    2.48    1.83
   9  -3  -4    1.23    1.19
  10  -6   2    0.94    2.03
  11  -5  -1    0.49    1.68
  15  -3  -5    2.06    1.50
  -2  -4   5  112.16    2.22
   0  -4   3    0.96    1.14
   2  -6   7   -0.18    1.56
   4  -4   0   -0.19    1.29
   5  -3  -2   28.61    1.49
   6  -4  -1    0.82    1.43
   7  -3  -3   -0.67    1.15
   8  -6   3    1.20    1.73
   8  -4  -2    5.80    1.78
   9  -5   0   -0.53    1.62
   9  -1  -5  143.08    1.70
  12  -6   2   -0.43    2.12
  12  -4  -3    0.30    1.49
  15  -5  -1    1.87    2.08
  -1  -5   7   10.29    1.56
   0  -6  10    0.94    1.59
   1  -5   5   41.81    2.13
   2  -6   8    1.50    1.69
   4  -6   6    7.04    1.92
   8  -6   4    1.13    1.89
  10  -6   3    0.89    2.11
  11  -3  -4    0.86    1.41
  14  -4  -3   -0.06    1.63
  16  -4  -3    0.71    1.65
  -5  -3   7    4.03    0.76
  -4  -4   8   18.46    1.23
   2  -4   2   16.72    1.57
   2  -2  -1    9.21    0.68
   7  -1  -4    1.62    0.61
   8  -2  -4   43.65    1.41
  10  -4  -2    3.02    1.58
  11  -5   0    1.34    1.74
  13  -3  -4    2.62    1.56
  17  -5   0    2.46    1.76
  17  -3  -4   -0.58    1.64
   0  -6  11    1.27    1.57
   1  -3   1    0.42    0.98
   2  -6   9    2.15    1.70
   3  -5   4    2.02    1.41
   4  -6   7   10.11    1.75
   6  -2  -3   13.69    1.07
   7  -5   2    0.82    1.43
   8  -6   5    2.40    1.93
   8  -4  -1    5.30    1.65
   9  -5   1   -1.06    1.72
  10  -6   4    0.57    1.74
  12  -4  -2    2.44    1.54
  14  -2  -5    1.72    1.22
  15  -5   0   -0.48    1.84
  -3  -3   5   20.43    1.13
  -2  -4   6    9.33    1.15
  -1  -5   8    3.15    1.37
  -1  -3   3   -0.08    0.94
   0  -4   4    8.32    1.25
   1  -5   6   22.93    1.73
   6  -4   0    2.51    1.05
   7  -3  -2   11.53    1.30
  10  -6   5    1.60    1.81
  11  -1  -5    0.22    0.68
  14  -4  -2   34.01    2.20
  16  -4  -2    0.69    1.54
  17  -5   1   -2.05    1.71
   2  -6  10    2.06    1.72
   6  -6   7    0.89    1.89
   8  -6   6    0.11    2.04
   9  -5   2   26.92    2.17
  10  -4  -1    2.84    1.53
  10  -2  -4    0.35    1.04
  11  -3  -3   47.26    2.05
  15  -5   1    0.66    2.05
  18  -4  -1    0.69    1.87
  -4  -4   9    5.47    1.01
  -1  -5   9    2.71    1.36
   0  -2   1    7.64    0.53
   1  -5   7   10.98    1.59
   2  -6  11    5.01    1.80
   4  -6   9    4.77    1.91
   5  -5   4    0.29    1.52
   6  -6   8    2.33    1.92
   8  -6   7   -0.90    1.74
   8  -4   0    1.38    1.73
  10  -6   6    1.78    2.01
  11  -5   2   -0.87    1.79
  12  -4  -1   -0.65    1.54
  13  -3  -3    1.90    1.48
  13  -1  -5   -0.07    0.70
  14  -4  -1   12.11    1.76
  15  -3  -3    2.52    1.55
  16  -4  -1   -1.22    1.81
  20  -4   0    6.00    1.88
  -5  -3   8    4.37    0.75
  -2  -4   7    0.16    1.08
   1  -3   2    0.70    1.01
   2  -6  12    7.75    1.75
   3  -5   6    8.34    1.57
   4  -6  10   -0.25    1.67
   6  -4   1   86.26    2.49
   8  -2  -3  372.85    3.29
  12  -2  -4   23.28    1.48
  13  -5   2   -1.11    1.98
  14  -2  -4    1.47    1.33
  -1  -5  10   10.03    1.57
   6  -6   9    0.85    1.91
   7  -3  -1    8.72    1.36
   9  -1  -4   -0.05    0.71
  10  -4   0   11.48    1.73
  11  -5   3    0.10    1.89
  18  -4   0    0.41    1.76
  20  -4   1    1.92    1.77
  -3  -3   6   82.99    1.62
  -1  -3   4    5.55    0.98
   3  -3   1  322.04    3.28
   4  -6  11    0.36    1.84
   4  -2  -1   48.06    1.31
   6  -6  10    0.62    1.87
  13  -3  -2   -0.08    1.37
  14  -4   0    0.38    1.77
  15  -3  -2    2.37    1.65
  16  -4   0    1.65    1.57
  -2  -4   8   19.53    1.38
  -1  -5  11   23.81    1.71
   0  -4   6   -0.15    1.20
   1  -5   9    2.70    1.39
   2  -6  14    1.39    1.43
   4  -6  12    0.81    1.69
   4  -4   3    2.16    1.25
   6  -4   2   77.58    2.47
  10  -4   1    0.43    1.36
  10  -2  -3    3.87    1.16
  11  -5   4    3.38    1.87
  18  -4   1   -0.08    1.85
  -8   0 -14    1.68    0.99
  -8   0 -13  122.99    2.12
  -8   0  -8   43.97    1.07
  -6   0 -19   -1.97    1.08
  -4   0 -22    0.07    1.46
  -2   0 -24    4.24    1.75
   0   0 -25    1.51    1.43
   2   0 -26    0.01    1.70
  12   0 -24    0.77    1.43
  14   0 -22    0.06    1.31
  -8   0 -12    0.12    0.80
  -8   0 -11   13.32    0.84
  -8   0 -10    1.89    0.66
  -8   0  -9   39.77    0.96
  -2   0 -23    0.70    1.54
   4   0 -26    4.20    1.66
   6   0 -26    1.36    1.50
   8   0 -26   -1.62    1.52
  10   0 -25    5.58    1.59
  12   0 -23    0.37    1.28
  14   0 -21   -0.35    1.37
  14   0 -20    2.34    1.33
  -6   0 -17   20.28    1.53
  -4   0 -20    1.77    1.25
  -2   0 -22    4.63    1.43
   4   0 -25    2.42    1.63
   8   0 -25   -0.16    1.42
  12   0 -22    0.93    1.40
  14   0 -19   -0.29    1.10
  -6   0 -16    1.10    1.09
  -5  -1 -25    3.40    1.32
  -4   0 -19    0.99    1.12
  -2   0 -21   -1.42    1.47
   2   0 -24    2.63    1.56
   6   0 -24   -0.26    1.59
   8   0 -24    1.68    1.68
  10   0 -23    6.34    1.66
  12   0 -21    0.50    1.42
  14   0 -17    9.03    1.16
  14   0 -16    0.22    1.16
  -6   0 -15    0.79    1.02
  -4   0 -18    2.94    1.33
   2   0 -23    0.05    1.41
   4   0 -23   -1.05    1.39
   8   0 -23    1.16    1.52
  10   0 -22   -0.37    1.37
  14   0 -15    0.40    1.08
  -6   0 -14    0.61    0.99
  -5  -1 -24   -0.92    1.41
  -2   0 -20    2.44    1.24
   2   0 -22    6.15    1.63
  10   0 -21    3.02    1.35
  12   0 -19    6.02    1.26
  12   0 -18    0.74    1.13
  15  -1 -24   -0.04    1.23
  -6   0 -13    9.12    1.00
  -6   0 -12   34.02    1.18
  -5  -1 -23    2.57    1.25
  -4   0 -17    2.60    1.14
  -3  -1 -25    1.49    1.54
  -2   0 -19   15.16    1.41
   0   0 -20   -0.31    1.24
   2   0 -21    3.62    1.36
   4   0 -22    4.77    1.41
   6   0 -22    6.36    1.49
  10   0 -20    1.78    1.15
  12   0 -17   -0.73    1.08
  12   0  -8   42.94    1.00
  -6   0 -11    0.53    0.72
  -6   0 -10   18.94    0.90
  -6   0  -9    4.83    0.79
  -6   0  -8  104.14    1.39
  -6   0  -7   77.97    1.15
  -4   0 -16   21.11    1.36
  -3  -1 -24   -0.13    1.47
  -2   0 -18   21.87    1.55
   0   0 -19    1.03    1.12
   2   0 -20   22.97    1.54
   4   0 -21    9.47    1.42
   6   0 -21    3.29    1.27
  12   0 -16    0.70    1.11
  12   0 -15    6.99    1.09
  12   0  -9   13.91    0.84
  15  -1 -23   -0.09    1.17
  -7  -1 -20    9.98    1.27
  -4   0 -15   11.49    1.12
  -2   0 -17   44.52    1.79
  -1  -1 -25    0.00    1.33
   6   0 -20   14.36    1.43
  10   0 -18    0.25    0.98
  10   0 -17   -0.04    1.09
  11  -1 -25    1.58    1.39
  12   0 -14   14.13    1.16
  12   0 -11    6.62    0.81
  12   0 -10   -0.54    0.63
  13  -1 -24    1.19    1.35
  15  -1 -22    0.97    1.26
  -7  -1 -19    4.65    1.15
  -5  -1 -21   -0.01    1.32
  -4   0 -14   37.76    1.38
  -4   0 -13    2.06    0.98
  -3  -1 -23    1.08    1.49
  -2   0 -16    4.73    1.18
  -1  -1 -24    3.76    1.70
   0   0 -18   -1.05    1.18
   2   0 -19    1.23    1.11
   6   0 -19   -0.58    1.20
  10   0 -16   16.52    1.35
  13  -1 -23    2.48    1.25
  15  -1 -21    0.92    1.14
  -4   0 -12    5.96    0.90
  -3  -1 -22    8.95    1.46
  -2   0 -15    4.37    1.19
   0   0 -17    6.86    1.31
   2   0 -18   -1.84    1.34
   3  -1 -25    0.49    1.41
   4   0 -18    5.49    1.28
   5  -1 -25    0.34    1.62
   6   0 -18    0.93    1.16
   7  -1 -25    1.31    1.61
  10   0 -15   15.31    1.28
  13  -1 -22    4.13    1.42
  15  -1 -20    6.55    1.36
  -7  -1 -18    0.44    1.09
  -5  -1 -20    3.02    1.32
   2   0 -17   -0.20    1.33
   4   0 -17   49.60    1.93
   6   0 -17    0.78    1.26
   7  -1 -24    0.87    1.39
   8   0 -16    0.64    1.11
  10   0 -14   13.30    1.18
  10   0 -13   -0.08    0.98
  10   0  -7   69.13    1.16
  11  -1 -23    1.32    1.42
  13  -1 -21    0.45    1.32
  -7  -1 -17    2.97    1.25
  -4   0 -10    5.17    0.83
  -3  -1 -21    0.51    1.38
  -1  -1 -22    1.22    1.39
   0   0 -15    5.39    1.20
   1  -1 -23    5.76    1.52
   2   0 -16    0.28    1.20
   4   0 -16    6.70    1.26
   5  -1 -24    1.64    1.31
  10   0 -12   18.27    1.05
  10   0 -10    1.04    0.72
  10   0  -9   78.73    1.37
  10   0  -8  109.09    1.37
  11  -1 -22    1.23    1.39
  -6  -2 -23    1.29    1.31
  -4   0  -9  107.40    1.51
  -4   0  -8   88.40    1.33
   2   0 -15    2.40    1.11
   8   0 -14    1.88    1.06
  11  -1 -21    1.57    1.41
  13  -1 -20    0.99    1.17
  -5  -1 -18   12.51    1.32
  -4  -2 -24    0.04    1.25
  -3  -1 -20    1.39    1.18
  -2  -2 -25    3.03    1.51
  -1  -1 -21    9.89    1.58
   0   0 -13   10.13    1.09
   1  -1 -22    1.82    1.35
   2   0 -14    6.67    1.12
   3  -1 -22    4.24    1.38
   4   0 -15    3.69    0.90
   6   0 -14   28.20    1.32
   7  -1 -22    4.95    1.48
   8   0 -13    0.95    0.84
   8   0 -12   21.73    1.15
  13  -1 -19   -0.66    1.18
  -6  -2 -22    0.96    1.27
  -3  -1 -19    0.58    1.22
   0  -2 -25    0.20    1.48
   1  -1 -21    0.32    1.45
   2   0 -13   74.27    1.74
   4   0 -14    2.46    0.98
   5  -1 -22   -0.58    1.40
   8   0 -11    4.59    0.95
   9  -1 -21   11.97    1.65
  11  -1 -20    0.52    1.28
  14  -2 -23    1.25    1.29
  -6  -2 -21    5.61    1.48
  -5  -1 -17    3.83    1.31
  -2  -2 -24    2.30    1.41
   0   0 -12   66.29    1.43
   2  -2 -25    1.81    1.60
   3  -1 -21    4.68    1.53
   4   0 -13    0.83    0.90
   5  -1 -21    3.18    1.50
   6   0 -12   11.88    1.09
   7  -1 -21    1.21    1.38
   8   0 -10   59.04    1.39
   8   0  -9   16.07    0.94
   8   0  -8   40.18    1.18
   8   0  -6    9.35    0.69
   9  -1 -20    0.22    1.20
  11  -1 -19    8.06    1.41
  12  -2 -24    0.33    1.42
  13  -1 -17    0.02    1.16
  -7  -1 -14    0.18    1.14
  -4  -2 -22   -0.59    1.32
  -3  -1 -18    2.46    1.22
  -2   0  -8   41.94    1.04
   0  -2 -24   -1.14    1.64
   0   0 -11   63.00    1.49
   1  -1 -20   -0.57    1.34
   4   0 -12   37.86    1.39
   6  -2 -25    0.22    1.54
  10  -2 -24   -0.02    1.36
  12  -2 -23    0.95    1.44
  14  -2 -22    0.20    1.36
  -6  -2 -20    1.02    1.45
  -5  -1 -16    6.96    1.37
  -2  -2 -23   -0.11    1.47
  -2   0  -7    0.29    0.58
   0   0 -10    0.35    0.89
   2  -2 -24   -0.18    1.81
   2   0 -11    9.29    1.12
   3  -1 -20    4.18    1.35
   8  -2 -24   -0.19    1.48
   9  -1 -19   10.96    1.54
  11  -1 -18   17.96    1.45
  14  -2 -21   -0.06    1.36
  -7  -1 -13   -0.36    0.97
  -2  -2 -22    0.68    1.64
   0  -2 -23    4.93    1.78
   2   0 -10   35.77    1.21
   3  -1 -19    3.66    1.40
   4   0 -10  334.73    2.75
   5  -1 -19   10.58    1.41
   6  -2 -24   -0.93    1.64
   7  -1 -19   -0.93    1.32
   9  -1 -18    2.52    1.18
  10  -2 -23    5.15    1.65
  11  -1 -17    1.92    1.21
  12  -2 -22    1.59    1.47
  -6  -2 -19   -1.51    1.28
   4   0  -9   14.84    0.95
  11  -1 -16   -0.50    1.29
  13  -1 -14   -0.17    1.00
  14  -2 -20    0.62    1.30
  -7  -1 -12    4.83    0.93
  -5  -3 -23    1.61    1.42
  -4  -2 -20    0.53    1.20
  -2  -2 -21   -0.08    1.30
   0   0  -7  221.82    1.76
   2   0  -8  113.34    1.46
   3  -1 -18    0.49    1.15
   4  -2 -23   -1.42    1.43
   4   0  -8  124.86    1.55
   5  -1 -18    0.99    1.22
   6  -2 -23    0.02    1.41
   7  -1 -18    3.01    1.20
   9  -1 -17    3.61    1.33
  10  -2 -22    0.33    1.56
  12  -2 -21    0.37    1.59
  13  -1 -13    0.03    0.89
  14  -2 -19   -0.03    1.36
  -9  -1  -8    0.72    0.69
   1  -1 -17    0.62    1.48
   2  -2 -22    6.39    1.56
   4   0  -7   58.81    1.07
   7  -1 -17   17.56    1.57
   8  -2 -22   -0.54    1.64
   9  -1 -16   12.21    1.38
  10  -2 -21   -0.57    1.34
  11  -1 -15    0.56    1.12
  12  -2 -20   10.27    1.36
  13  -1 -12    9.05    1.06
  -7  -1 -11   -0.21    0.74
  -5  -3 -22    0.77    1.36
  -4  -2 -19    0.99    1.18
  -3  -3 -23    0.70    1.43
  -2  -2 -20   -0.40    1.35
   3  -1 -17    1.64    1.35
  11  -1 -14    0.92    1.14
  14  -2 -18   10.67    1.29
  -9  -1  -7   47.58    0.89
  -3  -1 -14    6.98    0.99
   1  -1 -16   15.24    1.27
   2  -2 -21    4.04    1.41
   4  -2 -21    7.11    1.37
   6  -2 -21    2.17    1.39
   7  -1 -16   21.53    1.51
   8  -2 -21   -0.46    1.26
   9  -1 -15    3.38    1.19
  12  -2 -19    4.05    1.19
  15  -3 -21   -0.87    1.21
  -8  -2 -15    0.57    1.05
  -7  -1 -10   15.36    0.76
  -5  -3 -21   -0.05    1.24
  -5  -1 -12   97.58    1.66
  -3  -3 -22    5.35    1.30
  -1  -3 -23    3.09    1.43
   5  -1 -16    1.15    1.00
  11  -1 -13    8.69    1.03
  13  -3 -22    2.67    1.13
  13  -1 -10    8.90    0.74
  14  -2 -17    6.50    1.07
  -4  -2 -18   -0.01    0.96
  -2  -2 -19    9.31    1.23
   1  -1 -15    0.15    0.87
   4  -2 -20    0.56    1.08
   5  -1 -15    1.26    0.91
   6  -2 -20    7.53    1.21
  10  -2 -19   -0.43    1.05
  12  -2 -18   -0.02    0.98
  14  -2 -16   -0.05    0.82
   6   4 -16    0.82    0.94
   8   4 -18    3.46    1.13
   9   3 -11    0.23    0.94
  10   4 -21    0.00    1.08
  10   4 -20   -0.18    1.04
  12   2  -9    9.03    0.96
  13   3 -15   12.34    1.25
  14   2 -11    1.56    0.89
  15   3 -18   -0.17    1.10
  -1   3  -9   12.12    0.65
   1   3  -9    7.66    0.73
   3   3  -9    6.67    0.67
   4   4 -16    1.89    0.81
   6   2  -6   24.65    0.97
   6   4 -17    0.34    0.86
   8   0  -2   31.48    0.64
   8   4 -19    3.99    1.10
   9   3 -12    4.05    0.93
  10   0  -3    2.83    0.53
  13   1  -7   89.90    1.52
  13   3 -16   -0.65    0.98
  15   1  -9   10.04    0.97
  15   3 -19    1.54    1.15
  16   2 -14    5.37    1.04
  17   1 -11   -0.02    0.82
  19   1 -14    1.31    1.03
   4   4 -17   10.89    0.98
   5   1  -3  229.05    1.45
   5   3 -10    3.75    0.81
   6   4 -19    0.89    1.00
   6   4 -18    0.39    0.95
   8   2  -7    1.80    0.73
   8   4 -21    0.13    1.03
   8   4 -20    5.37    1.14
  11   3 -14    0.07    0.96
  12   2 -10    0.02    1.00
  14   0  -6    0.89    0.61
  14   2 -12   -0.42    0.92
  16   0  -8    0.05    0.74
  18   0 -10    7.77    0.84
  20   0 -13   -0.25    0.94
   0   2  -5  103.78    1.02
   3   3 -10   14.66    0.93
   4   4 -18    2.84    0.83
   6   4 -20    3.80    0.98
   8   4 -22   -0.83    0.97
   9   1  -5  140.37    1.55
   9   3 -13    9.33    1.00
  11   3 -15   -0.73    1.02
  13   3 -18    1.30    0.97
  13   3 -17    1.37    0.99
  17   1 -12    1.09    0.88
  19   1 -15    0.33    0.92
   1   3 -10   31.01    0.99
   4   2  -6    4.01    0.67
   6   4 -22    2.31    0.93
   6   4 -21    0.09    1.01
   7   1  -4    1.59    0.60
  10   2  -9   58.35    1.46
  11   3 -16    0.52    0.94
  12   2 -11    5.72    1.10
  13  -1  -4    5.20    0.48
  13   1  -8   37.62    1.19
  13   3 -19    0.40    1.18
  15   1 -10   10.88    0.97
  16   2 -16    1.14    1.08
  17   1 -13    0.92    0.81
  18   0 -11    5.18    0.86
  19   1 -16    0.32    1.06
  20   0 -14    1.14    0.86
  -1   3 -10   20.86    0.73
   6   2  -7    0.06    0.77
   8   2  -8   18.96    0.99
   9   3 -14   38.98    1.46
  11   3 -17    0.63    1.00
  12   0  -5    8.06    0.64
  13   3 -21    0.10    1.08
  13   3 -20    0.18    1.17
  14   2 -14    3.20    0.97
  16   2 -17   -0.37    1.09
  19   1 -17   -0.40    0.96
  20   0 -15    1.33    0.89
   3   3 -11    1.39    0.73
   5   3 -12   15.90    0.99
   7   3 -13   -0.74    1.03
  10   2 -10    2.07    0.85
  11   3 -18    9.60    1.15
  12   2 -12    5.01    0.91
  13   1  -9    0.33    0.82
  15   1 -11    1.16    0.89
  16   2 -18    0.62    1.14
  17   1 -14    0.28    0.97
  18   0 -12   23.13    1.13
  19   1 -18   -0.06    1.05
   1   3 -11  111.41    1.54
   8   2  -9   13.69    0.90
  14   2 -15    0.72    0.92
  16   2 -20   -0.65    1.06
  16   2 -19   -1.08    1.18
  17   1 -15    2.33    0.94
  19   1 -19   -0.19    1.07
  20   0 -16    4.54    1.01
  -1   3 -11    0.42    0.50
   3   3 -12    9.01    0.87
   4   2  -7   27.50    0.87
   5   3 -13    3.15    0.88
  10   2 -11   13.95    1.12
  15   1 -12   35.18    1.28
  16   0 -10    1.04    0.79
  18   0 -13   -0.38    0.92
  20   0 -17    3.89    0.98
   0   2  -6    0.42    0.43
   1   3 -12    1.63    0.68
   7   1  -5    8.76    0.64
   7   3 -15    1.71    0.87
   8   0  -3  512.89    2.15
   9   3 -18   -0.62    1.07
  11   3 -22    0.37    1.01
  12   0  -6    0.73    0.58
  12   2 -14    8.07    1.09
  13  -1  -5   -0.32    0.50
  14   0  -8    5.54    0.76
  15  -1  -7    1.46    0.62
  15   1 -13   16.57    1.10
  17   1 -16    1.06    0.91
  20   0 -18    0.50    0.89
  -1   3 -12   -0.30    0.62
   8   2 -10   44.71    1.25
   9   3 -20   -0.74    1.14
   9   3 -19    7.07    1.10
  10   2 -12   10.45    1.04
  14   2 -19    0.64    0.94
  16   0 -11    3.44    0.87
  17   1 -17   11.29    1.12
  18   0 -14    0.51    0.76
  20   0 -19   -0.31    0.91
   1   3 -13   13.07    0.88
   2   2  -7    4.56    0.62
   3   3 -14   -0.03    0.87
   5   3 -15    0.15    0.92
   6   2  -9   19.40    0.91
   7   3 -18    2.33    0.98
   7   3 -17    8.91    1.06
   9   1  -7   64.52    1.22
   9   3 -23    0.59    1.07
   9   3 -22   -0.66    1.04
   9   3 -21    4.55    1.20
  12   2 -15    4.24    0.94
  14   2 -20    0.60    1.15
  17   1 -19    0.44    1.01
  17   1 -18    0.91    0.96
  18   0 -15    0.49    0.91
  -1   3 -13   24.12    0.93
   4   2  -8   70.09    1.19
   5   3 -16    0.16    0.79
   7   3 -19    0.41    0.90
   8   2 -11    2.25    0.85
  10   2 -13   -0.41    0.96
  11   1  -9   12.39    0.82
  12   2 -16   -0.36    0.87
  14   0  -9   10.70    0.86
  14   2 -22    1.63    1.11
  14   2 -21    0.17    1.01
  18   0 -16    1.50    0.92
   1   3 -14    1.98    0.71
   5   3 -17    0.26    0.82
   7   1  -6   48.35    0.98
   7   3 -24   -0.17    0.98
   7   3 -23    4.81    0.95
   7   3 -22    3.17    1.10
   7   3 -21    0.30    1.05
   7   3 -20   -0.10    0.85
  10   2 -14    9.73    1.01
  12   0  -7   29.97    0.88
  12   2 -18    1.74    0.92
  12   2 -17    1.39    0.90
  15  -1  -8    2.45    0.58
  18   0 -17    1.89    1.01
   0   2  -7  130.42    1.19
   1   3 -15   -0.24    0.73
   6   2 -10    0.63    0.70
   8   2 -12   17.04    1.02
   9   1  -8    2.62    0.66
  10   2 -15   11.54    0.98
  11  -1  -4   -0.17    0.47
  11   1 -10   19.97    1.04
  12   2 -19    3.91    1.16
  13  -1  -6   10.19    0.58
  13   1 -13    1.50    0.81
  14   0 -10    2.94    0.76
  18   0 -18    0.51    1.04
   1   3 -16    6.36    0.84
   3   3 -17    0.85    0.79
   5   1  -5   93.31    1.00
   5   3 -24   -1.14    0.89
   5   3 -23    1.00    0.99
   5   3 -22   -0.39    1.00
   5   3 -21    0.66    1.01
   5   3 -20    8.31    0.97
   8   2 -13    1.65    0.78
  10   2 -16   12.48    1.01
  12   2 -23    0.21    1.00
  12   2 -20   10.74    1.15
  15   1 -18    2.15    1.02
  17  -1 -12   -0.18    0.72
  18   0 -20    0.56    0.98
  18   0 -19    2.25    1.01
   1   3 -17    0.82    0.81
   3   3 -20    1.70    0.83
   3   3 -19    0.58    0.77
   3   3 -18    0.77    0.72
  10   0  -6    0.96    0.59
  10   2 -17   -0.65    0.92
  11   1 -11    1.17    0.78
  12   0  -8   41.80    1.02
  13   1 -14    1.21    0.79
  14   0 -11    3.35    0.82
  15  -1  -9    9.60    0.69
  15   1 -20    5.63    1.16
  15   1 -19    0.60    1.10
  19  -1 -18    0.05    0.88
  19  -1 -17   -0.87    0.84
   1   3 -18   32.02    1.15
   3   3 -22    0.96    0.89
   3   3 -21    0.91    0.94
   7   1  -7   14.49    0.74
   8   2 -14    0.87    0.98
   9   1  -9   14.61    0.86
  10   2 -19    0.17    0.89
  10   2 -18    1.80    0.92
  13   1 -15   24.65    1.20
  15   1 -22   -0.16    1.05
  15   1 -21   -0.22    0.98
  16   0 -15    3.50    0.85
  17  -1 -13    0.43    0.74
  19  -1 -19   -0.25    0.71
   0   2  -8    0.69    0.47
   2   2  -9   28.12    0.83
   8   2 -15    2.63    0.92
  10   2 -22   -0.64    1.05
  10   2 -21   -0.44    1.05
  10   2 -20    0.51    1.05
  11   1 -12    9.38    0.90
  13   1 -16    0.22    0.87
  14   0 -12   -0.60    0.85
  16   0 -16   -0.35    0.81
  17  -1 -14    0.41    0.74
  19  -1 -20    1.83    0.85
   5   1  -6    0.01    0.51
   6   2 -13    5.92    0.80
   8   2 -16    0.45    0.78
   9   1 -10   20.53    0.94
  11  -1  -5    0.54    0.45
  11   1 -13    8.89    1.00
  13   1 -18   -0.43    0.89
  13   1 -17   -0.08    0.89
  16   0 -18    2.12    0.85
  16   0 -17   -0.52    0.86
   7   1  -8   89.50    1.28
   8   2 -17   -0.56    0.84
  10   0  -7   68.46    1.13
  13   1 -20   -0.16    0.95
  13   1 -19    0.35    1.03
  14   0 -13    3.48    0.87
  15  -1 -11    0.39    0.74
  16   0 -20   -1.20    0.96
  16   0 -19   -0.25    1.01
  17  -1 -15    3.03    0.77
  -2   2  -8   30.70    0.62
   2   2 -10   19.98    0.77
   3   1  -5   53.87    0.70
   4   2 -12   28.04    0.94
   8   2 -25   -0.72    1.00
   8   2 -24    1.46    1.02
   8   2 -23    0.16    0.99
   8   2 -22    0.88    0.92
   8   2 -21    1.09    0.90
  11   1 -14    1.09    0.87
  12   0 -10    0.11    0.68
  13   1 -23    1.10    1.08
  13   1 -22    3.16    1.17
  13   1 -21    0.78    1.00
  14   0 -14    3.93    0.81
  16   0 -22    2.72    1.02
  16   0 -21    2.93    1.00
  17  -1 -16    0.80    0.80
   0   2  -9   10.29    0.62
  11   1 -15    1.16    0.75
  14   0 -15    1.91    0.80
  17  -1 -18    0.72    0.81
  17  -1 -17   11.24    1.00
   2   2 -11    4.38    0.65
   4   2 -13    0.28    0.65
   5   1  -7   17.92    0.68
   6   2 -25    0.03    0.97
   6   2 -17    0.55    0.80
   7   1  -9  110.72    1.45
   9   1 -12    5.90    0.87
  10   0  -8  106.32    1.35
  11   1 -17    0.98    0.81
  11   1 -16    0.14    0.73
  12   0 -11    6.92    0.77
  14   0 -16    0.70    0.83
  17  -1 -19    0.44    0.88
   0   2 -10    1.59    0.59
   4   2 -14    1.81    0.68
   6   2 -24   -0.67    0.99
   6   2 -23    1.01    0.99
   6   2 -22    6.28    0.99
   6   2 -21    1.95    0.91
   6   2 -20    7.70    0.96
   6   2 -19   -0.18    0.84
   6   2 -18    0.73    0.75
   9   1 -13   14.90    0.92
  11  -1  -6   14.17    0.56
  11   1 -24    1.61    1.08
  11   1 -20    1.06    0.87
  11   1 -19    8.32    1.03
  11   1 -18   18.12    1.13
  12   0 -12    7.64    0.81
  13  -1  -9    0.68    0.57
  14   0 -17    8.80    0.95
  15  -1 -13   15.54    0.89
  17  -1 -21    0.22    0.77
  -2   2  -9   17.89    0.56
   2   2 -12    9.68    0.66
   4   2 -26    1.18    0.83
   4   2 -15    3.60    0.77
   6   0  -4  253.76    1.32
   7   1 -10  139.01    1.58
   9   1 -14   84.48    1.59
  11   1 -23   -0.55    0.89
  11   1 -22   -0.61    0.90
  11   1 -21    3.17    0.94
  14   0 -22    0.44    1.03
  15  -1 -14    3.16    0.72
   2   2 -13   42.58    1.02
   3   1  -6  212.89    1.34
   4   2 -25    0.25    0.75
   4   2 -24    3.87    0.91
   4   2 -17   32.71    1.17
   4   2 -16    3.22    0.85
   5   1  -8    7.44    0.60
   9  -1  -4   -0.14    0.35
   9   1 -15    4.29    0.85
  13  -1 -10    8.24    0.71
  -7   3 -14   -0.50    0.83
  -2   2 -12  137.44    2.37
  -1   1  -8   23.77    1.06
  -1   3 -15    0.92    1.18
   0   2 -12   44.14    1.62
   0   4 -17    3.79    1.69
   1   3 -15   -0.01    1.24
   2   2 -12    9.78    1.11
   2   4 -17   -1.60    1.58
   3   1  -7    8.38    0.79
   3   5 -18    0.39    1.65
   7   5 -17    1.56    1.79
   8   2  -9   14.10    1.02
   8   4 -15    0.99    1.45
  10   4 -14    2.78    1.42
  11   5 -15   -1.57    1.46
 -10   2 -10   -0.18    0.77
  -9   1  -6   55.09    1.11
  -8   2 -11   10.36    1.20
  -8   4 -16    0.31    0.88
  -7   1  -7   43.13    1.06
  -4   2 -12    3.83    0.99
  -4   4 -17    0.19    1.12
   3   3 -15   49.70    1.96
   4   4 -17   10.90    1.85
   5   5 -18    0.39    1.63
  11   3 -11    0.84    1.16
  -6   2 -12   18.82    1.34
  -6   4 -17    0.00    1.16
  -5   1  -8    4.86    0.82
   5   3 -15    0.11    1.27
   8   4 -16   -0.11    1.55
   9   3 -13    8.70    1.59
   9   5 -17    0.17    1.65
  10   4 -15    4.24    1.60
  11   5 -16   -0.07    1.33
  12   4 -13   16.52    1.38
  -9   3 -14    0.15    0.81
  -4   4 -18   -0.02    1.07
  -3   3 -16   11.52    1.59
  -2   2 -13    6.48    1.26
  -1   3 -16    1.08    1.33
   1   3 -16    5.59    1.53
   2   4 -18    1.24    1.59
   3   1  -8    6.66    0.85
   3   3 -16   13.66    1.58
   4   4 -18    2.80    1.57
   7   1  -5    8.20    0.68
  -8   4 -17    0.34    1.03
  -4   2 -13    1.06    1.16
  -1   1  -9   38.16    1.28
   7   3 -15    2.02    1.35
   8   4 -17    0.00    1.37
  11   3 -12    4.39    1.33
  11   5 -17    0.10    1.47
  -8   2 -12    1.17    1.06
  -7   1  -8  219.99    2.09
  -6   2 -13    5.02    1.24
  -6   4 -18    0.22    1.16
  -1   3 -17   -0.43    1.43
   0   4 -19    0.91    1.71
   1   1  -9   18.42    1.01
   1   3 -17    1.36    1.43
   2   4 -19    1.25    1.82
   5   3 -16    0.49    1.40
   8   2 -11    0.68    1.15
  10   4 -16    3.90    1.59
  -9   3 -15    0.56    0.81
  -8   4 -18    0.20    1.08
  -7   3 -16   -0.02    0.95
  -5   1  -9   21.50    1.08
  -4   4 -19   -0.54    1.22
   3   3 -17    0.04    1.43
   4   4 -19    1.08    1.91
  11   3 -13    4.85    1.39
  12   4 -15    0.47    1.47
  -6   4 -19    0.03    1.16
  -1   1 -10   65.17    1.56
   2   4 -20    4.74    1.87
   4   2 -14    1.91    1.27
   5   3 -17    0.77    1.48
   7   3 -16   10.70    1.52
   8   4 -18    4.08    1.56
   9   3 -15    2.86    1.39
  10   2 -10    0.80    0.97
  10   4 -17   -0.06    1.67
  -9   3 -16   -0.08    0.93
  -7   1  -9    1.04    0.83
  -6   2 -14    0.47    1.15
  -4   4 -20    1.20    1.13
  -3   3 -18    1.04    1.48
  -1   3 -18    1.59    1.56
   0   2 -15    6.02    1.48
   1   1 -10   62.83    1.41
   2   2 -15    1.00    1.35
   3   3 -18   -0.06    1.54
   4   4 -20    1.33    1.77
   8   2 -12   16.28    1.29
  11   3 -14   -0.17    1.33
  12   4 -16   -0.22    1.55
  -9   1  -8   -0.08    0.66
  -8   4 -19    0.50    1.04
  -5   1 -10   51.32    1.41
  -4   2 -15    7.53    1.43
   0   4 -21   -0.48    1.88
   3   1 -10   43.60    1.47
   5   1  -9  106.95    1.76
   5   3 -18    0.63    1.42
   7   1  -7   14.07    0.93
   8   4 -19    2.97    1.82
  -8   2 -14    0.93    1.22
  -6   4 -20   -0.35    1.02
  -1   1 -11   -0.29    1.08
  -1   3 -19    1.96    1.62
   0   2 -16   60.29    2.16
   1   1 -11  241.80    2.72
   1   3 -19    1.32    1.74
   2   4 -21    2.29    1.69
   4   2 -15    4.25    1.36
   8   2 -13    2.51    1.26
  11   3 -15   -0.22    1.29
  -9   3 -17   -0.18    1.10
  -7   3 -18   -0.50    1.06
  -6   2 -15   -0.62    1.39
  -3   3 -19    0.01    1.49
   3   3 -19    1.43    1.54
   6   4 -21    0.29    1.69
   8   4 -20    4.49    1.86
  10   4 -19    0.28    1.66
  12   2  -9    7.41    1.05
  -5   1 -11    0.64    0.92
  -4   2 -16   13.53    1.48
  -1   3 -20    4.13    1.51
   1   3 -20    0.50    1.54
   3   1 -11    3.73    1.11
   4   2 -16    2.54    1.64
   5   1 -10    8.04    1.13
   5   3 -19    3.35    1.60
   8   2 -14    0.75    1.30
  10   2 -12    9.34    1.29
  11   3 -16    0.80    1.29
  -8   2 -15   -0.11    1.16
  -7   3 -19    0.30    1.11
  -6   2 -16    1.81    1.31
  -3   1 -12    1.05    1.03
  -3   3 -20    0.22    1.75
   1   1 -12    2.52    1.10
   2   2 -17   -0.30    1.30
   3   3 -20    0.72    1.76
   8   4 -21    1.05    1.85
   9   3 -18   -1.06    1.50
  10   4 -20    0.75    1.61
  12   2 -10   -0.87    0.89
  -7   1 -11    0.56    0.86
  -5   3 -20   -0.02    1.25
  -4   2 -17    0.65    1.28
   1   3 -21   -1.01    1.94
   4   2 -17   31.93    1.77
   5   1 -11   13.49    1.26
   5   3 -20    8.94    1.70
   6   2 -16    4.75    1.53
  11   3 -17    0.71    1.43
  12   4 -19    0.42    1.61
  -8   2 -16   -0.42    1.21
  -6   2 -17   11.96    1.51
  -3   1 -13   12.37    1.21
  -3   3 -21    0.38    1.75
  -1   1 -13   52.38    1.66
   0   2 -18    0.18    1.38
   1   1 -13   34.17    1.54
   3   3 -21    0.17    1.81
   9   3 -19    5.73    1.68
  10   2 -14    8.45    1.42
  -7   3 -20   -0.13    1.09
  -5   3 -21   -0.06    1.19
  -4   2 -18    0.03    1.39
   3   1 -13   34.10    1.54
   4   2 -18    3.55    1.53
   5   3 -21   -0.13    1.86
   6   2 -17   -0.90    1.25
   8   2 -16    0.06    1.49
  11   3 -18    8.85    1.62
  12   4 -20    2.81    1.66
  13   3 -16    0.54    1.20
  -7   1 -12    4.83    0.97
  -5   1 -13   72.93    1.87
  -3   1 -14    5.61    1.23
  -3   3 -22    5.49    1.73
  -2   2 -19   10.09    1.56
  -1   1 -14   17.21    1.41
   0   2 -19    1.05    1.42
   1   1 -14    6.92    1.27
   1   3 -22   -0.95    1.56
   2   2 -19    1.61    1.46
   3   3 -22    3.11    1.83
   7   1 -11   56.06    1.59
   9   3 -20   -0.60    1.76
  10   2 -15   11.39    1.54
  -9   1 -11   15.02    1.00
  -8   2 -17    3.59    1.19
  -7   3 -21    0.44    1.16
  -6   2 -18   11.16    1.50
  -4   2 -19   -0.11    1.33
   3   1 -14    1.49    1.28
   4   2 -19    3.92    1.56
   5   1 -13    7.68    1.24
   5   3 -22    0.12    1.80
   8   2 -17    1.14    1.30
  11   3 -19    3.76    1.75
  13   3 -17   -0.13    1.35
  -7   1 -13   -0.58    1.05
  -5   1 -14   27.15    1.48
  -5   3 -22   -0.58    1.09
  -1   1 -15    5.77    1.28
   0   2 -20    0.11    1.49
   1   1 -15    1.59    1.22
   1   3 -23    3.36    1.66
   2   2 -20   16.28    1.74
   3   3 -23    0.81    1.92
   6   2 -19    1.73    1.37
   7   1 -12   -0.40    1.00
   9   1  -9   14.25    1.00
   9   3 -21    6.17    1.83
  10   2 -16   11.25    1.57
  -9   1 -12   11.37    1.00
  -8   2 -18    5.35    1.26
  -7   3 -22   -0.47    1.14
  -6   2 -19   -1.97    1.37
  -3   1 -15   -0.18    1.13
  -2   2 -20   -0.08    1.44
   3   1 -15  101.54    2.34
   4   2 -20    1.96    1.65
   5   1 -14   11.37    1.29
   5   3 -23    0.37    1.69
   8   2 -18    7.58    1.51
   9   1 -10   20.43    1.08
  11   3 -20    0.76    1.67
  12   2 -14    8.60    1.39
  13   3 -18   -0.23    1.42
  -7   1 -14    0.28    1.06
  -5   1 -15    6.73    1.31
  -4   2 -20    0.12    1.40
  -1   1 -16    1.05    1.43
   0   2 -21    2.53    1.62
   1   1 -16   14.10    1.58
   5   1 -15    2.31    1.20
   6   2 -20    6.56    1.69
   7   1 -13    1.12    1.03
   8   2 -19    8.76    1.57
   9   1 -11    1.45    1.02
   9   3 -22   -0.92    1.71
  10   2 -17    0.09    1.18
  11   3 -21   -0.14    1.76
  12   2 -15    4.94    1.34
  13   3 -19    0.42    1.49
  -9   1 -13    2.17    0.98
  -8   2 -19    0.46    1.33
  -3   1 -16   25.77    1.61
  -2   0  -6  104.85    1.17
  -2   2 -21   -0.20    1.35
   0   0  -6    0.06    0.50
   3   1 -16   25.38    1.68
   4   2 -21    7.22    1.67
  -5   1 -16    5.42    1.35
  -4   2 -21   13.08    1.68
  -3   1 -17   30.74    1.81
  -2   0  -7    0.52    0.61
  -1   1 -17    0.05    1.57
   0   0  -7  224.06    1.82
   2   2 -22    3.10    1.80
   3   1 -17    1.25    1.52
   5   1 -16   -0.23    1.40
   6   2 -21    0.61    1.74
   8   2 -20    8.02    1.77
   9   1 -12    5.43    1.13
   9   3 -23    1.31    1.59
  11   3 -22    0.64    1.65
  12   2 -16    0.83    1.24
  13   3 -20    0.04    1.52
  -9   1 -14    1.27    1.12
  -8   2 -20    7.43    1.34
  -6   2 -21    5.06    1.52
  -4   0  -7  162.19    1.62
  -2   0  -8   42.13    1.07
  -2   2 -22    2.86    1.48
   0   0  -8    0.10    0.79
   1   1 -18   62.63    2.09
   2   0  -6   52.19    0.92
   9   1 -13   14.04    1.34
  10   2 -19   -0.36    1.42
  12   2 -17    0.71    1.23
  13   3 -21    1.29    1.53
  -7   1 -16    2.25    1.25
  -5   1 -17    4.66    1.36
  -4   2 -22   -0.35    1.45
  -3   1 -18    2.15    1.28
  -2   2 -23   -0.55    1.79
   0   0  -9   25.90    1.06
   0   2 -23    2.77    1.79
   2   2 -23    1.81    1.70
   3   1 -18    0.04    1.26
   4   2 -23   -0.55    1.47
   5   1 -17    1.89    1.48
   6   2 -22    6.32    1.77
   8   2 -21   -0.05    1.45
   9   1 -14   82.43    2.11
  11   1  -9   12.73    0.99
  11   1  -8   14.60    0.79
  12   2 -18    1.54    1.37
  -6   2 -22    1.39    1.53
   1   1 -19    4.48    1.44
   5   1 -18    1.62    1.28
   6   2 -23    0.10    1.57
  13   3 -22    1.05    1.49
  -7   1 -17    1.56    1.29
  -5   1 -18   10.13    1.32
  -3   1 -19    1.01    1.27
  -2   2 -24    2.81    1.47
   2   2 -24    0.42    1.87
   3   1 -19    1.77    1.35
   4   2 -24    3.87    1.94
   9   1 -15    4.32    1.23
  11   1 -12    8.33    1.21
  11   1 -11    1.29    0.92
  -6   2 -23    1.21    1.49
  -5   1 -19   17.70    1.60
   0   0 -11   60.81    1.59
   1   1 -20    1.18    1.39
   2   0 -11   12.28    1.12
   2   0 -10   31.47    1.07
   3   1 -20    3.33    1.49
   4   0  -7   59.07    1.15
   5   1 -19   10.37    1.49
   6   2 -24   -1.19    1.87
   9   1 -16   13.68    1.52
  10   2 -22   -1.00    1.55
  11   1 -13    7.48    1.29
  12   2 -20   11.55    1.71
  -7   1 -18    0.18    1.20
  -6   0  -9    4.20    0.80
  -4   0 -11    3.33    1.04
  -3   1 -20   -0.03    1.37
   0   0 -12   64.12    1.68
   1   1 -21    0.96    1.43
   2   0 -12    9.07    1.12
   4   0  -9   13.00    1.02
   4   0  -8  121.87    1.52
   5   1 -20   14.23    1.66
   7   1 -19   -0.53    1.40
   9   1 -17    3.71    1.44
  11   1 -14    1.74    1.21
  -7   1 -19    3.75    1.30
  -6   0 -10   19.68    1.00
  -5   1 -20    3.30    1.44
  -4   0 -12    6.78    1.02
  -3   1 -21    1.57    1.54
   0   0 -13    9.78    1.22
   2   0 -13   71.62    1.78
   3   1 -21    5.65    1.56
   4   0 -11   23.56    1.32
   4   0 -10  321.18    2.81
  10   2 -23    3.86    1.80
  11   1 -15   -0.23    1.27
  12   2 -21    0.57    1.47
  -4   0 -13    1.70    0.99
  -1   1 -22    1.49    1.73
   0   0 -14    2.19    1.04
   1   1 -22    1.44    1.68
   2   0 -14    7.21    1.11
   3   1 -22    1.29    1.68
   5   1 -21    3.70    1.45
   7   1 -20    0.37    1.31
   9   1 -19   11.96    1.55
  10   2 -24    0.61    1.48
  11   1 -16   -0.89    1.36
  12   2 -22    0.78    1.52
  -8   0  -7    0.62    0.67
  -7   1 -20    7.47    1.33
  -6   0 -12   33.59    1.29
  -5   1 -21   -0.30    1.35
  -3   1 -22   10.16    1.67
   2   0 -15    0.74    1.16
   4   0 -13   -0.07    1.10
   5   1 -22    1.19    1.60
  12   2 -23   -0.41    1.38
  14   2 -20   -0.87    1.45
  -5   1 -22   -0.18    1.54
  -4   0 -14   39.07    1.54
  -1   1 -23    8.61    1.76
   0   0 -16   89.41    2.27
   1   1 -23    5.86    1.55
   3   1 -23    5.56    1.79
   4   0 -14    3.17    1.08
   5   1 -23    2.20    1.63
   6   0 -12   12.66    1.17
   7   1 -22    3.90    1.73
  14   2 -21   -0.43    1.44
  -8   0 -10    2.00    0.69
  -3   1 -23    0.12    1.77
  -2   0 -16    6.20    1.36
  -1   1 -24    4.29    1.84
   3   1 -24   -1.28    1.72
   4   0 -16    6.21    1.38
   6   0 -13    4.43    1.12
   6   0  -6   30.54    0.80
   9   1 -21   11.18    1.67
  11   1 -19    7.37    1.47
  13   1 -14    0.96    0.99
  13   1 -13    0.45    1.02
  14   2 -22   -0.30    1.58
  -7   1 -22    5.86    1.41
  -6   0 -14    0.20    1.04
  -4   0 -16   22.10    1.52
  -3   1 -24   -0.57    1.45
  -2   0 -17   46.06    1.92
   4   0 -17   50.27    1.93
   5   1 -24    1.40    1.66
   6   0 -15  122.98    2.45
   6   0 -14   26.55    1.37
   7   1 -23    7.05    1.63
   9   1 -22   -0.76    1.68
  11   1 -20    1.47    1.45
  13   1 -16    0.02    1.27
  13   1 -15   22.04    1.48
  14   2 -23    0.35    1.44
  -4   0 -17    1.97    1.28
  -2   0 -18   23.67    1.62
  -1   1 -25   -0.99    1.68
   0   0 -18    0.59    1.27
   2   0 -18   -0.90    1.38
   3   1 -25    1.75    1.74
   4   0 -18    4.72    1.39
   6   0 -16    5.87    1.40
   7   1 -24    0.85    1.71
  11   1 -21    2.35    1.39
  13   1 -17   -0.37    1.19
  -6   0 -16    1.14    1.14
  -5   1 -24   -0.87    1.49
  -4   0 -18    4.39    1.29
  -3   1 -25    0.14    1.56
  -2   0 -19   16.46    1.50
   2   0 -19   -0.38    1.32
   4   0 -19    5.30    1.31
   6   0 -17    1.62    1.39
   7   1 -25    0.64    1.66
   8   0 -13    2.33    1.02
   8   0 -10   58.09    1.54
   8   0  -9   16.39    1.00
  11   1 -22   -1.64    1.47
  13   1 -18    0.06    1.19
  -8   0 -14    1.12    1.02
  -4   0 -19    1.57    1.30
  -2   0 -20    1.09    1.53
   0   0 -20   -0.49    1.36
   4   0 -20    3.26    1.31
   6   0 -18    1.26    1.26
   8   0 -16    0.19    1.16
   8   0 -15    2.35    1.23
   8   0  -8   40.47    1.15
   9   1 -24   -0.41    1.59
  13   1 -20    1.81    1.46
  13   1 -19    0.44    1.21
  -8   0 -15    0.52    0.96
  -6   0 -18   16.03    1.43
   6   0 -19   -0.82    1.25
   8   0  -7    8.08    0.81
   9   1 -25    0.62    1.67
  13   1 -21   -0.27    1.56
  -8   0 -16   -0.40    1.09
  -6   0 -19   -1.10    1.07
  -4   0 -20    2.70    1.37
  -2   0 -21   -0.44    1.35
   2   0 -22    5.93    1.60
   4   0 -21    7.61    1.57
   6   0 -20   14.00    1.51
  11   1 -24    2.17    1.45
  13   1 -22    3.58    1.43
  -6   0 -20   -0.06    1.29
  -4   0 -21   21.04    1.71
  -2   0 -22    2.96    1.58
   2   0 -23   -0.89    1.49
   4   0 -22    5.85    1.56
   6   0 -21    2.17    1.47
   8   0  -6    9.74    0.67
  10   0 -15   16.00    1.40
  10   0 -13   -0.79    1.12
  10   0 -12   18.34    1.19
  10   0 -11   26.94    1.19
  13   1 -23    1.09    1.57
  -4   0 -22   -0.15    1.46
  -2   0 -23   -1.41    1.61
   2   0 -24    4.64    1.82
   4   0 -23    0.06    1.52
   6   0 -22    7.43    1.56
  10   0 -17    1.19    1.30
  13   1 -24    1.85    1.60
  -6   0 -21    5.95    1.47
  -4   0 -23    7.28    1.43
  -2   0 -24    3.47    1.49
   4   0 -24    5.99    1.80
   6   0 -23   -1.43    1.51
  10   0 -19   -0.13    1.35
  -6   0 -22    4.76    1.37
   0   0 -25    1.95    1.71
   2   0 -25    2.64    1.65
   4   0 -25    1.14    1.73
   8   0 -23   -0.71    1.73
  10   0 -21    2.79    1.44
  10   0 -20    0.22    1.28
  -6   0 -23    2.48    1.35
  -4   0 -24    0.22    1.34
  -2   0 -25    1.94    1.40
   6   0 -25   -0.73    1.56
   8   0 -24    2.22    1.80
  10   0 -22    0.13    1.58
  12   0 -16   -0.09    1.31
  12   0 -15    8.05    1.29
  12   0 -14   14.28    1.32
  12   0 -13   65.38    1.80
  -6   0 -24    1.01    1.40
  -4   0 -25    0.40    1.52
   1  -1 -15    1.59    1.10
   1  -1 -13   32.15    1.40
   8   0 -25   -1.58    1.74
  10   0 -23    6.32    1.82
  12   0 -20   12.86    1.57
  12   0 -19    4.91    1.45
  12   0 -18    0.74    1.09
  12   0 -12    7.63    1.02
  -3  -1 -14    7.66    1.24
  -3  -1 -13   12.24    1.07
  -1  -1 -12    1.55    1.02
   1  -1 -17    1.59    1.46
   1  -1 -16   15.04    1.43
   1  -1 -12    1.44    1.01
   3  -1 -17    1.30    1.44
   3  -1 -16   25.88    1.75
   3  -1 -15  102.36    2.30
   3  -1 -14    1.54    1.19
   3  -1 -13   33.89    1.50
   3  -1 -12   14.88    1.18
  10   0 -24   -0.61    1.53
  12   0 -11    7.61    0.88
  -3  -1 -17   33.55    1.73
  -3  -1 -16   24.46    1.58
  -3  -1 -15    0.35    1.21
  -3  -1 -12   -0.16    0.91
  -3  -1 -11   48.49    1.47
  -1  -1 -19    4.27    1.29
  -1  -1 -10   59.53    1.53
   1  -1 -18   63.58    2.04
   1  -1 -10   63.66    1.56
   3  -1 -19    2.65    1.36
   3  -1 -18    0.02    1.19
   3  -1 -11    5.04    1.14
   5  -1 -17    0.44    1.49
   5  -1 -16    1.28    1.36
   5  -1 -15    0.17    1.20
   5  -1 -14   11.59    1.33
  10   0 -25    5.93    1.61
  12   0 -23    0.12    1.63
  12   0 -22    0.09    1.33
  12   0 -10   -0.42    0.74
  -5  -1 -15    7.93    1.28
  -5  -1 -14   27.74    1.43
  -5  -1 -13   72.10    1.76
  -3  -1 -19    0.86    1.13
  -3  -1 -18    1.62    1.19
  -3  -1 -10   50.18    1.39
  -1  -1 -20   11.36    1.53
  -1  -1  -9   37.99    1.23
   1  -1 -21    1.10    1.37
   1  -1 -20   -0.35    1.27
   1  -1  -9   16.58    1.07
   3  -1 -21    2.91    1.43
   3  -1 -20    3.37    1.45
   3  -1 -10   43.87    1.46
   5  -1 -19    8.86    1.50
   5  -1 -18    2.10    1.26
   5  -1 -12   26.96    1.37
  12   0 -24   -1.09    1.53
  14   0 -18   14.05    1.52
  14   0 -17    9.24    1.34
  14   0 -16    1.38    1.29
  -5  -1 -18   10.61    1.43
  -5  -1 -16    7.59    1.26
  -3  -1 -20    0.08    1.33
  -3  -1  -9    1.58    0.84
  -1  -1 -22   -0.04    1.66
  -1  -1 -21   10.66    1.56
   1  -1 -22    1.49    1.63
   1  -1  -8   20.17    0.99
   3  -1 -22    2.85    1.57
   3  -1  -9   21.72    1.17
   5  -1 -21    2.54    1.56
   5  -1 -20   16.47    1.57
   7  -1 -18    2.46    1.32
   7  -1 -17   16.78    1.70
   7  -1 -16   21.09    1.63
  14   0 -21   -0.49    1.55
  14   0 -20   -2.19    1.45
  14   0 -19    0.59    1.18
  14   0 -15    0.92    1.19
  -5  -1 -19   18.10    1.51
  -5  -1 -10   46.54    1.30
  -3  -1 -21    0.50    1.34
  -3  -1  -8   98.23    1.52
  -1  -1 -23    7.58    1.55
   1  -1 -23    5.32    1.65
   3  -1 -23    2.84    1.76
   5  -1 -23    1.37    1.65
   7  -1 -21    2.50    1.40
   7  -1 -20    0.53    1.39
   7  -1 -19    0.29    1.06
  14   0 -23    1.10    1.52
  14   0 -22    1.02    1.47
  -7  -1 -17    3.15    1.32
  -7  -1 -16    1.83    1.19
  -7  -1 -15   50.03    1.66
  -7  -1 -13    0.47    0.91
  -5  -1 -20    2.55    1.31
  -5  -1  -9   21.30    1.02
  -3  -1 -23    1.01    1.44
  -3  -1 -22   10.28    1.45
  -1  -1 -24    3.09    1.77
   3  -1 -25   -0.19    1.53
   3  -1 -24    0.83    1.56
   3  -1  -8    5.73    0.93
   5  -1 -24   -0.27    1.68
   5  -1  -9  111.28    1.84
   7  -1 -23    6.96    1.56
   7  -1 -22    6.58    1.59
   9  -1 -19   12.43    1.51
   9  -1 -18    2.37    1.18
   9  -1 -17    4.74    1.41
  14   0 -24    0.99    1.41
  -7  -1 -19    5.41    1.32
  -7  -1 -18    0.35    1.14
  -7  -1 -12    4.98    0.90
  -7  -1 -11    0.72    0.87
  -5  -1 -22   -1.30    1.45
  -3  -1  -7   38.92    1.04
   1  -1  -7  152.32    1.62
   5  -1 -25    1.65    1.79
   7  -1 -24    0.96    1.71
   9  -1 -21   11.14    1.91
   9  -1 -20   -1.18    1.43
   9  -1 -14   82.87    2.15
  -7  -1 -20   10.16    1.33
  -7  -1 -10   16.17    0.98
  -5  -1 -23    0.45    1.47
  -5  -1  -8    3.96    0.82
  -3  -1 -25    1.68    1.59
   3  -1  -7    8.59    0.83
   7  -1 -25    2.95    1.56
   7  -1 -10  137.66    2.12
   9  -1 -13   15.36    1.29
  -5  -1 -24    0.59    1.44
   1  -1  -6  144.46    1.50
   9  -1 -12    5.79    1.17
  11  -1 -20    1.77    1.33
  11  -1 -19    7.86    1.52
  11  -1 -18   17.93    1.61
  11  -1 -17    2.71    1.25
  -7  -1  -9    0.80    0.61
  -5  -1 -25    0.16    1.39
  -5  -1  -7   37.64    0.99
   7  -1  -9  113.03    1.88
   9  -1 -11    1.91    0.98
  11  -1 -24    0.23    1.43
  11  -1 -23    0.02    1.66
  11  -1 -22    0.07    1.46
  11  -1 -15    1.27    1.15
  11  -1 -14    0.75    1.20
  -7  -1  -8  201.68    1.90
   7  -1  -8   90.37    1.58
   9  -1 -10   19.81    1.21
  13  -1 -23    0.43    1.55
  13  -1 -22    3.85    1.72
  13  -1 -21   -1.33    1.54
  13  -1 -20    1.12    1.39
  13  -1 -19    0.57    1.29
  13  -1 -18   -0.97    1.15
  -5  -1  -6    7.06    0.73
  -1  -1  -5  461.23    2.33
   2  -2 -19    1.71    1.28
  11  -1 -12    9.32    1.12
  13  -1 -24    2.09    1.56
  13  -1 -17    0.73    1.26
  13  -1 -16    0.08    1.24
  -7  -1  -7   42.75    1.06
  -2  -2 -19   10.28    1.60
  -2  -2 -18   13.52    1.44
   0  -2 -22    0.94    1.47
   0  -2 -17    3.52    1.43
   0  -2 -15    4.31    1.24
   1  -1  -5   17.04    0.57
   2  -2 -22    3.28    1.68
   2  -2 -21    4.13    1.54
   2  -2 -20   15.60    1.67
   2  -2 -18    0.03    1.03
   2  -2 -17    0.72    1.10
   2  -2 -16    0.51    1.50
   2  -2 -15    1.15    1.20
   4  -2 -22    4.13    1.79
   4  -2 -20   -0.05    1.55
   4  -2 -19    4.48    1.45
   4  -2 -18    3.34    1.41
   4  -2 -17   30.78    1.73
   5  -1  -6   -0.06    0.64
  13  -1 -15   23.89    1.54
  -2  -2 -22    1.76    1.60
  -2  -2 -20   -0.11    1.33
  -2  -2 -17   28.06    1.65
  -2  -2 -16    2.42    1.46
  -2  -2 -15    3.47    1.32
   0  -2 -23    3.74    1.83
   0  -2 -14    1.00    1.17
   2  -2 -25    2.87    1.59
   2  -2 -24    0.97    1.80
   2  -2 -14    2.41    1.25
   4  -2 -24    2.28    1.82
   4  -2 -23    0.85    1.50
   4  -2 -16    2.73    1.11
   4  -2 -15    3.65    1.37
   6  -2 -23    0.16    1.64
   6  -2 -22    4.12    1.75
   6  -2 -21    0.84    1.61
   6  -2 -20    8.33    1.59
   6  -2 -19    0.58    1.39
   6  -2 -18    0.45    1.36
   6  -2 -17    0.68    1.24
  13  -1 -14    1.20    1.07
  15  -1 -23    1.00    1.39
  15  -1 -22   -0.90    1.49
  15  -1 -21    1.65    1.37
  -4  -2 -21   12.15    1.66
  -4  -2 -20    0.18    1.36
  -4  -2 -19    0.46    1.36
  -4  -2 -17    0.78    1.20
  -4  -2 -16   12.51    1.50
  -2  -2 -24    1.03    1.62
  -2  -2 -23    1.01    1.47
  -2  -2 -14    3.83    1.23
   6  -2 -24    0.40    1.60
   6  -2 -16    3.95    1.42
   8  -2 -23   -1.05    1.55
   8  -2 -22    1.20    1.71
   8  -2 -21    1.15    1.50
   8  -2 -20    8.39    1.61
  15  -1 -20    5.91    1.37
  15  -1 -19    0.63    1.43
  -4  -2 -24   -0.64    1.48
  -4  -2 -23    4.20    1.55
  -4  -2 -22   -0.33    1.38
  -4  -2 -15    5.90    1.33
  -4  -2 -14   24.28    1.53
  -2  -2 -13    7.99    1.11
   0  -2 -12   43.89    1.59
   2  -2 -12    9.48    1.27
   4  -2 -13   -0.40    1.24
   6  -2 -14   17.01    1.53
   8  -2 -24    1.02    1.56
   9  -1  -8    1.99    0.90
  -9  -1  -8    0.12    0.53
  -7  -1  -6   90.99    1.25
  -6  -2 -21    6.48    1.30
  -6  -2 -20    0.93    1.34
  -6  -2 -19   -0.77    1.18
  -6  -2 -18    8.62    1.29
  -6  -2 -17   13.43    1.38
  -6  -2 -16    0.76    1.28
  -4  -2 -13    1.86    1.09
  -2  -2 -12  130.76    2.25
   0  -2 -11   42.83    1.54
   2  -2 -11    4.78    1.04
   6  -2 -13    5.11    1.33
  10  -2 -24    1.93    1.69
  10  -2 -23    3.36    1.73
  10  -2 -22    0.82    1.62
  10  -2 -21   -0.41    1.64
  10  -2 -20    0.40    1.61
  10  -2 -19   -0.30    1.42
  13  -1 -12    7.61    1.10
  -6  -2 -22    1.45    1.38
  -4  -2 -12    3.54    1.06
   6  -2 -12    5.51    1.16
  10  -2 -17   -1.01    1.29
  11  -1  -9   12.87    0.97
  -6  -2 -14   -0.61    1.03
   0  -2 -10    0.92    1.02
   2  -2 -10   18.25    1.29
  10  -2 -16   10.94    1.40
  12  -2 -23    1.48    1.56
  12  -2 -21   -0.81    1.71
  12  -2 -20    9.93    1.72
  13  -1 -11    1.18    0.89
  -6  -2 -13    4.18    1.12
  -4  -2 -11    3.58    0.96
   4  -2 -10  220.78    2.75
   6  -2 -11   14.90    1.25
  10  -2 -15   11.88    1.50
  12  -2 -19    4.96    1.46
  12  -2 -18    0.07    1.27
  -6  -2 -12   18.76    1.23
   0  -2  -9   10.75    1.16
   8  -2 -12   16.99    1.45
  10  -2 -14    8.08    1.37
  12  -2 -17    1.49    1.39
  -8  -2 -14    1.26    1.00
  -6  -2 -11   -0.76    0.90
   6  -2 -10    0.46    1.04
  12  -2 -16    0.90    1.22
  14  -2 -23    0.56    1.46
  14  -2 -22    1.14    1.56
  14  -2 -21   -0.34    1.51
  14  -2 -20    1.04    1.46
  -8  -2 -13   78.34    1.86
   1  -3 -20    0.70    1.56
   1  -3 -19    3.02    1.43
   3  -3 -21    0.63    1.73
   3  -3 -20    0.44    1.61
   3  -3 -19   -0.35    1.41
   5  -3 -23    0.21    1.77
   7  -1  -5    8.91    0.72
   9  -1  -6   12.20    0.97
  12  -2 -15    4.79    1.34
  14  -2 -19   -0.02    1.49
  -8  -2 -12    1.08    1.00
  -6  -2 -10   14.37    1.02
  -4  -2  -9   60.98    1.54
  -1  -3 -22    0.58    1.73
  -1  -3 -21    6.34    1.73
   1  -3 -17    0.53    1.31
   2  -2  -8   81.13    1.79
   3  -3 -18   -0.09    1.44
   3  -3 -17    0.89    1.26
   5  -3 -19    3.53    1.59
   5  -3 -18    0.75    1.37
   6  -2  -9   19.20    1.25
   7  -3 -22    0.34    1.87
   7  -3 -20    0.30    1.69
  12  -2 -14    8.18    1.51
  13  -1  -9    0.26    0.89
  14  -2 -18   11.82    1.52
  14  -2 -17    6.05    1.33
  -3  -3 -23    0.71    1.51
  -3  -3 -22    3.83    1.49
  -3  -3 -21    1.35    1.59
  -3  -3 -20    1.10    1.51
  -3  -3 -19    0.90    1.40
  -1  -3 -17    0.81    1.31
  -1  -3 -16    1.48    1.40
   1  -3 -16    6.07    1.41
   4  -2  -8   68.16    1.72
   5  -3 -17    0.03    1.41
   7  -3 -19    0.96    1.48
   8  -2 -10   46.05    1.55
  14  -2 -16    2.13    1.26
  -8  -2 -11   10.28    0.95
  -4  -2  -8   45.91    1.35
  -3  -3 -18    1.34    1.24
  -3  -3 -17   11.16    1.62
   1  -3 -15   -0.43    1.20
   5  -3 -16    1.33    1.27
   7  -3 -17    7.87    1.56
  12  -2 -13   48.38    1.86
  -6  -2  -9    2.27    0.82
  -5  -3 -23   -0.71    1.36
  -5  -3 -22    0.01    1.41
  -5  -3 -21   -0.22    1.41
  -5  -3 -20    0.63    1.46
  -5  -3 -19    6.68    1.53
  -5  -3 -18    2.24    1.20
  -3  -3 -16   10.10    1.36
  -3  -3 -15    0.59    1.36
   0  -2  -7  124.22    1.91
   2  -2  -7    6.30    1.02
   3  -3 -14    0.31    1.55
   5  -3 -15    0.79    1.22
   7  -3 -16    8.21    1.54
  11  -3 -22   -0.95    1.62
  11  -3 -21    1.76    1.42
  14  -2 -15    0.63    1.23
  -8  -2 -10   -0.02    0.87
  -5  -3 -17    3.47    1.21
   1  -3 -13   13.12    1.48
   3  -3 -13   16.25    1.57
   4  -2  -7   29.71    1.28
   7  -3 -15    0.70    1.33
   9  -3 -17    1.09    1.46
  11  -3 -20    0.05    1.70
  11  -3 -19    3.82    1.49
  12  -2 -12    4.22    1.19
  -6  -2  -8   75.90    1.54
  -5  -3 -16    2.00    1.12
  -5  -3 -15    1.55    1.36
  -3  -3 -14    1.40    1.28
   5  -3 -13    1.56    1.49
   7  -3 -14    3.47    1.28
   7  -1  -4    1.72    0.63
   9  -3 -16    5.62    1.36
  11  -3 -18    8.34    1.56
  -7  -3 -17    1.78    1.20
  -5  -3 -14    9.27    1.54
  -4  -2  -7  120.58    1.80
  -3  -3 -13    3.26    1.39
   0  -2  -6    0.06    0.81
   1  -3 -12    1.28    0.88
   3  -3 -12    8.98    1.41
   9  -3 -15    2.77    1.40
  12  -2 -11    6.11    1.16
  13  -3 -21    0.20    1.55
  13  -3 -20    0.68    1.37
  14  -2 -13    3.22    1.19
  -8  -2  -9   20.31    0.97
  -7  -3 -16    0.15    1.22
  -3  -3 -12    0.18    1.20
   2  -2  -6   24.94    1.10
   3  -3 -11    0.98    1.11
   5  -3 -12   11.35    1.51
   9  -3 -14   38.80    1.76
  10  -2  -9   59.36    1.68
  11  -3 -16    0.10    1.47
  13  -3 -19    0.33    1.50
  -7  -3 -15   20.02    1.45
  -5  -3 -13   31.48    1.69
   4  -2  -6    4.91    0.99
   5  -3 -11    7.86    1.29
   7  -3 -12    0.22    1.30
  11  -3 -15   -1.02    1.36
  12  -2 -10   -0.89    1.20
  13  -3 -18    0.83    1.50
  14  -2 -12    0.02    1.04
  -7  -3 -14    0.21    1.15
  -6  -2  -7   56.76    1.31
  -5  -3 -12   39.42    1.70
  -3  -3 -11   20.48    1.49
   0  -4 -21    1.46    1.53
   0  -4 -20    0.20    1.52
   1  -3 -10   30.01    1.53
   2  -4 -21    2.50    1.46
   2  -4 -20    3.38    1.70
   2  -4 -19    0.12    1.53
   4  -4 -20    0.27    1.66
   4  -4 -19    0.46    1.49
   9  -3 -13   10.31    1.39
  13  -3 -17    1.43    1.39
  15  -3 -21   -1.17    1.22
  15  -3 -20    4.02    1.39
  -2  -4 -21   -0.24    1.47
  -2  -4 -20    0.48    1.32
   2  -4 -18   -0.41    1.57
   4  -4 -18    0.62    1.73
   5  -3 -10    3.99    1.14
   6  -4 -19    2.14    1.58
   8  -2  -7    2.06    0.99
   9  -3 -12    1.93    1.46
  10  -2  -8   70.87    1.62
  11  -3 -14    0.34    1.16
  13  -3 -16   -0.41    1.30
  15  -3 -19    1.43    1.49
  -5   3   0    1.26    0.58
  -5   7   4   -0.16    0.74
  -2   6   0   -0.24    0.62
   4   4  -4    3.55    0.89
   7   5  -4    0.06    0.85
   8   6  -3   17.25    1.26
   9   5  -4    0.59    0.93
  10   6  -3   -0.33    0.98
  11   5  -4    0.91    0.90
  14   4  -4   -0.69    0.77
  14   6  -2    6.23    0.94
  15   5  -3    0.62    0.85
  -3   5  -1   64.50    1.66
  -3   7   2    0.27    0.77
  -1   7   1   -0.19    0.80
   0   4  -3    1.36    0.81
   2   6  -2    0.16    1.03
   3   3  -4   24.67    0.96
   5   5  -4   43.53    1.48
   6   6  -3   -0.98    1.16
  10   4  -5    1.03    0.98
  12   6  -3   -0.24    0.95
  13   5  -4    0.30    0.92
  -8   4   2    6.10    0.65
  -6   6   2    0.03    0.61
  -5   5   0   -0.19    0.61
  -4   4  -1    2.25    0.75
   1   5  -3   -0.21    0.79
   2   4  -4   57.55    1.53
   3   7  -1    1.00    1.05
   4   6  -3    0.20    1.13
   6   4  -5   26.01    1.14
   7   3  -5    3.72    0.72
   8   4  -5   -0.15    0.93
  11   3  -5    0.50    0.65
  12   4  -5    2.14    0.87
  14   6  -3    0.33    0.92
  -7   3   1    8.71    0.58
  -6   4   0    2.15    0.67
  -3   7   1   -0.19    0.69
  -2   6  -1   -0.14    0.70
  -1   3  -3    5.73    0.72
  -1   7   0   -0.44    0.78
   3   5  -4    5.05    0.94
   5   3  -5   45.40    1.19
   7   5  -5    0.63    0.89
   9   5  -5   10.70    1.08
  10   6  -4   -0.66    1.12
  11   5  -5    0.19    0.95
  12   6  -4    0.37    0.89
  13   3  -5   -0.90    0.59
  -7   5   1    0.24    0.56
  -5   7   2    0.23    0.67
  -2   2  -2   66.01    0.91
   0   2  -3    0.44    0.48
   1   3  -4    5.83    0.77
   2   6  -3    0.84    0.94
   3   7  -2    0.48    1.21
   4   4  -5    9.38    0.91
   5   5  -5   12.38    1.13
   6   6  -4    4.04    1.10
   8   2  -5    3.70    0.79
  10   2  -5    2.21    0.60
  13   5  -5   -0.06    0.95
  14   6  -4    1.54    0.96
  -6   6   1   -0.18    0.60
  -5   3  -1    0.74    0.59
  -3   5  -2    1.89    0.96
  -1   7  -1    0.09    0.72
   0   4  -4    7.46    0.90
   1   5  -4    0.27    0.84
   4   6  -4    0.70    1.00
   8   4  -6    3.85    0.93
  10   4  -6   -0.24    0.91
  10   6  -5   -0.17    1.16
  12   2  -5    3.45    0.69
  -8   4   1    4.38    0.66
  -5   5  -1   -1.06    0.93
  -4   2  -1    5.04    0.43
  -4   4  -2   -0.18    0.71
  -4   6  -1    0.27    0.64
  -2   6  -2    1.70    0.89
   2   2  -4  228.20    1.75
   2   4  -5  111.13    1.84
   2   6  -4    8.81    1.16
   3   5  -5    2.91    0.95
   3   7  -3    1.75    1.20
   6   2  -5   97.61    1.36
   6   4  -6    5.47    0.96
   6   6  -5    4.01    1.22
   9   3  -6    4.48    0.83
   9   5  -6    0.82    0.99
  11   1  -4    0.27    0.47
  11   3  -6    6.08    0.89
  11   5  -6    1.29    0.96
  12   6  -5   -0.24    1.02
  -9   3   2    0.58    0.51
  -6   6   0   -0.07    0.64
  -5   7   1    0.24    0.68
   4   6  -5    0.04    1.03
   7   5  -6    1.58    0.99
  13   3  -6    5.49    0.71
  13   5  -6    1.00    0.99
  14   4  -6    0.96    0.84
  14   6  -5    0.86    0.91
  -7   3   0   14.69    0.68
  -6   4  -1   87.74    1.54
  -1   7  -2   -0.28    0.84
   0   6  -4    0.47    0.97
   1   5  -5    0.28    0.84
   4   2  -5   41.80    0.95
   4   4  -6    1.15    0.96
   5   3  -6    0.88    0.78
   5   5  -6    0.58    0.93
  10   6  -6   -0.39    1.16
  12   6  -6    0.33    1.04
  -6   2   0   16.23    0.54
  -5   5  -2    3.06    1.02
  -5   7   0    0.14    0.75
  -4   6  -2   -0.31    0.69
  -1   3  -4    0.16    0.53
   0   4  -5   24.68    1.15
   1   3  -5    4.30    0.74
   2   6  -5   21.83    1.52
   3   5  -6   14.36    1.22
   6   6  -6    1.63    1.14
   8   4  -7    0.71    0.93
   9   5  -7    5.46    1.10
  10   4  -7   14.36    1.12
  11   5  -7    1.07    1.04
  12   4  -7    5.07    0.89
  -8   4   0    2.38    0.71
  -6   6  -1    0.02    0.55
  -4   4  -3    1.32    0.80
  -3   7  -2   -0.26    0.69
  -1   7  -3    0.17    0.84
   2   4  -6    7.96    1.00
   3   3  -6   87.55    1.49
   4   6  -6   -0.19    1.17
   6   4  -7    0.12    0.97
   8   2  -6   10.56    0.86
  10   2  -6    1.88    0.62
  11   3  -7    9.75    1.00
  14   4  -7    4.51    0.90
  -7   5  -1    1.15    0.81
  -5   3  -2   20.27    0.85
  -5   7  -1    0.17    0.66
  -3   5  -4    1.79    0.85
  -2   2  -3  115.38    1.19
  -2   6  -4    0.55    0.97
   0   2  -4   42.21    0.90
   0   6  -5    1.74    1.09
   4   4  -7    7.49    1.03
   5   5  -7    0.52    1.01
   7   3  -7    6.80    0.89
  10   6  -7    2.91    1.18
  12   2  -6    1.06    0.57
  12   6  -7    1.72    1.09
  -5   5  -3   27.85    1.19
  -4   6  -3    0.70    0.81
   2   2  -5  365.08    2.29
   2   6  -6    1.89    1.09
   3   5  -7    1.69    0.96
   6   2  -6   26.28    0.91
   6   6  -7   -0.40    1.04
   9   5  -8    0.43    0.97
  11   5  -8    0.93    0.99
  -9   3   1    1.81    0.48
  -6   6  -2    0.18    0.62
  -4   2  -2    0.38    0.44
  -3   7  -3    0.00    0.79
  -1   3  -5  205.20    2.00
   0   4  -6   -0.45    0.83
   4   6  -7    0.90    1.18
   5   3  -7    4.78    0.79
   8   4  -8    4.28    1.00
  10   6  -8    6.26    1.16
  12   4  -8    7.31    0.89
  -8   4  -1    8.16    0.86
  -7   3  -1    7.49    0.56
  -7   5  -2   -0.12    0.81
  -5   7  -2   -0.39    0.77
  -2   6  -5    2.62    1.15
  -1   5  -6   22.24    1.19
   2   4  -7    1.05    0.92
   2   6  -7    1.11    0.98
   4   2  -6    4.82    0.67
   5   5  -8    1.32    0.91
   6   6  -8    1.23    1.20
  12   6  -8    1.93    1.12
  14   4  -8    1.64    0.76
  -4   6  -4    1.33    0.91
  -3   5  -5   -0.21    0.75
  -3   7  -4   -0.06    0.81
   1   5  -7    9.96    1.02
   3   3  -7    2.63    0.87
   3   5  -8    0.90    0.83
   4   6  -8    1.56    1.11
   7   3  -8   37.48    1.22
   9   3  -8    0.87    0.88
   9   5  -9   -0.20    0.96
  11   1  -5    0.46    0.47
  11   3  -8    5.81    0.99
  -6   4  -3    1.74    0.81
  -6   6  -3    0.07    0.68
  -5   3  -3  132.03    1.56
   7   1  -5    8.32    0.46
   8   2  -7    2.44    0.70
   8   4  -9    4.76    1.13
  10   2  -7   52.04    1.11
  10   4  -9   15.40    1.22
  10   6  -9    2.87    1.14
  12   4  -9    1.47    0.94
  12   6  -9    0.73    0.93
  13   5  -9    0.29    1.07
  -7   5  -3    1.87    0.90
  -6   2  -1  313.34    1.73
  -4   6  -5    3.37    0.90
  -2   6  -6    1.21    1.04
   0   4  -7   32.04    1.27
   2   4  -8   20.00    1.15
   2   6  -8    2.16    1.19
   5   3  -8    4.61    0.87
   6   4  -9    5.23    1.21
   6   6  -9   -0.38    1.23
  -8   4  -2   14.58    0.96
  -5   7  -4   -0.29    0.74
  -4   4  -5   15.42    1.06
  -3   5  -6    8.14    0.97
  -3   7  -5   -0.32    0.72
  -2   2  -4   34.98    0.82
  -1   3  -6   75.69    1.40
   1   5  -8    2.56    0.90
   4   6  -9    3.01    1.18
   6   2  -7   -0.38    0.67
   9   5 -10    0.97    1.01
  11   5 -10    2.74    1.04
  -9   3   0    4.58    0.46
  -7   3  -2    2.31    0.53
  -6   6  -4    0.78    0.78
  -5   5  -5   -0.26    0.83
  -2   6  -7    0.82    0.92
   0   6  -8    0.84    1.01
   3   3  -8    2.79    0.84
   3   5  -9    1.86    0.75
   4   4  -9    6.07    1.14
   9   3  -9    5.99    1.01
  10   4 -10   -0.62    0.96
  10   6 -10   -0.74    0.99
  11   3  -9    4.46    0.94
  12   6 -10    0.29    1.09
  13   5 -10    1.02    1.06
  -5   3  -4    0.45    0.61
  -4   2  -3    8.53    0.58
  -4   6  -6    8.09    1.18
  -1   5  -8    3.33    0.92
   0   4  -8    1.42    0.88
   2   6  -9    0.36    1.19
   4   2  -7   29.30    0.94
   5   5 -10   -0.27    1.06
   6   6 -10   -0.32    1.14
   7   3  -9   56.62    1.47
   8   4 -10   15.46    1.15
  12   4 -10    0.34    0.90
  13   3  -9    0.32    0.80
  -7   5  -4    1.27    0.83
  -6   6  -5   -0.23    0.87
  -5   7  -5   -0.18    0.72
  -3   5  -7    1.08    1.00
   1   5  -9    2.22    0.99
   2   4  -9    6.24    1.15
   4   6 -10   16.71    1.50
   8   2  -8   19.61    0.90
   9   5 -11   -0.03    0.98
  10   2  -8   70.85    1.25
  11   5 -11    1.20    0.94
  -8   4  -3    4.95    0.85
  -5   5  -6    0.21    0.88
  -2   6  -8    0.57    1.11
  -1   3  -7   52.45    1.26
   0   6  -9    0.77    1.14
   1   3  -8    7.14    0.89
   2   6 -10   -0.03    1.33
   3   5 -10    1.86    0.99
   4   4 -10   77.61    1.95
   6   6 -11   -0.82    1.28
  12   2  -8   23.48    0.85
  13   5 -11    0.81    0.87
  -6   4  -5    7.02    0.84
  -4   6  -7   10.99    1.20
  -1   5  -9    3.36    0.90
   0   2  -6    0.93    0.61
   3   3  -9    6.31    0.89
   4   6 -11    1.41    1.05
   5   5 -11    1.44    1.09
   6   2  -8   38.50    1.10
   8   4 -11    1.71    0.92
   9   3 -10    8.88    1.06
  11   3 -10   10.99    0.99
  12   4 -11    1.32    1.02
  -9   3  -1    1.47    0.44
  -7   3  -3   12.21    0.69
  -7   5  -5    1.15    0.81
  -6   2  -2  236.53    1.57
  -6   6  -6   -0.11    0.95
  -3   5  -8   10.43    1.14
  -2   2  -5   85.46    1.17
  -2   4  -8    6.96    0.96
   0   4  -9    1.27    1.07
   1   5 -10   10.25    1.15
   2   2  -7    5.42    0.54
   2   4 -10    5.20    1.17
   3   1  -5   52.98    0.73
   3   5 -11   -0.20    0.94
   7   1  -6   44.80    0.78
   8   6 -12   -0.81    1.14
   9   5 -12    1.35    1.07
  11   5 -12    1.06    1.03
  13   3 -10    4.83    0.91
  -5   5  -7    4.34    0.95
  -4   6  -8    2.34    0.93
  -2   6  -9   -0.12    1.15
   0   6 -10   -0.10    1.04
   2   6 -11   -1.03    1.13
   4   2  -8   67.49    1.29
   4   4 -11    4.92    0.96
   5   3 -10    3.87    0.94
   6   6 -12    0.03    1.12
  -8   4  -4   20.31    0.96
  -1   3  -8   13.61    0.93
   1   3  -9    7.66    0.91
   4   6 -12    1.65    1.09
   5   5 -12    3.99    1.07
   8   2  -9   13.92    0.83
   8   4 -12    5.99    1.04
  10   4 -12    2.69    1.05
  12   2  -9    8.25    0.75
  12   4 -12    3.57    1.03
  -7   5  -6    6.76    0.91
  -6   4  -6    0.84    0.74
  -6   6  -7    0.88    1.04
  -3   5  -9    0.80    0.90
  -2   4  -9    3.54    1.06
  -2   6 -10    1.30    1.00
   0   4 -10   -0.53    1.07
   0   6 -11    0.98    1.05
   1   5 -11   25.22    1.27
   3   3 -10   16.34    1.03
   3   5 -12    2.56    0.98
   5   1  -6    0.12    0.41
   6   6 -13    0.51    1.02
   7   3 -11   22.95    1.15
   9   3 -11    0.83    0.94
   9   5 -13    2.86    1.25
  11   5 -13    1.48    1.09
  13   5 -13    0.37    0.94
  -9   3  -2  119.27    1.37
  -7   3  -4    7.31    0.65
  -5   5  -8    0.05    0.94
  -4   4  -8   11.91    1.04
   0   2  -7  126.88    1.53
   2   4 -11    0.67    0.87
   2   6 -12    1.40    1.22
  -8   4  -5    0.27    0.72
  -8   6  -6    0.24    0.78
  -6   6  -8    3.23    1.07
  -2   2  -6   55.07    1.08
  -1   5 -11    0.45    0.96
   1   5 -12    0.10    0.98
   4   4 -12    6.43    0.98
   4   6 -13   -0.94    1.03
   5   5 -13    1.63    1.02
   8   4 -13    0.03    0.96
  10   4 -13   -0.45    1.05
  12   4 -13   17.67    1.29
  -7   5  -7    8.88    0.95
  -6   2  -3    2.81    0.51
  -6   4  -7   16.57    1.07
  -3   5 -10    2.90    0.98
  -2   4 -10    3.37    1.00
  -1   3  -9   13.10    0.95
   0   6 -12    1.13    1.20
   1   1  -5   17.26    0.52
   1   3 -10   31.20    1.22
   2   6 -13    1.64    1.07
   3   5 -13    2.73    1.11
   4   2  -9   14.44    0.86
   7   1  -7   14.01    0.69
   9   3 -12    2.70    1.00
   9   5 -14   11.28    1.41
  10   2 -10    1.60    0.75
  11   3 -12    4.74    1.05
  11   5 -14    1.03    1.08
  13   5 -14    0.66    0.90
  -8   2  -1   33.02    0.65
  -8   6  -7    0.14    0.88
  -5   5  -9    0.48    0.96
  -4   4  -9   17.90    1.14
   2   4 -12    3.51    0.95
   3   1  -6  212.96    1.45
   5   5 -14    0.86    1.03
   7   3 -12   -0.85    0.94
   8   2 -10   44.13    1.12
  12   2 -10    0.75    0.60
  -7   3  -5    1.69    0.61
  -6   6  -9    0.74    1.06
  -1   5 -12   -0.42    1.06
   0   2  -8    1.56    0.69
   0   6 -13   -0.04    1.05
   1   5 -13    4.70    1.05
   4   4 -13    0.79    0.95
   6   2 -10    0.25    0.70
   8   4 -14    1.20    0.98
  10   4 -14    2.32    1.14
  12   4 -14    4.34    1.09
  -9   3  -3   56.14    1.02
  -8   4  -6   -0.07    0.72
  -7   5  -8   21.86    1.13
  -6   4  -8   22.33    1.15
  -5   3  -7   16.59    0.87
  -4   6 -11   -0.14    1.07
   2   2  -9   28.42    1.00
   5   1  -7   17.56    0.62
   7   5 -15   -1.30    1.28
   9   5 -15   -1.19    1.23
  13   5 -15    3.29    1.09
  -8   6  -8    0.85    0.94
  -6   6 -10   -0.11    0.93
  -5   5 -10    2.66    0.87
  -4   4 -10   -0.38    0.89
  -2   4 -11   18.31    1.08
  -1   3 -10   19.91    0.93
   1   3 -11  112.16    1.75
   3   3 -12    8.14    1.06
   4   2 -10  214.69    2.13
   5   5 -15    0.41    1.21
   7   3 -13    0.80    1.00
  10   2 -11   13.99    0.95
  11   3 -13    3.15    1.03
  -7   5  -9   -1.13    0.91
  -6   2  -4    0.92    0.54
  -3   5 -12   -0.27    0.98
  -2   6 -13    0.06    1.13
  -1   5 -13    7.30    1.17
   1   5 -14    0.46    1.14
   4   4 -14   -0.10    1.01
   8   2 -11    1.14    0.77
   8   4 -15   -0.12    0.96
   9   1  -8    1.44    0.58
   9   5 -16    1.92    1.24
  10   4 -15    5.69    1.12
  11   5 -16    0.18    1.15
  12   4 -15    0.87    1.14
  -9   3  -4    0.67    0.62
  -8   2  -2   52.31    0.87
  -8   4  -7   -0.45    0.77
  -8   6  -9    1.41    0.97
  -6   4  -9    1.60    0.95
  -5   3  -8    2.39    0.78
  -5   5 -11    0.33    0.96
  -4   6 -12   -0.30    1.01
  -2   4 -12   40.99    1.41
   0   2  -9   10.33    0.84
   0   4 -13    1.50    0.99
   1   1  -6  142.88    1.21
   3   1  -7    8.08    0.57
   3   5 -15   12.87    1.23
   6   2 -11   14.05    0.89
   7   5 -16    3.43    1.34
  -6   6 -11    0.26    1.01
  -4   4 -11    0.84    0.84
  -2   2  -8   30.90    1.00
  -1   1  -5  469.21    1.99
  -1   5 -14    0.73    1.01
   1   3 -12    1.00    0.94
   2   2 -10   17.78    0.89
   2   4 -14    1.14    0.97
   3   3 -13   16.17    1.18
   5   5 -16   -0.12    1.27
   9   3 -14   37.68    1.50
  11   3 -14   -0.61    0.96
  -9   5  -8   -0.08    0.80
  -7   5 -10    0.72    0.93
  -4   6 -13    0.62    1.10
  -3   3 -10   18.60    1.10
  -3   5 -13    1.19    1.08
   1   5 -15   -0.32    1.06
   3   5 -16    4.55    1.26
   4   2 -11   17.03    0.88
   5   1  -8    6.71    0.63
   7   3 -14    2.67    1.02
   7   5 -17    0.55    1.19
   8   2 -12   15.74    1.02
   8   4 -16   -0.37    1.09
   9   5 -17    0.17    1.24
  10   2 -12    8.46    0.89
  10   4 -16    5.44    1.16
  11   5 -17    1.31    1.15
  12   4 -16   -0.89    1.16
  -8   6 -10   -0.05    0.81
  -7   3  -7   25.03    1.00
  -6   2  -5   26.44    0.80
  -6   4 -10    3.31    0.89
  -6   6 -12    0.22    1.03
  -5   5 -12   12.31    1.19
  -2   4 -13    1.60    0.99
   0   4 -14    1.01    0.97
   2   4 -15    1.07    0.95
   5   5 -17    1.03    1.11
  -9   3  -5    0.40    0.59
  -9   5  -9    2.96    0.88
  -7   5 -11    0.17    0.92
  -4   4 -12    1.87    0.93
  -3   5 -14    0.18    0.99
  -1   3 -12    0.40    0.92
  -1   5 -15    0.90    1.13
   0   2 -10    1.44    0.76
   1   3 -13   12.51    1.16
   2   2 -11    4.48    0.82
   4   4 -16    0.82    1.00
   9   3 -15    1.85    1.00
  -8   2  -3   11.34    0.58
  -8   4  -9    5.79    1.00
  -8   6 -11    1.76    0.93
  -5   5 -13    8.65    1.09
  -3   3 -11   22.17    1.18
  -2   2  -9   17.81    0.90
   1   1  -7  154.18    1.39
   3   1  -8    7.09    0.61
   3   3 -14    1.46    1.06
   4   2 -12   27.03    1.09
   7   3 -15    1.01    0.98
   7   5 -18    0.80    1.18
  10   4 -17   -1.12    1.24
  12   4 -17   -0.10    1.09
  -7   3  -8   83.34    1.56
  -6   4 -11    0.85    0.80
  -5   3 -10   15.51    0.97
  -2   4 -14    1.22    1.00
  -1   1  -6  178.06    1.40
   2   4 -16   -0.53    1.09
   5   5 -18    1.92    1.24
   6   4 -17   -0.50    1.20
   8   2 -13    1.03    0.85
  10   2 -13    0.33    0.78
  -9   3  -6   22.94    0.91
  -9   5 -10    1.46    0.96
  -8   6 -12    0.36    0.80
  -7   5 -12   -0.20    1.04
  -6   2  -6    0.40    0.61
  -4   4 -13    1.87    0.98
  -1   3 -13   22.88    1.36
   1   3 -14    2.37    1.11
   1   5 -17   -0.11    1.12
   3   3 -15   54.27    1.56
   3   5 -18    1.10    1.10
   5   1  -9  110.87    1.33
   9   3 -16    4.99    1.03
  -8   4 -10    0.16    0.84
  -6   4 -12    4.65    0.93
  -5   5 -14    2.11    1.16
  -3   3 -12   -0.06    0.94
   4   2 -13    1.14    0.80
   6   4 -18   -0.10    1.08
   7   3 -16   10.94    1.04
   8   4 -18    5.50    1.23
  10   4 -18    0.81    1.02
  12   4 -18    1.09    1.06
  -9   5 -11    0.90    0.95
  -8   2  -4   78.02    1.04
  -7   3  -9    0.59    0.78
  -7   5 -13   -0.01    1.06
  -4   4 -14    9.80    1.08
  -2   4 -15    0.02    0.98
  -1   5 -17    0.77    1.18
   1   1  -8   20.17    0.79
   1   5 -18    5.82    1.41
   3   1  -9   21.79    0.83
   8   2 -14    1.43    0.86
  10   2 -14    8.19    0.92
  -5   5 -15    1.56    1.16
  -3   1  -5   14.76    0.55
  -1   1  -7  126.66    1.32
  -1   3 -14    7.44    1.06
   1   3 -15    0.06    0.88
   3   3 -16   12.87    1.19
   4   4 -18    1.71    1.09
   5   1 -10    8.14    0.79
   6   2 -14   15.93    1.18
   7   3 -17    7.78    1.10
   8   4 -19    3.40    1.18
   9   3 -17    0.98    1.03
  10   4 -19    0.14    1.19
  11   3 -17    1.94    0.92
  12   4 -19    0.89    1.12
 -10   4  -9   10.63    1.15
  -8   4 -11    2.04    0.89
  -6   4 -13    1.37    0.99
  -3   3 -13    3.68    0.80
  -2   2 -11   48.22    1.28
   0   2 -12   45.38    1.30
   0   4 -17    0.96    1.26
   2   2 -13   43.89    1.33
   2   4 -18    0.05    1.10
   6   4 -19    1.39    1.28
  -9   5 -12    0.59    0.96
  -7   3 -10    6.79    0.97
  -7   5 -14    0.98    1.05
  -4   4 -15    2.01    1.12
   1   3 -16    5.77    1.04
   4   4 -19    1.36    1.36
   8   2 -15    1.16    0.94
  -9   3  -8   -0.82    0.77
  -8   4 -12   -0.44    0.93
  -6   2  -8   78.79    1.38
  -6   4 -14    0.86    0.91
  -5   5 -16    1.61    0.96
  -3   1  -6  160.71    1.42
  -3   3 -14    1.31    0.91
   0   4 -18    1.48    1.11
   1   1  -9   17.13    0.85
   3   1 -10   43.76    1.08
   6   2 -15   87.02    1.79
   7   3 -18    1.90    1.01
   8   4 -20    6.38    1.24
   9   1 -11    2.17    0.57
   9   3 -18   -0.33    1.06
  10   4 -20    1.08    1.13
  11   1 -11    1.50    0.57
  11   3 -18    9.84    1.16
  12   4 -20    2.89    1.14
 -10   2  -2    1.00    0.45
 -10   4 -10   -0.70    0.80
  -9   5 -13    1.04    0.94
  -7   3 -11    0.08    0.86
  -7   5 -15    7.57    1.13
  -4   4 -16    3.81    1.11
  -2   4 -17   10.60    1.22
  -1   1  -8   25.22    0.88
   0   2 -13    8.44    0.78
   2   2 -14    3.16    0.68
   2   4 -19   -0.10    1.22
   5   1 -11   13.67    0.90
   6   4 -20    2.04    1.13
  -9   3  -9    9.11    0.97
  -5   3 -13   32.90    1.40
  -5   5 -17   -0.40    1.20
  -1   3 -16    1.46    0.96
   3   3 -18   -0.23    0.99
   4   4 -20    1.34    1.12
   8   2 -16   -0.11    0.96
   8   4 -21    0.25    1.09
   9   3 -19    6.37    1.03
  10   2 -16   10.55    1.12
  10   4 -21   -0.37    1.12
 -10   4 -11    1.29    0.84
  -9   5 -14    0.76    1.00
  -8   4 -13   26.73    1.31
  -7   5 -16    1.55    0.93
  -6   2  -9    2.35    0.73
  -6   4 -15    1.14    0.98
  -3   3 -15   -0.68    0.95
  -2   4 -18    4.51    1.30
   0   4 -19    0.25    1.26
   1   1 -10   66.12    1.26
   2   2 -15    1.09    0.97
   3   1 -11    4.39    0.85
   6   2 -16    5.72    1.10
   6   4 -21    0.26    1.25
   7   1 -12    0.38    0.63
   7   3 -19   -0.63    1.07
   9   1 -12    6.94    0.65
  11   3 -19    5.35    1.04
 -10   2  -3    3.06    0.52
  -7   3 -12    1.44    1.00
  -3   1  -7   39.92    0.94
  -2   2 -13    6.22    1.01
  -1   1  -9   39.26    1.06
  -1   3 -17    0.28    0.97
   1   3 -18   33.99    1.56
   4   4 -21    1.53    1.27
   5   1 -12   26.65    1.03
  11   1 -12    7.32    0.62
 -10   4 -12    1.49    0.88
  -9   3 -10    4.45    0.93
  -9   5 -15    0.78    0.94
  -8   2  -7    0.40    0.60
  -8   4 -14    0.59    0.97
  -6   4 -16   -0.50    1.16
  -5   1  -5    5.80    0.53
  -3   3 -16   10.83    1.19
  -2   4 -19    4.52    1.37
   0   4 -20    0.83    1.35
   2   4 -21   -0.38    1.38
   3   3 -19   -0.06    1.17
   6   2 -17   -0.19    0.97
   7   3 -20    0.51    1.16
   8   2 -17    0.61    1.03
   9   3 -20    0.87    1.18
  10   2 -17   -0.42    0.98
  11   3 -20    1.03    1.12
 -10   2  -4    4.13    0.53
  -7   3 -13    0.36    0.86
  -6   2 -10   16.59    0.92
  -5   3 -15    2.70    1.01
  -3   1  -8  101.32    1.38
  -2   2 -14    3.92    1.04
   0   2 -15    5.44    1.12
   3   1 -12   16.65    0.92
   5   3 -20    7.19    1.41
   7   1 -13    1.99    0.71
   9   1 -13   13.44    0.83
  -8   4 -15    0.30    1.11
  -6   4 -17    4.32    1.25
  -3   3 -17   14.85    1.27
  -1   1 -10   64.68    1.35
  -1   3 -18   -0.38    1.15
   1   3 -19    1.94    1.19
   3   3 -20    0.94    1.22
   5   1 -13    8.69    0.86
   8   2 -18    9.14    1.01
   9   3 -21    3.15    1.25
  10   2 -18    0.46    1.01
  -7   3 -14    1.20    0.88
  -6   2 -11    0.57    0.84
  -5   1  -6    6.60    0.63
  -4   2 -13    1.32    0.98
  -2   4 -20    0.46    1.12
   0   2 -16   60.29    1.78
   1   1 -12    1.62    0.84
   2   2 -17    0.22    0.99
   3   1 -13   36.12    1.14
   5   3 -21    1.46    1.20
   6   2 -18    0.29    0.92
   7   3 -21    0.38    1.11
  11   3 -21    1.99    0.95
 -10   2  -5   18.60    0.70
  -9   3 -12    3.23    0.95
  -8   4 -16    1.69    1.13
  -6   4 -18    4.28    1.20
  -5   3 -16    3.28    1.04
  -3   1  -9    1.08    0.76
  -2   2 -15    3.68    1.10
  -1   1 -11   -0.20    0.81
  -1   3 -19    3.24    1.25
   5   1 -14   12.46    0.98
   7   1 -14    5.63    0.90
  -7   3 -15   20.24    1.48
  -3   3 -18    2.41    1.10
   0   2 -17    3.48    1.02
   2   2 -18    0.08    1.01
   3   3 -21    1.32    1.22
   8   2 -19    6.67    1.12
   9   3 -22   -0.43    1.19
  10   2 -19    0.72    0.88
  11   1 -14    0.60    0.70
  11   3 -22    0.73    1.19
 -10   2  -6    8.81    0.67
  -9   3 -13    0.83    0.94
  -8   2 -10    0.89    0.88
  -8   4 -17   -0.14    1.21
  -6   4 -19    0.21    1.23
  -5   3 -17    3.05    1.16
  -3   1 -10   50.06    1.29
  -2   2 -16    3.37    1.09
  -1   3 -20    3.30    1.45
   1   1 -13   32.55    1.23
   1   3 -21    0.81    1.42
   3   1 -14    2.38    0.89
   5   3 -22   -0.83    1.25
   7   1 -15    4.34    0.95
   9   1 -15    4.54    0.86
 -10   4 -15    1.18    1.10
  -4   2 -15    7.12    1.23
  -3   3 -19    0.90    1.14
  -1   1 -12    1.71    0.65
   3   3 -22    2.07    1.34
   5   1 -15    1.34    0.89
   6   2 -20    7.20    1.35
   7   3 -23    3.86    1.36
   8   2 -20    9.01    1.23
   9   3 -23   -0.04    1.24
  10   2 -20    0.04    1.04
  11   3 -23    0.93    0.88
  -9   3 -14   -0.10    0.98
  -8   2 -11   10.14    1.12
  -8   4 -18    1.10    1.15
  -7   1  -4   14.77    0.59
  -7   3 -16    0.90    1.00
  -3   1 -11   50.40    1.35
  -1   3 -21    4.30    1.42
   0   2 -18    1.41    1.00
   1   1 -14    6.28    1.02
   2   2 -19    1.39    1.05
   5   3 -23    1.70    1.36
 -10   4 -16    6.02    1.18
  -7   1  -5    9.50    0.70
  -7   3 -17    1.75    1.20
  -6   2 -14    0.06    1.17
  -3   3 -20   -1.25    1.36
  -1   1 -13   52.50    1.44
   3   3 -23    1.44    1.47
   8   2 -21   -0.55    1.02
   9   1 -16   10.98    1.03
 -11   3 -12   -0.64    0.88
  -9   3 -15   -0.52    1.04
  -8   2 -12    0.35    0.98
  -3   1 -12   -0.23    0.89
  -1   3 -22   -0.89    1.37
   0   2 -19    1.44    1.04
   1   1 -15    0.73    0.98
   1   3 -23    1.16    1.36
   2   2 -20   16.26    1.43
   6   2 -21    0.74    1.20
  10   2 -21    0.59    1.21
 -10   2  -9   42.65    1.29
 -10   4 -17    0.64    0.97
  -7   1  -6   92.04    1.29
  -7   3 -18    1.31    1.26
  -6   2 -15   -0.52    1.01
  -4   2 -17    0.85    1.11
  -3   3 -21    0.64    1.39
  -1   1 -14   16.83    1.19
   5   1 -17    2.05    1.14
   8   2 -22    0.55    1.28
 -11   3 -13    6.08    1.03
 -10   4 -18    0.66    1.08
  -9   3 -16    0.33    1.11
  -3   1 -13   11.31    1.10
  -2   2 -19   11.01    1.37
   0   2 -20   -1.80    1.18
   2   0  -7    5.76    0.48
   2   2 -21    2.34    1.26
   6   0  -9   23.16    0.74
   6   2 -22    6.41    1.34
  10   2 -22   -0.01    1.24
 -11   3 -14   14.29    1.21
 -10   2 -10    0.76    0.85
  -7   1  -7   42.41    1.09
  -7   3 -19    1.51    1.20
  -6   2 -16    0.81    1.09
  -4   2 -18    0.44    1.20
  -3   3 -22    3.55    1.46
  -1   1 -15    4.61    0.80
   2   0  -8  118.29    1.30
   4   0  -9   13.10    0.77
   4   2 -22    4.12    1.21
   5   1 -18    1.07    1.21
   7   1 -18    4.12    1.16
   9   1 -18    0.59    1.00
 -10   2 -11    6.84    1.05
  -9   3 -17    1.07    1.23
  -8   2 -14    0.22    1.11
  -7   1  -8  207.51    2.10
  -3   1 -14    6.67    1.13
  -2   2 -20    0.84    1.36
   0   0  -6    1.01    0.44
   0   2 -21    4.17    1.26
   1   1 -17    1.94    1.27
   2   2 -22    4.84    1.40
   4   0 -10  331.46    2.36
   6   0 -10    1.66    0.66
   6   2 -23   -0.19    1.36
   8   2 -23    0.37    1.06
  10   2 -23    4.34    1.21
 -11   3 -15   -0.49    1.15
  -9   3 -18   10.21    1.43
  -8   2 -15    1.03    1.09
  -7   1  -9    0.71    0.76
  -7   3 -20    5.72    1.30
  -6   2 -17   14.93    1.36
   0   2 -22    0.49    1.58
   2   0  -9   35.65    1.00
   4   2 -23    0.35    1.18
   5   1 -19    9.50    1.13
   6   0 -11   28.08    0.95
   7   1 -19    0.07    1.02
   9   1 -19   11.11    1.21
 -10   2 -12    2.89    0.99
  -6   2 -18    9.34    1.29
  -3   1 -15   -0.47    0.80
  -2   2 -21    0.39    1.29
  -1   1 -17    2.71    1.31
   0   0  -8    0.45    0.65
   1   1 -18   66.34    1.88
   2   0 -10   32.11    1.05
   2   2 -23    1.26    1.44
   4   0 -11   22.02    0.98
   4   2 -24    4.07    1.56
   6   2 -24    0.78    1.40
   7   1 -20    1.11    1.18
   8   0 -11    4.16    0.57
   8   2 -24    2.19    1.14
  10   2 -24    1.00    1.24
 -11   3 -16    0.31    1.15
 -10   2 -13    0.71    1.12
  -9   3 -19   -0.89    1.31
  -7   1 -10   15.98    0.99
  -7   3 -21    1.50    1.36
  -4   2 -20    1.85    1.25
  -3   1 -16   26.70    1.59
   0   0  -9   25.17    0.97
   0   2 -23    5.16    1.35
   1   1 -19    3.42    1.19
   2   0 -11    9.89    0.95
   4   0 -12   38.69    1.23
   5   1 -20   13.65    1.35
   6   0 -12   11.12    0.88
   9   1 -20    0.37    1.05
  10   0 -10    1.00    0.58
 -11   3 -17    0.38    1.14
  -9   1  -4    3.48    0.65
  -9   1  -3  103.03    1.14
  -7   1 -11    0.58    0.92
  -6   2 -19    0.02    1.28
  -4   2 -21   13.32    1.48
  -2   2 -22    0.91    1.36
  -1   1 -18    0.54    1.14
   2   2 -24    2.28    1.34
   4   2 -25    0.15    1.22
   6   0 -13    4.46    0.87
   6   2 -25    0.35    1.40
   7   1 -21   -0.02    1.17
  10   2 -25    3.33    1.17
 -10   2 -14    3.69    1.13
  -9   1  -6   54.47    1.14
  -9   1  -5    1.46    0.58
  -9   3 -20    1.45    1.30
  -7   1 -12    4.72    1.02
  -5   1 -15    7.43    1.25
  -2   0  -6  107.43    1.18
  -2   2 -23   -0.64    1.31
  -1   1 -19    3.93    1.25
   0   0 -10    0.65    0.59
   1   1 -20    1.08    1.23
   2   0 -12    8.97    0.97
   2   2 -25    2.75    1.40
   5   1 -21    2.27    1.19
   8   0 -13    1.72    0.70
   9   1 -21    9.38    1.22
 -11   3 -18    0.17    1.20
  -9   1  -7   49.07    1.14
  -8   2 -18    2.42    1.30
  -7   1 -13   -0.39    1.02
  -6   2 -20    0.38    1.42
  -5   1 -16    6.94    1.17
  -4   2 -22    0.26    1.50
  -3   1 -18    0.93    1.28
  -2   0  -7    0.06    0.64
   0   0 -11   63.87    1.44
   2   0 -13   73.47    1.62
   4   0 -14    2.49    0.90
   5   1 -22    1.39    1.10
   6   0 -14   25.00    1.12
   7   1 -22    4.03    1.22
   8   0 -14    2.95    0.79
   9   1 -22   -1.58    1.20
 -11   3 -19    1.77    1.16
  -9   1  -8   -0.39    0.70
  -6   2 -21    3.90    1.42
  -2   0  -9   21.44    1.01
  -2   2 -24    2.64    1.60
  -1   1 -20   10.91    1.42
   0   0 -12   65.86    1.55
   1   1 -21    1.71    1.29
   2   0 -14    6.25    1.00
   4   0 -15    3.84    1.00
   6   0 -15  119.18    2.03
  10   0 -13   -0.19    0.59
  -9   1 -10    5.65    1.04
  -9   1  -9   23.07    1.07
  -8   2 -19    1.07    1.36
  -7   1 -14    0.61    1.16
  -5   1 -17    4.21    1.19
  -4   2 -23    5.47    1.59
  -2   0 -10   16.16    1.07
   0   0 -13   10.69    1.09
   1   1 -22    0.15    1.29
   2   0 -15    2.71    1.00
   5   1 -23    4.36    1.40
   6   0 -16    6.26    1.11
   7   1 -23    7.94    1.45
   8   0 -15    2.21    0.84
   9   1 -23    0.02    1.30
 -10   2 -17    4.41    1.27
  -8   2 -20   11.84    1.48
  -7   1 -15   51.02    1.85
  -6   2 -22    1.70    1.45
  -5   1 -18    8.03    1.30
  -3   1 -20    0.13    1.29
  -2   0 -12  225.60    2.56
  -2   0 -11   61.41    1.32
  -1   1 -21    9.09    1.45
   0   0 -14    0.98    0.98
   4   0 -16    6.39    1.09
   7   1 -24    1.18    1.47
   8   0 -16   -0.48    0.94
  10   0 -15   14.01    1.04
 -10   2 -18   -0.60    1.16
  -9   1 -12   11.15    1.16
  -7   1 -16    1.70    1.09
  -2   0 -13   14.90    1.21
  -1   1 -22    1.51    1.49
   0   0 -15    5.65    1.23
   1   1 -23    4.93    1.48
   2   0 -16   -1.16    1.01
   3   1 -24   -0.77    1.42
   4   0 -17   52.53    1.74
   5   1 -24    0.70    1.52
   6   0 -17    0.92    1.07
   8   0 -17   -1.62    0.99
   9   1 -24    1.52    1.20
  10   0 -16   15.47    1.09
 -12   2 -15    3.38    1.09
  -9   1 -13    3.29    1.09
  -8   2 -21    0.35    1.40
  -7   1 -17    2.51    1.19
  -5   1 -19   17.67    1.46
  -4   0  -9  107.01    1.69
  -4   0  -8   87.99    1.48
  -4   0  -7  158.11    1.73
  -4   0  -6  211.23    1.73
  -4   0  -5   86.72    1.06
  -3   1 -21    0.86    1.37
  -2   0 -14    4.59    1.11
   0   0 -16   92.76    2.11
   2   0 -17    0.20    1.18
   5   1 -25    0.50    1.31
   6   0 -18    1.59    1.11
   7   1 -25    2.20    1.48
   8   0 -18   12.34    1.25
   9   1 -25   -0.01    1.35
 -10   2 -19    1.53    1.34
  -8   2 -22    0.46    1.44
  -5   1 -20    2.55    1.51
  -4   0 -11    4.05    0.98
  -4   0 -10    5.41    0.75
  -2   0 -15    1.90    1.21
  -1   1 -23    6.83    1.42
   1   1 -24   -1.71    1.34
   3   1 -25   -0.45    1.48
   4   0 -19    6.56    1.21
   6   0 -19   -0.51    1.26
  10   0 -17   -0.04    0.78
 -12   2 -16    0.41    1.10
 -10   2 -20    0.30    1.29
  -9   1 -15    0.69    1.06
  -7   1 -18   -0.36    1.17
  -4   0 -13    2.19    0.95
  -4   0 -12    6.30    1.03
  -2   0 -16    4.28    1.31
  -1   1 -24    4.44    1.59
   0   0 -18    0.62    1.10
   1   1 -25    5.16    1.59
   5   1 -26   -1.12    1.42
   7   1 -26   -0.50    1.38
   8   0 -19    9.29    1.28
   9   1 -26   -0.36    1.21
   7   1   1   14.94    0.56
   8   4  12   -0.24    0.40
  10   2   4    3.86    0.63
  11   3   8    2.47    0.66
  12   2   5   14.51    0.88
  12   4  16   -0.11    0.52
  13  -1   0   33.05    0.78
  15   1   4   28.23    0.99
  16   0   3    1.20    0.67
  16   2   8    1.86    0.90
  18   2  11    1.25    0.80
  19  -1   4   -0.13    0.62
  20   0   7    2.93    0.84
   3   3   6   50.65    0.82
   5   3   6    1.95    0.46
   6   2   3    2.75    0.49
   6   4  11    0.05    0.40
   9   3   7   19.38    0.85
  10   4  13   -0.03    0.44
  12   4  15    0.13    0.52
  17  -1   2    0.22    0.61
  18   0   4    8.05    0.79
  18   2  10    0.34    0.81
  20   0   6    3.14    0.69
  21  -1   6    5.31    0.77
   7   3   6   30.12    0.86
   8   2   3   10.41    0.63
   9   1   1    0.44    0.53
  10   4  12    0.51    0.48
  11  -1  -1    5.77    0.48
  12   4  14    0.04    0.46
  14   0   1    0.05    0.59
  16   0   2    0.77    0.66
  16   2   7   -0.94    0.72
  18   2   9    0.84    0.84
   1   3   6   76.22    0.83
   2   2   3  116.53    0.84
   9   3   6   23.80    0.89
  12   0   0    1.38    0.50
  12   4  13    0.27    0.52
  13   1   2    2.06    0.62
  14   2   5   21.68    0.90
  15   1   3   29.27    1.04
  16   2   6    0.84    0.69
  18   0   3    0.28    0.69
  18   2   8    0.00    0.78
  19  -1   3    0.00    0.57
  20   0   5    0.97    0.83
  21  -1   5    2.34    0.65
   8   4  10    0.03    0.39
  10   2   3    3.10    0.45
  11   1   1    7.57    0.64
  12   4  12   -0.03    0.55
  15  -1   0   -0.08    0.52
  15   3   9    0.30    0.74
  17  -1   1   -0.84    0.61
   4   4   9   15.81    0.78
   5   3   5    1.39    0.48
   7   3   5    1.00    0.55
  10  -2  -2    9.33    0.39
  10   4  10   -0.11    0.44
  12   2   3  123.34    1.62
  12   4  11   -0.16    0.52
  13  -1  -1    0.49    0.41
  14   2   4    4.82    0.69
  14   4  13    0.14    0.53
  15   1   2    7.90    0.79
  15   3   8    0.22    0.76
  16   0   1   21.92    0.88
  16   2   5    0.82    0.67
  17   3  10    1.44    0.84
  18   2   7    0.06    0.80
  19  -1   2    2.63    0.59
  20   0   4    0.42    0.77
  21  -1   4    0.19    0.66
  21   1   7    1.24    0.73
  22   0   6    1.36    0.72
   3   3   5    2.38    0.47
   6   2   2  228.82    1.54
   7   1   0   30.12    0.65
   8   2   2   51.78    0.93
   9  -1  -2    4.38    0.45
  14   0   0    0.40    0.55
  14   4  12   -0.03    0.53
  17   3   9    0.28    0.84
  18   0   2    1.16    0.68
   9   1   0   11.27    0.57
  10   2   2    1.14    0.57
  12   0  -1    0.28    0.46
  13   3   6   -0.15    0.63
  14   4  11    0.09    0.53
  15   3   7    2.45    0.78
  16   2   4    2.12    0.66
  17  -1   0   15.21    0.84
  19   1   4    0.59    0.73
  20   0   3   -0.61    0.69
  21   1   6    5.31    0.88
  22   0   5   -0.64    0.74
   4   4   8   11.32    0.66
   6   4   8   23.23    0.78
   8   4   8    5.81    0.73
  11  -1  -2  282.55    1.60
  11   1   0    4.18    0.58
  12   2   2    3.45    0.68
  12   4   9   -0.01    0.47
  14   4  10    0.09    0.56
  15  -1  -1    1.41    0.52
  15   1   1    1.22    0.71
  16   0   0    2.67    0.70
  17   3   8    1.19    0.72
  19  -1   1    8.95    0.71
  20   2   7    0.74    0.88
   5   3   4    0.39    0.47
   7   3   4    8.06    0.55
   9   3   4    1.12    0.62
  10   4   8   19.07    0.88
  13   1   0   32.26    0.88
  13   3   5    2.00    0.63
  15   3   6    0.63    0.68
  17   3   7   -0.37    0.81
  18   0   1    1.86    0.58
  19   1   3   -0.42    0.79
  20   0   2   -1.04    0.71
  20   2   6    3.01    0.74
  22   0   4    0.24    0.70
   1   3   5  206.24    1.21
   8   2   1   32.65    0.83
   8   4   7    0.71    0.66
  12   4   8    2.00    0.70
  13  -1  -2    1.32    0.40
  14   0  -1   44.88    0.96
  14   2   2    2.94    0.77
  15   3   5   11.03    0.87
  16   2   3    0.19    0.64
  18   2   4    5.07    0.91
  21   1   4    0.96    0.82
   6   2   1  315.94    1.77
   6   4   7   16.77    0.72
  10   0  -2    8.57    0.51
  10   2   1    3.39    0.56
  10   4   7    2.28    0.62
  12   2   1    3.14    0.59
  13   3   4    5.91    0.71
  14   4   8   -0.01    0.79
  17  -1  -1   42.49    1.01
  17   3   6    9.41    1.00
  18   0   0    0.19    0.52
  19  -1   0    1.37    0.58
  19   1   2    1.32    0.73
  20   2   5    1.61    0.88
  22   0   3    0.46    0.74
   3   3   4    9.93    0.48
   4   4   7   42.67    0.84
   7   3   3   12.76    0.62
  11   1  -1    6.43    0.60
  11   3   3    8.02    0.74
  12   0  -2    7.89    0.58
  12   4   7    1.18    0.65
  15  -1  -2    3.00    0.61
  16   0  -1    0.97    0.62
  16   2   2   -0.25    0.71
  16   4   9   -0.16    0.59
  18   2   3    0.58    0.80
  21   1   3    0.69    0.78
   7   1  -1   36.70    0.61
   8   4   6    0.62    0.59
  10   4   6    2.67    0.64
  13   1  -1    0.26    0.58
  13   3   3    0.12    0.59
  15   3   4   13.38    0.90
  16   4   8    2.10    0.80
  17   1   0   14.44    0.88
  17   3   5   -0.41    0.74
  19   1   1    9.02    0.80
  19   3   6   -0.01    0.88
  20   2   4    1.68    0.77
  22   0   2    1.60    0.75
   5   3   3  136.34    1.28
   6   4   6   -0.10    0.51
  10   2   0   40.94    0.91
  12   4   6    3.15    0.73
  14   0  -2  144.04    1.57
  16   2   1   13.64    0.86
  17   3   4    0.69    0.74
  18   0  -1    3.66    0.65
  18   2   2    1.03    0.74
  20   0   0   20.93    0.89
  20   2   3   -0.39    0.89
  21   1   2    0.46    0.78
   4   4   6   38.09    0.87
   5   1  -1    6.62    0.31
   8   2   0    9.63    0.63
   9  -1  -3   31.22    0.54
  10   4   5    5.44    0.74
  11  -1  -3   87.30    0.90
  11   3   2    0.49    0.63
  11   5  10   -0.02    0.48
  12   2   0    0.18    0.62
  13  -1  -3    5.73    0.49
  13   5  11   -0.09    0.49
  14   4   6    2.26    0.79
  15   3   3   12.89    0.87
  16   0  -2   -0.36    0.66
  17  -1  -2    2.81    0.59
  19   3   5    0.99    0.85
  22   0   1    0.00    0.69
   7   3   2    2.24    0.50
   8   4   5    0.02    0.62
  12   4   5    3.46    0.76
  13   3   2   -0.38    0.63
  16   4   6    0.08    0.75
  17   1  -1   41.90    1.09
  18   2   1    0.57    0.72
  19   3   4    0.51    0.78
  20   2   2   -0.09    0.72
  21   1   1    0.04    0.77
   1   3   4    0.25    0.32
   3   3   3    1.45    0.41
   9   1  -2    4.15    0.51
  11   1  -2  274.34    1.87
  11   5   9    0.04    0.47
  12   0  -3    4.35    0.53
  13   1  -2    1.71    0.58
  13   5   9    0.04    0.52
  14   4   5    6.75    0.86
  15  -1  -3    5.36    0.55
  15   3   2    3.14    0.75
  16   2   0    2.83    0.70
  18   0  -2    1.12    0.67
  20   0  -1    3.05    0.69
  22   0   0    0.43    0.70
   5   3   2   20.39    0.67
  10   2  -1    4.03    0.57
  10   4   4   -0.24    0.66
  11   3   1    4.26    0.70
  11   5   8    0.02    0.52
  12   2  -1    0.97    0.58
  14   0  -3    3.96    0.63
  16   4   5   -0.52    0.87
  17   3   2    0.38    0.72
  19   1  -1    0.40    0.59
  19   3   3   -0.28    0.85
  20   2   1    2.18    0.93
  21   1   0    0.47    0.68
   4   4   5   15.94    0.67
   7   1  -2   16.86    0.54
   8   4   4   19.95    0.85
  13   3   1    1.10    0.60
  13   5   8    0.08    0.52
  14   2  -1   34.21    1.15
  14   4   4    0.96    0.75
  15   3   1    0.36    0.64
  16   0  -3    0.51    0.62
  17  -1  -3    2.25    0.59
  17   1  -2    2.72    0.69
  18   2   0    0.41    0.73
   6   4   4   -0.38    0.54
  11   5   7    0.19    0.62
  12   4   3   42.74    1.22
  16   2  -1    0.77    0.68
  19   3   2    0.77    0.84
  20   0  -2   -0.09    0.65
  22   0  -1    0.87    0.72
   9   5   7    3.63    0.63
  11   1  -3   88.65    1.17
  11   3   0    0.77    0.67
  13  -1  -4    4.42    0.47
  13   3   0   16.32    0.85
  13   5   7    0.14    0.57
  14   4   3   -0.71    0.80
  15   1  -3    4.72    0.69
  15   5   7    0.15    0.55
  17   3   1    0.00    0.73
  18   0  -3    2.55    0.65
  18   2  -1    3.47    0.77
  18   4   4    1.56    0.89
  19   1  -2   -0.26    0.66
  21   1  -1    0.21    0.69
  23   1   0    1.44    0.77
   6   2  -1    0.69    0.44
  11  -1  -4    0.15    0.33
  11   5   6    0.13    0.63
  12   0  -4   32.92    0.79
  13   5   6   -0.12    0.77
  14   0  -4    2.71    0.61
  14   2  -2   90.98    1.54
  15  -1  -4    5.30    0.52
  15   3   0   -0.08    0.66
  17   1  -3    3.17    0.66
  19   3   1    5.40    0.89
  22   0  -2    0.17    0.71
   4   4   4   13.91    0.65
   5   3   1    0.59    0.49
   9   1  -3   32.31    0.66
   9   5   6    5.59    0.69
  10   2  -2    9.23    0.52
  10   4   2    0.09    0.63
  12   4   2    1.29    0.68
  14   4   2    0.84    0.75
  15   5   6    0.26    0.73
  16   0  -4    2.85    0.67
  16   2  -2    0.34    0.61
  17   3   0    6.87    0.88
  18   4   3    0.20    0.83
  20   0  -3   -0.81    0.62
  21   1  -2    1.46    0.79
  22   2   0    0.99    0.83
  23   1  -1    0.93    0.72
   5   1  -2   78.38    0.72
   6   4   3    2.43    0.58
   8   2  -2   15.05    0.66
  10   0  -4    2.30    0.48
  11   5   5    3.65    0.70
  13   3  -1    0.10    0.69
  13   5   5    0.67    0.79
  15   3  -1    2.05    0.64
  18   0  -4    1.85    0.65
  18   2  -2    1.06    0.74
  19   1  -3   -0.35    0.69
  19   3   0    1.25    0.84
   9   5   5   -0.25    0.64
  11   3  -1    1.80    0.69
  12   4   1    0.62    0.76
  14   2  -3    1.77    0.81
  15   1  -4    6.48    0.69
  15   5   5    4.03    0.74
  17   3  -1   22.09    1.08
  18   4   2    0.26    0.85
  22   0  -3    1.21    0.69
  22   2  -1    0.37    0.81
  23   1  -2    0.33    0.63
   7   1  -3    3.06    0.44
   9   3  -1    2.06    0.62
  10   4   1    0.38    0.74
  11   1  -4    0.32    0.54
  12   2  -3    3.00    0.48
  13   5   4    1.23    0.81
  15   5   4    4.17    0.85
  16   2  -3    0.12    0.62
  16   4   1    4.73    0.88
  17   1  -4    1.97    0.63
  18   2  -3    1.16    0.67
  19   3  -1    0.67    0.81
  20   0  -4   -0.11    0.63
  21   1  -3    1.36    0.67
   4   4   3    1.16    0.52
   6   4   2   78.76    1.22
   8   0  -4   79.48    0.85
  10   2  -3    4.07    0.61
  13  -1  -5    0.08    0.44
  13   3  -2    0.04    0.68
  14   0  -5    3.93    0.61
  15  -1  -5    2.23    0.43
  15   3  -2    1.44    0.73
  16   0  -5    6.67    0.70
  18   4   1    0.24    0.75
  19   1  -4   -0.69    0.69
  22   2  -2    0.06    0.79
   4   2  -1   48.60    0.69
   5   3   0    0.99    0.54
   6   2  -2    1.85    0.47
   8   4   1    8.66    0.75
   9   1  -4    0.32    0.52
  11   3  -2  119.28    1.63
  12   0  -5    7.49    0.58
  12   4   0    0.77    0.64
  13   5   3   -1.05    0.83
  16   4   0    1.36    0.79
  17   3  -2    2.12    0.74
  18   0  -5    3.83    0.70
  19   3  -2    0.18    0.72
  21   1  -4    2.88    0.80
  22   0  -4    4.84    0.78
  23   1  -3    0.55    0.71
   2   4   4    7.94    0.43
   3   3   1  340.49    1.75
   8   2  -3  362.85    2.13
  11  -1  -5    0.19    0.37
  11   5   3    0.86    0.69
  14   2  -4    0.96    0.51
  15   1  -5    2.14    0.72
  16   2  -4    3.62    0.69
  17   1  -5    1.51    0.70
  18   4   0    0.06    0.80
  20   0  -5   -0.02    0.63
  22   2  -3   -0.09    0.80
   7   5   4    1.98    0.64
   9   3  -2   -0.01    0.62
   9   5   3   16.26    0.88
  13   3  -3    3.50    0.76
  13   5   2   -0.44    0.71
  15   3  -3    2.70    0.72
  15   5   2   -0.11    0.86
  16   4  -1    0.04    0.81
  17   3  -3    2.04    0.84
  19   1  -5   16.83    0.97
  20   2  -4   -0.21    0.81
  23   1  -4   -0.42    0.74
   1   3   2    0.35    0.37
   8   4   0    1.89    0.68
  10   2  -4    0.68    0.55
  11   1  -5    0.04    0.52
  11   3  -3   46.75    1.12
  11   5   2   -0.31    0.70
  12   4  -1    0.20    0.68
  16   0  -6   32.65    0.94
  18   0  -6    0.64    0.69
  18   4  -1   -0.08    0.96
  19   3  -3    0.88    0.82
  21   1  -5   -0.50    0.80
  22   2  -4    2.51    0.87
   4   4   2   -0.14    0.45
   5   1  -3  221.94    1.20
   7   5   3    1.89    0.69
  10   4  -1    2.63    0.74
  13   5   1    0.00    0.80
  14   0  -6    0.65    0.49
  14   2  -5    1.23    0.78
  15  -1  -6    6.93    0.56
  15   5   1   -0.47    0.91
  16   2  -5    5.44    0.74
  17   1  -6   12.28    0.85
  21   3  -3    0.25    0.85
   5   3  -1    1.42    0.56
   9   5   2   28.23    1.01
  11   5   1    1.03    0.77
  12   0  -6    0.24    0.48
  12   2  -5    3.22    0.68
  13  -1  -6   11.01    0.59
  13   3  -4    4.25    0.71
  14   4  -2   32.64    1.22
  15   3  -4    2.63    0.75
  16   4  -2    1.15    0.74
  17   3  -4    1.14    0.74
  18   4  -2    0.28    0.87
  19   3  -4    0.45    0.86
  20   2  -5   -0.14    0.72
  23   1  -5   -0.40    0.66
   6   2  -3   14.65    0.61
   8   2  -4   44.54    0.91
   9   1  -5  132.32    1.25
   9   3  -3   14.03    0.74
  15   5   0   -0.03    0.87
  21   1  -6    1.25    0.76
  21   3  -4    1.57    0.83
  22   2  -5    7.80    0.93
   4   2  -2   36.48    0.59
   6   4   0    2.21    0.61
   7   5   2   -0.14    0.64
   8   4  -1    4.75    0.70
   9   5   1    0.11    0.68
  10   2  -5    1.19    0.61
  10   4  -2    3.12    0.79
  11   3  -4    0.86    0.71
  13   5   0    4.26    0.86
  14   2  -6   -0.30    0.75
  14   4  -3   -0.16    0.75
  16   0  -7   37.17    1.00
  16   4  -3    0.08    0.84
  17   3  -5    0.38    0.81
  18   0  -7   -0.18    0.66
  18   4  -3    0.38    0.90
  20   2  -6    1.78    0.88
  23   1  -6    0.56    0.74
   4   4   1    2.42    0.50
  10   0  -6    0.77    0.49
  11  -1  -6   14.82    0.53
  11   5   0    1.38    0.75
  13   3  -5   -0.39    0.65
  14   0  -7   22.34    0.88
  15   1  -7    1.36    0.78
  15   3  -5    1.20    0.69
  15   5  -1    0.33    0.80
  17   1  -7   -0.49    0.66
  19   1  -7    1.92    0.78
  19   3  -5    9.56    0.92
  21   3  -5   -0.49    0.88
   9   3  -4    0.38    0.64
  12   2  -6    1.62    0.65
  13   5  -1   -0.22    0.80
  16   4  -4    0.86    0.79
  18   4  -4    0.77    0.92
  21   1  -7    1.08    0.72
   5   3  -2   28.99    0.81
   6   4  -1    1.03    0.64
   7   5   1    1.66    0.65
   8   4  -2    5.74    0.77
   9   5   0    0.59    0.69
  10   4  -3    1.98    0.75
  11   3  -5   -0.66    0.76
  11   5  -1    0.51    0.82
  12   0  -7   28.93    0.78
  13   1  -7   89.77    1.40
  14   4  -4   -0.44    0.83
  15   5  -2    0.19    0.92
  16   2  -7   29.58    1.11
  17   3  -6    5.24    0.94
  19   3  -6    5.84    1.00
  20   2  -7    3.93    0.92
  23   1  -7    1.06    0.78
   1   3   1    0.68    0.36
   2   4   2   17.90    0.55
   7   1  -5    9.28    0.44
   8   2  -5    3.54    0.58
   9   1  -6   13.26    0.70
  10   2  -6    1.93    0.55
  13   5  -2   -0.25    0.71
  14   2  -7   17.31    0.98
  14   6   1    0.28    0.75
  17   1  -8    8.61    0.77
  18   0  -8    0.54    0.63
  18   4  -5    1.70    1.01
  19   1  -8    2.43    0.73
  20   0  -8    0.02    0.57
  21   1  -8   -0.53    0.85
  21   3  -6   -0.20    0.79
  22   2  -7   -0.50    0.84
   3   3  -1   45.10    0.79
   4   4   0    0.63    0.48
   5   1  -4  498.67    1.90
  12   6   1    0.87    0.76
  13   3  -6    4.77    0.67
  15   1  -8    2.10    0.74
  16   4  -5    3.20    0.90
  23   1  -8    0.12    0.76
   4   2  -3   -0.03    0.41
   7   3  -4    0.80    0.55
   7   5   0    3.37    0.69
   8   4  -3  111.91    1.60
   9   3  -5   52.74    1.16
  14   0  -8    5.00    0.67
  14   4  -5    1.32    0.75
  14   6   0   -0.23    0.79
  15   3  -7   -0.46    0.73
  15   5  -3   -0.22    0.86
  17   3  -7   -0.08    0.78
  18   2  -8    0.81    0.77
  20   2  -8    0.14    0.79
  21   3  -7    0.39    0.92
  22   2  -8   -0.41    0.85
   6   4  -2    0.56    0.61
   8   0  -6    8.80    0.50
  10   0  -7   68.78    0.98
  11   3  -6    5.56    0.80
  12   4  -5    3.09    0.78
  13   1  -8   38.35    1.04
  13   5  -3    0.70    0.83
  14   2  -8    4.34    0.88
  16   4  -6    8.58    1.04
  18   4  -6   -0.02    0.97
  19   1  -9    0.72    0.69
   2   4   1    7.17    0.56
   5   3  -3   91.92    1.19
   5   5   1    0.28    0.61
   8   2  -6   10.81    0.63
   9   5  -2    0.02    0.72
  11  -1  -7   17.36    0.54
  11   5  -3   12.26    1.00
  12   0  -8   41.65    0.90
  12   6   0   -0.12    0.76
  13   3  -7   43.91    1.23
  14   4  -6   -1.04    0.81
  14   6  -1    3.15    0.74
  15   5  -4    0.90    0.94
  17   1  -9    0.98    0.59
  17   3  -8    4.27    0.85
  18   0  -9    0.51    0.68
  18   2  -9   -0.49    0.88
  19   3  -8   -0.17    0.95
  20   2  -9    0.77    0.83
  23   1  -9    1.26    0.83
   4   4  -1    9.62    0.63
   6   2  -5   98.15    1.16
   7   5  -1    0.53    0.75
   9   1  -7   59.15    1.00
  10   2  -7   50.35    0.98
  12   2  -8   24.49    0.96
  13   5  -4    1.95    0.88
  15   1  -9    8.99    0.82
  15   3  -8    1.23    0.77
  18   4  -7    0.86    1.00
  22   2  -9   -0.12    0.93
   1   3   0    1.75    0.45
   3   3  -2   21.94    0.72
   7   1  -6   44.10    0.74
   7   3  -5    3.78    0.59
   8   4  -4   18.44    0.98
   9   3  -6    3.61    0.71
  12   6  -1    0.26    0.80
  13  -1  -8   35.51    0.81
  14   0  -9   10.10    0.75
  14   6  -2    6.76    0.83
  15   5  -5    1.11    0.98
  16   4  -7   11.63    1.11
  19   1 -10    0.73    0.75
  21   1 -10    5.26    0.92
   5   5   0    0.01    0.57
   6   4  -3    3.59    0.66
   9   5  -3    2.46    0.74
  11   5  -4    0.15    0.78
  13   1  -9    0.45    0.68
  13   3  -8   17.73    0.98
  14   2  -9    5.88    0.80
  14   4  -7    4.39    0.93
  17   1 -10    4.41    0.75
  17   3  -9    0.88    0.89
  18   0 -10    6.46    0.91
  18   2 -10    6.30    0.85
  19   3  -9   -0.31    0.87
  20   2 -10   -0.39    0.99
  22   2 -10    0.59    0.80
  23   1 -10    0.09    0.74
   5   1  -5   94.32    0.93
  12   6  -2    0.56    0.80
  13   5  -5   -0.86    0.79
  14   6  -3   -0.03    0.72
  15   1 -10   10.25    0.81
  15   3  -9    4.01    0.84
  16   4  -8    1.35    0.92
   2   4   0    0.42    0.48
   4   4  -2    9.94    0.64
   8   2  -7    1.61    0.63
   8   4  -5    0.31    0.74
   9   3  -7   22.40    0.88
  10   0  -8  108.18    1.22
  11   3  -8    6.39    0.81
  12   0  -9   15.55    0.74
  12   4  -7    4.52    0.83
  19   3 -10   -0.68    0.93
  21   1 -11    4.68    0.91
   5   5  -1    0.66    0.59
   6   2  -6   24.95    0.80
   6   4  -4   36.43    1.06
   7   3  -6   17.22    0.81
   8   0  -7    7.74    0.52
   9   1  -8    1.80    0.59
   9   5  -4   -0.30    0.75
  10   6  -2    0.64    0.83
  11   5  -5    0.60    0.73
  12   6  -3   -0.61    0.81
  13   5  -6    1.22    0.92
  14   4  -8    0.99    0.82
  17   1 -11   -0.53    0.82
  17   3 -10    2.93    0.91
  18   2 -11    5.81    0.91
  18   4  -9   -0.80    1.01
  19   1 -11    4.54    0.73
  20   2 -11    0.18    0.96
  22   2 -11   -0.10    0.87
  23   1 -11    0.16    0.72
   7   1  -7   15.46    0.67
   7   5  -3    0.17    0.69
  11  -1  -8   14.85    0.55
  13   1 -10    9.01    0.82
  14   0 -10    2.49    0.65
  16   4  -9    0.35    0.92
   1   3  -1    0.26    0.45
   3   3  -3   39.20    0.84
   8   4  -6    3.10    0.81
  10   2  -9   57.27    1.25
  10   6  -3    1.33    0.83
  11   5  -6    0.70    0.81
  12   4  -8    7.08    0.85
  12   6  -4    0.42    0.87
  13  -1  -9    1.09    0.42
  13   5  -7   12.82    0.99
  14   4  -9    3.17    0.89
  16   2 -11    3.41    0.80
  18   4 -10    1.94    0.87
  19   3 -11    1.53    0.99
  21   1 -12    0.74    0.74
   2   2  -3    6.94    0.41
   2   4  -1    1.66    0.52
   3   1  -4   80.95    0.76
   4   4  -3    1.05    0.56
   5   5  -2    3.29    0.68
   8   2  -8   20.13    0.84
   9   3  -8    1.02    0.73
   9   5  -5   10.79    0.94
  11   3  -9    3.73    0.86
  12   2 -10   -1.21    0.78
  13   3 -10    3.48    0.79
  16   4 -10   -0.08    0.97
  17   3 -11    0.12    0.80
  18   2 -12   13.98    1.04
  19   1 -12    0.36    0.78
  20   2 -12    0.48    1.01
   4   2  -5   40.50    0.72
   5   1  -6    0.25    0.45
   6   4  -5   26.52    0.99
   7   3  -7    6.19    0.72
   7   5  -4    0.27    0.70
  10   0  -9   79.93    1.11
  11   1 -10   18.83    0.89
  12   0 -10   -0.54    0.57
  12   4  -9    2.89    0.78
  15   3 -11    1.06    0.92
  17   1 -12    0.28    0.77
   6   2  -7    0.56    0.60
   8   4  -7    1.12    0.77
   9   5  -6   -0.23    0.76
  10   6  -4   -0.38    0.85
  11   5  -7    0.68    0.88
  13   1 -11    0.37    0.72
  13   5  -8    4.95    1.06
  14   4 -10    2.23    0.91
  16   2 -12    2.20    0.79
  17   3 -12    0.03    0.92
  20   2 -13    0.08    0.91
  21   1 -13    0.72    0.82
   3   3  -4   25.15    0.79
   5   5  -3   19.27    0.91
   7   1  -8   86.38    1.17
   8   0  -8   39.84    0.78
   9   3  -9    6.20    0.81
  10   2 -10    1.57    0.69
  11   3 -10   11.35    0.87
  12   2 -11    5.95    0.94
  13   3 -11   -0.11    0.77
  15   1 -12   33.14    1.14
  16   4 -11   -0.14    1.03
  18   2 -13    0.09    0.88
  19   1 -13    2.58    0.85
   4   4  -4    3.61    0.65
   6   4  -6    6.25    0.79
   7   5  -5    0.76    0.75
   8   2  -9   15.33    0.78
  10   4  -9   16.40    0.97
  10   6  -5   -0.11    0.84
  11  -1  -9   12.43    0.57
  11   5  -8    1.60    0.83
  12   4 -10   -0.42    0.84
  12   6  -6    0.10    0.74
  13   5  -9    0.35    1.02
  15   3 -12   17.60    1.10
  16   0 -12    3.43    0.76
  17   1 -13   -0.55    0.78
   1   3  -2   86.61    1.00
   2   4  -2    3.98    0.52
   7   3  -8   34.90    1.06
   8   6  -4    4.47    0.84
   9   5  -7    6.56    0.91
  11   1 -11    1.39    0.67
  13   1 -12    8.44    0.81
  14   4 -11    0.34    0.87
  16   2 -13    1.00    0.79
  16   4 -12    1.24    0.94
  17   3 -13    0.10    0.94
  20   2 -14    0.31    0.79
  21   1 -14    0.32    0.77
   4   2  -6    3.86    0.55
   5   5  -4   45.19    1.23
   7   5  -6    2.24    0.83
  10   0 -10    0.71    0.58
  10   6  -6    0.14    0.72
  11   3 -11    1.10    0.67
  12   0 -11    6.61    0.66
  12   2 -12    5.05    0.84
  12   6  -7    0.87    0.89
  14   0 -12    0.46    0.62
  15   1 -13   16.44    0.91
  18   2 -14    0.34    0.84
  19   1 -14    0.92    0.87
   2   2  -4  225.28    1.42
   3   1  -5   55.84    0.70
   4   4  -5    8.09    0.75
   5   3  -7    5.04    0.65
   6   4  -7    0.12    0.68
   9   3 -10    7.22    0.93
  10   2 -11   14.86    0.88
  10   4 -10    0.62    0.81
  11   5  -9    1.70    0.89
  12   4 -11    1.34    0.88
  13   5 -10    0.27    0.94
  14   4 -12    0.35    0.95
  15   3 -13    8.59    0.95
  15   5 -11   -0.81    1.02
  16   0 -13    1.18    0.79
  17   1 -14   -0.38    0.86
   0   4   0  308.90    1.80
   2   4  -3    1.13    0.58
   3   3  -5   21.58    0.83
   7   1  -9  113.91    1.37
   7   3  -9   57.58    1.28
   8   0  -9   15.21    0.66
   8   2 -10   43.73    1.07
   8   6  -5    0.51    0.85
   9   5  -8    0.95    0.76
  12   6  -8    0.95    0.90
  16   2 -14    3.38    0.88
  16   4 -13    0.87    1.04
  17   3 -14    0.33    0.85
  20   2 -15    1.78    0.82
  21   1 -15    0.77    0.82
   5   5  -5   13.85    0.93
   7   5  -7    0.46    0.78
  10   6  -7    2.34    0.80
  11   1 -12    9.06    0.80
  11   3 -12    4.30    0.84
  11   5 -10    1.94    0.89
  13   1 -13    0.22    0.75
  13   3 -13    1.08    0.89
  15   3 -14    0.50    0.85
   1   3  -3    1.12    0.51
   3   5  -3    6.68    0.69
   4   2  -7   28.47    0.82
   6   2  -9   18.34    0.80
   6   4  -8    8.33    1.01
   8   6  -6    0.57    0.85
   9   3 -11    1.18    0.86
   9   5  -9    1.63    0.80
  10   2 -12    9.05    0.89
  10   4 -11    3.83    0.86
  11  -1 -10   19.51    0.65
  12   0 -12    6.28    0.72
  12   2 -13   47.28    1.28
  12   6  -9    0.29    0.92
  15   1 -14    2.46    0.70
  16   4 -14    1.54    0.95
   4   4  -6    0.83    0.66
   5   3  -8    4.57    0.71
  10   0 -11   27.33    0.80
  10   6  -8    6.32    0.99
  16   0 -14    4.30    0.84
  16   2 -15    2.19    0.84
  17   1 -15    1.98    0.81
   0   4  -1    3.53    0.48
   2   2  -5  363.78    1.88
   2   4  -4   56.83    1.04
   3   3  -6   84.55    1.25
   6   0  -8   54.18    0.84
   7   5  -8    8.51    0.94
   8   6  -7    0.80    0.76
  11   3 -13    3.42    0.88
  11   5 -11    0.73    0.95
  12   4 -13   16.40    1.13
  13   3 -14    0.22    0.89
  14   4 -14    0.40    0.95
  15   3 -15    1.40    0.94
  18   2 -16    0.33    1.02
  19   1 -16    1.09    0.83
   3   1  -6  217.47    1.38
   3   5  -4    6.41    0.71
   6   4  -9    5.28    0.94
   7   1 -10  140.10    1.50
   8   0 -10   59.26    1.04
   9  -1  -9   15.17    0.53
   9   3 -12    2.46    0.80
   9   5 -10    0.94    0.86
  10   4 -12    3.09    0.85
  10   6  -9    1.64    1.00
  11   1 -13    8.63    0.82
  12   2 -14    8.68    1.03
  13   1 -14    0.92    0.73
  14   2 -15    1.27    0.89
  15   1 -15    0.44    0.74
   1   3  -4    6.75    0.56
   4   4  -7    7.23    0.77
   5   3  -9   50.22    1.13
   6   2 -10   -0.11    0.67
   7   5  -9   15.30    1.06
  10   2 -13   -0.75    0.90
  11   5 -12    2.29    1.02
  12   0 -13   64.55    1.25
  16   2 -16    0.31    0.79
  17   1 -16    0.86    0.83
   4   2  -8   68.44    1.04
   5   5  -7    1.01    0.68
   7   3 -11   21.64    1.06
   8   2 -12   16.90    0.93
   8   6  -8    0.92    0.81
   9   5 -11    0.26    0.87
  10   6 -10    0.91    0.75
  11  -1 -11    1.20    0.51
  11   3 -14   -0.57    0.82
  12   4 -14    5.13    1.01
  13   3 -15   11.61    1.04
  14   4 -15   -0.83    1.00
  15   3 -16    0.36    1.01
  16   0 -15    3.26    0.81
  18   2 -17    1.96    0.80
  19   1 -17    0.31    0.86
  -1   3  -1    0.69    0.45
   0   4  -2   -0.12    0.51
   2   4  -5  116.90    1.50
   3   5  -5    2.01    0.68
   6   4 -10   -0.77    0.79
   9   3 -13    9.73    0.89
  10   4 -13    0.58    0.81
  11   1 -14    0.91    0.70
  13   1 -15   23.59    1.01
  13   5 -14    0.00    1.16
  14   2 -16    1.22    0.93
  15   1 -16    0.49    0.81
  16   2 -17   -0.12    0.83
   2   2  -6   24.64    0.70
   4   4  -8   18.60    0.94
   5   1  -9  111.98    1.27
   5   5  -8    1.44    0.79
   7   1 -11   56.66    1.12
   7   5 -10   12.92    1.04
   8   4 -12    4.71    0.88
   8   6  -9    0.50    0.91
  10   2 -14    8.93    0.95
  10   6 -11    1.31    0.92
  11   5 -13    1.50    0.92
  12   4 -15    0.43    0.93
  13   3 -16   -0.58    0.85
  14   4 -16    0.49    1.03
  15   3 -17    0.47    0.86
  17   1 -17   10.49    1.03
  18   2 -18    0.10    0.79
   1   3  -5    3.30    0.60
   4   2  -9   14.33    0.81
   5   3 -10    3.41    0.76
   6   0  -9   23.45    0.69
   7   3 -12   -0.35    0.88
   8   0 -11    3.62    0.62
   9  -1 -10   19.93    0.60
   9   5 -12    0.64    0.82
  10   4 -14    3.70    0.94
  11   3 -15    0.43    0.84
  12   0 -14   13.36    0.87
  14   0 -15    0.74    0.77
  19   1 -18   -0.64    0.94
   2   4  -6    7.09    0.75
   3   1  -7    8.20    0.43
   3   5  -6   14.50    0.84
   6   6  -8    0.65    0.88
   8   2 -13    1.49    0.57
   8   6 -10    1.57    0.93
   9   3 -14   37.46    1.24
  13   1 -16    0.48    0.71
  14   2 -17    6.96    0.94
  15   1 -17    1.11    0.81
  16   2 -18    1.49    0.95
   0   4  -3    1.02    0.47
   5   5  -9    8.40    0.88
   7   1 -12    0.51    0.57
   8   4 -13   -0.46    0.76
   9   5 -13    3.35    1.01
  10   0 -13   -0.01    0.64
  10   2 -15   10.04    0.91
  10   6 -12   -0.43    0.90
  11  -1 -12    7.38    0.62
  11   1 -15    0.32    0.78
  11   3 -16    0.67    0.79
  12   4 -16    0.29    1.01
  13   3 -17    1.23    0.91
  14   4 -17    1.92    0.92
  15   3 -18   -0.54    1.07
  17   1 -18    1.34    0.91
  18   2 -19    2.44    0.88
  -1   3  -2    0.62    0.49
   2   2  -7    5.55    0.62
   3   5  -7    1.42    0.76
   5   1 -10    7.57    0.74
   6   2 -12    5.98    0.80
   6   6  -9    0.15    0.90
   7   3 -13    0.72    0.87
   9   1 -14   85.22    1.45
  10   4 -15    4.73    0.88
  14   0 -16    1.49    0.82
   1   3  -6   43.95    1.01
   2   4  -7    1.87    0.69
   4   2 -10  225.95    1.99
   4   4 -10   77.74    1.62
   5   5 -10   -0.48    0.77
   6   0 -10    1.63    0.60
   7   5 -12   -0.13    0.87
   8   0 -12   22.08    0.79
   8   2 -14    1.04    0.86
   8   4 -14    1.03    0.84
   9   3 -15    2.27    0.77
   9   5 -14   10.21    1.04
  12   4 -17    1.18    0.87
  13   1 -17    0.66    0.76
  14   2 -18   11.01    0.95
  15   1 -18    1.87    0.81
  16   2 -19    0.26    0.92
   0   4  -4    7.43    0.56
   3   1  -8    6.74    0.57
   8   6 -12    0.66    0.87
   9  -1 -11    2.19    0.47
  10   0 -14   13.21    0.86
  10   2 -16   11.63    0.97
  10   4 -16    3.73    0.99
  11   1 -16   -0.34    0.82
  11   3 -17    1.21    0.85
  13   3 -18   -0.37    0.85
  17   1 -19    0.54    0.87
   2   2  -8   82.02    1.14
   2   4  -8   20.80    0.98
   3   5  -8    1.60    0.72
   5   3 -12   13.72    0.94
   6   2 -13    6.11    0.79
   6   6 -10   -1.51    0.77
   7   3 -14    3.41    0.69
   7   5 -13   -0.74    0.86
   9   3 -16    6.08    0.86
  14   2 -19   -0.67    0.82
  -1   3  -3    7.43    0.52
   1   3  -7   51.42    1.04
   4   2 -11   16.90    0.85
   4   4 -11    4.74    0.93
   5   1 -11   13.98    0.61
   5   5 -11    1.73    0.76
   8   4 -15   -0.59    0.83
   9   1 -15    3.91    0.83
   9   5 -15    0.04    0.96
  11  -1 -13    7.57    0.57
  12   0 -16    0.62    0.77
  12   2 -18    0.64    0.83
  12   4 -18    1.17    1.00
  13   1 -18    0.99    0.72
  13   3 -19   -0.88    0.92
  14   0 -17    8.01    0.78
  15   1 -19    0.61    0.91
  16   2 -20   -0.18    0.74
   0   4  -5   23.20    0.79
   3   5  -9    1.36    0.72
   5   3 -13    2.40    0.81
   6   6 -11    0.42    0.86
   7   3 -15    2.00    0.80
   7   5 -14    2.91    0.98
   8   0 -13    2.00    0.56
  10   2 -17    0.48    0.78
  10   4 -17    0.64    0.89
  11   1 -17    1.20    0.71
  11   3 -18    8.48    1.03
  17   1 -20    0.21    0.84
   1   5  -6    6.12    0.74
   2   4  -9    5.47    0.84
   3   1  -9   22.16    0.75
   5   5 -12    2.70    0.89
   6   0 -11   27.01    0.81
   6   2 -14   16.62    0.98
   8   4 -16    0.56    0.95
   9   3 -17    1.54    0.92
   9   5 -16    1.44    0.96
  10   0 -15   15.64    0.84
  14   2 -20    1.44    0.88
  16   2 -21    0.54    0.91
   8   2 -16    0.38    0.48
   4   0  15   10.54    0.88
   6   0   8  104.99    1.44
   9  -1  -2    4.06    0.64
   9  -1  17   -0.25    0.67
  11  -1   2    0.49    0.75
  11  -1  12   -0.41    0.86
  14  -2  -1   34.23    1.10
  14  -2  14    3.92    1.22
   6   0   7   77.76    1.16
   6   0  11    0.74    0.64
   9  -1  18    0.23    0.66
  12  -2  -5    3.64    0.62
  12  -2  19   -0.05    0.72
  14  -2  15    3.68    1.24
  17  -3  -1   19.96    1.04
   4   0  16   20.05    0.89
   6   0   5   51.53    0.90
   6   0  13    8.74    0.85
   7  -1  21   -0.09    0.67
   9  -1  19    0.55    0.70
  11  -1  15    0.32    0.84
  16  -2   7   -0.13    1.03
  16  -2   8    3.46    1.08
  16  -2   9    0.34    1.06
  16  -2  10   15.60    1.24
  17  -3  -2    1.68    0.76
   6   0   4    6.32    0.58
   6   0  14   -0.02    0.75
  11  -1   0    4.19    0.68
  11  -1  16   -0.23    0.71
  13  -1   6   -0.25    1.00
  13  -1   7    1.89    1.07
  13  -1   8    8.14    0.97
  13  -1   9   24.22    1.19
  13  -1  10   26.34    1.30
  16  -2   2    0.44    0.79
  16  -2   3    1.02    0.82
  16  -2  11    2.76    1.11
  16  -2  12    0.79    1.09
  19  -3   5    0.48    1.01
  19  -3   6   -0.56    0.90
  19  -3   7    0.71    0.96
   6   0   3    1.32    0.50
   6   0  15    0.52    0.76
   8   0   9   38.85    1.11
   9  -1  20   -0.02    0.76
  11  -1  -1    6.30    0.71
  11  -1  17   -0.61    0.68
  13  -1   4   15.14    1.02
  13  -1   5    4.12    0.65
  13  -1  11    7.78    1.07
  13  -1  12   -0.59    0.96
  16  -2  14    2.67    1.01
  19  -3   2    1.51    1.00
  19  -3   3    1.00    0.95
  19  -3   4    0.16    0.91
   6   0  16    0.54    0.78
   8   0   6    0.74    0.71
   8   0   8   45.15    1.04
   8   0  11   13.19    0.94
   8   0  12    0.33    0.82
   9  -1  21    0.31    0.69
  11  -1  18   -0.15    0.77
  13  -1  13   -0.67    1.01
  14  -2  -4    0.40    0.70
  16  -2   0    3.38    0.88
  19  -3   1    4.80    1.04
   6   0   2  385.20    1.95
   8   0   5    0.63    0.68
   8   0  13  119.10    1.93
   8   0  14    0.73    0.84
  11  -1  -2  275.07    2.06
  13  -1   1    4.32    0.72
  16  -2  -1    1.03    0.84
  19  -3   0    1.05    0.91
   8   0   4  112.43    1.42
   8   0  15    0.98    0.88
   9  -1  -4    0.40    0.42
  11  -1  20    0.09    0.73
  13  -1  16    2.51    0.97
  15  -1   8    1.27    0.85
  16  -2  -2    0.53    0.82
  18  -2   4    6.01    1.00
  18  -2   5    9.74    1.15
  18  -2   8    0.12    0.94
  18  -2   9    0.32    1.09
  18  -2  10   -0.01    1.08
  18  -2  11    0.39    1.19
   8   0   3   19.88    0.84
   8   0  16    0.59    0.81
  10   0   8   78.95    1.52
  10   0   9   61.03    1.41
  10   0  10   -0.25    0.82
  11  -1  21    0.03    0.61
  13  -1  17   -0.07    0.69
  13  -1  18    0.00    0.75
  14  -2  -5    1.48    0.55
  15  -1   7    6.61    0.93
  15  -1  10   -1.31    0.93
  15  -1  11    5.92    1.04
  15  -1  12    4.55    1.10
  18  -2   2    0.95    0.83
  18  -2   3    1.32    0.89
   6   0   1  435.16    1.93
   8   0  17    0.57    0.66
  10   0   6   16.17    0.94
  10   0   7   11.02    0.72
  10   0  13    2.36    0.93
  11  -1  -3   90.66    1.25
  13  -1  -1    0.92    0.64
  13  -1  19    0.52    0.77
  15  -1  13    0.15    0.92
  15  -1  14    6.53    1.21
  16  -2  -3    0.07    0.70
  18  -2   1    1.75    0.86
  21  -3   3    1.07    0.87
   8   0   2   97.35    1.27
   8   0  18   -0.17    0.52
  10   0   5   35.01    1.06
  10   0  14    7.61    0.88
  10   0  15    8.67    0.96
  15  -1   2    8.81    1.02
  18  -2   0   -0.27    0.76
  21  -3   1   -0.56    0.87
  21  -3   2    0.03    0.75
   8   0  19   -0.22    0.54
  10   0   4   10.20    0.68
  10   0  16   17.45    1.14
  13  -1  -2    0.90    0.63
  16  -2  -4    2.12    0.69
  18  -2  -1    2.78    0.79
  20  -2   6    2.53    0.94
  20  -2   7    1.04    1.11
   6   0   0   17.90    0.48
   8   0   1   69.63    1.09
  10   0   3    1.04    0.68
  10   0  17    5.70    0.89
  11  -1  -4    0.41    0.49
  12   0   7    2.89    0.88
  12   0   8   17.26    1.14
  12   0   9    2.83    0.89
  12   0  10    4.14    0.87
  12   0  11   13.73    1.00
  15  -1   0   -0.28    0.77
  17  -1   6   20.13    1.31
  17  -1   8    2.13    1.00
  17  -1   9    2.29    1.03
  17  -1  10    1.15    0.96
  17  -1  11    1.08    1.10
  17  -1  12   -0.39    1.09
  17  -1  13   -0.54    1.15
  20  -2   3   -0.70    1.00
  20  -2   4    1.54    1.03
  20  -2   5    1.13    1.02
  10   0   2    2.11    0.68
  10   0  18   -0.06    0.55
  10   0  19   -0.02    0.65
  12   0   5   22.54    1.07
  12   0   6   17.66    0.82
  12   0  14    1.09    0.89
  12   0  15    4.03    0.94
  13  -1  -3    5.71    0.69
  17  -1   3    3.57    0.98
  17  -1  14    0.40    1.12
  20  -2   2   -0.44    0.96
   8   0   0   29.61    0.75
  12   0   4   17.27    1.00
  12   0  16    1.44    0.91
  15  -1  -1    2.08    0.78
  17  -1   2    0.63    0.79
  18  -2  -3    1.86    0.75
  20  -2   1    2.98    0.97
  10   0   1    4.23    0.69
  10   0  20   -0.12    0.56
  12   0   3  176.62    2.03
  12   0  17    2.21    0.83
  12   0  18   -0.01    0.64
  14   0   7    0.38    0.74
  14   0   8    2.12    0.85
  14   0   9   18.62    1.19
  14   0  10    3.26    0.96
  14   0  11    1.58    0.94
  14   0  12    4.30    0.98
  15  -1  -2    3.95    0.80
  17  -1   1    0.81    0.76
  19  -1   9    0.77    1.21
  20  -2   0   15.87    1.11
  11  -1  -5    0.29    0.43
  12   0   2    9.66    0.81
  12   0  19    0.18    0.70
  13  -1  -4    5.19    0.58
  14   0   5   37.05    1.38
  14   0   6    7.23    1.08
  14   0  15    7.56    1.12
  17  -1   0   16.40    1.10
  19  -1   7    2.41    1.10
  19  -1   8    1.03    0.93
  19  -1  10    0.40    1.01
  20  -2  -1    2.08    0.91
   3   1  12    0.36    0.53
   3   1  13   10.63    0.66
   9  -1  -6   12.74    0.52
  12   0  20   -0.06    0.71
  14   0   4    9.63    1.00
  14   0  16   -0.28    1.07
  14   0  17   -0.17    1.08
  15  -1  -3    4.92    0.85
  19  -1   4   -0.16    0.97
  20  -2  -2    0.90    0.75
  22  -2   3    0.88    0.91
   1   1  12    0.89    0.53
   3   1  11   47.80    0.89
   3   1  14    6.81    0.55
   3   1  15    1.07    0.51
   5   1  11    0.15    0.53
   5   1  12   94.87    1.37
   5   1  15    6.29    0.76
  12   0   1   10.24    0.78
  12   0  21    0.24    0.66
  14   0   3    0.42    0.81
  14   0  18   -0.32    0.74
  16   0   8    6.78    1.00
  16   0   9    0.78    1.00
  16   0  10   24.26    1.38
  16   0  11    2.46    1.05
  16   0  12    2.08    0.96
  19  -1   3    0.23    0.84
  22  -2   1    0.48    0.87
  22  -2   2    1.06    0.84
   1   1  11   -0.27    0.41
   3   1   9    2.05    0.49
   7   1  11    0.93    0.68
   7   1  13   -0.02    0.72
   7   1  14    0.18    0.76
   7   1  15   48.48    1.31
  13  -1  -5   -0.26    0.56
  14   0   2    4.21    0.83
  16   0   6   -0.12    0.89
  16   0   7    0.21    0.84
  16   0  13    0.04    0.98
  16   0  15    0.75    1.00
  19  -1   1   10.23    1.04
  22  -2   0    0.73    0.75
   3   1   8   92.34    1.07
   5   1   8    4.36    0.59
   7   1  16    1.57    0.74
   9   1  10    5.59    0.80
   9   1  11   15.34    0.96
   9   1  12    9.02    0.91
   9   1  13    2.35    0.81
  15  -1  -4    5.47    0.73
  16   0   4    2.76    0.80
  16   0   5    0.67    0.81
  16   0  16    0.45    1.12
  19  -1   0    1.63    0.77
  21  -1   5    3.37    1.05
   7   1   7   38.49    1.01
   7   1  17    2.24    0.80
   9   1   8    0.35    0.64
   9   1  14    2.16    0.80
   9   1  15    0.28    0.79
   9   1  16    1.07    0.81
  16   0   3    1.27    0.78
  17  -1  -3    3.55    0.80
  18   0   9   -0.73    1.02
  18   0  10    1.28    0.99
  18   0  11    0.28    0.98
  18   0  12    0.87    0.99
  21  -1   3   -0.39    0.95
  21  -1   4    1.24    1.07
   3   1   7   37.17    0.71
   5   1   6    5.32    0.59
   7   1   6   85.03    1.29
   9   1   7   44.69    1.13
   9   1  17    0.34    0.77
  10   0  -2    8.03    0.67
  11   1  11   15.54    1.07
  11   1  12    0.70    0.80
  11   1  13   11.36    0.95
  11   1  14   28.92    1.26
  12   0  -1    0.98    0.60
  18   0   6    8.54    1.10
  18   0   7   -0.15    0.99
  18   0   8   -0.48    0.98
  19  -1  -1    0.68    0.79
  21  -1   2   -0.74    0.99
   9   1  18   15.69    0.99
  11   1   8   10.16    0.91
  11   1   9    3.41    0.67
  11   1  15    1.18    0.85
  11   1  16    0.75    0.86
  15  -1  -5    1.92    0.64
  17  -1  -4    1.68    0.76
  18   0   5   15.17    1.12
  19  -1  -2    0.35    0.72
  21  -1   1    0.59    0.99
   5   1   5    5.54    0.56
   7   1   5    8.09    0.70
   9   1   5    1.66    0.67
  11   1   6    4.20    0.82
  11   1   7    6.09    0.81
  11   1  17    0.37    0.75
  11   1  18    0.24    0.94
  12   0  -2    8.21    0.72
  13   1   9   26.18    1.14
  13   1  10   27.16    1.25
  13   1  12    0.40    0.91
  13   1  13    0.45    0.88
  13   1  14    0.24    0.91
  14   0  -1   49.09    1.24
  21  -1   0    0.11    0.90
  11   1   5   45.37    1.19
  11   1  19    4.66    0.90
  13   1   7    3.49    0.89
  13   1   8    8.37    0.97
  13   1  15    3.51    0.87
  13   1  16   11.24    1.25
  13   1  17    0.72    1.04
  16   0   0    2.80    0.92
  18   0   2    1.54    0.87
  19  -1  -3    1.02    0.73
  20   0   6    3.64    0.93
  20   0   7    2.06    1.14
  20   0   8   -0.30    1.09
  20   0   9    0.20    0.98
  21  -1  -1    0.77    0.88
   7   1   4   12.98    0.58
   8   0  -3  521.40    2.15
   9   1   4    2.76    0.71
  10   0  -3    2.59    0.52
  13   1  18    1.35    0.96
  15  -1  -6    5.52    0.61
  15   1  11    5.36    1.04
  15   1  13    0.52    1.02
  15   1  14    6.02    1.06
  18   0   1    2.12    0.80
  23  -1   2    0.36    0.89
   5   1   4    3.55    0.50
  11   1   4   22.32    0.95
  12   0  -3    4.10    0.62
  13   1   5    4.32    0.88
  13   1  19   -0.75    0.90
  15   1   7    6.42    0.94
  15   1   9    1.24    0.88
  15   1  15    2.22    1.08
  15   1  16    1.26    0.98
  16   0  -1    0.72    0.79
  19  -1  -4   -0.46    0.74
  20   0   3   -0.21    0.86
  21  -1  -2    1.64    0.91
  23  -1   1    6.37    0.98
   7   1   3   28.63    0.84
  11   1   3   18.88    0.94
  13   1   4   16.04    1.02
  15   1   6    0.68    0.88
  15   1  17    0.48    0.89
  17   1  11    1.19    0.92
  17   1  12   -0.04    0.92
  18   0   0    0.05    0.80
  20   0   2    0.80    0.88
  21  -1  -3    0.61    0.86
  23  -1   0    1.36    0.97
  13   1   3    3.79    0.80
  14   0  -3    4.77    0.76
  15   1   5   20.68    1.10
  17   1   8    1.35    1.04
  17   1   9    2.34    1.04
  17   1  14    0.84    1.07
  18   0  -1    3.81    0.81
  20   0   1    3.77    0.88
  22   0   5   -1.17    1.11
  23  -1  -1    0.73    0.88
   3   1   4   18.71    0.45
   5   1   3  360.74    1.85
   7   1   2    6.12    0.59
   9   1   2  281.05    2.10
  10   0  -4    1.36    0.55
  11   1   2   -0.20    0.70
  12   0  -4   32.52    0.88
  15   1   4   28.29    1.15
  17   1   6   19.38    1.24
  17   1   7    0.00    0.91
  22   0   3    1.63    0.99
  22   0   4    0.07    1.06
  13   1   2    1.52    0.78
  14   0  -4    2.29    0.71
  15   1   3   30.26    1.24
  17   1   5   -1.23    0.92
  19   1   8    1.30    0.93
  19   1  10    1.93    1.10
  20   0   0   22.59    1.17
  22   0   2    2.39    0.93
   9   1   1   -0.34    0.68
  13   1   1    4.24    0.79
  15   1   2    8.02    1.07
  17   1   4    1.77    0.88
  22   0   1   -0.62    0.93
   5   1   2   77.56    0.92
   7   1   1   14.28    0.67
  16   0  -4    3.62    0.77
  17   1   3    2.89    0.86
  18   0  -3    2.73    0.81
  19   1   5    0.68    1.01
  20   0  -2   -0.79    0.91
  22   0   0    0.04    1.00
   8   2  13   73.98    1.50
   8   2  14    1.26    0.74
   8   2  15   -0.01    0.73
   8   2  16    0.34    0.73
  10   2  11    5.27    0.98
  10   2  12    3.27    0.90
  10   2  13    0.74    0.78
  10   2  14    2.72    0.82
  10   2  15    4.60    0.84
  10   2  16   10.48    0.96
  11   1   0    4.05    0.73
  12   0  -5    7.94    0.58
  12   2  12    0.58    0.91
  12   2  13    4.17    0.88
  12   2  14    0.42    0.92
  13   1   0   32.59    1.09
  15   1   1    1.09    0.65
  17   1   2   -0.19    0.87
  19   1   4    0.57    0.96
   6   2  13    4.90    0.68
   6   2  14    0.27    0.61
   6   2  15    0.65    0.67
   9   1   0   11.04    0.58
  10   0  -5    6.66    0.57
  10   2  17    4.37    0.84
  12   2  10    4.25    0.86
  12   2  11    8.04    0.96
  12   2  16    0.31    0.91
  12   2  17    1.45    0.92
  14   0  -5    4.03    0.63
  14   2  12    1.42    0.88
  14   2  13   -0.51    0.88
  14   2  14    6.64    1.09
  18   0  -4    1.69    0.80
  20   0  -3    0.72    0.77
  21   1   5    2.30    1.00
  21   1   6    6.38    1.17
  22   0  -1    1.41    0.92
   6   2  10   12.60    0.82
   6   2  11    0.20    0.62
  12   2   8    8.08    0.94
  12   2  18    4.77    0.97
  14   2   9   12.20    1.08
  14   2  11   -0.34    0.85
  14   2  17    0.09    0.91
  16   0  -5    5.90    0.78
  22   0  -2    0.34    0.96
   4   2  13    1.42    0.53
   4   2  14   23.37    0.81
   5   1   1    0.14    0.37
   6   2   9    2.36    0.57
   8   2   8   21.23    0.93
  10   2   7    5.84    0.84
  12   2   7    0.18    0.96
  14   2   7   -0.08    0.81
  14   2   8    1.10    0.87
  14   2  18   -0.05    0.85
  15   1  -1    2.52    0.80
  16   2   9    1.38    0.95
  16   2  10   14.84    1.26
  16   2  12    1.34    1.06
  16   2  13    0.98    1.06
  16   2  14    1.24    1.00
  16   2  15    0.75    1.03
  17   1   0   16.18    0.99
  18   0  -5    4.41    0.84
  19   1   1    9.58    1.01
  20   0  -4    0.85    0.71
   4   2  12    2.55    0.55
   8   0  -5    3.45    0.39
   9   1  -1    4.68    0.62
  10   2   6    8.95    0.81
  12   0  -6    0.35    0.55
  12   2   6   11.74    1.06
  14   0  -6    1.14    0.54
  14   2   6    6.62    0.94
  16   2   7   -0.54    0.86
  16   2   8    2.31    0.99
  18   2  11   -0.30    0.94
  19   1   0    1.66    0.86
  21   1   2   -0.18    0.96
  22   0  -3    0.82    0.86
  24   0  -1    0.80    0.73
   4   2  10    2.18    0.57
   6   2   8   73.30    1.22
  14   2   5   20.43    1.06
  15   1  -2    3.55    0.83
  16   2   6    1.44    0.93
  18   2   8    1.70    1.06
  18   2   9    0.58    1.09
  18   2  10    0.79    0.92
  21   1   1    0.84    0.99
  22   0  -4    4.83    0.91
  24   0  -2    0.73    0.85
   6   2   7   58.69    1.14
  12   2   4    9.90    1.01
  14   2   4    4.36    0.88
  16   2   5    1.01    0.97
  17   1  -2    3.64    0.84
  18   0  -6    0.31    0.72
  18   2   6    6.05    1.04
  18   2   7    0.70    1.10
  21   1   0   -0.14    0.98
   2   2  13    7.50    0.54
   4   2   9   58.77    1.06
   7   1  -1   39.21    0.79
   8   2   5    0.68    0.67
  10   2   4    4.51    0.79
  13   1  -3    4.43    0.68
  15   1  -3    5.41    0.78
  18   2   5    9.06    1.16
  19   1  -2    0.82    0.78
  20   2   7    0.87    0.99
  21   1  -1    0.10    0.97
  23   1   1    6.42    1.11
   2   2  12  128.42    1.32
   4   2   8   45.53    0.96
   5   1   0    2.23    0.28
  11   1  -3   90.02    1.31
  12   2   3  118.68    1.84
  14   0  -7   22.37    0.76
  14   2   3    0.53    0.76
  16   2   3   -0.25    0.86
  17   1  -3    2.47    0.86
  23   1   0    2.44    0.88
   2   2  11   45.76    0.84
   8   2   4   73.22    1.21
  10   2   3    2.90    0.55
  12   0  -7   29.19    0.76
  12   2   2    4.80    0.82
  14   2   2    3.87    0.99
  16   2   2    0.66    0.84
  18   2   3    0.18    1.00
  19   1  -3    1.17    0.79
  20   2   4    1.05    0.91
  20   2   5    1.80    1.03
  21   1  -2    1.43    0.98
   4   2   7  122.35    1.35
   6   2   5   26.73    0.89
  10   2   2    1.63    0.67
  13   1  -4    4.76    0.72
  15   1  -4    5.86    0.83
  17   1  -4    2.26    0.84
  18   2   2    0.11    0.96
  20   2   3   -0.14    0.88
  23   1  -1    0.24    0.79
   2   2  10    8.33    0.50
   7   1  -2   16.65    0.61
   8   2   3   10.03    0.62
  12   2   1    2.75    0.81
  14   2   1   -0.36    0.64
  16   2   1   13.74    1.05
  19   1  -4   -0.13    0.78
  20   2   2    0.81    0.91
  21   1  -3    1.05    0.89
  23   1  -2    0.67    0.88
   4   2   6  122.25    1.31
  11   1  -4    0.66    0.60
  11   3  12    0.68    0.81
  11   3  15    0.32    0.86
  11   3  16   -0.04    0.85
  13   3  10   10.93    1.09
  13   3  11    3.02    0.93
  13   3  12    0.11    0.94
  13   3  13    0.15    0.94
  13   3  14    0.12    0.86
  13   3  15    1.48    0.94
  13   3  16    7.12    0.95
  13   3  17   -0.51    0.83
  14   0  -8    5.57    0.59
  14   2   0   -0.57    0.94
  15   3  11    2.25    1.09
  15   3  12    1.54    1.04
  15   3  13    0.31    0.94
  15   3  15   -0.46    0.89
  16   2   0    2.64    0.87
  21   1  -4    2.48    0.88
  23   1  -3    1.65    0.84
   2   2   9   16.56    0.60
   5   1  -1    6.50    0.38
   8   2   2   52.94    1.11
   9   3  12    2.38    0.83
   9   3  13    1.52    0.80
   9   3  14    0.22    0.72
   9   3  15    0.39    0.68
  10   2   1    3.18    0.58
  11   3  10    9.56    0.98
  11   3  11    7.08    0.87
  12   2   0    0.31    0.72
  13   3   9   12.43    1.10
  15   1  -5    2.27    0.76
  15   3  10   -1.86    0.94
  17   1  -5    1.14    0.87
  17   3   9    0.15    1.18
  17   3  11   -0.12    1.04
   6   2   3    3.37    0.64
   9   3  11    4.44    0.86
  11   3   8    3.16    0.79
  11   3   9    1.45    0.74
  12   0  -8   41.12    0.80
  13   1  -5   -0.06    0.57
  13   3   7    1.14    0.80
  14   2  -1   34.86    1.27
  15   3   7    2.16    0.96
  15   3   8    0.59    0.89
  17   3   8    0.11    1.02
  20   2   0   14.70    1.21
  21   1  -5   -0.41    0.85
  22   2   1   -0.25    1.01
  23   1  -4    0.53    0.88
   2   2   8   29.17    0.72
   7   3  12    2.07    0.75
   7   3  13   -0.04    0.70
   7   3  14    0.29    0.72
   9   1  -4    0.01    0.53
  10   2   0   42.06    1.12
  12   2  -1    0.92    0.75
  13   3   6   -0.05    0.85
  15   3   6    0.14    0.97
  17   3   6    8.14    1.17
  17   3   7    0.08    0.90
  20   2  -1    1.80    1.00
  22   2   0    0.71    0.97
   7   1  -3    2.87    0.49
   7   3  11   -0.25    0.72
  11   1  -5    0.91    0.60
  11   3   6    1.13    0.86
  15   3   5   10.02    1.06
  16   2  -2    0.21    0.80
  17   3   5   -0.11    1.03
  18   2  -2    0.22    0.91
  19   1  -6   12.53    0.93
  19   3   6   -0.01    1.04
  22   2  -1   -0.29    0.86
  23   1  -5    1.13    0.84
   2   2   7    0.61    0.51
   4   2   4   59.51    1.01
   6   2   2  235.89    1.84
   7   3   9   -0.90    0.83
   9   3   7   19.82    1.05
  10   2  -1    4.06    0.71
  13   1  -6   11.50    0.73
  17   3   4    1.71    1.05
  19   3   4   -1.11    1.11
  19   3   5    0.59    1.00
  21   1  -6   -0.12    0.82
   8   2   0   10.74    0.79
  12   2  -2    4.24    0.70
  15   3   3   13.75    1.08
  16   2  -3    1.11    0.79
  17   1  -7    0.08    0.72
  17   3   3   -0.03    1.05
  18   2  -3    0.53    0.88
  19   1  -7    1.90    0.80
  19   3   3    0.71    0.88
  20   2  -3   -0.37    0.78
  22   2  -2    0.05    0.88
   0   2  11   42.81    0.73
   5   3  11    0.18    0.75
   5   3  12   39.23    1.05
   7   3   8   82.36    1.47
  11   3   4   10.66    1.09
  13   3   3    0.32    0.80
  14   2  -3    1.44    0.81
  15   1  -7    1.54    0.64
  15   3   2    3.90    0.87
  17   3   2   -0.10    0.91
  19   3   2    1.90    0.91
  22   2  -3    0.33    0.80
   2   2   6   54.83    0.85
   5   3  10   14.56    0.88
   7   3   7   23.88    1.02
   9   1  -5  137.55    1.34
   9   3   5    0.03    0.57
  10   2  -2    8.69    0.78
  11   1  -6   14.80    0.72
  11   3   3    7.46    1.00
  13   3   2   -0.22    0.78
  16   2  -4    2.02    0.86
  17   3   1   -0.23    0.89
  18   2  -4    2.34    0.82
  20   2  -4    0.13    0.88
   0   2  10    1.31    0.41
   4   2   3    8.75    0.58
   5   3   9    4.90    0.76
   9   3   4    1.59    0.77
  13   1  -7   88.64    1.31
  14   2  -4    1.41    0.81
  11   3   2    0.04    0.88
  12   4  14    0.62    0.87
  13   3   1    0.34    0.79
  14   4  11    0.70    0.89
  14   4  12    1.01    0.91
  14   4  13    0.08    0.84
  15   3   0    0.56    0.82
  16   2  -5    5.09    0.96
  17   3   0    7.27    1.03
  19   3   0    0.60    1.01
  20   2  -5   -0.64    0.90
   2   2   5   84.70    1.04
   5   3   8    1.85    0.69
   6   2   0   16.24    0.75
  10   2  -3    4.38    0.70
  12   2  -4   22.34    0.94
  12   4  11    1.95    1.01
  12   4  12    0.76    0.96
  12   4  13   -0.22    0.78
  13   3   0   15.95    1.04
  14   4   9    4.02    1.09
  14   4  10    2.38    0.90
  16   4   9   -0.20    1.02
  22   2  -5    6.87    1.00
   3   3  12    0.69    0.59
   4   2   2    0.62    0.52
   8   2  -2   14.32    0.84
  10   4  12    0.29    0.75
  10   4  13    0.97    0.85
  10   4  14    1.02    0.89
  11   1  -7   17.78    0.76
  11   3   1    4.13    0.86
  12   4  10    2.37    0.80
  14   2  -5    1.41    0.81
  14   4   8   -0.25    1.03
  15   3  -1    0.36    0.85
  18   2  -6    0.50    0.76
  20   2  -6    1.97    0.86
  21   3  -1   -0.03    0.98
   3   3  11   21.80    0.79
   5   1  -3  231.12    1.30
   9   1  -6   13.00    0.62
   9   3   2  114.49    1.62
  10   4  10   -0.09    0.84
  10   4  11    1.55    0.84
  12   4   8    2.37    0.91
  13   1  -8   36.17    0.92
  13   3  -1   -0.43    0.89
  14   4   6    2.05    1.04
  16   2  -6   19.56    1.08
  16   4   5    0.25    0.86
  16   4   6    0.10    0.91
  19   3  -2   -0.28    0.99
  21   3  -2    1.11    0.97
  22   2  -6    1.29    0.84
   3   3  10   19.06    0.82
   7   3   3   11.85    0.80
  12   2  -5    3.38    0.74
  12   4   7    1.04    0.81
  14   4   5    6.38    1.10
  15   1  -9    9.08    0.80
  16   4   4    1.44    1.00
  18   4   4    1.48    1.04
  19   3  -3   -0.24    0.88
  20   2  -7    4.05    0.86
   0   2   8    0.78    0.45
   6   2  -1    1.03    0.61
   8   4  11    3.83    0.78
   8   4  12    0.36    0.66
   9   3   1    0.22    0.60
  10   4   7    1.83    0.95
  14   2  -6    0.17    0.71
  14   4   4    0.75    1.02
  16   4   3    0.15    1.06
  17   3  -3    1.96    0.87
  18   2  -7    0.28    0.75
  18   4   3    0.03    0.96
  21   3  -3    0.40    0.82
  22   2  -7    0.01    0.81
   3   3   9    0.85    0.55
   4   2   1    4.77    0.54
   5   3   5    1.89    0.64
   8   2  -3  364.46    2.40
   8   4  10    0.25    0.72
  11   3  -1    0.74    0.81
  14   4   3    0.07    0.92
  16   2  -7   29.36    1.12
  16   4   2   -0.07    0.97
  18   4   2   -0.13    1.04
  19   3  -4   -0.20    0.95
  21   3  -4    1.54    0.95
   3   3   8   46.07    0.98
   7   3   2    2.10    0.68
   8   4   8    5.54    0.85
   8   4   9    4.73    0.77
   9   3   0    4.83    0.91
  11   1  -8   14.56    0.62
  12   4   4    5.51    0.95
  13   1  -9    0.71    0.61
  13   3  -3    2.86    0.87
  14   4   2    0.26    0.92
  17   3  -4    1.42    0.81
  18   2  -8    0.37    0.76
  18   4   1   -1.27    1.07
  20   2  -8    0.18    0.81
   0   2   7  125.92    1.05
   6   4  12    4.25    0.79
   8   4   7   -0.37    0.80
   9   1  -7   61.87    0.94
  10   2  -5    2.65    0.63
  11   3  -2  117.77    1.88
  12   4   3   40.81    1.40
  14   2  -7   16.08    0.95
  18   4   0   -0.01    1.00
  19   3  -5    7.83    1.12
  21   3  -5   -0.93    0.88
   3   3   7   10.39    0.66
   6   2  -2    1.38    0.59
   6   4  10    4.86    0.87
   6   4  11   -0.59    0.74
   7   3   1    7.33    0.79
   8   2  -4   43.46    1.02
   9   3  -1    2.07    0.80
  10   4   4    1.01    0.84
  14   4   1    0.25    0.95
  16   2  -8   -0.49    0.77
  16   4   0    1.31    1.06
  17   3  -5    1.05    0.86
   4   2   0   -0.05    0.38
   5   1  -4  496.57    1.90
   5   3   3  127.53    1.59
   6   4   9    2.48    0.86
   8   4   6    0.27    0.82
  10   4   3    0.80    0.81
  11   3  -3   45.32    1.33
  14   4   0   -0.60    1.00
  18   2  -9   -0.23    0.74
  18   4  -1    0.55    0.95
  21   3  -6    0.35    0.88
   3   3   6   49.01    1.04
   6   4   8   22.00    1.02
   7   1  -6   47.22    0.80
   7   3   0   15.18    0.88
   8   4   5   -0.43    0.92
   9   3  -2    1.70    0.75
  10   2  -6    0.82    0.63
  12   2  -7   15.58    0.88
  12   4   1    0.49    0.84
  13   5   9    3.53    0.90
  13   5  10    2.37    0.96
  14   2  -8    4.21    0.78
  17   3  -6    4.99    0.92
  18   4  -2   -0.08    1.08
   0   2   6    0.30    0.43
   1   3  11   -0.14    0.42
   5   3   2   19.68    0.89
   6   4   7   15.63    1.07
  10   4   2   -0.20    0.82
  11   1  -9   12.48    0.66
  11   5  11    1.96    0.92
  11   5  12   -0.24    0.88
  12   4   0    0.46    0.87
  13   5   8    1.88    0.99
  14   4  -1   11.09    1.15
  15   3  -6    3.07    0.77
  16   2  -9   -0.28    0.76
  16   4  -2   -0.28    1.03
  19   3  -7    0.70    0.97
  21   3  -7    0.13    0.86
   1   3  10   20.00    0.72
   2   2   2   66.25    0.88
   3   3   5    2.63    0.67
   6   2  -3   13.50    0.73
  10   4   1   -0.31    0.82
  11   3  -4   -0.07    0.79
  11   5   9   -0.55    1.04
  11   5  10    2.16    0.87
  13   5   6    1.14    1.04
  13   5   7    1.48    0.87
  17   3  -7    0.03    0.85
   4   2  -1   48.48    0.89
   4   4  11    0.35    0.66
   6   4   6    1.08    0.83
   7   3  -1    8.57    0.85
   9   1  -8    1.55    0.49
   9   3  -3   13.96    0.92
   9   5  12    0.69    0.70
  11   5   7    0.17    1.04
  11   5   8    0.09    1.06
  12   4  -1    0.65    0.88
  14   2  -9    7.13    0.76
  15   5   4    3.25    1.01
  16   4  -3   -0.20    0.86
  18   4  -4    0.97    1.08
  19   3  -8    0.49    0.96
  21   3  -8    0.55    0.84
   3   3   4    9.12    0.82
   4   4  10    1.11    0.66
   6   4   5    5.22    0.90
   8   4   2   14.13    1.16
   9   5  10    1.87    0.91
   9   5  11   -0.06    0.93
  10   2  -7   50.04    1.09
  10   4   0   10.59    0.99
  11   5   6   -0.46    1.00
  13   3  -6    4.12    0.96
  14   4  -3   -0.21    0.96
  15   3  -7    0.85    0.77
  15   5   3    4.08    0.97
  16   2 -10    0.19    0.73
   0   2   5  106.99    1.00
   1   3   8   12.60    0.68
   4   4   9   17.12    0.89
   9   5   8    0.57    0.81
   9   5   9    2.32    0.94
  11   5   5    5.69    1.02
  12   4  -2    2.69    0.81
  13   5   3   -0.92    1.10
  17   3  -8    4.25    0.83
  18   4  -5    0.27    1.09
  21   3  -9    0.54    0.86
   2   2   1   38.70    0.76
   4   4   8   10.77    0.90
   6   2  -4  143.02    1.51
   6   4   4   -0.57    0.86
   7   1  -7   15.26    0.60
   7   3  -2   10.30    0.71
   8   2  -6   10.17    0.78
   9   3  -4   -0.02    0.83
   9   5   7    2.83    0.97
  10   4  -1    1.89    0.84
  13   3  -7   43.78    1.36
  13   5   2   -0.56    1.14
  14   4  -4    0.27    0.96
  15   3  -8    0.69    0.73
  15   5   1    0.03    1.03
  16   4  -5    3.26    0.97
   1   3   7   52.82    1.04
   4   4   7   41.71    1.23
   5   3   0    1.44    0.54
   7   5  10    0.88    0.87
   7   5  11   -0.01    0.80
   9   5   6    5.31    1.05
  11   1 -10   20.28    0.65
  12   2  -9    9.04    0.79
  13   5   1    1.12    0.94
  14   2 -10    3.19    0.72
  15   5   0    0.11    1.08
  17   3  -9    0.17    0.82
  18   4  -6    0.10    1.02
   4   4   6   39.60    1.29
   7   3  -3   -0.51    0.76
   7   5   9    0.09    0.86
   8   4   0    1.70    1.07
   9   5   5   -0.08    0.98
  10   2  -8   69.97    1.23
  10   4  -2    3.40    0.84
  15   5  -1   -0.27    1.16
  16   4  -6    7.79    1.15
  19   3 -10   -0.05    0.75
   5   3  -1    2.05    0.78
   7   5   8   21.50    1.22
   9   1  -9   14.89    0.58
   9   3  -5   51.56    1.27
   9   5   4   -0.02    0.96
  11   5   2    0.06    0.96
  12   4  -4    5.15    0.97
  13   3  -8   18.17    1.14
  13   5   0    3.55    1.18
  15   3  -9    4.04    0.89
  18   4  -7    0.44    1.07
   0   2   4   41.87    0.67
   1   3   6   76.27    1.18
   4   4   5   15.37    1.02
   6   2  -5   99.37    1.30
   7   5   7    9.15    1.06
   8   2  -7    1.88    0.65
   8   4  -1    5.15    1.09
  10   4  -3    2.56    0.85
  11   3  -7    8.26    1.00
  11   5   1    1.02    1.07
  13   5  -1    0.76    1.19
  14   2 -11    0.98    0.80
  15   5  -2   -0.91    1.02
  16   4  -7   11.89    1.18
  17   3 -10    1.98    0.85
   2   2   0    5.61    0.55
   2   4  10    3.88    0.72
   4   2  -3   -0.46    0.61
   6   4   1   90.28    1.73
   7   5   6    6.82    1.03
  11   5   0    0.82    1.06
  12   2 -10    0.27    0.69
  12   4  -5    1.97    0.93
  15   5  -3   -0.98    1.20
  18   4  -8   -0.71    1.05
   1   3   5  211.76    1.81
   2   4   9    4.12    0.71
   3   3   1  326.64    2.40
   5   5  10    1.98    0.89
   7   5   5    1.94    0.90
   8   4  -2    5.61    1.10
  10   2  -9   59.70    1.22
  10   4  -4   -0.74    0.90
  13   3  -9    1.04    0.92
  13   5  -2   -0.01    1.04
  14   4  -7    4.24    1.01
  15   3 -10    5.30    0.88
  16   4  -8    0.35    0.92
   0   0 -10    0.07    0.84
   2   2 -23    1.22    1.46
   3   1 -17    1.06    1.48
   6   2 -20    6.87    1.51
   7   1 -10  132.07    1.85
   7   3 -23    2.17    1.70
   9   3 -21    5.29    1.47
  10   2 -13    0.41    0.97
 -10   0 -13   -0.39    0.71
  -9   1 -20   -0.40    1.11
  -6   0 -14   -0.63    0.99
  -5   1 -21   -0.99    0.99
  -2   0 -13   13.34    1.18
   0   2 -24   -1.33    1.79
   1   1 -19    3.19    1.28
   3   1 -18    0.62    1.27
   4   2 -22    4.40    1.48
   7   1 -11   54.28    1.45
   8   2 -18   10.47    1.38
 -10   0 -14   -0.36    0.75
  -9   1 -21    0.76    1.06
  -8   0 -15    1.40    1.19
  -7   1 -21   -0.33    1.15
  -6   0 -15    0.57    1.14
  -4   0 -15   11.09    1.19
  -2   0 -14    3.11    1.13
   1   1 -20    2.17    1.38
   2   2 -24    0.81    1.82
   4   2 -23   -0.81    1.82
   6   2 -21    1.32    1.47
   7   1 -12   -0.65    0.91
   8   2 -19    7.64    1.48
   9   3 -22    0.22    1.51
  10   2 -15    9.86    1.25
  -5   1 -22   -0.09    1.17
  -2   0 -15    3.20    1.08
   0   0 -13   11.46    1.17
   2   0  -9   36.71    1.19
   2   0  -8  116.63    1.56
   2   0  -7    5.12    0.48
   2   0  -6   54.30    0.91
   3   1 -19    3.74    1.37
   6   2 -22    4.49    1.74
   7   1 -13    2.02    0.98
  10   2 -16   10.30    1.46
 -10   0 -15    0.03    0.85
  -9   1 -22   -0.58    0.96
  -8   0 -16    0.59    1.08
  -6   0 -16    0.64    1.10
  -4   0 -16   20.44    1.52
  -1   1 -22    1.27    1.63
   0   0 -14    1.69    1.10
   2   0 -10   33.41    1.24
   3   1 -20    4.07    1.41
   4   2 -24    2.22    1.85
   5   1 -18    0.83    1.31
   8   2 -20    9.47    1.45
  10   2 -17    0.39    1.20
 -10   0 -16    0.12    0.78
  -8   0 -17    0.21    0.97
  -7   1 -23    0.44    1.11
  -6   0 -17   18.32    1.51
  -4   0 -17    0.78    1.37
  -2   0 -16    5.33    1.29
   0   0 -15    6.07    1.36
   1   1 -22    2.34    1.53
   2   0 -12   10.02    1.12
   5   1 -19   10.08    1.41
   6   2 -23   -0.16    1.71
   7   1 -15    2.64    1.29
   8   2 -21    0.13    1.50
  10   2 -18    0.31    1.32
  -9   1 -23    0.22    1.04
  -6   0 -18   14.39    1.35
  -4   0 -18    3.66    1.13
  -1   1 -23    8.56    1.53
   2   0 -13   71.87    1.81
   3   1 -21    4.04    1.42
   6   2 -24    0.11    1.74
   7   1 -16   22.10    1.54
   8   2 -22    0.05    1.41
  -8   0 -18   -0.12    0.85
  -1   1 -24    5.16    1.70
   0   0 -17    5.27    1.48
   5   1 -20   15.77    1.62
  10   2 -19    0.03    1.15
  -8   0 -19   -0.28    0.78
  -4   0 -19    1.01    1.30
   1   1 -24    0.27    1.73
   2   0 -15    1.36    1.18
   3   1 -23    4.01    1.60
   5   1 -21    2.38    1.59
   7   1 -18    2.97    1.34
   9   1 -11    1.49    0.94
   9   1 -10   20.81    1.09
  10   2 -20    1.74    1.24
  -6   0 -20    2.36    1.27
  -4   0 -20    1.17    1.31
  -1   1 -25    1.15    1.47
   0   0 -18   -0.70    0.92
   2   0 -17    1.36    1.30
   2   0 -16    0.00    0.87
   4   0 -12   39.41    1.45
   4   0 -11   22.02    1.31
   4   0  -9   13.94    0.98
   5   1 -22    2.18    1.48
   7   1 -19    0.17    1.21
   8   2 -24    3.18    1.50
   9   1 -14   80.22    2.03
   9   1 -13   15.06    1.19
   9   1 -12    6.98    0.98
   9   1  -9   15.02    0.83
   9   1  -8    1.24    0.82
  -8   0 -20   -0.19    0.98
  -4   0 -21   20.56    1.78
   0   0 -19    0.67    1.25
   1   1 -25    2.77    1.58
   3   1 -24    0.05    1.63
   5   1 -23    3.27    1.67
   7   1 -20    1.06    1.38
   8   2 -25   -1.56    1.52
   9   1 -15    3.72    1.24
  10   2 -22   -0.94    1.54
  -8   0 -21   -0.30    1.07
  -6   0 -21   -0.98    1.07
   2   0 -19    0.40    1.16
   4   0 -16    7.15    1.19
   7   1 -21    0.01    1.49
   9   1 -16   12.31    1.37
  -6   0 -22    0.04    1.16
  -4   0 -22    0.09    1.48
   0   0 -21    6.02    1.60
   2   0 -20   22.61    1.59
   4   0 -17   52.60    1.96
   5   1 -24   -0.41    1.68
   7   1 -22    5.96    1.68
   9   1 -18    1.50    1.26
  10   2 -24    0.84    1.47
  -8   0 -22    0.24    0.89
  -6   0 -23   -0.07    0.98
  -4   0 -23    6.24    1.70
   0   0 -22    2.90    1.47
   2   0 -21    3.17    1.34
   4   0 -18    5.24    1.43
   5   1 -25    0.83    1.64
   7   1 -23    9.23    1.74
   9   1 -19    9.53    1.42
  -8   0 -23   -0.16    1.04
  -4   0 -24    1.71    1.51
   0   0 -23    7.44    1.44
   4   0 -19    6.11    1.33
   7   1 -24    0.84    1.46
   9   1 -20   -0.54    1.34
  -7  -1 -13    0.83    0.97
  -7  -1 -12    3.70    0.88
  -7  -1 -11    0.39    0.74
  -6   0 -24    0.34    1.10
  -5  -1 -13   69.21    1.67
  -5  -1 -12   94.61    1.78
  -5  -1 -11    0.41    0.80
  -5  -1 -10   44.34    1.27
  -5  -1  -9   19.93    0.95
   0   0 -24    2.56    1.67
   2   0 -22    4.41    1.54
   4   0 -20    2.14    1.31
   7   1 -25    2.14    1.67
   9   1 -22    2.72    1.45
   9   1 -21   11.53    1.46
  -9  -1 -13    2.62    0.94
  -9  -1 -11   14.43    0.91
  -9  -1 -10    5.76    0.70
  -9  -1  -9   23.69    0.89
  -7  -1 -15   46.75    1.65
  -7  -1 -14   -0.21    0.99
  -7  -1  -8  197.41    1.79
  -5  -1 -15    7.47    1.20
  -5  -1 -14   26.29    1.36
  -5  -1  -8    4.03    0.77
  -4   0 -25    1.21    1.56
  -3  -1 -14    7.33    1.10
  -3  -1 -11   49.09    1.39
  -3  -1 -10   46.97    1.30
  -2   0 -25    2.50    1.53
   2   0 -23    0.58    1.42
   4   0 -21    8.47    1.41
   6   0 -18    0.34    1.24
   6   0 -17    1.32    1.20
   9   1 -23    1.30    1.27
  11   1 -15   -0.85    0.97
  11   1 -13    9.56    1.01
  11   1 -12    7.65    1.01
  -9  -1 -14    1.69    0.88
  -9  -1  -8   -0.48    0.54
  -7  -1 -16    2.10    1.12
  -7  -1  -7   38.59    0.95
  -5  -1 -17    4.16    1.33
  -5  -1 -16    6.90    1.26
  -5  -1  -7   36.25    0.94
  -3  -1 -16   23.99    1.50
  -3  -1 -15    0.47    1.07
   2   0 -24    3.46    1.66
   4   0 -23    0.84    1.39
   4   0 -22    5.42    1.46
   6   0 -20   14.27    1.42
   9   1 -24    0.39    1.42
  11   1 -19    8.66    1.33
  11   1 -18   16.82    1.47
  11   1 -17    2.41    1.19
  11   1 -11    1.28    0.79
  -9  -1  -7   45.12    0.92
  -7  -1 -17    3.16    1.16
  -7  -1  -6   83.91    1.16
  -5  -1 -18    7.71    1.22
  -3  -1 -18    2.41    1.12
  -3  -1 -17   32.66    1.65
  -3  -1  -8   91.43    1.39
  -1  -1 -16    0.76    1.25
  -1  -1 -15    4.86    1.13
  -1  -1 -14   15.95    1.23
  -1  -1 -13   52.24    1.48
  -1  -1 -11    1.08    0.93
  -1  -1 -10   61.70    1.39
   2   0 -25    2.24    1.77
   4   0 -24    6.99    1.43
   6   0 -21    2.97    1.37
   9   1 -25   -0.96    1.32
  11   1 -20    2.33    1.24
  -7  -1 -19    3.74    1.20
  -7  -1 -18    1.12    0.98
  -5  -1  -6    6.21    0.57
  -3  -1 -19    1.77    1.17
  -3  -1  -7   40.24    0.95
   4   0 -25    3.16    1.67
   6   0 -22    6.89    1.60
   6   0  -7    0.39    0.57
   8   0 -16   -0.76    1.07
   8   0 -15    2.88    1.04
   8   0 -14    1.62    1.17
  11   1 -22    0.33    1.43
  11   1 -21    2.34    1.29
  -7  -1 -20    7.60    1.26
  -5  -1 -20    3.88    1.25
  -3  -1 -20    0.80    1.23
  -1  -1  -8   26.84    0.96
   1  -1 -17    2.17    1.24
   1  -1 -15    0.89    1.14
   1  -1 -14    7.12    1.13
   1  -1 -13   33.35    1.38
   1  -1 -12    1.69    0.99
   6   0 -23   -0.98    1.52
   8   0 -19   10.38    1.27
   8   0 -18   14.43    1.39
   8   0 -17    0.84    1.21
   8   0 -13    2.45    0.92
  11   1 -23   -0.17    1.41
  -7  -1 -21    0.14    1.29
  -5  -1 -21    0.02    1.27
  -3  -1 -21    1.40    1.27
  -3  -1  -6  152.86    1.40
   1  -1 -19    5.14    1.28
   1  -1 -18   64.09    1.93
   1  -1 -11  234.57    2.47
   6   0 -24    1.28    1.41
   8   0 -21    0.56    1.17
   8   0 -20   11.49    1.51
   8   0 -11    5.09    0.91
  11   1 -24   -0.40    1.34
  -7  -1 -22    5.02    1.27
  -5  -1 -23    1.89    1.43
  -3  -1 -23    2.43    1.50
  -3  -1 -22    7.82    1.38
  -1  -1  -7  124.46    1.44
   1  -1 -21    1.62    1.41
   1  -1 -20    0.72    1.19
   3  -1 -16   25.01    1.53
   3  -1 -15  101.66    2.07
   6   0 -25    0.23    1.39
   8   0 -22    1.69    1.46
  11   1 -25   -0.27    1.35
  11   1  -8   15.89    0.78
  -7  -1 -23    0.90    1.19
  -5  -1 -24   -0.77    1.34
  -3  -1 -24    0.09    1.24
   1  -1 -22    1.02    1.39
   1  -1  -9   17.54    0.79
   3  -1 -19    3.25    1.23
   3  -1 -18   -0.13    1.09
   3  -1 -17    2.02    1.19
   3  -1 -13   35.70    1.39
   3  -1 -12   15.77    1.09
   8   0 -24    2.33    1.38
   8   0 -23   -0.12    1.25
  13   1 -21    0.02    1.26
  13   1 -20    1.61    1.11
  13   1 -19    0.23    1.06
  -7  -1 -24    0.15    0.97
  -3  -1 -25    1.48    1.23
  -1  -1 -24    4.92    1.54
   1  -1 -23    4.65    1.49
   3  -1 -21    2.41    1.42
   3  -1 -20    4.46    1.21
   8   0 -25   -0.30    1.52
   8   0  -9   15.74    0.91
  10   0 -19   -0.37    1.21
  10   0 -18    0.42    1.11
  10   0 -17    0.36    1.18
  10   0 -16   17.03    1.41
  13   1 -23    1.48    1.33
  13   1 -22    2.81    1.20
  -1  -1 -25    0.37    1.37
  -1  -1  -6  180.99    1.52
   1  -1 -24   -0.42    1.47
   3  -1 -23    3.96    1.45
   3  -1 -22    3.07    1.39
   5  -1 -17    1.33    1.20
   5  -1 -16    0.73    1.14
  10   0 -22    0.56    1.38
  10   0 -20    0.63    1.24
  10   0 -15   15.43    1.27
  10   0 -14   14.09    1.13
  13   1 -24    2.01    1.26
   1  -1 -25    3.56    1.35
   1  -1  -7  159.04    1.59
   3  -1 -24   -1.33    1.45
   5  -1 -21    2.93    1.26
   5  -1 -20   14.15    1.44
   5  -1 -19    9.88    1.30
   5  -1 -15    2.35    0.98
  10   0 -23    5.58    1.60
  10   0 -13    0.08    0.90
   3  -1 -25    0.63    1.51
   3  -1  -9   22.00    1.04
   5  -1 -23    2.73    1.35
   5  -1 -22    0.81    1.33
   5  -1 -13    8.20    0.98
   5  -1 -12   29.01    1.20
  10   0 -25    6.38    1.46
  10   0 -24   -0.04    1.32
  10   0 -12   17.63    1.03
   5  -1 -24    1.25    1.53
  10   0 -11   26.70    1.14
   3  -1  -8    6.07    0.80
   5  -1 -25    0.57    1.31
   5  -1 -11   14.39    1.00
   7  -1 -22    6.71    1.30
   7  -1 -21    1.72    1.34
   7  -1 -20    1.36    1.20
   7  -1 -19    0.25    1.07
   7  -1 -18    2.73    1.06
   7  -1 -17   16.96    1.46
   7  -1 -16   20.47    1.43
   8   0  -7    7.36    0.67
  12   0 -22    0.90    1.33
  12   0 -21    0.81    1.06
  12   0 -20   12.92    1.34
  12   0 -19    5.23    1.10
  -4  -2 -18    1.78    1.06
  -4  -2 -17    0.56    1.09
   1  -1  -6  145.84    1.31
   7  -1 -24    2.05    1.37
   7  -1 -23    5.92    1.51
  10   0 -10    0.81    0.67
  12   0 -24   -0.27    1.24
  12   0 -23    0.19    1.29
  12   0 -17    1.54    1.04
  12   0 -16    0.32    1.00
  -6  -2 -20    0.41    1.14
  -6  -2 -18    9.89    1.12
  -6  -2 -17   13.41    1.12
  -6  -2 -16    1.81    0.94
  -6  -2 -15   -0.03    0.91
  -6  -2 -14    0.09    0.83
  -4  -2 -21   12.00    1.25
  -4  -2 -20    1.00    1.11
  -4  -2 -19   -0.73    1.12
  -4  -2 -15    5.44    1.06
  -4  -2 -14   24.08    1.25
  -2  -2 -21   -0.55    1.24
  -2  -2 -20    0.01    1.13
  -2  -2 -19    9.70    1.31
  -2  -2 -18   12.46    1.25
  -2  -2 -17   27.00    1.42
  -2  -2 -16    3.95    1.09
   7  -1 -25    2.02    1.27
  12   0 -25   -0.15    1.19
  12   0 -15    8.35    1.00
  -6  -2 -22    1.51    1.17
  -6  -2 -21    4.39    1.22
  -6  -2 -13    4.99    0.85
  -4  -2 -23    4.46    1.12
  -4  -2 -22    1.10    1.29
  -4  -2 -13    1.33    0.89
  -2  -2 -23    1.30    1.19
  -2  -2 -22    1.57    1.37
  -2  -2 -13    6.36    0.89
   0  -2 -15    4.51    1.15
   3  -1  -7    8.92    0.71
   9  -1 -22    0.64    1.15
   9  -1 -21   10.07    1.44
   9  -1 -20   -1.07    1.18
   9  -1 -19   10.35    1.34
   9  -1 -18    0.98    1.01
  12   0 -14   13.18    1.06
  -6  -2 -23    0.19    1.13
  -6  -2 -12   16.56    0.94
  -4  -2 -24    0.24    1.19
  -4  -2 -12    2.02    0.90
  -2  -2 -24    2.88    1.31
   0  -2 -24   -1.33    1.23
   0  -2 -23    3.60    1.45
   0  -2 -14    0.25    0.97
   2  -2 -21    2.43    1.23
   2  -2 -19    0.80    1.10
   2  -2 -18   -0.67    1.10
   2  -2 -17    0.56    0.92
   8   0  -6    9.80    0.64
   9  -1 -25    0.19    1.22
   9  -1 -24    0.59    1.51
   9  -1 -23    1.72    1.16
   9  -1 -17    3.63    1.09
   9  -1 -16   12.55    1.37
  -8  -2 -12    1.15    0.68
  -4  -2 -11    2.74    0.75
   0  -2 -13    8.04    1.01
   1  -1  -5   16.86    0.55
   2  -2 -24    2.95    1.30
   2  -2 -23   -0.35    1.31
   2  -2 -22    5.32    1.18
   2  -2 -16    0.25    1.23
   2  -2 -15    0.58    1.11
   9  -1 -15    3.73    1.11
  12   0 -12    6.70    0.91
  14   0 -24   -0.08    1.14
  14   0 -23    0.51    1.23
  14   0 -22    1.33    1.11
  14   0 -21    0.31    1.18
  14   0 -20    0.09    1.03
  14   0 -19    0.36    1.04
  -8  -2 -11    9.20    0.76
  -4  -2 -10    2.88    0.69
   2  -2 -14    1.79    1.03
   3  -1  -6  226.89    1.69
   4  -2 -23   -1.84    1.28
   4  -2 -22    3.36    1.47
   4  -2 -21    5.30    1.38
   4  -2 -20    0.79    1.28
   4  -2 -19    3.00    1.21
   4  -2 -18    3.64    1.18
   5  -1  -8    6.94    0.61
  -8  -2 -10    0.48    0.61
  -2  -2 -10    7.57    0.86
   2  -2 -13   42.07    1.44
   4  -2 -16    3.43    1.22
  11  -1 -24    0.98    1.31
  11  -1 -23    1.05    1.34
  11  -1 -22    0.34    1.29
  11  -1 -20    0.84    1.18
  11  -1 -19    8.94    1.20
  12   0 -11    7.18    0.82
   2  -2 -12    8.70    1.00
   4  -2 -15    3.67    1.10
   6  -2 -23    0.38    1.15
   6  -2 -22    4.89    1.44
   6  -2 -21    0.38    1.25
   6  -2 -20    7.92    1.32
   6  -2 -19    0.30    1.05
   9  -1 -12    6.15    0.99
  11  -1 -18   16.11    1.26
  11  -1 -17    2.48    1.01
  -2  -2  -9   17.09    0.92
   0  -2 -10    2.24    0.80
   5  -1  -7   16.79    0.84
   6  -2 -24   -1.20    1.29
   6  -2 -18    1.31    1.11
   6  -2 -17    0.29    1.03
  -8  -2  -9   19.77    0.74
   2  -2 -11    4.20    0.85
   4  -2 -13    0.08    0.89
   6  -2 -16    4.32    1.21
   9  -1 -11    2.28    0.75
  11  -1 -15   -0.20    1.05
  12   0 -10    0.40    0.64
   0  -2  -9   10.03    0.91
   2  -2 -10   16.27    0.94
   3  -1  -5   57.61    0.85
   4  -2 -12   26.30    1.22
   6  -2 -15   86.43    2.00
   8  -2 -24    2.60    1.32
   8  -2 -23    0.53    1.25
   8  -2 -22   -0.69    1.22
   8  -2 -21    0.03    1.25
   8  -2 -20    6.58    1.42
  11  -1 -14   -0.23    1.00
  13  -1 -24    1.45    1.23
  13  -1 -23    0.83    1.23
  13  -1 -22    5.00    1.25
  13  -1 -21    0.00    1.17
  13  -1 -20   -0.37    1.08
  -8  -2  -8   21.62    0.75
   6  -2 -14   16.46    1.21
   8  -2 -18   10.50    1.21
   8  -2 -17    0.04    1.04
  13  -1 -19    0.62    1.04
  13  -1 -18   -0.04    0.87
  -5  -3 -22   -0.62    1.07
  -5  -3 -21    0.68    1.02
  -5  -3 -20    0.02    1.14
  -5  -3 -19    5.89    1.20
  -3  -3 -23    0.34    1.16
  -3  -3 -22    2.13    1.24
  -3  -3 -21   -0.02    1.12
  -3  -3 -20    0.12    1.13
  -3  -3 -19    0.50    1.04
  -3  -3 -18    0.86    1.12
  -1  -3 -23    4.08    1.11
  -1  -3 -22    0.00    1.35
  -1  -3 -20    5.26    1.17
  -1  -3 -19    2.26    1.20
   4  -2 -11   16.63    1.02
   5  -1  -6    0.35    0.55
   6  -2 -13    5.78    1.03
   8  -2 -16    0.20    0.95
  10  -2 -24    1.57    1.35
  10  -2 -23    4.62    1.41
  11  -1 -13    9.50    1.02
  12   0  -9   15.69    0.76
  13  -1 -17   -0.28    0.94
  -6  -2  -7   55.74    1.01
  -5  -3 -18    2.05    0.98
  -5  -3 -17    1.95    0.93
  -3  -3 -17   11.47    1.19
  -3  -3 -16    9.14    1.13
  -1  -3 -18   -0.33    1.02
  -1  -3 -17    0.66    1.02
   0  -2  -8    0.72    0.74
   1  -3 -23    2.36    1.31
   1  -3 -22   -1.86    1.41
   2  -2  -9   27.72    1.13
   8  -2 -15    0.45    1.24
  10  -2 -21    1.34    1.27
  10  -2 -20    0.68    1.18
  11  -1 -12    7.65    1.01
  13  -1 -16    0.75    0.93
  -5  -3 -16    2.74    0.94
  -3  -3 -15   -0.30    1.02
  -2  -2  -7    0.42    0.61
  -1  -3 -16    0.29    0.91
   3  -3 -23    0.54    1.41
   3  -3 -22    1.03    1.29
   3  -3 -21    0.48    1.33
   3  -3 -20    1.40    1.21
   4  -2 -10  218.30    2.33
   9  -1  -9   14.56    0.90
  10  -2 -19   -0.87    1.07
  10  -2 -18    0.51    1.11
  13  -1 -15   21.74    1.35
  15  -1 -23   -0.54    1.08
  15  -1 -22    1.20    1.16
  -8  -2  -7    0.54    0.49
  -5  -3 -15    2.11    0.89
  -3  -3 -14    1.66    0.97
  -1  -3 -15    0.98    1.04
   2  -2  -8   80.12    1.42
   3  -3 -18    0.57    1.19
   5  -3 -23    2.08    1.25
   5  -3 -22   -0.56    1.15
   6  -2 -11   14.73    1.01
   7  -1  -7   13.88    0.75
  10  -2 -17    0.42    1.05
  -1  -3 -14    5.69    1.15
   3  -3 -17    0.57    0.99
   3  -3 -16   12.03    1.16
   4  -2  -9   14.42    0.96
   5  -3 -19    3.10    1.25
  10  -2 -16   11.88    1.14
  11  -1 -11    1.83    0.79
  12  -2 -23   -1.28    1.31
  12  -2 -22    0.10    1.28
  12  -2 -21    0.12    1.29
  15  -1 -19   -0.42    1.14
  -6  -2  -6    0.78    0.61
  -5  -3 -13   29.85    1.23
  -4  -2  -6  117.51    1.33
   3  -3 -15   44.60    1.57
   5  -3 -18   -0.18    1.18
   5  -3 -17   -0.24    1.03
   7  -3 -23    1.71    1.49
   7  -3 -22    1.67    1.29
  10  -2 -15   10.96    1.21
  12  -2 -20    8.83    1.40
  12  -2 -19    2.44    1.13
  15  -1 -18    2.16    0.92
  -7  -3 -13   -0.16    0.69
  -3  -3 -12    0.45    0.89
  -1  -3 -12   -0.67    0.80
   1  -3 -13   11.52    1.15
   5  -3 -16   -0.22    1.04
   7  -3 -21    0.16    1.13
   7  -3 -20   -0.43    1.30
   7  -3 -19    0.46    1.09
   9  -1  -8    1.33    0.73
  10  -2 -14    8.59    1.14
  11  -1 -10   18.45    0.96
  12  -2 -18    1.23    1.07
  13  -1 -13    0.95    0.80
  15  -1 -17    0.56    0.89
  -8  -2  -6    1.59    0.47
  -7  -3 -12    1.76    0.79
   2  -2  -7    4.56    0.79
   4  -2  -8   70.02    1.41
   5  -3 -15   -0.14    0.91
   7  -3 -18    0.77    1.27
   7  -1  -6   49.50    0.99
  12  -2 -17   -0.07    1.11
  -5  -3 -11    0.50    0.79
  -1  -3 -11    0.62    0.85
   0  -2  -6    0.38    0.62
   3  -3 -13   16.63    1.28
   6  -2  -9   19.36    1.01
   7  -3 -17    6.80    1.21
   9  -3 -21    4.32    1.38
  10  -2 -13   -0.18    1.10
  12  -2 -16    0.13    0.97
  13  -1 -12    9.12    0.91
  14  -2 -22   -0.31    1.19
  14  -2 -21    1.29    1.21
  -7  -3 -11    0.22    0.82
   3  -3 -12    9.29    1.06
   5  -3 -14    4.20    1.01
   7  -3 -16    9.86    1.24
   9  -3 -19    5.62    1.39
  11  -1  -9   12.80    0.85
  12  -2 -15    5.09    1.07
  14  -2 -20    0.04    1.22
  -5  -3 -10   14.15    0.91
  -4  -2  -5   65.03    1.00
  -3  -3 -10   18.85    1.04
  -2  -4 -21    0.49    1.11
  -1  -3 -10   21.38    1.10
   0  -4 -21    0.99    1.07
   4  -2  -7   28.63    1.05
   5  -3 -13    1.90    1.15
   7  -3 -15    2.32    1.07
   9  -3 -18    0.22    1.19
   9  -1  -7   64.07    1.15
  10  -2 -12    9.55    1.09
  11  -3 -22    0.11    1.16
  13  -1 -11    0.63    0.81
  14  -2 -19    0.08    1.01
  14  -2 -18   10.47    1.27
  -7  -3 -10    6.34    0.83
  -4  -4 -21    4.56    1.06
  -4  -4 -20    0.34    1.03
  -4  -4 -19    0.06    1.05
  -2  -4 -19    1.90    1.24
   0  -4 -20   -0.94    1.26
   0  -4 -19   -1.34    1.25
   2  -4 -21    1.25    1.21
   2  -4 -20    5.11    1.26
   6  -2  -8   39.43    1.17
   7  -3 -14    3.52    1.02
   9  -3 -17    1.18    1.13
  11  -3 -21    0.89    1.32
  11  -3 -20    0.30    1.18
  12  -2 -14    7.75    1.18
  -4  -4 -18   -1.37    1.12
  -3  -3  -9    0.67    0.75
  -2  -4 -18    4.49    1.06
  -2  -4 -17    7.11    1.10
   0  -4 -18   -1.27    1.16
   0  -2  -5  106.91    1.30
   4  -4 -21    1.11    1.31
   4  -4 -20    0.51    1.10
   5  -3 -12   11.08    1.27
   5  -1  -4  498.85    2.23
  10  -2 -11   14.42    1.10
  11  -3 -19    3.19    1.34
  14  -2 -17    7.25    1.03
  -5  -3  -9    4.98    0.78
  -4  -4 -17    0.64    1.06
  -4  -4 -16    3.87    1.00
  -2  -4 -16    0.27    1.03
  -1  -3  -9   12.28    0.95
   0  -4 -17    2.54    1.06
   0  -4 -16   15.97    1.27
   4  -4 -19    1.21    1.32
   7  -3 -13   -0.14    1.20
   9  -3 -15    2.79    1.10
  11  -3 -18    8.99    1.35
  11  -1  -8   15.12    0.78
  13  -1 -10    8.23    0.91
  14  -2 -16    0.40    0.97
  16  -2 -21    0.84    0.98
  16  -2 -20   -0.15    1.15
  -7  -3  -9   -0.37    0.70
  -2  -4 -15   -0.03    1.01
   0  -4 -15    2.02    1.20
   1  -3  -9    6.94    0.93
   4  -4 -18    0.91    1.30
   4  -2  -6    3.94    0.80
   5  -3 -11    6.53    1.03
   6  -4 -20    1.48    1.35
   6  -2  -7    0.09    0.74
   9  -3 -14   38.23    1.53
  11  -3 -17    1.18    1.24
  13  -3 -21   -0.39    1.32
  14  -2 -15    1.14    0.87
  16  -2 -19    0.73    1.06
  -4  -4 -15    1.10    0.85
  -3  -3  -8   46.53    1.19
   2  -2  -5  358.96    2.36
   4  -4 -17   10.28    1.28
   6  -4 -19   -0.14    1.22
   6  -4 -18    0.34    1.18
   7  -3 -12    0.59    1.09
  10  -2 -10    1.43    0.82
  11  -3 -16    1.03    1.11
  12  -2 -12    5.93    0.99
  13  -3 -20   -1.05    1.23
  16  -2 -18    0.71    1.07
  -5  -3  -8    2.29    0.69
  -4  -4 -14    9.01    1.00
  -4  -2  -4   61.60    0.94
  -1  -3  -8   12.84    0.88
   0  -4 -14   -0.06    1.01
   3  -3  -9    5.49    1.00
   4  -4 -16    0.51    1.12
   5  -3 -10    2.63    1.01
   6  -4 -17    0.15    1.21
   8  -4 -20    5.38    1.40
  11  -3 -15   -0.26    1.04
  13  -3 -19    0.88    1.11
  13  -3 -18   -0.55    1.28
  14  -2 -14    2.44    1.06
  -7  -3  -8   79.80    1.39
  -6  -2  -4    0.59    0.49
  -4  -4 -13   -0.01    0.96
   0  -4 -13    1.62    0.95
   1  -3  -8    7.31    0.90
   4  -4 -15   -0.11    1.06
   6  -4 -16    1.99    1.25
   7  -3 -11   22.91    1.11
   8  -4 -19    2.33    1.37
   8  -4 -18    4.04    1.32
  10  -2  -9   59.10    1.46
  12  -2 -11    6.02    1.01
  13  -1  -9    0.47    0.65
  16  -2 -17    0.63    1.03
  -3  -3  -7    9.74    0.88
   0  -2  -4   41.09    0.90
   4  -4 -14    0.91    1.06
   5  -3  -9   51.20    1.50
   6  -4 -15   30.08    1.59
   6  -2  -6   26.04    0.99
   8  -4 -17   -1.33    1.25
  10  -4 -20    1.34    1.39
  11  -3 -14    0.63    1.04
  13  -3 -17    0.11    1.03
  -4  -4 -12    1.25    0.95
  -2  -4 -12   40.28    1.44
  -1  -3  -7   51.14    1.29
   4  -2  -5   39.58    1.08
   7  -3 -10   54.47    1.73
   7  -1  -4    1.54    0.50
   8  -4 -16   -1.43    1.18
  10  -4 -19    0.66    1.37
  13  -3 -16   -0.90    1.15
  15  -3 -20    4.32    1.09
  -2  -4 -11   16.92    1.20
   1  -3  -7   51.60    1.35
   2  -4 -12    3.27    1.05
   5  -1  -3  232.97    1.46
   6  -4 -14    4.30    1.30
  10  -4 -18   -0.70    1.37
  11  -3 -13    4.66    0.99
  12  -2 -10   -1.38    0.94
  13  -3 -15   12.04    1.25
  14  -2 -12    0.24    0.98
  15  -3 -18    0.19    1.21
  -4  -4 -11    1.17    0.89
  -3  -5 -19    0.45    0.92
  -1  -5 -19   -0.62    1.10
   1  -5 -19   -0.52    1.33
   2  -2  -4  227.16    1.81
   4  -4 -12    6.49    1.15
   5  -3  -8    4.95    0.94
   7  -3  -9   56.30    1.62
   8  -4 -15    1.24    1.15
  10  -4 -17   -0.65    1.36
  10  -2  -8   70.58    1.52
  -6  -4 -11   -0.04    0.94
  -3  -5 -18    1.10    1.10
  -1  -5 -18   -0.03    1.00
  -1  -3  -6   72.17    1.45
   1  -5 -18    7.44    1.37
   2  -4 -11    0.41    1.02
   3  -3  -7    3.51    0.90
  10  -4 -16    4.71    1.33
  11  -3 -12    4.79    1.02
  12  -4 -19    0.49    1.39
  15  -3 -17   -0.66    1.31
  -5  -3  -6    2.08    0.61
  -4  -4 -10    0.12    0.93
  -4  -2  -3    8.73    0.56
  -3  -5 -17    3.86    1.18
  -2  -4 -10    4.54    0.89
  -1  -5 -16    0.00    1.20
   0  -4 -10    0.83    1.03
   1  -5 -17   -0.90    1.24
   1  -3  -6   43.51    1.24
   4  -4 -11    4.73    1.06
   5  -5 -18    0.88    1.19
   6  -4 -12    0.86    1.16
   6  -2  -5   99.81    1.50
  12  -4 -18    0.64    1.32
  12  -2  -9    9.21    0.99
  15  -3 -16   -0.01    1.17
  -6  -4 -10    3.06    0.93
  -3  -5 -16    3.07    1.09
   0  -2  -3    0.25    0.53
   1  -5 -16   -0.74    1.22
   2  -4 -10    4.94    1.15
   4  -2  -4   21.76    0.89
   7  -3  -8   37.60    1.42
   8  -4 -13    0.29    1.08
  13  -3 -13   -0.59    1.11
  -7  -3  -6   29.98    0.90
  -3  -5 -15   -1.68    1.18
  -2  -4  -9    3.82    0.98
  -1  -5 -15    0.04    1.11
   0  -4  -9    1.60    1.05
   1  -5 -15   -1.12    1.28
   3  -3  -6   85.16    1.63
   4  -4 -10   78.51    2.07
   5  -5 -16    0.97    1.24
   6  -4 -11    3.57    1.10
   8  -4 -12    3.67    1.12
  10  -4 -14    3.04    1.24
  12  -4 -16    1.10    1.33
  15  -3 -15    0.30    0.98
  -3  -5 -14    0.35    1.00
  -3  -3  -5    2.86    0.85
  -1  -5 -14    0.16    1.22
   1  -5 -14    0.70    1.19
   2  -4  -9    6.78    1.16
   7  -5 -17    1.76    1.51
  12  -2  -8   25.18    1.18
  13  -1  -7   88.04    1.33
  14  -4 -18    2.55    1.45
  14  -2 -10    3.52    0.90
  15  -3 -14    1.50    1.00
  -6  -4  -9    1.73    0.78
   1  -5 -13    3.19    1.28
   1  -3  -5    4.05    0.84
   2  -2  -3    7.11    0.65
   4  -4  -9    5.52    1.35
   5  -5 -15    0.78    1.20
   6  -4 -10    0.38    1.01
   7  -5 -16    2.47    1.48
   7  -1  -3    2.56    0.45
   8  -4 -11    2.12    1.14
   9  -1  -4   -0.28    0.55
  -5  -3  -5    1.51    0.60
  -3  -5 -13    1.12    1.04
   0  -4  -8    0.59    0.91
   2  -4  -8   19.50    1.23
   5  -5 -14    0.09    1.34
   5  -3  -6    0.69    0.62
   6  -2  -4  149.02    1.73
   7  -5 -15   -1.43    1.43
   8  -2  -5    3.43    0.84
  10  -2  -6    0.74    0.72
  11  -1  -5    0.61    0.56
  12  -4 -14    1.65    1.35
  13  -3 -11    0.76    0.94
  14  -4 -16    0.95    1.15
  -3  -5 -12   -1.03    1.06
  -1  -5 -12   -0.59    1.16
   3  -3  -5   20.40    1.09
   5  -5 -13    0.85    1.19
   6  -4  -9    4.72    1.29
   7  -5 -14    2.03    1.26
   8  -4 -10   16.09    1.28
   9  -5 -16    1.90    1.52
  11  -3  -9    5.14    1.18
  12  -4 -13   17.19    1.65
  14  -2  -9    6.83    0.93
  -7  -3  -5    1.60    0.57
  -6  -4  -8   20.97    1.04
  -2  -4  -7    0.34    0.85
   0  -4  -7   33.38    1.37
   4  -4  -8   17.77    1.45
   4  -2  -3    0.33    0.69
   9  -5 -15   -0.08    1.44
  12  -2  -7   17.20    1.00
  13  -3 -10    4.03    1.06
  14  -4 -15   -0.31    1.43
  15  -3 -12   17.87    1.29
  -3  -5 -11    5.05    1.04
  -3  -3  -4   10.03    0.82
   1  -5 -11   22.65    1.51
   2  -4  -7    1.97    1.00
   3  -5 -11   -0.93    1.09
   5  -5 -12    3.52    1.33
   5  -3  -5   47.32    1.40
   7  -5 -13    0.63    1.41
   7  -3  -6   17.62    0.92
  13  -1  -6   10.63    0.63
  14  -4 -14    0.69    1.16
   0  -2  -2    0.42    0.37
   1  -3  -4    4.75    0.71
   4  -4  -7    5.53    1.11
   6  -4  -8    9.46    1.28
   8  -4  -9    4.05    1.06
  11  -5 -15   -1.01    1.30
  11  -3  -8    5.57    1.08
  14  -2  -8    3.96    0.86
  16  -4 -16   -1.27    1.19
  -6  -4  -7   16.44    1.00
  -5  -3  -4    1.14    0.57
  -3  -5 -10    2.08    1.00
  -1  -5 -10    3.23    1.13
   0  -4  -6   -0.13    0.86
   2  -2  -2   15.05    0.72
   3  -5 -10    2.30    1.09
   3  -3  -4   25.37    1.11
   5  -5 -11    1.01    1.27
   8  -2  -4   45.36    1.18
  10  -2  -5    1.43    0.76
  12  -4 -11    0.08    1.18
  13  -3  -9    0.07    1.12
  14  -4 -13   -1.28    1.35
  15  -3 -11    2.43    0.98
  -2  -6 -15    0.10    1.11
   0  -6 -15   -0.70    1.23
   2  -4  -6    8.07    1.10
   6  -2  -3   14.61    0.81
   7  -5 -11    4.99    1.33
   7  -3  -5    2.89    0.93
   8  -4  -8    3.95    1.14
  11  -5 -14   -0.68    1.50
  12  -2  -6    0.25    0.78
  16  -4 -15    0.98    1.11
  -4  -4 -11   -0.03    0.63
  -2  -4 -21    0.22    0.93
  -2  -4 -16   -0.09    0.82
   1  -3 -12    1.19    0.94
   2  -2  -8   81.90    1.46
   4  -2 -13    0.99    1.07
   5  -1 -10    8.93    0.96
   7  -1 -25    2.43    1.40
   7  -1 -24   -0.14    1.42
   8   0 -16    0.96    0.95
   9   1 -17    2.91    0.89
   9   1 -16   11.98    1.06
  -4  -4 -10   -0.15    0.75
  -2  -4 -15    0.07    0.77
  -2  -4 -14    0.06    0.71
   3  -3 -23    1.07    1.31
   3  -3 -21    1.75    1.42
   3  -3 -20    1.76    1.32
   3  -3 -19   -0.28    1.29
   3  -1  -6  219.83    1.75
   4  -2 -12   26.63    1.29
   6   0  -9   22.44    0.89
   8   0 -15    1.72    0.88
   9   1 -15    3.64    0.99
  -5  -3  -3  128.65    1.28
  -3  -3  -5    2.19    0.55
   3  -3 -18   -0.62    1.12
   3  -3 -17    1.09    1.10
   3  -3 -16   12.42    1.25
   6  -2 -24    0.58    1.46
   6  -2 -23    1.06    1.40
   6  -2 -22    5.18    1.46
   6  -2 -21    1.67    1.29
   6  -2 -20    6.90    1.43
   8   0 -14    1.31    0.91
  -4  -4  -9   16.68    1.03
  -2  -4 -12   39.20    1.47
   0  -4 -21    0.13    1.04
   0  -4 -20   -0.33    1.11
   0  -4 -19   -0.13    1.02
   0  -4 -18    0.31    0.93
   3  -3 -15   50.74    1.72
   4  -2 -11   17.19    1.08
   6  -2 -17   -0.08    1.03
   7  -1 -14    6.54    1.00
   8   0 -13    0.96    0.77
   9   1 -14   81.37    1.58
   3  -3 -14   -0.79    1.28
   6   0  -8   54.97    1.04
   7  -1 -13    2.04    0.91
  -4  -4  -8   11.18    0.95
  -2  -4 -11   17.52    1.20
   0  -4 -15    2.81    1.08
   1  -3  -9    7.62    0.96
   3  -3 -13   15.61    1.32
   4  -2 -10  217.12    2.43
   5  -3 -23    0.28    1.34
   5  -3 -22   -1.96    1.27
   6  -2 -15   87.67    2.12
   8   0 -12   22.87    0.99
   9  -1 -25    1.15    1.11
   9  -1 -24    1.24    1.34
   9  -1 -23    1.52    1.26
   9  -1 -22    2.40    1.19
   9  -1 -21    9.56    1.22
   9   1 -13   14.52    0.84
  10   0 -26    0.36    1.12
  10   0 -23    5.23    1.24
  10   0 -22    0.92    1.11
  10   0 -21    1.28    1.11
  10   0 -20    0.65    0.96
  -3  -3  -4   10.61    0.76
  -2  -4 -10    4.44    0.87
  -1  -3  -6   75.87    1.40
   0  -4 -14    1.95    0.91
   2  -4 -21    0.17    0.91
   3  -1  -5   56.13    0.82
   5  -3 -21    1.24    1.24
   5  -3 -20    8.19    1.47
   5  -3 -19    4.32    1.35
   5  -1  -8    7.28    0.79
   7  -1 -12   -0.36    0.80
   9  -1 -20   -0.40    1.03
  10   0 -19   -0.05    0.94
  10   0 -18    0.41    0.89
   0  -4 -13    2.27    1.04
   2  -4 -19   -0.60    1.29
   2  -4 -18   -0.37    1.17
   2  -2  -6   25.75    0.90
   4  -2  -9   14.67    1.00
   5  -3 -17    1.40    1.13
   6  -2 -13    6.77    1.04
   8  -2 -24    0.39    1.41
   8  -2 -23    1.46    1.35
   8  -2 -22    0.47    1.36
   8  -2 -21   -0.86    1.25
   8  -2 -20    7.77    1.30
   8   0 -11    3.93    0.76
   9  -1 -18    1.93    0.91
  10   0 -17    0.24    0.99
  -2  -4  -9    3.62    0.99
   0  -4 -12   12.81    1.30
   2  -4 -17    0.39    1.15
   2  -4 -16    0.26    0.98
   5  -3 -16    0.47    1.10
   7  -1 -11   55.81    1.41
   8  -2 -19    6.92    1.37
   9  -1 -16   11.98    1.26
   5  -3 -15    0.31    0.99
   6  -2 -12    5.89    1.00
   8  -2 -18    7.58    1.22
   8  -2 -17    0.51    1.09
  -1  -5 -19    0.45    0.87
  -1  -5 -18   -0.02    0.93
  -1  -3  -5  211.24    1.97
   0  -4 -11   13.43    1.17
   2  -4 -14    0.53    1.02
   4  -2  -8   69.28    1.41
   5  -3 -14    4.40    1.19
   6  -2 -11   14.21    1.01
   7  -3 -23    2.23    1.50
   7  -3 -22    1.98    1.50
   7  -3 -21   -0.66    1.42
   7  -1 -10  136.67    1.86
   8   0 -10   60.98    1.27
   9  -1 -15    3.57    1.07
   9   1 -11    1.94    0.58
  10   0 -15   14.36    1.11
  -2  -4  -8    6.55    0.87
  -1  -5 -17    0.02    0.88
   0  -4 -10    0.30    0.98
   2  -2  -5  369.90    2.32
   4  -4 -19    0.54    1.47
   4  -4 -18    1.65    1.14
   5  -3 -13    2.05    1.22
   7  -3 -20   -0.83    1.22
   7  -3 -19   -1.19    1.31
   8  -2 -15    2.00    1.22
   9  -1 -14   81.66    1.83
  10   0 -14   12.12    1.04
  11  -1 -25    0.51    1.20
  11  -1 -24    2.29    1.22
  11  -1 -23    0.49    1.26
  11  -1 -22   -0.40    1.25
  12   0 -24    0.38    1.12
  12   0 -23   -0.98    1.06
  -3  -3  -3    1.08    0.55
  -1  -5 -16   -0.43    0.90
   2  -4 -13   12.69    1.12
   3  -1  -4   78.58    0.91
   4  -4 -17   10.72    1.37
   7  -3 -17    6.28    1.23
  10  -2 -24   -0.03    1.36
  11  -1 -21    2.46    1.05
  11  -1 -20    0.36    1.04
  12   0 -22   -0.27    1.03
  12   0 -21   -0.04    1.06
  -1  -5 -15   -0.44    0.91
   1  -5 -19    0.15    0.97
   4  -4 -16   -0.19    1.21
   4  -2  -7   27.68    1.04
   6  -2 -10    0.82    0.78
   7  -1  -9  113.73    1.67
   8  -2 -14    1.55    1.05
  10   0 -13   -0.44    0.81
  11  -1 -19    6.83    1.19
  12   0 -20   11.98    1.14
  12   0 -19    4.58    1.07
  -2  -4  -7   -0.11    0.68
  -1  -5 -14    0.02    0.75
   0  -4  -9    1.73    0.89
   1  -5 -17    0.11    0.95
   4  -4 -15   -0.13    1.13
   5  -1  -6   -0.01    0.58
   6  -4 -21    1.01    1.38
   7  -3 -15    2.15    1.10
   8  -2 -13    1.34    1.03
   8   0  -9   15.90    0.83
   9   1 -10   21.53    0.70
  11   1 -14    1.11    0.78
  12   0 -18    0.86    1.02
  -1  -5 -13    7.55    1.02
  -1  -3  -4    0.96    0.68
   1  -5 -16   -0.01    0.97
   2  -4 -11    0.59    0.95
   4  -4 -14    0.07    1.05
   5  -3 -11    6.88    1.01
   6  -4 -20    3.10    1.36
   6  -4 -19    2.22    1.32
   6  -2  -9   18.40    1.04
   9  -3 -22   -0.40    1.31
   9  -3 -21    3.76    1.54
   9  -3 -20    0.24    1.44
  10  -2 -18    0.76    1.05
  10  -2 -17   -0.98    1.01
  10   0 -12   17.80    1.04
  11  -1 -17    2.45    0.88
  -1  -5 -12    0.12    0.95
   0  -4  -8    1.60    0.83
   1  -5 -15   -0.70    1.10
   4  -4 -13    1.21    0.88
   6  -4 -18    0.00    1.34
   7  -3 -14    2.71    0.99
   8  -2 -12   17.81    1.20
   9  -3 -19    5.88    1.33
  11  -1 -16    0.23    1.03
  -2  -4  -6   15.72    0.84
   2  -4 -10    4.29    1.08
   2  -2  -4  224.50    1.76
   3  -5 -19   -0.28    0.94
   3  -5 -18    0.62    1.14
   7  -1  -8   82.65    1.29
   9  -3 -18    0.02    1.26
  10  -2 -16   10.86    1.20
  11  -1 -15    0.82    1.05
  11   1 -13    8.04    0.74
  12  -2 -23   -0.41    1.13
  12   0 -16    0.85    0.92
  13  -1 -24    1.10    1.14
  13  -1 -23    2.24    1.11
  13  -1 -22    2.83    1.27
   1  -3  -5    4.01    0.77
   3  -5 -17   -0.57    1.28
   4  -4 -12    6.79    1.09
   6  -2  -8   40.47    1.21
   8   0  -8   39.76    1.01
   9  -3 -17    1.15    1.20
  10   0 -11   27.25    1.01
  12  -2 -22    1.05    1.29
  12  -2 -21    0.38    1.24
  13  -1 -21    0.51    1.19
   0  -4  -7   32.57    1.16
   1  -5 -13    4.06    0.97
   2  -4  -9    7.05    1.05
   3  -5 -16    2.97    1.37
   5  -3  -9   50.20    1.50
   5  -1  -5   94.11    1.17
   7  -3 -12   -0.37    1.18
   9  -3 -16    6.17    1.24
  10  -2 -14    8.02    1.20
  11  -1 -14    1.28    1.07
  12  -2 -20    8.28    1.41
  12   0 -15    8.35    1.06
  13  -1 -20    0.63    1.11
  13  -1 -19    0.20    1.15
  -3  -3  -2    4.47    0.42
   1  -5 -12    0.16    0.83
   5  -5 -19    1.12    1.39
   7  -1  -7   14.23    0.79
   8  -4 -19    4.40    1.28
   8  -2 -10   45.52    1.37
   9  -3 -15    1.05    1.15
  11  -3 -21    1.21    1.43
  11   1 -12    8.29    0.64
  12  -2 -19    4.11    1.29
  12   0 -14   15.33    1.13
  -2  -4  -5   20.23    0.83
   3  -5 -14   -0.04    1.09
   4  -2  -5   39.01    1.01
   5  -5 -18    0.50    1.28
   8  -4 -17    0.21    1.32
  10  -2 -13    1.13    1.15
  10   0 -10    1.16    0.73
  11  -3 -20    0.02    1.28
  11  -3 -19    4.58    1.29
  11  -1 -13    8.44    1.10
  12  -2 -18    1.06    1.12
  13  -1 -18    0.59    0.96
  14   0 -19    0.33    0.98
   1  -5 -11   24.12    1.34
   2  -4  -8   21.51    1.22
   3  -3  -6   84.12    1.58
   4  -4 -10   78.88    2.00
   5  -5 -17    1.18    1.36
   5  -3  -8    3.90    0.89
   6  -2  -7    0.85    0.74
   8  -4 -16   -0.97    1.25
   8   0  -7    7.54    0.72
  13  -1 -17    1.50    0.96
  14   0 -18   14.55    1.39
   1  -3  -4    4.79    0.70
   2  -2  -3    7.59    0.54
   3  -5 -13    4.17    1.20
   5  -5 -16    0.66    1.34
   7  -3 -10   54.85    1.71
   8  -4 -15    0.53    1.12
   8  -2  -9   14.05    1.04
   9  -3 -13    9.74    1.17
  11  -3 -17    0.34    1.23
  11  -1 -12    8.58    1.06
  11   1 -11    0.77    0.61
  12   0 -13   64.38    1.62
  13  -1 -16   -0.16    0.95
  14  -2 -22    0.70    1.16
  15  -1 -23    0.46    1.14
   1  -5 -10    9.62    1.18
   3  -5 -12    1.18    1.09
   4  -4  -9    7.21    1.10
   5  -5 -15    1.54    1.22
  10  -4 -19   -0.11    1.40
  11  -3 -16    0.65    1.13
  14  -2 -21    0.65    1.20
  14   0 -17    9.06    1.10
  15  -1 -22    0.12    1.17
  15  -1 -21    0.30    1.19
   5  -5 -14    1.36    1.18
   5  -3  -7    4.59    0.85
   5  -1  -4  481.54    2.33
   7  -5 -18   -0.04    1.35
   7  -3  -9   57.29    1.57
   7  -1  -6   44.86    1.07
   8  -4 -14    0.76    1.18
   9  -3 -12    2.28    1.11
  10  -4 -18   -0.27    1.36
  10  -2 -11   13.08    1.23
  10   0  -9   81.62    1.38
  11  -1 -11    1.73    0.85
  13  -1 -15   22.45    1.36
  14  -2 -20    0.22    1.34
  14   0 -16    1.33    1.11
  15  -1 -20    5.55    1.35
  -2  -4  -4    8.01    0.61
   0  -4  -5   24.17    1.06
   1  -5  -9    1.73    1.02
   3  -5 -11    0.54    0.96
   3  -3  -5   20.83    0.99
   6  -2  -6   24.64    0.87
   8  -2  -8   19.07    1.06
  10  -4 -17   -1.12    1.45
  11  -3 -15   -0.79    1.14
  13  -3 -20   -0.13    1.41
  14  -2 -19    0.89    1.12
  15  -1 -19    1.52    1.21
   4  -4  -8   17.94    1.19
   5  -5 -13    2.65    1.11
   6  -4 -10    0.16    1.06
   7  -5 -16    1.94    1.44
   9  -3 -11    0.82    1.23
  11  -3 -14    0.25    1.12
  13  -3 -19   -0.05    1.24
  13  -3 -18   -1.31    1.51
  14  -2 -18    9.32    1.43
  14   0 -15    1.81    0.99
  15  -1 -18    2.52    1.21
  -1  -3  -2    0.61    0.55
   2  -4  -6    8.33    0.93
   3  -5 -10    1.52    1.03
   5  -5 -12    2.64    1.21
   7  -5 -15   -1.08    1.42
   7  -3  -8   36.23    1.40
   8  -4 -12    4.40    1.18
   8   0  -6    8.87    0.65
  10  -2 -10    1.15    0.86
  11  -1 -10   19.95    1.10
  12   0 -11    6.60    0.84
  13  -1 -13    0.58    1.14
  14  -2 -17    6.61    1.25
   1  -5  -8    3.10    0.95
   1  -3  -3    0.74    0.59
   4  -6 -16   -0.63    1.14
   7  -5 -14    2.99    1.33
   8  -2  -7    1.49    0.79
  10   0  -8  106.86    1.50
  11  -3 -13    4.74    1.18
  13  -3 -17    0.46    1.16
  14  -2 -16    1.15    1.09
  14   0 -14    4.38    0.94
  15  -1 -17    1.83    1.11
   2  -2  -2   14.78    0.55
   3  -5  -9    0.85    1.06
   3  -3  -4   25.69    1.02
   4  -6 -15   -0.15    1.12
   5  -5 -11    2.36    1.14
   6  -2  -5   96.87    1.51
   7  -1  -5    7.90    0.71
   8  -4 -11    2.53    1.09
   9  -5 -17    1.41    1.31
  10  -4 -14    1.96    1.23
  10  -2  -9   56.20    1.61
  12  -4 -18    0.93    1.27
  15  -1 -16   -0.36    1.09
  -2  -4  -3   25.70    0.86
   0  -4  -4    7.36    0.72
   4  -6 -14   -0.60    1.20
   7  -5 -13    1.56    1.26
   7  -3  -7    6.89    1.04
   9  -5 -16    0.69    1.47
  10  -4 -13    0.42    1.24
  11  -1  -9   12.81    0.98
  12  -4 -17    0.34    1.37
  12   0 -10    0.21    0.74
  13  -3 -15   10.46    1.44
  13  -1 -12    8.70    1.16
  14  -2 -15    1.31    1.10
  16  -2 -20   -0.92    1.12
  17  -1 -21    0.06    1.18
   1  -5  -7   10.61    1.05
   4  -2  -3    0.17    0.59
   5  -5 -10   -0.50    1.08
   5  -3  -5   45.03    1.35
   6  -4  -8    7.18    1.29
   7  -5 -12   -1.37    1.16
   8  -4 -10   15.78    1.26
   9  -5 -15    0.09    1.52
   9  -3  -9    7.13    0.86
  12  -4 -16   -0.55    1.41
  12  -2 -11    7.17    1.18
  14  -2 -14    3.03    1.14
  15  -1 -15    1.12    1.06
  16  -2 -19    0.13    1.15
  17  -1 -20    0.33    1.26
   3  -5  -8   -0.26    1.01
   4  -6 -13    0.53    1.18
   4  -4  -6    2.00    0.93
   5  -1  -3  231.29    1.57
   6  -6 -15    5.82    1.25
   8  -2  -6   10.43    0.92
  10  -4 -12    3.23    1.32
  10  -2  -8   71.60    1.68
  11  -3 -11    0.42    1.00
  12  -4 -15    1.82    1.44
  13  -3 -14   -0.22    1.24
  13  -1 -11    0.30    1.00
  17  -1 -19   -0.47    1.25
   4  -6 -12    1.33    1.12
   5  -5  -9    9.52    1.10
   7  -5 -11    3.61    1.25
   8   0  -5    3.55    0.63
   9  -3  -8   -0.17    1.05
  12  -4 -14    4.22    1.30
  12  -2 -10    0.20    0.96
  13  -3 -13    0.48    1.08
  14  -2 -13    2.66    1.10
  14   0 -12    0.59    0.87
  15  -1 -14    1.93    1.04
  17  -1 -18    0.25    1.37
   1  -5  -6    7.63    0.96
   6  -6 -14    1.92    1.12
   6  -4  -7    1.39    1.06
   6  -2  -4  146.36    1.71
   7  -3  -6   16.64    1.10
   9  -5 -13    3.44    1.46
  10  -4 -11    3.39    1.23
  11  -3 -10   11.90    1.24
  12   0  -9   14.82    0.89
  14  -4 -17    3.10    1.37
  16  -2 -16    0.98    1.20
  17  -1 -17   11.77    1.44
  -1  -3  -1    0.15    0.58
   2  -4  -4   59.76    1.41
   3  -5  -7    2.65    1.02
   4  -6 -11    1.44    1.13
   4  -4  -5    8.07    1.08
   6  -6 -13    1.17    1.28
   7  -5 -10   12.55    1.38
   7  -1  -4    1.84    0.63
  12  -4 -13   15.39    1.69
  13  -3 -12    4.84    1.19
  14  -4 -16    0.09    1.54
  14  -2 -12    0.72    1.02
   5  -5  -8    1.12    0.97
   8  -2  -5    3.61    0.82
   9  -3  -7   24.22    1.32
  10  -4 -10   -0.76    1.12
  11  -3  -9    3.90    1.34
  12  -2  -9    7.44    1.16
  14   0 -11    4.41    0.81
  15  -3 -15    0.97    1.17
  16  -2 -15    2.28    1.23
  17  -1 -16    1.06    1.20
  18  -2 -19    3.06    1.31
   6  -6 -12    0.35    1.29
   6  -4  -6    7.04    1.06
   7  -5  -9   16.71    1.36
   7  -3  -5    2.67    0.88
   9  -5 -11    1.30    1.22
  11  -1  -7   17.93    1.01
  12  -4 -12    2.54    1.36
  13  -3 -11   -1.05    1.14
  14  -4 -15    0.84    1.58
  14  -2 -11    2.08    1.04
  15  -3 -14    1.64    1.29
  16  -2 -14    3.95    1.37
   1  -5  -5    0.03    0.79
   3  -5  -6   13.19    1.19
   4  -2  -2   37.53    0.87
   6  -6 -11   -1.06    1.25
   8  -6 -13    0.63    1.34
   9  -1  -5  135.38    1.71
  13  -1  -9    1.00    0.94
  14  -4 -14    1.69    1.41
  17  -3 -17    6.46    1.50
  17  -1 -15    2.45    1.10
  18  -2 -18   -0.70    1.15
   2  -4  -3    1.50    0.74
   4  -4  -4    3.68    0.91
   5  -1  -2   80.56    0.96
   6  -2  -3   13.69    0.83
   9  -5 -10    1.23    1.27
   9  -3  -6    3.88    0.99
  10  -2  -6    0.74    0.88
  11  -3  -8    5.00    1.30
  12  -2  -8   24.00    1.35
  13  -3 -10    3.18    1.09
  14   0 -10    3.28    0.84
  15  -3 -13    7.56    1.37
  15  -1 -11   -0.14    1.20
  16  -2 -13    1.44    1.10
  16   0 -13   -0.12    0.82
  17  -3 -16    2.53    1.41
  18  -2 -17    2.70    1.33
   0  -4  -2    0.34    0.67
   3  -3  -2   21.28    0.89
   6  -6 -10   -0.39    1.22
  14  -4 -13   -1.12    1.48
  17  -1 -14    0.23    1.03
   1  -3  -1    0.56    0.59
   3  -5  -5    2.51    0.99
   5  -5  -6    0.74    1.07
   7  -3  -4    0.56    0.81
   7  -1  -3    3.15    0.62
   8   0  -4   76.19    1.06
   9  -5  -9    1.49    1.20
  11  -1  -6   14.81    0.94
  12  -4 -10   -0.27    1.18
  13  -1  -8   38.11    1.32
  14  -4 -12   -0.80    1.30
  15  -3 -12   18.93    1.49
  16  -2 -12    2.84    1.18
  17  -3 -15    1.94    1.47
   1  -5  -4    0.20    0.79
   6  -6  -9   -1.06    1.30
   7  -5  -7    1.67    1.05
   8  -6 -11    0.23    1.27
  11  -3  -7    9.37    1.26
  12  -2  -7   17.68    1.20
  13  -5 -13    0.67    1.39
  13  -3  -9    0.84    1.04
  15  -1 -10   11.79    1.13
  17  -1 -13   -0.42    0.98
  18  -2 -15    1.79    1.37
   4  -4  -3    0.51    0.80
   9  -5  -8    0.82    1.29
   9  -3  -5   53.16    1.52
   9  -1  -4    0.37    0.69
  10  -4  -7   14.98    1.28
  10  -2  -5    1.50    0.89
  12   0  -7   28.72    0.95
  14  -4 -11   -0.19    1.39
  14   0  -9    9.49    0.88
  16  -2 -11    3.96    1.11
  18  -2 -14    0.08    1.38
  -1  -3   0    1.73    0.55
   2  -4  -2    4.25    0.72
   5  -5  -5   13.89    1.36
   6  -2  -2    1.34    0.66
   8  -6 -10    3.08    1.20
  10   0  -5    7.57    0.63
  13  -5 -12    0.90    1.36
  16  -4 -13    0.90    1.29
  16   0 -11    4.37    0.86
  17  -1 -12    1.83    0.95
   3  -5  -4    5.72    0.99
   6  -6  -8    1.87    1.26
   7  -5  -6    2.36    1.08
   7  -3  -3   -0.03    0.79
   8  -2  -3  367.38    2.85
  10  -6 -11    1.00    1.42
  11  -3  -6    5.02    0.85
  12  -4  -8    7.50    1.29
  12  -2  -6    0.12    0.96
  13  -5 -11    0.69    1.39
  13  -1  -7   87.27    1.77
  14  -4 -10    1.52    1.32
  15  -3 -10    5.42    1.18
  15  -1  -9    8.86    1.06
  18  -2 -13    1.71    1.39
   0  -4  -1    4.33    0.72
   3  -3  -1   44.92    1.09
   8  -6  -9    0.96    1.15
   9  -5  -7    4.64    1.23
   9  -3  -4    1.29    0.92
  10  -4  -6   -0.67    1.00
  16  -2 -10    0.47    1.11
  17  -1 -11    0.42    0.95
  19  -1 -14    1.29    1.13
   6  -6  -7    0.23    1.18
   6  -4  -3    2.55    1.00
  10  -6 -10   -0.16    1.31
  10  -2  -4    0.78    0.82
  12  -4  -7    5.17    1.15
  12   0  -6    0.28    0.61
  13  -5 -10    0.18    1.40
  14   0  -8    4.68    0.80
  15  -3  -9    4.97    1.20
  18  -2 -12   16.01    1.52
   1  -3   0    1.74    0.68
   3  -5  -3    8.19    1.11
   4  -4  -2    9.56    0.95
   5  -1  -1    6.50    0.51
   7  -5  -5    0.56    0.97
   8  -6  -8    0.72    1.33
   8   0  -3  502.51    2.46
   9  -5  -6    1.06    1.12
   9  -1  -3   31.66    1.03
  11  -3  -5   -0.53    0.98
  16  -4 -11    0.49    1.48
  16  -2  -9   -0.89    1.11
  19  -3 -14    0.83    1.21
  19  -1 -13    3.93    1.06
  20  -2 -15    1.16    1.19
   2  -4  -1    2.23    0.76
   7  -3  -2   10.93    0.86
  10  -4  -5   -0.13    0.91
  12  -2  -5    4.45    0.88
  13  -5  -9   -0.04    1.45
  13  -3  -6    4.16    1.02
  14  -4  -8    0.90    1.19
  15  -3  -8   -0.15    1.14
  17  -1 -10    4.59    1.01
  18  -2 -11    4.70    1.35
  20  -2 -14   -0.76    1.38
   6  -6  -6    0.49    1.15
   6  -2  -1    0.60    0.66
   8  -6  -7    0.98    1.24
  10   0  -4    1.89    0.66
  11  -5  -7    1.64    1.23
  12  -4  -6    1.37    1.11
  16  -4 -10   -0.28    1.47
  19  -1 -12    0.23    1.01
   5  -5  -3   18.36    1.29
   7  -5  -4    0.52    0.97
   9  -5  -5   10.29    1.35
  10  -6  -8    8.72    1.52
  10  -2  -3    4.03    0.85
  13  -5  -8    5.41    1.51
  14   0  -7   22.49    0.98
  15  -5 -10    0.73    1.47
  15  -1  -7    1.93    0.93
  16  -2  -8    0.69    0.99
  16   0  -9    0.58    0.75
  18  -2 -10    5.07    1.15
  19  -3 -12    0.19    1.32
  20  -2 -13    0.14    1.30
   3  -5  -2    2.92    1.00
   3  -3   0  166.92    1.80
   4  -4  -1    9.10    0.94
   4  -2   0    0.50    0.51
   6  -6  -5    3.09    1.13
   8  -6  -6    1.05    1.29
  10  -4  -4   -0.81    0.93
  11  -5  -6    0.27    1.31
  12  -2  -4   21.45    1.20
  12   0  -5    7.97    0.69
  13  -3  -5   -0.70    0.94
  14  -4  -7    4.08    1.37
  15  -3  -7    0.14    1.04
  16  -4  -9    0.79    1.22
  18  -4 -11    3.10    1.40
   0  -4   0  307.09    2.36
  10  -6  -7    3.48    1.42
  12  -4  -5    1.77    1.04
  15  -5  -9    0.52    1.51
  19  -3 -11    2.27    1.46
  19  -1 -11    2.65    0.98
  20  -2 -12    0.07    1.31
  -1  -3   1    0.69    0.57
   7  -5  -3    0.02    1.01
   7  -3  -1    9.35    0.91
   8  -4  -2    6.06    1.25
   9  -5  -4   -0.88    1.11
   9  -3  -2    1.00    0.85
   9  -1  -2    4.68    0.74
  11  -5  -5    1.31    1.08
  12  -6  -8    0.62    1.39
  14  -4  -6   -0.18    1.31
  16   0  -8    0.66    0.71
  17  -3  -8    3.85    1.42
  17  -1  -8    8.35    1.05
  18  -4 -10    2.55    1.50
  18  -2  -9    0.17    1.01
   2  -4   0    0.09    0.66
   5  -5  -2    3.24    1.06
   6  -6  -4    4.84    1.11
   6  -4  -1    1.01    0.90
   8  -6  -5   -0.78    1.22
   8  -2  -1   19.27    1.06
  10  -6  -6   -1.09    1.35
  10  -4  -3    1.62    0.96
  12  -4  -4    5.12    1.09
  13  -3  -4    2.73    1.03
  14   0  -6    0.72    0.73
  15  -5  -8   -0.01    1.46
  19  -3 -10   -0.78    1.23
  19  -1 -10   -0.71    0.93
   1  -3   1    1.20    0.63
   3  -5  -1    7.14    1.00
   6  -2   0   14.78    0.95
   8   0  -2   31.99    0.79
  10   0  -3    2.83    0.63
  12  -6  -7    0.54    1.32
  12  -2  -3    2.74    1.01
  13  -1  -4    4.46    0.85
  16  -4  -7   12.12    1.54
  16  -2  -6   21.27    1.30
  17  -3  -7    0.88    1.12
  18  -4  -9    0.91    1.39
  18  -2  -8   -0.10    1.12
  22  -2 -13    0.15    1.19
   4  -4   0   -0.20    0.79
   5  -1   0    1.96    0.37
   7  -5  -2    2.38    1.13
   9  -5  -3    2.95    1.08
  12   0  -4   32.13    0.97
  14  -4  -5    1.69    1.08
  14  -2  -4    0.22    1.13
  15  -5  -7    0.25    1.46
  15  -3  -5    0.17    1.10
  17  -1  -7   -0.14    1.03
  19  -3  -9   -1.32    1.26
  20  -2 -10    1.41    1.27
   3  -3   1  331.55    2.57
   5  -5  -1    0.09    0.91
   8  -6  -4    4.86    1.14
   8  -4  -1    5.38    1.09
   9  -3  -1    1.48    0.88
  10  -6  -5    0.65    1.09
  11  -3  -2  118.08    2.20
  12  -6  -6    0.35    1.29
  12  -4  -3   -0.26    1.08
  13  -3  -3    2.81    1.08
  18  -4  -8   -1.53    1.41
  18  -2  -7    0.15    1.15
  22  -2 -12    1.68    1.14
   9  -1  -1    5.41    0.72
  10  -2  -1    3.44    0.94
  14  -4  -4    0.83    1.15
  14   0  -5    3.31    0.76
  15  -5  -6   -1.57    1.47
  16  -2  -5    5.64    1.10
  17  -3  -6    5.17    1.28
  20  -2  -9    0.56    1.29
   8  -6  -3   17.58    1.46
   9  -5  -2    0.11    1.06
  11  -5  -3   12.22    1.36
  12  -6  -5   -0.23    1.17
  12  -2  -2    4.62    0.91
  14  -2  -3    1.74    1.07
  15  -3  -4    3.45    1.05
  16  -4  -5    2.27    1.26
  17  -1  -6   12.30    1.16
  18  -4  -7   -0.22    1.35
  19  -1  -8    2.29    0.93
   3  -5   0   35.01    1.34
   6  -6  -2   -0.35    0.97
   7  -1   0   30.11    0.98
  11  -3  -1   -0.33    1.03
  12  -4  -2    2.84    1.05
  15  -5  -5    0.28    1.41
  15  -1  -4    5.08    0.90
  17  -3  -5    0.98    1.19
  18  -2  -6   -0.41    1.13
  20  -2  -8    0.38    1.25
   4  -4   1    2.54    0.86
   5  -5   0    0.83    0.98
   6  -2   1  322.98    2.62
   8  -4   0    1.00    1.09
   9  -3   0    5.18    0.91
  10   0  -2    9.06    0.81
  11  -5  -2   29.49    1.60
  12   0  -3    3.51    0.77
  13  -3  -2    0.22    0.67
  14  -4  -3   -0.09    1.19
  15  -3  -3    2.41    0.95
  18  -4  -6   -0.13    1.48
  22  -2 -10    0.02    1.17
   8  -6  -2    1.00    1.19
   9  -5  -1    0.86    1.04
  12  -6  -4    0.26    1.12
  12  -2  -1   -0.22    0.94
  14   0  -4    2.74    0.83
  15  -5  -4    0.45    1.24
  17  -1  -5    1.57    1.09
  19  -1  -7    2.46    0.90
  20  -2  -7    4.91    1.29
  21  -3  -8   -0.10    1.17
  21  -1  -9    1.25    1.06
   3  -3   2    3.93    0.81
   7  -5   0    3.21    1.08
   8   0  -1   41.33    0.91
  12  -4  -1   -0.44    1.04
  13  -1  -2    1.69    0.81
  14  -2  -2   90.87    2.05
  17  -3  -4    0.29    1.17
  18  -4  -5    1.06    1.39
  18  -2  -5    1.92    1.08
  22  -2  -9   -0.37    1.15
  -1  -3   2   87.81    1.17
   3  -5   1   60.54    1.55
   5  -1   1    0.33    0.53
   8  -2   1   32.61    1.20
   9  -1   0   11.28    0.90
  10  -6  -2    0.50    1.31
  11  -5  -1    0.11    1.11
  11  -3   0   -0.35    1.08
  12  -6  -3   -0.29    1.18
  15  -3  -2    1.91    1.02
  15  -1  -3    5.03    1.00
  16  -4  -3    0.57    1.20
  21  -3  -7   -0.11    1.13
   0  -4   2   -0.12    0.65
   2  -4   2   15.20    0.92
   4  -4   2   -0.52    0.95
   4  -2   2    0.93    0.72
   5  -5   1    0.67    1.01
   8  -6  -1   -0.53    1.18
   8  -4   1    8.02    1.13
   9  -5   0   -0.71    1.14
   9  -3   1    0.84    0.79
  15  -5  -3   -1.40    1.38
  17  -3  -3    1.84    1.05
  17  -1  -4    0.79    0.99
  18  -4  -4    1.20    1.46
  18  -2  -4    2.08    1.03
  20  -2  -6    2.35    1.14
  21  -1  -8   -0.42    0.94
  22  -2  -8    0.05    1.09
   7  -5   1    1.44    1.14
  12  -6  -2    0.22    1.25
  12  -4   0    1.17    1.01
  12  -2   0    0.24    0.89
  14  -4  -1   11.82    1.30
  14  -2  -1   32.82    1.49
  21  -3  -6    0.08    1.13
   6  -4   2   72.87    1.85
   7  -3   2    1.86    0.84
  10  -6  -1    0.20    1.29
  10  -2   1    3.42    0.95
  11  -3   1    4.33    1.07
  12   0  -2    7.39    0.82
  13  -5  -1    0.51    1.28
  13  -3   0   15.86    1.24
  13  -1  -1    0.01    0.86
  15  -5  -2    0.82    1.29
  15  -3  -1    1.25    1.06
  16  -4  -2    0.46    1.30
  19  -1  -5   16.52    1.17
  22  -2  -7   -0.92    1.14
   3  -5   2    2.39    1.00
   8  -6   0   -0.18    1.16
   8  -4   2   14.69    1.33
   9  -5   1   -1.15    1.11
  10   0  -1    8.93    0.79
  15  -1  -2    3.87    0.92
  18  -4  -3    0.00    1.43
  18  -2  -3    1.39    1.06
   5  -5   2    3.21    1.03
   9  -3   2  115.10    2.12
   9  -1   1    0.04    0.83
  12  -6  -1    1.17    1.24
  12  -4   1    0.83    1.00
  14  -4   0    1.14    1.16
  16  -4  -1    0.06    1.18
  17  -1  -3    3.42    0.98
  21  -3  -5   -0.29    1.12
  21  -1  -6    0.46    1.06
  22  -2  -6    1.47    1.10
   1  -3   3    6.57    0.86
   2  -4   3   23.30    1.15
   3  -3   3    1.54    0.82
   4  -4   3    0.74    0.94
   7  -5   2    0.70    1.04
  10  -6   0    0.93    1.08
  11  -5   1    1.51    1.19
  12  -2   1    3.39    1.01
  13  -5   0    3.81    1.16
  14  -2   0   -0.30    1.08
  15  -5  -1    1.62    1.24
  18  -4  -2    0.71    1.32
  19  -1  -4    0.20    0.94
  20  -2  -4   -0.25    1.14
   6  -4   3    2.13    1.10
   8  -6   1   -0.09    1.19
   9  -5   2   27.33    1.46
  11  -3   2    0.55    1.13
  12  -6   0    0.35    1.26
  13  -1   0   31.71    1.26
  14   0  -2  139.45    1.98
  15  -1  -1    1.93    0.99
  17  -3  -1   21.45    1.47
  18  -2  -2    1.31    1.02
  21  -3  -4    1.29    1.29
   0  -4   3    1.18    0.66
   4  -2   3    8.29    0.94
   5  -1   2   76.07    1.23
  10  -6   1    0.08    1.05
  12  -4   2    1.26    1.00
  12   0  -1    0.57    0.76
  13  -5   1   -0.56    1.25
  14  -4   1   -0.56    1.15
  16  -4   0    0.59    1.37
  16   0  -3    0.87    0.82
  17  -1  -2    3.60    1.14
  20  -2  -3   -0.56    1.11
  21  -1  -5   -0.57    1.06
  22  -2  -5    6.55    1.22
   3  -5   3   -0.37    0.91
   5  -5   3   26.57    1.36
   6  -2   3    3.41    0.72
   7  -5   3    1.63    1.14
   7  -1   2    6.17    0.84
   9  -3   3   55.34    1.73
  10   0   0   55.77    1.28
  14  -2   1    0.99    1.15
  15  -3   1    1.56    1.13
  17  -3   0    7.06    1.26
  18  -4  -1    0.09    1.25
  18   0  -4    2.55    0.87
  21  -3  -3    0.17    1.22
  -1  -3   3    0.41    0.52
   8  -2   3   10.77    1.12
  12  -6   1    0.93    1.21
  12  -2   2    4.23    1.09
  18  -2  -1    3.20    1.01
  22  -2  -4    1.54    1.11
   0   6   8    0.07    0.57
   2   6   7    0.55    0.62
   4   4   1    2.10    0.75
   7   3  -1    9.11    0.74
  10   4   0   10.04    0.91
  10   6   5    0.44    1.09
  13   3  -1   -0.67    0.73
  14   2  -2   91.52    1.53
  16   4   1    4.46    0.98
  18   4   2    0.43    0.86
  -4   4   5    8.20    0.59
  -1   5   5    0.27    0.76
   1   5   4   -0.04    0.85
   3   5   3    0.25    0.82
   5   3  -1    2.70    0.61
   6   2  -2    2.04    0.57
   6   6   5    0.83    1.04
   7   5   2    0.13    0.83
   8   4   0    0.30    0.95
   8   6   5    0.09    0.89
   9   5   2   26.64    1.27
  11   5   2   -0.56    0.88
  13   5   2    0.23    1.04
  14   4   0    0.23    0.79
  15   3  -1    2.19    0.74
  -5   3   4  195.45    1.36
   0   2   0  979.46    2.63
   4   6   5    3.04    0.84
   5   5   2    2.47    0.85
   6   4   0    2.10    0.85
  10   6   4   -0.63    0.95
  16   2  -2   -0.56    0.69
  18   4   1    0.79    0.86
  19   3   0    0.39    0.82
  20   4   2    0.10    0.72
  -2   4   3    1.26    0.56
   0   4   2    0.53    0.58
   2   2  -1    9.58    0.51
   6   6   4    0.61    1.01
   8   6   4    2.78    0.95
   9   1  -3   33.47    0.78
   9   3  -2    0.14    0.76
   9   5   1   -0.17    1.00
  10   4  -1    2.36    0.80
  11   1  -3   87.02    1.07
  11   3  -2  115.62    1.76
  11   5   1    1.55    1.03
  13   1  -3    5.30    0.62
  13   5   1    0.80    0.85
  16   4   0    1.64    0.91
  17   3  -1   21.79    1.05
  -1   3   1    1.17    0.50
  -1   5   4    0.42    0.85
   0   6   6   -0.02    0.56
   1   5   3    0.79    0.79
   3   5   2    2.66    0.98
   4   4   0   -0.31    0.76
   7   3  -2   11.36    0.79
   7   5   1    1.98    0.85
  10   2  -3    4.20    0.69
  10   6   3   -0.48    0.99
  12   2  -3    3.92    0.69
  14   4  -1   11.32    1.06
  15   3  -2    1.46    0.81
  15   5   1    0.46    0.96
  18   4   0   -0.57    0.94
  20   4   1    0.89    0.84
  -4   4   4    4.07    0.58
   4   6   4    0.87    0.89
   5   5   1   -0.02    0.80
   6   4  -1    1.71    0.82
   8   6   3    1.92    0.99
  11   5   0   -0.06    0.89
  14   2  -3    2.61    0.70
  16   4  -1   -0.19    0.80
  -3   3   2   21.45    0.65
  -3   5   5    2.80    0.68
   3   7   7    0.00    0.68
   5   3  -2   29.01    0.93
   7   1  -3    2.87    0.44
   9   5   0    0.46    0.91
  10   6   2   -1.18    1.00
  11   3  -3   43.80    1.29
  13   5   0    3.58    1.06
  16   2  -3    0.86    0.64
  17   3  -2    2.28    0.76
   0   4   1    4.01    0.69
   0   6   5    1.54    0.71
   1   5   2   -0.78    0.84
   2   6   4    0.35    0.79
   4   4  -1    9.02    0.83
   4   6   3    0.40    0.99
   6   2  -3   13.82    0.73
   7   5   0    1.69    0.69
   8   4  -2    5.24    1.05
   8   6   2    3.89    1.11
   9   3  -3   14.29    0.91
  10   4  -2    2.30    0.84
  13   3  -3    2.79    0.76
  14   4  -2   34.20    1.37
  15   3  -3    2.01    0.79
  18   4  -1    1.46    0.93
  20   4   0    5.20    0.93
  -2   4   2    4.76    0.62
  -1   5   3    0.46    0.71
   3   7   6   -0.31    0.68
   5   5   0    0.63    0.78
   7   3  -3   -0.16    0.69
   9   5  -1    0.61    0.84
  10   6   1   -0.50    0.90
  11   5  -1    0.93    1.03
  16   4  -2    1.27    0.91
  -3   5   4    5.89    0.73
   0   6   4    0.34    0.87
   1   3  -1    0.42    0.56
   2   6   3    3.89    0.99
   4   6   2   -0.66    0.90
   6   4  -2   -0.40    0.84
   7   5  -1    1.15    0.87
   8   6   1    1.31    1.07
  10   2  -4   -0.18    0.59
  12   2  -4   22.26    0.87
  13   1  -4    5.33    0.60
  14   2  -4    1.09    0.67
  15   5  -1   -0.29    1.10
  17   3  -3    0.92    0.77
  18   4  -2    0.92    0.91
  20   4  -1    1.15    0.82
  -5   3   3   93.68    0.95
  -4   4   3    0.45    0.54
   1   5   1   -0.58    0.86
   2   2  -2   14.38    0.57
   3   3  -2   20.99    0.83
   3   7   5   -0.07    0.73
  10   4  -3    1.74    0.81
  11   3  -4    0.47    0.83
  12   6   0    1.53    1.13
  13   3  -4    3.10    0.89
  14   4  -3   -0.41    0.89
  16   2  -4    3.89    0.83
  17   5  -1    5.72    1.12
  -1   5   2   13.08    0.93
   0   2  -1    7.28    0.43
   0   4   0  316.72    2.40
   4   2  -3   -0.30    0.52
   5   1  -3  226.78    1.29
   5   3  -3   89.72    1.39
   8   4  -3  105.86    1.91
   8   6   0    0.91    1.10
   9   1  -4    0.81    0.52
   9   3  -4   -0.33    0.78
   9   5  -2   -0.09    0.92
  10   6   0    1.88    1.00
  11   5  -2   31.27    1.36
  13   5  -2   -0.54    0.90
  15   5  -2   -0.58    1.05
  16   4  -3   -0.18    0.89
  -3   3   1   45.23    0.88
  -2   4   1    1.35    0.57
   0   6   3    0.88    0.81
   2   6   2    3.48    0.92
   3   7   4   -0.27    0.73
   4   6   1    1.38    0.95
   5   7   3    1.83    1.00
   6   4  -3    3.23    0.84
   7   5  -2    3.22    0.91
  17   5  -2    1.72    1.01
  18   4  -3    0.51    0.93
  -3   5   3    7.74    0.78
   6   2  -4  148.31    1.53
   7   3  -4   -0.30    0.73
  10   4  -4   -1.46    0.76
  10   6  -1    1.83    1.09
  11   5  -3   12.72    1.15
  12   2  -5    4.28    0.70
  12   6  -1    0.08    0.97
  13   5  -3   -0.70    1.04
  14   2  -5    1.81    0.75
  14   4  -4    0.58    0.86
  16   4  -4    0.48    0.95
  -1   5   1    0.60    0.82
   3   7   3   -0.34    0.86
   4   6   0    1.25    0.90
   5   7   2   -0.35    0.96
   7   1  -4    1.53    0.46
   8   6  -1   -0.05    0.99
   9   5  -3    2.31    1.00
  11   3  -5    0.66    0.86
  13   3  -5   -0.56    0.85
  15   3  -5    2.09    0.84
  15   5  -3   -0.34    1.02
  16   2  -5    4.52    0.78
  17   5  -3   -0.21    1.01
  -4   4   2    9.83    0.60
   0   4  -1    4.47    0.68
   0   6   2    0.13    0.81
   1   3  -2   86.56    1.25
   1   7   4   -0.06    0.72
   3   3  -3   40.26    1.02
   4   4  -3   -0.22    0.75
   7   5  -3   -0.29    0.87
   9   3  -5   52.41    1.36
  10   6  -2    1.83    1.10
  12   6  -2    1.41    1.15
  17   3  -5    0.37    0.76
  18   4  -4    0.73    0.97
  -3   5   2    3.62    0.75
  -2   6   3    0.23    0.82
  -1   3  -1    0.77    0.53
   3   7   2    0.55    0.91
   5   3  -4  198.57    1.94
   5   7   1   -0.30    1.07
   8   6  -2    1.25    1.13
  10   4  -5    0.18    0.80
  11   1  -5    0.06    0.54
  11   5  -4    0.72    1.04
  14   4  -5    0.67    0.87
  15   5  -4    0.60    1.05
  16   4  -5    2.15    0.84
  -5   3   2   29.24    0.69
  -2   4   0    0.51    0.57
   1   5  -1    0.75    0.88
   1   7   3    0.12    0.85
   2   6   0    0.44    0.95
   4   6  -1    1.20    1.06
   5   5  -3   18.36    1.10
   7   3  -5    1.92    0.75
   9   5  -4   -0.10    0.89
  12   6  -3    0.50    1.12
  17   5  -4    0.48    1.03
  18   4  -5    1.54    0.93
  -1   5   0    0.89    0.73
   0   6   1    1.84    0.82
   2   2  -3    7.49    0.44
   4   2  -4   20.98    0.73
   7   5  -4   -0.57    0.88
   8   4  -5    0.67    0.86
  10   6  -3    0.44    0.99
  11   3  -6    5.48    0.82
  12   2  -6    0.95    0.71
  13   3  -6    3.63    0.85
  14   2  -6    0.27    0.67
  15   3  -6    3.76    0.84
  -3   3   0  160.44    1.35
  -2   6   2    0.81    0.80
   0   2  -2    0.56    0.40
   1   7   2    0.24    0.95
   3   7   1    8.83    1.05
   4   4  -4    2.93    0.81
   5   7   0   -0.89    0.98
   6   2  -5   98.17    1.28
  10   2  -6    2.00    0.66
  11   5  -5    0.10    0.90
  12   4  -6    1.35    0.94
  12   6  -4    0.04    1.04
  14   4  -6    0.35    0.87
  15   5  -5    0.48    0.99
  16   2  -6   20.39    0.95
  16   4  -6    7.94    1.07
  17   5  -5    0.62    1.01
  -4   4   1    9.19    0.59
  -3   5   1    7.28    0.78
   0   6   0   49.31    1.54
   1   3  -3    0.68    0.62
   1   5  -2   13.49    1.04
   2   6  -1    0.51    0.83
   3   3  -4   23.90    0.75
   4   6  -2    2.01    0.94
   5   1  -4  491.31    2.02
   5   3  -5   45.93    1.14
   5   5  -4   44.39    1.40
   6   4  -5   25.50    1.17
   6   6  -3   -0.13    1.11
   9   5  -5   10.38    1.08
  10   4  -6    0.37    0.79
  10   6  -4   -0.19    1.16
  -2   4  -1    7.41    0.70
  -1   5  -1    0.40    0.87
   1   7   1    0.43    0.86
   3   7   0    6.57    1.12
   5   7  -1    0.04    1.06
   7   3  -6   17.98    0.91
   7   5  -5    0.68    0.88
   8   6  -4    5.35    1.19
  11   5  -6    1.45    0.94
  13   3  -7   45.35    1.38
  15   3  -7    0.34    0.83
  -2   2  -1   38.57    0.62
  -1   3  -2   -0.30    0.52
   2   6  -2    1.16    0.84
   4   6  -3    0.10    0.97
   9   5  -6    0.09    0.93
  10   6  -5   -0.32    0.99
  11   3  -7    9.27    0.95
  12   4  -7    4.85    1.04
  12   6  -5   -0.26    1.13
  13   1  -6   10.74    0.69
  14   2  -7   17.39    1.07
  14   4  -7    4.67    1.01
  16   4  -7   12.85    1.16
  17   3  -7   -0.52    0.83
  17   5  -6    0.82    1.05
   0   6  -1    1.38    0.90
   2   4  -4   56.34    1.33
   3   7  -1    1.41    1.01
   5   5  -5   13.66    1.04
   5   7  -2   -0.39    1.11
   6   6  -4    4.87    0.99
   8   6  -5    0.14    0.97
  10   4  -7   14.97    1.10
  18   4  -7   -0.49    0.91
  -5   3   1    1.59    0.53
  -3   5   0   36.42    1.12
   0   4  -3    0.12    0.68
   2   2  -4  221.24    1.61
   3   3  -5   21.70    0.93
   4   2  -5   38.65    0.91
   7   5  -6    2.40    0.94
  11   5  -7    1.03    1.02
  15   5  -7    0.32    0.97
  17   5  -7   -0.26    0.98
  -4   4   0    0.84    0.51
  -3   3  -1  337.33    2.01
  -2   6   0   -0.71    0.83
  -1   5  -2   -0.66    0.79
   1   3  -4    6.53    0.76
   2   6  -3    0.06    0.86
   3   7  -2    0.63    0.89
   4   6  -4   -0.04    0.99
   5   3  -6    0.62    0.50
   5   7  -3    1.86    0.99
   6   2  -6   25.54    0.88
   6   6  -5    4.82    1.07
   9   1  -6   12.49    0.70
   9   5  -7    5.24    1.05
  10   6  -6    1.16    1.16
  12   4  -8    7.66    1.06
  13   3  -8   17.91    1.07
  15   3  -8    0.79    0.74
  16   4  -8    1.18    0.96
  17   3  -8    3.83    0.78
   0   2  -3    0.31    0.43
   0   6  -2    0.01    0.90
   1   7  -1   -0.44    0.96
   4   4  -6    1.27    0.87
   5   5  -6    0.37    0.83
   7   3  -7    5.76    0.78
   8   6  -6    1.21    1.03
  10   4  -8   26.51    1.26
  11   3  -8    5.69    0.94
  15   5  -8    0.65    0.95
  18   4  -8    0.36    0.91
  -3   5  -1   67.60    1.39
  -1   3  -3    5.79    0.67
   1   5  -4    0.16    0.88
   2   4  -5  114.52    1.70
   6   4  -7    1.80    0.92
   7   5  -7    1.94    0.87
  10   6  -7    2.41    1.23
  11   5  -8    1.81    1.09
  -2   6  -1    1.49    0.80
  -1   5  -3    1.43    0.85
   0   4  -4    6.93    0.80
   1   7  -2    0.90    0.86
   2   6  -4    8.62    1.06
   4   6  -5    0.00    0.92
   5   1  -5   95.96    1.00
   6   6  -6    1.45    1.04
   8   4  -8    4.74    0.87
   9   5  -8    0.76    0.99
  14   4  -9    2.34    0.96
  15   3  -9    3.12    0.82
  16   4  -9   -1.39    1.01
  -4   4  -1    3.11    0.55
   0   6  -3   -0.51    0.87
   3   3  -6   86.03    1.42
   5   3  -7    3.67    0.75
   5   5  -7    0.69    0.83
   7   1  -6   48.13    0.90
   8   6  -7    0.73    0.94
  10   2  -8   70.53    1.36
  11   1  -7   17.13    0.71
  11   3  -9    4.69    1.10
  13   3  -9   -0.06    0.85
  17   3  -9    0.43    0.71
  18   4  -9    0.30    0.99
  -2   4  -3   25.24    0.90
   1   5  -5   -0.23    0.84
   2   4  -6    8.08    0.85
   3   7  -4    1.36    1.04
   4   2  -6    4.23    0.66
   4   4  -7    6.70    0.93
   4   6  -6    0.38    0.97
   6   2  -7    0.95    0.69
   6   4  -8    8.81    1.02
   6   6  -7   -0.37    0.96
   7   3  -8   35.79    1.19
   7   5  -8   10.52    1.14
  10   4  -9   16.32    1.05
  10   6  -8    7.48    1.27
  11   5  -9    1.88    1.10
  -5   3   0    2.07    0.45
  -3   3  -2    3.74    0.56
  -2   6  -2    2.95    0.81
   1   7  -3   -1.39    0.96
   2   2  -5  355.25    2.05
   2   6  -5   22.98    1.21
   8   2  -8   19.26    0.87
   8   4  -9    5.61    0.87
   8   6  -8    1.22    1.07
   9   5  -9    0.85    1.08
  14   2  -9    6.69    0.85
  14   4 -10    1.39    0.95
  16   4 -10   -0.04    0.97
  -1   5  -4   -0.31    0.78
   0   4  -5   24.61    0.98
   0   6  -4    0.31    0.81
   3   7  -5    0.67    0.90
   5   5  -8    0.23    0.84
   9   1  -7   62.36    1.04
  10   6  -9    3.12    1.20
  12   4 -10   -0.40    0.83
  13   3 -10    4.17    0.99
  13   5 -10   -0.59    1.19
  15   3 -10    5.19    0.92
  15   5 -10    2.10    0.94
  17   3 -10    1.84    0.88
  18   4 -10    1.32    0.89
  -2   6  -3    3.09    0.86
   0   2  -4   40.91    0.79
   1   5  -6    7.90    0.92
   1   7  -4    0.15    0.94
   2   6  -6    1.00    0.97
   3   3  -7    2.11    0.74
   4   4  -8   17.30    1.15
   6   6  -8    1.32    1.10
   7   5  -9   15.86    1.21
  10   2  -9   59.77    1.39
  11   3 -10   11.18    1.14
  13   1  -8   37.06    0.92
  -3   5  -3    0.29    0.73
  -2   4  -4    6.70    0.81
   0   6  -5    2.72    0.87
   1   3  -6   43.48    1.06
   2   4  -7    0.78    0.85
   6   4  -9    3.77    0.99
   7   3  -9   55.47    1.32
   8   6  -9    1.11    1.01
   9   5 -10    1.46    1.06
  13   5 -11   -0.68    1.22
  14   4 -11    0.53    0.94
  15   5 -11   -0.48    1.10
  16   4 -11    0.09    0.94
  18   4 -11    2.44    0.93
  -6   4   0    1.67    0.53
  -1   5  -5   44.17    1.41
   0   4  -6   -0.32    0.73
   1   7  -5    0.67    0.92
   3   5  -8    0.42    1.03
   3   7  -6    1.03    1.06
   4   2  -7   29.45    0.89
   6   2  -8   40.75    1.06
   8   4 -10   15.09    1.05
  11   1  -8   15.48    0.69
  11   5 -11    1.72    0.96
  12   4 -11    0.64    0.90
  14   2 -10    3.87    0.83
  15   3 -11    1.22    0.88
  -3   3  -3    1.39    0.57
  -2   6  -4    1.84    0.78
   1   5  -7    8.85    0.88
   2   6  -7    0.89    0.94
   3   1  -5   55.50    0.73
   6   6  -9   -0.55    0.94
   7   1  -7   16.04    0.69
   7   5 -10   13.41    1.27
   8   2  -9   14.06    0.83
   8   6 -10    1.51    1.17
  12   2 -10   -0.06    0.79
  13   3 -11   -0.77    0.86
  -3   5  -4    1.64    0.84
  -1   7  -4    0.09    0.92
   0   6  -6    1.04    0.83
   3   3  -8    2.35    0.76
   3   7  -7    0.89    1.03
   4   4  -9    5.66    1.06
   5   3  -9   50.25    1.31
   6   4 -10    0.06    0.77
   7   3 -10   55.97    1.37
   9   1  -8    1.56    0.68
   9   5 -11    0.76    0.98
  11   3 -11    0.56    0.95
  13   5 -12    1.00    1.06
  14   4 -12   -0.25    0.95
  15   5 -12    4.78    1.14
  16   4 -12    0.74    0.94
  18   4 -12    5.09    0.84
  -4   4  -3    1.99    0.63
  -2   4  -5   20.30    0.95
  -1   5  -6   22.05    1.13
   1   7  -6    1.55    0.95
   2   4  -8   21.42    0.93
   5   5 -10   -1.50    0.94
   6   6 -10    0.08    1.01
  10   2 -10    1.23    0.77
  11   5 -12    1.99    1.07
  12   4 -12    1.56    0.99
  13   1  -9    0.42    0.61
  -6   4  -1   85.38    1.23
  -2   6  -5    2.78    0.83
  -1   7  -5    6.60    1.04
   0   2  -5  105.98    1.21
   1   3  -7   51.47    1.15
   1   5  -8    2.70    0.76
   2   6  -8    3.32    0.87
   7   5 -11    5.45    1.05
   8   6 -11    0.45    0.99
   9   5 -12    0.78    0.93
  13   3 -12    3.23    0.96
   0   6  -7    6.26    0.96
   1   7  -7    0.63    0.98
   4   2  -8   68.11    1.25
   4   4 -10   78.47    1.73
   6   2  -9   17.95    0.89
   6   4 -11    3.46    0.87
   8   2 -10   45.83    1.13
  11   1  -9   11.99    0.68
  11   3 -12    3.23    1.01
  12   2 -11    5.75    0.89
  13   5 -13    0.57    0.96
  14   4 -13   -0.77    1.10
  16   4 -13   -0.18    0.97
  -3   3  -4    9.96    0.68
  -3   5  -5    0.59    0.74
  -2   4  -6   15.92    0.87
  -1   5  -7   10.84    0.87
   2   2  -7    6.19    0.69
   2   4  -9    6.68    0.98
   2   6  -9    0.60    1.02
   3   5 -10    2.62    0.81
   5   5 -11    2.06    0.97
   6   6 -11    0.21    0.96
   7   3 -11   21.84    1.15
   7   5 -12   -1.41    0.90
   8   4 -12    5.97    0.94
  12   4 -13   16.61    1.26
  -5   3  -2   20.78    0.66
  -4   4  -4   13.71    0.79
  -2   6  -6    2.36    0.85
  -1   7  -6    5.38    0.95
   0   6  -8   -0.62    0.98
   7   1  -8   87.08    1.17
   9   3 -12    3.19    1.06
   9   5 -13    2.59    1.06
  10   2 -11   14.25    0.94
  13   3 -13    0.16    0.84
  13   5 -14    0.94    1.00
  15   3 -13    9.52    1.04
  -6   4  -2   73.89    1.19
   1   3  -8    6.79    0.73
   1   7  -8    0.77    0.84
   3   1  -6  221.05    1.44
   4   4 -11    5.44    0.78
   6   4 -12    0.98    0.86
   6   6 -12    0.49    1.04
   9   1  -9   14.45    0.72
  13   1 -10    8.78    0.71
  14   2 -12    0.37    0.83
  14   4 -14    1.21    1.13
  16   4 -14    2.41    0.93
  -5   5  -4   -0.30    0.79
  -3   5  -6    9.24    0.90
  -2   6  -7    0.61    0.76
  -1   5  -8    3.44    0.80
  -1   7  -7    2.95    0.84
   0   2  -6    0.91    0.56
   2   4 -10    5.72    1.01
   2   6 -10   -1.97    1.09
   3   5 -11    0.59    0.88
   4   2  -9   14.13    0.85
   5   3 -11    7.45    0.88
   5   5 -12    3.74    1.00
   6   2 -10    1.35    0.69
   7   5 -13    0.31    1.13
   8   2 -11    1.15    0.86
   8   4 -13    0.71    0.88
  11   3 -13    4.48    0.84
  12   2 -12    3.68    0.84
  12   4 -14    3.33    0.97
  -4   4  -5   15.95    0.84
  -3   3  -5    3.18    0.64
  -2   4  -7    0.01    0.75
   0   6  -9    0.20    0.98
   3   3 -10   16.40    0.97
   7   3 -12    1.00    0.85
   9   3 -13   10.36    0.97
   9   5 -14   10.61    1.24
  11   1 -10   19.25    0.77
  15   3 -14    1.59    0.91
  16   4 -15   -1.11    1.06
  -4   2  -2   -0.16    0.31
  -1   7  -8    0.20    0.85
   2   2  -8   84.33    1.30
   2   6 -11   -0.34    0.92
   4   4 -12    5.99    0.85
   6   4 -13    2.23    0.84
   6   6 -13    0.58    0.98
  10   2 -12    8.70    0.92
  12   4 -15    0.20    1.12
  13   3 -14    0.94    0.93
  -7   3   0   14.81    0.51
  -6   4  -3    2.23    0.54
  -5   3  -3  130.74    1.27
  -5   5  -5   -0.11    0.81
  -3   5  -7    0.98    0.82
  -2   6  -8    0.71    0.88
  -1   5  -9    2.67    0.83
   5   5 -13   -1.06    1.02
   7   1  -9  108.30    1.32
   7   5 -14    2.15    1.08
   8   4 -14    1.64    0.92
   9   5 -15    1.39    1.19
  11   3 -14    0.03    0.85
  14   2 -13    2.79    0.89
  -2   4  -8    6.12    0.83
   0   6 -10    0.60    0.83
   1   5 -11   23.94    1.31
   3   3 -11    1.88    0.72
   4   2 -10  220.08    2.05
   5   3 -12   12.86    1.07
   6   2 -11   14.35    0.85
   7   3 -13    0.00    1.00
   8   2 -12   16.82    0.96
   9   1 -10   20.24    0.76
  12   2 -13   45.08    1.36
  13   1 -11    0.01    0.55
  14   4 -16    0.07    1.09
  15   3 -15   -0.17    0.98
  16   4 -16   -0.53    1.01
  -4   4  -6   38.78    1.12
  -3   3  -6   49.84    1.05
  -3   5  -8   11.39    1.04
  -2   6  -9    1.00    0.92
   0   2  -7  126.49    1.40
   2   6 -12    2.29    1.06
   4   4 -13   -0.28    0.82
   5   5 -14    0.60    0.97
   6   4 -14    5.68    0.99
   7   5 -15   -1.16    0.96
   9   3 -14   40.09    1.35
  10   2 -13    0.41    0.88
  11   1 -11    1.39    0.67
  12   4 -16   -0.66    0.95
  -5   5  -6   -0.24    0.85
  -1   5 -10    3.98    0.91
   0   6 -11    2.04    1.00
   2   2  -9   29.51    0.97
   8   4 -15    0.24    0.97
   9   5 -16    2.09    1.09
  11   3 -15    0.45    0.95
  14   2 -14    3.19    0.83
  -5   3  -4    1.40    0.47
  -4   2  -3    8.14    0.52
  -2   4  -9    3.53    0.87
   1   5 -12    1.02    0.92
   2   6 -13    2.02    0.91
   5   3 -13    2.45    0.99
   7   3 -14    3.21    0.86
  10   4 -16    4.56    0.97
  12   2 -14    7.82    0.97
  14   4 -17    1.75    1.08
  15   3 -16   -0.40    1.02
  16   4 -17    0.29    0.99
  -4   4  -7   43.36    1.16
  -4   6  -8    2.40    0.92
  -3   5  -9    1.56    0.74
  -2   6 -10    1.01    0.96
  -1   5 -11    0.34    0.81
   0   6 -12    0.49    1.06
   3   3 -12    8.37    0.88
   3   5 -14   -0.16    0.92
   4   4 -14    0.87    0.79
   5   5 -15    0.77    1.04
   6   4 -15   29.68    1.39
   7   1 -10  135.33    1.50
   7   5 -16    3.07    1.11
   8   2 -13    2.30    0.84
   9   3 -15    2.58    0.95
  12   4 -17    1.40    1.08
  13   1 -12    8.05    0.73
  13   3 -16   -0.04    0.90
  -5   5  -7    3.82    0.79
  -3   3  -7    9.68    0.72
  -2   2  -6   52.33    0.97
   0   2  -8    1.21    0.66
   1   1  -6  148.63    1.15
   1   3 -11  108.78    1.70
   2   4 -13   13.68    1.03
   8   4 -16    0.80    0.90
  10   2 -14    7.74    0.92
  10   4 -17    0.26    0.94
  11   3 -16    0.48    0.98
  -6   4  -5    6.03    0.67
  -2   4 -10    3.40    0.84
  -2   6 -11    4.87    0.99
   2   6 -14    0.83    0.96
   3   1  -8    5.98    0.61
   5   3 -14    3.24    0.98
   5   5 -16    0.63    0.89
   7   3 -15    1.78    0.89
  11   1 -12    7.99    0.71
  14   2 -15    1.03    0.81
  14   4 -18    3.79    1.08
  15   3 -17    0.90    1.00
  -5   3  -5    1.38    0.52
  -4   4  -8   10.19    0.92
  -4   6  -9    3.44    0.93
  -3   5 -10    2.75    0.87
  -1   5 -12    0.50    0.91
   0   6 -13    0.57    0.92
   3   3 -13   17.26    1.13
   7   5 -17    0.76    1.00
   8   2 -14    1.00    0.81
   8   4 -17   -0.72    1.01
  12   2 -15    3.82    0.82
  12   4 -18    1.51    1.03
  13   3 -17    0.47    0.95
  -7   3  -2    2.40    0.47
  -5   5  -8   -0.22    0.72
  -4   2  -4   61.52    0.87
  -3   3  -8   48.38    1.08
  -1   3 -10   20.62    0.96
   1   3 -12    1.10    0.83
   2   4 -14    2.09    0.84
   4   2 -12   27.19    1.04
   7   1 -11   56.08    1.12
   9   1 -12    6.30    0.69
  10   2 -15   10.88    1.05
  10   4 -18   -0.72    1.09
  -6   4  -6    0.44    0.60
  -4   6 -10   -0.20    0.83
  -3   5 -11    3.46    0.97
  -2   2  -7    0.94    0.55
  -2   4 -11   18.05    1.10
  -2   6 -12    8.40    1.01
   0   2  -9    9.39    0.73
   0   6 -14    0.24    0.94
   3   5 -16    4.47    1.05
   5   3 -15   -0.57    0.80
   5   5 -17   -0.03    1.11
   7   3 -16    9.39    1.19
  11   1 -13    8.98    0.77
  12   4 -19    0.75    0.94
  14   2 -16    1.10    0.79
  15   3 -18    0.82    0.92
  -5   3  -6    1.85    0.55
  -5   5  -9    1.94    0.81
  -4   4  -9   17.58    0.99
  -1   5 -13    7.62    0.97
   1   1  -7  155.55    1.32
   3   1  -9   22.82    0.78
   3   3 -14    0.97    1.00
   4   4 -16    0.74    0.96
   6   4 -17   -0.25    0.92
   8   2 -15    1.45    0.99
   8   4 -18    4.15    1.10
  12   2 -16    0.25    0.82
  13   3 -18   -0.02    0.91
  -4   6 -11   -0.63    0.83
  -2   6 -13    0.23    0.87
  -1   3 -11   -0.53    0.75
   1   3 -13   12.01    1.02
   2   4 -15   -0.06    0.84
   4   2 -13    1.10    0.77
   5   5 -18    0.11    0.96
   7   1 -12    0.06    0.64
  10   2 -16   11.93    1.04
  10   4 -19    0.31    0.93
  -7   3  -3   11.69    0.49
  -6   4  -7   17.07    0.86
  -4   4 -10    0.41    0.87
  -3   5 -12   -0.13    0.87
  -2   4 -12   40.34    1.30
  -1   1  -5  463.12    1.85
   0   2 -10    1.21    0.68
   0   4 -14    1.07    0.82
   3   5 -17    0.22    1.08
   4   4 -17   11.58    1.09
   5   3 -16   -0.15    0.89
   8   4 -19    2.16    0.99
   9   3 -18    0.23    0.88
  13   3 -19    0.01    0.87
  -5   3  -7   16.26    0.80
  -2   2  -8   29.80    0.90
  -2   6 -14    0.25    0.84
   2   2 -12    8.86    0.65
   2   4 -16   -0.76    0.95
   3   3 -15   50.11    1.38
  10   4 -20   -0.48    1.06
  11   1 -14    1.71    0.66
  11   3 -19    5.52    1.11
  12   2 -17    0.63    0.76
  -4   6 -12    0.56    0.91
  -3   5 -13    0.31    0.84
  -2   4 -13    1.23    0.78
  -1   3 -12    0.33    0.78
  -1   5 -15   -0.36    0.92
   1   1  -8   21.10    0.74
   1   3 -14    3.27    0.93
   3   5 -18    0.33    1.07
   4   2 -14    1.75    0.79
   8   2 -16   -0.17    0.82
  10   2 -17    0.07    0.79
  -7   3  -4    7.95    0.49
  -5   5 -11    0.20    0.77
  -4   4 -11    0.50    0.83
   0   2 -11   43.73    1.14
   0   4 -15    1.96    0.89
   3   3 -16   11.88    1.07
   4   4 -18    1.70    1.10
   5   3 -17    1.38    0.84
   7   1 -13    1.76    0.63
   8   0  -9   15.36    0.58
   9   1 -14   82.56    1.48
   9   3 -19    5.83    1.08
  13   3 -20   -0.66    0.97
  -5   3  -8    1.81    0.65
  -4   2  -6  119.68    1.29
  -4   6 -13    0.64    0.90
  -1   1  -6  179.88    1.31
  -1   3 -13   22.91    1.19
   2   2 -13   43.94    1.10
   2   4 -17   -0.77    0.92
   6   0  -8   56.46    0.78
   8   2 -17   -0.60    0.76
  11   1 -15    0.50    0.69
  11   3 -20    0.23    1.07
   4   2   8   44.23    0.85
   8   2   9   20.45    0.89
   9  -1  -3   32.65    0.75
  11   1   4   23.17    0.96
  19  -1   3    0.37    0.81
  20  -2   1    1.24    0.94
  20   0   9    0.74    1.02
   2   2   8   29.81    0.65
   6   0  -1    4.36    0.34
   6   2   8   75.58    1.14
   9   1   3  107.22    1.41
  12   2  12    0.73    0.76
  13  -1  -2    0.99    0.62
  13   1   5    3.18    0.91
  14   2  16    0.05    0.65
  14   2  17    0.03    0.64
  15  -1  -1    1.25    0.74
  15   1   7    6.68    0.88
  17   1  10    1.22    1.02
  18  -2  -1    3.23    0.73
  18   0   5   12.76    1.12
  19  -1   2    1.51    0.81
  20   0   8    0.52    1.04
  21  -1   5    2.31    0.99
  22  -2   3   -0.26    0.86
   8   0  -1   43.21    0.84
   8   2   8   22.02    0.87
  10   2   9   40.42    1.18
  12   0   0    1.69    0.67
  12   2  11    6.83    0.81
  14   0   1    1.19    0.68
  15   1   6    0.70    0.84
  16  -2  -3    0.95    0.69
  16   0   2    0.86    0.75
  17  -1   0   15.42    0.98
  17   1   9    2.31    0.92
  18   0   4    7.92    1.02
  20  -2   0   13.35    1.06
  20   0   7    1.31    1.05
  21  -1   4    0.00    1.02
   6   2   7   56.30    1.08
   7   1   2    5.70    0.57
  10   2   8   47.58    1.21
  11   1   3   19.79    0.90
  12   2  10    4.74    0.77
  13   1   4   14.92    1.00
  14  -2  -4    1.00    0.55
  14   2  12    1.35    0.79
  14   2  13    0.00    0.55
  18  -2  -2    0.29    0.72
  19  -1   1   10.03    0.92
  19   1  11    8.39    1.02
  21  -1   3   -0.31    0.99
  22  -2   2    1.49    0.90
   4   2   7  123.01    1.19
   5   1   2   75.40    0.87
   8   2   7    0.55    0.56
   9   1   2  290.24    2.13
  12   2   9    1.14    0.82
  13  -1  -3    4.96    0.67
  14   0   0    0.82    0.77
  14   2  11    0.23    0.81
  15  -1  -2    3.45    0.80
  15   1   5   20.36    1.02
  16   2  15   -0.03    0.66
  17   1   7   -0.20    0.92
  18   0   3   -0.87    0.86
  19   1  10    0.65    1.04
  20  -2  -1    2.45    0.84
  20   0   5    4.04    1.02
  22  -2   1   -0.23    0.85
  10   2   7    6.02    0.81
  12  -2  -5    3.58    0.45
  12   0  -1    1.38    0.63
  12   2   8    7.68    0.97
  13   1   3    2.59    0.81
  14   2  10    4.02    0.90
  15   1   4   27.52    1.11
  16   0   1   22.49    1.07
  16   2  13    0.51    0.62
  19  -1   0    1.10    0.83
  19   1   9    0.19    1.08
  21  -1   2   -0.28    0.99
   6   2   6    0.58    0.62
   8   2   6    1.35    0.64
   9  -1  -4    0.51    0.44
  11   1   2    0.16    0.48
  14   2   9   11.07    1.03
  16  -2  -4    3.07    0.63
  16   2  12    1.22    0.82
  17   1   5   -0.34    0.82
  18  -2  -3    1.13    0.69
  19   1   8    1.16    1.05
  20   0   4    1.09    0.87
  22  -2   0    0.11    0.82
   8   0  -2   31.18    0.74
  10   2   6    8.55    0.79
  11  -1  -4    0.12    0.54
  12   2   7    0.26    0.85
  14  -2  -5    1.41    0.51
  14   2   8    1.94    0.84
  15  -1  -3    6.06    0.74
  15   1   3   28.84    1.23
  16   2  11    1.94    0.88
  19   1   7    2.06    1.00
  20  -2  -2    0.36    0.72
  20   0   3    0.15    0.94
   4   2   6  125.04    1.16
   7   1   1   14.61    0.66
   9   1   1    0.00    0.64
  19   1   6   -0.72    1.02
   6   0  -2    9.41    0.37
   8   2   5    1.30    0.57
  11   1   1    8.78    0.61
  13  -1  -4    4.75    0.60
  15   1   2    7.19    0.99
  18   2  11    0.62    0.94
  19   1   5   -0.77    1.03
  21  -1   0    0.17    0.78
   5   1   1    0.38    0.33
   6   2   5   26.07    0.78
   9   3  12    2.41    0.86
  11   3  13    6.28    0.82
  13   1   1    3.88    0.77
  15  -1  -4    5.53    0.76
  17  -1  -3    2.97    0.76
  17   1   3    2.85    0.81
  18   2  10    0.51    0.93
  19  -1  -2    0.35    0.77
  19   1   4   -0.27    0.86
  20   0   1    3.23    0.89
  21  -1  -1    1.06    0.89
  23  -1   1    5.97    1.00
  11   3  12   -0.44    0.78
  13   3  14   -0.11    0.59
  15   1   1    0.68    0.81
  17   1   2   -0.70    0.76
  18   2   9    0.06    0.98
  21   1   6    5.83    1.09
   4   2   5   66.96    0.90
   7   3  11    0.06    0.58
   9   1   0   10.66    0.70
   9   3  11    3.53    0.74
  11  -1  -5    0.44    0.52
  11   1   0    4.02    0.70
  11   3  11    6.76    0.84
  13   3  13    0.01    0.68
  16   0  -2   -0.27    0.81
  16   2   6    1.55    0.88
  18   0  -1    4.32    0.84
  19  -1  -3   -0.32    0.72
  19   1   3   -0.25    0.95
  20   0   0   21.38    1.18
  21   1   5    1.54    1.03
  22   0   2    1.76    0.91
   6   2   4    1.10    0.50
   7   1   0   30.66    0.78
   7   3  10    6.28    0.71
   9  -1  -5  135.98    1.14
   9   3  10    3.35    0.69
  12   0  -3    3.68    0.59
  12   2   4   10.56    0.69
  13  -1  -5    0.56    0.51
  13   1   0   31.81    0.97
  13   3  12    1.23    0.68
  15   3  13   -0.03    0.62
  15   3  14   -0.05    0.61
  16   2   5    1.12    0.80
  17  -1  -4    0.86    0.78
  18   2   7    0.70    0.92
  21  -1  -2    2.22    0.85
  21   1   4    0.54    1.05
  22   0   1    0.71    1.01
  11   3  10    8.90    0.84
  13   3  10    9.88    0.98
  14   0  -3    4.79    0.69
  14   2   4    4.35    0.75
  15  -1  -5    1.37    0.65
  15   1   0    0.83    0.85
  15   3  12    1.42    0.86
  18   0  -2    1.71    0.74
  18   2   6    6.79    1.05
  19   1   2    2.92    0.87
  20   0  -1    2.63    0.87
  23  -1  -1    1.11    0.82
   5   3  10   14.63    0.66
   7   3   9    0.28    0.63
   9   3   9    8.88    0.73
  10   2   3    3.32    0.49
  11   1  -1    5.97    0.74
  11   3   9    2.10    0.73
  12   2   3  117.29    1.77
  13   1  -1    0.06    0.67
  15   3  11    1.74    0.92
  16   0  -3    0.80    0.76
  16   2   4    2.17    0.80
  17   1   0   16.58    0.98
  18   2   5    9.75    1.04
  19  -1  -4    0.65    0.70
  19   1   1    9.50    0.94
  21  -1  -3    1.00    0.83
  21   1   3   -0.57    0.85
  22   0   0    0.73    0.97
   5   1   0    2.52    0.34
   9   1  -1    4.25    0.66
  11   3   8    3.34    0.88
  13   3   9   12.38    0.97
  14   2   3    0.90    0.74
  15   1  -1    1.56    0.80
  15   3  10   -0.16    0.86
  17  -1  -5    1.57    0.69
  17   3  12    0.15    0.65
  20   0  -2   -0.23    0.76
  20   2   6    2.27    1.00
  21   1   2   -1.13    0.98
  23  -1  -2   -0.47    0.82
   5   3   9    5.87    0.57
   6   0  -3   41.04    0.57
   9   3   8   -0.43    0.67
  10   0  -4    2.19    0.51
  10   2   2    1.28    0.64
  12   2   2    3.94    0.78
  13   3   8    3.13    0.85
  14   0  -4    2.29    0.65
  15   3   9    0.42    0.84
  16   2   3   -0.06    0.79
  17   3  10    0.59    0.81
  17   3  11    0.95    0.75
  18   0  -3    2.77    0.74
  18   2   4    5.27    1.01
  19   1   0    0.09    0.91
  20   2   5    1.25    0.94
  21  -1  -4    3.12    0.81
  22   0  -1    1.31    0.93
   7   1  -1   37.58    0.78
   7   3   8   81.88    1.28
   9   3   7   20.02    0.94
  11   3   7    0.81    0.81
  13  -1  -6   10.86    0.62
  13   3   7    1.50    0.69
  14   2   2    3.91    0.81
  15  -1  -6    5.36    0.70
  15   3   8   -0.46    0.86
  16   0  -4    3.58    0.82
  17   1  -1   41.96    1.30
  17   3   9    0.35    0.94
  18   2   3   -0.55    0.89
  19  -1  -5   16.37    0.96
  21   1   1    1.34    0.89
  23  -1  -3    0.40    0.85
   8   2   2   50.80    1.02
  11   1  -2  275.56    2.21
  13   1  -2    1.80    0.51
  15   1  -2    2.55    0.86
  15   3   7    3.04    0.84
  16   2   2    0.68    0.74
  17  -1  -6   12.11    0.86
  17   3   8    0.96    0.97
  18   0  -4    1.77    0.68
  19   1  -1    0.07    0.83
  20   2   4    2.35    0.91
  21   1   0   -0.75    1.02
  22   0  -2   -0.29    0.92
   5   3   8    2.27    0.52
   7   3   7   23.69    0.82
  10   2   1    3.80    0.69
  11   3   6    1.19    0.75
  12   2   1    3.78    0.73
  13   3   6    0.32    0.68
  14   2   1    0.52    0.86
  17   3   7    0.25    0.85
  20   2   3    0.08    0.97
  21  -1  -5   -0.23    0.78
  23  -1  -4    0.82    0.82
   9  -1  -6   11.39    0.50
  12   0  -5    7.46    0.63
  14   0  -5    3.10    0.67
  15   3   6    0.38    0.72
  16   0  -5    5.61    0.84
  16   2   1   12.64    0.97
  19  -1  -6   11.96    0.86
   4   2   3    7.79    0.48
   7   3   6   29.98    0.90
   8   2   1   32.70    0.90
  11   3   5   18.02    1.00
  12   2   0    0.44    0.72
  13   1  -3    5.42    0.74
  13   3   5    1.88    0.67
  14   2   0    0.46    0.89
  15   1  -3    5.73    0.84
  17   3   6    9.02    0.98
  18   0  -5    4.16    0.75
  18   2   1    1.50    0.85
  19   3   7   -0.17    0.93
  20   2   2    0.40    0.81
   5   1  -1    6.68    0.38
   5   3   7   16.42    0.63
   7   1  -2   16.37    0.64
   9   3   5    0.18    0.66
  10   2   0   40.75    1.03
  11   1  -3   86.51    1.30
  13   3   4    6.40    0.76
  15  -1  -7    1.12    0.60
  16   2   0    3.05    0.77
  17  -1  -7   -0.14    0.65
  19   3   6   -0.10    0.89
  20   2   1    3.04    0.98
  21  -1  -6   -0.09    0.75
  24   0  -3    0.96    0.86
  11   3   4   10.74    0.93
  15   3   4   13.28    0.96
  18   2   0    0.24    0.83
  19  -1  -7    2.13    0.72
  20   0  -5   -0.20    0.69
   3   3   8   47.06    0.79
   9   1  -3   33.23    0.84
   9   3   4    0.83    0.65
  11  -1  -7   17.63    0.56
  12   2  -1    0.02    0.76
  13   1  -4    4.91    0.73
  13   3   3    0.85    0.73
  14   2  -1   32.91    1.25
  16   0  -6   31.31    1.08
  16   2  -1    0.20    0.80
  18   0  -6    1.18    0.71
  18   2  -1    3.68    0.84
  20   2   0   14.66    1.22
  22   0  -5    8.69    0.92
  23   1  -2    0.43    0.89
  24   0  -4    0.66    0.83
   5   3   6    2.13    0.47
   6   2   1  309.21    1.94
   8   0  -5    2.72    0.51
   8   2   0   10.75    0.74
  11   3   3    8.46    0.83
  12   0  -6    0.51    0.53
  14   4  10    2.24    0.79
  16   4  10    5.75    0.86
  19   1  -4    0.12    0.84
  20   0  -6    3.01    0.81
  22   2   0   -0.01    0.89
  10   2  -1    3.55    0.69
  11   1  -4    0.84    0.42
  12   4   9   -0.34    0.69
  14   2  -2   91.87    1.76
  14   4   9    4.24    0.90
  15  -1  -8    1.46    0.66
  16   2  -2   -0.39    0.81
  16   4   9    0.32    0.80
  17  -1  -8    8.55    0.70
  17   3   2   -0.04    0.80
  19   3   3   -0.49    0.98
  20   2  -1    2.77    0.87
  21   1  -4    2.18    0.92
  24   0  -5    0.35    0.76
   9   3   3   56.28    1.22
  10   0  -6    0.80    0.52
  11   3   2   -0.08    0.71
  12   2  -2    4.35    0.77
  12   4   8    2.51    0.69
  13  -1  -8   34.48    0.86
  14   4   8    0.28    0.81
  16   0  -7   36.14    1.11
  16   4   8    1.48    0.84
  17   1  -5    1.50    0.77
  18   0  -7    0.36    0.70
  18   2  -2   -0.02    0.82
  19   1  -5   16.13    1.02
  20   2  -2    0.82    0.83
  22   0  -6    0.80    0.89
  22   2  -1    0.37    0.94
   5   3   5    1.94    0.53
   7   1  -3    3.32    0.52
   9   1  -4    0.19    0.60
  10   4   8   18.41    0.94
  14   0  -7   22.26    0.91
  14   4   7    0.61    0.76
  15   3   1    1.14    0.76
  16   4   7    0.25    0.84
  20   0  -7    4.76    0.85
  21   1  -5    0.13    0.79
  23   1  -4   -0.12    0.90
  24   0  -6    0.03    0.76
   5   1  -2   82.18    0.84
   6   2   0   14.53    0.68
   8   2  -1   18.33    0.78
   9   3   2  119.20    1.62
  10   2  -2   10.18    0.76
  14   2  -3    2.44    0.88
  14   4   6    1.51    0.76
  16   2  -3    1.00    0.57
  16   4   6   -1.45    0.92
  18   2  -3    1.73    0.88
  19   3   1    5.10    1.02
  20   2  -3    0.13    0.85
  22   0  -7    0.56    0.82
  22   2  -2   -0.59    0.87
   7   3   3   11.97    0.68
  10   4   7    1.48    0.76
  11  -1  -8   14.47    0.58
  11   1  -5    0.52    0.58
  12   2  -3    3.04    0.78
  12   4   6    3.89    0.79
  15   1  -6    6.34    0.83
  15   3   0   -0.49    0.83
  17   3   0    6.35    1.03
  18   4   6    1.79    0.90
  19   3   0    0.69    0.83
  22   2  -3   -0.01    0.88
  23   1  -5    0.38    0.90
  10   4   6    2.84    0.78
  13   3   0   16.71    0.96
  14   4   5    6.72    0.89
  16   0  -8   -0.30    0.70
  16   2  -4    3.55    0.82
  16   4   5    0.06    0.79
  18   0  -8    0.39    0.68
  18   2  -4    1.73    0.96
  18   4   5    3.95    0.98
  20   0  -8    0.95    0.74
  20   2  -4    0.43    0.81
  21   1  -6    0.63    0.85
  24   0  -7   -0.82    0.78
   3   3   6   51.24    0.81
   5   3   4    1.05    0.49
   8   0  -6    9.60    0.53
   8   4   7    0.24    0.68
  12   4   5    4.25    0.71
  14   2  -4    0.03    0.85
  14   4   4    0.31    0.81
  15   3  -1    0.48    0.81
  16   4   4    0.36    0.95
  17   3  -1   20.16    1.19
  18   4   4    1.66    0.93
  19   3  -1    0.38    0.93
  22   0  -8   -0.35    0.76
  22   2  -4    2.13    0.88
  23   1  -6   -0.53    0.90
   7   3   2    2.20    0.58
   8   2  -2   14.94    0.66
   9   1  -5  139.05    1.44
  10   0  -7   68.28    1.01
  10   4   5    3.56    0.84
  12   4   4    4.55    0.82
  13  -1  -9    0.89    0.43
  15   1  -7    0.79    0.74
  16   4   3    0.47    0.82
  17   1  -7   -0.50    0.72
  18   2  -5    2.74    0.87
  18   4   3   -0.26    0.84
  19   1  -7    2.24    0.78
  21   1  -7    0.97    0.89
   6   2  -1    0.57    0.55
   8   4   6    0.06    0.61
  12   0  -8   40.89    0.91
  14   4   3   -0.15    0.81
  15   3  -2    1.51    0.83
  17   3  -2    2.84    0.92
  18   0  -9    0.17    0.67
  19   3  -2    0.27    0.93
  20   0  -9    1.66    0.76
  20   2  -5    0.46    0.82
  21   3  -2    1.37    0.89
  23   1  -7    0.46    0.89
   5   3   3  132.85    1.40
  10   4   4    0.45    0.82
  11   3  -1    0.67    0.81
  12   4   3   41.12    1.31
  13   3  -2    0.44    0.80
  14   2  -5    1.12    0.87
  14   4   2    1.96    0.89
  16   0  -9    1.13    0.70
  16   4   2   -0.61    0.95
  18   4   2    0.45    0.94
  22   0  -9    0.46    0.77
   3   3   5    2.97    0.45
   5   1  -3  228.82    1.36
   7   3   1    7.32    0.66
   8   2  -3  363.51    2.36
   8   4   5   -0.15    0.62
  10   2  -4    0.52    0.66
  12   2  -5    4.33    0.78
  14   0  -9   10.61    0.73
  15   3  -3    1.87    0.81
  16   2  -6   19.43    1.09
  16   4   1    5.04    0.92
  17   3  -3    2.14    0.90
  18   2  -6   -0.13    0.85
  18   4   1   -0.01    1.02
  19   3  -3    0.26    0.84
  21   1  -8   -0.42    0.91
  21   3  -3    0.14    0.97
  22   2  -6    0.23    0.88
  23   1  -8   -0.13    0.90
   4   2   0   -0.07    0.44
  11  -1  -9   11.95    0.52
  11   3  -2  116.32    1.79
  12   4   2    1.62    0.77
  14   2  -6    0.25    0.88
  14   4   1   -0.17    0.84
  15   1  -8    0.82    0.84
  18   0 -10    7.13    0.84
  20   0 -10    0.25    0.69
   6   2  -2    2.24    0.57
   8   4   4   19.70    0.96
   9   1  -6   12.41    0.74
  10   0  -8  105.19    1.26
  13   3  -3    2.72    0.81
  16   4   0    0.77    0.98
  19   1  -9    0.37    0.78
  19   3  -4   -0.12    0.86
  21   1  -9    1.03    0.92
  21   3  -4    0.47    1.10
  22   2  -7    0.38    0.82
   5   3   2   20.56    0.76
   7   1  -5    8.12    0.59
   7   3   0   15.25    0.77
   8   0  -7    7.86    0.49
  12   0  -9   15.15    0.71
  12   4   1    0.89    0.76
  13   1  -8   34.92    1.09
  14   4   0   -0.27    0.84
  15   3  -4    3.87    0.84
  15   5   6    0.46    0.81
  16   2  -7   29.88    1.18
  17   1  -9    0.92    0.70
  23   1  -9    1.48    0.89
   3   3   4   10.02    0.54
  10   2  -5    2.15    0.66
  11   3  -3   46.62    1.31
  13   3  -4    3.59    0.84
  14   2  -7   16.80    1.09
  15   1  -9    9.66    0.90
  15   5   5    4.23    0.91
  17   3  -5    0.81    1.00
  19   3  -5    9.17    1.02
  20   2  -8    0.25    0.85
   6   4   5    5.84    0.65
   8   4   3    4.81    0.77
   9   3  -2    0.79    0.73
  10   4   1    0.98    0.76
  13   5   5    1.10    0.86
  14   0 -10    2.71    0.64
  14   4  -1   10.80    1.12
  15   3  -5    1.23    0.88
  15   5   4    3.60    0.93
  18   0 -11    5.15    0.78
  18   4  -2    0.38    0.99
  19   1 -10   -0.10    0.83
  21   1 -10    4.68    0.97
  22   2  -8    0.21    0.85
  23   1 -10   -0.65    0.73
   4   2  -1   49.71    0.82
   5   1  -4  510.08    2.06
   5   3   1    0.81    0.61
   6   0  -6   30.68    0.55
  11   1  -8   14.59    0.76
  16   0 -11    4.25    0.81
  17   3  -6    4.56    1.00
  19   3  -6    5.93    1.01
   6   2  -3   14.44    0.75
   6   4   4   -0.01    0.61
   8   4   2   14.88    0.92
  10   2  -6    2.42    0.71
  11   3  -4    1.47    0.82
  12   2  -7   17.33    0.96
  12   4  -1   -0.04    0.78
  13   1  -9    1.47    0.69
  13   5   4    1.84    0.88
  14   2  -8    3.61    0.94
  15   3  -6    2.64    0.85
  15   5   3    4.18    0.94
  16   4  -3   -0.46    1.04
  18   2  -9    0.49    0.79
  18   4  -3    0.12    1.01
  20   2  -9    0.18    1.01
  22   2  -9    0.15    0.99
   3   3   3    1.31    0.45
   7   1  -6   48.43    0.91
   8   2  -5    4.06    0.69
   9   3  -3   12.90    0.93
  10   0  -9   78.64    1.05
  10   4   0   10.56    0.96
  12   0 -10    0.37    0.54
  13   5   3   -0.76    0.89
  15   1 -10    9.36    0.89
  15   5   2   -0.16    0.89
  19   1 -11    3.55    0.83
  19   3  -7    1.74    1.06
  21   1 -11    5.86    0.99
  23   1 -11   -0.34    0.80
   1   3   6   73.42    0.82
   8   4   1    8.20    0.90
  11   5   4    3.12    0.79
  12   4  -2    1.95    0.99
  14   0 -11    3.36    0.65
  15   5   1   -0.39    0.99
  16   4  -4    0.60    0.91
  17   1 -11   -0.83    0.77
  18   4  -4    0.44    0.93
  20   2 -10    0.82    0.92
  22   2 -10    1.15    0.93
   5   3   0    1.14    0.69
   6   4   3    2.54    0.67
   8   0  -8   39.72    0.78
  11   1  -9   13.25    0.77
  11   3  -5    0.75    0.82
  12   2  -8   24.19    1.12
  13   1 -10    7.99    0.82
  13   3  -6    4.24    0.61
  13   5   2    0.30    0.79
  15   3  -7   -0.13    0.88
  16   0 -12    3.75    0.76
  17   5   0    3.49    1.03
  18   2 -10    4.89    0.99
  18   4  -5   -0.19    0.96
  19   3  -8    1.38    1.03
  21   1 -12    1.50    0.86
  23   1 -12    0.16    0.79
   4   2  -2   38.38    0.80
   6   2  -4  144.89    1.50
   8   4   0    0.95    0.88
   9   3  -4    0.48    0.79
  10   2  -7   50.67    1.23
  13   5   1    0.40    0.89
  14   4  -4    0.29    0.99
  15   1 -11   -0.26    0.87
  15   5   0    0.02    0.96
  16   2 -10   -0.38    0.79
  17   3  -8    3.63    1.03
  17   5  -1    6.15    1.05
  22   2 -11    0.07    0.97
   3   3   2    3.09    0.58
   4   4   5   15.61    0.68
   5   1  -5   95.99    1.01
   6   4   2   73.75    1.34
   8   2  -6    9.49    0.78
   9   5   4    0.55    0.77
  10   4  -2    3.24    0.96
  11   3  -6    5.26    0.94
  11   5   2    0.22    0.84
  13   3  -7   44.59    1.32
  17   1 -12    1.00    0.80
  18   4  -6    0.35    1.13
  19   3  -9   -0.92    1.07
  20   2 -11   -0.17    1.00
   5   3  -1    2.06    0.73
   6   0  -7    0.16    0.44
   7   3  -3    0.40    0.68
  12   0 -11    6.33    0.64
  12   4  -4    4.83    0.91
  13   5   0    3.52    1.00
  14   0 -12    0.08    0.61
  14   4  -5    1.20    0.99
  15   5  -1    1.79    0.90
  16   4  -6    9.69    1.10
  17   3  -9    0.42    0.95
  17   5  -2    0.48    1.10
  18   2 -11    5.59    0.99
  21   1 -13   -0.12    0.91
   1   3   5  202.17    1.28
   4   4   4   13.72    0.75
   7   1  -7   15.44    0.67
   8   4  -1    4.94    0.86
   9   3  -5   51.74    1.32
   9   5   3   16.06    1.01
  10   0 -10    0.71    0.49
  10   2  -8   69.20    1.39
  11   1 -10   18.57    0.86
  11   5   1    1.89    0.87
  12   2  -9    7.92    0.87
  13   1 -11    0.47    0.73
  13   5  -1    0.51    0.81
  15   5  -2   -1.29    1.08
  17   5  -3    0.12    0.98
  18   4  -7   -0.17    1.14
  19   1 -13    3.19    0.85
  20   2 -12   -0.50    0.88
   6   2  -5  100.52    1.35
   6   4   1   87.25    1.48
   9   5   2   26.29    1.18
  11   3  -7    7.76    1.14
  11   5   0    0.03    0.78
  14   4  -6   -0.77    0.98
  15   1 -12   32.90    1.19
  15   3  -9    4.35    1.00
   3   3   1  327.08    2.00
   4   2  -3   -0.54    0.58
   7   3  -4    0.25    0.72
   8   0  -9   16.81    0.67
   8   2  -7    2.22    0.76
   9   1  -9   13.96    0.78
  13   5  -2   -0.91    1.00
  17   1 -13    0.42    0.74
  17   3 -10    1.96    0.97
  18   4  -8   -1.49    1.22
   4   4   3    1.81    0.58
   6   4   0    2.87    0.79
   9  -1 -10   20.44    0.56
   9   3  -6    4.68    0.81
   9   5   1    0.39    0.82
  11   5  -1    0.23    0.90
  13   3  -9   -0.34    0.86
  14   2 -11    1.39    0.83
  14   4  -7    4.15    1.01
  15   5  -4   -0.16    1.15
  16   2 -12    1.51    0.90
  19   1 -14    1.13    0.79
  20   2 -13   -0.25    0.94
   1   3   4    0.75    0.45
   5   1  -6    0.02    0.50
   7   5   3    1.48    0.90
  11   1 -11    1.25    0.77
  11   3  -8    6.80    1.10
  12   0 -12    6.92    0.67
  12   4  -6    0.81    0.89
  13   1 -12    7.60    0.85
  13   5  -3    1.08    1.00
  14   0 -13    3.76    0.68
  15   1 -13   15.32    0.96
  16   4  -8   -0.97    0.97
  17   3 -11    0.63    1.11
  18   2 -13    1.05    0.93
  18   4  -9    0.02    1.15
   3   3   0  163.28    1.53
   4   4   2   -0.12    0.68
   6   4  -1    0.71    0.83
   7   3  -5    3.68    0.80
   8   4  -3  110.91    1.86
  10   0 -11   25.80    0.77
  10   4  -5    0.19    0.80
  14   6   1    0.26    0.86
  15   5  -5   -0.52    1.18
  17   1 -14   -0.53    0.77
  19   3 -12    0.82    1.06
   2   2  -1    9.62    0.49
   7   5   2   -0.08    0.83
   9   1 -10   20.86    0.83
   9   3  -7   22.02    1.12
  13   3 -10    3.52    0.98
  13   5  -4    1.40    0.91
  14   2 -12    0.61    0.78
  14   4  -8    1.40    0.97
  14   6   0    1.21    0.90
  15   3 -11    2.70    1.05
  16   2 -13    1.01    0.87
  16   4  -9   -0.29    0.95
  18   4 -10    1.85    1.22
  19   1 -15    0.51    0.90
  20   2 -14   -0.86    0.94
   3   1  -4   78.82    0.78
   4   2  -4   21.63    0.65
   6   0  -8   56.29    0.82
   9   5  -1    0.54    0.84
  10   2 -10    1.21    0.79
  10   4  -6   -0.45    0.82
  11   3  -9    4.37    1.10
  11   5  -3   11.56    1.09
  13   5  -5   -0.43    0.92
  18   2 -14    0.93    0.97
  19   3 -13    1.88    1.07
   1   3   3    7.23    0.56
   4   4   1    2.49    0.66
   6   4  -2   -0.23    0.84
   7   3  -6   17.84    1.00
   7   5   1    1.14    0.80
   8   0 -10   59.00    0.93
   9   3  -8    1.26    0.84
  11   1 -12    9.10    0.88
  13   1 -13    0.60    0.77
  14   4  -9    2.45    1.07
  14   6  -1    3.37    0.95
  16   4 -10    1.12    1.15
  17   1 -15    3.40    0.81
  20   2 -15    1.72    0.81
   3   3  -1   44.26    1.00
   5   3  -4  195.01    1.96
   6   2  -7    0.72    0.77
   8   2  -9   14.11    0.85
   9   5  -2    0.44    0.79
  11   5  -4    0.60    0.89
  12   2 -12    5.41    1.06
  13   3 -11    0.95    0.91
  14   2 -13    2.38    0.85
  15   3 -12   17.43    1.23
  15   5  -7    0.78    1.19
  16   2 -14    4.37    0.90
  17   3 -13    0.66    1.09
   4   4   0    0.16    0.73
   5   1  -7   17.61    0.73
   6   4  -3    3.10    0.83
   9  -1 -11    1.14    0.48
   9   1 -11    1.56    0.61
   9   5  -3    2.10    1.02
  10   0 -12   17.80    0.69
  10   4  -7   15.39    1.12
  11   3 -10   10.91    0.99
  11   5  -5    0.31    0.91
  12   6  -1   -0.25    1.00
  14   4 -10    0.51    1.12
  16   4 -11    0.33    1.11
  18   2 -15    1.57    1.00
  19   3 -14    1.50    1.08
   2   2  -2   14.37    0.57
   4   2  -5   40.22    0.96
   7   3  -7    7.25    0.89
   9   3  -9    6.50    0.97
  12   4  -9    1.80    0.95
  13   1 -14    0.18    0.86
  13   3 -12    3.93    0.95
  15   1 -15   -0.46    0.79
  15   5  -8   -0.02    1.05
  17   3 -14    1.64    1.12
  20   2 -16    2.07    0.93
   1   3   2   -0.12    0.49
   3   3  -2   21.41    0.86
   5   5   2    2.91    0.81
   7   5  -1    1.26    0.82
   9   5  -4   -1.11    0.91
  10   4  -8   26.64    1.32
  11   1 -13    8.72    0.91
  11   3 -11    0.88    0.77
  11   5  -6    0.32    0.99
  12   2 -13   45.63    1.48
  12   6  -2   -0.77    0.94
  14   2 -14    3.91    0.92
  14   4 -11    1.29    1.08
  15   5  -9    2.25    1.22
  16   2 -15    2.95    0.96
  16   4 -12    0.41    1.13
  17   1 -16    1.06    0.79
   3   1  -5   57.86    0.79
   4   4  -1    8.81    0.83
   6   2  -8   40.40    1.08
   6   4  -4   36.76    1.28
  12   0 -14   14.33    0.80
  12   4 -10    0.67    1.10
  12   6  -3    0.78    1.01
  13   5  -8    5.23    1.26
  18   2 -16    0.69    0.95
  -3  -3  -9    1.24    0.54
  -1  -3 -10   20.96    0.94
   1  -3 -12    1.21    0.82
   4  -2  -9   14.42    0.91
   8  -2 -15    0.95    1.14
   9  -1 -11    2.47    0.72
  10  -2 -23    4.59    1.28
  10  -2 -22   -0.25    1.28
  10  -2 -21   -0.02    1.31
  13  -1 -23    0.70    1.21
  13  -1 -22    1.94    1.32
   2  -2  -7    5.49    0.69
   3  -3 -14   -0.11    0.91
   5  -1  -6   -0.44    0.60
   6  -2 -11   13.57    1.01
   7  -1  -8   85.04    1.42
   8  -2 -14    1.92    1.03
  10  -2 -20    0.15    1.09
  10  -2 -19   -0.51    1.14
  10   0  -9   76.34    1.38
  11   1  -8   15.22    0.69
  12   0 -12    6.77    0.94
  13  -1 -21    0.03    1.07
  13  -1 -20    1.39    1.13
   1  -3 -11  109.51    1.77
   3  -3 -13   16.53    1.08
   7  -3 -22    1.47    1.25
   7  -3 -21    1.02    1.20
  10  -2 -18   -0.56    1.08
  13  -1 -19    1.11    1.12
  13   1 -11    0.01    0.61
  14   0 -16    1.76    0.87
  -3  -3  -8   47.22    1.00
  -1  -3  -9   12.59    0.73
   0  -4 -20    0.33    0.94
   0  -4 -19   -0.04    1.04
   3  -1  -4   79.41    0.89
   4  -2  -8   66.08    1.33
   7  -3 -20   -0.72    1.04
   7  -3 -19   -0.35    1.11
   8   0  -6    9.57    0.64
   9  -1 -10   19.62    0.99
  10  -2 -17    0.92    1.02
  13  -1 -18   -0.53    0.95
  14   0 -15    1.10    0.94
  16   0 -23    0.62    1.06
  16   0 -22    0.42    1.11
   0  -4 -18   -1.01    0.91
   0  -2  -5  109.63    1.15
   1  -3 -10   31.04    1.08
   2  -4 -22    0.87    1.07
   2  -4 -21    0.73    0.94
   3  -3 -12    8.01    0.98
   6  -2 -10   -0.06    0.55
   7  -3 -18    1.77    1.07
  10  -2 -16   11.60    1.20
  10   0  -8  108.56    1.50
  12  -2 -22    0.98    1.21
  12  -2 -21    0.15    1.35
  13  -1 -17    0.56    0.93
  16   0 -21    1.46    1.07
  16   0 -20   -1.06    1.04
   0  -4 -17    2.47    0.79
   0  -4 -16   17.08    1.20
   2  -4 -20    4.46    1.16
   2  -4 -19    0.82    1.03
   2  -2  -6   25.12    0.83
   7  -1  -7   15.26    0.81
   8  -2 -12   16.36    1.11
   9  -3 -22    0.37    1.27
  10  -2 -15   10.62    1.13
  12  -2 -20    9.48    1.40
  13  -1 -16    0.06    1.00
  13   1 -10    9.25    0.66
  14   0 -14    3.22    1.00
  15  -1 -22   -0.43    1.18
  16   0 -19    0.96    1.05
  -1  -3  -8   13.07    0.76
   2  -4 -18    0.73    0.95
   3  -3 -11    1.22    0.82
   4  -4 -22    1.22    1.11
   4  -4 -21    1.51    1.09
   5  -1  -5   95.92    1.15
   6  -2  -9   17.54    0.99
   7  -3 -16    9.28    1.17
   9  -3 -21    6.02    1.25
   9  -1  -9   13.65    0.91
  10  -2 -14    9.23    1.10
  12   0 -10    0.68    0.74
  13  -1 -15   23.06    1.25
  15  -1 -21    1.86    1.23
  15  -1 -20    5.42    1.31
  16   0 -18    0.46    0.97
  -3  -3  -7    9.90    0.60
   0  -4 -15    2.02    0.85
   1  -3  -9    7.87    0.74
   2  -4 -17   -0.67    0.97
   4  -4 -20    0.61    1.14
   4  -2  -7   28.10    0.96
   7  -3 -15    2.91    0.99
   8  -2 -11    2.34    0.94
   9  -3 -19    6.26    1.31
  11  -1 -11    1.21    0.82
  12  -2 -18    1.03    1.06
  14   0 -13    3.62    0.85
  15  -1 -19    0.99    1.19
  16   0 -17    0.81    0.89
   0  -4 -14   -0.08    0.84
   2  -4 -16   -0.34    0.91
   3  -3 -10   15.16    0.96
   4  -4 -19    1.32    1.05
   4  -4 -18    2.20    0.98
   7  -3 -14    3.83    0.96
   9  -3 -18    1.15    1.06
  10  -2 -13   -0.47    1.07
  12  -2 -17    2.07    0.99
  13  -1 -14   -0.08    0.97
  15  -1 -18    1.49    1.09
   2  -4 -15    0.27    0.86
   4  -4 -17   11.82    1.18
   6  -4 -21   -0.02    1.19
   6  -2  -8   38.67    1.14
   7  -1  -6   46.66    1.04
   8   0  -5    3.22    0.53
   9  -3 -17    1.43    1.03
   9  -1  -8    1.70    0.81
  11  -3 -21    0.02    1.39
  12  -2 -16   -0.38    1.05
  13   1  -9    0.58    0.50
  14   0 -12   -0.06    0.78
  15  -1 -17    1.91    0.93
  16   0 -16    0.15    0.87
  -1  -3  -7   52.34    1.09
   0  -2  -4   41.72    0.78
   1  -3  -8    6.09    0.79
   2  -4 -14    0.96    0.97
   2  -2  -5  357.01    2.14
   4  -4 -16    1.42    0.92
   6  -4 -20    2.67    1.14
   6  -4 -19    0.57    1.18
   7  -3 -13    0.98    1.12
   9  -3 -16    6.44    1.12
  10  -2 -12   10.20    1.10
  11  -3 -20   -0.35    1.25
  11  -1 -10   18.97    1.08
  12  -2 -15    3.44    1.09
  12   0  -9   14.24    0.84
  13  -1 -13    1.15    0.96
   6  -4 -18    0.36    1.12
   9  -3 -15    2.12    1.07
  11  -3 -19    4.08    1.18
  11  -3 -18    8.15    1.34
  15  -1 -16    0.93    1.02
  17  -1 -21    0.29    1.16
  -3  -3  -6   48.34    0.93
   0  -4 -12   12.34    0.98
   2  -4 -13   13.96    1.17
   4  -4 -15    0.64    0.93
   5  -3 -10    3.78    0.87
   5  -1  -4  504.34    2.31
   6  -4 -17   -0.43    1.18
   7  -3 -12    0.68    1.03
   8  -4 -21    0.06    1.30
   8  -4 -20    3.38    1.21
   8  -2  -9   14.33    1.02
   9  -3 -14   37.56    1.56
  10  -2 -11   14.99    1.15
  12  -2 -14    7.60    1.08
  13  -1 -12    7.88    1.08
  14   0 -11    3.62    0.82
  15  -1 -15    0.94    0.97
  16   0 -14    4.82    0.99
  17  -1 -20    0.26    1.10
   4  -4 -14    1.70    0.94
   6  -4 -16    0.31    1.08
   6  -2  -7    0.45    0.80
   8  -4 -19    3.21    1.43
  10   0  -6    1.70    0.54
  11  -3 -17    1.25    1.10
  11  -1  -9   12.40    0.89
  12  -2 -13   46.06    1.52
  12   0  -8   42.25    1.09
  17  -1 -19    1.22    1.15
   0  -4 -11   13.15    0.94
   1  -3  -7   49.83    1.15
   2  -4 -12    2.97    0.95
   3  -3  -8    2.53    0.75
   6  -4 -15   29.12    1.44
   7  -3 -11   21.97    1.27
   7  -1  -5    8.99    0.70
   9  -3 -13    8.66    1.08
  11  -3 -16    0.43    1.11
  13  -3 -20   -0.47    1.37
  13  -1 -11    0.47    0.85
  15  -1 -14    2.46    0.97
  16  -2 -20   -0.12    1.07
  16   0 -13    0.09    0.91
  17  -1 -18    1.00    1.22
  -2  -4 -10    2.65    0.77
  -1  -3  -6   73.53    1.14
   4  -4 -13    0.22    0.87
   5  -3  -9   48.89    1.37
  10  -2 -10    1.26    0.84
  11  -3 -15    0.38    1.18
  12  -2 -12    4.07    1.16
  13  -3 -19   -0.45    1.26
  14   0 -10    2.60    0.77
  16  -2 -19    0.12    1.35
  17  -1 -17   10.70    1.35
   0  -4 -10    0.57    0.86
   2  -4 -11    0.75    0.87
   2  -2  -4  226.45    1.68
   3  -5 -20    0.10    0.88
   3  -5 -19    0.48    0.86
   4  -4 -12    6.66    1.20
   4  -2  -5   41.48    0.98
   7  -3 -10   54.37    1.59
   8   0  -4   77.05    0.98
   9  -3 -12    2.76    1.02
  10  -4 -19   -0.74    1.29
  11  -1  -8   14.81    0.90
  13  -3 -18    0.81    1.10
  15  -1 -13   15.93    1.14
  16  -2 -18    1.34    1.11
   3  -5 -18    1.85    1.01
   3  -3  -7    3.45    0.74
   6  -4 -13    1.89    1.11
   6  -2  -6   24.35    1.00
  10  -4 -18   -1.31    1.37
  10  -2  -9   56.49    1.58
  11  -3 -14    0.80    0.78
  12  -2 -11    5.37    1.12
  13  -3 -17    0.52    1.12
  13  -1 -10    8.57    0.94
  16  -2 -17   -0.38    1.25
  16   0 -12    3.39    0.83
  17  -1 -16    0.95    0.95
  -3  -3  -5    2.90    0.58
  -2  -4  -9    3.47    0.65
   0  -2  -3   -0.04    0.36
   1  -3  -6   42.39    1.10
   2  -4 -10    4.61    1.05
   3  -5 -17   -0.53    1.02
   5  -5 -19    0.52    1.15
   9  -3 -11    1.08    1.17
  10  -4 -17    0.10    1.33
  11  -3 -13    3.34    1.07
  12   0  -7   28.48    0.89
  13  -3 -16   -0.52    1.21
  14   0  -9    9.82    0.83
  15  -1 -12   31.17    1.42
  17  -1 -15    2.90    1.01
   0  -4  -9    1.65    0.77
   3  -5 -16    3.89    1.18
   4  -4 -11    5.13    0.98
   5  -1  -3  229.50    1.53
   6  -4 -12    1.15    0.96
  10  -4 -16    5.21    1.11
  10   0  -5    7.25    0.61
  11   1  -5    0.66    0.44
  13  -3 -15   12.51    1.41
  14  -2 -13    2.53    1.07
  15  -3 -19    1.02    1.24
  16  -2 -16    1.02    1.17
  -1  -3  -5  204.33    1.71
   5  -5 -17    0.79    1.10
   7  -1  -4    1.39    0.61
   9  -3 -10    8.38    1.23
  10  -2  -8   71.98    1.63
  11  -3 -12    4.38    1.05
  11  -1  -7   18.53    0.94
  12  -4 -18    1.61    1.39
  12  -2 -10   -0.54    1.00
  15  -3 -18   -0.43    1.25
  16  -2 -15    3.09    1.16
  16   0 -11    3.90    0.85
  17  -1 -14   -0.70    1.03
  18  -2 -19    1.52    1.28
  19  -1 -18   -0.68    1.11
  -2  -4  -8    5.74    0.77
   2  -4  -9    6.66    0.96
   3  -5 -15   11.32    1.26
   3  -3  -6   87.01    1.48
   4  -4 -10   78.23    1.86
   4  -2  -4   21.78    0.83
   5  -5 -16   -0.46    1.21
   5  -3  -7    3.96    0.84
   6  -4 -11    4.89    1.06
   6  -2  -5   99.21    1.51
   7  -5 -18    0.60    1.17
   7  -3  -8   36.78    1.31
  10  -4 -15    5.86    1.21
  13  -3 -14    1.11    1.15
  14  -2 -12    0.09    0.94
  15  -3 -17    0.22    1.41
  18  -2 -18    0.20    1.20
   0  -4  -8    1.80    0.83
   1  -3  -5    3.48    0.75
   3  -5 -14   -0.77    0.95
   7  -5 -17   -0.02    1.28
   8  -2  -6   10.39    0.89
  10  -4 -14    2.33    1.25
  11  -3 -11    0.21    0.98
  12  -4 -17    1.37    1.15
  13  -3 -13    1.29    1.07
  14   0  -8    5.04    0.74
  15  -3 -16    0.29    1.28
  16  -2 -14    5.11    1.23
  17  -1 -13    0.06    0.94
  18  -2 -17    1.73    1.20
  19  -1 -16   -0.35    1.03
   2  -2  -3    6.95    0.56
   4  -4  -9    6.45    1.00
   5  -5 -15    0.76    0.97
   7  -5 -16    3.42    1.11
  10  -2  -7   50.35    1.38
  12  -4 -16    0.43    1.30
  12  -2  -9    7.97    0.82
  13  -1  -8   35.01    1.25
  14  -2 -11    1.38    1.00
  15  -3 -15    0.05    1.10
  15  -1 -10    7.80    1.02
  16   0 -10    0.75    0.70
   2  -4  -8   20.69    1.11
   3  -5 -13    2.72    1.03
   5  -5 -14   -0.23    1.12
   5  -3  -6    0.13    0.75
   6  -4 -10   -0.33    1.02
   8  -4 -11    2.56    1.02
   8   0  -3  508.44    2.15
  10  -4 -13    0.39    1.16
  11  -3 -10   11.71    1.22
  11  -1  -6   14.80    0.86
  12  -4 -15    0.84    1.38
  13  -3 -12    4.41    1.11
  17  -1 -12    0.65    0.90
  18  -2 -16    0.21    1.25
  19  -1 -15    0.42    1.11
   7  -3  -7    6.15    0.75
   9  -5 -17    1.62    1.13
   9  -3  -8    0.17    1.04
  10   0  -4    2.03    0.60
  14  -4 -17    1.24    1.36
  14  -2 -10    3.46    1.06
  15  -3 -14    1.27    1.31
  18  -2 -15   -0.20    1.15
  -1  -3  -4    0.54    0.56
   0  -4  -7   35.08    1.11
   3  -5 -12    1.72    0.92
   4  -4  -8   18.93    1.15
   5  -5 -13   -0.76    1.05
   6  -2  -4  144.07    1.71
   7  -5 -14    2.48    1.23
   7  -1  -3    2.85    0.58
   8  -2  -5    3.66    0.79
   9  -5 -16    1.36    1.33
  10  -4 -12    3.00    1.10
  12  -4 -14    1.46    1.30
  13  -3 -11    0.11    1.07
  13  -1  -7   87.67    1.64
  14  -4 -16    0.92    1.44
  14   0  -7   22.27    0.92
  15  -1  -9    9.73    1.02
  16  -2 -12    0.83    1.11
  16   0  -9    0.79    0.72
  17  -3 -16   -0.27    1.29
  19  -1 -14    1.68    1.07
   1  -5 -11   22.36    1.31
   2  -4  -7    0.43    0.87
   4  -2  -3   -0.44    0.65
   5  -5 -12    3.56    1.15
   5  -1  -2   83.57    0.95
  10  -4 -11    4.17    1.11
  10  -2  -6    0.82    0.85
  11  -3  -9    4.51    1.18
  12  -4 -13   16.85    1.54
  15  -3 -13    8.08    1.38
  17  -1 -11   -0.46    0.94
  18  -2 -14   -0.52    1.23
   1  -3  -4    4.89    0.70
   3  -5 -11   -0.63    0.89
   7  -3  -6   16.68    1.11
   9  -5 -14    9.81    1.53
  11  -1  -5   -0.17    0.74
  11   1  -4    0.97    0.43
  12   0  -5    7.48    0.61
  13  -3 -10    3.50    1.12
  14  -4 -15   -0.03    1.24
  16  -2 -11    3.05    1.07
  17  -3 -15    1.41    1.49
  -2  -4  -6   14.47    0.82
   1  -5 -10    9.94    1.07
   4  -4  -7    6.74    1.02
   5  -5 -11    2.00    1.13
   6  -4  -8    8.34    1.12
   7  -5 -12   -0.54    1.23
   8  -4  -9    5.63    1.08
  11  -3  -8    5.24    1.24
  12  -4 -12    2.63    1.28
  14  -4 -14    0.90    1.35
  15  -3 -12   17.87    1.41
  15  -1  -8    1.44    0.90
  17  -3 -14    1.14    1.22
  17  -1 -10    4.66    0.95
  18  -2 -13    0.54    1.18
  20  -2 -16    3.06    1.19
   0  -4  -6   -0.15    0.69
   2  -2  -2   14.54    0.61
   3  -5 -10    2.53    0.97
   8  -2  -4   45.12    1.22
   9  -5 -13    1.85    1.41
  10  -4 -10   -0.35    1.01
  13  -1  -6   11.11    0.89
  14  -2  -8    3.28    1.12
  16  -2 -10    0.12    1.00
  16   0  -8   -0.69    0.78
   2  -4  -6    8.13    0.94
   7  -5 -11    6.14    1.15
   8  -4  -8    5.33    1.08
  10  -2  -5    1.37    0.84
  12  -4 -11    0.76    1.26
  13  -3  -9    0.16    1.05
  14   0  -6    1.13    0.59
  15  -3 -11    2.03    1.11
  17  -3 -13    0.58    1.32
  18  -2 -12   15.64    1.34
  20  -2 -15    1.23    1.08
   1  -5  -9    0.82    0.95
   3  -5  -9    1.13    1.04
   4  -4  -6    1.45    1.00
   5  -5 -10   -0.83    0.96
   6  -6 -15    6.89    1.24
   7  -3  -5    2.75    0.68
   9  -5 -12    0.82    1.31
  10  -4  -9   17.07    1.38
  10   0  -3    2.84    0.59
  11  -3  -7    9.14    1.24
  14  -4 -12    0.78    1.20
  15  -1  -7    2.36    0.93
  17  -1  -9    1.03    0.88
  -3  -3  -3    1.26    0.53
  -1  -3  -3    6.66    0.63
   1  -3  -3    0.33    0.65
   4  -2  -2   37.38    0.94
   5  -3  -4  188.66    2.08
   7  -5 -10   11.78    1.26
   7  -1  -2   16.98    0.69
   8   0  -2   30.66    0.63
  11  -1  -4    0.40    0.69
  12  -4 -10    0.12    1.19
  13  -3  -8   18.65    1.33
  14  -2  -7   16.53    1.25
  16  -4 -14    2.52    1.31
  17  -3 -12    1.95    1.27
  18  -2 -11    6.42    1.18
   0  -4  -5   23.87    0.97
   1  -5  -8    2.33    0.99
   5  -5  -9    8.64    1.19
   6  -6 -14    2.47    1.18
   8  -4  -7    0.15    1.16
   9  -5 -11    0.56    1.13
  10  -4  -8   26.80    1.54
  12   0  -4   31.58    0.83
  14  -4 -11    1.73    1.26
  19  -3 -14    0.15    1.33
  20  -2 -13   -0.57    1.18
   2  -4  -5  113.34    1.85
   6  -6 -13    1.56    1.17
   7  -3  -4    0.39    0.87
   8  -2  -3  369.31    2.83
   9  -5 -10    1.15    1.35
   9  -3  -5   52.90    1.55
  10  -2  -4   -0.22    0.80
  12  -4  -9    1.94    1.32
  13  -5 -13   -0.07    1.31
  14   0  -5    3.72    0.68
  16  -2  -8   -1.11    0.88
  17  -3 -11    0.81    1.24
  17  -1  -8    8.55    1.11
  18  -2 -10    5.58    1.06
  19  -3 -13    2.34    1.35
  19  -1 -10    0.33    0.92
   4  -4  -5    8.93    1.01
   5  -1  -1    6.32    0.47
   7  -5  -9   14.49    1.31
  11  -5 -11    0.18    1.34
  13  -3  -7   45.14    1.65
  15  -1  -6    6.58    0.91
  16  -4 -12   -0.51    1.55
  20  -2 -12    0.90    1.13
   1  -5  -7    8.84    1.11
   5  -3  -3   92.16    1.62
   6  -6 -12    0.26    1.20
   8  -6 -13    0.66    1.29
   8  -4  -6    3.72    1.22
  10  -4  -7   16.15    1.33
  12  -4  -8    7.32    1.35
  13  -5 -12    0.15    1.47
  14  -2  -6    0.55    0.99
  17  -3 -10    1.50    1.24
  19  -3 -12    0.62    1.28
   0  -4  -4    7.13    0.87
   2  -2  -1    9.79    0.59
   3  -5  -7    1.16    1.02
   7  -5  -8    9.78    1.31
   8  -6 -12   -0.93    1.28
   9  -5  -9    0.61    1.12
   9  -3  -4    0.32    1.00
  11  -5 -10    2.04    1.40
  11  -3  -5   -0.62    1.09
  11  -1  -3   87.15    1.42
  14  -4  -9    1.70    1.35
  16  -4 -11    0.22    1.23
  16  -2  -7   30.22    1.37
  17  -1  -7   -0.47    1.01
  19  -1  -9    0.27    0.95
  20  -2 -11    0.84    1.21
  -2  -4  -4    7.34    0.70
   2  -4  -4   53.16    1.40
   5  -5  -7    0.25    1.01
   6  -6 -11    0.46    1.14
   7  -3  -3    0.82    0.89
  10  -4  -6    0.29    1.00
  10  -2  -3    5.03    0.82
  13  -5 -11    0.09    1.23
  13  -3  -6    4.67    1.09
  13  -1  -4    5.06    0.78
  17  -3  -9   -0.08    1.33
  19  -3 -11    2.36    1.39
  -1  -3  -2    0.31    0.56
   4  -6 -10   13.30    1.40
   4  -4  -4    3.35    0.97
   4  -2  -1   47.82    1.04
   7  -5  -7    1.05    1.10
   8  -6 -11    0.25    1.31
   8  -4  -5    1.15    1.22
   9  -5  -8    0.43    1.21
  10   0  -2    8.47    0.72
  12  -4  -7    5.08    1.15
  12   0  -3    3.94    0.57
  13  -5 -10    0.93    1.26
  14  -4  -8    1.30    1.19
  14  -2  -5    1.72    0.96
  15  -1  -5    2.55    0.86
  16  -4 -10   -1.36    1.24
  18  -2  -8    0.47    0.95
  20  -2 -10    0.06    1.18
   6  -6 -10   -0.68    1.29
   7  -1  -1   38.31    0.89
  14   0  -4    1.83    0.61
  16  -2  -6   21.48    1.36
  19  -3 -10   -0.22    1.37
  19  -1  -8    1.37    0.94
  -3  -3  -2    4.29    0.59
   4  -6  -9    0.84    1.24
   5  -5  -6    0.95    1.05
   6  -2  -1    0.84    0.74
   8  -6 -10    2.06    1.29
   9  -5  -7    6.61    1.36
   9  -3  -3   14.84    1.18
  10  -6 -11    0.68    1.39
  10  -4  -5    0.93    1.03
  11  -5  -8   -0.15    1.41
  12  -4  -6   -0.06    1.18
  13  -5  -9   -0.15    1.27
  13  -3  -5   -1.04    1.03
  16  -4  -9   -0.45    1.26
  17  -1  -6   12.29    1.14
   0  -4  -3    0.70    0.78
   2  -4  -3    1.41    0.80
   4  -4  -3   -0.23    0.87
   6  -6  -9    0.57    1.25
   7  -5  -6    3.23    1.12
  11  -1  -2  276.06    2.34
  13  -1  -3    5.46    0.81
  14  -4  -7    4.31    1.31
  14  -2  -4    0.74    0.93
  18  -2  -7    0.42    1.01
  19  -3  -9   -1.94    1.35
  20  -2  -9    1.52    1.15
   1  -5  -5    0.43    0.82
   3  -5  -5    3.28    1.01
   4  -6  -8    3.73    1.16
   5  -5  -5   12.37    1.39
   7  -3  -2   11.23    0.84
   8  -6  -9    1.04    1.41
  10  -6 -10    0.10    1.21
  10  -2  -2    8.36    0.89
  11  -5  -7    1.81    1.33
  13  -5  -8    5.04    1.36
  15  -1  -4    5.54    0.88
  16  -4  -8    0.46    1.19
  16  -2  -5    5.70    1.03
  17  -3  -7   -0.08    1.21
   5  -1   0    2.50    0.42
   6  -6  -8    2.05    1.21
   8  -2  -1   19.25    1.08
  10  -6  -9    2.73    1.46
  10  -4  -4   -1.79    0.97
  12  -4  -5    2.27    1.18
  13  -3  -4    4.30    1.07
  14  -4  -6   -0.18    1.32
  15  -5  -9    4.38    1.53
  17  -1  -5    1.51    0.99
  19  -3  -8    0.58    1.33
  20  -2  -8   -0.64    1.12
  21  -3 -10    2.90    1.38
   1  -3  -1    0.21    0.71
   2  -2   0    5.78    0.61
   5  -3  -1    1.98    0.90
   7  -5  -5    0.65    1.05
   8  -6  -8    1.06    1.35
   8  -4  -3  109.59    2.33
  11  -5  -6   -0.27    1.28
  12   0  -2    7.99    0.69
  13  -5  -7   13.11    1.50
  14   0  -3    3.64    0.73
  16  -4  -7   12.54    1.51
  17  -3  -6    5.01    1.16
  18  -2  -6    0.40    0.99
  -1  -3  -1    0.63    0.69
   2  -4  -2    3.74    0.86
   4  -6  -7    0.18    1.07
   4  -4  -2    8.67    1.00
   4  -2   0   -0.25    0.75
   5  -5  -4   43.09    1.80
  10  -6  -8    7.83    1.37
  14  -2  -3    1.27    1.04
  15  -5  -8   -0.43    1.48
   0  -4  -2    0.90    0.78
   1  -5  -4    1.14    0.85
   7  -5  -4    0.88    1.00
   7  -3  -1    9.18    1.08
   7  -1   0   30.51    0.90
  10  -4  -3    1.56    1.06
  10  -2  -1    2.97    0.88
  10   0  -1    9.55    0.74
  11  -3  -2  122.63    2.26
  12  -4  -4    4.66    1.22
  13  -1  -2    1.24    0.75
  14  -4  -5    1.21    1.21
  15  -1  -3    4.41    0.93
  16  -4  -6    8.46    1.48
  16  -2  -4    3.34    1.08
  20  -2  -7    4.30    1.24
  21  -3  -9    0.69    1.10
   4  -6  -6    0.29    1.00
  10  -6  -7    3.51    1.54
  11  -1  -1    6.17    0.86
  13  -5  -6   -0.14    1.32
  15  -5  -7    0.44    1.51
  17  -3  -5    0.96    1.23
  17  -1  -4    1.97    0.91
  18  -2  -5    1.75    1.00
   3  -5  -3    7.08    1.21
   6  -6  -6    1.94    1.06
   8  -6  -6    0.69    1.18
   8  -4  -2    5.49    0.92
   8  -2   0   10.09    1.07
   9  -3  -1    1.79    1.04
  12  -4  -3    0.21    1.07
  14  -4  -4   -0.11    1.28
  19  -3  -6    7.55    1.37
  21  -3  -8    1.48    1.23
  -2  -4  -2   15.09    0.75
   4  -4  -1    9.42    1.00
   5  -5  -3   17.88    1.34
   7  -5  -3    0.31    1.07
  10  -4  -2    2.61    1.13
  11  -5  -4    0.65    1.20
  12  -6  -7    0.82    1.54
  13  -5  -5   -0.57    1.45
  13  -3  -2    0.09    1.12
  14  -2  -2   89.96    1.94
  15  -5  -6   -0.73    1.67
  16  -4  -5    2.74    1.26
  16  -2  -3    1.36    0.98
   0   0   0    0.00    0.00
;
_shelx_hkl_checksum              61729
loop_
_space_group_symop_operation_xyz
'x, y, z'
'-x, y, -z'
'x+1/2, y+1/2, z'
'-x+1/2, y+1/2, -z'
'-x, -y, -z'
'x, -y, z'
'-x+1/2, -y+1/2, -z'
'x+1/2, -y+1/2, z'
loop_
_atom_site_label
_atom_site_type_symbol
_atom_site_fract_x
_atom_site_fract_y
_atom_site_fract_z
_atom_site_U_iso_or_equiv
_atom_site_adp_type
_atom_site_occupancy
_atom_site_site_symmetry_order
_atom_site_calc_flag
_atom_site_refinement_flags_posn
_atom_site_refinement_flags_adp
_atom_site_refinement_flags_occupancy
_atom_site_disorder_assembly
_atom_site_disorder_group
Bi1 Bi 0.45126(5) 0.000000 0.18975(5) 0.0295(2) Uani 0.944(2) 2 d S T P . .
Cu1 Cu 0.489(6) 0.000000 0.221(6) 0.08(2) Uiso 0.056(2) 2 d S . P . .
Bi2 Bi 0.15171(4) 0.000000 0.06283(4) 0.0315(2) Uani 0.756(2) 2 d S T P . .
Ag2 Ag 0.15171(4) 0.000000 0.06283(4) 0.0315(2) Uani 0.200(0) 2 d S T P . .
Bi3 Bi 0.24381(4) 0.000000 0.62207(4) 0.0431(2) Uani 1 2 d S T P . .
Se1 Se 0.40228(9) 0.000000 0.35976(9) 0.0278(3) Uani 1 2 d S T P . .
Se2A Se 0.79269(15) 0.000000 0.1299(3) 0.0229(8) Uiso 0.746(19) 2 d S . P . .
Se2B Se 0.7985(4) 0.000000 0.1020(10) 0.023(2) Uiso 0.254(19) 2 d S . P . .
Se3 Se 0.13824(9) 0.000000 0.45500(9) 0.0247(3) Uani 1 2 d S T P . .
Se4 Se 0.09496(9) 0.000000 0.22977(10) 0.0291(3) Uani 1 2 d S T P . .
Se5 Se 0.000000 0.500000 0.000000 0.0224(4) Uani 1 4 d S T P . .
Cu3 Cu 0.0224(15) 0.000000 0.560(3) 0.102(14) Uani 0.107(6) 2 d S T P . .
Cu4 Cu 0.4648(13) 0.000000 0.5237(10) 0.066(5) Uani 0.212(7) 2 d S T P . .
Cu5 Cu 0.000000 0.332(4) 0.500000 0.075(4) Uani 0.325(7) 2 d S T P . .
loop_
_atom_site_aniso_label
_atom_site_aniso_U_11
_atom_site_aniso_U_22
_atom_site_aniso_U_33
_atom_site_aniso_U_23
_atom_site_aniso_U_13
_atom_site_aniso_U_12
Bi1 0.0326(4) 0.0288(3) 0.0276(4) 0.000 0.0060(3) 0.000
Bi2 0.0292(4) 0.0281(4) 0.0377(4) 0.000 0.0067(3) 0.000
Ag2 0.0292(4) 0.0281(4) 0.0377(4) 0.000 0.0067(3) 0.000
Bi3 0.0504(4) 0.0431(4) 0.0316(4) 0.000 -0.0058(3) 0.000
Se1 0.0301(7) 0.0273(7) 0.0287(8) 0.000 0.0122(6) 0.000
Se3 0.0258(6) 0.0239(6) 0.0241(7) 0.000 0.0034(5) 0.000
Se4 0.0272(7) 0.0250(7) 0.0332(8) 0.000 -0.0006(5) 0.000
Se5 0.0231(8) 0.0213(9) 0.0229(9) 0.000 0.0043(7) 0.000
Cu3 0.020(10) 0.16(3) 0.13(3) 0.000 0.009(13) 0.000
Cu4 0.074(11) 0.057(9) 0.056(10) 0.000 -0.026(7) 0.000
Cu5 0.039(4) 0.128(11) 0.058(6) 0.000 0.008(4) 0.000
loop_
_atom_type_symbol
_atom_type_description
_atom_type_scat_dispersion_real
_atom_type_scat_dispersion_imag
_atom_type_scat_source
Cu Cu 0.3240 0.8257 'International Tables Vol C Tables 4.2.6.8 and 6.1.1.4'
Se Se 0.2367 1.4831 'International Tables Vol C Tables 4.2.6.8 and 6.1.1.4'
Ag Ag -1.6473 0.7167 'International Tables Vol C Tables 4.2.6.8 and 6.1.1.4'
Bi Bi -1.3494 7.2566 'International Tables Vol C Tables 4.2.6.8 and 6.1.1.4'
loop_
_geom_angle_atom_site_label_1
_geom_angle_atom_site_label_2
_geom_angle_atom_site_label_3
_geom_angle
_geom_angle_site_symmetry_1
_geom_angle_site_symmetry_3
_geom_angle_publ_flag
Cu1 Bi1 Se1 66(6) . . ?
Cu1 Bi1 Se4 53(3) . 3 ?
Se1 Bi1 Se4 93.72(4) . 3 ?
Cu1 Bi1 Se4 53(3) . 3_545 ?
Se1 Bi1 Se4 93.72(4) . 3_545 ?
Se4 Bi1 Se4 93.56(4) 3 3_545 ?
Cu1 Bi1 Se2A 132(2) . 3_445 ?
Se1 Bi1 Se2A 90.51(10) . 3_445 ?
Se4 Bi1 Se2A 174.47(9) 3 3_445 ?
Se4 Bi1 Se2A 89.71(3) 3_545 3_445 ?
Cu1 Bi1 Se2A 132(2) . 3_455 ?
Se1 Bi1 Se2A 90.51(10) . 3_455 ?
Se4 Bi1 Se2A 89.71(3) 3 3_455 ?
Se4 Bi1 Se2A 174.47(9) 3_545 3_455 ?
Se2A Bi1 Se2A 86.69(5) 3_445 3_455 ?
Cu1 Bi1 Se5 115(6) . 3_545 ?
Se1 Bi1 Se5 178.61(4) . 3_545 ?
Se4 Bi1 Se5 87.23(3) 3 3_545 ?
Se4 Bi1 Se5 87.23(3) 3_545 3_545 ?
Se2A Bi1 Se5 88.48(10) 3_445 3_545 ?
Se2A Bi1 Se5 88.48(10) 3_455 3_545 ?
Cu1 Bi1 Se2B 136.3(14) . 3_445 ?
Se1 Bi1 Se2B 98.8(3) . 3_445 ?
Se4 Bi1 Se2B 166.9(3) 3 3_445 ?
Se4 Bi1 Se2B 89.53(7) 3_545 3_445 ?
Se2A Bi1 Se2B 8.3(2) 3_445 3_445 ?
Se2A Bi1 Se2B 86.30(7) 3_455 3_445 ?
Se5 Bi1 Se2B 80.2(3) 3_545 3_445 ?
Cu1 Bi1 Se2B 136.3(14) . 3_455 ?
Se1 Bi1 Se2B 98.8(3) . 3_455 ?
Se4 Bi1 Se2B 89.53(7) 3 3_455 ?
Se4 Bi1 Se2B 166.9(3) 3_545 3_455 ?
Se2A Bi1 Se2B 86.30(7) 3_445 3_455 ?
Se2A Bi1 Se2B 8.3(2) 3_455 3_455 ?
Se5 Bi1 Se2B 80.2(3) 3_545 3_455 ?
Se2B Bi1 Se2B 84.73(17) 3_445 3_455 ?
Bi1 Cu1 Se4 115(4) . 3 ?
Bi1 Cu1 Se4 115(4) . 3_545 ?
Se4 Cu1 Se4 111(3) 3 3_545 ?
Bi1 Cu1 Se1 101(7) . . ?
Se4 Cu1 Se1 107(2) 3 . ?
Se4 Cu1 Se1 107(2) 3_545 . ?
Se2B Bi2 Se4 178.37(12) 5_655 . ?
Se2B Bi2 Se2B 85.3(3) 5_655 3_455 ?
Se4 Bi2 Se2B 95.8(3) . 3_455 ?
Se2B Bi2 Se2B 85.3(3) 5_655 3_445 ?
Se4 Bi2 Se2B 95.8(3) . 3_445 ?
Se2B Bi2 Se2B 92.45(15) 3_455 3_445 ?
Se2B Bi2 Se2A 94.12(15) 5_655 3_455 ?
Se4 Bi2 Se2A 87.02(11) . 3_455 ?
Se2B Bi2 Se2A 8.8(2) 3_455 3_455 ?
Se2B Bi2 Se2A 92.71(8) 3_445 3_455 ?
Se2B Bi2 Se2A 94.12(15) 5_655 3_445 ?
Se4 Bi2 Se2A 87.02(11) . 3_445 ?
Se2B Bi2 Se2A 92.71(8) 3_455 3_445 ?
Se2B Bi2 Se2A 8.8(2) 3_445 3_445 ?
Se2A Bi2 Se2A 91.61(6) 3_455 3_445 ?
Se2B Bi2 Se5 88.34(9) 5_655 1_545 ?
Se4 Bi2 Se5 90.49(2) . 1_545 ?
Se2B Bi2 Se5 173.3(3) 3_455 1_545 ?
Se2B Bi2 Se5 89.12(8) 3_445 1_545 ?
Se2A Bi2 Se5 177.05(9) 3_455 1_545 ?
Se2A Bi2 Se5 89.84(3) 3_445 1_545 ?
Se2B Bi2 Se5 88.34(9) 5_655 . ?
Se4 Bi2 Se5 90.49(2) . . ?
Se2B Bi2 Se5 89.12(8) 3_455 . ?
Se2B Bi2 Se5 173.3(3) 3_445 . ?
Se2A Bi2 Se5 89.84(3) 3_455 . ?
Se2A Bi2 Se5 177.05(9) 3_445 . ?
Se5 Bi2 Se5 88.605(18) 1_545 . ?
Se2B Bi2 Se2A 0.60(14) 5_655 5_655 ?
Se4 Bi2 Se2A 177.77(5) . 5_655 ?
Se2B Bi2 Se2A 85.7(3) 3_455 5_655 ?
Se2B Bi2 Se2A 85.7(3) 3_445 5_655 ?
Se2A Bi2 Se2A 94.53(11) 3_455 5_655 ?
Se2A Bi2 Se2A 94.53(11) 3_445 5_655 ?
Se5 Bi2 Se2A 87.92(3) 1_545 5_655 ?
Se5 Bi2 Se2A 87.92(3) . 5_655 ?
Se3 Bi3 Se1 79.86(4) . 7_546 ?
Se3 Bi3 Se1 79.86(4) . 7_556 ?
Se1 Bi3 Se1 90.60(4) 7_546 7_556 ?
Se3 Bi3 Se3 82.46(4) . 7_556 ?
Se1 Bi3 Se3 162.25(4) 7_546 7_556 ?
Se1 Bi3 Se3 87.84(3) 7_556 7_556 ?
Se3 Bi3 Se3 82.46(4) . 7_546 ?
Se1 Bi3 Se3 87.84(2) 7_546 7_546 ?
Se1 Bi3 Se3 162.25(4) 7_556 7_546 ?
Se3 Bi3 Se3 88.28(4) 7_556 7_546 ?
Se3 Bi3 Cu3 50.0(7) . . ?
Se1 Bi3 Cu3 50.6(3) 7_546 . ?
Se1 Bi3 Cu3 50.6(3) 7_556 . ?
Se3 Bi3 Cu3 117.1(4) 7_556 . ?
Se3 Bi3 Cu3 117.1(4) 7_546 . ?
Cu4 Se1 Cu5 23.1(3) 5_656 7_556 ?
Cu4 Se1 Cu5 23.1(3) 5_656 3_545 ?
Cu5 Se1 Cu5 33.6(7) 7_556 3_545 ?
Cu4 Se1 Cu4 30.9(9) 5_656 . ?
Cu5 Se1 Cu4 22.3(2) 7_556 . ?
Cu5 Se1 Cu4 22.3(2) 3_545 . ?
Cu4 Se1 Cu3 55.3(6) 5_656 7_556 ?
Cu5 Se1 Cu3 38.9(7) 7_556 7_556 ?
Cu5 Se1 Cu3 72.3(8) 3_545 7_556 ?
Cu4 Se1 Cu3 58.5(8) . 7_556 ?
Cu4 Se1 Cu3 55.3(6) 5_656 7_546 ?
Cu5 Se1 Cu3 72.3(8) 7_556 7_546 ?
Cu5 Se1 Cu3 38.9(7) 3_545 7_546 ?
Cu4 Se1 Cu3 58.5(8) . 7_546 ?
Cu3 Se1 Cu3 110.0(12) 7_556 7_546 ?
Cu4 Se1 Cu1 103(2) 5_656 . ?
Cu5 Se1 Cu1 117.3(19) 7_556 . ?
Cu5 Se1 Cu1 117.3(19) 3_545 . ?
Cu4 Se1 Cu1 134(2) . . ?
Cu3 Se1 Cu1 100.8(13) 7_556 . ?
Cu3 Se1 Cu1 100.8(13) 7_546 . ?
Cu4 Se1 Bi1 115.7(5) 5_656 . ?
Cu5 Se1 Bi1 129.58(10) 7_556 . ?
Cu5 Se1 Bi1 129.58(10) 3_545 . ?
Cu4 Se1 Bi1 146.6(4) . . ?
Cu3 Se1 Bi1 107.8(8) 7_556 . ?
Cu3 Se1 Bi1 107.8(8) 7_546 . ?
Cu1 Se1 Bi1 13(2) . . ?
Cu4 Se1 Bi3 112.8(3) 5_656 7_546 ?
Cu5 Se1 Bi3 114.0(2) 7_556 7_546 ?
Cu5 Se1 Bi3 89.7(3) 3_545 7_546 ?
Cu4 Se1 Bi3 91.7(3) . 7_546 ?
Cu3 Se1 Bi3 139.9(7) 7_556 7_546 ?
Cu3 Se1 Bi3 66.4(4) 7_546 7_546 ?
Cu1 Se1 Bi3 119.3(12) . 7_546 ?
Bi1 Se1 Bi3 111.19(4) . 7_546 ?
Cu4 Se1 Bi3 112.8(3) 5_656 7_556 ?
Cu5 Se1 Bi3 89.7(3) 7_556 7_556 ?
Cu5 Se1 Bi3 114.0(2) 3_545 7_556 ?
Cu4 Se1 Bi3 91.7(3) . 7_556 ?
Cu3 Se1 Bi3 66.4(4) 7_556 7_556 ?
Cu3 Se1 Bi3 139.9(7) 7_546 7_556 ?
Cu1 Se1 Bi3 119.3(12) . 7_556 ?
Bi1 Se1 Bi3 111.19(4) . 7_556 ?
Bi3 Se1 Bi3 90.61(4) 7_546 7_556 ?
Bi2 Se2A Bi2 91.61(6) 3_545 3 ?
Bi2 Se2A Bi1 175.18(17) 3_545 3 ?
Bi2 Se2A Bi1 90.700(18) 3 3 ?
Bi2 Se2A Bi1 90.700(18) 3_545 3_545 ?
Bi2 Se2A Bi1 175.18(17) 3 3_545 ?
Bi1 Se2A Bi1 86.69(5) 3 3_545 ?
Bi2 Se2A Bi2 85.47(11) 3_545 5_655 ?
Bi2 Se2A Bi2 85.47(11) 3 5_655 ?
Bi1 Se2A Bi2 90.50(10) 3 5_655 ?
Bi1 Se2A Bi2 90.50(10) 3_545 5_655 ?
Bi2 Se2B Bi2 94.7(3) 5_655 3_545 ?
Bi2 Se2B Bi2 94.7(3) 5_655 3 ?
Bi2 Se2B Bi2 92.45(15) 3_545 3 ?
Bi2 Se2B Bi1 98.3(3) 5_655 3 ?
Bi2 Se2B Bi1 166.5(6) 3_545 3 ?
Bi2 Se2B Bi1 89.96(7) 3 3 ?
Bi2 Se2B Bi1 98.3(3) 5_655 3_545 ?
Bi2 Se2B Bi1 89.96(7) 3_545 3_545 ?
Bi2 Se2B Bi1 166.5(6) 3 3_545 ?
Bi1 Se2B Bi1 84.73(17) 3 3_545 ?
Cu3 Se3 Cu3 46.6(17) 5_556 . ?
Cu3 Se3 Cu5 40.5(6) 5_556 . ?
Cu3 Se3 Cu5 39.0(4) . . ?
Cu3 Se3 Cu5 40.5(6) 5_556 5_556 ?
Cu3 Se3 Cu5 39.0(4) . 5_556 ?
Cu5 Se3 Cu5 66.3(6) . 5_556 ?
Cu3 Se3 Cu4 56.4(4) 5_556 7_546 ?
Cu3 Se3 Cu4 59.1(4) . 7_546 ?
Cu5 Se3 Cu4 87.6(6) . 7_546 ?
Cu5 Se3 Cu4 21.6(3) 5_556 7_546 ?
Cu3 Se3 Cu4 56.4(4) 5_556 7_556 ?
Cu3 Se3 Cu4 59.1(4) . 7_556 ?
Cu5 Se3 Cu4 21.6(3) . 7_556 ?
Cu5 Se3 Cu4 87.6(6) 5_556 7_556 ?
Cu4 Se3 Cu4 108.6(7) 7_546 7_556 ?
Cu3 Se3 Bi3 118.2(10) 5_556 . ?
Cu3 Se3 Bi3 71.6(7) . . ?
Cu5 Se3 Bi3 92.90(4) . . ?
Cu5 Se3 Bi3 92.90(4) 5_556 . ?
Cu4 Se3 Bi3 95.7(3) 7_546 . ?
Cu4 Se3 Bi3 95.7(3) 7_556 . ?
Cu3 Se3 Bi3 124.1(5) 5_556 7_556 ?
Cu3 Se3 Bi3 135.31(11) . 7_556 ?
Cu5 Se3 Bi3 101.7(3) . 7_556 ?
Cu5 Se3 Bi3 164.5(2) 5_556 7_556 ?
Cu4 Se3 Bi3 163.4(4) 7_546 7_556 ?
Cu4 Se3 Bi3 80.0(4) 7_556 7_556 ?
Bi3 Se3 Bi3 97.54(4) . 7_556 ?
Cu3 Se3 Bi3 124.1(5) 5_556 7_546 ?
Cu3 Se3 Bi3 135.31(11) . 7_546 ?
Cu5 Se3 Bi3 164.5(2) . 7_546 ?
Cu5 Se3 Bi3 101.7(3) 5_556 7_546 ?
Cu4 Se3 Bi3 80.0(4) 7_546 7_546 ?
Cu4 Se3 Bi3 163.4(4) 7_556 7_546 ?
Bi3 Se3 Bi3 97.54(4) . 7_546 ?
Bi3 Se3 Bi3 88.28(3) 7_556 7_546 ?
Cu1 Se4 Cu1 111(3) 3_445 3_455 ?
Cu1 Se4 Bi2 101.4(17) 3_445 . ?
Cu1 Se4 Bi2 101.4(17) 3_455 . ?
Cu1 Se4 Bi1 11.7(19) 3_445 3_445 ?
Cu1 Se4 Bi1 102.8(16) 3_455 3_445 ?
Bi2 Se4 Bi1 95.25(4) . 3_445 ?
Cu1 Se4 Bi1 102.8(16) 3_445 3_455 ?
Cu1 Se4 Bi1 11.7(19) 3_455 3_455 ?
Bi2 Se4 Bi1 95.25(4) . 3_455 ?
Bi1 Se4 Bi1 93.56(4) 3_445 3_455 ?
Bi2 Se5 Bi2 180.00(2) 5 1_565 ?
Bi2 Se5 Bi2 88.605(18) 5 5_565 ?
Bi2 Se5 Bi2 91.395(18) 1_565 5_565 ?
Bi2 Se5 Bi2 91.395(18) 5 . ?
Bi2 Se5 Bi2 88.605(18) 1_565 . ?
Bi2 Se5 Bi2 180.0 5_565 . ?
Bi2 Se5 Bi1 93.084(17) 5 3_455 ?
Bi2 Se5 Bi1 86.916(17) 1_565 3_455 ?
Bi2 Se5 Bi1 93.084(17) 5_565 3_455 ?
Bi2 Se5 Bi1 86.916(17) . 3_455 ?
Bi2 Se5 Bi1 86.916(17) 5 7 ?
Bi2 Se5 Bi1 93.084(17) 1_565 7 ?
Bi2 Se5 Bi1 86.916(17) 5_565 7 ?
Bi2 Se5 Bi1 93.084(17) . 7 ?
Bi1 Se5 Bi1 180.0 3_455 7 ?
Cu5 Cu3 Cu5 113(2) . 5_556 ?
Cu5 Cu3 Cu3 56.4(12) . 5_556 ?
Cu5 Cu3 Cu3 56.4(12) 5_556 5_556 ?
Cu5 Cu3 Se3 81.4(9) . 5_556 ?
Cu5 Cu3 Se3 81.4(9) 5_556 5_556 ?
Cu3 Cu3 Se3 74.3(13) 5_556 5_556 ?
Cu5 Cu3 Cu4 127.3(19) . 3_445 ?
Cu5 Cu3 Cu4 22.0(4) 5_556 3_445 ?
Cu3 Cu3 Cu4 73.1(10) 5_556 3_445 ?
Se3 Cu3 Cu4 70.7(7) 5_556 3_445 ?
Cu5 Cu3 Cu4 22.0(4) . 3_455 ?
Cu5 Cu3 Cu4 127.3(19) 5_556 3_455 ?
Cu3 Cu3 Cu4 73.1(10) 5_556 3_455 ?
Se3 Cu3 Cu4 70.7(7) 5_556 3_455 ?
Cu4 Cu3 Cu4 133.9(14) 3_445 3_455 ?
Cu5 Cu3 Se3 73.5(11) . . ?
Cu5 Cu3 Se3 73.5(11) 5_556 . ?
Cu3 Cu3 Se3 59.1(15) 5_556 . ?
Se3 Cu3 Se3 133.4(17) 5_556 . ?
Cu4 Cu3 Se3 94.4(11) 3_445 . ?
Cu4 Cu3 Se3 94.4(11) 3_455 . ?
Cu5 Cu3 Cu4 116.0(19) . 7_546 ?
Cu5 Cu3 Cu4 14.5(4) 5_556 7_546 ?
Cu3 Cu3 Cu4 61.4(9) 5_556 7_546 ?
Se3 Cu3 Cu4 95.9(9) 5_556 7_546 ?
Cu4 Cu3 Cu4 31.5(10) 3_445 7_546 ?
Cu4 Cu3 Cu4 134.6(17) 3_455 7_546 ?
Se3 Cu3 Cu4 63.1(8) . 7_546 ?
Cu5 Cu3 Cu4 14.5(4) . 7_556 ?
Cu5 Cu3 Cu4 116.0(19) 5_556 7_556 ?
Cu3 Cu3 Cu4 61.4(9) 5_556 7_556 ?
Se3 Cu3 Cu4 95.9(9) 5_556 7_556 ?
Cu4 Cu3 Cu4 134.6(17) 3_445 7_556 ?
Cu4 Cu3 Cu4 31.5(10) 3_455 7_556 ?
Se3 Cu3 Cu4 63.1(8) . 7_556 ?
Cu4 Cu3 Cu4 115.3(16) 7_546 7_556 ?
Cu5 Cu3 Se1 66.8(5) . 7_556 ?
Cu5 Cu3 Se1 166.0(13) 5_556 7_556 ?
Cu3 Cu3 Se1 121.4(10) 5_556 7_556 ?
Se3 Cu3 Se1 111.9(7) 5_556 7_556 ?
Cu4 Cu3 Se1 165.5(17) 3_445 7_556 ?
Cu4 Cu3 Se1 57.3(3) 3_455 7_556 ?
Se3 Cu3 Se1 93.4(6) . 7_556 ?
Cu4 Cu3 Se1 152.0(10) 7_546 7_556 ?
Cu4 Cu3 Se1 59.9(3) 7_556 7_556 ?
Cu5 Cu3 Se1 166.0(13) . 7_546 ?
Cu5 Cu3 Se1 66.8(5) 5_556 7_546 ?
Cu3 Cu3 Se1 121.4(10) 5_556 7_546 ?
Se3 Cu3 Se1 111.9(7) 5_556 7_546 ?
Cu4 Cu3 Se1 57.3(3) 3_445 7_546 ?
Cu4 Cu3 Se1 165.5(17) 3_455 7_546 ?
Se3 Cu3 Se1 93.4(6) . 7_546 ?
Cu4 Cu3 Se1 59.9(3) 7_546 7_546 ?
Cu4 Cu3 Se1 152.0(10) 7_556 7_546 ?
Se1 Cu3 Se1 110.0(12) 7_556 7_546 ?
Cu5 Cu3 Cu5 128.2(18) . 1_545 ?
Cu5 Cu3 Cu5 15.4(6) 5_556 1_545 ?
Cu3 Cu3 Cu5 71.8(7) 5_556 1_545 ?
Se3 Cu3 Cu5 85.1(5) 5_556 1_545 ?
Cu4 Cu3 Cu5 15.2(5) 3_445 1_545 ?
Cu4 Cu3 Cu5 141.5(14) 3_455 1_545 ?
Se3 Cu3 Cu5 80.8(7) . 1_545 ?
Cu4 Cu3 Cu5 17.8(4) 7_546 1_545 ?
Cu4 Cu3 Cu5 130.7(15) 7_556 1_545 ?
Se1 Cu3 Cu5 160.2(10) 7_556 1_545 ?
Se1 Cu3 Cu5 52.03(11) 7_546 1_545 ?
Cu5 Cu4 Cu5 95(3) 7_556 3_545 ?
Cu5 Cu4 Cu4 47.3(14) 7_556 5_656 ?
Cu5 Cu4 Cu4 47.3(14) 3_545 5_656 ?
Cu5 Cu4 Cu3 40.6(11) 7_556 3 ?
Cu5 Cu4 Cu3 126.3(19) 3_545 3 ?
Cu4 Cu4 Cu3 82.9(10) 5_656 3 ?
Cu5 Cu4 Cu3 126.3(19) 7_556 3_545 ?
Cu5 Cu4 Cu3 40.6(11) 3_545 3_545 ?
Cu4 Cu4 Cu3 82.9(10) 5_656 3_545 ?
Cu3 Cu4 Cu3 133.9(14) 3 3_545 ?
Cu5 Cu4 Se1 84.8(9) 7_556 5_656 ?
Cu5 Cu4 Se1 84.8(9) 3_545 5_656 ?
Cu4 Cu4 Se1 82.3(12) 5_656 5_656 ?
Cu3 Cu4 Se1 67.4(8) 3 5_656 ?
Cu3 Cu4 Se1 67.4(8) 3_545 5_656 ?
Cu5 Cu4 Cu3 109.9(18) 7_556 7_546 ?
Cu5 Cu4 Cu3 25.8(9) 3_545 7_546 ?
Cu4 Cu4 Cu3 65.6(8) 5_656 7_546 ?
Cu3 Cu4 Cu3 148.5(10) 3 7_546 ?
Cu3 Cu4 Cu3 45.4(17) 3_545 7_546 ?
Se1 Cu4 Cu3 106.4(8) 5_656 7_546 ?
Cu5 Cu4 Cu3 25.8(8) 7_556 7_556 ?
Cu5 Cu4 Cu3 109.9(18) 3_545 7_556 ?
Cu4 Cu4 Cu3 65.6(8) 5_656 7_556 ?
Cu3 Cu4 Cu3 45.4(17) 3 7_556 ?
Cu3 Cu4 Cu3 148.5(10) 3_545 7_556 ?
Se1 Cu4 Cu3 106.4(8) 5_656 7_556 ?
Cu3 Cu4 Cu3 115.3(16) 7_546 7_556 ?
Cu5 Cu4 Se1 74.5(9) 7_556 . ?
Cu5 Cu4 Se1 74.5(9) 3_545 . ?
Cu4 Cu4 Se1 66.7(11) 5_656 . ?
Cu3 Cu4 Se1 107.0(10) 3 . ?
Cu3 Cu4 Se1 107.0(10) 3_545 . ?
Se1 Cu4 Se1 149.1(9) 5_656 . ?
Cu3 Cu4 Se1 61.6(8) 7_546 . ?
Cu3 Cu4 Se1 61.6(8) 7_556 . ?
Cu5 Cu4 Se3 165.0(13) 7_556 7_546 ?
Cu5 Cu4 Se3 76.9(10) 3_545 7_546 ?
Cu4 Cu4 Se3 123.0(5) 5_656 7_546 ?
Cu3 Cu4 Se3 153.2(12) 3 7_546 ?
Cu3 Cu4 Se3 53.0(5) 3_545 7_546 ?
Se1 Cu4 Se3 106.3(4) 5_656 7_546 ?
Cu3 Cu4 Se3 57.8(6) 7_546 7_546 ?
Cu3 Cu4 Se3 147.1(9) 7_556 7_546 ?
Se1 Cu4 Se3 91.3(3) . 7_546 ?
Cu5 Cu4 Se3 76.9(10) 7_556 7_556 ?
Cu5 Cu4 Se3 165.0(13) 3_545 7_556 ?
Cu4 Cu4 Se3 123.0(5) 5_656 7_556 ?
Cu3 Cu4 Se3 53.0(5) 3 7_556 ?
Cu3 Cu4 Se3 153.2(12) 3_545 7_556 ?
Se1 Cu4 Se3 106.3(4) 5_656 7_556 ?
Cu3 Cu4 Se3 147.1(9) 7_546 7_556 ?
Cu3 Cu4 Se3 57.8(6) 7_556 7_556 ?
Se1 Cu4 Se3 91.3(3) . 7_556 ?
Se3 Cu4 Se3 108.6(7) 7_546 7_556 ?
Cu4 Cu5 Cu4 85(3) 7_556 3_455 ?
Cu4 Cu5 Cu5 42.7(14) 7_556 5_566 ?
Cu4 Cu5 Cu5 42.7(14) 3_455 5_566 ?
Cu4 Cu5 Cu3 117.4(14) 7_556 5_556 ?
Cu4 Cu5 Cu3 139.7(12) 3_455 5_556 ?
Cu5 Cu5 Cu3 146.4(12) 5_566 5_556 ?
Cu4 Cu5 Cu3 139.7(12) 7_556 . ?
Cu4 Cu5 Cu3 117.4(14) 3_455 . ?
Cu5 Cu5 Cu3 146.4(12) 5_566 . ?
Cu3 Cu5 Cu3 67(2) 5_556 . ?
Cu4 Cu5 Se1 83.2(10) 7_556 7_556 ?
Cu4 Cu5 Se1 72.1(9) 3_455 7_556 ?
Cu5 Cu5 Se1 73.2(4) 5_566 7_556 ?
Cu3 Cu5 Se1 138.8(12) 5_556 7_556 ?
Cu3 Cu5 Se1 74.3(10) . 7_556 ?
Cu4 Cu5 Se1 72.1(9) 7_556 3_455 ?
Cu4 Cu5 Se1 83.2(9) 3_455 3_455 ?
Cu5 Cu5 Se1 73.2(4) 5_566 3_455 ?
Cu3 Cu5 Se1 74.3(10) 5_556 3_455 ?
Cu3 Cu5 Se1 138.8(12) . 3_455 ?
Se1 Cu5 Se1 146.4(7) 7_556 3_455 ?
Cu4 Cu5 Se3 81.5(11) 7_556 . ?
Cu4 Cu5 Se3 162.0(14) 3_455 . ?
Cu5 Cu5 Se3 123.1(3) 5_566 . ?
Cu3 Cu5 Se3 58.1(8) 5_556 . ?
Cu3 Cu5 Se3 67.5(10) . . ?
Se1 Cu5 Se3 94.02(11) 7_556 . ?
Se1 Cu5 Se3 104.25(13) 3_455 . ?
Cu4 Cu5 Se3 162.0(14) 7_556 5_556 ?
Cu4 Cu5 Se3 81.5(11) 3_455 5_556 ?
Cu5 Cu5 Se3 123.1(3) 5_566 5_556 ?
Cu3 Cu5 Se3 67.5(10) 5_556 5_556 ?
Cu3 Cu5 Se3 58.1(8) . 5_556 ?
Se1 Cu5 Se3 104.25(13) 7_556 5_556 ?
Se1 Cu5 Se3 94.02(11) 3_455 5_556 ?
Se3 Cu5 Se3 113.7(6) . 5_556 ?
Cu4 Cu5 Cu5 137.3(14) 7_556 5_556 ?
Cu4 Cu5 Cu5 137.3(14) 3_455 5_556 ?
Cu5 Cu5 Cu5 180.000(13) 5_566 5_556 ?
Cu3 Cu5 Cu5 33.6(12) 5_556 5_556 ?
Cu3 Cu5 Cu5 33.6(12) . 5_556 ?
Se1 Cu5 Cu5 106.8(4) 7_556 5_556 ?
Se1 Cu5 Cu5 106.8(4) 3_455 5_556 ?
Se3 Cu5 Cu5 56.9(3) . 5_556 ?
Se3 Cu5 Cu5 56.9(3) 5_556 5_556 ?
Cu4 Cu5 Cu3 52.3(14) 7_556 1_565 ?
Cu4 Cu5 Cu3 38.5(14) 3_455 1_565 ?
Cu5 Cu5 Cu3 18.2(7) 5_566 1_565 ?
Cu3 Cu5 Cu3 164.6(6) 5_556 1_565 ?
Cu3 Cu5 Cu3 128.2(18) . 1_565 ?
Se1 Cu5 Cu3 55.7(7) 7_556 1_565 ?
Se1 Cu5 Cu3 90.8(8) 3_455 1_565 ?
Se3 Cu5 Cu3 124.1(5) . 1_565 ?
Se3 Cu5 Cu3 118.6(6) 5_556 1_565 ?
Cu5 Cu5 Cu3 161.8(7) 5_556 1_565 ?
Cu4 Cu5 Cu3 38.5(14) 7_556 5_566 ?
Cu4 Cu5 Cu3 52.3(15) 3_455 5_566 ?
Cu5 Cu5 Cu3 18.2(7) 5_566 5_566 ?
Cu3 Cu5 Cu3 128.2(18) 5_556 5_566 ?
Cu3 Cu5 Cu3 164.6(6) . 5_566 ?
Se1 Cu5 Cu3 90.8(8) 7_556 5_566 ?
Se1 Cu5 Cu3 55.7(7) 3_455 5_566 ?
Se3 Cu5 Cu3 118.6(6) . 5_566 ?
Se3 Cu5 Cu3 124.1(5) 5_556 5_566 ?
Cu5 Cu5 Cu3 161.8(7) 5_556 5_566 ?
Cu3 Cu5 Cu3 36.5(14) 1_565 5_566 ?
loop_
_geom_bond_atom_site_label_1
_geom_bond_atom_site_label_2
_geom_bond_distance
_geom_bond_site_symmetry_2
_geom_bond_publ_flag
Bi1 Cu1 0.64(9) . ?
Bi1 Se1 2.7957(14) . ?
Bi1 Se4 2.8736(10) 3 ?
Bi1 Se4 2.8736(10) 3_545 ?
Bi1 Se2A 3.0509(15) 3_445 ?
Bi1 Se2A 3.0509(15) 3_455 ?
Bi1 Se5 3.0890(7) 3_545 ?
Bi1 Se2B 3.108(5) 3_445 ?
Bi1 Se2B 3.108(5) 3_455 ?
Cu1 Se4 2.54(4) 3 ?
Cu1 Se4 2.54(4) 3_545 ?
Cu1 Se1 2.60(7) . ?
Bi2 Se2B 2.724(16) 5_655 ?
Bi2 Se4 2.7944(16) . ?
Bi2 Se2B 2.900(4) 3_455 ?
Bi2 Se2B 2.900(4) 3_445 ?
Bi2 Se2A 2.9208(16) 3_455 ?
Bi2 Se2A 2.9208(16) 3_445 ?
Bi2 Se5 2.9983(5) 1_545 ?
Bi2 Se5 2.9983(5) . ?
Bi2 Se2A 3.170(5) 5_655 ?
Bi3 Se3 2.7231(15) . ?
Bi3 Se1 2.9461(10) 7_546 ?
Bi3 Se1 2.9461(9) 7_556 ?
Bi3 Se3 3.0071(9) 7_556 ?
Bi3 Se3 3.0071(9) 7_546 ?
Bi3 Cu3 3.03(2) . ?
Se1 Cu4 2.331(13) 5_656 ?
Se1 Cu5 2.440(5) 7_556 ?
Se1 Cu5 2.440(5) 3_545 ?
Se1 Cu4 2.515(14) . ?
Se1 Cu3 2.556(19) 7_556 ?
Se1 Cu3 2.556(19) 7_546 ?
Se3 Cu3 2.18(2) 5_556 ?
Se3 Cu3 2.45(3) . ?
Se3 Cu5 2.539(9) . ?
Se3 Cu5 2.539(9) 5_556 ?
Se3 Cu4 2.579(11) 7_546 ?
Se3 Cu4 2.579(11) 7_556 ?
Cu3 Cu5 1.67(2) . ?
Cu3 Cu5 1.67(2) 5_556 ?
Cu3 Cu3 1.85(8) 5_556 ?
Cu3 Cu4 2.276(12) 3_445 ?
Cu3 Cu4 2.276(12) 3_455 ?
Cu3 Cu4 2.48(2) 7_546 ?
Cu3 Cu4 2.48(2) 7_556 ?
Cu3 Cu5 2.95(2) 1_545 ?
Cu4 Cu5 0.961(11) 7_556 ?
Cu4 Cu5 0.961(11) 3_545 ?
Cu4 Cu4 1.30(4) 5_656 ?
Cu5 Cu5 1.41(3) 5_566 ?
Cu5 Cu5 2.78(3) 5_556 ?
