#------------------------------------------------------------------------------
#$Date: 2022-09-06 01:50:55 +0300 (Tue, 06 Sep 2022) $
#$Revision: 277636 $
#$URL: file:///home/coder/svn-repositories/cod/cif/7/71/11/7711146.cif $
#------------------------------------------------------------------------------
#
# This file is available in the Crystallography Open Database (COD),
# http://www.crystallography.net/
#
# All data on this site have been placed in the public domain by the
# contributors.
#
data_7711146
loop_
_publ_author_name
'Ward, Jas S.'
'Mart\~onova, Jevgenija'
'Wilson, Laura M. E.'
'Kramer, Eric'
'Aav, Riina'
'Rissanen, Kari'
_publ_section_title
;
 Carbonyl Hypoiodites from Pivalic and Trimesic Acid and their Silver(I)
 Intermediates
;
_journal_name_full               'Dalton Transactions'
_journal_paper_doi               10.1039/D2DT01988D
_journal_year                    2022
_chemical_formula_moiety         'C24 H38 Ag2 N4 O4'
_chemical_formula_sum            'C24 H38 Ag2 N4 O4'
_chemical_formula_weight         662.32
_space_group_crystal_system      triclinic
_space_group_IT_number           2
_space_group_name_Hall           '-P 1'
_space_group_name_H-M_alt        'P -1'
_atom_sites_solution_hydrogens   geom
_atom_sites_solution_primary     dual
_audit_creation_date             2022-04-26
_audit_creation_method
;
Olex2 1.2
(compiled 2018.05.29 svn.r3508 for OlexSys, GUI svn.r5506)
;
_audit_update_record
;
2022-05-18 deposited with the CCDC.	2022-09-05 downloaded from the CCDC.
;
_cell_angle_alpha                82.991(14)
_cell_angle_beta                 72.900(14)
_cell_angle_gamma                73.381(15)
_cell_formula_units_Z            1
_cell_length_a                   6.8349(11)
_cell_length_b                   9.4356(18)
_cell_length_c                   11.4549(19)
_cell_measurement_reflns_used    1211
_cell_measurement_temperature    120.01(10)
_cell_measurement_theta_max      23.8550
_cell_measurement_theta_min      2.9650
_cell_volume                     676.0(2)
_computing_cell_refinement       'CrysAlisPro 1.171.40.84a (Rigaku OD, 2020)'
_computing_data_collection       'CrysAlisPro 1.171.40.84a (Rigaku OD, 2020)'
_computing_data_reduction        'CrysAlisPro 1.171.40.84a (Rigaku OD, 2020)'
_computing_molecular_graphics    'Olex2 (Dolomanov et al., 2009)'
_computing_publication_material  'Olex2 (Dolomanov et al., 2009)'
_computing_structure_refinement  'ShelXL (Sheldrick, 2015)'
_computing_structure_solution    'ShelXT (Sheldrick, 2015)'
_diffrn_ambient_environment      N~2~
_diffrn_ambient_temperature      120.01(10)
_diffrn_detector                 'CCD plate'
_diffrn_detector_area_resol_mean 16.0107
_diffrn_detector_type            Eos
_diffrn_measured_fraction_theta_full 0.989
_diffrn_measured_fraction_theta_max 0.987
_diffrn_measurement_details
;
List of Runs (angles in degrees, time in seconds):

  # Type    Start    End  Width  t~exp~   \w     \q     \k     \f   Frames
#--------------------------------------------------------------------------
  1  \w    -87.00   0.00   1.00    2.00    --  -18.29 -57.00  60.00   87
  2  \w    -48.00  41.00   1.00    2.00    --  -18.29  77.00-150.00   89
  3  \w    -22.00  10.00   1.00    2.00    --  -18.29 -77.00  90.00   32
  4  \w    -20.00  10.00   1.00    2.00    --  -18.29 -77.00 -30.00   30
  5  \w    -39.00  -6.00   1.00    2.00    --  -18.29  57.00 -30.00   33
  6  \w    -50.00  40.00   1.00    2.00    --   19.23 -37.00 -60.00   90
  7  \w      3.00  31.00   1.00    2.00    --   19.23  77.00 -60.00   28
;
_diffrn_measurement_device       'four-circle diffractometer'
_diffrn_measurement_device_type  'SuperNova, Single source at offset/far, Eos'
_diffrn_measurement_method       '\w scans'
_diffrn_orient_matrix_type
'CrysAlisPro convention (1999,Acta A55,543-557)'
_diffrn_orient_matrix_UB_11      -0.0993176000
_diffrn_orient_matrix_UB_12      -0.0152506000
_diffrn_orient_matrix_UB_13      0.0288682000
_diffrn_orient_matrix_UB_21      0.0336579000
_diffrn_orient_matrix_UB_22      -0.0660197000
_diffrn_orient_matrix_UB_23      -0.0324200000
_diffrn_orient_matrix_UB_31      0.0408966000
_diffrn_orient_matrix_UB_32      -0.0396794000
_diffrn_orient_matrix_UB_33      0.0481609000
_diffrn_radiation_monochromator  mirror
_diffrn_radiation_probe          x-ray
_diffrn_radiation_type           MoK\a
_diffrn_radiation_wavelength     0.71073
_diffrn_reflns_av_R_equivalents  0.0653
_diffrn_reflns_av_unetI/netI     0.1168
_diffrn_reflns_Laue_measured_fraction_full 0.989
_diffrn_reflns_Laue_measured_fraction_max 0.987
_diffrn_reflns_limit_h_max       8
_diffrn_reflns_limit_h_min       -8
_diffrn_reflns_limit_k_max       11
_diffrn_reflns_limit_k_min       -8
_diffrn_reflns_limit_l_max       14
_diffrn_reflns_limit_l_min       -14
_diffrn_reflns_number            4536
_diffrn_reflns_point_group_measured_fraction_full 0.989
_diffrn_reflns_point_group_measured_fraction_max 0.987
_diffrn_reflns_theta_full        25.242
_diffrn_reflns_theta_max         26.372
_diffrn_reflns_theta_min         2.864
_diffrn_source                   'micro-focus sealed X-ray tube'
_diffrn_source_type              'SuperNova (Mo) X-ray Source'
_exptl_absorpt_coefficient_mu    1.483
_exptl_absorpt_correction_T_max  1.00000
_exptl_absorpt_correction_T_min  0.73260
_exptl_absorpt_correction_type   multi-scan
_exptl_absorpt_process_details
;
CrysAlisPro 1.171.40.84a (Rigaku Oxford Diffraction, 2020)
Empirical absorption correction using spherical harmonics,
implemented in SCALE3 ABSPACK scaling algorithm.
;
_exptl_crystal_colour            colourless
_exptl_crystal_colour_primary    colourless
_exptl_crystal_density_diffrn    1.627
_exptl_crystal_density_method    'not measured'
_exptl_crystal_description       block
_exptl_crystal_F_000             336
_exptl_crystal_recrystallization_method
'Re-crystallisation from solvent: Acetone+DMSO'
_exptl_crystal_size_max          0.267
_exptl_crystal_size_mid          0.102
_exptl_crystal_size_min          0.053
_refine_diff_density_max         1.648
_refine_diff_density_min         -1.608
_refine_diff_density_rms         0.157
_refine_ls_extinction_method     none
_refine_ls_goodness_of_fit_ref   0.903
_refine_ls_hydrogen_treatment    constr
_refine_ls_matrix_type           full
_refine_ls_number_parameters     159
_refine_ls_number_reflns         2745
_refine_ls_number_restraints     0
_refine_ls_restrained_S_all      0.903
_refine_ls_R_factor_all          0.0821
_refine_ls_R_factor_gt           0.0538
_refine_ls_shift/su_max          0.000
_refine_ls_shift/su_mean         0.000
_refine_ls_structure_factor_coef Fsqd
_refine_ls_weighting_details
'w=1/[\s^2^(Fo^2^)+(0.0514P)^2^] where P=(Fo^2^+2Fc^2^)/3'
_refine_ls_weighting_scheme      calc
_refine_ls_wR_factor_gt          0.1058
_refine_ls_wR_factor_ref         0.1124
_reflns_Friedel_coverage         0.000
_reflns_number_gt                1914
_reflns_number_total             2745
_reflns_threshold_expression     'I > 2\s(I)'
_twin_special_details
;
Component 2 rotated by 6.4240\% 
around [0.09 -0.62 0.78] (reciprocal) or [0.20 -0.78 0.59] (direct)
;
_cod_data_source_file            d2dt01988d2.cif
_cod_data_source_block           1c
_cod_database_code               7711146
_shelxl_version_number           2014/6
_shelx_space_group_comment
;
The symmetry employed for this shelxl refinement is uniquely defined
by the following loop, which should always be used as a source of
symmetry information in preference to the above space-group names.
They are only intended as comments.
;
_olex2_refinement_description
;
1. Fixed Uiso
 At 1.2 times of:
  All C(H) groups
 At 1.5 times of:
  All C(H,H,H) groups
2.a Aromatic/amide H refined with riding coordinates:
 C2(H2), C3(H3), C5(H5), C6(H6)
2.b Idealised Me refined as rotating group:
 C8(H8A,H8B,H8C), C9(H9A,H9B,H9C), C15(H15A,H15B,H15C), C16(H16A,H16B,H16C),
 C17(H17A,H17B,H17C)
;
_shelx_res_file
;
TITL ois-080_2_twin1_hklf4_a.res in P-1
REM Old TITL OIS-080_2_twin1_hklf4 in P-1 #2
REM SHELXT solution in P-1
REM R1 0.144, Rweak 0.011, Alpha 0.056, Orientation as input
REM Formula found by SHELXT: C12 N2 O2 Ag
CELL 0.71073 6.8349 9.4356 11.4549 82.991 72.9 73.381
ZERR 1 0.0011 0.0018 0.0019 0.014 0.014 0.015
LATT 1
SFAC C H Ag N O
UNIT 24 38 2 4 4

L.S. 4 0 0
PLAN  20
BOND $H
list 4
fmap 2 53
acta
SHEL 50 0.8
REM <olex2.extras>
REM <HklSrc "%.\\OIS-080_2_twin1_hklf4.hkl">
REM </olex2.extras>

WGHT    0.051400
FVAR       0.61597
AG1   3    0.181867    0.446581    0.540579    11.00000    0.02010    0.02789 =
         0.02670   -0.00479   -0.00885    0.00567
O11   5   -0.026743    0.558424    0.710719    11.00000    0.02079    0.03062 =
         0.02482   -0.00449   -0.00762    0.00571
O13   5   -0.295352    0.677643    0.630813    11.00000    0.02991    0.03460 =
         0.02242   -0.00676   -0.01037    0.00582
N1    4    0.488730    0.353740    0.607985    11.00000    0.02198    0.02308 =
         0.01467   -0.00260   -0.00379    0.00135
N7    4    1.057639    0.173253    0.703390    11.00000    0.02134    0.02699 =
         0.03006   -0.00486   -0.01041    0.00601
C2    1    0.502877    0.366642    0.718043    11.00000    0.01510    0.02497 =
         0.03245   -0.00721   -0.00178   -0.00057
AFIX  43
H2    2    0.382738    0.418251    0.774446    11.00000   -1.20000
AFIX   0
C3    1    0.685833    0.307930    0.754391    11.00000    0.02509    0.02125 =
         0.02031   -0.00042   -0.01162   -0.00259
AFIX  43
H3    2    0.686456    0.320897    0.833458    11.00000   -1.20000
AFIX   0
C4    1    0.873123    0.227895    0.672100    11.00000    0.02217    0.01617 =
         0.02363   -0.00103   -0.01082    0.00475
C5    1    0.853543    0.214411    0.555096    11.00000    0.01931    0.01765 =
         0.02700   -0.00622   -0.00676    0.00283
AFIX  43
H5    2    0.969038    0.162250    0.496307    11.00000   -1.20000
AFIX   0
C6    1    0.663591    0.278424    0.527960    11.00000    0.02739    0.02752 =
         0.02615   -0.00701   -0.01560    0.00099
AFIX  43
H6    2    0.655768    0.269020    0.449690    11.00000   -1.20000
AFIX   0
C8    1    1.069042    0.188299    0.824982    11.00000    0.02483    0.03713 =
         0.03411   -0.00655   -0.01480   -0.00151
AFIX 137
H8A   2    1.019485    0.290899    0.844314    11.00000   -1.50000
H8B   2    1.213366    0.150479    0.828660    11.00000   -1.50000
H8C   2    0.981855    0.133524    0.882820    11.00000   -1.50000
AFIX   0
C9    1    1.237208    0.074606    0.620647    11.00000    0.02059    0.02623 =
         0.03841   -0.00423   -0.01206    0.00870
AFIX 137
H9A   2    1.204932   -0.017505    0.618751    11.00000   -1.50000
H9B   2    1.361349    0.056571    0.649098    11.00000   -1.50000
H9C   2    1.262940    0.120148    0.539904    11.00000   -1.50000
AFIX   0
C12   1   -0.202937    0.647976    0.715449    11.00000    0.02070    0.02335 =
         0.02232    0.00224   -0.00639   -0.00125
C14   1   -0.312870    0.737298    0.831503    11.00000    0.02987    0.02602 =
         0.02233    0.00024   -0.00781    0.00003
C15   1   -0.554587    0.759195    0.863007    11.00000    0.03317    0.03836 =
         0.02813   -0.00487   -0.00363    0.00157
AFIX 137
H15A  2   -0.604400    0.803399    0.793466    11.00000   -1.50000
H15B  2   -0.623825    0.822814    0.930745    11.00000   -1.50000
H15C  2   -0.586116    0.665014    0.884435    11.00000   -1.50000
AFIX   0
C16   1   -0.263878    0.887289    0.802102    11.00000    0.05410    0.03011 =
         0.03589   -0.01064   -0.00566   -0.00681
AFIX 137
H16A  2   -0.113886    0.874174    0.785775    11.00000   -1.50000
H16B  2   -0.337580    0.949381    0.870477    11.00000   -1.50000
H16C  2   -0.309267    0.932911    0.731510    11.00000   -1.50000
AFIX   0
C17   1   -0.229035    0.659465    0.938830    11.00000    0.04444    0.05632 =
         0.02162   -0.00934   -0.00921    0.00737
AFIX 137
H17A  2   -0.260268    0.564942    0.956735    11.00000   -1.50000
H17B  2   -0.295857    0.718935    1.009264    11.00000   -1.50000
H17C  2   -0.078281    0.645592    0.917958    11.00000   -1.50000
AFIX   0
HKLF 4

REM  ois-080_2_twin1_hklf4_a.res in P-1
REM R1 =  0.0538 for    1914 Fo > 4sig(Fo)  and  0.0821 for all    2745 data
REM    159 parameters refined using      0 restraints

END

WGHT      0.0514      0.0000

REM Highest difference peak  1.648,  deepest hole -1.608,  1-sigma level  0.157
Q1    1   0.0836  0.4014  0.5232  11.00000  0.05    1.65
Q2    1   0.2769  0.4886  0.5769  11.00000  0.05    1.44
Q3    1   0.1192  0.4114  0.4793  11.00000  0.05    1.35
Q4    1   0.1647  0.4202  0.4629  11.00000  0.05    1.27
Q5    1   0.1749  0.4727  0.6188  11.00000  0.05    1.14
Q6    1   0.3147  0.4988  0.4672  11.00000  0.05    0.90
Q7    1   0.1851  0.6096  0.5428  11.00000  0.05    0.72
Q8    1   0.6659  0.3218  0.3946  11.00000  0.05    0.63
Q9    1   0.2130  0.3932  0.5549  11.00000  0.05    0.62
Q10   1   0.0925  0.8759  0.7911  11.00000  0.05    0.62
Q11   1   1.1843  0.2838  0.5411  11.00000  0.05    0.61
Q12   1   0.8358  0.3163  0.4184  11.00000  0.05    0.60
Q13   1   0.9454  0.2617  0.5647  11.00000  0.05    0.60
Q14   1   0.1524  0.4973  0.5182  11.00000  0.05    0.52
Q15   1   0.5396  0.3822  0.4642  11.00000  0.05    0.50
Q16   1  -0.2263  0.7018  0.7741  11.00000  0.05    0.49
Q17   1   0.1459  0.5968  0.6176  11.00000  0.05    0.48
Q18   1   0.5834  0.2992  0.7148  11.00000  0.05    0.48
Q19   1   0.4043  0.3651  0.4876  11.00000  0.05    0.48
Q20   1   0.7423  0.2449  0.5768  11.00000  0.05    0.47
;
_shelx_res_checksum              72998
_shelx_hkl_file
;
   4   9   6  145.53   29.17
   4  10   7  120.19   35.34
   4   8   1   84.70   22.58
   4  11  -3  112.56   47.59
   4   8   2  150.88   27.39
   4   9   5   87.60   25.94
   4  11   7   53.36   42.31
   3   9  -6   42.13   38.21
   4   9  -2    4.01   27.92
   4  10   6   71.78   32.10
   4   9   4   35.63   24.74
   3   9   9  130.41   33.17
   3   8  -5   67.18   29.05
   3   7   7  197.01   25.45
   4   9   1   27.93   24.22
   3   6   5  121.19   20.77
   4  11   6   31.26   38.82
   4   8   0    8.40   21.31
   4   9   2   32.83   23.97
   4  10   5   23.68   30.50
   3   8   8  196.37   30.52
   4  10  -2  -28.16   37.06
   4  10   0   -3.99   30.55
   2   3  -1  366.40   18.68
   4   9  -1    9.23   27.39
  -1  -1   1   20.87    5.53
   4  10   4   64.96   29.50
   4  11   5   25.07   37.00
   3  10   9   11.54   40.73
   4  10   1   26.94   29.56
   3   6  -3  122.76   19.18
   3   5   0   11.99   11.85
  -1  -1  -3    2.31    4.56
   4  10   3   18.07   29.24
   4  11   0    5.90   39.92
   4  10   2  -11.04   29.15
   3   9  -5   36.42   34.80
   4  11  -2   97.00   44.70
   4  11   4   49.03   36.21
   2   4  -4  408.48   22.17
   3  11   9   11.89   49.93
   4  11   1   37.84   37.38
  -2  -2  -1   -1.37    6.80
   3   7   6  151.08   23.36
   4   8   4   92.90   25.53
   4  11   3   -0.50   35.18
   4  11   2   -8.31   35.12
   4   9   0   -0.26   25.48
   3   9   8   47.28   28.70
  -2  -2   0   37.65    8.50
   4  10  -1    3.97   32.60
   4   8   3   62.88   22.50
   3  10  -5   28.98   41.78
   3   7  -4  170.71   24.62
   3   8   7   91.83   23.39
   2   3   1   35.57    8.75
   4  11  -1   40.63   41.81
   1   3  -6   46.98    8.78
   3  10   8    0.73   34.13
   2   7   9    8.58   22.10
  -2  -2   1   30.50    8.52
   2   6   8   91.86   19.46
  -2  -1   5  870.29   23.34
   1   2   4    0.95    6.30
   3   9   7   76.73   26.28
   4   9   3   36.14   23.25
   3   8   6   84.65   21.37
   2   5  -5  382.03   23.92
   2   7  -7   20.68   24.95
   2   4  -3  836.98   29.32
  -1  -1   2 1306.30   20.73
   3   8  -4  207.83   26.29
   3  10   7  -10.60   31.67
   2   6  -6   83.68   17.59
   1   4   8   27.51   13.18
   3  11   7   14.60   39.20
   3  11  -5  -55.25   52.00
   3   8   5  137.86   25.16
   3   9   6   65.29   24.88
   2   4   3   46.51   11.58
   3   6   0    7.05   12.97
  -2  -2   2   56.99    9.45
   1   4  -7  191.73   16.41
   1   5   9  -21.91   16.21
   1   2  -3  963.71   22.16
   3   9  -4   42.82   31.33
   3   7  -2  129.78   21.65
   3   6   1   23.14   13.96
   3  10   6    1.09   28.80
   3   8   4   24.28   18.73
   3  11   6    1.44   36.75
   2   7   8   53.28   19.39
   3   6   2  131.65   18.83
   2   6   7   90.83   17.31
   3   9   5   15.46   23.86
   2   9   9  -21.34   33.90
   2   4  -2  526.86   24.10
   3  10  -4   14.76   37.12
   3  11  -4  -16.89   47.89
   1   2   3    3.79    5.82
   2   5  -4  296.93   21.42
   3  10   5   22.52   28.48
   3  11   5   -4.30   33.77
   3   7  -1   13.67   15.07
   3   9   4    3.40   22.76
   2   7  -6   -4.72   22.45
   3   9  -3   71.96   27.81
   3  10   4    6.19   27.19
   3   9   3   76.41   22.17
   2   6  -5  132.17   17.76
   3  11   4   44.65   32.00
   2   8   8   26.13   23.42
   1   3  -5  214.27   14.83
   3  11   0   37.54   36.41
   3   7   0    4.88   15.41
   3  10  -3   -6.38   33.72
   2   4  -1  437.17   22.03
   3  10   3   77.87   26.35
   3  11   3   34.88   32.56
  -2  -2   3  254.47   14.69
   3  11  -3   32.84   43.25
   3  11   1  122.21   35.03
   3  11   2   65.00   32.32
   3  10   2   97.05   27.59
   2   6   6  116.65   17.62
   2   7   7   -4.95   18.42
   3   7   1   -2.86   14.72
   2   9   8    6.05   27.76
   3   7   3   15.89   15.37
   2   5   4    1.91   10.05
   3   7   2    7.95   14.90
   3   8  -1  174.47   26.29
   2   8  -6   36.51   27.18
   2  10   8   25.53   34.59
   1   2  -2 5185.94   48.52
   1   6   9   17.07   19.56
   2   5  -3  950.89   34.09
   3  10  -2   23.49   32.25
   3  11  -2   28.21   39.68
   1   4   7    1.20   11.20
   3   8   0    4.69   18.76
   2   4   1    1.92    9.85
   2   5   3   17.39   10.87
   2   7  -5    5.46   18.91
   2   4   2    8.68   10.64
   1   5   8   17.40   14.46
   1   4  -6   89.82   12.27
   2   6  -4   85.99   15.69
   3   8   1   10.20   17.94
   2   6   5    6.25   12.75
   1   5  -7  113.85   15.30
  -1  -1   3  650.25   14.57
   3  10  -1  120.15   29.04
   2  11   7  142.96   39.66
   3  11  -1   20.92   37.02
   3   8   3   11.89   17.78
   3   8   2   53.26   17.49
   2   7   6   39.32   16.94
   2  10   7  116.68   31.42
   3   9   0  123.05   29.39
   3  10   0  226.92   33.76
   2   5  -2 2664.93   55.34
   1   7   9   -3.73   23.14
   3   9   1  144.02   28.46
   2   8  -5   34.79   23.29
   3   9   2  125.68   26.17
   1   2  -1 7303.23   55.57
   3  10   1   78.59   30.23
   2   8   6    9.60   19.34
   2  11   6  181.95   35.21
   2  11  -5   26.12   46.50
   2   9  -5   42.00   29.72
   2  10  -5   44.70   36.14
   1   3  -4  277.79   16.02
  -2  -2   4 1413.45   30.25
   2  10   6  290.35   35.30
   2   7   5   15.93   15.85
   2   9   6   11.98   24.14
   2   7  -4  120.89   19.33
   2   6  -3  295.72   23.64
   2  11   5   26.84   33.97
   1   6   8    8.71   18.19
   1   6  -7   76.14   18.42
   2   8   5   65.30   20.06
   2  10   5  174.62   32.16
   2   7   4  150.94   23.03
   2  11  -4   76.22   43.28
   2   9   5  150.99   27.99
   1   4   6   51.78   10.70
   2  11   4  111.94   32.63
   1  11   8   43.59   49.35
   2   5   0   14.72   11.49
   2  11  -1   10.86   36.06
   2  10  -4   55.18   34.04
   2   9  -4   -6.22   25.96
   1   5   7   17.31   13.36
   2   6  -2 1062.56   39.32
   2  11   3  105.75   31.43
   2  10   4   93.21   28.99
   2   7  -3  114.31   18.82
   2   8   4   49.51   21.48
   1   4  -5   22.50   10.21
   2  11   0    4.80   35.52
   1   5  -6   68.28   13.35
   0   3   8  -14.25   10.23
   2   5   1    1.76   10.72
   1   7   8   72.10   20.95
   2  11   2   60.72   30.70
   2   9   4  185.33   31.04
   2  11   1  -10.78   32.23
   1  10   8   97.47   40.04
   1   7  -7  215.28   23.52
   2  10   3   65.96   26.10
   2  11  -3   24.43   39.24
   1   9   8  167.33   32.23
   2   9   3  141.85   28.49
   2  10   2  141.79   31.77
   2   8  -3   49.35   20.66
   2  10   1   76.23   26.05
   0   3  -8  632.18   21.96
  -2  -3  -1   20.26    8.45
   1   8  -7  112.47   28.57
   2  10  -3    9.35   32.55
   1   9  -7  101.99   35.43
   2   9  -3   -8.10   24.28
   1  11   7   -6.38   46.17
   1   3  -3  507.46   19.80
   2   7  -2   34.80   16.51
   2  11  -2   37.93   37.44
   1   6   7    2.15   16.20
   1  10   7   52.01   34.83
   2  10  -2   -7.29   29.34
   2   8  -2   47.94   18.97
   2   9  -2    3.34   23.41
   1  11   6   22.42   41.65
   1   5   6   25.91   11.63
   1   9   7  145.84   28.61
   1  10  -6   15.20   39.54
   2  10  -1   26.03   27.69
   1   7  -6  188.14   23.04
   1   5  -5   55.10   13.01
   1   4  -4  157.04   15.20
   2   8  -1   39.59   18.21
   1   9  -6  183.04   31.81
   2   9  -1   64.29   21.99
   1   8  -6  260.85   28.33
   1  10   6   33.07   31.62
   1  11   5    0.57   36.15
  -2  -2   5 1083.25   27.08
   1  11  -5   66.93   45.27
   2  10   0   13.55   26.45
   1   3  -2 1006.65   26.85
   2   8   0  182.17   26.33
   2   9   0   70.43   22.87
   1   9   6  196.09   31.33
   1  11   4  -29.51   34.21
   2   9   1  145.51   26.74
   1  10  -5  215.34   35.47
   0   4  -8  358.81   22.60
   1  10   5   -9.77   29.83
  -1  -1   4 1266.25   19.50
   1   6  -5  145.46   18.65
   1  11  -4   29.88   41.36
   1  11  -1   98.95   35.53
   1   9  -5  174.63   28.97
   1  11   2   -8.21   31.43
   1  11   0   90.01   33.72
   1   9   5   90.26   24.42
   1   7  -5  166.97   22.25
   1  11   1   51.45   30.98
   1  10   4   32.34   27.83
   1   8  -5  158.49   25.03
   0   1  -5    2.96    3.44
   1   3  -1 9879.21   76.62
   1   4  -3  214.02   17.32
   1   5  -4   39.74   11.88
   0   9   8   98.05   34.95
   1   8   5  173.18   25.75
   1  10  -4  238.67   33.19
   0   5  -8  189.69   22.40
   1  10   3   -6.07   26.98
   1  11  -3   54.70   38.13
  -1  -2   0 2756.30   33.84
   0   6  -8   96.04   21.71
   1   9   4  146.28   27.27
   0   3   7   45.48    9.66
   1  10   2   -5.47   25.09
   0   7  -8   10.47   25.07
   1  10   0   19.16   26.67
   0   8   8   87.45   26.99
  -1  -2  -3    8.21    6.09
   1  10   1    1.13   26.45
   0  10   7    8.01   39.49
   0   3  -7  409.61   19.18
   1   9  -4  205.80   28.79
  -1  -2   1 7410.14   56.50
   0  11   6   23.62   43.73
   0  10  -7   53.96   43.71
   1   6  -4   27.21   13.46
   1   9   3   59.86   22.53
   1  11  -2  127.24   37.40
   0   7   8  140.80   24.44
   1  10  -3   37.86   30.49
   1   8  -4  195.60   26.00
   1   7  -4  111.33   17.99
   1   9   2    0.87   20.59
   0  11   5   42.53   40.92
   1   9   1   51.20   23.85
   1   4  -2  304.79   19.11
   0   9   7   -2.26   30.90
   1   8   3  161.58   26.43
   1   5  -3   68.60   13.88
   0   2  -6  428.86   14.60
   0   9  -7    8.49   34.83
   0  10   6   -9.10   33.94
   1   9  -3  108.78   23.79
   1  10  -2   76.59   28.14
   1   8   2  100.14   22.33
  -1  -2   2 5288.23   48.42
   0  11   4   86.94   37.95
   0  10  -6   19.26   40.39
   1   8  -3  181.50   25.36
   0   8  -7   21.85   28.75
   0   8   7   36.72   25.16
   1   6  -3   -0.31   12.65
   0   4  -7  667.30   31.62
   1   7  -3   48.04   16.65
   1  10  -1   57.33   27.15
   1   9  -2   75.04   22.62
   0  11   3  102.91   36.54
   0  10   5   71.45   31.92
   1   4  -1 1099.76   31.44
   0  11  -2    5.94   39.75
   0   7  -7  148.28   23.06
   0   9   6   13.11   28.13
   0   5  -7  187.55   20.93
   0   6  -7  118.38   19.52
   1   5  -2  401.20   23.60
   0  11   2   84.62   35.55
   0  11  -1   39.15   38.25
   1   8  -2   -6.41   18.31
   0   9  -6   30.90   32.69
   0  11   1   44.25   35.47
   0  11   0  144.32   36.30
   1   9  -1    6.29   22.49
   0  11  -4   37.81   40.30
  -1  -2  -4    2.32    5.89
   0  10   4   67.87   30.85
   1   6  -2    2.42   11.97
   0  10  -5   16.29   37.08
   1   7  -2   -0.48   15.03
  -1  10   7   10.74   46.26
   1   9   0   36.99   21.50
   0   8   6   41.11   23.87
   0   9   5    2.83   26.50
   1   8  -1    9.31   17.84
   1   5  -1   18.27   11.20
   0  10   3   35.71   29.70
   0   8  -6   17.45   25.48
   0  11  -3    5.88   39.96
   1   7  -1   24.67   14.27
   0   3  -6   59.80   11.26
   0  10   2   61.35   28.68
   1   6  -1   64.52   14.62
   1   8   0   20.45   17.70
   0  10  -1  167.56   33.07
   0   7   6  133.30   23.40
   0   9  -5   13.64   29.78
   0  10  -4    3.59   34.79
   0  10   1   79.32   28.72
   0  10   0  183.27   33.18
   0   9   4   71.45   25.33
   1   8   1   29.85   17.00
   1   5   0  111.96   15.82
   0   7  -6  219.31   25.30
   1   7   0   55.12   16.73
   0   8   5   10.69   21.81
  -1  -2   3  905.67   21.72
  -1  10  -7   95.80   49.15
   0   6  -6  714.53   35.34
   0   4  -6  271.16   20.06
   0   5  -6  386.60   24.77
   0   9   3   15.36   23.35
  -1  10   6  125.91   42.95
   0  10  -3   46.59   32.86
  -1   9   7   33.68   37.80
   0   8  -5   88.26   23.73
   0   9   2   26.07   24.07
   0   9  -4    6.58   26.93
   0   8   4  -30.54   20.81
   0   7   5   35.59   18.23
   0   2  -5  254.71   12.82
  -1  10   5  172.43   37.86
   0  10  -2   86.53   29.56
  -1  10  -6  142.55   43.07
  -1   9  -7  136.96   38.69
   0   7  -5  241.21   27.15
  -1   8   7   24.17   29.05
   0   8   3    2.52   19.40
  -1   9   6  105.54   31.91
  -1   6   8   34.14   22.92
  -1  10   4  215.30   34.93
   0   9  -3  124.91   25.50
   0   8  -4  304.99   32.33
  -1   7  -8  108.01   29.39
   0   7   4   39.78   17.17
   0   8   2   33.66   18.99
   0   6  -5  746.65   36.54
  -1  10   3   88.93   33.27
  -1  -2  -5   26.31    7.26
  -1   9   5  271.82   34.78
   0   3  -5   51.81   10.44
  -1   5   8  106.82   18.99
   0   5  -5 1355.34   40.26
   0   9  -2  207.98   32.77
   0   4  -5  370.05   21.20
  -1  10  -5    4.71   41.08
  -1   7   7   -6.67   24.83
  -1  10   2   26.20   32.25
  -1   8  -7  203.11   30.60
  -1   8   6   60.34   27.67
  -1  10  -2   65.23   35.91
   0   7   3   90.81   20.34
  -1   9  -6  117.95   35.88
   0   7  -4  978.98   47.08
  -1   3  -9   13.31   13.83
   0   8  -3  262.23   31.13
  -1  10   1   33.46   32.42
  -1   6  -8   59.65   24.27
  -1  10  -1  -10.03   34.98
   0   9  -1  182.94   31.63
  -1  10   0    6.44   32.27
   0   7   2  145.68   24.08
  -1  10  -4   74.58   37.78
  -1  -3   1 9782.92   78.42
   0   6  -4  525.41   32.63
   0   8  -2  389.87   36.50
  -2   9  -8   -7.08   48.97
  -1   6   7    0.82   20.48
   0   6   3    8.97   13.33
  -1   8   5  262.39   32.80
  -1   7  -7  182.36   24.70
   0   7  -3  546.36   36.49
  -2   9   6   23.59   42.34
  -1   9  -5   21.30   32.64
  -1  -2   4  583.94   17.97
  -2  10   4   22.93   43.62
  -1   7   6   92.50   22.67
  -1  10  -3   71.88   35.18
  -1   8  -6   49.38   28.47
   0   5  -4  682.69   30.72
  -2   8   7  110.60   38.34
  -1   9   2  146.28   31.08
   0   2  -4  206.99   12.87
  -1  -3   2  953.36   27.66
   0   6   2   45.84   14.69
   0   4  -4  705.32   26.15
  -1   9   1   77.82   26.74
   0   3  -4  247.31   16.48
  -1   9  -1   55.91   27.02
  -2  10   3   30.78   41.36
  -1   9   0  123.05   29.86
   0   7  -2  168.02   24.22
   0   6  -3  836.89   40.14
  -1   5   7  119.20   20.39
  -1   9  -4    5.67   30.23
  -2   9   5   52.63   36.65
  -1   6  -7   -9.09   21.68
  -2  10   2   -6.21   40.19
  -2   9  -7   75.76   45.76
  -2  10  -3  301.14   44.42
  -2   8  -8  201.44   41.43
  -1   4  -8    9.35   15.79
   0   7  -1  410.23   30.76
  -2  10   1   40.86   38.87
  -2  10  -2  164.95   41.67
  -1   6   6    1.79   19.25
  -1   7  -6  111.67   23.35
  -2  10   0   18.91   39.31
  -2  10  -1   11.08   41.48
  -2   8   6  244.19   37.26
   0   5  -3  750.72   33.96
  -1   9  -3  -16.69   27.92
  -1  -3   3  486.51   20.87
   0   6  -2  308.78   25.62
  -2   9   4   20.20   35.53
   0   7   0  115.24   21.39
  -2   7   7  245.49   34.89
  -1   8   2  217.23   32.86
   0   7   1   27.94   17.15
  -1   5  -7   -3.07   17.35
  -1   9  -2   14.30   26.59
   0   4  -3  144.48   15.55
  -2   9  -6   85.83   42.13
  -2  10  -4  134.06   42.95
  -1   7   4   80.25   22.50
  -2   9   3   13.31   34.23
   0   6  -1   82.29   16.17
  -1   3  -8  251.27   18.09
   0   3  -3   87.02   12.37
  -2   6  -9  225.61   33.14
   0   2  -3    2.15    5.93
  -2   8   5  150.98   33.25
   0   5  -2  461.00   26.46
  -2   8  -7  235.82   37.46
  -3   9   5   92.23   52.12
  -1   6  -6   -0.75   19.51
  -1   7  -5   -1.68   22.17
  -1   6   5   25.21   18.13
  -2   7  -8  320.55   40.18
  -1   5   6   40.73   16.71
   0   6   0   76.51   16.75
  -2   9   2   64.08   33.36
  -1   7   3  169.01   27.17
  -1   8  -3   26.50   23.54
  -2   9   1  108.21   32.71
  -2   9  -5  113.18   38.70
  -2   9  -2   64.56   34.12
  -2   9   0  126.42   32.42
  -2   9  -1   -7.88   32.83
  -2   6   7  135.94   26.97
   0   5  -1   27.07   12.63
   0   4  -2   15.76    9.99
  -2   8   4  154.61   33.82
  -3   8   6   11.31   46.53
  -3   9   4   72.32   48.40
  -1   4  -7   52.11   15.09
  -1   8  -2    5.08   22.24
  -1   6   4   29.37   17.81
  -2   8  -6  226.94   33.17
  -2   9  -4  340.77   39.90
   0   5   0    6.18   11.79
  -1   5  -6  120.45   20.97
   0   3  -2    2.95    8.78
  -1  -3   4  227.89   16.72
  -1   8  -1   59.61   24.60
  -3   9   3  143.64   43.23
  -2   8   3  107.20   28.40
  -1   4   6   87.29   15.67
  -2   5  -9   61.35   26.10
  -2   7  -7  371.85   41.54
  -1   5   5   20.68   15.05
   0   2  -2  936.60   21.40
  -2   6  -8  136.49   28.56
   0   4  -1   36.96   12.41
   0   1  -2   15.47    5.23
  -3   8   5   -1.69   42.56
  -2   9  -3  196.83   35.79
  -1   7  -3    6.59   19.44
  -2   8   2   10.58   28.22
  -3   9   2  162.82   42.14
  -3   7  -9  -13.47   45.81
  -2   8  -5  164.84   31.17
  -2   8   1    4.79   27.54
   0   4   0   20.01   11.05
  -3   9   1  190.71   40.91
  -3   9  -3  178.66   45.83
  -2   5   7  128.90   23.82
  -2   8   0  102.54   27.44
  -2   8  -1  259.44   37.09
  -3   9  -2   86.13   43.14
   0   3  -1  244.21   15.76
  -1   7  -2  150.00   27.88
  -1   3  -7  440.41   23.85
  -3   9  -1  244.36   41.12
  -1   6  -4  112.40   21.54
  -3   7   6   50.01   39.09
  -3   8   4   17.55   39.14
  -1   4  -6  251.08   25.69
  -1   5   4   37.56   14.82
  -2   7  -6  400.79   41.66
  -3   9  -5   10.41   45.26
  -1   5  -5  115.88   19.81
  -3   8  -7   13.91   46.63
  -2   8  -4  164.07   31.25
  -1  -3  -6  102.32   12.26
  -2   6  -7  232.99   35.22
   0   2  -1 1524.33   29.86
  -2   7   3   65.81   25.04
  -1   4   5   31.98   12.96
  -2   5  -8   24.28   23.24
  -3   8   3   77.90   35.92
   0   1  -1 2046.39   20.59
  -2   4  -9  105.56   23.64
  -3   9  -4   95.31   47.69
  -3   7  -8   70.47   42.13
  -1   6  -3  164.37   23.27
  -2   8  -3  143.17   28.61
  -3   7   5    6.76   34.63
  -1   5   3   67.49   16.24
  -3   6  -9   -0.89   39.73
  -2   7   2   40.23   22.87
  -3   8   2  126.98   34.81
  -2   7  -5  317.17   36.91
  -3   8  -6   37.37   42.89
  -4   8   4   87.68   50.46
  -2   8  -2  248.75   36.04
  -2   7   1   67.46   24.60
  -1   5  -4  610.37   33.36
  -1   6  -2  476.29   33.21
  -3   8   1  134.46   33.54
  -2   4   7   -0.09   19.43
   0   2   0   21.12    8.03
  -1  -3   5  183.16   14.60
  -3   8   0  241.70   38.77
  -1   4  -5  916.12   40.52
  -3   6   6  128.11   31.44
  -2   6  -6  570.68   47.60
  -4   8   3  169.65   45.39
  -3   7   4   -9.57   32.30
  -4   8  -6  171.45   51.79
  -1   4   4   41.43   13.75
  -4   7  -9   71.69   57.58
  -3   8  -5   40.63   39.93
  -2   7  -4  313.87   34.53
  -1   3  -6  234.67   19.26
  -2   5  -7  122.97   24.82
  -4   7   5  129.33   46.21
  -4   8   2  263.07   42.01
  -4   8  -5   90.95   49.78
  -1   5  -3 1744.86   53.72
  -3   7   3  -23.20   30.61
  -3   6  -8    8.63   34.05
  -3   8  -4  103.45   35.90
  -2   7  -3  194.46   30.69
  -2   4  -8  241.20   25.56
  -4   8   1  100.07   41.20
  -4   8  -4   -3.15   47.74
  -2   3  -9  520.29   30.85
  -3   6   5  127.36   29.20
  -2   6  -5  272.98   33.61
  -3   5  -9  -12.60   32.58
  -3   7  -6   49.17   34.62
  -4   8   0   66.78   40.35
  -4   8  -3  -34.95   46.36
  -3   7   2  176.70   30.95
  -3   8  -3  339.28   42.76
  -4   7   4  285.96   43.24
  -2   7  -2  215.86   29.65
  -4   7  -8  111.72   49.45
  -4   8  -1   38.29   40.39
  -4   8  -2   -0.22   42.97
  -1   4  -4 1607.76   50.63
  -1   5  -2 1162.14   43.80
  -2   7  -1   41.51   23.04
  -3   7   1  164.41   32.40
  -2   3   7   18.08   16.60
  -2   7   0   20.03   21.85
  -2   5  -6  268.51   33.35
  -3   7   0   -1.79   27.36
  -1   3  -5 1168.63   41.41
  -3   7  -1  199.86   35.46
  -4   7   3  339.62   43.23
  -3   7  -5   89.48   30.86
  -2   6  -4   33.95   20.48
  -4   6  -9  152.52   47.96
  -3   6   4  103.49   27.49
  -3   6  -7  246.64   35.31
  -4   7  -6  213.88   45.23
  -4   7  -7  169.84   45.46
  -1   3   4   98.27   14.01
  -1   4   1   38.23   14.27
  -4   6   5   91.16   37.29
  -2   4  -7  355.04   30.33
  -4   7   2  264.33   42.03
  -1   4  -3 2618.51   61.98
  -4   7  -5   77.82   41.67
  -3   7  -4  324.03   37.63
  -3   5  -8   77.32   29.42
  -2   6  -3  105.11   22.21
  -3   6   3    1.07   25.81
  -1   2  -6  516.30   22.02
  -4   7   1  270.78   39.66
  -4   7  -4   -3.52   37.04
  -2   5  -5  140.70   26.38
  -5   6   5  197.46   53.52
  -3   6  -6  274.22   35.83
  -1  -3   6   44.04   15.07
  -3   5   5  268.49   35.00
  -2   3  -8  378.38   27.92
  -4   7   0  301.35   42.04
  -5   7   2  149.05   48.91
  -2   6  -2    9.03   19.12
  -4   7  -3   43.88   36.59
  -4   6  -8   65.05   42.38
   0  -2   1 1555.11   31.01
  -5   6  -9   88.74   62.12
  -4   6   4  229.60   36.34
  -3   6   2  236.10   31.66
  -4   7  -1   68.25   34.61
  -4   5   6    5.19   37.24
  -4   7  -2  108.94   34.93
  -3   4  -9  103.89   28.44
  -1   4  -2 1260.76   40.09
  -1   3  -4 1130.32   41.65
   0  -2   0   20.80    8.56
  -1   3   3   18.02   11.59
  -2   6  -1   27.12   18.50
  -2   2  -9  140.01   17.67
  -5   7   1   34.33   45.67
  -5   7  -5  185.51   49.70
  -2   6   0  209.02   28.20
  -2   3   6    6.09   15.53
  -2   4  -6   96.01   20.46
  -5   6   4  157.38   48.61
  -5   7   0   65.97   43.95
  -3   6  -5  155.40   28.32
  -5   7  -4  142.35   50.17
  -3   6   0  212.54   32.60
  -4   5  -9  195.28   39.64
  -2   5  -4    5.81   16.80
  -4   6   3  358.68   42.75
  -3   5  -7  468.97   41.56
  -5   6  -8  239.79   56.36
  -5   7  -1   99.94   42.38
  -5   7  -3  261.92   45.36
  -3   5   4  178.45   30.23
  -4   6  -6  101.39   35.62
  -5   7  -2  186.78   44.84
   0  -3   1  260.93   16.55
  -4   6  -7  154.16   37.81
  -2   2   7   46.67   15.37
   0  -1   2   18.30    5.81
  -4   5   5   -8.78   31.23
  -4   6   2  304.22   38.00
  -3   6  -4  480.65   42.58
  -5   6   3  147.94   41.90
  -4   6  -5   -5.49   32.99
  -4   4 -10   76.47   40.39
  -5   6  -7  226.30   49.23
  -3   4  -8  467.76   38.50
  -1   3  -3 1761.97   47.51
  -1   2  -5 1224.27   33.42
  -3   5   3    5.15   21.86
  -2   3  -7  130.54   18.65
  -4   6  -4   52.16   31.69
  -5   5   5  291.23   45.97
  -3   5  -6  884.35   51.98
  -5   6   2  167.03   41.20
   0  -3   3   66.30   12.99
  -2   4  -5   10.95   15.18
  -4   5  -8   64.69   34.74
  -5   6  -6  187.08   46.49
  -4   6  -3  178.62   29.66
  -2   5  -2   -4.99   15.13
   0  -2   3    1.97    7.24
  -4   5   4   41.15   29.35
  -4   4   6   78.96   30.26
  -3   5   2    0.69   20.69
  -2   3   5   22.96   14.24
  -3   6  -2  173.36   28.67
  -5   6   1   27.28   38.15
  -2   5  -1  105.16   19.09
  -5   6  -5  155.27   42.43
  -3   6  -1  149.43   29.16
  -5   5 -10  133.09   57.39
  -3   3  -9  982.43   47.39
  -1   3  -2 2015.71   46.82
  -3   5   1   57.53   19.96
  -5   6   0    7.97   38.73
  -5   5   4  207.29   38.99
  -5   6  -4  223.18   39.30
  -1  -3  -8   52.41   14.94
  -3   5  -5  515.01   41.44
  -6   5   4   76.23   60.78
  -2   2  -8   57.34   14.88
  -4   4  -9   90.22   35.31
  -4   5   3  215.97   33.07
  -5   6  -1   62.75   36.93
  -5   5  -8  235.32   46.39
  -5   6  -3   43.88   37.50
  -5   6  -2   51.98   36.80
  -3   4  -7  739.06   46.09
  -2   4  -4   22.82   13.82
  -4   5  -7   -3.61   32.27
  -2   3  -6   11.47   14.38
  -3   4   4  141.11   24.91
  -1   2  -4 1922.69   41.11
  -4   4   5   39.13   26.76
  -5   5   3  274.57   40.18
   0  -3   4  221.69   17.98
  -2   2   6    3.45   13.95
  -3   5  -4  383.37   36.25
  -6   5   3  -19.20   56.00
  -5   5  -9  260.87   52.08
  -5   5  -7  165.46   41.63
  -4   5  -5    9.94   27.34
  -6   5  -8  105.96   56.01
  -2   1  -9   25.57   14.30
  -4   3 -10   60.55   33.77
  -2   4  -3   17.47   12.99
  -1  -3   7   16.49   17.22
  -5   4   5  133.99   38.60
  -4   5  -6   63.60   28.55
  -4   5  -4  103.82   27.00
  -5   5   2  220.56   38.32
  -3   3  -8  405.18   33.47
  -3   4   3   82.57   20.32
  -6   5   2    4.33   47.28
  -5   5  -6  199.85   37.95
  -3   4  -6  890.65   46.91
  -4   4  -8   -0.06   28.61
  -6   4 -10    0.93   59.25
  -6   5  -7   25.51   50.82
  -4   5  -3  180.46   28.47
  -4   4   4   -3.40   24.72
  -2   4  -2   76.25   16.92
  -5   5   1  124.41   32.70
  -4   3   6   76.16   25.40
  -5   5  -5  259.37   39.55
   0  -2   4  163.58   12.77
  -6   5   1  107.59   44.51
  -5   4 -10  183.75   49.76
  -1   2   2   60.11   10.53
  -6   5  -6  173.13   46.83
  -1   2  -3 1007.92   30.81
  -3   4   2  155.34   23.79
  -2   2  -7   73.28   14.37
  -5   5   0   92.25   30.70
  -6   4   4  162.66   49.09
  -5   5  -4  138.21   31.01
  -5   4   4  256.07   37.93
  -6   5   0  206.99   41.98
  -6   5  -5  198.66   44.47
  -5   5  -1  -10.62   30.10
  -6   4  -9  141.52   53.38
  -5   5  -3   18.45   30.02
  -5   5  -2   -4.16   29.67
  -5   4  -8  178.85   37.35
  -3   4  -5 1473.67   57.81
  -4   3  -9   52.88   30.08
  -3   4   1  134.74   21.68
  -4   4   3  136.60   26.28
  -6   5  -1  146.29   39.83
  -6   5  -4  198.79   41.80
  -4   4  -7   85.75   25.86
  -6   5  -2  220.22   40.58
  -6   5  -3  198.09   40.33
  -3   2  -9  415.10   31.11
  -3   4   0    1.71   15.47
  -2   2   5   36.08   11.94
  -3   3  -7  270.09   27.77
   0  -3   5   22.00   12.81
  -6   4   3  124.99   44.18
  -5   4  -9  262.48   43.06
  -2   3  -4   66.50   14.99
  -6   4  -8  168.83   47.16
  -5   4  -7  108.04   32.68
  -4   3   5  112.88   25.64
  -3   4  -4  752.98   40.37
  -1   2  -2 1838.99   38.01
  -1  -2   7   20.89   10.17
   3   6   6  363.77   30.03
   2   4   6  190.19   18.08
  -2  -2  -3  518.99   21.35
   2   4   5  495.54   24.27
   3   5   1  142.00   17.54
   3   5   3  268.95   22.64
   2   3   0  882.60   27.79
  -2  -2  -4  345.19   18.39
   3   5   2  267.91   21.87
   2   5   7  181.22   19.97
  -2  -2  -2   95.70   11.02
   2   3   2  328.82   17.98
   3   6  -2  217.64   22.92
   3   7   5  290.90   28.46
   2   4   4  273.40   19.27
   3   7  -3  498.74   35.80
   3   6  -1  231.89   23.22
   2   5   6  379.57   24.61
  -2  -2  -5  733.67   25.00
   3   6   3  264.84   24.10
   3   8  -3  453.34   38.20
   1   3   6   82.07   11.04
   2   5   5  110.94   16.04
  -1  -1  -4  504.86   13.76
   3   8  -2  620.84   41.77
  -2  -1  -8  639.95   21.03
   3   9  -2  268.80   32.23
   1   2   2   98.51    9.41
   2   4   0  405.34   22.11
  -2  -2  -6 2168.33   39.79
   3   9  -1  325.48   35.64
   1   3   5   99.81   11.15
   2   6   4  257.83   23.29
  -2  -1   6  499.69   18.82
   2   5  -1 2277.65   52.36
   2   6   3  450.69   28.70
   0   2   7   52.88    6.89
   1   2   0 2606.10   34.35
   1   2   1  114.54    9.22
   1   3   4  865.88   25.46
   2   7   3  717.70   38.86
   2   5   2  136.71   17.03
   2   8   3  216.06   27.28
   1   8   8  326.82   33.07
  -2  -2  -7 1316.03   30.31
  -1  -1  -5 1193.39   19.69
   2   6  -1 1857.82   52.90
   2   9   2  247.67   33.24
   2   6   0  924.52   37.97
   1   3   3  508.15   19.35
   1   4   5  243.52   16.79
   2   7  -1  206.65   24.05
   2   6   1  423.44   28.07
   1   7   7  400.62   33.07
   2   6   2  167.23   20.21
   1   8   7  810.28   45.68
   2   7   0  704.40   37.52
   1   3   2  393.60   17.31
   2   7   1  557.15   34.38
   2   7   2  416.48   31.16
   1   6   6  286.25   23.87
  -1  -2  -2  150.20   10.11
   2   8   1  428.26   34.69
   1   4   4 1726.27   41.32
  -2  -1  -9  138.38   11.34
   2   8   2  432.63   35.41
   1   8   6  234.80   28.21
   1   7   6  535.41   35.51
   0   4   8  334.60   20.83
   1   5   5  173.21   18.55
   1   6   5  437.96   28.32
   1   4   3 1302.47   35.92
   1   7   5  619.60   36.31
   1   5   4  962.70   35.43
   0   5   8 1185.36   39.92
   0   2   6  103.06    8.89
   1   3   0 9207.73   76.88
   1   4   2 1350.30   35.94
   1   8   4  378.54   34.38
  -2  -2  -8  896.38   25.08
   0   6   8  415.93   29.93
   1   6   4  349.45   26.36
   1   7   4  212.61   25.44
   1   3   1  828.25   24.13
   1   5   3 1265.44   40.85
   1   7   3  313.19   27.75
   1   6   3 1516.22   48.43
   1   5   2  875.72   34.34
   1   6   2  943.42   38.96
   0   4   7  745.43   28.89
   0   7   7  220.76   26.73
   0   5   7 1118.13   39.82
   0   6   7  360.31   29.81
  -2  -2   6  639.10   23.75
   1   4   0  947.41   30.55
   1   4   1 2489.26   47.37
   0   3   6  806.24   25.44
  -1  -1  -6  344.92   10.99
   0   1   4 2075.06   20.28
   1   6   0  391.24   26.58
   1   5   1 1267.48   39.70
   1   7   1  220.95   25.16
   0   6   6  292.15   26.26
   1   6   1  263.38   24.27
   0   4   6 1163.07   35.26
   0   2   5 1180.00   23.86
   0   5   6  287.13   22.69
   0   9   1  306.72   36.46
   0   9   0  409.99   39.03
   0   1  -4   97.42    6.02
  -1  -3  -2  430.36   18.35
   0   6   5  448.46   30.13
   0   8   1  345.81   33.69
   0   5   5  463.48   27.52
   0   3   5  648.80   23.27
  -1   2   8 1502.61   27.22
   0   4   5  807.01   30.02
  -1   2  -9  340.06   15.23
  -1  -1   5 1333.62   21.24
  -1  -3  -3  526.38   20.68
   0   6   4  190.41   22.49
  -1   4   8  280.75   21.06
  -1   3   8  679.78   25.44
  -1   9   4  489.13   45.21
  -1  -3   0 8639.25   79.71
   0   5   4  445.12   27.39
  -1   9   3  277.12   36.43
  -1  -3  -1  911.08   25.44
   0   2   4 3264.37   39.72
   0   8  -1  401.31   36.17
   0   4   4  906.47   31.80
   0   8   0  397.29   35.92
   0   3   4 2409.61   43.11
  -1  -3  -4  868.03   26.79
  -1   8   4  284.29   35.66
   0   5   3  935.10   37.75
   0   1   3  571.90   11.91
  -1   7   5  306.45   32.78
  -1   8   3  251.71   33.77
   0   5   2  411.37   26.38
   0   4   3 2161.12   48.84
   0   1  -3  119.95    6.89
  -1   4   7  454.61   27.63
  -1   8   1  465.00   41.28
   0   3   3 3917.25   55.20
  -1   8   0  582.18   45.32
   0   4   2 1060.62   34.91
   0   2   3  613.92   18.78
   0   4   1  603.59   27.40
  -1  -2  -6  545.36   18.08
  -1   3   7  236.94   17.30
  -1  -3  -5  126.73   12.89
   0   6   1  228.27   23.41
  -2   7   6  389.82   41.76
   0   3   2  907.17   27.64
  -1   7   2  484.03   38.32
  -1   2  -8  501.86   20.37
  -1   7   1  714.89   44.40
   0   3   1  494.69   21.20
  -1   2   7  723.36   22.52
   0   2   2 1517.97   29.31
   0   1   2 4904.93   34.97
  -2   7   5  592.12   47.33
  -1   6   3  252.56   26.66
   0   2   1 1087.90   25.02
  -2   6   6  298.11   34.98
  -1   6   2  893.46   44.56
  -3   9   0  389.49   48.93
  -2   7   4  570.17   44.76
  -1   1  -8  863.31   17.48
  -1   1   7  972.63   16.36
  -1   6   1 1421.67   53.90
   0   1   1 4017.71   32.39
  -1   7  -1  494.24   38.84
  -1   3   6  384.41   22.23
   0   3   0  151.54   13.82
  -1   7   0  764.10   45.49
  -2   6   5 1015.46   53.88
  -2   5   6  276.42   30.53
  -1   5   2  215.80   22.96
  -2   6   4  529.53   41.54
  -3   8  -2  584.91   52.17
  -3   8  -1  351.83   42.78
  -1   2  -7  795.00   27.24
  -1   6  -1  729.75   41.45
  -1   5   1 1251.73   46.08
  -1  -1  -7  213.14    8.88
  -1   6   0  973.46   45.72
  -1   2   6  483.30   20.20
  -2   6   3  316.93   32.50
  -1   3   5  608.28   27.00
  -2   5   5  356.40   31.66
  -1   4   3  443.51   27.55
  -1  -2  -7  425.27   17.29
  -2   6   2  558.98   40.67
  -2   4   6  228.96   24.35
  -2   6   1  377.59   33.59
   0  -1  -1 4076.81   33.58
  -1   4   2  305.98   23.49
  -2   5   4  302.95   29.27
  -1  -3  -7  150.22   15.65
  -3   5   6  360.48   39.24
  -1   5  -1  872.94   39.19
   0  -2  -1 1095.38   25.40
  -1   5   0 1141.55   44.08
  -1  -2   6  141.01   11.30
  -2   5   3  833.41   43.77
   0  -3  -1  530.55   22.54
  -2   4   5  209.25   24.93
  -1   1  -7 1935.64   32.02
   0  -2  -2 1594.79   30.94
  -3   7  -3  580.45   49.93
  -1  -1   6  379.97   12.09
  -1   2   5  503.19   21.38
  -2   5   2 1074.99   47.83
   0  -3  -2 1037.72   31.08
  -3   7  -2 1089.10   64.21
  -1   1   6 1052.19   22.60
  -3   6   1  309.89   35.59
  -2   5   1 1682.44   57.83
  -1   4  -1 1078.85   39.80
   0  -1  -2 5252.94   37.52
  -3   4   6  679.08   44.62
  -2   4   4  297.59   26.69
  -1   4   0  402.59   25.89
   0  -3   0  158.63   14.21
  -1   3   2  248.66   19.68
   0  -3  -3 4343.05   61.58
  -3   3   7  223.36   26.48
   0  -2  -3  676.82   20.85
  -1   3   1  351.52   21.24
  -4   6   1  645.37   51.37
  -2   4   3  932.99   41.20
  -3   6  -3  535.70   43.46
  -4   6   0  586.94   49.77
  -1   2   4 1380.09   33.82
  -4   6  -1  363.13   41.63
  -3   4   5  864.51   47.87
  -4   6  -2  459.12   45.41
  -2   4   2 1417.72   49.01
  -2   5   0 1117.40   48.37
   0  -3  -4 2616.16   48.84
  -3   5   0  486.23   37.32
  -2   4   1 1980.45   57.18
  -3   3   6  631.29   39.68
  -1   3  -1  791.78   30.79
  -4   5   2  278.13   36.72
  -1   1  -6 1691.83   32.16
  -1   2   3 2155.67   41.36
  -2   3   4  271.08   22.98
  -1   3   0  378.78   21.93
  -4   5   1  335.63   36.04
  -3   5  -3  598.05   42.30
   0  -2  -4 3640.55   45.89
  -1   1   5 1279.58   26.13
  -4   5   0  618.88   46.42
  -3   2   7  187.05   24.34
  -4   5  -1 1441.96   65.01
  -4   5  -2  963.22   56.53
  -3   5  -2  360.71   33.98
  -2   1   7  256.68   17.93
   0  -1  -3  606.05   13.65
  -2   3   3  874.91   35.60
  -3   3   5  835.26   43.11
  -3   5  -1  686.44   43.68
  -2   4  -1  514.76   31.41
   0  -1   3  107.42    7.61
   0  -3  -5  711.69   26.80
  -2   4   0 1269.58   46.06
  -1   2   1  153.89   12.88
  -2   3   2 2219.27   54.20
  -1  -2  -8   96.23    9.36
  -5   4   3  347.19   43.03
  -4   4   2  328.97   34.68
  -3   3   4  313.90   28.26
  -2   3   1 2173.69   52.71
  -1   0  -7  610.61   14.63
  -1   2  -1  139.99   13.10
  -5   3 -10  216.16   40.53
  -3   4  -2  580.08   36.21
  -3   4  -1  269.59   26.62
  -1   2   0   51.95    9.74
   7  -2   5  284.94   40.29
   2  -2   7   88.30   17.72
   7  -2   6  117.05   42.54
   7  -2   8   52.26   44.40
   6  -2   3  193.30   31.17
   2  -1  -1   68.04   11.93
   7  -2   7  111.21   43.33
   6  -2  10  124.65   40.51
   8  -1   3  229.95   53.93
   7  -1   1   47.34   38.79
   3  -2   9  450.48   38.05
   5  -1  -1   55.99   20.82
   4  -2  10    1.45   30.00
   6  -2   9  277.31   39.96
   6  -1   0  197.58   29.45
   8  -1   4   61.87   52.89
   5  -1  13  174.67   54.19
   6  -2   8  246.22   40.74
   7   0  -1  -50.60   39.83
   5  -2   3  176.45   26.54
   6  -2   7  239.05   38.69
   6  -2   6  162.27   32.80
   2  -2   5  308.40   23.81
   7  -1   2  181.65   38.12
   8  -1   5  -27.27   52.07
   5  -2  11  233.71   41.85
   6  -2  11  139.26   48.59
   2  -2   3 3856.20   65.05
   3  -2   8   59.60   19.96
   2  -2   4  360.40   24.33
   8   0   1  113.36   52.18
   4  -1  -1   29.27   14.45
   5  -2   4   68.00   22.36
   4  -2   9    5.99   25.72
   2  -1  10   36.98   21.15
   4  -1  12   -5.06   38.18
   5  -2   5   44.28   22.74
   5  -2   6  121.59   26.89
   6  -1   1  187.60   27.96
   5  -2  10  132.46   34.89
   3  -2   7  196.01   24.80
   5  -1   0  171.94   25.76
   5  -1  12  135.92   42.82
   8   0   2   91.13   50.19
   4  -2   8   25.75   23.42
   7   0   0   18.10   37.16
   6  -1  13   45.73   62.53
   7  -1   4  293.56   42.25
   5  -2   9  188.56   36.30
   3  -2   2   -3.18   13.11
   7  -1   9   79.15   42.18
   3  -2   6  486.01   32.59
   1  -1   7 1902.57   43.38
   6  -1   2   36.66   26.78
   5  -1  11  111.86   36.97
   7  -1   8  115.94   39.07
   4  -1  11   10.62   32.17
   7  -1   6  242.37   39.15
   1  -1   1   -0.24    7.11
   7  -1   7  101.81   38.76
   3  -2   5  395.28   28.83
   3  -2   3   14.26   12.62
   8   0   3  221.99   48.90
   2  -1   9   22.57   17.82
   5  -2   8  255.94   35.72
   4  -1   0   16.40   14.56
   6  -1  10   60.71   37.62
   3  -2   4   93.53   16.36
  -1   2  -2 1812.83   40.50
   8   1   0  105.15   51.48
   3  -1  10  238.74   31.63
   6  -1  12  181.80   54.74
   5  -2   7   25.20   24.14
   6  -1   3   41.19   27.08
   7   0   1   25.61   37.30
   8   0   4  116.54   48.39
   0   2  -4  175.43   14.97
   6  -1   9  313.53   40.24
   1  -1   6 1890.16   39.20
   5   0  13  242.53   52.09
   6  -1   4  199.57   31.57
   8   0   5  121.60   50.45
   6  -1   8  394.17   41.33
   1  -1   2   98.17   10.71
   4  -1  10   68.82   27.91
   1   0  10  131.88   19.44
   6  -1  11  204.06   44.43
   8   0   6  109.18   50.55
   6  -1   7  209.77   33.84
   6  -1   6  207.06   31.42
   1  -1   5  125.87   12.98
   8   1   1  145.14   50.21
   7   0   2   87.89   35.90
   7   1  -1   44.68   37.46
   3  -1   9  210.71   28.25
   1  -1   4 1311.42   28.13
   1  -1   3  500.78   18.92
  -2   2   3   32.96   13.68
   2   0  11   59.14   24.39
   7   0  10    0.15   44.34
   7   0   3  255.86   37.20
   4   0  12    9.78   37.06
   5  -1   4  173.87   26.64
   2  -1   7  117.41   17.23
   8   1   2  176.47   46.75
   4  -1   9  232.07   32.06
   6   0  13  146.72   60.58
   5  -1  10  106.05   32.94
   6   1  -2   84.54   28.86
   5   0  12  265.55   42.06
   7   0   9  222.71   39.89
   7   0   4  341.94   42.59
  -1   2  -3 1036.73   32.70
   1   3  -6   39.48   12.83
   6   0   1  270.61   32.15
   7   0   8  119.98   37.09
   5   1  -3   56.37   19.75
   7   1   0    9.77   34.95
   7   0   5  317.45   39.96
   7   0   7  269.86   36.07
   8   1   3  157.79   47.01
   7   0   6  250.50   36.16
   5  -1   9  154.98   31.05
   5   0  11  104.88   35.75
   2  -1   6   67.89   14.53
   3   0  11  258.01   32.73
   8   2   0    1.80   48.29
   6   0  12  108.41   50.12
   6   0   2   66.91   26.16
   8   1   4  207.93   48.43
   5  -1   8  115.62   27.20
   3  -1   7  889.03   42.27
   4   0  11   72.83   31.55
   6   0   9  345.34   42.78
   8   1   5  138.63   45.53
   2   0  10   17.79   21.01
   7   1   1  -14.51   34.32
   8   1   6   44.12   45.19
   8   1   7   44.58   47.01
   2  -1   5  957.63   35.02
   5  -1   7   -4.38   23.79
   6   0   3   19.63   24.81
   5   1  13  214.97   49.96
   7   1  11  131.53   46.63
   6   0   8  309.09   40.56
   5  -1   6  224.37   30.21
   6   0  11  191.61   42.43
  -1   1  -1   -1.08    7.25
   3  -1   6  387.64   28.85
   8   2   1   62.81   48.76
   2  -1   2 2950.46   50.65
   6   0   4   -7.18   25.42
   2  -1   4 2127.01   48.18
   6   0   7  401.78   41.89
   2  -1   3 3420.92   56.60
   6   0   5    7.74   25.56
  -2   2   5   20.07   15.34
   6   0   6   76.41   25.20
   3   0  10  235.49   30.38
   7   1   2   67.64   33.38
   7   1  10  115.70   42.18
   0   1  -3  123.08    8.76
   3  -1   5    3.01   13.18
   6   0  10  309.35   44.29
   7   2  -1  117.39   37.01
   3  -1   2   51.55   15.59
   3   1  -4   45.68    9.31
   5   1  -2   -5.78   19.43
   9   3   2  121.45   65.18
   6   1  13  168.93   58.65
   8   2   2  225.58   46.20
   3  -1   4    1.17   12.46
  -1   2  -4 2311.70   43.51
   3  -1   3   59.75   14.71
   7   1   9  149.75   38.32
   7   1   3  292.98   38.27
   4   0   0   47.44   14.78
   2   0   9    9.10   17.76
   7   1   8  234.57   39.31
   5   1  12  117.65   39.87
   4   1  12   26.82   35.32
   5   0  10   25.46   31.09
   8   2   3  308.72   46.60
   7   1   7  287.65   39.67
   7   1   5  121.45   31.16
   7   1   6   88.17   31.90
   0   2  -5  259.19   16.21
   8   2   4  346.16   44.13
   7   2   0   57.10   35.43
   6   1  12  158.50   47.42
   8   3   0  -28.11   49.44
   8   2   8   25.10   45.92
  -1   1  -2   98.19   10.82
   8   2   5  161.64   43.27
   5   0   9   30.74   27.35
   8   2   7  108.01   44.85
   8   2   6   48.82   44.15
   6   2  -2   28.47   28.79
   6   2  14   95.94   66.82
   7   2  11  145.66   48.72
   2   0   8  108.66   18.33
   5   1  11   74.98   35.35
   5   2  13   64.29   49.95
   2   1  11    7.22   24.18
   6   1   2  151.25   27.64
   0   0   6   10.02    6.95
   5   0   8   14.17   23.91
   6   1  11  146.49   41.71
   7   2   1   75.07   32.91
   8   3   1   37.65   47.51
   6   1   8  195.32   34.45
   4   1  11  160.49   30.58
   5   1  10    0.66   30.57
   7   2  10   35.85   42.97
   3   1  11  307.24   35.33
  -2   1   1   47.33   10.22
   6   3  14   91.02   67.35
   6   1   3   85.70   24.17
   5   0   7   15.40   22.24
   6   1   7  223.53   32.29
  -2   2   6   38.44   16.56
   1   0  -1   43.69    6.27
   6   1   4   57.15   24.15
   6   1   6   -4.88   24.09
   7   2   2   -3.48   32.17
   5   0   6   63.42   22.69
   7   2   9  157.58   37.55
   6   1   5  128.87   25.58
   6   2  13   75.01   56.19
   6   1  10  122.55   35.94
   8   3   2  120.37   44.25
   6   2  -1   31.27   25.74
   5   2  -3  165.11   20.61
   2   0   7 1117.42   38.41
   4   0   1  101.46   17.08
   7   2   8  345.65   42.59
   7   2   3   36.16   30.18
   8   3   3  233.98   43.73
   6   1   9  176.90   33.93
   7   2   7  246.92   38.38
   7   2   4  116.86   30.79
   5   2  12    1.38   40.17
   8   3   8  129.80   46.76
   7   2   6  164.16   33.08
   7   2   5  207.07   34.67
   8   3   4  167.58   42.09
  -1   1  -3  459.24   18.73
   3   1  10  240.38   31.20
   8   3   7  137.82   44.96
   4   0   2   28.68   13.56
   8   3   5  105.90   42.85
   6   2  12  103.02   46.60
   8   3   6  209.06   42.72
   2   1  10   55.80   20.60
   8   4   0   19.02   48.98
   4   2  12   43.23   36.33
   7   3  11  109.17   48.46
   1   0   6  636.47   24.29
   3   0   6  238.52   23.82
   7   3   0  223.17   36.66
   2   0   6  497.68   26.10
   5   3  13    7.06   51.26
   7   3  10  116.97   44.99
   1   3  -7    5.61   15.35
   6   4  14   53.50   69.27
   5   1   9   20.93   26.93
   8   4   1   38.31   45.50
   6   2  11  191.98   40.94
   3   0   5   14.91   12.01
   5   2  -2   13.23   19.94
   5   2  11   25.15   35.70
   7   3  12  139.42   55.49
   7   3   1   72.98   33.62
   7   3   9  208.48   43.57
   5   2  10   -0.86   30.61
   8   4   2   88.81   43.25
   3   1   9  190.27   27.05
   6   3  13   95.33   58.05
   3   0   4   33.80   13.44
   1   0   5   75.80   11.36
   5   1   8    0.48   23.76
   2   0   5  230.44   19.79
   6   2   7   14.06   25.71
   6   3  -2  234.16   28.92
   6   2  10   54.34   36.25
   3   0   3  104.16   17.13
   7   3   8  195.68   41.05
   7   3   2   30.24   31.36
   4   2  11  219.57   37.88
   4   1   0    3.49   13.30
   0   2  -6  394.67   19.94
   2   1   9  167.07   22.89
   6   2   6   -0.49   23.66
   6   2   3  221.31   30.71
   8   4   8  121.28   48.97
   8   4   3  198.01   44.10
   4   1   8  231.65   28.84
   6   2   5  178.24   26.45
   6   2   4  270.10   31.68
   5   3  12   11.81   40.94
   5   1   7  200.66   29.07
   7   3   7  248.53   38.64
   8   4   7  100.51   45.71
   7   3   3   -9.54   30.73
   8   4   4  121.75   42.64
  -2   1   4   81.51   10.39
   8   4   6  113.40   43.00
   8   4   5   12.20   43.16
   3   2  11  217.49   32.05
   7   4  11  136.88   49.57
   7   3   6  241.16   34.51
   2   0   4 2296.30   46.95
   7   3   4   24.58   29.94
   5   2  -1   17.26   19.43
  -1   1  -4 1135.61   29.51
   7   3   5   15.68   30.71
   6   2   9   84.39   31.92
   6   4  13  228.28   59.86
   7   4  -1  286.21   39.33
   6   3  12  234.32   48.94
   1   0   4  275.84   15.00
   2   2  11   21.31   25.71
   4   1   7  146.80   23.37
   2   0   3 1714.00   38.59
   3   1   8  133.98   22.31
   6   2   8  152.18   34.24
   7   4  10  114.71   44.34
   2   0   2 2504.67   43.93
   4   3  12  286.22   41.00
   4   2  10  279.06   36.59
   3   2  -5   -1.74    9.80
   5   4  13   43.67   52.07
   8   5   1  -30.98   46.66
   7   4   0  515.39   46.36
   6   3  11  185.38   42.25
   7   4   9   74.52   40.15
   1   0   3  783.17   21.51
   6   3   0  169.58   26.46
   8   5   2   18.20   44.39
   8   5   8  163.52   48.10
   5   3  11   19.71   35.50
   7   4   1  156.11   33.36
   5   2   9  188.80   33.26
   7   4   8   86.60   36.19
   3   2  10  261.86   31.69
   3   1   7   27.46   15.58
   8   5   3   15.04   45.02
   8   5   7  119.76   48.65
   5   3  10   89.81   30.54
   4   1   1   73.46   15.44
   6   3   7   28.80   26.30
   1   0   2  178.84   11.27
   8   5   6  162.35   46.39
   8   5   4  107.32   42.86
   0   1   8   -2.69   11.30
   6   3  10   84.30   35.96
   8   5   5  135.05   44.02
   7   4   7  139.80   34.51
   1   0   1 1508.96   23.90
   6   5  13   64.77   62.13
   7   4   2   99.33   31.12
   4   2   9   88.41   23.80
   5   4  12   14.97   41.88
   6   3   6    4.83   24.33
   7   4   6   99.60   30.69
   4   1   2   12.64   12.62
   6   3   2  523.79   39.86
   7   4   3   29.27   29.52
   2   2  10   13.06   21.00
   4   1   4   96.10   18.80
   7   4   5   -5.03   30.02
   7   4   4   50.26   30.36
   6   3   5  147.34   25.96
   4   1   3   13.21   13.35
   6   3   3  266.82   31.94
   6   4  12  127.92   47.74
   6   3   4  351.62   34.86
   7   5  10   79.62   45.08
  -1   1  -5  102.59   13.27
   6   3   9  -22.74   32.58
   6   4  -2   23.45   29.60
   3   1   6   65.04   16.60
   7   5  -1   28.59   37.59
   6   5  12    3.45   48.69
   5   5  13   -2.14   54.24
   5   3  -2  157.23   22.15
   7   5   9  -10.49   40.78
   6   3   8  -14.44   28.85
   5   4  11   60.42   35.73
   3   2   9   23.00   19.86
   3   3  11   43.79   27.97
   8   6   2   68.28   46.54
   4   4  12  342.50   41.94
   6   4  11   55.59   42.00
   6   6  13  -17.92   63.41
   8   6   7  175.32   49.17
   7   5   0  197.74   36.86
   3   1   5    8.01   12.54
   6   5  11  -11.00   43.47
   7   5   8   38.20   37.47
   8   6   3   18.03   44.83
   6   4  -1  228.04   28.93
   8   6   6  166.61   47.18
   7   5  11  104.64   50.83
   8   6   4    4.37   44.16
   8   6   5   77.35   46.53
   0   2  -7  215.80   15.92
  -2   1   5    8.11   10.69
   7   5   1  197.86   34.51
   7   5   7   25.56   34.83
   5   3  -1   -4.32   19.84
   5   4  10  286.75   38.12
   5   5  12   45.19   43.86
   6   4  10   53.37   36.37
   2   1   6 1772.04   44.27
   2   2   9  186.59   22.48
   7   5   6  -27.71   33.80
   6   4   0  401.37   35.32
   7   5   2  108.97   31.53
   2   3  11  198.67   27.61
   6   5  10    5.49   37.94
  -1   0  -1 1445.78   23.53
   7   5   5  -42.44   32.45
   7   5   3  116.38   30.59
   7   5   4   46.78   30.78
   6   6  12    6.31   55.16
   6   4   6  267.26   35.19
   3   2   8    4.45   17.48
   5   3   0   18.68   17.88
   4   4  11  247.57   38.89
   6   4   1  207.25   28.45
   0   1  -5    4.73    7.44
   3   3  10   83.76   24.69
   4   3  -4   64.45   15.81
   7   6   9   10.13   44.09
   5   6  13  100.02   58.21
   6   4   5  146.31   27.12
   6   4   9   -7.35   32.61
   6   4   2  377.65   34.10
   5   4   9  249.04   39.04
  -1   1  -6 1880.16   41.62
   5   3   1   11.04   18.36
   8   7   2    0.52   51.50
   7   6  -1   67.82   42.82
   6   4   3  595.72   41.22
   6   5   9  -16.29   34.77
   5   3   2   59.53   17.92
   8   7   3  -30.49   49.44
   5   5  11  105.99   38.18
   3   2  -4   46.98   10.73
   8   7   6   59.22   50.31
   7   6   8  -21.59   40.56
   6   6  11  -83.34   48.82
  -1   0  -2  195.94   11.70
   8   7   4   34.78   50.14
   8   7   5   15.10   51.86
   6   4   8  -10.82   29.07
   2   1   5 1336.42   37.48
   0   1   7    1.43    9.48
  -2   0  -2 2534.66   44.04
   4   5  12  119.48   39.92
   7   6   0   43.18   38.62
   7   6   7  -87.15   37.97
   6   5   8  268.65   39.36
   5   4   8  218.27   34.97
   3   2   7   27.30   15.99
   6   7  12   -1.54   61.22
   6   4   7   55.70   27.15
   1   1   6  324.82   18.34
   4   2   4    4.66   13.37
   5   6  12  129.81   48.48
   7   6  10   64.36   48.69
   7   6   1  141.54   37.97
   7   6   6   31.23   35.87
   6   6  10   25.11   41.74
   3   4  11   -0.41   30.48
  -2   0  -3 1733.83   39.78
   5   5  10  267.55   40.77
   8   8   1  130.38   59.42
   7   6   5   40.77   35.47
   4   2   1  142.28   18.43
   7   6   2  224.08   35.26
   7   7   9   18.86   48.58
   6   5  -1   36.72   29.15
   5   7  13   31.27   64.06
   7   6   4   52.68   34.76
   7   6   3   79.59   37.11
   5   4   7   85.57   25.04
   4   2   3   99.02   16.29
   4   2   2   -1.22   12.88
   2   1   4 1654.22   39.21
   8   8   2    6.06   59.58
  -1   0  -3  776.63   22.09
   0   2   9   -2.47   15.90
   3   3   9   32.57   20.98
   7   7   8  -27.31   44.56
   6   7  11    6.76   52.67
   8   8   3   36.04   57.03
   6   6   9   95.69   37.77
   6   5   0   97.70   26.89
   4   5  11  124.62   35.69
   7   7  -1  102.80   45.23
   5   6  11  224.33   42.65
   5   5   9   56.28   31.00
   2   1   0    1.00    8.10
   6   5   1   91.95   25.73
   6   5   2  207.41   31.41
   5   4  -1   32.32   20.42
   7   7   7    9.94   42.69
   2   1   3 1461.47   34.85
   7   7   0   90.62   44.89
   4   6  12   87.68   46.23
   5   7  12  127.35   55.53
   2   4  11  314.80   31.55
   6   7  10  142.38   46.41
   3   4  10   28.84   26.54
   7   7   6  108.99   39.87
   7   7   1   97.27   40.47
   5   4   0   12.11   20.75
   7   7   5  108.78   38.99
   5   5   8   93.31   30.08
   0   2  -8  597.40   23.47
   7   7   2  215.00   39.66
   7   7   4  135.06   37.97
   4   3   6  166.93   23.98
   5   6  10  305.28   46.25
   2   3   9  150.87   23.42
   6   6   7  279.38   42.43
   7   7   3  156.52   41.28
   6   6  -2    2.77   32.32
   6   8  11   31.36   58.16
   5   4   1   41.90   18.92
   7   8   8   -4.35   49.95
   4   5  10  181.37   33.40
   1   1   5 1208.75   30.62
   3   3   8   35.85   19.16
   6   7   9  130.44   45.17
  -1   0  -4  279.52   15.60
   6   6   6   28.46   29.91
   3   5  11   -5.86   33.74
   5   7  11  110.53   46.83
   2   1   1   29.32    9.56
   6   6  -1  -20.29   31.77
   4   3   5  123.79   21.49
   4   6  11   15.36   39.44
   5   8  12   14.15   64.56
   6   6   5  207.21   33.83
   6   8  10   33.53   52.60
   5   6   9  238.30   40.00
   7   8   7  108.59   48.85
   4   4   8   99.01   23.98
   3   4   9   16.80   22.94
   7   8   0   15.75   47.87
   6   7   8   52.81   38.10
   0   1  -6  648.88   19.28
   6   6   0  -18.84   28.49
   4   7  12   18.50   53.12
  -2   0   3   33.12    7.63
   4   5   9  143.35   29.08
   7   8   6  170.72   45.11
   6   6   1   24.00   27.08
   7   8   1   33.78   45.54
   4   3   4   26.61   13.90
   6   6   3  133.83   27.29
   6   6   2   59.73   27.42
   7   8   5  118.26   44.86
   7   8   2  125.68   44.37
   5   4   4  179.76   26.63
   5   7  10  114.10   42.29
   7   8   4   93.89   42.71
   6   7   7   26.23   34.96
   7   8   3  148.13   43.83
   6   8   9  215.99   47.25
   5   4   3    6.29   18.80
   4   4  -4   64.18   18.77
   5   4   2  -15.35   19.22
   5   6   8  162.90   34.20
   5   8  11  108.30   53.84
   4   4   7   10.09   19.70
   4   6  10    5.10   34.74
   3   5  10   99.78   28.86
   6   7  -2   76.69   37.91
   6   7   6   88.47   33.21
   4   3   3   13.97   13.70
   2   5  11  320.69   34.29
   1   1   4  484.60   19.16
   6   8   8   27.63   42.74
   0   2   8   90.45   14.47
  -1   0  -5   93.38   12.42
   7   9   0    2.84   58.64
   4   7  11   11.26   43.43
   4   8  12   19.09   58.59
   5   7   9  285.06   46.40
   5   6   7  170.92   32.48
   3   6  11   20.30   35.13
   7   9   6   33.53   50.94
   5   5   1   -2.65   20.16
   7   9   1    8.01   55.27
   6   9   9   91.71   52.94
   4   4  -3  153.13   19.57
   6   7   4  189.95   32.98
   7   9   5   -0.60   51.69
   4   4   6    6.88   17.26
   5   8  10    5.54   46.97
   6   7   0    6.78   33.50
   6   8   7   49.21   39.01
   7   9   2   35.53   52.37
   5   9  11    9.56   61.31
   7   9   4  102.07   51.16
   7   9   3   84.33   49.92
   6   7   3   53.78   29.41
   6   7   1   18.37   30.94
   6   7   2    1.10   29.52
   4   6   9   43.25   29.14
   5   6   6   80.77   24.84
   5   7   8  157.36   37.93
   3   4   8  173.60   26.83
   4   5   8   19.50   24.35
   6   9   8  149.37   47.60
   6   8   6  114.00   36.38
   1   4  10  103.78   23.54
   3   5   9   79.85   25.30
   4   9  12    7.84   62.00
   4   7  10    4.90   37.18
   7  10   0  -75.40   66.28
   4   4   5    5.91   15.95
   5   6  -3  241.45   28.81
   4   8  11    9.42   48.81
   5   6   5   31.40   22.53
   6   8  -2  119.09   42.12
   5   8   9   57.72   40.65
   5   5   4   94.01   23.20
   5   9  10    3.63   51.72
   7  10   1   10.73   60.10
   6   9   7   85.10   43.40
   5   7   7   14.34   29.21
   2   5  10  490.65   39.58
   5   5   3   15.16   20.40
   6   8  -1   70.57   38.09
   4   6   8    1.45   25.63
   3   3  -4   28.23   12.47
   3   7  11  133.52   37.67
   6   7   5  189.95   33.89
   5   5   2   15.75   19.71
   4   4   4   27.65   15.19
   4   5   7    8.90   21.12
   6   8   0  -53.01   37.40
  -1   0  -6  717.06   25.25
   6   9   6   33.00   41.98
   1   3   8   57.83   16.35
   6   8   1  -36.97   34.43
  -2  -1  -2 2138.41   39.40
   6   8   3   17.34   32.23
   6   8   2   24.87   33.14
   5   8   8   73.64   35.95
   0   3   9   15.39   19.67
  -2   1   6   54.90    7.71
  -2  -1  -3 1597.41   36.26
   4   7   9   -0.49   32.22
   4   9  11    2.95   56.31
   5   7   6    3.36   26.10
   5   9   9    6.43   44.98
   4   8  10   27.78   40.23
  -2  -1  -1   24.15    8.87
  -2  -1  -4 1708.01   39.74
   4   6   7   62.82   24.82
   4   5   6  174.64   26.77
   5   7   5   -8.08   24.62
   6  10   6  -27.67   48.93
   5   8   7   23.58   32.80
   6   9  -1   89.71   44.12
   3   6   9  227.19   33.69
   4   5  -4   84.11   19.58
   0   1  -7  530.66   18.24
   3   8  11  222.73   43.69
   6   8   5  124.03   34.14
   3   7  10  185.02   32.43
   5   9   8   16.83   41.62
   6   9   0   32.59   39.69
   4   7   8    8.65   29.01
   5   7  -3   91.24   31.38
   0   1   5 1608.06   26.80
   1   4   9  103.00   19.67
   6  10   5  -61.94   46.78
   6   8   4   39.49   32.75
   2   5   9  666.07   41.16
   4   9  10   78.15   46.09
   6   9   1   21.72   41.42
   4   8   9   40.65   36.12
  -2  -1   0    2.12    7.54
   6   9   2   12.21   39.72
   5   8   6   19.82   29.87
   1   2  -7   26.50    7.63
   2   6  10  188.38   31.10
   5   6   3   15.16   20.42
   1   5  10   17.60   24.99
   5   6   1  160.14   28.14
   5   6   2   55.17   20.59
   5   9   7   23.22   38.30
   5  10   8  -20.12   48.83
   3   9  11  101.79   50.73
   5   7  -1  132.42   26.45
   6  10   2   40.93   45.38
   6  10  -1   43.48   53.77
   5   8   5   38.22   28.80
   4  10  10   92.54   55.97
   6   9   5   24.61   38.72
   4   7   7  110.60   29.80
   3   6   8  104.15   26.88
   2   2   2   87.90   12.06
   3   8  10  187.83   36.96
   6  10   0   39.66   49.29
   6   9   4   37.20   38.39
   4   9   9  144.48   41.70
   4   8   8  137.24   33.73
   4   5  -3   96.99   17.52
   5   9   6   16.65   35.78
   0   2   7   78.02   11.34
   6  10   1  125.43   47.02
   6   9   3    2.81   38.32
   5  10   7   34.19   44.89
   3  10  11    4.28   59.44
   5   8  -3   26.77   35.88
   2   5   8  165.59   23.87
   5   9   5  116.11   33.70
   4  10   9  106.60   49.94
   2   2   1    1.94    8.40
   2   7  10   86.25   31.55
   5   8  -2   64.67   31.89
   6  10   4   14.11   46.62
   5  10   6   41.24   42.28
   3   9  10   88.59   42.74
   2   6   9  245.89   32.19
   1   2   5   21.34    9.79
  -2  -1   1  621.86   18.45
   5   7   3   21.55   23.05
   4   8   7  170.10   31.02
   0   3   8  -22.85   15.36
   4   9   8  109.01   38.26
   5   8  -1   90.58   29.62
   6  10   3   13.63   46.63
   5   7   0  192.25   29.52
   5   7   2  196.99   30.92
   1   4   8   30.43   16.81
   4   6  -4    0.72   23.94
   4   6   5  217.43   29.06
   3   8   9  248.40   38.02
   1   6  10   -4.25   28.36
   5  10   5  128.50   41.61
   2   2   0   29.36    8.62
   1   5   9  -16.82   21.68
   5   9  -3  -27.54   42.07
   3  10  10   39.11   53.52
   0   4   9   11.80   19.28
   4  10   8  105.52   45.62
   4   8   6  244.99   34.89
   5   9  -2   29.13   38.54
   4   9   7  128.81   37.82
   5  10   4  196.59   41.14
   2   8  10   73.39   35.75
   5  11   5  105.96   49.71
   2   2  -1   23.56    7.97
   2   2  -2   55.46    9.08
   3   9   9  114.99   39.10
   5   8   3  144.09   27.58
   2   7   9   53.20   28.00
   5  11   4  109.28   47.90
   5   8   0  118.79   30.95
   5   8   2  140.68   29.71
   3   8   8  207.17   35.65
   5   8   1  247.97   32.55
   3   7   7  194.83   31.37
  -3  -1   3   92.32   12.37
   2   6   8  104.55   24.79
   4  10   7   93.43   42.36
   4   6  -3  134.09   21.40
   3  10   9   53.62   47.39
   4   9   6  137.03   33.50
   2   9  10   -7.61   45.77
  -1  -1  -3   -2.66    6.59
   5  11   3  -28.40   49.89
   1   1   0 1745.57   22.88
   5   9   4   63.15   32.66
   4   6  -2  119.55   20.68
   5   9  -1   66.34   38.02
   2  10  10   39.35   54.79
   5   9   3  185.66   33.62
   3   9   8   84.34   35.45
   4  10   6   58.58   39.70
   1   4   7   -0.83   14.87
   1   2   4  -10.19    8.46
  -1  -1  -4  549.67   18.36
   1   6   9   13.04   25.38
   5   9   0  146.89   35.61
   5   9   2  210.54   34.76
   4   6  -1   30.14   18.54
   2   8   9  -14.59   33.69
   4   9   5   67.62   34.25
   5   9   1  209.00   32.31
   3   8   7   69.34   29.48
   3   7   6  170.35   30.28
   1   5   8   32.67   19.52
   5  10  -2   -2.18   48.22
   3   4  -3    2.54   12.63
   4   7  -4  -22.27   27.52
   3   4   0   10.25   11.15
   1   3   6  108.20   15.30
   3   4  -2  102.99   15.82
   3   4  -1   34.12   11.92
   5  10   3  124.72   40.97
  -2  -1   2   69.39    8.41
   5  10  -1   12.37   42.98
   0   1   4 2106.17   27.49
   0   0  -4  361.51   10.60
   4  -2   1  769.75   40.61
   5  -2   2  345.96   33.96
   6  -2   4  378.79   40.68
   4  -2   2  686.43   38.31
  -1   1   1  431.85   15.27
   6  -2   5  373.18   41.21
  -1   2  -1  132.08   13.09
   6   0  -2  501.33   38.56
   3  -1  -1 1643.26   44.49
   7  -1   3  365.65   42.24
   3  -1  11  306.20   35.14
   4   0  -3  960.20   35.38
   2  -1   0 1522.80   35.37
   3   0  -3  634.99   24.03
   7  -1   5  487.81   48.14
  -1   1   0  408.09   15.31
   4  -2   7  234.89   29.95
   6   0  -1  776.13   46.92
   5   0  -2  263.66   26.90
   4  -2   3  931.75   45.52
   5  -1   1  810.97   44.66
   4  -2   6  734.21   45.15
   3  -1   0  448.62   25.57
   4  -2   4  794.82   42.84
   4  -2   5 1321.15   55.44
   5  -1   2  911.33   48.30
   6  -1   5  526.99   45.19
   4  -1   1  674.73   35.62
  -2   2   2  355.80   21.02
   6   0   0  530.53   41.38
   4   0  -2  555.11   29.50
   5  -1   3  596.72   41.21
   3  -1   1  313.60   22.97
   5   0  -1  392.14   30.83
   4   1  -4  863.25   31.95
   5  -1   5  475.53   37.78
   3  -1   8  459.50   35.56
  -2   2   4  215.71   17.09
   4  -1   8  572.30   42.61
   3   0  -2 2452.66   47.36
   5   0   0  233.50   26.08
   1   0   9  461.73   25.98
   2  -1   1 1749.06   39.40
   2   0  -2  410.00   16.73
   4   0  -1  331.42   24.75
   4  -1   7  974.61   50.43
   6   1  -1  349.96   33.51
   4  -1   2  827.08   39.65
   1   2  -5  601.42   20.40
   0   0   7  139.37    9.78
   4  -1   6  484.79   36.49
   5   0   1  309.88   29.57
   4  -1   3  429.03   31.40
   4  -1   5 1375.39   54.79
   4  -1   4 1505.46   55.17
   4   0  10  366.66   38.96
   5   0   2  754.22   42.36
   6   1   0 1073.66   53.82
   3   0  -1  839.55   31.08
   4   1  -3  749.17   31.24
   7   1   4  415.65   43.21
   1   0   8 1249.63   37.98
   5   0   3  563.43   38.43
   3   0   9  525.43   37.31
   5   0   4  538.35   38.65
   4   0   9 1361.32   61.69
   6   1   1  721.29   46.90
   5   1  -1  235.24   25.81
   2   0  -1  328.89   16.01
   4   0   8  888.78   48.84
   3   0   0 1000.93   35.17
   3   0   8  577.24   37.02
   1   0   7  788.55   29.54
  -2   1   0 1394.79   34.36
  -2   1   2  263.88   16.29
   4   0   7  399.88   33.89
   5   1   0  785.81   41.16
   5   0   5  878.08   48.75
   4   1  -2 1129.13   39.36
   1   1  10  245.44   21.49
   3   0   1 2887.39   57.13
   7   3  -1  421.35   42.10
   3   0   7  230.51   25.08
   4   0   6  384.50   31.54
   4   1  10  440.75   40.46
   5   1   1  618.11   37.95
   2   0   0 1555.96   33.37
  -2   1   3  216.44   14.43
   4   0   5  409.92   31.60
   6   2   0  271.57   32.58
   4   0   3  234.69   23.62
   4   0   4  757.84   38.91
   5   1   2  565.05   37.82
   4   1  -1  558.29   30.13
   0   0   5  212.92   10.86
   4   2  -4  637.07   27.34
   5   1   3  899.36   46.07
   4   1   9  764.65   47.28
   5   1   4 1209.73   52.63
   6   2   1  573.06   41.91
  -2   1  -1 1686.71   39.15
   6   2   2  512.78   41.97
   1   0   0  594.33   14.88
   3   0   2  594.39   29.27
   3   1  -3   96.59   11.86
   1   1   9  179.02   17.96
  -2   1  -2 2711.75   52.94
   0   1  -4   94.90    9.48
   5   1   6  389.62   35.92
   3   1  -2  420.21   21.80
   5   1   5  562.70   40.35
   6   3  -1  243.98   26.93
   2   0   1 1874.67   38.09
   0   0   4  321.73   11.20
   4   2  -3  704.52   31.22
   5   2   0  303.72   27.89
   2   1   8  649.21   33.90
   4   1   6  956.46   44.77
   5   2   1  377.73   30.24
   5   3  -3  275.52   25.21
   3   1  -1  866.78   30.36
   4   1   5  510.27   33.73
   1   1   8  979.02   33.92
   6   3   1  342.98   35.44
   5   2   2  339.21   30.07
   5   2   3  510.18   35.70
   4   3  11  340.61   40.16
   5   2   8  523.70   44.08
  -1   0   0  538.27   14.26
   4   2  -2  822.47   34.36
   5   3   9  602.99   47.65
   3   1   0 2538.67   50.55
   2   1   7  912.88   36.07
   5   2   7  836.03   49.80
   0   0   3  804.81   14.32
   1   2  10  827.15   35.53
  -1   0   1   50.41    6.26
   4   2   8  376.14   33.25
   3   1   1 1897.37   45.48
   2   1  -3  410.73   14.58
   1   2  -6  198.86   11.12
   5   2   6  712.60   44.64
   5   2   5  484.33   37.50
   4   2  -1  394.46   25.52
   5   2   4  832.40   43.84
  -2   0   0 1455.17   32.24
   1   1   7  352.92   20.79
   4   3  10  410.45   40.45
   4   2   7  714.84   40.48
   3   1   4  199.81   20.39
  -2   0   1  290.88   14.93
  -3   1   4 1056.95   33.21
   3   1   3 2046.59   49.59
   4   2   6  646.34   37.77
   3   1   2 3557.60   62.95
   6   4   4  382.74   37.99
   5   3   8 1149.12   59.94
   4   3   9  260.34   32.23
  -2   0  -1 1714.86   36.55
   4   2   5  256.44   25.37
   1   2   9  263.14   21.59
   2   1  -2   77.41    9.56
   5   4  -3  286.39   26.59
   5   3   7  414.22   37.41
   4   2   0  545.12   29.46
   4   4  10  310.35   39.49
  -3   0   1  744.27   29.02
  -2   0   2  405.94   16.70
   2   2   8 1016.18   41.48
   5   3   6  267.82   31.45
   4   3   8  388.53   36.12
   3   2  -3  192.62   14.94
   6   5   7  456.81   45.86
   2   3  10  459.07   35.86
  -1   0   2  755.95   12.37
   4   3  -3  583.66   29.59
   5   3   5  378.83   33.84
   2   1  -1  653.91   20.61
   5   4  -2  381.92   30.35
   5   3   4  431.24   33.91
   5   3   3  246.18   26.72
   3   2   6  294.89   25.29
   5   4   6  370.21   36.95
   6   5   5  366.72   38.45
   4   3   7  293.97   30.19
  -3   0   2 2347.76   47.95
   6   5   4  287.62   35.05
   6   5   3  381.04   39.21
   4   3  -2  833.64   35.93
   6   6   8  446.42   50.34
   3   2  -2  174.30   16.62
  -3   1   5  296.91   18.68
   1   3  10  493.08   31.27
   4   4   9  327.80   36.08
   3   2   5  329.36   25.27
   2   2   7 1376.44   45.44
   1   2   8  174.79   17.61
   2   1   2 2087.77   41.32
   3   2  -1  988.40   32.99
   6   5   6  598.82   49.02
   3   2   0 1407.86   39.95
   5   5   7  297.75   38.00
   3   2   4  684.64   32.69
   5   5  -3  380.14   30.14
   0   1   6  180.33   12.03
   6   6   4  313.56   38.04
   5   4   5  694.60   44.15
   5   5   6  296.22   36.90
  -3   0   3  617.10   25.11
   3   2   3 1517.77   44.53
   2   4  10  491.49   38.15
   4   3  -1  578.07   31.17
   3   3   7  581.32   35.98
   2   2   6 2409.53   55.97
   5   5   5  246.02   30.21
   5   5  -2  237.78   24.99
   3   2   2 2681.57   56.19
   4   3   0 1534.15   48.25
   1   3   9  241.09   23.50
   3   2   1  815.51   32.07
   4   3   1  811.19   37.40
   4   3   2  267.63   24.14
   3   3  -5  258.03   16.77
   5   5  -1  318.82   30.29
   2   3   8  570.35   35.19
   5   5   0  241.64   26.95
   1   2   7  561.59   26.89
   3   3   6  846.76   40.20
   2   2   5  833.09   32.94
   2   4   9  277.92   29.63
   4   4   3  314.86   26.33
   3   3   5  352.80   27.44
   3   6  10  333.11   40.87
  -3  -1   1  765.30   28.72
   2   3   7 1114.76   43.54
   2   2   4  364.56   21.63
  -3   0   4  281.28   15.87
   4   4  -2  311.61   25.18
   5   6  -1  442.11   35.57
   3   4   7  592.92   37.43
   3   3   4 1049.33   39.75
   3   3  -3  199.78   16.70
   3   5   8  266.34   31.75
   5   6   0  295.19   31.19
   2   2  -5  979.20   17.60
   2   4   8  454.59   32.27
   4   4  -1  870.61   37.95
   1   2   6  593.03   25.61
   3   3  -2  292.95   19.65
   4   4   0  819.50   36.89
   4   4   2 1361.44   48.64
   3   3   3 1137.58   39.40
   4   4   1  866.77   39.09
   2   2   3  550.31   23.63
   3   4   6 1217.62   47.81
   4   5   3  418.19   32.05
   2   3   6  697.49   32.67
   4   5   5  218.07   27.05
   3   3   2 1269.17   39.69
   5   7  -2  265.25   29.58
  -3  -1   2  356.57   19.67
   2   2  -4 1470.03   25.50
   3   3   1 1201.23   38.03
  -1   0  -7  888.05   29.49
   4   5   4  252.84   28.03
   3   7   9  300.57   39.17
   0   0  -3  926.29   14.91
   3   3   0  465.05   25.06
   3   4   5 1279.69   46.46
   3   3  -1  252.32   19.73
   3   5   7  550.98   38.54
   4   6   6  264.17   31.64
   2   2  -3  258.59   13.55
   4   7   6  397.88   39.34
   4   5  -2  250.32   24.18
   2   3   5  193.24   19.45
   3   4  -5  359.69   21.08
  -2   0   4  324.48   11.23
   3   6   7  451.45   38.27
   1   1   1  817.01   18.77
   2   4   7  419.66   29.85
   5   7   1  420.43   38.82
   3   4   4 1011.40   40.47
   4   5  -1  572.40   33.29
   1   3   7  202.57   18.01
   4   5   2  860.44   40.51
   3   7   8  301.94   37.03
  -1   1   6  685.43   14.94
   4   5   0  245.24   24.08
   4   5   1  587.93   34.56
   3   5   6 1060.33   47.61
   4   6   2  409.91   34.46
   4   6   4  392.16   34.10
   3   4   3 1030.69   39.28
   3   4  -4  140.40   16.67
   3   6   6  472.35   38.09
   2   5   7  239.13   26.82
   2   3   4  326.36   21.89
   4   6   3  547.72   38.27
   4   8   5  426.62   43.34
   3   5   5  821.86   41.04
   3   4   2  979.38   37.17
   2   4   6  279.01   24.70
   4   7   5  533.47   44.09
   4   7   2  345.24   34.18
   3   4   1  282.61   22.58
  -1  -1  -1  829.12   19.65
   4   7   4  403.61   37.41
   4   6   1  726.00   41.12
   4   6   0  196.67   26.42
   2   3   3  788.39   29.91
   3   5   4  297.48   27.11
  -3   0   5  250.51   13.03
   4   7   3  450.96   38.59
   5  10   0   43.85   43.27
   5  11  -2  -45.44   58.41
   4   7  -3   -1.63   24.77
   2   4   5  597.83   31.40
  -2  -2  -3  497.39   24.40
   5  11  -1  -23.17   55.93
   0   2   6  112.79   11.83
   3   5   3  274.24   25.07
   4   8   4   76.08   26.92
   3   6   5  135.34   24.53
  -2  -2  -2   93.42   12.26
   2   3   2  350.49   20.63
   0   1  -8  394.85   16.46
   4   7   1  205.91   28.92
  -5   5   0   63.10   29.53
  -4   6  -3   94.16   30.63
  -3   6 -10   13.37   38.51
  -5   6  -3   47.68   34.67
  -6   4   1   16.68   34.72
  -4   4   1   78.64   22.72
  -2   5 -10  382.87   39.85
  -4   6  -4   59.65   27.70
  -6   5  -1  219.55   41.51
  -5   6  -4  141.43   39.32
  -5   5  -1  -18.93   29.18
  -1   4  -3 2506.97   66.29
   0   1  -1 2275.72   22.38
  -4   6  -5    5.78   28.54
  -2   5  -9   84.94   24.70
  -3   4   0   12.81   14.91
  -4   6 -11   41.27   52.95
  -3   6  -4  417.11   40.04
  -3   6  -8   47.01   29.24
  -6   3   2   79.71   32.09
  -7   4   0  161.00   49.32
  -4   6  -6   92.53   30.83
  -5   6  -5  162.69   37.51
  -1   4  -8   -6.32   16.49
  -3   6  -5  154.04   28.75
  -3   6  -7  179.76   32.27
  -2   5  -3    0.30   14.42
   0  -3   1  226.52   17.70
  -1   4  -4 1719.30   54.23
  -3   6  -6  333.43   39.00
  -2   5  -8   13.05   21.68
  -1   4  -7   24.95   13.87
  -1   4  -6  191.66   26.49
  -6   5  -2  219.78   45.42
  -1   4  -5  996.96   43.91
   0  -2   1 1410.76   33.39
  -5   6  -6  181.95   40.99
  -4   1   4   73.30   14.99
  -4   6 -10  238.71   46.18
   0   2  -3   -1.84    6.13
  -4   2   3    9.76   15.12
  -2   5  -4    4.60   14.57
  -6   4   0   72.85   33.37
  -5   6  -7  252.64   41.92
  -5   5  -2    3.57   28.47
  -3   5  -1  645.00   42.80
  -2   5  -7  138.75   26.78
  -5   6  -8  163.64   45.82
  -3   5 -11   33.73   39.47
  -4   4   0   47.29   20.49
  -1   2   0   52.70   10.01
  -2   5  -5  185.63   27.58
  -2   5  -6  293.14   34.92
  -1   3  -1  774.03   30.14
  -4   6  -9  127.60   40.23
  -5   4   0  178.55   33.00
  -7   3   1   80.66   44.81
  -7   4  -1  187.31   48.33
  -6   5  -3  190.15   40.07
  -4   5  -3  178.96   32.89
  -4   6  -8  141.18   35.10
  -4   6  -7  132.07   32.94
  -5   5  -3   26.24   28.79
  -2   4  -1  491.59   31.05
  -3   5  -2  390.23   35.18
  -6   3   1    4.11   29.24
  -6   4  -1  111.24   33.51
  -6   5  -4  163.82   41.65
  -4   5  -4   92.98   26.07
  -7   4  -2  259.30   50.59
  -5   5  -4  153.81   34.28
  -3   5  -9    7.64   28.75
  -3   5  -3  485.35   39.32
  -1   3  -2 1833.04   49.21
  -5   4  -1  115.60   27.52
  -2   4 -10  133.34   25.47
   0   2  -4  163.67   14.27
  -7   3   0  105.61   42.39
  -4   5  -5   15.21   23.62
  -4   5 -11   71.34   46.44
  -6   5  -5   97.22   39.54
  -1   3 -10   10.60   20.20
  -2   4  -2   75.01   15.65
   1  -2  -2   61.92   10.24
  -6   2   2  130.38   30.02
  -3   5  -8  104.20   24.17
  -3   5  -4  425.27   37.10
  -5   5  -5  248.59   36.76
  -6   5  -6   94.83   41.13
  -3   5  -7  384.47   39.52
  -3   5  -5  501.22   39.98
  -2   4  -9  110.53   21.47
  -6   4  -2  135.71   34.61
  -3   5  -6  832.56   51.78
  -5   5  -6  199.97   34.14
  -7   4  -3  164.44   46.18
  -3   3   0   55.96   15.32
  -4   5 -10  145.62   36.85
  -5   2   2  202.47   27.52
  -5   5  -7  161.35   34.72
  -4   2   2   27.16   15.31
  -2   4  -3   14.05   11.28
  -1   3  -3 1535.01   49.84
  -6   3   0   37.86   28.37
  -5   5  -8  231.46   40.08
  -5   4  -2  185.81   30.05
   0  -3   2    3.81    8.35
   0  -1   1 2332.86   21.40
  -2   4  -8  229.56   26.92
  -1   3  -9   19.45   16.86
   0   2  -5  180.97   15.08
  -7   2   1  104.74   37.05
  -7   3  -1  136.88   38.62
  -4   5  -9  213.18   34.47
  -3   4 -11   18.25   33.58
  -2   4  -4   35.62   11.67
  -6   4  -3  220.08   37.95
  -2   4  -7  369.39   32.10
  -1   3  -4 1124.88   42.33
  -4   5  -8   30.75   28.96
  -2   4  -5   11.41   12.97
  -2   4  -6  105.82   19.70
  -1   3  -8  288.71   22.31
  -4   5  -7    4.67   25.88
  -4   5  -6   67.70   24.14
  -1   3  -5 1104.03   42.11
  -5   4  -3  -14.68   24.02
  -5   5 -10  122.37   46.60
  -4   4 -12   96.24   46.53
  -1   3  -7  488.39   27.66
  -1   3  -6  256.95   21.71
  -3   4 -10   58.13   26.66
  -6   2   1   68.95   25.23
  -6   4  -4  215.06   39.17
  -5   5  -9  141.11   39.11
  -6   3  -1   44.38   27.45
  -7   3  -2  101.38   37.40
  -3   3  -1    3.82   12.48
  -8   2  -1  134.90   50.32
  -5   4 -12   75.75   52.05
  -4   4  -4  203.63   28.33
  -7   2   0  146.27   36.17
  -5   4  -4   75.45   24.76
  -6   4  -5  302.84   45.13
  -3   4  -9  124.27   24.76
  -4   4 -11   98.28   35.99
   0  -2   2  914.60   21.56
  -3   4  -3  434.59   32.66
  -4   3  -1  174.31   25.57
  -6   4  -6  176.43   38.47
  -1   2  -1  139.92   12.69
  -4   2   1  127.87   20.44
  -6   1   2  210.24   32.47
  -7   3  -3  176.71   41.57
  -3   4  -8  516.64   40.57
  -6   3  -2   10.85   27.47
  -6   4  -7   64.54   37.95
  -3   4  -4  592.26   38.15
  -6   4  -8   93.99   39.31
  -8   2  -2   67.04   49.60
  -4   4 -10   75.99   32.63
  -2   3 -10  183.52   26.62
  -3   4  -7  594.27   41.94
  -3   4  -5 1347.25   56.18
  -5   4  -7  134.08   28.25
  -5   4  -8  119.95   32.79
  -7   1   1   41.73   33.78
  -3   4  -6  854.38   47.13
   0   1  -2   18.48    5.42
  -6   2   0   24.52   24.83
  -2   0   3   27.06    6.55
  -2   3  -2  686.70   31.80
  -7   2  -1  211.70   39.44
  -7   3  -4  199.44   42.56
  -4   4  -9  124.40   28.31
  -6   3  -3  106.52   29.00
  -5   4 -11   50.36   45.28
  -5   1   2  149.36   23.29
  -2   3  -9  498.06   33.61
  -4   4  -5   85.73   22.90
   1  -2   0   50.15    9.33
  -1  -3   4  235.48   14.61
  -5   3 -13   82.11   55.08
  -4   4  -8   -0.90   23.52
  -7   3  -5   55.19   38.21
  -3   3 -11   86.73   29.58
  -5   4 -10  150.34   39.19
  -2   3  -3  345.98   25.01
  -1   2 -10    6.51   18.23
  -4   4  -7   36.50   21.33
  -2   3  -8  325.01   27.18
   0  -3   3   86.87   10.50
  -4   4  -6  296.79   31.67
  -4   1   2   87.28   16.29
  -1   2  -2 1926.81   41.06
  -5   3  -3   28.95   20.70
  -4   3 -12   25.04   40.16
  -8   1  -1   99.84   45.95
  -6   3  -4  289.86   41.52
  -5   4  -9  224.21   37.01
  -7   3  -6   72.84   39.23
  -7   2  -2  129.24   34.96
  -6   2  -1   -8.61   24.62
  -2   3  -7  111.36   17.28
  -2   3  -4   78.45   14.77
  -6   1   1  212.15   30.93
  -7   1   0   66.47   31.51
  -5   0   3   34.11   16.51
  -2   3  -6   10.65   12.16
  -2   3  -5   12.86   10.87
  -6   3  -5  274.16   42.58
  -5   3  -4   16.50   21.54
  -5   3 -12   99.98   46.89
  -3   3  -2   60.49   16.04
  -4   3 -11   77.51   34.31
  -6   3 -10  142.72   40.36
  -7   2  -3  119.13   34.43
  -2   1   1   50.70    9.53
  -1   2  -3  948.66   34.28
  -8   1  -2  140.63   43.51
  -6   3  -7  264.39   41.69
  -6   3  -9  115.43   37.44
  -5   3  -5   -0.68   21.35
  -3   3  -9  859.82   48.46
  -6   3  -8  136.29   36.01
  -6   2  -2   11.34   24.46
  -5   1   1   23.20   16.54
  -5   3  -6   80.08   23.39
  -3   2  -1   -1.69   11.95
  -3   3  -3  145.69   19.38
  -4   3 -10   25.52   28.43
  -2   2 -11  157.64   24.43
  -5   3  -7  160.43   28.63
  -7   0   1  -41.69   31.79
  -7   2  -4  188.84   40.17
  -1   2  -8  522.60   26.61
  -1   2  -4 1422.31   44.27
  -7   1  -1   36.49   30.42
  -3   3  -8  338.06   31.52
  -6   1   0  139.81   28.19
  -3   3  -4  333.73   27.82
  -8   1  -3  119.19   42.44
  -5   3 -11  152.39   40.64
  -3   3  -7  267.08   27.93
  -3   2 -12   65.34   30.30
  -1   2  -5 1166.91   38.12
  -6   2  -3  166.01   29.85
  -1   2  -7  832.25   31.56
  -4   3  -9   16.10   24.53
  -7   2  -5  118.43   35.74
  -3   3  -5  859.76   43.16
  -4   1   1   28.21   13.18
  -3   3  -6  588.59   37.21
  -1   2  -6  455.25   24.22
  -1  -4   5   29.19   12.95
  -5   3 -10  175.70   38.09
  -8   0  -1   44.85   42.43
  -5   2 -13   91.13   49.62
  -7   2  -6   83.90   34.84
  -4   3  -8   19.83   20.97
  -2   2 -10  186.20   25.48
  -8   1  -4    7.00   42.42
  -7   1  -2  171.37   35.03
  -7   2  -7   29.39   36.48
  -5   3  -9  244.91   39.64
  -6   2  -4  223.34   37.06
  -4   3  -7   63.49   18.92
  -7   2  -8   43.40   39.01
  -4   3  -6  560.13   39.84
  -4   2 -12   65.44   35.24
  -5   3  -8  219.49   34.01
  -5   2 -12   81.81   41.81
  -3  -1   4   43.18    7.41
  -4   5   0  571.29   47.70
  -2   3   1 2279.28   56.56
  -3   3   2  997.18   43.51
  -4   5  -1 1442.64   69.24
  -5   4   1  358.93   40.15
  -2   2   2  419.73   23.57
  -1  -4   3  129.45   18.71
  -4   3   2  285.84   29.73
  -5   3   2  591.54   45.94
  -4   5  -2  889.52   57.55
   1  -2  -4 1287.70   34.24
  -5   2   3  404.46   36.12
  -2   3   0  825.17   35.46
  -3   3   1  476.29   31.65
   1  -2  -3 2245.90   43.90
  -3   4  -1  191.94   25.53
  -4   3   1  377.47   32.56
  -4   4  -1  851.94   50.11
  -5   3   1  789.23   51.09
  -3   2   2 1494.68   46.27
  -1   1   1  457.05   15.96
  -2   2   1 1495.81   40.01
  -3   1   3 1032.88   33.73
   0   2  -8  364.04   23.08
  -3   0   4  231.00   14.90
  -4   4  -2 1165.76   57.54
   0   2  -7  164.54   15.58
  -5   3   0  577.16   45.22
  -4   3   0  306.18   29.49
   1  -1  -4 3255.15   40.41
   1  -1  -5 1066.97   24.45
   0   2  -6  320.63   19.46
  -5   1   3  273.29   28.75
  -4   1   3  352.48   26.21
  -4   4  -3  583.03   44.68
  -2   1   2  316.70   16.78
   1  -2  -1  144.52   12.63
  -4   0   4  749.33   30.96
  -3   4  -2  499.88   36.41
   1  -1  -3 1442.94   26.71
  -3   2   1 2093.93   54.38
  -2   3  -1 1467.58   46.96
  -5   3  -1  549.11   43.94
  -5   2   1  249.19   30.75
  -2   2   0 1689.46   42.73
  -5   4  -5  314.67   38.88
  -5   4  -6  399.80   43.45
  -1   0   2  764.17   13.55
  -2  -4   5  237.88   19.32
  -5   3  -2  271.13   35.17
   1  -1  -2  222.74   11.85
  -4   3  -2  387.58   34.66
  -3   1   2 1445.32   40.71
  -5   2   0 1080.27   54.21
  -3   2   0  448.36   28.11
  -4   2   0  715.49   39.68
  -4   3  -3  795.96   46.77
  -1   1   0  413.57   15.52
   1  -1  -7  445.68   17.19
  -3   3 -10  560.41   45.22
  -1   2  -9  246.57   24.41
  -6   3  -6  383.96   45.82
  -5   2  -1 1535.15   63.87
  -4   0   3  801.53   33.57
  -4   3  -5  580.48   41.60
  -3   0   3  559.49   23.30
  -6   0   2  331.37   34.91
   1  -1  -1  450.87   15.73
  -4   2  -1  677.28   39.11
   0   1  -9   72.41   11.49
  -4   3  -4  305.86   31.81
  -5   2  -2  244.85   31.78
  -3   1   1 1627.60   44.51
  -2   2  -1 1886.44   46.93
  -4  -1   4  625.63   27.02
   0   1  -3  102.99    8.44
  -4   2  -2  698.85   40.31
  -3   2 -11  306.77   36.92
  -5   0   2  210.24   24.65
   0   1  -8  168.39   15.49
  -3   2  -2   10.61   11.73
   0   2  -8  470.34   31.37
  -1   1  -8  835.50   37.21
  -1   3 -11    5.43   28.27
  -1   4 -12   34.79   40.03
  -2   2 -11  141.17   26.51
   1   6 -11  131.76   43.87
   1   4  -9  219.95   27.60
  -3   3 -13   14.81   46.33
  -2   3 -12  158.36   38.10
   1   5 -10  188.31   31.39
   2   3  -5  747.15   34.16
   2   5  -8   16.44   25.03
   0   3  -9  762.95   41.94
   2   6  -9   32.87   33.26
  -1   0  -5   82.12   12.19
   3   8  -8   31.30   43.39
   5   8  -2   67.64   29.12
   0   5 -11   -1.24   37.35
   3   6  -6  200.77   31.63
   0   4 -10  329.85   31.81
   1   3  -7   14.22   15.57
   3   7  -7   70.97   33.03
  -2   1  -9   17.50   18.00
   0   1  -5    6.28    9.61
   1   2  -5 1047.25   36.83
  -1   2  -9  408.47   29.41
   5   9  -3   50.74   40.38
   4   6  -3  147.58   23.74
  -2  -1   2   73.54   10.90
  -2   0  -7 1095.82   33.74
  -1   5 -12   64.39   45.38
   4   9  -6   70.34   47.20
   2   2   0   27.93    6.61
   0   2  -7  234.15   21.93
  -4   1 -11   10.74   28.43
  -1   3 -10   -8.10   23.60
  -3   1 -10  230.79   21.57
   4   8  -5  123.48   34.81
   1   6 -10  182.09   35.78
   4   7  -4    8.72   26.73
   2   4  -6  476.91   33.31
  -3   4 -13    8.62   52.28
   1   4  -8  183.52   25.88
  -1   1  -7 1855.50   48.73
  -4   2 -12   22.54   36.40
   1   5  -9  209.09   31.65
  -2   4 -12  128.12   42.08
  -3  -1  -6   58.43    9.49
  -2   2 -10  256.47   25.22
   2   7  -9   91.24   37.36
   2   3  -4  583.75   28.20
   1   1   4  492.17   16.03
   5   8  -1  114.31   26.29
   3   4  -3   -3.17   14.11
  -3   3 -12    7.87   38.41
  -2   3 -11  163.23   29.94
  -3   2 -11  349.82   29.54
   0   0   3 1002.49   21.72
   0   6 -11  -12.05   42.02
   3   8  -7   28.71   38.72
   2   5  -7   22.28   21.37
   2   6  -8   24.96   28.33
   5   9  -2    7.94   36.72
   0   3  -8  740.34   39.25
   3   7  -6  240.80   35.47
  -3   0  -8  589.68   26.25
   1   1  -1   29.32    6.68
   0   5 -10   40.58   30.65
   4   6  -2  119.09   21.85
   5   7   0  150.42   23.37
   0   4  -9  345.23   32.59
   4   9  -5   46.20   40.92
   1   3  -6   52.20   14.87
   1   7 -10  149.56   42.04
   1   2  -4  630.74   26.85
   0   0   4  351.83   16.98
  -1   5 -11  190.64   40.06
  -1   2  -8  524.42   31.67
   3   9  -7   19.56   46.13
   1   1   5 1178.00   28.49
   4   8  -4   20.46   31.67
   0   1  -4  134.03   13.24
  -2   5 -12  149.94   47.67
   4   7  -3   18.47   24.01
  -2   1  -8   -1.45   15.32
  -1   0  -4  264.22   14.02
   1   6  -9  281.86   36.49
   0   2  -6  461.55   26.39
   3   4  -1   56.02   11.61
   4  10  -5  -10.57   51.62
   2   4  -5  585.08   32.57
  -1   4 -10   35.10   28.13
   1   4  -7  227.50   26.84
   2   7  -8   35.53   32.60
   1   5  -8   87.25   23.50
  -3   4 -12   35.68   44.97
  -4   3 -12  106.70   43.96
   3   8  -6   65.01   34.24
  -2   0  -6  489.72   21.80
  -2   4 -11  309.29   35.07
  -4   1 -10   77.34   25.60
  -3   1  -9  182.45   19.77
   3   4  -2   98.61   16.00
   0   6 -10  -12.62   37.01
  -1   1  -6 1839.65   44.77
   2   5  -6  172.28   25.40
  -2   2  -9  174.42   20.85
  -4   2 -11   29.02   33.48
   2   2   1   -0.53    4.19
   3   7  -5  188.56   31.23
  -2   3 -10  256.64   27.46
  -1   6 -11  215.57   45.56
  -3   3 -11  119.28   33.11
   4   9  -4   47.90   37.35
  -3   2 -10  604.83   37.45
   0   3  -7  503.19   31.09
   4   6  -1   21.31   16.57
   0   5  -9  147.43   26.64
   1   7  -9  122.66   36.31
   3   9  -6    6.87   40.38
   2   8  -8   14.85   38.44
   0   4  -8  480.50   35.50
   4   8  -3   46.90   28.55
   1   3  -5  243.88   21.42
   4   7  -2   13.80   21.63
  -3   5 -12    5.82   55.01
  -1   5 -10  142.52   31.24
   5   8   0  159.94   25.62
   0   7 -10   13.56   42.58
   4  10  -4  143.80   46.50
  -2   5 -11  338.89   41.73
   1   6  -8  264.56   33.54
  -4   4 -12   88.40   50.98
   3   5  -2   44.91   14.96
   3  10  -6   15.59   50.49
  -1  -1   3  632.04   22.22
  -1   2  -7  879.42   36.23
   3   5  -3   61.16   17.37
   3   8  -5   84.00   31.52
   1   2  -3 1010.60   28.92
   2   7  -7   31.46   29.12
   1   8  -9   35.43   42.89
   4  11  -4   52.16   58.03
   2   4  -4  487.33   28.44
   3   4   0    3.92    9.59
  -1   4  -9   12.57   23.34
   1   4  -6   94.83   18.90
   1   5  -7  117.20   23.19
  -1  -1   2 1263.52   26.06
  -1   3  -8  270.22   25.99
   3   6  -4   94.29   23.88
   0   2  -5  313.45   21.03
  -3   4 -11    0.99   40.75
  -2   1  -7  115.77   13.98
   2   6  -6  125.80   25.26
  -2   4 -10  182.76   28.27
   2   5  -5  442.28   31.95
   4   9  -3   52.45   33.79
  -4   3 -11   60.12   36.22
  -1   6 -10  142.12   39.12
   0   1  -3  192.18   12.35
  -3  -1  -5    7.66    7.30
  -2   6 -11  102.45   49.74
   3   9  -5   68.34   36.87
  -4   5 -12  205.34   60.66
   1   7  -8  215.47   35.26
  -2   3  -9  562.55   36.17
   2   8  -7    6.50   33.64
  -2   2  -8   69.51   16.59
  -3   3 -10  550.60   37.51
   0   5  -8  305.50   31.70
   4   8  -2   43.29   26.28
  -4   2 -10   19.47   27.80
  -3   1  -8  455.88   25.76
   0   3  -6  112.25   15.48
   4   7  -1   -6.88   19.97
   4  10  -3  144.99   41.02
   0   4  -7 1023.59   45.37
  -3   2  -9  520.56   32.35
  -1   1  -5  117.20   14.05
   3  10  -5    0.49   43.49
   0   7  -9   37.28   38.86
  -1   7 -10   67.45   48.21
  -1   5  -9   78.83   28.66
  -3   5 -11   30.29   47.84
  -1  -1   1   27.75    7.23
   1   6  -7   64.35   23.79
   2   9  -7   49.42   41.26
  -2   5 -10  425.98   41.00
   1   3  -4  286.36   21.35
   1   8  -8  111.73   37.81
   2   7  -6    0.66   25.83
   4  11  -3  167.42   53.71
  -1   0  -3  767.13   17.96
   3   5  -1   93.60   16.23
  -4   4 -11   92.66   43.73
   3   7  -4  206.21   30.32
   1   5  -6   64.40   20.77
  -1   4  -8    4.82   21.60
   4   9  -2   33.10   31.69
   1   4  -5    9.79   13.88
   3   6  -3  123.87   23.82
   2   4  -3  830.25   32.81
   0   6  -8  148.99   27.75
   2   6  -5  132.09   22.55
  -3   6 -11   -9.70   56.21
  -1   2  -6  507.46   26.68
  -3   4 -10   29.54   34.15
  -1   3  -7  491.02   29.68
  -1   6  -9  248.42   33.69
   2   5  -4  279.54   25.04
  -2   4  -9  133.62   26.03
  -2   6 -10  402.03   43.67
   2   8  -6   34.32   30.24
   1   7  -7  231.38   33.14
  -2  -2   1   37.74    9.22
   4   8  -1    9.96   24.24
  -4   3 -10   92.82   33.52
   4  10  -2    5.38   39.04
  -4   5 -11   74.79   54.82
   1   2  -2 5197.16   55.67
   0   5  -7  195.05   25.59
   0   2  -4  300.74   18.44
   3   8  -4  224.74   33.97
   4   7   0   95.01   20.20
   0   7  -8   -4.03   32.05
  -2   3  -8  421.34   30.41
  -2   7 -10   14.84   51.35
  -5   0  -8  -14.22   20.15
  -1   7  -9   53.34   40.76
  -3   3  -9  992.59   47.28
   4  11  -2  137.21   50.26
  -2   1  -6   57.21   11.78
   2   9  -6   27.63   37.25
   1   8  -7   95.07   33.20
  -1   5  -8   19.32   25.20
   0   4  -6  311.40   25.99
  -2   2  -7  103.72   14.59
   1   6  -6    9.71   20.80
   2   7  -5  -13.19   23.16
  -4   2  -9   -1.13   24.32
   0   3  -5   57.21   13.46
   2  10  -6   51.51   45.06
  -2   5  -9   81.66   30.96
  -1   8  -9  -11.93   48.12
   0   8  -8  -15.84   39.43
   4   9  -1   16.02   29.71
  -3   2  -8   87.71   19.42
   3   9  -4   54.38   34.15
   1   9  -7   96.78   39.59
  -3   1  -7  943.61   33.59
  -4   4 -10   84.13   38.75
   3   5   0   16.40   11.63
   1   5  -5   92.38   18.40
   0   6  -7  172.01   25.63
  -3   6 -10   45.00   49.18
   2   6  -4  130.29   22.14
   3  10  -4   33.75   40.20
   1   3  -3  470.40   23.55
  -1   6  -8  122.72   28.49
   0  -1   4  147.88   12.72
   4  10  -1   12.50   36.16
  -2   6  -9  375.23   40.06
   1   0   5   91.91   11.34
   1   4  -4  149.87   18.35
   1   7  -6  189.77   29.65
   3  11  -4   -6.03   51.93
   4   8   0   23.87   22.74
  -3   4  -9  118.87   29.68
  -1   1  -4 1019.44   27.75
  -2   4  -8  281.93   30.22
   0   1  -2   44.32    8.63
   2   5  -3 1005.24   39.03
   2   9  -5   41.79   33.48
   0   7  -7  137.65   28.48
   3   5  -5  412.28   34.44
   4   5  -1  529.58   28.30
  -4  -2  -1  111.95   10.85
   3   5  -4  260.14   27.21
   5   7   1  456.37   28.38
   3   6  -5  253.11   29.69
   4   5   1  669.97   24.65
  -4   0  -9 1231.76   40.67
   4   5   0  228.05   18.19
  -4  -1  -7  136.04   13.00
   2   2   4  372.06   11.66
   1   1   0 1644.89   18.29
   2   3  -3  237.36   19.68
  -3  -2   0 1240.90   28.71
   2   2   5  766.69   20.51
   4   5   2  923.97   24.07
  -3   0  -7  237.34   17.97
  -4   0  -8  801.31   31.45
  -3  -2  -1  737.76   18.67
   2   3  -2  331.17   20.31
   4   6   0  267.61   22.65
  -4   1  -9  234.01   22.35
   4   5   3  409.45   14.77
   2   3  -1  371.23   19.34
  -2  -1  -3 1416.09   17.34
  -2   0  -5  298.96   17.33
  -5  -1  -7  179.65   13.73
   3   6  -2  253.02   26.12
  -4  -1  -6  911.38   24.22
   3   4   1  328.91   16.08
   4   6   1  831.88   31.14
  -1  -1   0 1728.14   19.67
   3   3   7  525.06   19.76
  -3   0  -6  287.59   17.94
   4   6   2  511.78   23.58
   3   7  -3  594.17   40.27
  -4   0  -7  400.19   22.26
  -4   1  -8  522.02   28.90
   3   3   6  772.16   18.98
   3   6  -1  239.69   23.65
   2   3   0  847.70   23.61
   2   4  -2  545.67   26.64
   3   8  -3  640.56   45.48
   4   7   1  231.31   23.29
   4   5   4  242.16    9.10
   3   9  -3   79.53   30.91
   3   7  -2  178.49   24.45
   3  10  -3   32.43   37.54
   3   3  10   59.61   25.25
   2   8  12   40.53   52.98
   3   4  11   14.67   29.32
   3   0  14   47.70   46.54
   3   4  14  117.86   46.94
   3   4  12   11.54   34.54
   2   7   9   55.11   28.43
   3   4  13   12.50   39.07
   3   3  11   14.79   28.51
   1   9   9  239.00   47.32
   3   2  11  180.20   33.17
   3   3  14  135.43   44.51
   3   1  14  142.59   47.98
   3   3  12   56.54   33.25
   3   2  14  128.99   45.64
   3   3  13  152.21   40.13
   3   1  13  184.38   40.36
   3   2  12  190.37   37.17
   3   2  13  239.09   43.57
   2   7  10  139.66   33.92
   2   6   8  123.17   25.79
   1   9  10   38.56   52.65
   2   5   7  192.97   25.41
   2   7  11  122.51   40.34
   2   7  12   31.32   47.05
   1   9  11  -46.14   60.75
   2   6   9  346.00   35.08
   2   6  10  196.74   33.61
   3   0  11  246.29   37.18
   2   5   8  199.85   28.11
   3   1  10  219.03   33.93
   2   6  13   94.31   48.95
   2   6  11  193.59   39.19
   3   0  12  239.51   36.87
   2   6  12  130.24   42.12
   1   8   9   57.88   40.64
   3   0  13  159.24   36.66
   3   2  10  240.37   34.75
   2  -3   8  357.87   27.67
   1   8  10   16.23   44.21
   2   5   9  671.56   45.43
   3   1  12  340.14   43.18
   2  -1   6   50.86   12.90
   1   8  11    8.68   51.20
   0   8   5    3.01   27.54
  -1  -1  -2   -1.84    7.62
   1  -2   3 1221.66   23.40
   2   5  13  -15.75   43.98
   2   5  10  639.18   48.40
   2  -2   7   72.50   16.18
   2   5  12  218.80   38.22
   2   5  11  386.99   41.23
   2  -3   9  491.22   33.98
   1   7   8  106.79   29.04
   2  -1  14  154.62   50.90
   2   4  13   -1.58   41.76
   2   3  14  -27.25   46.83
   2   0   6  459.81   26.91
   2   4  10  480.12   42.69
   2   4  12  175.15   35.26
   1   2   3   16.31    9.35
   2   4  11  236.94   36.82
   2   0  14  169.81   47.74
   1   7   9  -41.29   34.33
   2  -3  10  265.19   30.53
   2   2  14   22.63   45.86
   0   8   6   71.98   32.50
   1   7  12   10.56   52.49
   2   1  14   60.25   46.05
   2   3  13    4.09   39.52
   2  -3  12  119.48   34.53
   1   7  11    2.27   46.13
   1   7  10   14.04   38.79
   2  -3  11  133.08   29.68
   2   3   9  130.16   25.63
   2  -2   8   44.05   17.68
   2   3  12   26.06   32.34
   2   0  13   55.69   39.89
   2  -1   7   95.15   17.91
   2   2  13   18.68   38.06
   2   3  11  193.83   34.68
   2   1  13   12.87   39.86
   1   1   3   -0.74    9.20
   2  -2  14   48.34   52.29
   1   6   7   -9.18   22.53
  -1   0  -2  179.47   10.70
   2   2  12    1.12   33.53
   0   8   7   58.55   35.40
   2   1  12   -9.04   32.86
   2   2  11   34.84   26.91
   1  -3   4 1106.20   29.48
   2  -2   9  127.51   23.56
   2  -2  13  270.91   41.38
   1  -4   5  654.99   28.05
   0   6   3   -0.80   14.81
   1   6  12   61.83   49.03
   0   8   8   77.94   39.56
   1   6   8  -70.64   26.32
   2   0   7 1067.62   41.87
   2  -2  12  141.75   33.58
   1  -5   7    3.60   17.06
   2  -2  10  201.81   28.62
   2  -2  11  147.41   27.78
   1   6  11   27.41   39.05
   2  -1   8    4.56   15.99
   1   6   9   -0.26   29.30
   1   5   6   47.37   17.70
   1  -1   3  442.44   16.97
  -1   1  -2   91.67    8.27
   1   6  10   -2.18   34.08
   0   8   9   91.79   44.59
   0   7   5   63.14   22.78
   0   8  10   33.23   52.68
   1   5  13   20.68   52.84
   0   8  11   96.34   61.76
   2  -1  13  169.11   38.66
  -2   3  -3  259.54   14.53
   2  -1   9   27.59   18.74
   2  -1  12  173.24   35.54
   2   0   8  108.30   20.98
   1   5   7   42.66   20.06
   1   5  12   64.33   43.37
   2  -1  10   39.97   23.06
   2  -1  11   91.60   26.88
   0   7   6  135.83   25.17
   1   5  11  117.76   35.54
   1   4  13   78.61   48.76
   1   5   8   60.66   22.33
   2   0   9   34.44   18.41
   2   0  12   85.47   32.09
   1   5  10   12.07   30.82
   1   2   4    8.50   11.42
   1   5   9  -24.90   26.46
   2   0  11   66.83   26.25
   2   0  10   28.10   22.14
  -2   0  -4 2226.17   43.76
   1   4   6   44.78   17.23
   2   1   9  151.83   26.50
   0   7   7  283.81   34.40
   1  -4   6  273.27   19.82
   1   2  14    2.13   52.55
   1   4  12   75.02   39.32
   2   1  11    3.21   28.21
   1  -1  14  -13.20   57.72
   2   1  10   80.96   24.94
   2   2  10   18.42   23.94
   0   7  11  134.01   52.18
   0   7   8  220.15   32.73
   0   7   9  233.41   38.41
   0   7  10  161.66   46.60
   1   3  13  137.74   44.43
   1   3   5  153.90   20.42
   1   1  14    5.94   52.47
   1   0  14  -10.00   53.64
   1   4  11  217.84   39.01
   1   4   7   -1.76   17.78
  -3   4  -4  442.87   22.65
   1  -2   4 2196.72   38.25
  -1   8  10  -19.53   61.59
   1   2  13  154.85   43.31
  -2   1  -4 2071.63   40.91
   1   4  10  176.22   34.50
   1   4   8   50.50   20.55
  -1   8   6  117.43   34.59
   1  -1  13   -3.68   44.31
   1   4   9  103.40   27.21
   1  -3   5 1308.53   35.62
   1   1  13  118.14   42.87
  -1   8   9  -45.68   53.64
   0   6  12   62.50   53.34
   1   0  13   17.20   42.64
   1  -4   7   33.36   16.50
   1  -4  11  -12.80   33.51
   1   3   6  106.95   19.04
   0   6  11   63.08   45.01
   1   2   5   21.08   15.14
   1  -2  14   28.60   57.35
  -1   8   7   21.40   40.74
   1  -4  10   12.29   27.43
   1   1  12  215.52   40.52
   0   6  10  154.54   38.36
  -1   7   3  188.43   21.88
  -1   8   8   21.44   46.17
   1  -4   9   -0.10   23.49
   1   0  12   69.30   35.83
   1   2  11  371.67   44.83
   1   3   8   61.20   20.37
   0   5  12   10.26   48.48
  -1   7  11  147.40   61.32
   1  -2  13   19.73   44.24
   0   4  13   61.25   50.98
   1  -1   4 1032.68   29.43
   1  -3   6  298.76   20.20
   0   5  11   40.26   38.23
   1  -3  11    1.58   30.79
  -1   7  10   91.87   49.90
  -2   2  -4  337.61   18.76
   1   2   8  167.25   25.87
  -1  -7   1   18.75   14.11
  -1   7   4  122.78   22.98
   1  -2  12  -10.68   35.86
  -1  -1  -3    3.47    9.08
   0   4  12   -2.33   43.57
   0   3  13   66.03   48.21
   1  -2   5 1298.81   36.10
   0  -2  14   18.71   63.82
   1  -3  10  -10.67   25.74
  -1   2  -2 1459.15   24.99
  -1   7   9   -3.63   44.88
   0   5  10  135.90   32.76
  -1  -2  -3    3.10    9.80
   1  -3   7  479.14   28.28
   0  -1  14   29.38   58.30
   1  -3   9   11.86   21.20
   1  -3   8  241.47   25.83
   1  -1  12   16.87   34.39
   1  -2  11   -5.94   29.35
   0   2  13   46.70   45.54
  -1   7   7   16.30   32.78
  -1   7   6   59.97   30.24
  -1   6  11  199.26   50.56
   0   4  11    5.83   35.23
  -1   7   8   17.25   37.75
   0   3  12   30.89   39.08
   0   1  13   30.83   44.73
   1  -2   6  498.27   26.81
   1  -1  11   17.24   28.92
   1  -1   5  110.96   14.80
   0  -3  14   -9.94   65.81
   0   0  13  271.01   49.53
   0   4  10    5.71   29.81
  -1   6  10  147.02   44.33
   0  -1  13  284.27   48.74
   1  -2   9  372.24   33.72
   1   0  11  298.99   40.07
   0   2  12  149.33   40.01
   1  -2   7  790.19   36.34
  -2   7  10   -7.15   62.11
   0   3  11   -0.23   32.73
   1  -2   8  527.65   33.99
   1   0   5   90.66   14.49
   1  -1  10   72.85   26.96
   0   4   9    4.17   24.98
   1   0  10  115.39   26.75
   1   1  10  245.60   34.28
   0   1  12  187.44   43.57
   1  -1   6 1707.43   45.12
  -1   5  11  157.10   47.40
   1  -1   9  694.86   42.21
  -1   6   9  100.34   38.63
   0  -3  13   39.97   52.70
  -2   7   9  144.80   53.34
   1  -1   8  712.74   39.02
   0   3  10   14.00   27.32
  -1   4  12   85.36   50.56
   1  -1   7 1849.69   52.52
   1   1   9  186.63   29.69
   0  -1  12  256.80   45.89
   0   2  11   83.89   30.62
  -1   6   8   58.40   31.63
   1   0   8 1213.66   49.32
  -1   0  -3  823.31   22.78
   1   0   7  830.03   38.08
  -1   6   7    0.15   27.06
   0  -2  13  105.52   45.97
  -2   7   8   68.96   44.70
  -1   5  10  105.76   38.16
   0  -3  12   13.39   39.88
   0  -4  11   12.52   35.31
  -2  -2  -3  580.34   24.68
   2   2   5  811.08   34.05
   2   4   6  277.66   25.57
   1   8   7  831.73   50.04
   1   4   3 1290.65   37.14
   2   3   6  674.90   35.19
   1   8   8  361.06   39.78
   1   7   6  677.94   41.32
   2   2   6 2351.90   59.86
   2   4   7  419.65   32.29
   2   1   5 1322.27   40.69
   1   5   4 1075.61   39.81
   1   6   5  450.12   31.51
   3   1  11  294.56   39.12
   1   3   3  496.28   23.13
   2   3   7 1101.06   46.70
   1   7   7  491.54   39.01
   2   4   8  501.43   37.47
  -1  -4  -1 2486.36   39.33
   2   2   7 1447.98   51.75
   2   4   9  359.23   35.76
   2   3   8  551.85   38.15
   1   6   6  275.77   28.71
   1   4   4 1834.18   48.22
   2   2   8  995.75   47.59
   1   5   5  207.21   22.60
  -1  -2  -2  133.37   12.26
   2   1   6 1757.52   51.07
   0   4   1  538.12   18.15
   2   3  10  432.98   42.60
   2   2   9  231.22   29.73
   0   5   2  383.52   20.76
   1   3   4  995.07   35.72
   2   1   7  872.51   41.52
   1   4   5  253.63   23.42
  -1  -3  -2  428.21   19.10
   2   1   8  685.35   40.10
  -1   7   2  503.01   26.83
   1   0   3  763.36   23.38
   0   6   4  190.88   23.04
  -1  -6   0  443.11   19.44
  -1  -5  -1 1415.91   33.44
   1   1   4  500.47   23.85
   1   3  12  554.47   54.62
   0   6   5  565.12   35.52
   0   5   3  956.51   34.95
   1   3  11  411.66   44.75
   1   2  12  440.81   50.37
   0   3   1  528.82   16.92
   1   3  10  461.14   45.03
   1   3   7  218.68   25.09
   0   6   6  301.28   30.53
  -1  -4  -2 1475.10   36.12
  -1   6   1 1420.53   32.87
   1   3   9  260.07   31.50
   0   6   9  686.87   51.00
   0   4   2 1083.38   30.67
   0   6   7  389.79   36.61
   0   6   8  524.25   44.21
   1   1  11  552.29   49.25
   1   2   6  597.29   32.73
   1   2  10  987.17   57.11
   1   2   9  277.11   33.50
   1   2   7  558.93   35.08
   0   5   4  460.76   28.13
   1   0   4  291.72   18.33
  -1   7   5  320.78   30.10
   0   5   9  290.17   37.79
   0   5   5  545.04   32.77
   0   5   8 1350.62   61.18
   0   5   6  283.13   28.59
   0   5   7 1160.49   53.00
   0   4   3 2081.23   46.45
  -1  -3  -3  574.88   24.51
  -1   6   2  835.58   31.14
   1   1   5 1269.03   39.58
  -1  -5  -2 1015.67   32.33
  -1   5   0 1106.08   21.24
  -1  -6  -1  320.40   19.64
   0   0  12  441.03   52.52
   0   4   4  921.25   35.66
   0   4   8  406.47   36.11
   1   1   6  370.21   26.49
   1   0   9  532.25   40.39
   1   0   6  615.23   31.78
   0   3   2  953.95   26.49
   1   1   8 1055.98   48.28
  -1   6   3  261.28   22.71
   1   1   7  356.42   28.76
   0   4   7  814.02   44.15
   0   4   5  831.51   36.68
   0   4   6 1282.02   48.51
   0   2   1 1058.85   20.34
   1   4   9   94.89   21.89
   1   5  10   22.90   26.29
  -1   6   9  118.29   33.03
  -3   6   6   99.40   34.65
  -2   4   6  235.10   31.90
  -2   5   7  120.26   27.79
  -4   5   3  205.83   31.49
  -4   6   4  188.36   37.42
   1   6  11   39.08   33.85
  -2   6   8   29.87   35.54
   1   3   8   56.51   17.31
  -2   3   5   32.96   16.56
  -3   7   7   21.08   44.59
  -5   6   1   79.70   39.00
   0   7  11  100.69   43.85
  -1   7  10  111.79   43.36
  -5   7   2  105.00   48.77
  -4   7   5  131.68   46.16
   3   6  12  -42.92   37.08
  -5   5   0   69.04   30.02
   1   7  12    5.23   46.35
   3   5  11    4.20   27.83
  -2   1   1   55.16   11.27
  -1   5   9  216.99   34.03
  -4   5   4   33.59   30.38
  -3   6   7   88.16   38.33
   0   4   9   -9.11   23.55
   0   5  10   96.48   29.86
  -5   6   2  173.66   42.24
  -4   6   5  114.48   39.37
  -5   7   3  144.12   51.26
   2   6  12  161.24   38.84
  -1   6  10  123.97   38.14
  -4   4   3  136.64   25.94
  -5   5   1   94.42   32.00
  -2   5   8   17.30   31.49
  -2   4   7    2.39   24.52
   3   4  10   21.06   22.49
   0   6  11   63.55   38.70
  -2   2   3   41.11   14.44
   0   3   8    7.39   18.97
   1   5  11  107.53   30.92
  -2   3   6   -4.39   19.54
   2   7  13  199.95   48.25
  -2   6   9   -3.41   40.55
   1   4  10  146.83   25.64
   0   2   6  109.93   17.50
   2   3   9  117.03   21.34
  -5   6   3   46.55   42.69
   1   6  12   93.55   39.91
  -5   4   0  166.28   28.16
   0   1   4 2070.44   42.36
  -5   5   2  208.84   33.76
  -4   5   5   -3.04   31.41
  -4   6   6   24.10   43.60
   3   3   9   49.34   17.84
  -3   6   8  112.63   44.15
  -4   4   4   -1.53   26.48
   0   0  -4  313.38   17.39
  -1   5  10  163.65   34.72
  -2   5   9  -17.38   36.77
  -2   4   8    5.65   28.42
   0   5  11   30.14   34.76
   0   4  10  -38.50   28.43
  -1   6  11  220.17   44.59
  -5   6   4  145.98   46.50
  -2   1  -7   69.57   11.94
  -5   5   3  200.61   38.46
   1   1   5 1220.45   31.26
   4   1   3    0.75    8.17
   0   6  12   58.41   45.17
  -3   1  -2   39.93    7.92
  -5   4  -1  144.36   24.30
  -4   3   3  182.35   27.53
  -2   3   7   13.45   23.30
   2   5  12  202.25   36.19
  -4   5   6   20.94   37.54
   0   0  -3  828.89   22.30
   3   4  11  -14.74   27.05
   2   6  13  131.45   43.40
   0   3   9   11.19   23.06
  -3   5   8   89.90   38.39
   4   1   2   16.16   10.70
  -4   4   5   -3.47   30.15
  -5   4   2  253.65   35.11
   2   1   5 1262.47   24.62
   1   5  12  104.70   38.54
   0   2   7   96.23   17.57
  -5   5   4  253.03   40.20
   1   6  13  189.52   49.30
   1   4  11  256.23   33.48
  -4   3   4    7.48   23.23
   0   0  -2  204.70   10.08
  -1   5  11  196.55   38.65
  -5   3  -3   32.96   17.22
  -2   4   9   30.14   33.72
   0   1   5 1527.33   40.85
  -2   5  10   25.90   43.65
  -5   4   3  306.39   36.51
  -4   5   7  -15.50   42.08
  -4   2   1  126.89   19.89
  -2   2   5   41.44   15.28
   0   5  12  -33.44   41.41
  -4   4   6   94.63   33.02
   1   0  -1   53.92    7.87
  -2   3   8   61.07   26.80
   0   4  11    0.90   33.20
  -3   5   9  146.19   45.92
  -3   4   8  277.07   40.20
  -5   5   5  282.42   42.37
  -6   5   1   92.30   43.11
   3   3  10   61.84   20.20
  -3   2   5  141.88   23.38
  -4   3   5  134.75   26.11
  -3   3   7  190.05   32.31
  -5   4   4  255.37   35.89
   0   3  10    0.76   26.73
  -4   2   2   19.28   16.37
   2   5  13   29.28   43.52
   1   1   6  347.40   21.01
  -6   5   2   14.07   46.18
  -4   2   3   -2.35   18.33
  -2   2   7   39.93   21.29
   0   2   8   99.08   18.06
   1   5  13  135.06   45.65
  -2   4  10   61.86   39.74
  -4   4   7   37.95   38.25
  -1   5  12  117.58   48.47
  -1   4  11  160.21   38.67
  -2   2   6    9.63   16.98
   3   2   8   -4.38   11.21
  -2   1  -6   34.59    8.19
   2   4  12  220.08   33.33
  -6   4   0   60.52   33.46
   1   4  12   95.83   36.66
  -3   4   9   67.63   41.74
  -2   3   9  106.63   31.62
  -5   4   5  163.63   37.50
  -6   5   3  -84.95   50.62
  -4   3   6   72.46   30.22
   0   2   9    0.82   21.25
  -6   4   1   10.33   36.26
  -4   2   4  -16.93   20.59
   0   5  13  -33.01   51.64
  -3   3   8  197.18   33.18
   0   4  12  -37.00   39.21
  -2   1   4   90.47   16.44
  -6   4   2   76.42   39.81
  -4   4   8    2.53   43.68
  -5   3   4  256.92   34.06
  -2   2   8  154.52   25.33
  -5   4   6   43.23   43.96
   0   3  11    9.12   31.80
  -2   4  11   81.82   47.94
  -4   1   0   12.31   11.41
  -4   2   5  207.16   30.57
  -4   3   7  206.36   36.23
  -3   2   7  232.17   33.89
  -1   4  12  118.72   47.98
  -3   4  10  114.10   48.87
  -6   4   3  167.00   44.00
  -4   1   1   19.37   13.17
   2   4  13   44.82   41.13
  -2   3  10   79.20   36.56
   3   3  11   23.62   23.70
   1   5  14  143.14   56.94
  -5   2   2  183.91   26.74
  -5   3   5  120.63   36.11
  -3   3   9   15.57   38.96
   0   1   7    8.24   12.92
   0   0   2  198.16    9.80
  -2   1   5   12.27   13.34
  -1   3  11  111.04   36.34
  -4   1   2  100.19   18.13
   1   4  13   86.57   43.80
  -6   3  -1   45.22   26.77
  -6   3   0   26.09   29.17
  -6   4   4  129.48   48.47
  -6   3   1    4.12   30.42
  -4   2   6  288.77   37.10
   0   4  13  148.19   48.56
  -4   3   8  174.39   37.91
   0   2  10   43.38   24.65
  -1   0   1   49.88    7.65
  -3   2   8   10.59   30.24
  -6   3   2   95.37   34.20
   2   2  10   23.46   20.55
  -5   3   6   75.79   40.29
  -1   1  -5   98.60   11.07
   3   2   9   18.61   13.29
   0   0   3  815.57   21.71
  -3   1   6  167.12   27.08
  -5   2   4  121.50   27.33
  -2   3  11  205.54   42.86
   0   3  12   29.40   37.54
  -1   2  10  238.19   31.76
  -2   1   6   55.80   16.38
  -3   3  10   16.55   45.85
  -6   3   3  117.81   39.02
  -4   1   4   72.09   18.73
   0   1   8  -13.25   16.59
  -1   3  12  104.38   44.32
   2   3  12   46.99   30.33
  -5   3   7   23.01   45.36
  -4   3   9  138.51   47.07
  -5   2   5  -13.66   31.53
  -2   2  10  168.53   35.36
  -6   3   4   99.76   42.95
   0   0   4  327.58   17.32
  -3   2   9  -15.30   36.66
  -4   1   5  241.83   30.93
   1   4  14  285.90   53.40
  -3   1   7   65.58   23.17
  -2   2  -7   75.76   13.84
   0   2  11   62.42   30.50
  -1   1   9   22.48   23.09
   0   1  -4  115.94   12.04
  -4   2   8  383.46   44.15
  -6   3   5  152.64   48.63
  -5   2  -4   51.80   13.12
  -5   2   6  -10.60   35.75
  -6   2   1   70.50   28.20
  -1   2  11   34.59   34.91
  -3   2  -7   94.72   11.54
   0   0   5  193.82   16.36
  -5   1   1   23.95   17.35
  -6   2   2  126.11   30.66
   0   3  13   56.43   47.11
   1   3  13  189.47   42.64
   0   1   9    2.81   19.43
  -2   0   3   32.01   12.03
   1   1   9  169.11   21.37
  -1   3  13   28.28   54.80
  -2   1   9  222.31   31.16
  -3   2  10   63.36   41.18
  -3   1   8   23.70   28.90
  -2   2  11  171.94   42.30
  -6   2   3  246.81   34.72
  -5   1   2  119.85   20.83
  -5   2   7  -14.26   40.16
  -5   1   4  124.26   24.78
  -4   2   9  130.51   42.52
   0   1  10  183.16   28.29
  -6   2   4  106.02   37.07
   0   0   6   15.19   10.62
  -6   2   0   21.99   26.06
  -6   2  -1    2.67   23.63
   0   2  12  185.82   35.38
  -5   1   5   -6.59   28.95
   2   2  11   33.12   24.50
   4   2   2   10.35   11.86
  -3   1   9  -40.34   34.50
  -3   0   6   22.11   18.61
  -1   2  12   30.75   41.51
  -6   2   5  181.73   42.40
  -7   3   3   39.44   56.16
  -3   2  11    8.76   53.12
  -1   1  10    0.05   27.58
  -2   2  12  161.68   50.19
   2   1   0    1.88    6.89
  -4   0   0   39.40   11.75
   0   3  14   76.44   57.99
  -4   1   8  301.98   39.21
   1   0   4  248.93   11.98
   2   2  12  -11.89   29.73
  -5   1   6   51.44   33.00
   1   3  14  187.69   51.33
   1   0   5   73.80   10.06
   0   0   7  128.25   17.43
  -6   2   6  161.74   49.58
  -3   0   7  -11.63   23.10
  -1   2  13    1.11   51.61
  -3   1  10  -26.67   37.93
   1   0   6  610.86   24.01
  -5   1   7   72.62   40.06
  -1   1  -4 1025.90   23.91
  -4   1   9  120.17   40.81
  -2   1  11  208.39   39.56
   0   2  13    7.08   46.61
  -2   0   7  124.58   22.08
  -1   1  11   25.65   33.17
   1   0   3  708.56   14.47
  -6   1   4  201.00   34.60
  -4   0  -1   96.74   12.75
   1   1  -2 1274.77   29.25
  -3   0   8    3.70   26.08
  -7   2   2   54.18   42.18
  -1   0   8    3.58   18.07
   0   1  11  197.33   31.24
  -7   2   3   11.01   47.24
   0   1  -3  176.55   11.93
   1   2  13  182.75   40.77
  -5   0   3   29.78   20.25
  -4   0   7  200.66   32.44
  -6   1   5  121.81   40.03
  -6   1   1  209.46   25.46
  -5   1   8   34.64   44.70
   2   1  10   64.93   18.03
  -6   1   0  164.50   23.25
  -7   2   4   89.59   52.83
  -6   1   2  218.23   29.66
   4   2   3   83.47   11.22
  -3   1  11  111.58   49.17
  -5   0   5   -2.25   26.31
  -5   0   4   24.20   22.87
  -6   1  -1  134.70   21.71
  -6   1   6  167.08   45.37
  -3   0   9   90.96   32.11
  -2   1  12  119.06   46.86
  -1   0   9   57.19   21.63
   0   0   9   29.95   17.75
  -1   0  10    2.26   26.45
  -4   0   8  147.10   33.49
  -2   2  -6   -2.64   10.89
  -1   1  12    6.14   39.51
  -3  -1   4   66.55   13.76
  -5   0   6   46.19   30.16
   0   2  14   55.17   54.81
  -3  -1   5  103.35   17.62
   0   1  12  226.10   34.84
  -5   0   7   86.10   36.56
  -3  -1   6   22.46   18.09
  -3   0  10  148.39   37.88
   2   1  11   22.68   22.41
  -6   1  -2   -0.86   19.03
  -4   0   9   52.57   40.80
  -7   1   2   -6.24   38.63
  -7   1   3   50.18   42.60
  -2   0  11  283.10   39.27
  -7   1   4   39.05   47.78
  -7   1   1   60.97   34.93
  -3  -1   7    4.86   22.12
  -5   0   8  145.39   44.98
  -1   1  13  -25.99   51.49
  -4   0  -2   23.40    8.50
  -6   0   5   93.32   37.43
  -4  -1   6  159.07   27.27
  -4   0  10   36.49   47.26
   0   1  13   48.86   44.61
  -6   0   3  252.64   33.99
  -1  -1   5 1471.96   42.61
  -6   0   6   15.91   41.08
  -3  -1   8   80.67   26.61
  -1   2  -5 1348.24   33.69
   2   1   1   23.49    6.54
  -1  -1   4 1296.01   36.36
  -4  -1   7  129.82   29.66
  -1  -1   6  569.07   30.03
   1   0  10  151.80   21.21
  -1   0  11   22.41   32.02
  -5  -1   4   -3.18   22.33
  -5  -1   3   24.91   19.66
   2   1  12   16.79   27.58
  -2   0  12   58.08   47.59
  -3  -1   3  104.75   15.47
  -1  -1   7  108.37   17.72
   4   2   4    3.07    8.19
  -5  -1   2   11.45   17.42
  -5  -1   5    0.55   25.56
   0   2  -4  253.73   17.41
  -3  -1   9  105.56   31.08
  -4  -1   8   75.76   31.85
  -1  -1   3  555.37   22.24
  -5  -1   6   78.12   29.04
   2   2  -1   32.49   10.75
  -1  -1   8   35.92   17.32
  -2  -1   2   70.47   12.39
   1   1  13  100.05   38.03
  -5  -1   7  192.79   39.46
   1   0  11  209.30   26.32
  -2  -1  10  167.78   30.06
   0   1  14   78.53   54.36
   0  -1   6  522.40   26.09
  -1   0  12   10.18   39.03
  -7   0   3   92.58   40.48
  -4  -1   9  -21.52   39.84
  -7   0   4   44.58   45.08
  -4  -1   0   -6.33   10.82
  -3  -1  10  193.48   37.21
   0  -1   7  419.59   25.80
   0  -1   5    3.91    9.22
  -7   0   5   77.16   53.11
  -1  -1   9   45.77   21.29
  -5  -1   8  308.07   45.57
   1   1  -1   30.77    7.53
  -6  -1   5   38.98   34.65
  -4  -1  10  -15.66   45.55
  -2  -1  11   33.01   36.75
  -6  -1   6  -13.02   39.68
   0  -1   4  111.53   12.24
  -6  -1   3  106.51   26.22
  -3  -1  11  116.97   45.69
   1   0  12   75.98   29.42
  -6  -1   2   75.68   23.41
  -6  -1   4  163.85   31.45
   0  -1   9  166.60   21.96
  -1  -1  10  -22.19   25.44
  -3  -2   5    5.06   15.14
  -1  -1  11   24.38   31.07
  -1   0  13   37.92   48.56
  -3  -2   6   11.59   18.68
  -6  -1   7   12.76   46.68
  -7   0   2    5.42   35.19
  -7   0   0   19.97   30.16
  -3  -2   7   47.12   21.49
   2   0   8  113.69   13.98
  -1   0  14   35.60   61.89
  -4  -2   6  121.11   25.28
  -7   0   1  -14.85   32.74
  -4  -2   7   53.56   25.17
   2   0   9   20.32   14.08
  -2  -1  12  -23.33   45.61
  -3  -2   8  147.04   24.72
  -2  -1   0   -1.12    6.41
   0   1  -2   55.84    7.32
   0   0  13  238.21   42.07
  -6   0  -2   30.12   18.44
  -5  -2   5   94.46   25.99
  -1  -1  12  125.25   36.67
  -4  -2   8   17.43   31.65
  -5  -2   4  211.71   29.71
  -5  -2   6  239.59   36.38
   1   0  13    4.66   36.11
  -7  -1   4  148.83   42.19
  -3  -2   9   28.03   29.83
   2   0  10    3.67   17.38
  -7  -1   5   28.67   48.25
  -5  -2   3  151.89   23.88
  -5  -2   7  237.97   42.94
  -2  -2   9   88.51   24.53
  -4  -2   9   39.68   37.19
   0  -1   3  165.82   11.54
  -5  -2   8   98.69   39.84
  -3  -2  10  176.94   36.76
  -5  -2   2    9.11   17.41
  -2  -2  10   28.20   30.03
   2   0  11   71.80   21.01
  -3  -2   4   58.46   15.67
   0   0  14  133.53   53.35
  -4  -2  10  -14.00   45.35
  -6  -2   6  -34.39   39.11
  -7  -1   3  113.87   37.87
  -6  -2   4  144.96   29.30
   1  -1   7 1763.03   42.80
  -6  -2   3  116.45   25.83
  -7  -1   2   36.97   33.29
  -6  -2   7   26.32   45.85
  -6  -2   5   45.55   33.70
  -1   1  -3  444.24   13.20
  -3  -2  11  181.10   44.39
  -2  -2  11   -0.60   35.21
  -1  -2   7   30.40   13.56
   1   2  -2 5131.29   59.93
   2   2   0   31.26    8.63
  -1  -2   8   -4.43   17.52
   1  -1  10   67.92   19.98
  -1  -2   6  228.04   21.17
  -7  -1   1   51.39   30.16
  -5  -2   1    5.75   15.66
  -6  -2   2   28.06   22.72
   4   3   3   16.71   12.44
  -4  -1  -1   61.83   10.57
  -1  -2   9    3.97   21.43
   1  -1   6 1715.21   38.81
  -1  -1  13   68.39   47.44
  -8  -1   3   14.30   54.79
  -1  -2   5  961.43   35.89
   0   2  -3    3.39    7.37
   1  -1  11    6.72   23.46
  -2  -2  12  -61.74   45.14
  -7  -2   5  109.57   46.06
  -1  -2  10   36.18   24.97
  -1  -1   1   35.27    7.61
  -4  -3   6   99.48   23.92
  -4  -3   7  -25.80   26.75
  -1   2  -4 2091.78   36.61
  -7  -1   0    2.69   28.98
  -4  -3   5   63.28   21.03
  -6  -2   1   13.33   21.11
  -3  -3   7   45.53   22.55
  -3  -3   6  196.08   27.98
  -4  -3   8   13.40   31.86
  -5  -3   6  152.91   30.70
  -3  -3   8   85.57   25.41
  -5  -3   7   83.86   33.43
  -4  -3   4   68.87   18.84
  -1  -2  11   61.97   30.43
   1  -1  12   -1.86   28.56
  -1  -2  12  110.69   37.36
  -1  -1  14   -4.12   59.35
  -4  -3   9   20.29   37.83
  -3  -3   9  224.12   36.80
  -5  -3   8   64.05   39.95
  -7  -2   4  174.48   40.75
  -6   0  -3   22.14   15.55
  -1  -2   4  588.92   27.34
  -7  -2   3  183.13   36.74
   0  -2   8  434.63   29.13
   0  -1  13  215.25   41.10
   0  -2   7  208.90   20.06
  -3  -3  10  150.85   36.16
  -4  -3  10   -9.87   47.40
  -7  -1  -1    2.24   25.71
  -5  -3   3  168.38   25.85
  -7  -2   2  125.41   33.10
  -6  -3   5  -14.41   32.98
   0  -2  10   90.24   22.13
   1  -1   5  107.91   11.49
  -2  -3   9   31.42   25.65
  -6  -3   6   13.71   37.71
  -6  -3   4    8.64   28.93
  -1  -2  13  159.52   46.86
   0  -2  11  170.51   26.56
  -2  -3  10   49.34   30.67
  -3  -3  11  173.12   45.24
   0  -2   6  430.67   24.96
  -6  -3   3   20.66   25.50
  -7  -2   1   81.91   29.64
  -8  -2   3   64.71   51.21
  -6  -1  -2  129.99   16.88
  -5  -3   2  158.50   24.43
  -2  -2   2   76.10   12.78
  -2  -3  11    3.22   36.44
  -7  -3   5  140.34   45.97
   0  -2  12  169.67   31.79
  -2  -3   8   25.73   21.64
   0  -1   2   28.90    7.26
  -3  -3   4   19.87   13.62
  -8  -2   2  -35.06   45.51
  -2  -2   1   38.44    9.97
  -6  -3   2  155.43   28.65
  -1  -2   3  908.40   30.09
  -4  -1  -2   13.90    8.03
  -2  -3  12   13.14   46.00
  -7  -2   0   66.36   27.18
   0  -2   5  251.48   18.97
  -7  -3   4  131.13   40.67
   0  -2  13  117.75   41.62
  -4  -4   7   17.76   29.46
  -7  -3   3   51.12   36.45
  -5  -4   7   34.94   34.47
  -4  -4   8   31.05   33.55
  -5  -4   6  117.40   30.42
  -4  -4   6   23.76   23.46
  -2  -3   5  634.22   34.34
   4   3   4   27.85   11.51
  -5  -4   8   68.85   40.99
  -5  -3   1    6.56   16.12
  -1  -3   9   55.65   22.54
  -4  -4   9   25.87   40.04
  -1  -3   8  123.27   22.32
  -5  -4   5  244.23   35.84
  -1  -3  10   20.43   25.64
  -6  -3   1  155.51   27.20
  -4  -4   5    9.55   20.92
  -3  -4   8  163.34   31.26
  -6  -4   6    2.23   39.28
  -7  -3   2  241.99   35.34
  -3  -4   7  193.14   28.42
  -2  -1  -1   23.87    5.86
  -1  -3   7   16.76   15.45
  -6  -4   5   12.49   35.75
  -5  -4   4  191.43   30.75
  -1  -3  11  171.45   31.70
  -3  -4  10  123.84   38.28
   2  -1  10   30.91   17.49
   2  -1  11  100.63   21.83
  -6  -4   4   17.14   30.23
  -4  -4   4   44.68   18.46
  -8  -3   3   15.33   51.40
   1  -2  10   15.78   20.33
  -2  -3   4  538.24   29.37
  -1  -3   6   54.44   14.24
  -1  -3  12  200.93   40.57
   2  -1   9   20.29   14.96
   1  -2   9  334.79   25.58
  -3  -4  11  -31.98   47.15
   1  -2  11   24.23   23.98
  -7  -2  -1   28.78   25.96
  -2   3  -5   26.74   12.92
  -5  -4   3  238.45   31.50
  -6  -4   3  -18.00   26.89
   1  -1   4 1048.09   23.36
   1  -2  12   -2.03   30.45
   1  -2   8  448.23   26.63
   0  -2   4  279.63   18.05
  -2  -4  10   23.22   31.96
  -1  -3  13  131.79   50.14
  -4  -4   3  149.72   23.67
  -6  -3   0  107.16   21.12
  -5  -3   0   15.27   14.74
  -7  -4   4   45.02   41.15
   2   2   1    3.37    6.68
  -2  -4  11   -1.93   38.69
  -1   3  -4 1262.95   37.04
   0  -3  10  183.00   26.43
  -1  -3   5  208.28   20.56
   2  -1   8   -3.38   11.16
   0  -3   9  709.81   39.01
   0  -3  11   65.15   27.72
  -7  -4   3    1.19   38.31
  -8  -3   2  -79.36   46.36
  -6  -4   2   18.42   24.21
  -1  -2   2 5005.77   60.60
  -2  -4  12   80.39   49.39
  -8  -3   1  -28.95   41.96
   0  -3   8  655.24   35.47
  -7  -3   0  175.47   28.33
  -2  -4   9   11.81   27.15
   0  -3  12   50.89   34.43
   1  -2   7  753.86   30.78
  -2  -4   8   10.56   23.30
  -2  -3   3  218.95   19.53
  -5  -5   7   36.52   36.83
  -6  -1  -3   77.99   15.64
  -5  -5   6  124.26   33.20
  -4  -5   8   -2.37   35.73
  -4  -5   9   98.20   41.62
  -4  -5   7    3.76   31.01
  -2  -4   7  144.67   22.75
  -7  -4   2   30.91   33.71
  -6  -5   6  115.33   42.09
  -3  -4   4  139.18   21.18
   0  -3  13  -20.09   44.68
   0  -3   7  440.97   28.79
  -5  -5   5   97.64   29.91
  -4  -5   6   60.86   27.28
  -6  -5   5   41.79   37.61
  -2  -2   0   22.85    8.35
  -2  -4   6  392.78   31.01
  -3  -5   9   46.35   34.37
  -3  -5   8  141.43   29.96
  -6  -4   1  199.81   29.43
  -1  -3   4  249.14   21.17
   0   2  -2  841.91   22.44
  -4  -5   5    3.84   22.78
  -3  -5  10   -1.23   43.80
  -6  -5   4   41.50   33.21
  -5  -5   4  156.39   33.67
  -5  -4   1   17.98   17.12
  -1  -4  10   73.20   28.22
  -1  -4   9  204.66   26.25
  -1  -4  11   61.85   34.34
  -6  -3  -1  247.71   25.67
  -7  -4   1  181.06   32.79
  -7  -5   4   70.24   43.26
  -1  -4   8  158.38   23.28
   0  -3   6   86.22   14.95
  -1  -4  12   75.29   41.99
   1  -2   6  497.86   24.02
  -7  -3  -1   60.31   25.82
  -2  -4   5  535.99   33.75
  -6  -5   3    0.18   29.88
  -4  -5   4   68.69   22.33
  -5  -3  -1   11.93   13.53
  -8  -4   2   33.88   47.54
  -5  -5   3  291.83   34.49
   4   3   5   92.77   12.45
  -1  -4  13   77.82   53.26
  -7  -5   3   13.69   40.73
  -1  -4   7  180.64   24.10
  -2  -5  10   49.69   35.98
  -2  -5  11  -15.14   45.03
  -1   2  -3 1283.46   27.48
  -6  -4   0  261.38   31.17
  -3  -5   6  201.54   32.27
  -5  -6   7   -9.69   41.79
   0   1  -1 1768.62   22.42
  -3  -4   3    1.73   13.40
  -6  -5   2    9.73   25.30
  -8  -4   1  -37.66   43.01
  -7  -4   0  311.65   37.29
  -4  -2  -2   -3.61    8.44
  -7  -5   2    3.99   35.25
  -5  -6   6    6.62   35.72
   1  -3  11    7.91   27.61
  -1  -4   6   93.57   16.77
  -4  -6   8  -16.40   41.68
  -2  -4   4  359.74   27.55
  -5  -5   2  161.19   28.72
  -5  -4   0   26.51   15.30
   1  -3  10   -5.93   22.04
  -2  -5   9   38.74   29.72
  -6  -6   5   52.79   39.63
  -4  -6   7   46.27   34.48
   0  -4  11  -11.23   31.00
   0  -3   5   47.52   12.31
  -1  -3   3  444.86   24.48
   0  -4  10  241.67   28.53
  -5  -6   5   17.27   31.77
  -2  -5   8   -8.39   25.93
   0  -4  12   20.49   39.83
  -4  -6   6  113.57   30.95
   1  -3   9   -2.05   18.43
  -4  -1  -3   12.19    7.13
   0  -4   9  311.69   29.24
  -6  -6   4  130.35   35.18
  -3  -6   9   15.76   39.06
  -3  -6  10   30.60   47.44
  -2  -5   7    8.46   22.57
  -4  -5   3   54.59   21.27
  -3  -6   8   50.17   34.44
  -8  -5   2   24.83   48.80
  -6  -5   1   74.05   23.30
  -5  -6   4   50.88   27.05
  -7  -5   1   35.92   31.79
  -4  -6   5   35.06   25.57
  -6  -3  -2  293.82   26.85
  -7  -3  -2   21.77   22.81
   1   3  -1 9999.00   86.84
   0  -4   8  350.16   32.24
   1  -2   5 1412.45   34.09
  -3  -4   1   17.33   13.26
   1  -3   8  247.30   21.67
  -6  -6   3   17.05   32.03
   2   3   1   26.79    9.21
  -6  -2  -3  199.53   18.82
  -3  -4   2  125.20   19.58
  -1  -5  11  111.86   39.69
  -7  -6   3   69.21   41.14
  -5  -5   1  274.24   30.16
  -1  -5  10  172.32   30.72
  -2  -5   6  152.80   24.77
  -1  -5  12   34.66   48.04
  -7  -4  -1  133.02   26.66
  -6  -4  -1  165.70   24.89
  -1  -5   9  202.88   26.97
  -8  -5   1    5.10   43.20
  -5  -6   3  189.18   33.15
  -4  -6   4    5.61   23.08
   2  -2   9  120.28   16.09
   2  -1   6   61.49    9.57
   0  -4   7  792.82   41.45
  -2  -6  11   -3.07   50.30
  -5  -3  -2   40.37   12.90
  -3  -6   7  169.10   32.07
  -1  -5   8   52.94   23.27
  -7  -6   2  108.82   37.99
  -6  -6   2   31.72   27.33
   0   3  -2    4.78    8.84
  -7  -5   0  178.90   31.50
  -5  -4  -1   27.89   14.65
  -2  -5   5  372.94   31.47
  -6  -5   0   64.32   21.35
  -4  -7   8   14.49   46.15
  -3  -6   6  105.18   26.87
   0  -3   4  222.56   19.26
   1  -3   7  362.87   25.08
  -2   3  -4   40.87   12.06
   0  -1   1 1175.92   21.99
  -4  -7   7   91.54   38.10
  -1  -5   7   82.25   20.42
  -1   3  -3 1389.22   42.77
  -2  -6  10    2.39   41.63
  -1  -4   4  136.32   18.03
  -5  -7   5   -3.38   33.43
  -5  -6   2  230.82   34.67
  -2  -6   9   25.96   33.01
  -6  -7   4   58.42   38.11
  -4  -7   6   86.30   33.67
  -3  -5   3   42.26   16.18
   0  -4   6  273.82   24.40
  -1  -3   2  886.97   29.89
  -2  -6   8   24.77   28.58
   2  -2   8   34.97   12.00
  -3  -7   9   52.07   46.75
  -7  -6   1   67.95   35.06
   0  -5  11   19.36   35.33
   0  -5  12   47.21   44.34
  -6  -6   1   -3.54   25.92
  -5  -7   4   20.62   31.75
   4   3   6   98.41   13.86
   1  -4  11   23.18   30.13
   0  -5  10   19.08   29.10
  -4  -6   3   93.94   26.82
  -1  -5   6   45.93   17.93
  -2  -5   4  252.40   25.58
  -4  -7   5   79.04   31.60
  -8  -6   1  101.55   46.89
  -6  -7   3   48.85   35.41
  -7  -4  -2   82.60   24.34
  -2  -6   7   -6.63   25.50
   1  -4  10   39.46   25.87
  -3  -4   0    6.51   11.27
  -7  -5  -1  207.80   32.66
  -2  -2  -1    3.45    6.63
   0  -5   9   95.74   25.65
  -6  -4  -2  228.06   25.56
   0  -2   2  642.07   22.58
  -1  -6  11   80.53   44.92
  -1  -6  12   27.17   55.20
  -6  -5  -1   70.86   22.74
  -5  -7   3  104.21   28.36
   1  -3   6  242.07   19.21
  -1  -6  10  166.08   36.41
  -3  -7   8   12.46   39.09
  -7  -7   2   39.05   41.96
   1  -4   9   32.81   21.46
  -2  -6   6   90.82   23.60
  -7  -6   0   61.34   32.10
  -3  -7   7   62.50   34.69
  -1  -6   9  234.11   33.29
  -6  -3  -3  211.51   22.69
  -6  -7   2   90.95   32.49
   0  -5   8  201.49   28.40
  -4  -6   2   97.48   25.37
  -8  -6   0   53.50   43.63
  -3  -5   2   51.57   16.27
  -3  -6   4   73.58   20.89
  -3  -5   1  101.31   20.07
   0  -4   5  321.34   25.23
  -1  -5   5   54.05   17.00
  -1  -4   3  191.96   19.99
   1  -2   4 2530.70   36.73
  -3  -7   6  197.93   33.00
  -4  -8   7  123.82   44.75
  -5  -8   5   11.73   41.60
  -1  -6   8  277.87   32.65
  -6  -8   4   68.20   45.37
  -2  -5   3  928.99   41.44
  -4  -7   4    9.88   26.14
  -2  -7  10   83.41   47.63
  -5  -5  -1  -13.59   16.87
  -5  -7   2  142.86   32.62
   1  -4   8   14.09   18.61
  -7  -7   1  103.61   39.26
  -4  -8   6   36.59   39.94
  -2  -6   5  117.96   23.51
   2  -2   7   63.96   11.97
  -8  -7   1  150.56   52.83
  -2  -7   9   58.29   40.02
   0  -3   3   63.72   12.58
  -3  -7   5  101.55   28.09
   0  -5   7  166.87   24.87
  -5  -8   4   33.27   36.73
  -6  -7   1   12.07   29.55
  -5  -4  -2    2.28   14.11
  -1  -6   7   43.77   24.06
  -3  -8   8   19.25   49.65
  -6  -8   3  134.56   41.14
  -2  -7   8   42.09   34.15
  -7  -5  -2  124.77   27.28
  -4  -6   1    5.32   17.79
  -3  -6   3   69.27   20.66
  -4  -2  -3   74.74   10.96
  -4  -7   3   -7.09   24.56
  -7  -6  -1  113.40   30.75
   0  -6  11   12.56   42.75
   0   2  -1 1689.38   30.54
  -1  -5   4   48.63   14.52
  -2  -7   7   17.53   30.37
   2  -3   9  400.97   26.97
  -7  -4  -3   66.36   23.31
  -2  -6   4  100.17   21.27
  -1  -7  11  111.62   51.20
  -1  -6   6   44.62   21.43
  -3   5   5  333.79   38.99
  -1   3   6  384.37   31.47
  -3   3   3  900.88   46.24
  -4   4   2  326.52   33.37
  -3   2   1 1932.27   52.65
  -3   5   6  368.60   40.88
  -3   4   5  826.52   52.53
   2   0   0 1550.91   30.20
  -1   4   8  320.57   35.73
   2   5  11  259.01   33.89
   2   0  -1  346.27   18.12
   2   4  10  519.80   41.12
  -1   3   7  288.51   29.62
  -4   3   0  262.39   25.25
  -3   3   4  375.41   34.36
  -3   2   2 1403.58   48.85
   2   2   7 1400.05   41.64
  -1   2   5  447.75   29.75
  -3   5   7  415.78   45.86
  -4   3   2  223.45   25.57
  -3   4   6  683.75   50.52
  -4   2  -3  692.41   27.23
  -4   2  -2  626.59   27.39
  -4   3   1  315.82   27.81
  -5   4  -2  206.49   23.44
   1   2   7  578.36   31.52
   1   3   9  236.89   28.45
  -1   4   9  364.29   39.43
  -1   1   3 1490.67   39.84
   1   0   0  582.54   13.27
  -3   2   3 1545.30   54.77
  -3   3   5  786.56   49.22
  -4   2  -1  587.94   29.41
  -5   4   1  371.41   36.30
  -1   3   8  655.28   45.62
  -2   2   4  281.72   25.54
   1   0  -3 1247.23   34.15
  -3   1  -1  295.49   17.21
  -3   4   7  540.00   49.06
  -4   2   0  674.35   33.86
   2   4  11  368.00   35.51
  -3   1   0  381.17   21.18
  -1   2   6  494.15   33.32
  -3   2   4  615.58   37.81
   1   0  -2  805.30   24.30
  -3   3   6  628.66   46.99
  -1   4  10  304.10   36.26
   2   2   8 1061.57   39.35
  -2   1   2  298.52   20.65
  -3   1   1 1442.16   42.27
  -1   1   4 3402.92   64.98
  -5   3  -2  231.62   23.08
  -1   3   9  908.00   56.03
   1   2   8  158.40   19.42
  -5   3   1  665.39   42.49
   1   3  10  547.19   41.37
   2   3  10  516.43   36.54
  -5   3  -1  459.84   32.34
  -3   1   2 1373.47   44.90
  -5   3   2  389.51   37.72
  -1   2   7  772.46   43.33
  -5   3   0  482.51   35.97
  -2   1   3  232.10   20.70
  -1   2   8 1629.87   66.32
  -1   1   5 1291.27   44.75
  -3   1   3  952.73   41.74
  -5   3   3  400.72   37.93
   0   1   6  183.91   19.38
  -3   2   6  414.33   38.44
  -1   3  10  548.14   47.24
  -1   0   0  552.95   12.78
   2   2   9  185.92   20.20
   1   2   9  254.44   25.68
   3   1   0 2500.63   47.34
   5   2   4  557.78   24.48
   2   1   6 1673.28   33.52
   1   3  11  449.62   38.44
   5   2   5  228.27   14.63
  -3   1   4 1018.02   45.82
   2   3  11  261.93   28.19
  -5   2  -2  249.37   22.28
  -1   2   9  698.87   48.58
  -5   2  -1 1354.19   47.60
  -1   1   6 1092.12   44.54
   1   1   7  367.16   23.31
  -4   1  -1  535.89   25.43
  -5   2   0 1061.48   46.10
   1   2  10  927.13   50.70
  -3   1   5  296.44   29.36
  -2   0   1  314.24   16.97
   3   1   1 1929.45   36.58
  -5   2  -3  128.95   14.73
  -5   2   1  226.17   26.27
  -4   1  -2  635.67   24.30
  -5   2   3  320.43   35.79
  -2   0   0 1413.66   28.82
  -2   2   9  415.07   40.15
  -2   1   7  340.02   31.87
  -1   0   2  794.39   23.90
  -4   1   3  403.38   32.09
  -1   1   7 1001.75   46.53
   1   3  12  549.09   45.57
   2   1   7  883.02   28.39
   1   1   8 1006.92   39.93
  -4   2   7  433.27   45.12
  -1   0   3 1189.91   32.76
   2   1  -1  660.80   24.31
  -2   1   8  242.94   29.65
   3   1   2 3475.15   41.83
  -3   0   1  743.93   29.70
  -3   0   2 2236.30   54.49
  -1   0   4 2168.54   48.90
  -1   1   8  554.45   38.21
  -2   0  -1 1798.86   26.39
  -3   0   3  600.05   32.55
  -3   0   0  916.96   29.67
  -4   1  -3  355.87   16.41
  -5   1   0  170.41   20.27
   1   2  11  486.61   39.31
   1   1  -3  627.76   25.54
  -4   1   6  732.92   52.15
  -3   0   4  226.27   23.65
   2   1   8  691.67   29.24
  -1   0   5 1366.98   43.76
  -5   1  -1  692.30   33.63
   3   2  10  254.86   20.27
  -2   0   4  277.01   22.08
  -3   0   5  250.35   26.12
  -4   1   7  482.65   45.67
  -5   1   3  256.58   29.66
  -3   0  -1 2610.97   42.63
  -4   0   2  472.09   30.45
  -1   0   6 1000.20   41.16
  -4   0   1  250.05   21.95
  -4   0   3  838.67   42.92
  -2   0   5  506.34   31.42
  -5   1  -2  779.66   31.60
  -2   1  10  571.29   50.64
  -4   0   4  679.06   41.80
   1   2  12  488.18   41.20
   1   1  10  290.99   29.46
   2   1   9  201.18   18.74
   3   1   3 1773.26   24.82
  -2   0   6  253.67   25.82
  -1   0   7  195.23   22.15
  -4   0   5  364.82   34.19
  -2   0   8  391.30   36.00
  -6   1   3  301.26   35.02
  -4   0   6  378.42   37.73
   1   1  11  546.16   40.28
   0   0   8  231.49   22.67
  -5   0   2  198.74   24.84
  -2   0   9  533.37   43.76
   1   0   7  846.75   32.05
  -5   0   1  337.06   27.54
  -5   1  -3  474.02   22.87
  -5   0   0  169.62   19.93
   1   0   8 1278.81   42.48
  -2   0  10  674.47   52.52
  -3  -1   2  414.93   25.52
  -3   0  -2  534.28   17.13
  -4  -1   4  807.40   44.57
  -4  -1   3  637.95   37.26
  -5   0  -1  262.87   21.65
   1   0   9  503.95   30.38
   0   0  10  249.41   29.51
  -4  -1   5  352.29   34.28
  -6   0   4  323.94   38.36
  -4  -1   2  985.19   42.04
  -3  -1   1  844.52   32.12
   1   1  12  274.23   30.92
  -2  -1   8  845.74   49.86
   0   0  11  432.00   40.61
  -2  -1   4 1053.66   39.04
  -6   0   2  403.74   37.85
  -2  -1   5  837.53   38.00
  -6   0   1  641.37   42.31
  -4  -1   1  511.58   29.36
  -2  -1   6  576.58   35.13
  -2  -1   1  623.56   23.54
  -2  -1   3  392.83   23.66
  -6   0   0  374.46   31.78
  -4   1  -4 1291.78   22.89
  -2  -1   9  778.65   52.42
  -2  -1   7  300.08   29.40
   3   2   1  818.73   27.50
   5   3   5  234.45   19.77
  -5  -1   1  207.78   23.19
  -5   0  -2  682.37   29.08
  -3  -1   0 2482.37   47.66
  -6   0  -1  197.37   22.44
  -3   2  -6  284.66   14.01
   0  -1   8  361.90   27.78
   0   0  12  382.03   40.70
  -5  -1   0  659.59   35.03
  -1  -1   2 1216.15   30.03
  -2   0  -2 2506.65   21.25
   3   1  10  252.50   20.75
  -4  -2   5  305.40   33.30
  -4  -2   4  561.37   38.19
  -6  -1   1  266.91   30.44
   2   0   7 1076.02   29.58
   0  -1  10  307.74   30.09
  -4  -2   3  574.98   36.16
  -3  -2   3  140.09   18.13
  -5   1  -4  131.23   10.81
  -6  -1   0  791.11   43.89
  -4  -2   2  707.56   36.96
   0  -1  11  300.69   34.34
  -3  -2   2  147.86   18.07
  -5  -1  -1  503.61   28.48
  -2   1  -4 1639.05   24.01
  -2  -2   6  773.17   40.21
  -2  -2   7  684.53   40.79
   0  -1  12  312.76   34.23
  -2  -2   5 1186.05   45.40
   1  -1   8  712.51   33.18
  -2  -2   8  359.57   34.43
   3   2   2 2640.07   41.61
  -3  -1  -1 1826.80   35.93
   1  -1   9  666.11   34.73
  -2   2  -5  277.81   14.75
  -4  -2   1  391.19   26.33
   4   2   5  194.61   11.25
  -2  -2   4 1366.45   45.28
  -4   0  -3  243.36   12.39
  -5   0  -3  432.26   20.25
  -6  -1  -1  610.30   36.36
  -3  -2   1  912.25   33.86
  -2  -2   3  258.96   20.77
  -5  -3   5  266.92   37.15
  -5  -3   4  386.25   38.10
  -5  -2   0  204.28   21.54
   0  -2   9  400.09   32.04
   1   1   0 1764.65   24.89
  -4  -3   3  448.07   33.83
  -5  -1  -2  468.30   23.89
  -6  -2   0  203.70   26.57
   2   0   5  276.23   11.13
  -3  -3   5  241.60   26.25
  -3   3  -6  310.49   19.28
  -4  -3   2  754.23   39.45
  -2  -3   7  313.54   31.25
  -4  -2   0  480.43   26.76
  -3  -2   0 1412.98   37.69
   2   1   2 2134.02   24.50
  -2  -3   6  591.07   37.36
  -5  -2  -1  281.60   22.50
  -3  -3   2  304.47   24.25
  -6  -2  -1  485.35   32.71
  -3  -4   9  422.65   48.38
  -3  -3   3  176.12   21.16
   3   2   3 1530.52   28.99
  -7  -3   1  250.42   35.33
  -1  -1   0 1794.25   24.96
  -4  -2  -1  115.94   14.47
   2   3   0  822.35   29.30
  -4  -3   1  547.57   32.11
   1   2  -1 7116.96   67.51
  -3  -4   6  421.76   37.87
  -3   0  -3   99.47    5.96
   3   3   2 1268.08   34.31
  -3  -1  -2 3537.61   41.95
  -3  -3   1  252.85   21.46
  -3  -4   5  313.10   30.98
  -5  -4   2  291.43   31.70
  -6  -2  -2  354.59   28.39
  -3   2  -5  317.32   13.85
   4   2   6  468.94   13.28
  -5  -1  -3  739.96   25.75
  -5  -2  -2  281.04   20.77
   3   0   9  428.43   20.43
  -3  -2  -1  801.37   26.57
  -4  -3   0 1373.02   45.30
  -4  -4   2  302.15   29.15
  -2  -3   2  323.78   22.77
  -3  -5   7  302.42   37.66
  -5   0  -4  426.04   16.08
  -2   2  -4  343.98   15.61
  -3  -3   0  409.96   24.33
  -3  -5   5  319.42   34.69
  -4  -4   1  834.60   40.80
  -2  -3   1  346.45   21.61
  -4  -3  -1  770.66   32.46
  -3  -5   4  243.23   28.00
   2  -2  10  170.01   20.02
   3   0   8  504.96   18.11
  -3   3  -5  751.03   28.49
   3   3   3 1130.79   31.81
  -1  -2   1 7076.79   67.62
  -2  -4   3  807.53   37.91
   1   2   0 2551.25   37.97
  -4  -5   2  218.84   27.52
  -4  -4   0  865.43   39.70
   3   2   4  670.00   19.13
  -5  -2  -3  487.32   24.10
  -3  -6   5  301.03   34.81
  -5  -5   0  186.82   26.77
  -4  -5   1  544.86   38.16
  -3  -3  -1 1200.21   36.37
   2   2   2   99.83   10.24
  -2  -4   2  502.81   29.63
  -2  -3   0  864.94   29.81
  -5  -6   1  436.17   41.15
  -3  -2  -2 2502.36   42.14
  -4  -4  -1  862.19   38.58
  -4  -3  -2  227.11   18.81
  -1   1  -2  119.45    7.15
  -4  -5   0  202.86   24.88
   4   2   7  411.72   14.30
  -4   2  -5 1135.35   24.19
  -1  -2   0 2612.76   38.92
  -5  -6   0  258.92   34.47
   1   1   1  885.16   15.67
   3   3   4 1018.00   31.10
  -5  -3  -3  172.72   18.38
  -5  -1  -4  949.20   25.76
  -2  -4   1  458.57   27.28
   2   3   2  307.91   18.84
   1   3   0 8883.86   85.43
  -4  -8   5   77.62   36.37
  -3  -8   7    9.30   41.49
  -1  -3   1 9248.47   90.65
  -3  -7   4  123.51   30.40
  -3  -6   2  237.60   30.29
  -4  -5 -10  257.91   33.17
  -5  -7 -10  119.79   43.74
  -4  -6  -9   79.80   32.41
  -5  -5 -12   99.73   46.59
  -4  -2 -12   48.97   37.74
  -1  -2  -4    7.76   12.91
  -5  -8  -9   62.41   45.11
  -5  -4 -13    1.11   54.23
  -2  -5  -4    0.54   13.26
  -4  -7  -8   32.55   32.42
  -3  -4  -9   -0.46   26.33
  -1   3  -6  226.15   21.79
  -4  -3 -12  259.51   39.23
  -3  -3 -10   96.96   27.97
  -1   2  -6  456.97   27.70
  -1   4  -6  270.06   21.82
  -4   4 -12   68.34   50.96
  -5  -6 -12  157.88   51.03
  -4  -1 -13   36.95   44.29
  -5  -7 -11  282.09   50.05
  -4  -1 -12   82.22   36.83
  -4  -5 -11  163.98   37.94
  -4  -6 -10    4.33   37.75
  -5  -5 -13   15.48   54.39
  -1   1  -6 1735.01   46.50
  -3  -2 -11  228.79   37.28
  -3   2 -11  399.01   38.37
  -4  -4 -12  331.88   42.30
  -4  -2 -13   61.99   43.39
  -2   3  -9  507.50   36.49
  -2   2  -9  191.25   25.60
  -3   3 -11   87.28   36.02
  -5  -8 -10   29.30   50.98
   0   2  -2  834.79   16.64
  -3   1 -11  281.95   35.48
  -4  -8  -7  173.83   32.71
  -4  -7  -9   16.61   35.53
  -3  -2 -10  261.88   35.18
  -1  -2  -5   26.05   14.82
  -2   1  -9   27.47   21.39
  -2   4  -9  120.86   27.00
  -3  -4 -10    8.45   28.77
  -3  -5  -9   88.15   27.04
  -3   4 -11   -2.58   40.48
  -3   0 -11  291.01   36.74
  -4   2 -13  198.79   50.46
  -4  -3 -13  145.86   44.79
  -1   5  -6   96.21   17.06
  -4   1 -13   29.39   44.91
  -2  -2  -9  202.59   26.96
  -3  -3 -11   40.26   30.98
  -4   3 -13  160.37   53.77
  -4   0 -13   -6.70   45.85
  -5  -6 -13   88.59   59.22
   0   6   2   44.37   16.32
  -2   0  -9   25.96   21.06
  -3  -6  -8  164.21   27.38
  -5  -7 -12  131.63   56.22
  -2   5  -9  107.98   30.68
  -4  -6 -11    7.12   39.94
  -4  -5 -12  252.51   42.29
  -4  -1 -14   14.50   52.27
  -4  -8  -8  227.22   37.06
  -1   3  -7  366.92   29.12
  -4  -7 -10  -38.50   40.51
  -4  -4 -13  174.76   46.85
  -5  -8 -11  103.35   57.26
  -1   2  -7  773.79   36.78
  -1  -3   4  303.03   19.32
  -3  -2 -12  183.31   33.81
  -4  -2 -14   20.20   51.17
  -1   4  -7   47.54   17.64
  -2  -1  -9  189.24   26.43
  -3  -5 -10  104.05   31.62
  -3  -4 -11  -36.75   33.24
  -3   2 -12   36.73   39.13
  -2  -3  -9  145.87   23.35
   0   1  -2   14.08    7.23
  -3   1 -12   71.91   35.77
  -3   3 -12    8.01   41.71
  -1   1  -7 1934.34   52.90
  -2   2 -10  256.54   30.16
  -2   3 -10  219.00   29.59
  -4  -3 -14   75.07   52.95
  -2   1 -10   72.92   23.02
  -3   0 -12  263.99   38.71
  -3  -3 -12  110.49   36.46
  -2  -2 -10   37.56   24.02
  -3   4 -12   36.48   45.97
  -4   1 -14   62.48   54.97
  -4  -6 -12   52.88   44.87
  -4  -8  -9  190.67   40.76
  -2   4 -10  114.73   32.03
  -4  -5 -13  171.36   50.30
  -3  -1 -13  240.68   42.01
  -4   0 -14    5.20   54.04
   0   2  -3   -0.08    7.59
  -2   0 -10    6.27   23.98
  -4  -7 -11   16.96   44.85
  -1   5  -7   -0.01   20.44
  -5  -8 -12   93.00   63.82
   0   3  -3   59.36    9.15
  -1   6  -6   -3.27   19.18
  -3  -2 -13  247.62   41.32
  -3  -5 -11  -16.24   34.40
  -3  -4 -12  -15.89   37.09
  -1  -3   3  484.28   18.68
  -1   3  -8  197.54   23.87
  -3  -6 -10  464.85   39.97
  -1   2  -8  505.87   32.48
  -2  -1 -10   69.06   23.30
  -4  -8 -10   75.91   46.45
  -2  -6  -5   21.21   18.39
  -1  -3  -6   95.45   17.55
  -3   2 -13  -13.49   45.69
  -3   1 -13   40.19   42.39
  -3  -3 -13  121.02   41.57
  -4  -6 -13  225.97   55.26
  -2  -2 -11   19.36   28.53
  -2  -5  -8  209.54   26.07
  -1   1  -8  808.03   40.06
  -3   0 -14   81.22   52.54
  -2   2 -11  137.83   29.42
  -1   4  -8   11.28   21.33
  -3   3 -13   24.87   49.00
  -3  -8  -4   35.30   19.94
  -3   0 -13  165.66   41.54
  -4  -7 -12  -17.47   54.40
  -2   3 -11  155.36   33.02
  -2   1 -11   86.55   27.63
  -3  -1 -14  166.85   47.39
   0   1  -3  108.17   10.64
   0   5   1   -8.44   10.01
  -2  -6  -6  143.16   20.74
  -3  -7  -9  399.99   37.92
  -2   0 -11   82.24   28.30
  -2   4 -11  192.85   37.61
   0   3  -4  303.24   15.93
  -1  -2  -8  165.05   23.14
  -3  -2 -14  245.81   46.88
  -2  -1 -12    0.30   33.19
  -3  -4 -13   38.34   44.56
  -2  -3 -11  258.64   35.40
   0   2  -4  173.53   15.45
  -4  -8 -11   12.72   53.04
  -3  -8  -6  126.61   26.05
  -1   5  -8   18.47   24.68
  -2  -1 -11    8.13   27.73
  -2  -6  -7  113.12   22.75
  -3  -3 -14  214.24   50.96
  -2  -2 -12   -9.08   33.28
  -4  -7 -13  108.18   64.79
  -1   2  -9  356.67   31.82
  -1   3  -9   22.72   22.90
  -3  -8  -7  130.23   31.34
  -3  -7 -10  296.25   39.56
  -3   1 -14   -2.79   52.24
  -3   2 -14  -13.97   54.95
  -1   1  -9  709.14   41.66
   0   1  -4  107.37   12.59
  -2   2 -12  214.95   37.44
  -3   3 -14   29.17   63.13
  -2   1 -12  192.55   35.14
  -2   0 -13   91.94   43.00
  -3  -5 -13   46.18   48.15
  -1   4  -9   24.34   25.61
  -4  -8 -12   39.39   62.13
  -2   3 -12  117.29   41.72
  -1  -4  -6   47.63   15.70
  -1  -3  -8   99.14   20.27
  -3  -6 -12   14.31   44.93
   0   4  -4  688.25   20.24
  -2  -3 -12   31.03   37.24
  -3  -4 -14  143.12   57.59
  -2  -6  -8  160.50   25.34
  -2  -1 -13   13.27   42.12
  -2   0 -12   34.19   33.27
  -2  -5 -10  648.16   45.79
  -3  -8  -8  317.83   32.69
  -2  -5   3  915.93   28.73
   0   3  -5   30.39   11.19
   0   2  -5  193.41   18.58
  -2   4 -12   34.38   46.25
  -3  -7 -11  160.98   44.52
  -2  -2 -13   24.02   42.13
  -1  -4  -7    1.17   18.61
  -1   5  -9   41.61   29.63
  -3  -8  -9  366.50   37.92
   0   1  -5   -1.16   13.88
  -2  -6  -9  335.44   34.60
  -1   2 -10   26.04   25.73
   0   4  -5  455.00   20.08
   0   5   0    3.38    6.78
  -1  -1  -9  206.22   27.86
  -2  -4 -12  221.58   40.35
  -1   3 -10  -11.11   28.82
  -3  -6 -13  -12.54   55.59
  -1   1 -10   55.78   25.92
  -1  -3   2  864.60   20.29
  -2  -5 -11  410.99   39.27
  -2   1 -14  135.93   54.86
  -2   0 -14  163.56   51.49
  -2  -3 -13    6.19   43.87
  -2   2 -13  257.34   46.06
  -2   1 -13  130.98   42.60
  -1  -4  -8   20.86   22.58
  -2  -7  -5    6.84   19.99
  -3  -7 -12   26.46   54.39
  -2   3 -13   91.66   50.90
  -1   4 -10   43.91   33.25
  -1   0 -10  138.45   26.48
   0   2  -6  341.99   25.24
  -2  -7  -6   77.19   24.57
   0   3  -6   75.29   14.80
  -3  -8 -10  290.02   44.95
  -2  -6 -10  262.78   34.37
  -1  -2   3  859.92   27.33
   0  -1  -6  176.55   21.04
  -2  -2 -14   -8.66   51.24
   0   4  -6  280.18   20.66
  -1   2 -11   46.57   31.32
  -4  -4 -11  358.93   41.05
  -1  -1  -5 1223.55   37.75
  -2  -3  -7 1206.42   45.93
  -3  -5  -8  377.36   34.31
  -4  -8  -6  322.96   32.30
  -2  -4  -6  306.82   25.24
  -2  -2  -8 1078.13   46.55
  -3  -6  -7  577.18   37.66
  -1  -3  -3  595.02   23.37
  -2  -1  -8  788.81   41.05
   0   1   4 1987.71   43.57
  -3  -7  -5  394.85   28.09
  -2  -5  -5  160.02   19.83
   0   0   4  306.40   19.81
  -2  -3  -8  621.50   37.09
  -2  -4  -7  459.51   31.15
  -1   0  -6  675.22   32.78
  -3  -1 -11  344.04   40.75
  -3  -7  -6  245.14   25.24
   0   0   3  729.21   23.30
   0   1   3  592.83   21.60
  -1  -3  -4  978.93   32.68
  -2  -5  -6  483.88   29.79
   0   6   1  185.59   13.57
  -1  -2  -6  589.86   30.49
  -2  -4  -8  531.43   35.82
  -2  -6  -2  234.30   15.60
   0   0   2  191.72   11.56
   0   2   3  617.61   23.20
  -3  -6  -9  346.88   36.95
  -3  -7  -7  291.63   29.63
  -2  -6  -3  578.66   25.14
  -1  -1  -6  355.89   25.05
  -1  -3  -5  147.42   18.09
   0   3   3 3754.07   56.26
   0   5   2  355.83   19.61
  -2  -5  -7  291.00   27.44
   0   1   2 5061.57   47.12
  -3  -1 -12  478.44   45.60
  -1   0  -7  876.74   38.76
  -2  -6  -4  297.92   21.85
  -1  -2  -7  570.82   32.35
  -2  -4  -9  371.20   34.66
  -2  -3 -10  574.18   42.73
  -3  -7  -8  369.30   34.93
   0   4   2  998.48   28.11
  -1  -4  -2 1536.64   28.44
  -1  -4  -3 1569.36   34.74
   0   2   2 1514.53   28.86
  -1  -1  -7  343.62   27.09
  -3  -8  -5  206.61   24.54
   0   3   2  957.63   25.23
  -1  -4  -4 2124.68   45.25
  -1   0  -8 1284.76   50.56
  -2  -4 -10  619.27   45.37
  -1  -3  -7  225.18   24.70
   0   4  -3   82.82   10.15
  -2  -5  -9  883.33   49.16
  -1  -4  -1 2605.41   28.40
  -1  -4  -5  306.79   21.94
   0   0  -2  182.91   11.41
  -1  -1  -8  997.81   45.71
   0   1   1 4200.62   32.71
  -1  -2  -9  359.41   33.88
  -2  -4 -11  388.31   39.12
   0   4   1  529.07   17.96
  -1   0  -9  545.33   38.43
   0   0  -3  767.62   23.53
   0  -1  -3  566.34   21.77
   0  -1  -2 5290.33   49.34
   0  -1  -4 1877.49   42.10
  -1  -3  -9  264.01   30.52
  -1  -2 -10  941.69   55.88
   0   0  -4  308.40   19.39
   0  -1  -5 1473.94   42.12
   0   3   1  491.26   15.66
   0   2   1 1079.88   20.00
  -1  -1 -11  508.02   47.36
  -2  -7  -4  196.34   20.77
  -1  -3 -10  597.19   47.35
   0   0  -5  237.35   21.34
   0   1  -6  516.71   29.22
  -1  -2 -11  475.33   45.82
  -1  -5  -5  284.92   22.02
  -1  -5  -4 1266.01   37.39
  -1  -1 -10  319.15   38.10
  -1   1 -11   -1.23   30.74
  -1   0 -11  288.90   36.70
   0   0  -6   22.41   14.97
   0   0  -7  157.10   22.92
  -1   1 -12  -56.14   39.21
   0   0   0    0.00    0.00

TITL OIS-080_2_twin1_hklf4 in P1
REM P1 (#1 in standard setting)
CELL 0.71073   6.834931   9.435589  11.454933  82.9910  72.9003  73.3811
ZERR    2.00   0.001069   0.001776   0.001892   0.0145   0.0142   0.0151
LATT -1
SFAC C H N O Ag
UNIT 24.00 38.00 4.00 4.00 2.00
TREF
HKLF 4
END
_computing_structure_solution     'SHELXT 2014/5 (Sheldrick, 2014)'
;
_shelx_hkl_checksum              2892
_olex2_submission_special_instructions 'No special instructions were received'
_oxdiff_exptl_absorpt_empirical_details
;
Empirical correction (ABSPACK) includes:
- Absorption correction using spherical harmonics
- Frame scaling
;
_oxdiff_exptl_absorpt_empirical_full_max 1.293
_oxdiff_exptl_absorpt_empirical_full_min 0.736
_oxdiff_twin_integration_method  simultaneous
_oxdiff_twin_items               2
loop_
_space_group_symop_operation_xyz
'x, y, z'
'-x, -y, -z'
loop_
_atom_site_label
_atom_site_type_symbol
_atom_site_fract_x
_atom_site_fract_y
_atom_site_fract_z
_atom_site_U_iso_or_equiv
_atom_site_adp_type
_atom_site_occupancy
_atom_site_site_symmetry_order
_atom_site_calc_flag
_atom_site_refinement_flags_posn
_atom_site_refinement_flags_adp
_atom_site_refinement_flags_occupancy
_atom_site_disorder_assembly
_atom_site_disorder_group
Ag1 Ag 0.18187(7) 0.44658(6) 0.54058(4) 0.02661(18) Uani 1 1 d . . . . .
O11 O -0.0267(6) 0.5584(4) 0.7107(3) 0.0275(10) Uani 1 1 d . . . . .
O13 O -0.2954(6) 0.6776(5) 0.6308(3) 0.0309(10) Uani 1 1 d . . . . .
N1 N 0.4887(7) 0.3537(5) 0.6080(4) 0.0216(11) Uani 1 1 d . . . . .
N7 N 1.0576(7) 0.1733(5) 0.7034(4) 0.0277(12) Uani 1 1 d . . . . .
C2 C 0.5029(9) 0.3666(6) 0.7180(5) 0.0257(14) Uani 1 1 d . . . . .
H2 H 0.3827 0.4183 0.7744 0.031 Uiso 1 1 calc R . . . .
C3 C 0.6858(9) 0.3079(6) 0.7544(5) 0.0218(13) Uani 1 1 d . . . . .
H3 H 0.6865 0.3209 0.8335 0.026 Uiso 1 1 calc R . . . .
C4 C 0.8731(9) 0.2279(6) 0.6721(5) 0.0217(13) Uani 1 1 d . . . . .
C5 C 0.8535(9) 0.2144(6) 0.5551(5) 0.0224(13) Uani 1 1 d . . . . .
H5 H 0.9690 0.1622 0.4963 0.027 Uiso 1 1 calc R . . . .
C6 C 0.6636(9) 0.2784(6) 0.5280(5) 0.0264(14) Uani 1 1 d . . . . .
H6 H 0.6558 0.2690 0.4497 0.032 Uiso 1 1 calc R . . . .
C8 C 1.0690(9) 0.1883(7) 0.8250(5) 0.0315(15) Uani 1 1 d . . . . .
H8A H 1.0195 0.2909 0.8443 0.047 Uiso 1 1 calc GR . . . .
H8B H 1.2134 0.1505 0.8287 0.047 Uiso 1 1 calc GR . . . .
H8C H 0.9819 0.1335 0.8828 0.047 Uiso 1 1 calc GR . . . .
C9 C 1.2372(9) 0.0746(7) 0.6206(5) 0.0305(15) Uani 1 1 d . . . . .
H9A H 1.2049 -0.0175 0.6188 0.046 Uiso 1 1 calc GR . . . .
H9B H 1.3613 0.0566 0.6491 0.046 Uiso 1 1 calc GR . . . .
H9C H 1.2629 0.1201 0.5399 0.046 Uiso 1 1 calc GR . . . .
C12 C -0.2029(9) 0.6480(6) 0.7154(5) 0.0233(13) Uani 1 1 d . . . . .
C14 C -0.3129(9) 0.7373(7) 0.8315(5) 0.0276(14) Uani 1 1 d . . . . .
C15 C -0.5546(9) 0.7592(7) 0.8630(5) 0.0363(17) Uani 1 1 d . . . . .
H15A H -0.6044 0.8034 0.7935 0.055 Uiso 1 1 calc GR . . . .
H15B H -0.6238 0.8228 0.9307 0.055 Uiso 1 1 calc GR . . . .
H15C H -0.5861 0.6650 0.8844 0.055 Uiso 1 1 calc GR . . . .
C16 C -0.2639(11) 0.8873(7) 0.8021(5) 0.0416(18) Uani 1 1 d . . . . .
H16A H -0.1139 0.8742 0.7858 0.062 Uiso 1 1 calc GR . . . .
H16B H -0.3376 0.9494 0.8705 0.062 Uiso 1 1 calc GR . . . .
H16C H -0.3093 0.9329 0.7315 0.062 Uiso 1 1 calc GR . . . .
C17 C -0.2290(11) 0.6595(8) 0.9388(5) 0.0445(19) Uani 1 1 d . . . . .
H17A H -0.2603 0.5649 0.9567 0.067 Uiso 1 1 calc GR . . . .
H17B H -0.2959 0.7189 1.0093 0.067 Uiso 1 1 calc GR . . . .
H17C H -0.0783 0.6456 0.9180 0.067 Uiso 1 1 calc GR . . . .
loop_
_atom_site_aniso_label
_atom_site_aniso_U_11
_atom_site_aniso_U_22
_atom_site_aniso_U_33
_atom_site_aniso_U_23
_atom_site_aniso_U_13
_atom_site_aniso_U_12
Ag1 0.0201(3) 0.0279(3) 0.0267(3) -0.00479(18) -0.00885(19) 0.00567(18)
O11 0.021(2) 0.031(3) 0.025(2) -0.0045(17) -0.0076(18) 0.0057(19)
O13 0.030(2) 0.035(3) 0.022(2) -0.0068(18) -0.0104(19) 0.006(2)
N1 0.022(3) 0.023(3) 0.015(2) -0.0026(19) -0.004(2) 0.001(2)
N7 0.021(3) 0.027(3) 0.030(3) -0.005(2) -0.010(2) 0.006(2)
C2 0.015(3) 0.025(3) 0.032(3) -0.007(3) -0.002(3) -0.001(3)
C3 0.025(3) 0.021(3) 0.020(3) 0.000(2) -0.012(3) -0.003(3)
C4 0.022(3) 0.016(3) 0.024(3) -0.001(2) -0.011(3) 0.005(3)
C5 0.019(3) 0.018(3) 0.027(3) -0.006(2) -0.007(3) 0.003(2)
C6 0.027(3) 0.028(4) 0.026(3) -0.007(3) -0.016(3) 0.001(3)
C8 0.025(3) 0.037(4) 0.034(4) -0.007(3) -0.015(3) -0.002(3)
C9 0.021(3) 0.026(4) 0.038(4) -0.004(3) -0.012(3) 0.009(3)
C12 0.021(3) 0.023(3) 0.022(3) 0.002(2) -0.006(3) -0.001(3)
C14 0.030(3) 0.026(4) 0.022(3) 0.000(3) -0.008(3) 0.000(3)
C15 0.033(4) 0.038(4) 0.028(3) -0.005(3) -0.004(3) 0.002(3)
C16 0.054(5) 0.030(4) 0.036(4) -0.011(3) -0.006(4) -0.007(3)
C17 0.044(4) 0.056(5) 0.022(3) -0.009(3) -0.009(3) 0.007(4)
loop_
_atom_type_symbol
_atom_type_description
_atom_type_scat_dispersion_real
_atom_type_scat_dispersion_imag
_atom_type_scat_source
C C 0.0033 0.0016 'International Tables Vol C Tables 4.2.6.8 and 6.1.1.4'
H H 0.0000 0.0000 'International Tables Vol C Tables 4.2.6.8 and 6.1.1.4'
Ag Ag -0.8971 1.1015 'International Tables Vol C Tables 4.2.6.8 and 6.1.1.4'
N N 0.0061 0.0033 'International Tables Vol C Tables 4.2.6.8 and 6.1.1.4'
O O 0.0106 0.0060 'International Tables Vol C Tables 4.2.6.8 and 6.1.1.4'
loop_
_exptl_crystal_face_index_h
_exptl_crystal_face_index_k
_exptl_crystal_face_index_l
_exptl_crystal_face_perp_dist
0 -11 -7 0.0264
0 11 7 0.0264
9 6 7 0.1283
-9 -6 -7 0.1283
0 -8 11 0.0602
0 6 14 0.0425
9 8 1 0.1181
6 -3 13 0.1132
0 10 -9 0.0295
0 13 -2 0.0246
-1 4 14 0.0315
-4 2 12 0.0487
-7 5 -8 0.1048
8 -5 5 0.1124
1 1 -15 0.0452
loop_
_geom_angle_atom_site_label_1
_geom_angle_atom_site_label_2
_geom_angle_atom_site_label_3
_geom_angle
_geom_angle_site_symmetry_1
_geom_angle_site_symmetry_3
_geom_angle_publ_flag
O11 Ag1 Ag1 83.33(10) . 2_566 ?
O11 Ag1 O13 162.00(14) . 2_566 ?
O11 Ag1 N1 97.16(14) . . ?
O13 Ag1 Ag1 81.79(10) 2_566 2_566 ?
O13 Ag1 N1 97.64(15) 2_566 . ?
N1 Ag1 Ag1 179.29(12) . 2_566 ?
C12 O11 Ag1 122.7(3) . . ?
C12 O13 Ag1 123.8(4) . 2_566 ?
C2 N1 Ag1 125.6(4) . . ?
C2 N1 C6 117.3(5) . . ?
C6 N1 Ag1 117.1(3) . . ?
C4 N7 C8 121.0(5) . . ?
C4 N7 C9 119.2(5) . . ?
C8 N7 C9 118.8(5) . . ?
N1 C2 H2 118.2 . . ?
N1 C2 C3 123.6(5) . . ?
C3 C2 H2 118.2 . . ?
C2 C3 H3 119.8 . . ?
C2 C3 C4 120.4(5) . . ?
C4 C3 H3 119.8 . . ?
N7 C4 C3 122.0(5) . . ?
N7 C4 C5 123.1(5) . . ?
C5 C4 C3 114.9(5) . . ?
C4 C5 H5 120.0 . . ?
C6 C5 C4 120.0(5) . . ?
C6 C5 H5 120.0 . . ?
N1 C6 C5 123.8(5) . . ?
N1 C6 H6 118.1 . . ?
C5 C6 H6 118.1 . . ?
N7 C8 H8A 109.5 . . ?
N7 C8 H8B 109.5 . . ?
N7 C8 H8C 109.5 . . ?
H8A C8 H8B 109.5 . . ?
H8A C8 H8C 109.5 . . ?
H8B C8 H8C 109.5 . . ?
N7 C9 H9A 109.5 . . ?
N7 C9 H9B 109.5 . . ?
N7 C9 H9C 109.5 . . ?
H9A C9 H9B 109.5 . . ?
H9A C9 H9C 109.5 . . ?
H9B C9 H9C 109.5 . . ?
O11 C12 O13 126.0(5) . . ?
O11 C12 C14 117.2(5) . . ?
O13 C12 C14 116.7(5) . . ?
C12 C14 C15 109.7(5) . . ?
C16 C14 C12 106.6(4) . . ?
C16 C14 C15 109.4(5) . . ?
C16 C14 C17 109.9(5) . . ?
C17 C14 C12 111.0(5) . . ?
C17 C14 C15 110.2(5) . . ?
C14 C15 H15A 109.5 . . ?
C14 C15 H15B 109.5 . . ?
C14 C15 H15C 109.5 . . ?
H15A C15 H15B 109.5 . . ?
H15A C15 H15C 109.5 . . ?
H15B C15 H15C 109.5 . . ?
C14 C16 H16A 109.5 . . ?
C14 C16 H16B 109.5 . . ?
C14 C16 H16C 109.5 . . ?
H16A C16 H16B 109.5 . . ?
H16A C16 H16C 109.5 . . ?
H16B C16 H16C 109.5 . . ?
C14 C17 H17A 109.5 . . ?
C14 C17 H17B 109.5 . . ?
C14 C17 H17C 109.5 . . ?
H17A C17 H17B 109.5 . . ?
H17A C17 H17C 109.5 . . ?
H17B C17 H17C 109.5 . . ?
loop_
_geom_bond_atom_site_label_1
_geom_bond_atom_site_label_2
_geom_bond_distance
_geom_bond_site_symmetry_2
_geom_bond_publ_flag
Ag1 Ag1 2.7853(10) 2_566 ?
Ag1 O11 2.225(4) . ?
Ag1 O13 2.231(4) 2_566 ?
Ag1 N1 2.345(5) . ?
O11 C12 1.248(6) . ?
O13 Ag1 2.231(4) 2_566 ?
O13 C12 1.269(6) . ?
N1 C2 1.315(7) . ?
N1 C6 1.343(7) . ?
N7 C4 1.354(7) . ?
N7 C8 1.444(7) . ?
N7 C9 1.466(7) . ?
C2 H2 0.9300 . ?
C2 C3 1.378(7) . ?
C3 H3 0.9300 . ?
C3 C4 1.417(7) . ?
C4 C5 1.410(7) . ?
C5 H5 0.9300 . ?
C5 C6 1.375(8) . ?
C6 H6 0.9300 . ?
C8 H8A 0.9600 . ?
C8 H8B 0.9600 . ?
C8 H8C 0.9600 . ?
C9 H9A 0.9600 . ?
C9 H9B 0.9600 . ?
C9 H9C 0.9600 . ?
C12 C14 1.538(8) . ?
C14 C15 1.541(8) . ?
C14 C16 1.522(8) . ?
C14 C17 1.527(8) . ?
C15 H15A 0.9600 . ?
C15 H15B 0.9600 . ?
C15 H15C 0.9600 . ?
C16 H16A 0.9600 . ?
C16 H16B 0.9600 . ?
C16 H16C 0.9600 . ?
C17 H17A 0.9600 . ?
C17 H17B 0.9600 . ?
C17 H17C 0.9600 . ?
loop_
_twin_individual_id
_twin_individual_mass_fraction_refined
_oxdiff_twin_reflns_isolated
_oxdiff_twin_reflns_overlapped
_twin_individual_twin_lattice_type
_twin_individual_twin_matrix_11
_twin_individual_twin_matrix_12
_twin_individual_twin_matrix_13
_twin_individual_twin_matrix_21
_twin_individual_twin_matrix_22
_twin_individual_twin_matrix_23
_twin_individual_twin_matrix_31
_twin_individual_twin_matrix_32
_twin_individual_twin_matrix_33
1 0.8867 3375 1473 ref 1.0000 0.0000 0.0000 0.0000 1.0000 0.0000 0.0000 0.0000
1.0000
2 0.1133 3564 1473 nmt 1.0399 -0.0566 -0.0470 0.1248 0.9738 -0.0314 0.1501
-0.0130 0.9728
loop_
_exptl_oxdiff_crystal_face_indexfrac_h
_exptl_oxdiff_crystal_face_indexfrac_k
_exptl_oxdiff_crystal_face_indexfrac_l
_exptl_oxdiff_crystal_face_x
_exptl_oxdiff_crystal_face_y
_exptl_oxdiff_crystal_face_z
0.4946 -11.2937 -6.9648 -0.0779 0.9881 0.1329
-0.4946 11.2937 6.9648 0.0779 -0.9881 -0.1329
9.3005 6.2711 7.2431 -0.8102 -0.3358 0.4804
-9.3005 -6.2711 -7.2431 0.8102 0.3358 -0.4804
-0.0973 -8.4144 11.1564 0.4601 0.1906 0.8672
-0.0134 5.9530 14.0070 0.3149 -0.8476 0.4378
8.9951 7.9986 1.0701 -0.9845 -0.2600 0.1020
5.9817 -3.0213 12.9906 -0.1730 -0.0204 0.9902
0.0119 10.0088 -8.9411 -0.4119 -0.3705 -0.8273
0.0052 12.9853 -1.9376 -0.2545 -0.7943 -0.6084
-1.0132 3.9546 13.9940 0.4443 -0.7489 0.4756
-4.0096 1.9585 11.9761 0.7141 -0.6525 0.3351
-6.9858 5.0032 -7.9927 0.3868 -0.3063 -0.8692
7.9884 -4.9936 5.0009 -0.5729 0.4364 0.7657
1.0155 1.0404 -14.9696 -0.5489 0.4508 -0.7207
