#------------------------------------------------------------------------------
#$Date: 2022-09-07 01:50:44 +0300 (Wed, 07 Sep 2022) $
#$Revision: 277696 $
#$URL: file:///home/coder/svn-repositories/cod/cif/7/71/11/7711178.cif $
#------------------------------------------------------------------------------
#
# This file is available in the Crystallography Open Database (COD),
# http://www.crystallography.net/
#
# All data on this site have been placed in the public domain by the
# contributors.
#
data_7711178
loop_
_publ_author_name
'Fraunhofer, Christina'
'Paul, Theresa'
'Oeckler, Oliver'
_publ_section_title
;
 Temperature-dependent Cu and Ag ion mobility and associated changes of
 transport properties in pavonite-type Cu1.4Ag0.4Bi5.4Se9
;
_journal_name_full               'Dalton Transactions'
_journal_paper_doi               10.1039/D2DT01651F
_journal_year                    2022
_chemical_formula_sum            'Ag0.8 Bi10.8 Cu2.8 Se18'
_chemical_formula_weight         3942.47
_space_group_crystal_system      monoclinic
_space_group_IT_number           12
_space_group_name_Hall           '-C 2y'
_space_group_name_H-M_alt        'C 1 2/m 1'
_atom_sites_solution_hydrogens   none
_atom_sites_solution_primary     direct
_atom_sites_solution_secondary   difmap
_audit_creation_method           SHELXL-2017/1
_audit_update_record
;
2022-05-24 deposited with the CCDC.	2022-09-05 downloaded from the CCDC.
;
_cell_angle_alpha                90
_cell_angle_beta                 99.58(3)
_cell_angle_gamma                90
_cell_formula_units_Z            1
_cell_length_a                   13.790(3)
_cell_length_b                   4.1971(8)
_cell_length_c                   15.412(3)
_cell_measurement_reflns_used    10801
_cell_measurement_temperature    623(2)
_cell_measurement_theta_max      23.63
_cell_measurement_theta_min      2.08
_cell_volume                     879.6(3)
_computing_structure_refinement  'SHELXL-2017/1 (Sheldrick, 2017)'
_diffrn_ambient_temperature      623(2)
_diffrn_measured_fraction_theta_full 0.988
_diffrn_measured_fraction_theta_max 0.989
_diffrn_measurement_device_type  'Stoe Stadivari'
_diffrn_radiation_type           AgK\a
_diffrn_radiation_wavelength     0.56083
_diffrn_reflns_av_R_equivalents  0.0913
_diffrn_reflns_av_unetI/netI     0.0851
_diffrn_reflns_Laue_measured_fraction_full 0.988
_diffrn_reflns_Laue_measured_fraction_max 0.989
_diffrn_reflns_limit_h_max       16
_diffrn_reflns_limit_h_min       -13
_diffrn_reflns_limit_k_max       5
_diffrn_reflns_limit_k_min       -5
_diffrn_reflns_limit_l_max       17
_diffrn_reflns_limit_l_min       -19
_diffrn_reflns_number            4795
_diffrn_reflns_point_group_measured_fraction_full 0.988
_diffrn_reflns_point_group_measured_fraction_max 0.989
_diffrn_reflns_theta_full        19.664
_diffrn_reflns_theta_max         20.500
_diffrn_reflns_theta_min         2.115
_exptl_absorpt_coefficient_mu    40.423
_exptl_absorpt_correction_T_max  0.5801
_exptl_absorpt_correction_T_min  0.0110
_exptl_absorpt_correction_type   multi-scan
_exptl_absorpt_process_details   '(Blessing, 1995)'
_exptl_crystal_colour            'metallic dark gray'
_exptl_crystal_density_diffrn    7.443
_exptl_crystal_description       'irregular polyhedron'
_exptl_crystal_F_000             1627
_exptl_crystal_size_max          0.080
_exptl_crystal_size_mid          0.078
_exptl_crystal_size_min          0.042
_refine_diff_density_max         3.158
_refine_diff_density_min         -1.994
_refine_diff_density_rms         0.454
_refine_ls_extinction_coef       0.00130(18)
_refine_ls_extinction_expression Fc^*^=kFc[1+0.001xFc^2^\l^3^/sin(2\q)]^-1/4^
_refine_ls_extinction_method     'SHELXL-2017/1 (Sheldrick 2017)'
_refine_ls_goodness_of_fit_ref   0.974
_refine_ls_hydrogen_treatment    none
_refine_ls_matrix_type           full
_refine_ls_number_parameters     72
_refine_ls_number_reflns         1012
_refine_ls_number_restraints     4
_refine_ls_restrained_S_all      0.972
_refine_ls_R_factor_all          0.1209
_refine_ls_R_factor_gt           0.0516
_refine_ls_shift/su_max          0.004
_refine_ls_shift/su_mean         0.000
_refine_ls_structure_factor_coef Fsqd
_refine_ls_weighting_details
'w=1/[\s^2^(Fo^2^)+(0.0644P)^2^] where P=(Fo^2^+2Fc^2^)/3'
_refine_ls_weighting_scheme      calc
_refine_ls_wR_factor_gt          0.1053
_refine_ls_wR_factor_ref         0.1278
_reflns_Friedel_coverage         0.000
_reflns_number_gt                581
_reflns_number_total             1012
_reflns_threshold_expression     'I > 2\s(I)'
_cod_data_source_file            d2dt01651f2.cif
_cod_data_source_block           CF215A_K3_350
_cod_original_sg_symbol_H-M      'C 2/m'
_cod_original_formula_sum        'Ag0.80 Bi10.80 Cu2.80 Se18'
_cod_database_code               7711178
_shelx_shelxl_version_number     2017/1
_shelx_space_group_comment
;
The symmetry employed for this shelxl refinement is uniquely defined
by the following loop, which should always be used as a source of
symmetry information in preference to the above space-group names.
They are only intended as comments.
;
_shelx_res_file
;
TITL CF215A_K3_350 in C2/m
    CF215A_K3_350.res
    created by SHELXL-2017/1 at 17:33:25 on 23-May-2022
CELL 0.56083  13.79030   4.19710  15.41190  90.0000  99.5790  90.0000
ZERR    1.00   0.00276   0.00084   0.00308   0.0000   0.0300   0.0000
LATT  7
SYMM -X, Y, -Z
SFAC CU SE AG BI
UNIT 2.8 18 0.8 10.8

L.S. 20
BOND
FMAP 2
PLAN 20

ACTA

SHEL 0.8 10000

OMIT 2 0 1
rem OMIT 2 0 2
rem OMIT 2 0 0

EXYZ BI2 AG2
EADP BI2 AG2

SUMP 6.8 0.001 4 2 4 4
SUMP 0.8 0.001 4 5
SUMP 2.8 0.001 4 6 4 8 4 9 4 10 4 11
SUMP 1 0.001 1 4 1 5 1 6

WGHT    0.064400
EXTI    0.001297
FVAR       0.03442   0.94282   0.00000   0.75718   0.20001   0.04256   0.00000
FVAR       0.09138   0.16019   0.24330   0.16260
BI1   4    0.451378    0.000000    0.189017    20.50000    0.05015    0.04325 =
         0.04621    0.00000    0.01051    0.00000
BI2   4    0.151630    0.000000    0.064604    40.50000    0.04063    0.03922 =
         0.04948    0.00000    0.00948    0.00000
AG2   3    0.151630    0.000000    0.064604    50.50000    0.04063    0.03922 =
         0.04948    0.00000    0.00948    0.00000
CU2   1    0.150132    0.000000    0.020457    60.50000    0.01944
BI3   4    0.243510    0.000000    0.622229    10.50000    0.06637    0.05861 =
         0.04929    0.00000   -0.00495    0.00000
SE1   2    0.400995    0.000000    0.357499    10.50000    0.05382    0.03891 =
         0.05357    0.00000    0.02745    0.00000
SE2   2    0.792917    0.000000    0.124168    10.50000    0.03590    0.03242 =
         0.07119    0.00000   -0.00386    0.00000
SE3   2    0.137641    0.000000    0.456056    10.50000    0.03886    0.03601 =
         0.03422    0.00000    0.00738    0.00000
SE4   2    0.093678    0.000000    0.230773    10.50000    0.03973    0.03497 =
         0.04582    0.00000    0.00131    0.00000
SE5   2    0.000000    0.500000    0.000000    10.25000    0.03349    0.03394 =
         0.03458    0.00000    0.00231    0.00000
CU3   1   -0.015853    0.000000    0.437624    80.50000    0.13159
CU4   1    0.461606    0.000000    0.531707    90.50000    0.09143
CU5   1    0.000000    0.331420    0.500000   100.50000    0.07833
CU6   1    0.494870    0.000000    0.510077   110.50000    0.02977
HKLF 4




REM  CF215A_K3_350 in C2/m
REM R1 =  0.0516 for     581 Fo > 4sig(Fo)  and  0.1209 for all    1012 data
REM     72 parameters refined using      4 restraints

END

WGHT      0.0644      0.0000

REM Highest difference peak  3.158,  deepest hole -1.994,  1-sigma level  0.454
Q1    1   0.3645  0.0000  0.3117  10.50000  0.05    3.16
Q2    1   0.2490  0.0000  0.6830  10.50000  0.05    2.84
Q3    1   0.3027  0.0000  0.5007  10.50000  0.05    2.34
Q4    1   0.5135  0.0000  0.2446  10.50000  0.05    2.03
Q5    1   0.1981  0.0000  0.5660  10.50000  0.05    2.01
Q6    1   0.1866  0.0000  0.1113  10.50000  0.05    1.98
Q7    1   0.0763  0.0000  0.1796  10.50000  0.05    1.90
Q8    1  -0.0016  0.0000  0.3793  10.50000  0.05    1.86
Q9    1   0.4252  0.0000  0.1244  10.50000  0.05    1.77
Q10   1   0.1069  0.0000  0.0022  10.50000  0.05    1.64
Q11   1   0.0348  0.5000  0.0486  10.50000  0.05    1.56
Q12   1   0.3841  0.0000  0.2408  10.50000  0.05    1.54
Q13   1   0.2954  0.0000  0.7392  10.50000  0.05    1.44
Q14   1   0.1143  0.0000 -0.0621  10.50000  0.05    1.33
Q15   1   0.0827  0.0000  0.3926  10.50000  0.05    1.31
Q16   1   0.2885  0.0000  0.1993  10.50000  0.05    1.30
Q17   1   0.2808  0.0000  0.6031  10.50000  0.05    1.30
Q18   1   0.0437  0.0000  0.1212  10.50000  0.05    1.25
Q19   1   0.1809  0.0000  0.4735  10.50000  0.05    1.24
Q20   1   0.1583  0.2636  0.5315  11.00000  0.05    1.24
;
_shelx_res_checksum              66615
_shelx_hkl_file
;
  -4  -2   2   33.05    1.71
   4   0  -2   43.84    0.70
   5  -3  -2   17.76    1.51
   5   1  -4  487.86    3.23
 -13  -1   2   -0.22    0.43
  -4   2  -2    0.85    1.20
   0  -2   1    5.57    1.29
   8   0  -5    2.25    0.71
  10   0  -7   51.88    1.46
  -1   1  -1    0.82    0.89
  -5   3  -5    0.35    1.73
  -2  -2   2    9.50    1.63
   3   1  -3  145.43    1.79
   4   2  -6    1.79    1.67
   7  -3  -3    1.14    1.31
   7   1  -6   34.36    1.59
   9   1  -8    1.17    1.61
  -7   3  -5    0.05    1.95
  -6  -2   3   11.71    1.65
  -3  -1   2  112.62    1.81
   1   1  -2  228.51    2.02
 -10   0   2    8.18    1.31
  -9  -1   3   22.06    1.91
  -5   1   0    0.94    0.42
   0   2  -4   36.79    1.68
   1  -3   1    1.02    1.62
   2   0  -1    7.99    0.25
   2   2  -5  317.99    3.47
   3  -3   0  138.53    2.72
   6  -2  -2    2.53    0.86
  -8   2  -2   36.30    1.39
  -7  -1   3    2.19    1.53
  -4  -2   3   -0.33    1.47
 -13  -1   3    2.17    2.18
 -12   0   2    7.22    1.38
   4   2  -7   23.01    1.91
   5  -3  -1    0.63    1.64
   5   1  -5   82.48    1.74
   9   1  -9   13.01    1.82
   7   1  -7   14.05    1.71
  -4   2  -3    5.87    1.33
   0  -2   2    0.29    1.36
   2   2  -6   24.52    1.71
   6   0  -4  227.95    1.65
  -6  -2   4  113.35    2.53
  -6   0   2   10.06    0.69
   8   0  -6    5.24    0.90
  -2  -2   3    7.58    1.57
   0   2  -5   74.14    2.07
   1  -3   2   -0.08    1.66
 -11  -1   4   -0.20    2.19
  -6   2  -3    2.68    1.50
   3  -3   1  260.96    3.15
   7  -3  -2   10.51    1.18
 -13  -1   4    1.54    2.27
  -9  -1   4    2.52    1.83
  -4  -2   4   19.77    1.77
  -1  -1   2  240.00    2.14
   1  -1   1    0.53    0.92
   2   2  -7    5.44    1.68
   5   1  -6   -1.11    1.35
   7   1  -8   68.45    2.10
  10   0  -9   51.73    1.68
  -8   2  -3    9.56    1.40
   1   1  -3   -0.54    1.07
   5  -3   0    1.56    1.54
  -7  -1   4    0.57    1.61
  -4   2  -4   46.02    1.73
  -3  -1   3  147.93    1.97
   0   2  -6    1.06    1.56
  -6  -2   5   80.52    2.61
  -1   1  -2   10.62    0.97
   7   1  -9   86.36    2.34
  10   0 -10    2.22    1.55
 -12   0   3    2.09    1.25
 -10   0   3    3.33    1.11
  -6   2  -4   -0.14    1.63
  -5  -1   4  476.22    3.54
  -2  -2   4  201.12    2.65
   3  -3   2    4.24    1.56
   3   1  -5   44.68    1.45
   9  -1  -6    9.30    0.73
 -11  -1   5   -0.53    2.26
  -4  -2   5   38.05    1.99
   6  -2  -1    0.58    0.82
 -13  -1   5    1.01    1.89
  -9  -1   5  110.12    2.66
  -8   0   3  468.33    2.73
  -8   2  -4   47.27    1.78
  -4   2  -5   53.31    2.04
   6   0  -5  162.52    1.62
   7  -3  -1    8.36    0.99
  10   0 -11   15.49    1.70
   5  -3   1    1.26    1.32
  -7  -1   5    8.91    1.69
   1   1  -4   10.99    1.25
   8   0  -8   20.34    1.58
  -6   2  -5   20.63    1.73
   3   1  -6  191.79    2.47
  -4   2  -6   96.33    2.40
  -2  -2   5  315.40    3.52
   0  -2   4   36.00    1.80
   3  -3   3    2.13    1.61
 -11  -1   6    6.74    2.21
  -8   2  -5   -0.31    1.58
  -4  -2   6    1.84    1.85
  -3  -1   4   66.11    1.73
  -1  -1   3   -1.30    0.84
 -13  -1   6    8.11    2.05
  -5  -1   5   84.29    1.99
  -1   1  -3   30.35    1.15
   8   0  -9   11.35    1.47
  -9  -1   6    9.57    2.01
  -6   0   3   45.22    1.09
  -6   2  -6   -0.17    1.77
  -5   1  -1    1.00    0.66
  -4   2  -7   97.93    2.57
   1  -1   2   10.38    1.04
   3   1  -7    7.72    1.56
   6   0  -6   26.23    1.09
   7  -3   0    7.79    1.18
  -8   2  -6    1.63    1.75
   1   1  -5   19.05    1.41
 -12   0   4   17.36    1.31
 -10   0   4    1.16    1.25
  -7  -1   6   30.91    1.94
  -6   2  -7   34.51    2.26
   3  -3   4    6.61    1.66
   8   0 -10   44.88    1.84
  -2  -2   6   22.78    1.46
   0  -2   5   75.47    2.18
   4  -2   2    0.54    1.23
   6  -2   0   10.57    0.96
  -8   2  -7   -1.45    1.59
   8   0 -11    2.18    1.55
  10   0  -4    0.35    1.43
  12   0  -7   19.85    2.51
 -11  -1  -1    4.67    1.55
  -6   0  -4    4.89    0.86
  -9  -1   2    1.54    2.27
   2   0   0    3.71    0.16
  12   0  -8   27.93    2.57
  -1  -1   6  155.66    3.11
   8   0  -3  449.85    3.44
  10   0  -5   -0.30    1.92
  -7  -1   4    0.12    2.12
  -3  -1   6  173.95    3.20
   6  -2   9   -1.02    2.41
 -11  -1   0    5.40    1.66
  -9  -1   3   16.66    2.72
  -6   0  -5   44.10    1.36
  -6   0 -10   14.15    2.49
  -6   0  -6    1.31    1.56
  -5  -1   6    1.47    2.51
   6   0  -2    8.49    1.26
   8   0  -4   74.21    2.12
  10   0  -8   89.28    3.33
  -7  -1   5    6.94    2.62
  -6   0  -9    2.64    1.97
  -6   0  -8   80.86    2.62
  -6   0  -7   53.58    2.10
   7  -1   5    7.97    1.73
 -11  -1   1    2.47    2.24
  -3  -1   7    8.85    2.87
   4   0  -1  103.49    1.27
  -9  -1   4   -1.07    2.63
  -4   0 -12    1.53    2.65
  -4   0 -11    1.55    2.64
   8   0  -9   10.49    2.91
  -4   0 -10    2.71    2.62
  -3  -1   8    2.52    3.08
  -4   0  -9   95.25    3.10
   9  -1   4    7.69    1.24
  -5  -1   8    7.85    3.04
  -4   0  -8   79.04    2.63
  -2   0 -11   46.19    3.37
   6   0  -9   12.77    2.83
  -9  -1   6   11.26    3.50
  -2   0 -10   14.66    2.85
   4   0  -2   43.78    1.33
   6   0  -8   46.76    2.87
   6   0  -7   -0.46    2.38
  -4   0  -5   83.28    1.83
  -4   0  -4   64.93    1.38
  -3  -1   9   24.45    3.00
  -2   0  -9   21.37    2.56
   0   0 -10    4.57    2.51
   4   0 -10  291.94    4.45
   4   0  -9   12.59    2.70
 -11  -1   4   -0.59    2.94
   2   0 -10   18.43    2.11
   4   0  -8  122.81    3.50
   4   0  -3    1.32    1.38
  -1  -1  10   61.53    3.58
   0   0  -9   21.00    1.96
   2   0  -9   26.23    2.21
   3  -1   9    5.57    3.20
   4   0  -6   -0.01    1.97
   4   0  -5   60.62    2.26
   4   0  -4   30.81    1.79
 -11  -1   5   -0.35    2.83
   0   0  -8   -2.11    2.29
   2   0  -8  104.06    2.79
   2   0  -7    2.87    2.28
   2   0  -1    7.74    0.52
   5  -1   8   -2.79    2.39
   2   0  -6   53.88    2.47
 -11  -1   6    3.27    3.04
  -2   0  -5  158.22    2.29
   0   0  -6    3.22    1.78
   2   0  -5  436.64    3.89
   2   0  -2    5.71    0.97
  -2   0  -4   84.22    1.70
   0   0  -5  119.20    2.39
   2   0  -4  369.26    3.38
   2   0  -3   27.68    1.68
   3  -1  10   43.69    3.40
   5  -1   9   22.90    3.09
  -2   0  -3  190.08    1.95
   0   0  -4   53.37    2.03
   9  -1   5   -0.08    1.37
  -2   0  -2   70.92    1.02
   0   0  -3    5.75    1.23
  11  -1   0    4.58    1.21
  -2   0  -1   22.95    0.25
  11  -1  -7   11.38    2.53
  11  -1  -6    6.05    2.90
   0   0  -2    6.45    0.53
  11  -1  -5    1.91    2.49
  11  -1  -1    2.64    1.55
  -7  -1 -11   -2.11    2.86
  -2   0   1    8.35    0.70
  11  -1  -4    1.02    1.86
   5  -1  11    0.12    2.79
   9  -1  -8    4.35    3.01
  -7  -1 -10   15.60    3.02
  -5  -1 -11   -0.13    2.94
  -2   0   4  373.84    3.74
   0   0   3    4.63    1.48
   9  -1  -7   56.26    3.36
  -2   2   8   61.53    1.80
  -1  -1  -9   31.36    2.03
  -1   3  10   20.64    2.28
 -11   1   3   59.03    1.98
  -9   1   4   -0.19    1.27
  -6   0   0   13.52    1.38
  -4   2   8   54.70    1.33
  -3  -1  -9    0.32    2.00
   2   2   7    0.58    1.75
   3  -1 -11    0.07    1.34
  -1  -1  -8   24.78    1.79
   7   1   1   11.56    1.82
   1   1   4    0.61    0.96
   3  -1 -10   35.55    1.55
   4   0  -2   43.35    1.01
  10   0  -9   53.15    1.54
 -10   0  -1    2.59    2.00
  -5  -1  -7   30.11    2.18
  -3  -1  -7   35.46    1.97
   3   1   3    0.90    1.36
   5   1   2   72.01    1.75
   8   0  -6    6.73    1.08
   0   2   7  105.23    2.20
  11   1  -4    0.92    1.99
 -13   1   3    3.23    1.99
 -11   1   4    0.15    1.54
  -7   1   5    8.78    0.79
  -5  -1  -6    2.61    1.83
  -3  -1  -6  115.18    2.45
  -1   3   9    7.87    1.79
   6   0  -4  231.93    1.86
   7   1   0   22.16    1.89
 -10   0   0   38.23    2.28
  -4   0   1  105.93    1.38
   3  -1  -9   22.77    1.12
  -5  -1  -5    2.94    1.75
   2   0  -1    7.53    0.31
  11   1  -5    0.98    1.80
  -3  -1  -5   18.18    1.58
  -3   3   9    3.30    1.40
  -2   2   7    4.07    1.23
   5   1   1    1.17    1.40
   6   2   3    7.99    1.97
   8   0  -7    5.86    1.14
   9   1  -3   18.12    1.92
 -13   1   4    2.12    1.59
  -7  -1  -4    9.45    1.92
  -5  -1  -4    2.16    1.76
   5  -1 -11   12.96    0.92
   7   1  -1   37.95    1.79
  11   1  -6    7.56    1.73
  -1  -1  -5  421.94    2.94
  -1   3   8    5.70    1.72
   0   2   6    0.68    1.23
   3   1   2   10.00    0.92
   4   2   4   44.94    1.64
 -11   1   5    0.74    1.21
  -3  -1  -4   13.66    1.43
   1   1   3   31.26    1.10
   3  -1  -8    3.69    0.92
  -7  -1  -3   28.91    1.90
   6   2   2  200.47    3.28
   9   1  -4    3.07    1.72
  11   1  -7    6.84    1.69
 -10   0   2    8.03    1.69
  -5  -1  -3  332.11    3.47
   5   1   0    0.84    1.27
   6   0  -5  169.20    1.55
 -12   0   2    4.22    1.77
  -7  -1  -2    4.30    1.74
  -3   3   8    0.00    1.35
   4   2   3    8.08    1.62
   8   0  -8   21.24    1.08
  11   1  -8    8.64    1.69
  -3  -1  -3    1.48    1.35
  -1  -1  -4    2.22    1.01
   9   1  -5  108.13    2.52
  -2   2   6   23.82    1.35
  -1   3   7   32.69    1.80
   1   3   6   56.84    2.21
   2   2   4   38.75    1.78
 -10   0   3    2.42    1.84
   0   2   5   76.44    1.75
   3   1   1  671.44    3.44
  11   1  -9    7.31    1.70
 -12   0   3    2.74    1.70
  -8   0   3  447.94    3.29
  -7  -1  -1    8.02    1.85
   5   1  -1    6.46    1.01
  -5   1   9   71.43    1.77
  -3   1  -7   39.66    1.66
   1   1 -12    3.15    1.02
   4   0  10    0.00    1.45
  -5   1  -3  347.21    3.59
   0   0   4   42.08    0.45
   2   0   8   23.85    1.20
   6   0  -8   42.74    1.51
   8   0  -9    9.98    1.52
  10   0  -9   50.78    2.57
  -5   1  10    8.26    1.40
   6   0  10   12.24    1.84
  -5   1  -4    0.90    1.76
   6   0   9    3.29    1.87
   8   0  -8   18.36    1.88
  -7   1   2   18.43    2.09
  -7   1   3    4.91    1.98
   2   0   7    0.08    0.94
   4   0  -6    0.41    0.92
   6   0  -7    1.45    1.51
  10   0  -7   48.64    2.80
  -7   1   6   29.13    2.48
  -5   1  11   10.30    1.41
   2   0  -4  382.08    1.59
   4   0   8   79.50    2.08
   6   0   8   82.43    2.81
   8   0  -7    8.44    1.94
  -7   1  -1    8.41    2.42
  -7   1   7   11.20    2.45
  -5   1  -6    5.73    2.11
  -1   1 -11    2.30    1.38
   0   0   3    3.49    0.25
   8   0   7    3.23    2.37
  10   0  -6    3.06    2.31
  -7   1  -2    4.90    2.41
   2   0   6   90.79    1.80
   4   0   7  145.12    2.58
   6   0  -6   27.80    1.62
   6   0   7   56.54    2.62
   8   0  -6    8.69    2.09
   8   0   6   -0.97    2.48
  10   0  -5    2.21    2.53
  -7   1   8   72.60    2.63
   4   0   6  183.03    2.80
   6   0   6    0.71    2.11
   8   0   4   93.70    3.28
  -7   1  -4   11.14    2.60
  -5   1  12   22.29    1.65
   8   0   3   24.81    2.87
  -5   1  -8    0.95    2.53
   0   0   2    4.11    0.13
   6   0   4    7.17    2.12
   8   0   1   63.66    3.10
   8   0   2   78.38    3.23
  -7   1  10  108.43    2.82
  -1   1 -12    1.93    1.72
   2   0  -3   27.83    0.88
   4   0  -4   34.85    1.35
   6   0   3    1.34    2.20
   8   0  -1   37.91    2.20
   8   0   0   28.94    2.11
  -9   1   5  111.42    3.69
  -9   1   6   13.13    2.83
   2   0   4   93.37    1.56
   4   0   4   77.00    2.09
   6   0  -3   49.14    2.16
   6   0  -2    8.11    1.93
   6   0   2  340.41    4.37
  -9   1   7   53.66    3.11
  -5   1  -9   19.73    2.63
  -3   1 -11   46.57    2.50
   4   0  -3    2.02    1.29
   4   0   3    8.68    1.49
   6   0  -1    3.51    1.98
   6   0   0   13.00    2.12
   6   0   1  367.93    4.30
  -9   1   8    2.19    2.51
  -7   1  -7   32.49    3.04
  -7   1  11   45.76    2.33
   2   0   3  196.53    1.94
   4   0   2   -3.77    1.70
   2   0  -2    7.02    0.60
   4   0   0   -0.97    1.54
   4   0   1    2.41    1.57
  -9   1   9    8.73    2.28
  -5   1 -10   32.49    2.41
   2   0   2   70.19    1.24
  -9   1  10    7.28    2.10
  -7   1  12   -2.87    1.47
   2   0   1   29.78    0.81
  -3   1 -12   -0.10    1.36
   2   0   0    3.32    0.58
  -5   1 -11   -1.95    1.41
   9   1 -11   -0.76    1.32
   1  -3  11   -0.81    1.39
   3  -3   6   29.44    2.08
   5  -3   3   98.17    2.82
   6  -4   9   -1.12    2.76
   9  -1  -7   55.33    1.88
  10  -4   3   -0.96    2.76
  13  -5  10    4.99    2.94
  13  -3  -4    3.07    2.55
  14  -4   0   -0.19    2.89
  16  -2  -8    0.43    2.33
   1  -3  12    0.94    1.30
   4  -2   0   -0.26    1.01
   6  -4  10    4.08    2.45
   6  -2  -2    3.28    1.45
   7  -3   1    3.96    2.11
   9  -3  -1    2.61    2.20
  10  -4   4    0.04    2.52
  11  -1  -8    6.68    1.66
  12  -4   2    2.38    2.87
  13  -1  -9    1.28    1.39
  14  -4   1    3.09    2.69
  14  -2  -7    4.30    2.35
  16  -4   0   -0.35    3.43
  17  -3  -5    2.36    2.69
  18  -2  -8   -1.00    2.72
  19  -3  -5    5.07    3.05
  21  -3  -5    1.09    3.11
   2  -2   3  108.01    1.90
   3  -3   7   10.08    1.81
   6  -4  11   -1.39    2.46
   8  -4   7   -3.38    2.63
  10  -2  -5   -2.08    1.85
  11  -3  -2   73.33    3.18
  12  -4   3   14.08    3.27
  12  -2  -6    0.85    1.98
  15  -3  -4    1.34    2.73
  16  -4   1    7.93    3.37
   0  -2   7  110.18    1.68
   5  -3   4    0.67    1.84
   6  -4  12   -0.08    2.44
   6  -4  13   -0.95    2.33
   6  -4  14    0.30    2.53
   8  -4   8    0.18    2.58
   9  -3   0    0.91    2.22
  10  -4   5    2.19    2.50
  14  -4   2    4.69    2.55
  17  -3  -4    0.08    2.88
  18  -4   1   -0.41    3.13
  19  -3  -4   -1.15    3.10
  21  -3  -4    2.43    2.95
   3  -3   8   31.53    1.89
   7  -3   2    3.71    1.93
   7  -1  -5    8.72    1.06
   8  -4   9    1.37    2.60
   8  -2  -3  287.41    3.53
  11  -3  -1   -0.32    2.43
  12  -4   4    3.64    2.81
  14  -4   3    2.06    2.82
  15  -3  -3    1.59    2.74
  18  -4   2   -2.20    3.61
  18  -2  -7   -0.59    2.77
   3  -3   9   -0.32    1.64
   4  -2   1    2.07    1.01
   6  -2  -1   -1.73    1.45
   8  -4  10    1.14    2.53
   8  -4  11    1.60    2.37
   9  -3   1    4.69    2.25
  10  -2  -4    1.11    1.76
  12  -4   5    1.26    2.93
  12  -2  -5    4.63    2.03
  14  -4   4   -2.69    2.96
  14  -2  -6    1.88    2.05
  16  -4   3    2.36    3.02
  17  -3  -3    2.61    2.84
  18  -4   3    1.29    3.46
  19  -3  -3   -1.74    2.96
  21  -3  -3    2.73    3.07
   0  -2   8    1.65    0.91
   3  -3  10    9.17    2.01
   5  -3   6    2.37    2.08
   7  -3   3    6.82    2.27
   8  -4  12   -1.57    2.54
   8  -4  13    8.82    2.64
   8  -4  14    1.87    2.57
   9  -1  -6    8.47    1.37
  10  -4   8    8.27    2.78
  11  -3   0    8.59    2.27
  12  -4   6    0.90    3.03
  13  -3  -1    0.74    2.47
  13  -1  -8   19.80    1.72
  14  -4   5    1.80    3.19
  16  -4   4   -0.33    3.30
  16  -2  -6    7.70    2.62
  18  -4   4    0.68    3.53
  21  -3  -2   -0.15    3.39
   8  -4  15    2.60    2.46
   8  -2  -2   15.60    1.84
  10  -4  10    0.29    2.72
  11  -1  -7    7.38    1.46
  12  -4   7    1.00    2.58
  14  -4   6   -0.55    3.20
  16  -4   5   -2.31    3.16
  16  -4   6   -2.07    2.89
  17  -3  -2    1.21    2.82
  18  -4   5    0.60    3.46
  18  -2  -6   -1.07    2.50
  19  -3  -2    1.79    2.97
  20  -2  -6    2.14    2.81
   3  -3  11   12.80    1.74
   3  -3  12    0.15    1.71
   4  -2   2    0.35    1.25
   5  -3   7   10.47    1.88
   7  -3   4    5.48    2.04
   9  -3   2   71.02    2.47
  10  -4  11    0.62    2.55
  10  -4  12    0.73    2.76
  10  -4  13   -2.52    2.51
  10  -4  14   -1.34    2.88
  10  -4  16   -0.65    3.16
  11  -3   1    2.01    2.39
  12  -4   9   -3.78    2.84
  13  -3   0    7.59    2.63
  14  -4   7   -0.50    3.06
  14  -4   8    4.85    2.78
  14  -2  -5   -0.91    2.16
  15  -1  -8    1.54    1.71
  16  -4   7   -4.55    3.48
  17  -3  -1    3.58    2.95
  19  -3  -1   -0.65    2.78
  21  -3  -1   -3.52    3.24
   0  -2   9    7.44    1.09
   3  -3  13    2.44    1.47
   6  -2   0   11.43    1.45
   7  -3   5    2.19    1.93
   9  -3   3   39.75    2.65
  10  -4  15    2.21    2.77
  12  -4  10   -1.94    2.59
  12  -4  11   -2.30    2.88
  12  -4  12   -4.27    3.08
  12  -2  -4   11.85    2.08
  14  -4  10    2.24    3.37
  15  -3   0   -0.76    2.53
  16  -4   8    3.00    3.39
  16  -4   9    3.00    3.13
  16  -2  -5    4.25    2.43
  18  -2  -5    1.48    2.77
  20  -2  -5   -2.11    2.71
  21  -3   0    1.30    3.36
  22  -2  -5    5.02    3.10
   5  -3   8    0.06    1.72
  11  -3   2    1.80    2.32
  12  -4  13    1.11    2.81
  12  -4  14   -1.15    2.72
  12  -4  15    1.45    2.69
  12  -4  16   -0.01    2.58
  13  -3   1   -0.97    2.43
  13  -1  -7   60.43    2.28
  14  -4  11   -0.29    3.21
  14  -4  12   -3.12    3.11
  14  -4  13   -0.37    2.72
  19  -3   0   -2.24    3.27
  21  -3   1   -4.67    3.62
  22  -2  -4    2.57    3.27
   0  -2  10    1.19    1.19
   5  -3   9    4.83    1.85
   8  -2  -1   12.05    1.99
   9  -3   4    5.40    2.07
  11  -1  -6    8.05    1.81
  12  -2  -3    2.45    1.94
  14  -2  -4   -0.59    2.00
  15  -3   1    1.94    2.64
  17  -3   1   -1.47    2.67
  20  -2  -4    1.20    3.13
   2  -2   6   45.60    1.47
   4  -2   3    6.78    1.16
   5  -3  10    8.59    1.99
   6  -2   1  246.50    3.04
   9  -1  -5  105.91    2.01
  10  -2  -2    4.73    1.90
  11  -3   3   -1.76    2.70
  13  -3   2    0.61    2.54
  15  -1  -7    1.54    1.89
  16  -2  -4   -0.65    2.29
  18  -2  -4    1.25    2.72
  21  -3   2   -0.78    3.48
  22  -2  -3   -2.66    2.77
   0  -2  11   27.25    1.39
   5  -3  11    0.46    1.75
   5  -3  12   24.22    2.27
   9  -3   5   -0.26    2.01
  11  -3   4    5.31    2.52
  13  -3   3    0.13    2.63
  14  -2  -3   -0.75    2.31
  15  -3   2    0.53    2.65
  17  -3   2    0.68    2.60
  17  -1  -7    0.55    1.90
  19  -3   3   -0.61    3.05
  20  -2  -3    2.25    2.54
   0  -2  12   19.71    1.29
   5  -3  13   12.66    2.15
   5  -3  14    6.65    2.13
   5  -3  15   -1.75    2.20
   7  -3   8   53.43    2.56
   8  -2   0   10.57    1.92
   9  -3   6   11.13    2.49
  13  -3   4    4.12    2.45
  13  -1  -6    7.49    1.89
  15  -3   3    7.85    2.99
  16  -2  -3    1.62    2.50
  17  -3   3   -0.80    2.88
  18  -2  -3   -2.74    2.73
  19  -3   4   -1.64    3.21
  22  -2  -2    2.76    2.81
   2  -2   7    0.73    1.12
   4  -2   4   43.74    1.57
   6  -2   2  202.11    2.89
   7  -3   9    3.00    1.80
   7  -3  10    3.94    1.99
  10  -2  -1    6.66    1.37
  11  -3   5    7.74    2.64
  17  -3   4    1.17    3.27
  19  -3   5    2.15    3.47
  20  -2  -2   -1.05    2.96
  22  -2  -1    0.39    3.17
   7  -3  11   -0.11    2.11
  11  -3   6   -2.33    2.64
  11  -1  -5   -1.24    1.53
  13  -3   5    0.37    2.42
  14  -2  -2   53.27    2.69
  15  -3   5    2.21    3.07
  15  -1  -6    2.45    1.77
  16  -2  -2   -3.75    2.53
  17  -3   5    4.32    3.26
  17  -1  -6    4.16    2.17
  18  -2  -2   -1.53    2.72
  19  -3   6   -0.41    3.39
  19  -1  -6    2.69    2.82
   2  -2   8   14.15    1.31
   7  -3  12    0.75    2.20
   7  -3  13    3.19    2.15
   7  -3  14   -2.57    2.28
   7  -3  15    9.05    2.50
   7  -3  16   -0.78    2.63
   8  -2   1   29.20    2.05
   9  -3   9    4.17    2.54
   9  -1  -4    2.50    1.30
  10  -2   0   28.07    2.25
  11  -3   7   -1.68    2.53
  12   0  -8   29.71    1.30
  13  -3   6    1.69    2.45
  15  -3   6   -1.78    2.68
  17  -3   6    4.50    3.05
  17  -3   7   -0.62    3.09
  19  -3   7    3.59    3.03
  20  -2  -1    0.97    3.11
  22  -2   0   -0.04    3.26
   6  -2   3    4.96    1.58
   9  -3  10   -0.41    2.39
   9  -3  11    1.90    2.50
  13  -3   7    0.11    2.59
  13  -3   8    2.55    2.92
  13  -1  -5    2.00    1.69
  15  -3   7   -0.54    2.62
  15  -3   8   -2.02    2.91
  16  -2  -1    2.16    2.55
  17  -3   8   -1.28    3.49
  17  -3   9    4.17    3.04
  18  -2  -1    2.04    2.61
  19  -1  -5    6.93    2.83
  20  -2   0    7.32    3.04
  22  -2   1   -2.57    3.24
   2  -2   9   11.37    1.39
   8  -2   2   34.94    2.24
   9  -3  12   -2.06    2.40
   9  -3  13   -0.65    2.50
   9  -3  15    0.83    2.47
   9  -3  16   -1.88    2.58
   9  -3  17   -0.53    2.69
  10  -2   1    1.99    1.99
  10   0  -7   52.20    1.67
  11  -3  10    4.47    2.60
  11  -3  11   -0.04    2.54
  11  -3  18    1.93    2.67
  12  -2   0   -0.98    2.19
  13  -3   9    0.99    3.09
  15  -3   9   -2.29    3.31
  15  -3  10    1.16    3.08
  15  -1  -5    3.93    1.92
  17  -3  10    1.76    3.49
  17  -3  11   -1.86    3.34
  18  -2   0   -4.67    3.03
  20  -2   1   -1.19    2.95
  21  -1  -4    0.22    3.08
  22  -2   2    1.38    3.27
  23  -1  -3   -0.22    3.45
   2  -2  10    9.27    1.68
   6  -2   4    1.29    1.65
  11  -3  12   -2.25    2.73
  11  -3  13    0.49    2.82
  11  -3  14    4.90    2.91
  11  -3  16    0.86    2.73
  11  -3  17    0.07    2.71
  11  -1  -4    2.53    1.59
  13  -3  11    1.03    2.85
  13  -3  12   -0.04    2.78
  13  -3  13    1.22    2.96
  13  -3  14    1.70    2.90
  13  -3  15    1.54    2.87
  13  -3  16    2.58    2.83
  13  -3  17    0.72    2.74
  15  -3  12   -0.87    3.21
  15  -3  13    1.75    3.30
  15  -3  14    1.33    3.13
  15  -3  15    1.97    3.11
  22  -2   3   -1.78    3.68
   7  -1  -2   18.43    1.38
   8  -2   3   10.84    1.99
   9  -1  -3   18.21    1.53
  12  -2   1    0.58    2.32
  14  -2   1    0.17    2.34
  18  -2   1    2.54    2.81
  19  -1  -4    0.58    2.61
  20  -2   2   -1.19    3.24
  21  -1  -3   -2.61    3.21
  23  -1  -2   -1.47    2.97
   2  -2  11   27.58    1.64
   4  -2   7   97.67    2.30
   6  -2   5   19.75    2.00
  10  -2   2    1.23    1.55
  13  -1  -4    3.76    1.96
  15  -1  -4    2.51    2.08
  17  -1  -4    1.07    2.43
  23  -1  -1   -0.53    3.30
   2  -2  12   87.08    2.13
   2  -2  13    5.56    1.61
   4  -2   8   39.52    1.94
   8  -2   4   53.42    2.50
  10  -2   3    0.80    2.22
  12  -2   2    5.45    2.36
  12   0  -7   19.13    1.43
  14  -2   2    0.20    2.59
  16  -2   2   -1.18    2.62
  18  -2   3   -1.16    2.88
  19  -1  -3    1.94    2.70
  20  -2   5    3.59    3.56
  21  -1  -2   -2.44    3.28
   2  -2  14    2.06    1.34
   5  -1   0    1.84    1.06
   6  -2   6   -0.56    1.89
  11  -1  -3   61.58    2.44
  12  -2   3   63.40    3.25
  14  -2   3   -2.53    2.64
  14   0  -7    8.48    1.76
  16  -2   3   -0.42    2.84
  17  -1  -3    3.93    2.53
  18  -2   4    0.85    3.13
  20  -2   6    2.89    3.68
  20  -2   7    0.43    3.94
  23  -1   0   -3.00    3.40
   4  -2   9   51.08    2.10
   8  -2   5    0.38    2.13
  10  -2   4    6.61    2.37
  13  -1  -3    2.38    2.04
  15  -1  -3    3.00    2.23
  16  -2   4    3.43    2.98
  18  -2   5    5.06    3.29
  19  -1  -2   -1.35    2.97
  20  -2   8   -1.15    3.68
  21  -1  -1    0.71    2.76
  23  -1   1    0.50    3.52
   4  -2  10   -0.77    1.61
   7  -1  -1   34.07    1.31
  10  -2   5   12.74    2.27
  10   0  -6    0.57    1.43
  12  -2   4    8.20    2.66
  14  -2   4   -0.21    2.51
  16  -2   5    0.55    3.14
  17  -1  -2    2.54    2.75
  18  -2   7   -3.39    3.91
  19  -1  -1   -4.45    3.29
  21  -1   0   -0.13    3.37
  23  -1   2   -0.45    3.55
   4  -2  11    0.81    1.65
   4  -2  12    1.68    1.86
   6  -2   8   47.15    2.34
   8  -2   6   -1.24    1.53
  11  -1  -2  215.38    3.69
  12  -2   5    9.82    2.62
  13  -1  -2    0.55    2.34
  14  -2   5    9.61    2.86
  15  -1  -2    3.13    2.25
  16  -2   6    5.71    3.00
  16  -2   7   -0.71    2.85
  18  -2   8    5.30    3.52
  18  -2   9    1.64    3.67
  18  -2  10    1.14    3.82
  18  -2  11    0.86    3.44
  21  -1   1   -2.15    3.43
   4  -2  13    3.58    1.67
   4  -2  14   13.79    1.81
   4  -2  15    1.19    1.70
   6  -2   9    0.17    1.96
   8  -2   7    0.63    2.18
  10  -2   6    4.35    2.47
  12  -2   6    1.31    2.99
  12   0  -6    1.71    1.63
  14  -2   6    1.29    2.68
  14  -2   7    0.51    2.66
  14   0  -6   -0.32    1.90
  16  -2   8    2.80    3.26
  16  -2   9   -1.13    3.17
  16   0  -6   19.13    2.06
  17  -1  -1   16.07    3.15
  19  -1   0   -0.02    3.28
  21  -1   2   -2.60    3.59
   5  -1   1    2.10    1.14
   6  -2  10   10.46    2.18
   6  -2  11    2.99    2.22
   7  -1   0   23.32    1.55
   9  -1  -1    4.24    1.49
  10  -2   7    3.99    2.48
  12  -2   7   -1.11    3.00
  12  -2  19    2.12    2.98
  14  -2   8   -3.10    3.09
  14  -2   9    8.11    3.09
  14  -2  17    0.58    2.99
  14  -2  18   -1.77    3.28
  15  -1  -1   -0.60    2.46
  16  -2  10    6.94    3.74
  16  -2  11    2.63    3.51
  16  -2  12    0.65    3.65
  16  -2  14    2.21    3.61
  16  -2  15    1.34    3.69
  18   0  -5    2.72    2.44
  19  -1   1    1.75    3.32
  20   0  -4    0.57    3.12
  21  -1   3   -0.61    3.73
   6  -2  12    9.05    2.23
   6  -2  13    3.59    2.03
   6  -2  14   -1.07    2.16
   6  -2  15   -3.19    2.17
   6  -2  16   -0.83    2.23
   6  -2  17    3.35    2.46
   8  -2  10    1.28    2.33
   8  -2  18   -0.85    2.57
  10  -2   8   26.82    2.67
  10  -2  18    2.75    3.07
  10  -2  19   -1.24    3.02
  12  -2   8    1.68    2.77
  12  -2   9   -0.27    2.92
  12  -2  17   -3.80    3.42
  12  -2  18   -3.08    3.41
  13  -1  -1    2.72    2.23
  14  -2  10   -2.20    3.38
  14  -2  11   -3.73    3.12
  14  -2  13    2.01    3.24
  14  -2  14    1.90    3.48
  14  -2  15    0.88    3.39
  14  -2  16    1.27    3.40
  17  -1   0    8.45    3.06
  19  -1   2   -1.47    3.74
  21  -1   4    1.12    3.79
   8  -2  11    4.89    2.43
   8  -2  12    0.50    2.35
   8  -2  13   33.86    3.05
   8  -2  14    0.47    2.55
   8  -2  15   -0.32    2.65
   8  -2  16   -3.35    2.88
   8  -2  17    3.10    2.50
  10  -2  13   -0.41    3.09
  10  -2  14    1.06    3.18
  10  -2  15    2.76    2.74
  10  -2  16    4.90    3.01
  10  -2  17   -1.47    3.15
  12  -2  12   -2.29    3.09
  12  -2  13    2.09    3.09
  12  -2  15    1.21    3.10
  12  -2  16    1.15    2.80
  15  -1   0   -1.87    2.68
  16   0  -5    3.11    2.08
  17  -1   1   -0.38    2.97
  19  -1   3    3.43    3.64
  20   0  -3   -0.02    2.59
  24   0   1   -1.15    3.53
   9  -1   0    9.20    1.71
  10   0  -5    2.34    1.34
  11  -1   0    5.67    2.22
  14   0  -5    1.60    1.85
  18   0  -4    3.85    2.64
  21  -1   7    0.39    4.39
  22   0  -1    2.00    3.75
   5  -1   2   72.91    1.85
   7  -1   1    8.68    1.62
  12   0  -5    5.09    1.72
  19  -1   5   -0.64    3.83
  20   0  -2   -0.01    3.10
  22   0   0   -2.68    3.66
   9  -1   1    2.75    1.84
  16   0  -4   -0.14    2.21
  17  -1   4    0.75    3.14
  18   0  -3    5.31    2.87
  19  -1   6    3.13    3.57
  19  -1   7   -1.74    4.03
  22   0   1   -0.56    3.64
  11  -1   1    7.64    1.76
  13  -1   2    2.48    2.46
  14   0  -4    0.04    2.25
  15  -1   3   11.61    3.19
  17  -1   5   -0.45    3.63
  19  -1   8    1.58    3.66
  19  -1   9    1.07    4.13
  19  -1  10   -0.40    3.99
  19  -1  11    0.69    4.05
  20   0  -1    1.32    3.46
  22   0   2    2.80    3.79
   5  -1   3  340.34    3.35
   7  -1   2    5.51    1.59
  11  -1   2    2.34    2.22
  15  -1   4   14.63    3.13
  16   0  -3   -1.02    2.48
  17  -1   6    8.16    3.88
  17  -1   7    0.98    3.15
  18   0  -2    1.10    3.04
  20   0   0   10.94    3.96
   9  -1   2  221.55    3.66
  10   0  -4    0.84    1.44
  12   0  -4   20.47    2.01
  13  -1   3    0.44    2.78
  15  -1   5    8.58    3.59
  17  -1   8    0.17    3.37
  17  -1   9    2.77    3.85
  17  -1  10   -0.95    4.22
  17  -1  12    0.83    3.82
  17  -1  13   -4.01    4.35
  17  -1  14   -0.56    4.26
  18   0  -1    0.73    3.71
  20   0   1    0.70    3.72
  22   0   4    1.18    3.65
  22   0   5    0.63    4.20
   3  -1   5   18.02    1.30
   7  -1   3   27.86    1.97
  11  -1   3   11.00    2.57
  13  -1   4    6.86    2.99
  13  -1  19    2.46    3.05
  13  -1  20    0.83    3.04
  14   0  -3    5.44    2.36
  15  -1   6   -0.10    3.29
  15  -1  16   -0.71    3.68
  15  -1  17    0.75    3.88
  16   0  -2    0.55    2.63
  20   0   2    1.61    3.60
  22   0   6   -0.61    3.90
  -1  -1  13   27.92    1.38
   5  -1   4    3.98    1.53
   9  -1   3   89.23    2.56
  11  -1   4   16.74    2.86
  11  -1  20   -1.00    3.54
  13  -1   5    2.29    3.00
  13  -1  18   -1.28    3.55
  15  -1   7    5.52    3.11
  15  -1   8   -3.24    3.52
  15  -1   9    3.19    3.64
  15  -1  10   -2.29    3.22
  15  -1  12    2.56    3.42
  15  -1  13   -2.02    3.73
  15  -1  15    0.92    3.94
  18   0   0   -1.66    3.28
  20   0   3    0.31    3.71
  23   1   0    2.35    3.78
   7  -1   4    8.71    1.87
   9  -1   4    5.32    2.41
  11  -1   5   35.71    2.78
  11  -1  19    1.28    3.45
  12   0  -3    1.04    2.00
  13  -1   6   -2.64    3.02
  13  -1   7    3.83    3.08
  13  -1  16    7.08    3.60
  13  -1  17   -0.19    3.73
  15  -1  11    2.50    3.23
  16   0  -1    0.73    2.73
  18   0   1    3.13    3.28
  20   0   4    4.56    3.80
  20   0   5   -1.29    3.72
  23   1   1    4.11    3.80
  -7  -3   4    0.25    1.22
  -4  -6   0   -1.71    2.56
  -3  -3  -2    3.58    1.85
  -1  -7  -2   -0.98    3.00
   1  -7  -4   -0.56    3.21
   1  -3  -6   36.18    2.38
   2  -2  -6   25.55    1.69
   5  -5  -9    0.72    3.16
   5  -3  -9   21.69    2.37
   6  -6  -9   -3.55    3.27
   7  -5 -10    3.46    2.85
   8  -6 -10   -1.19    3.18
   9  -5 -11   -1.65    2.85
   9  -3 -11    0.28    1.93
  12  -4 -12    0.69    2.75
  13  -5 -12    2.53    2.66
  13  -3 -12    0.68    2.06
  -6  -4   2    1.18    1.67
  -5  -5   1   -1.35    2.44
  -4  -4  -1    0.79    2.01
  -3  -7   1    1.96    2.71
  -3  -5  -2    1.96    2.27
  -2  -6  -2    1.58    2.89
  -2  -2  -2   60.16    1.73
  -1  -5  -4   -2.15    2.67
  -1  -3  -4    1.31    2.08
   0  -6  -4    2.34    2.87
   0  -2  -4   35.55    1.73
   1  -5  -6    1.86    2.68
   2  -6  -6    1.68    2.66
   2  -4  -7    1.41    2.51
  15  -5 -12    0.58    2.12
  -5  -3   1   -0.99    1.52
  -4  -6   1   -0.13    2.47
  -2  -4  -3   16.53    2.34
  -1  -7  -1    1.44    2.85
   0  -4  -5    7.98    2.60
   1  -7  -3   -5.08    3.31
   3  -5  -7    4.04    2.83
   4  -6  -7   -2.24    3.26
   4  -4  -8    7.86    2.73
   4  -2  -7   20.64    1.82
   6  -6  -8   -0.11    3.37
   8  -6  -9    2.20    3.44
  10  -4 -11    5.52    2.73
  10  -2 -10    0.94    1.63
  11  -5 -11    1.54    2.78
  11  -3 -11    2.23    2.16
  11  -1  -9    7.71    1.27
  14  -4 -12   -0.60    3.01
  -3  -5  -1   31.63    2.91
  -2  -6  -1    2.84    2.85
   0  -6  -3    2.09    3.25
   1  -5  -5   -1.04    2.68
   2  -6  -5    8.04    2.94
   3  -3  -7    2.89    2.16
   5  -5  -8   -0.53    2.99
   6  -4  -9   -0.09    3.02
   6  -2  -8   25.32    2.03
   7  -5  -9    9.79    3.12
   8  -4 -10    8.17    3.09
   8  -2  -9    5.62    1.78
   9  -5 -10   -0.86    2.96
   9  -3 -10    3.66    2.44
  13  -5 -11    0.47    2.82
  -6  -4   3    3.09    1.86
  -5  -5   2    1.11    2.10
  -4  -6   2    2.21    2.45
  -4  -4   0    3.09    2.01
  -1  -7   0    2.61    2.98
  -1  -5  -3   -0.13    2.67
   1  -7  -2   -2.55    3.27
   2  -4  -6    4.45    2.58
   4  -6  -6    1.31    3.36
   5  -3  -8    3.28    2.20
   7  -3  -9   39.90    2.66
  12  -4 -11    1.32    2.43
  13  -3 -11   -1.30    2.15
  15  -5 -11   -0.53    2.96
  -7  -3   5    2.03    1.31
  -3  -3  -1  256.39    3.43
  -2  -6   0   -2.21    3.19
  -2  -4  -2   12.95    2.29
  -1  -3  -3    3.44    2.12
   0  -4  -4    2.68    2.41
   1  -3  -5    3.98    1.60
   2  -2  -5  315.64    3.30
   3  -7  -3    2.30    3.22
   3  -5  -6    8.25    2.92
   4  -4  -7    3.63    2.85
   5  -1  -6    0.36    1.10
   6  -6  -7   -1.48    3.19
   8  -6  -8   -1.62    3.23
   9  -1  -8    1.53    1.27
  10  -4 -10   -1.04    2.89
  11  -5 -10   -1.41    3.00
  12  -2 -10    1.00    1.50
  14  -4 -11   -0.43    2.00
  -5  -3   2   15.66    1.92
  -4  -6   3   -3.11    2.87
  -3  -5   0   17.31    2.64
  -1  -7   1    0.70    2.87
   1  -7  -1   -2.17    3.39
   1  -5  -4    1.93    2.80
   4  -6  -5    0.63    3.17
   5  -5  -7   -2.46    2.93
   6  -4  -8    7.57    3.12
   7  -5  -8    3.62    3.41
   7  -1  -7   12.69    1.23
  11  -3 -10    6.31    2.22
  13  -5 -10   -0.43    3.38
  -5  -5   3    8.48    2.23
  -4  -4   1    3.87    2.29
  -2  -2  -1   30.29    1.47
  -1  -5  -2    0.70    2.44
   0  -2  -3    2.39    1.47
   3  -7  -2    0.27    3.23
   3  -3  -6   54.63    2.79
   6  -6  -6   -1.90    3.64
   8  -6  -7   -3.52    3.78
  10  -2  -9   31.18    1.95
  12  -4 -10   -0.42    2.40
  15  -5 -10    0.34    3.12
  -6  -4   4   19.00    1.83
  -2  -6   1    1.65    2.88
   0  -6  -1    1.39    3.00
   1  -7   0   -0.21    3.41
   2  -4  -5   79.32    2.70
   3  -5  -5   -0.01    2.91
   4  -2  -6    2.31    1.58
   5  -3  -7    1.84    2.16
   8  -2  -8   10.41    2.07
   9  -3  -9    4.05    2.31
  10  -4  -9    7.54    3.15
  11  -5  -9    1.58    2.87
  12  -6  -8    0.47    3.82
  13  -3 -10    1.11    1.88
  14  -4 -10   -0.32    1.95
  -5  -5   4   21.78    2.55
  -3  -5   1    3.75    2.58
  -3  -3   0  138.31    2.76
  -2  -4  -1    2.02    2.21
  -1  -7   3    1.99    2.71
  -1  -5  -1   -0.98    2.47
   0  -4  -3   -1.86    2.51
   1  -3  -4    3.74    2.17
   3  -7  -1    2.14    3.34
   4  -6  -4    1.52    3.02
   4  -4  -6    0.52    2.95
   5  -5  -6    0.78    2.69
   6  -6  -5    1.35    3.50
   6  -4  -7    0.01    2.58
   6  -2  -7    0.49    1.70
   7  -5  -7   -0.11    3.16
   8  -6  -6   -2.16    3.61
  10  -6  -7    4.45    3.80
  13  -5  -9    1.30    3.36
  -2  -6   2    4.98    2.83
  -1  -3  -2   -0.33    1.80
   0  -6   0   18.04    3.67
   1  -7   1    4.88    3.38
   5  -7  -2    1.64    3.90
  11  -5  -8   -0.19    2.95
  11  -3  -9    1.60    2.15
  11  -1  -8    6.77    1.24
  12  -6  -7    2.15    3.59
  12  -4  -9    1.87    2.51
  12  -2  -9    3.09    1.84
  15  -5  -9    0.96    3.45
  17  -5  -9    0.05    3.34
  -6  -4   5   16.17    2.05
  -5  -3   3   67.07    2.27
  -4  -4   2    7.05    2.00
  -3  -5   2   -1.53    2.82
  -1  -7   4    1.90    3.11
   2  -2  -4  211.09    2.92
   3  -7   0   -0.75    3.68
   3  -5  -4    2.96    2.66
   3  -3  -5   11.23    2.45
   4  -6  -3   -2.16    3.08
  10  -6  -6   -0.26    3.59
  -2  -6   3   -2.07    2.86
  -2  -4   0    0.66    2.19
  -1  -5   0   -1.79    2.70
   1  -7   2   -0.03    2.96
   2  -6  -1    1.00    3.04
   4  -4  -5    3.08    2.69
   5  -3  -6    1.16    2.54
   6  -6  -4   -1.44    3.67
   7  -5  -6   -2.80    3.04
   9  -3  -8   -0.74    2.56
   9  -1  -7   51.92    1.80
  10  -4  -8   15.15    3.11
  10  -2  -8   52.70    2.47
  13  -5  -8   -2.80    3.61
  13  -3  -9    0.28    2.42
  14  -4  -9    6.19    2.70
  15  -5  -8    0.41    3.75
  16  -4  -9   -0.19    2.66
  -1  -7   5    2.07    3.04
   0  -6   1    2.87    3.14
   1  -7   3   -2.21    3.27
   1  -3  -3    2.20    2.16
   3  -7   1   -0.70    3.71
   3  -5  -3    3.08    2.88
   6  -4  -6    0.57    3.00
  11  -5  -7    6.80    3.25
  17  -5  -8   -2.19    3.76
  -3  -5   3    3.38    2.42
  -3  -3   1   37.33    1.95
  -2  -6   4    5.02    3.05
   0  -2  -2    0.54    1.32
   2  -4  -3    1.73    2.30
   4  -2  -5   35.25    1.77
   5  -5  -4   24.14    3.36
   6  -6  -3   -3.72    3.88
   7  -1  -6   31.71    1.35
   8  -6  -4   -0.39    3.96
   8  -2  -7    1.31    2.08
   9  -5  -6   -0.14    3.46
  10  -6  -5    3.67    3.42
  11  -3  -8    3.14    1.91
  12  -4  -8    1.66    3.04
  13  -5  -7   -1.69    3.89
  -4  -4   3   -0.62    1.90
  -1  -5   1   -1.15    2.55
   0  -6   2    6.69    3.25
   1  -7   4   -0.40    3.20
   2  -6   0    1.69    3.08
   3  -7   2    2.26    3.47
   7  -5  -5   -0.02    2.38
  10  -4  -7    5.80    3.21
  12  -2  -8   14.02    1.88
  14  -4  -8   -0.70    3.31
  15  -5  -7    1.26    3.57
  16  -4  -8    2.27    3.34
  17  -5  -7   -4.05    3.15
  -5  -3   4  157.60    2.79
  -2  -4   1    0.46    2.14
   3  -5  -2    1.68    3.06
   3  -3  -4   19.78    1.86
   4  -6  -1    1.48    3.13
   4  -4  -4    0.80    2.55
   5  -7   1    1.61    3.92
   6  -6  -2   -0.39    3.50
   8  -6  -3   10.33    3.68
   8  -4  -6    0.63    3.02
   9  -3  -7   17.95    2.71
  11  -5  -6    0.36    3.50
  13  -3  -8    6.89    1.90
  -3  -5   4    1.37    2.29
  -2  -6   5    8.39    2.82
   0  -6   3    4.24    3.25
   1  -7   5    3.45    3.18
   1  -5   0   -4.56    2.84
   2  -6   1   -1.10    3.30
   3  -7   3   -0.31    3.62
   5  -5  -3   11.30    3.12
   5  -3  -5   40.47    2.75
   7  -5  -4   -2.04    3.32
   9  -5  -5    5.30    3.59
  11  -1  -7    7.16    1.46
  12  -4  -7    1.09    3.30
  13  -5  -6   -0.82    3.71
  15  -3  -8    0.26    1.67
  -4  -4   4    1.68    1.82
  -1  -5   2    6.11    2.71
   1  -3  -2   67.26    2.62
   2  -4  -2    0.21    2.63
   2  -2  -3    6.33    1.47
   5  -7   2    1.01    3.98
  10  -6  -3   -0.08    4.21
  10  -2  -7   29.96    1.87
  11  -3  -7    3.20    2.43
  14  -4  -7    3.56    3.35
  15  -5  -6    3.63    3.72
  17  -5  -6   -3.75    3.67
  -3  -3   2   18.76    1.85
  -2  -6   6    0.45    2.81
  -2  -4   2    3.90    2.37
   0  -6   4    2.28    3.02
   1  -7   6    1.32    2.92
   2  -6   2    1.12    3.27
   3  -5  -1    1.47    3.06
   4  -4  -3    2.52    2.57
   6  -6  -1    0.99    3.76
   8  -6  -2    2.95    4.05
   8  -4  -5    0.08    2.85
  10  -4  -6   -0.99    2.93
  12  -6  -3    0.62    3.92
  16  -4  -7    7.44    3.38
  -3  -5   5    1.10    2.31
   1  -7   7    2.38    3.23
   1  -5   1   -0.71    2.85
   3  -7   5   -1.21    3.61
   3  -3  -3   32.84    2.63
   4  -2  -4   18.92    1.76
   5  -5  -2   -0.39    3.10
   6  -4  -4   19.36    3.13
   7  -5  -3   -0.31    3.27
   8  -2  -6    5.02    2.10
   9  -5  -4    3.80    3.33
   9  -3  -6    7.05    2.50
  10  -6  -2    2.88    3.70
  12  -4  -6    2.97    3.22
  13  -5  -5   -2.57    3.65
  13  -3  -7   21.69    2.70
  15  -5  -5   -4.62    3.56
  17  -5  -5    0.56    3.87
  -2  -6   7   -2.88    2.90
  -1  -5   3   -0.15    2.38
   0  -6   5   -0.18    3.59
   0  -2  -1    5.99    0.99
   2  -6   3    2.50    3.15
   5  -3  -4  158.70    3.63
   6  -6   0    1.17    3.95
   7  -3  -5    3.58    2.30
   8  -6  -1    0.83    4.10
   9  -1  -6    9.27    1.45
  12  -2  -7    9.52    1.88
  14  -4  -6    0.93    3.46
  15  -3  -7   -2.84    2.45
  -5  -3   5   36.68    1.68
  -4  -4   5    3.24    1.88
  -3  -5   6    3.94    2.67
   1  -7   8   -0.32    3.43
   2  -4  -1   -1.51    2.46
   3  -7   6   -2.03    3.67
   3  -5   0   18.68    3.43
   9  -5  -3   -0.20    3.71
  12  -6  -2   -1.24    3.92
  13  -5  -4    0.51    3.42
  14  -2  -7    4.44    1.32
  16  -4  -6    6.56    3.49
  -2  -4   3    0.94    2.03
  -1  -5   4   -1.53    2.60
   0  -6   6   -0.88    3.55
   0  -4   1    4.50    2.39
   1  -5   2    1.19    2.84
   1  -3  -1    1.53    1.88
   2  -6   4   -1.16    3.17
   3  -7   7   -3.52    3.30
   4  -4  -2    2.02    2.72
   6  -6   1    3.31    4.00
   6  -4  -3    3.60    3.00
   7  -5  -2   -0.72    3.35
   7  -1  -5    9.21    1.33
   8  -6   0   -6.95    4.14
   8  -4  -4   13.79    3.32
  10  -6  -1    1.40    3.64
  10  -2  -6   -0.29    1.88
  11  -3  -6    4.09    2.29
  12  -4  -5   -3.20    3.27
  15  -5  -4    2.25    3.73
  17  -5  -4    3.73    3.70
  -3  -3   3   31.69    1.89
   2  -2  -2    7.62    1.72
   9  -3  -5   35.58    2.93
  11  -5  -3    7.69    4.00
  12  -6  -1    2.07    4.03
  13  -3  -6    1.65    2.82
  14  -4  -5    2.76    3.30
  18  -4  -5   -5.12    4.52
  -4  -4   6    1.23    1.84
  -3  -5   7    1.55    2.31
   0  -6   7    0.81    3.58
   2  -6   5    1.62    3.10
   2  -4   0   -1.68    2.62
   3  -3  -2   21.41    2.30
   4  -6   3    1.36    3.32
   5  -5   0    5.06    3.23
   5  -3  -3   68.58    2.89
   6  -6   2    3.54    4.07
   7  -5  -1   -0.89    3.19
   7  -3  -4   -0.01    2.39
   8  -6   1   -0.96    4.09
   8  -2  -5    0.53    1.96
   9  -5  -2   -0.55    3.70
  10  -6   0   -1.26    3.93
  11  -1  -6    7.96    1.36
  13  -5  -3   -0.05    3.79
  15  -5  -3   -0.43    3.69
  15  -3  -6   -0.47    2.98
  16  -4  -5    7.65    3.59
  17  -5  -3    1.97    3.94
  -1  -5   5   -3.25    2.80
   0  -4   2    1.90    2.15
   4  -4  -1    4.39    2.78
   4  -2  -3   -0.14    1.75
   8  -4  -3   65.10    3.78
  11  -5  -2   10.67    3.57
  12  -6   0   -0.84    4.11
  12  -2  -6    2.52    1.54
  -5  -3   6   -1.43    1.32
  -3  -5   8    2.57    2.66
  -2  -4   4   32.12    2.59
   0  -6   8   -0.83    3.10
   1  -3   0   -0.74    1.90
   2  -6   6    0.31    3.11
   4  -6   4    1.16    3.27
   6  -6   3    4.59    3.66
   6  -4  -2    3.04    2.65
   8  -6   2    3.70    3.95
   9  -5  -1    0.44    3.49
  11  -3  -5   -2.30    2.58
  12  -4  -4    1.75    3.20
  13  -5  -2    1.32    3.68
  14  -4  -4   -3.74    3.43
  14  -2  -6    0.25    1.69
  17  -5  -2    4.07    4.15
  18  -4  -4    1.33    4.21
  -1  -5   6    2.35    3.08
   0  -2   0 1000.00    4.88
   1  -5   4   -0.60    3.02
   5  -5   1    1.61    3.23
   7  -5   0    3.86    3.15
   9  -3  -4   -0.71    2.57
  12  -6   1   -0.71    4.16
  13  -3  -5    3.88    2.71
  15  -5  -2   -2.18    4.03
  16  -4  -4    3.12    3.49
  -4  -4   7    1.78    1.88
  -3  -3   4   16.48    1.75
   0  -6   9   -0.69    3.49
   2  -4   1    4.37    1.84
   3  -3  -1   32.47    2.65
   4  -6   5    1.69    3.32
   8  -6   3    0.00    4.13
   8  -4  -2    4.51    3.15
   9  -1  -5  110.08    2.02
  10  -6   2   -5.89    4.27
  10  -2  -5    1.65    1.92
  11  -5  -1   -0.51    3.47
  12  -6   2   -3.41    4.21
  15  -3  -5    4.59    3.03
  -2  -4   5   74.41    2.95
   0  -4   3    2.89    2.24
   4  -6   6    3.87    3.38
   4  -4   0    2.30    2.50
   5  -5   2    3.32    3.04
   5  -3  -2   17.90    2.59
   6  -4  -1   -0.95    3.03
   7  -3  -3   -0.27    2.34
   9  -5   0   -1.29    4.13
  10  -6   3   -3.49    4.09
  12  -4  -3   -2.38    3.25
  14  -4  -3    0.07    3.58
  15  -5  -1    0.56    4.08
  16  -4  -3    3.26    3.49
  17  -5  -1    5.72    4.01
  18  -4  -3    0.83    4.33
  -1  -5   7    2.45    2.90
   0  -6  10    3.73    3.41
   1  -5   5   22.53    3.25
   2  -6   8   -0.48    3.43
   2  -2  -1    7.78    1.53
   7  -5   1   -0.72    2.57
   8  -6   4    3.15    4.15
   8  -2  -4   37.50    2.27
  10  -4  -2    4.98    3.29
  11  -5   0    0.99    3.53
  11  -3  -4    1.52    2.62
  12  -2  -5    4.27    2.06
  -5  -3   7    4.30    1.58
  -4  -4   8    7.89    2.28
   0  -6  11   -0.52    3.27
   1  -3   1    3.25    1.88
   3  -5   4    0.98    3.23
   4  -6   7   -0.29    3.78
   4  -2  -2   30.40    1.80
   6  -2  -3   14.49    1.86
   7  -1  -4    4.01    1.51
   9  -5   1    4.00    3.56
  10  -6   4   -1.68    4.46
  13  -3  -4   -1.12    3.04
  14  -2  -5    1.21    2.10
  15  -5   0    0.16    4.39
  15  -3  -4    2.38    3.22
  17  -5   0    2.22    4.18
  17  -3  -4   -0.17    3.38
  18  -4  -2   -1.50    4.45
  -2  -4   6    2.59    2.54
  -1  -5   8   -0.41    2.89
   0  -4   4    0.80    2.51
   2  -6   9   -3.10    3.51
   4  -4   1   -0.57    2.75
   5  -5   3   13.71    3.47
   6  -4   0    1.26    3.03
   7  -5   2    2.02    3.55
   8  -6   5    0.79    3.99
   8  -4  -1    2.33    2.27
  11  -1  -5   -0.16    1.12
  12  -4  -2    4.17    3.13
  14  -4  -2   13.38    3.97
  16  -4  -2   -4.81    3.95
  -3  -3   5   11.90    1.74
  -1  -3   3   -1.52    1.84
   2  -6  10    0.76    3.70
   3  -3   0  143.03    3.39
   4  -6   8    0.60    3.64
   5  -3  -1    3.44    2.58
   6  -6   7    1.38    3.79
   7  -3  -2   13.78    2.55
   8  -6   6    1.01    3.73
  10  -6   5    1.94    4.43
  10  -4  -1    3.09    3.23
  10  -2  -4   -0.96    2.22
  11  -5   1   -0.32    3.42
  11  -3  -3   24.06    3.05
  15  -5   1    0.27    4.35
  17  -5   1    0.70    4.23
  -4  -4   9    3.42    2.24
  -1  -5   9   -0.07    3.16
   0  -2   1    5.47    1.29
   1  -5   7    1.24    3.56
   3  -5   5    0.57    3.07
   4  -6   9    1.57    3.40
   5  -5   4   -2.31    3.43
   7  -5   3   -0.52    3.64
   9  -5   2   13.77    3.84
  10  -6   6    5.81    3.99
  12  -4  -1   -0.81    3.36
  13  -3  -3   -0.39    2.77
  13  -1  -5    1.45    1.26
  17  -3  -3    0.12    3.36
  18  -4  -1    3.87    4.00
   0  -4   5   12.19    2.80
   2  -6  11    0.91    3.84
   4  -4   2    2.09    2.79
   6  -6   8    2.29    4.06
   6  -4   1   53.83    3.90
   8  -6   7    6.90    4.05
   8  -4   0   -1.63    3.21
  11  -5   2    4.21    3.52
  12  -2  -4   13.38    2.42
  13  -5   2    0.14    4.56
  14  -4  -1    6.61    3.80
  15  -3  -3    1.35    3.25
  16  -4  -1    1.08    3.45
  20  -4   0    0.46    4.04
  -5  -3   8    1.15    1.65
  -2  -4   7   -1.96    2.29
  -1  -5  10    6.85    3.29
   1  -3   2   -0.89    1.99
   3  -5   6    1.28    3.31
   4  -6  10    5.10    3.53
   6  -6   9    0.58    3.80
   7  -5   4    1.63    3.45
   8  -2  -3  297.04    3.99
   9  -5   3   12.04    3.65
   9  -1  -4    1.28    1.49
  10  -6   7   -0.43    4.54
  10  -4   0    2.54    3.56
  14  -2  -4   -1.45    2.32
  18  -4   0   -0.03    4.26
   1  -5   8   -1.55    3.25
   2  -6  13   -1.40    3.25
   2  -2   0    3.60    1.56
   4  -6  11   -0.34    3.85
   6  -2  -2    2.15    1.79
   7  -3  -1   11.46    2.63
   8  -4   1    4.42    3.19
  11  -5   3   -5.08    3.89
  11  -3  -2   79.69    3.92
  13  -5   3   -1.20    4.26
  14  -4   0   -2.23    3.70
  16  -4   0    1.98    3.94
  17  -3  -2    0.11    3.36
  20  -4   1    0.58    4.17
  -3  -3   6   55.20    2.18
  -1  -5  11   10.60    3.38
  -1  -3   4    2.81    1.95
   2  -6  14    0.30    3.46
   3  -5   7    3.35    3.53
   4  -6  12    0.95    3.88
   4  -4   3    2.69    2.86
   4  -2  -1   43.16    2.06
   5  -3   0    1.24    1.90
   6  -6  10   -2.31    4.32
   6  -4   2   54.32    3.90
   9  -5   4   -0.09    3.53
  10  -2  -3   -1.37    2.73
  13  -3  -2   -3.11    3.21
  15  -3  -2    0.08    3.51
  18  -4   1   -1.50    4.27
  -2  -4   8    9.48    2.33
   0  -4   6    0.01    2.37
   1  -5   9    1.03    3.08
   6  -6  11   -0.74    4.10
   7  -5   5    2.11    3.44
   9  -3  -1    0.40    3.13
  10  -4   1   -1.24    3.39
  11  -5   4    1.56    4.14
  13  -5   4   -4.48    4.50
  16  -4   1   -2.97    3.77
  20  -4   2    2.02    3.94
  -8   0 -12   -0.33    3.49
  -8   0 -11   10.65    3.72
  -8   0 -10    2.38    2.86
  -8   0  -9   23.74    3.17
  -6   0 -19    0.67    5.65
  -2   0 -24   -2.62    6.35
   0   0 -25    4.71    7.85
   2   0 -26    1.27    7.88
  12   0 -24    0.75    5.65
  14   0 -22   -8.48    6.24
  -6   0 -18   11.01    5.45
  -4   0 -21    4.78    6.80
  -2   0 -23   -2.20    6.26
   2   0 -25    2.15    7.01
   4   0 -26    6.19    6.78
   6   0 -26   -2.92    7.39
  10   0 -25    4.72    6.76
  12   0 -23    3.39    5.10
  14   0 -20   -4.70    5.94
  -4   0 -20    7.48    5.83
  -2   0 -22   -1.42    6.63
   2   0 -24    7.59    6.10
   4   0 -25    0.02    6.79
   8   0 -25   -4.67    6.30
  10   0 -24   -1.31    6.34
  12   0 -22    5.99    5.71
  14   0 -19   -1.38    4.85
  -6   0 -16    6.69    4.15
  -6   0 -15    2.52    4.32
  -5  -1 -25    3.29    5.68
  -4   0 -19   -0.88    5.53
  -2   0 -21    0.81    5.66
   4   0 -24   -5.61    6.77
   6   0 -24    5.72    6.27
   8   0 -24    2.55    6.03
  10   0 -23    9.98    6.11
  12   0 -21    2.38    5.45
  14   0 -17    3.67    4.52
  14   0 -16   -0.19    4.73
  -6   0 -14   -4.75    3.81
  -5  -1 -24   -0.25    6.18
  -4   0 -18   -0.52    4.87
  -2   0 -20   -1.36    5.46
   2   0 -23   -3.45    5.69
   4   0 -23    3.12    6.11
   8   0 -23   -0.35    5.86
  10   0 -22   -5.15    5.01
  12   0 -20    4.41    5.57
  14   0 -15   -2.61    3.59
  14   0 -14    5.97    3.11
  -6   0 -13    4.92    3.63
  -6   0 -12   20.81    3.79
  -4   0 -17    2.99    4.63
  -2   0 -19   -0.48    5.22
   2   0 -22    2.98    5.45
   4   0 -22    5.98    5.07
   6   0 -22    1.50    4.91
  10   0 -21   -1.36    5.15
  12   0 -18    2.00    4.89
  12   0  -7   20.59    2.38
  -6   0 -11    1.41    2.87
  -6   0 -10   16.52    3.74
  -5  -1 -23    0.44    5.71
  -1  -1 -26   -7.18    6.46
   2   0 -21   -4.93    5.98
   6   0 -21    3.69    5.16
  10   0 -20   -1.66    5.11
  12   0 -17    3.83    4.34
  15  -1 -24   -3.21    4.21
  -7  -1 -20    4.26    5.06
  -6   0  -9    4.22    2.76
  -6   0  -8   77.58    2.86
  -5  -1 -22   -4.30    6.26
  -4   0 -15    1.35    4.26
  -3  -1 -24    0.92    5.92
  -2   0 -18   15.18    4.99
  -1  -1 -25    0.12    5.73
   0   0 -19   -3.05    5.16
   2   0 -20   12.89    5.42
   4   0 -21    3.68    4.52
  10   0 -19    4.19    4.70
  12   0 -16    1.23    4.18
  12   0 -15    4.10    3.67
  12   0  -9    8.69    2.65
  12   0  -8   27.34    2.21
  15  -1 -23   -5.40    5.09
  -4   0 -14   16.08    4.41
  -3  -1 -23    1.50    6.04
  -2   0 -17   20.48    4.69
   0   0 -18    2.25    4.88
   2   0 -19   -3.00    5.29
   3  -1 -26    0.19    6.41
   4   0 -20    1.85    4.89
   6   0 -20   -3.68    5.09
  10   0 -17    4.99    4.33
  11  -1 -25   -7.19    6.09
  12   0 -12    0.56    3.02
  12   0 -11    4.80    3.21
  12   0 -10   -0.36    2.52
  13  -1 -24    3.81    5.24
  15  -1 -22   -3.10    4.96
  -7  -1 -19    4.42    5.01
  -5  -1 -21   -1.67    5.71
  -4   0 -13    7.14    3.62
  -2   0 -16   -1.39    4.48
  -1  -1 -24    8.60    6.05
   0   0 -17    0.44    4.85
   2   0 -18   -0.10    4.77
   4   0 -19    4.40    5.20
   6   0 -19    1.65    4.71
  10   0 -16    2.85    4.42
  11  -1 -24   -2.14    6.04
  13  -1 -23   -1.05    5.12
  15  -1 -21   -0.84    5.40
  -7  -1 -18    4.26    4.78
  -4   0 -12    2.96    3.61
  -3  -1 -22    0.81    5.84
  -1  -1 -23   -1.25    5.51
   3  -1 -25   -1.39    6.26
   4   0 -18   -2.95    4.86
   5  -1 -25    2.60    6.31
   6   0 -18   -2.61    5.07
   7  -1 -25    1.38    6.46
  10   0 -15   12.79    3.93
  13  -1 -22    1.39    5.03
  15  -1 -20    0.28    5.22
  -5  -1 -20    3.45    5.31
  -4   0 -11    1.79    3.45
  -4   0 -10    0.78    3.26
   0   0 -16   49.06    4.77
   2   0 -17    5.66    4.41
   3  -1 -24    4.08    6.62
   4   0 -17   30.48    5.37
   5  -1 -24    2.04    5.93
   6   0 -17   -5.20    5.20
   7  -1 -24   -4.17    6.10
   8   0 -16    2.38    4.62
  10   0 -14    5.78    3.90
  10   0 -13   -0.44    3.76
  11  -1 -23   -3.78    5.93
  13  -1 -21    0.48    5.59
  15  -1 -19   -2.96    4.74
  -7  -1 -17    4.03    4.69
  -5  -1 -19    0.75    5.47
  -4   0  -9   93.17    3.66
  -3  -1 -21    1.36    6.00
  -1  -1 -22    1.15    5.90
   0   0 -15    2.87    4.49
   1  -1 -23   -2.32    6.33
   2   0 -16    2.53    4.56
   4   0 -16    8.89    4.85
   6   0 -16    0.20    5.03
   8   0 -15   -1.11    4.36
  10   0 -12   12.93    3.45
  10   0 -11   18.25    3.25
  10   0 -10   -2.78    3.23
  10   0  -9   56.87    3.72
  10   0  -8   89.41    3.79
  11  -1 -22   -3.44    5.53
  -7  -1 -16   -5.00    4.95
  -4  -2 -24    4.04    5.35
  -4   0  -8   78.31    3.07
  -4   0  -7  144.70    3.23
  -3  -1 -20    1.00    5.33
   0   0 -14   -2.68    4.38
   1  -1 -22   -4.11    5.32
   2   0 -15    0.88    4.58
   3  -1 -23   -0.66    6.26
   4   0 -15    2.63    4.34
   5  -1 -23    0.08    6.68
   8   0 -14    3.53    3.97
   8   0 -13    1.82    3.55
  11  -1 -21   -1.81    6.04
  13  -1 -20   -1.78    5.42
  -6  -2 -22    3.62    6.20
  -2  -2 -25    2.17    6.01
  -1  -1 -21    2.38    5.74
   0   0 -13   13.27    4.50
   2   0 -14    9.84    4.52
   3  -1 -22   -1.39    5.61
   4   0 -14   -2.44    4.44
   7  -1 -22    1.86    5.78
  13  -1 -19   -3.39    5.58
  -7  -1 -15   28.00    4.59
  -4  -2 -23   -1.74    6.04
  -3  -1 -19   -1.65    5.98
  -2  -2 -24    4.38    6.87
  -1  -1 -20   12.21    5.83
   0  -2 -25   -0.63    6.99
   0   0 -12   33.20    4.69
   1  -1 -21    0.92    6.67
   2   0 -13   54.51    4.99
   4   0 -13   -6.49    4.20
   5  -1 -22    0.71    5.41
   6   0 -13    4.06    4.07
   8   0 -11   -0.21    3.85
  -6  -2 -21   -1.51    6.75
  -5  -1 -17   -5.25    4.84
   0   0 -11   55.47    4.10
   2   0 -12   -0.28    4.42
   3  -1 -21   -2.26    6.50
   5  -1 -21    3.95    6.00
   6   0 -12   12.64    4.13
   7  -1 -21    3.48    5.67
   8   0 -10   49.38    3.68
   8   0  -6    8.25    2.38
   9  -1 -20   -2.52    5.53
  11  -1 -19    3.29    5.33
  12  -2 -24   -5.25    6.32
  13  -1 -17   -5.42    5.54
  14  -2 -23   -1.44    4.84
  -7  -1 -14    0.99    3.70
  -5  -1 -16    9.14    4.97
  -4  -2 -22    3.58    6.16
  -3  -1 -18   -4.95    5.66
  -2  -2 -23   -7.91    6.38
  -2   0  -8   22.82    3.00
   0  -2 -24   -0.26    6.95
   0   0 -10    1.47    3.25
   1  -1 -20   -0.89    5.85
   2   0 -11    5.33    3.73
   3  -1 -20    9.43    5.40
   4  -2 -25   -2.14    7.32
   4   0 -12   27.21    3.43
   6  -2 -25   -0.39    6.69
   7  -1 -20   -0.47    5.76
   8   0  -7    7.12    2.21
  10  -2 -24    2.00    5.77
  14  -2 -22    5.63    5.42
  -7  -1 -13    0.94    4.10
  -6  -2 -20   -5.07    6.24
  -3  -1 -17   16.68    5.04
  -2   0  -7   -0.67    2.30
   0   0  -9   20.09    2.83
   1  -1 -19    3.45    5.30
   2  -2 -24    6.01    7.09
   4   0 -11   16.13    3.73
   5  -1 -20    1.52    5.70
  12  -2 -23   -0.19    5.39
  13  -1 -16    0.90    4.65
  -5  -1 -15    8.11    4.35
  -4  -2 -21    5.42    6.21
  -2  -2 -22    4.16    6.14
   0  -2 -23   -0.60    6.97
   2   0 -10   14.29    2.56
   3  -1 -19    6.64    5.52
   4  -2 -24    5.92    6.43
   4   0 -10  281.03    5.22
   5  -1 -19    2.18    5.37
   6  -2 -24    6.63    6.85
   7  -1 -19    4.22    5.31
   9  -1 -18    1.64    4.82
  10  -2 -23    2.33    6.61
  11  -1 -17    3.91    4.90
  12  -2 -22   -0.08    6.10
  14  -2 -21   -4.86    5.39
  -7  -1 -12   -2.82    3.77
  -6  -2 -19   -2.78    5.61
  -5  -3 -23   -1.43    6.01
   0   0  -8   -0.29    1.96
   1  -1 -18   32.55    6.16
   2  -2 -23    6.36    6.65
   2   0  -9   29.33    3.22
   4  -2 -23   -6.35    7.72
   4   0  -9   14.44    2.84
   7  -1 -18   -3.19    5.18
   8  -2 -23  -10.31    6.44
  11  -1 -16   -1.00    4.35
  13  -1 -14   -4.69    3.81
  14  -2 -20   -0.62    5.81
  -9  -1  -8    0.46    2.71
  -5  -1 -14   12.95    4.43
  -4  -2 -20    1.35    5.83
   0   0  -7  208.66    3.60
   3  -1 -18   -2.37    5.32
   4   0  -8  112.15    3.57
   6  -2 -23    4.48    5.70
   9  -1 -17    0.62    5.12
  10  -2 -22   -2.44    6.21
  12  -2 -21   -5.33    5.60
  13  -1 -13   -0.90    3.47
  -7  -1 -11    1.70    3.40
  -3  -1 -15   -3.19    4.45
   1  -1 -17    2.04    5.20
   2  -2 -22   -3.21    6.58
   2   0  -7    1.76    2.20
   4  -2 -22    3.82    5.83
   4   0  -7   49.28    2.66
   6  -2 -22   -1.34    5.93
   7  -1 -17   11.59    4.60
   8  -2 -22    7.49    6.10
   9  -1 -16   12.37    4.25
  10  -2 -21    0.11    5.88
  11  -1 -15   -1.96    4.00
  12  -2 -20    1.12    5.53
  13  -1 -12    1.45    3.60
  14  -2 -19    2.78    5.58
  -9  -1  -7   29.69    2.36
  -5  -3 -22   -5.00    5.82
  -5  -1 -13   50.20    4.27
  -4  -2 -19    0.46    5.31
  -3  -3 -23   -0.68    6.07
  -2  -2 -20   -2.55    5.72
   3  -1 -17    1.95    4.72
   5  -1 -17    4.03    4.56
  11  -1 -14   -0.11    3.65
  14  -2 -18   -2.44    4.90
  -7  -1 -10   15.89    3.17
  -6  -2 -17    5.22    5.50
   1  -1 -16    2.63    4.75
   2  -2 -21    5.59    5.15
   4  -2 -21   -2.51    5.20
   5  -1 -16    3.18    3.99
   6  -2 -21    3.55    5.14
   7  -1 -16   15.60    4.40
   8  -2 -21   -2.11    4.70
  10  -2 -20    7.85    4.93
  12  -2 -19    0.97    5.05
  15  -3 -21   -1.15    4.88
  -8  -2 -15   -1.72    3.77
  -5  -1 -12   63.15    3.75
  -4  -2 -18   -0.63    4.62
  -3  -3 -22    1.84    5.50
  -2  -2 -19    4.57    4.44
  -1  -3 -23    2.03    5.23
   3  -3 -24   -3.04    5.69
   3  -1 -16   12.28    3.39
  11  -1 -13    4.22    3.31
  13  -3 -22    1.60    5.09
  13  -1 -10    3.59    2.30
  14  -2 -17    2.16    3.94
  -3  -1 -13    2.75    3.35
   2  -2 -20    2.17    5.23
   3  -1 -15   61.78    4.12
   4  -2 -20   -0.16    4.82
   5  -1 -15    5.07    3.72
   6  -2 -20    2.98    4.70
   9  -1 -14   42.91    4.12
  10  -2 -19   -2.02    4.34
  11  -1 -12    5.73    2.83
  12  -2 -18    0.21    4.45
  15  -3 -20   -2.51    4.11
   3   3  -9    1.48    3.56
   6   4 -17    0.47    5.57
   8   4 -18    5.18    4.95
  10   4 -21    2.48    5.08
  10   4 -20    1.58    5.51
  11   3 -13    0.44    4.58
  12   0  -4   21.62    3.11
  12   2  -9    5.42    4.40
  13   3 -15    7.77    4.86
  14   2 -11   -2.68    4.39
  15   3 -18    2.29    5.17
  16   0  -7   16.40    3.40
  18   0  -9    1.70    3.63
  19   1 -13    3.46    4.57
   1   3  -9    9.73    2.96
   4   4 -17    6.74    4.82
   6   4 -18    1.62    4.89
   8   4 -20    0.35    5.47
   8   4 -19    3.85    5.29
   9   3 -12   -4.16    4.98
  10   2  -8   49.50    4.78
  13   1  -7   56.60    4.65
  13   3 -16   -2.75    5.49
  15   1  -9    1.07    4.70
  15   3 -19    5.62    5.90
  16   2 -14    7.71    5.38
  17   1 -11   -2.67    4.72
  19   1 -14   -0.43    5.37
  20   0 -12    0.60    4.14
  21   1 -17    3.98    4.34
   4   4 -18    2.36    5.17
   5   1  -3  206.91    3.45
   5   3 -10    2.57    3.68
   6   4 -19    5.33    5.43
   8   0  -2   36.95    2.29
   8   4 -22    2.76    5.34
   8   4 -21    2.08    5.14
  10   0  -3    1.70    2.37
  11   3 -14    1.24    5.18
  12   2 -10    2.04    4.35
  13   3 -17   -1.45    6.44
  14   2 -12    1.05    4.87
  18   0 -10   -1.26    4.10
   3   3 -10    6.09    3.79
   6   4 -21   -0.33    5.75
   6   4 -20    4.55    5.74
  11   3 -15    1.25    5.51
  13   3 -18    3.10    5.41
  14   0  -6    2.96    3.05
  16   0  -8    0.07    3.43
  16   2 -15    0.00    5.05
  17   1 -12    3.03    4.73
  19   1 -15   -2.69    5.22
  20   0 -13   -1.90    4.11
  -1   3 -10    6.22    2.82
   1   3 -10   17.45    3.22
   5   3 -11    7.19    4.11
   6   4 -22   -0.31    5.28
   7   1  -4    4.21    2.58
   9   1  -5  110.51    4.02
  10   2  -9   33.30    4.61
  11   3 -16    3.75    4.84
  12   2 -11    1.48    4.61
  13   1  -8   24.01    4.20
  13   3 -19    0.87    5.86
  14   2 -13    2.98    5.01
  15   1 -10    6.96    4.44
  18   0 -11    3.44    4.45
  19   1 -16   -0.18    5.43
  20   0 -14    4.54    4.85
   6   2  -7   -2.05    3.92
   8   2  -8    6.51    4.04
   9   3 -14   12.52    5.39
  12   0  -5    5.50    2.83
  13  -1  -4    2.53    1.96
  13   3 -21   -0.84    6.01
  13   3 -20    3.03    6.27
  14   2 -14    2.24    4.97
  16   2 -17   -3.98    5.80
  17   1 -13   -1.48    4.90
  19   1 -17    1.01    5.59
   5   3 -12   10.32    4.34
  10   2 -10   -2.30    4.31
  11   3 -18    6.88    5.63
  12   2 -12    4.74    4.82
  14   0  -7    5.94    3.43
  15   1 -11    2.39    4.34
  16   0  -9   -2.37    3.65
  17   1 -14    5.42    4.86
  18   0 -12   11.27    4.57
  19   1 -18   -4.92    5.66
  20   0 -15   -1.03    5.30
  -1   3 -11    0.38    2.76
   1   3 -11   58.00    3.73
   7   3 -14   -2.27    4.59
   8   2  -9    7.16    4.21
  10   0  -4    3.92    2.78
  14   2 -15   -3.17    5.41
  16   2 -19    5.37    6.05
  19   1 -19    1.73    5.59
  20   0 -16   -6.91    4.85
   0   2  -6   -1.80    2.09
   3   3 -12    1.34    3.96
   4   2  -7   26.35    3.23
   5   3 -13    0.95    4.25
   6   2  -8   30.62    4.07
   7   3 -15    3.45    4.64
   9   1  -6    9.10    3.52
  10   2 -11    6.86    4.63
  11  -1  -3   62.76    2.88
  11   3 -22    0.75    6.36
  12   2 -13   18.12    5.04
  14   2 -16    4.46    5.27
  15   1 -12   17.63    4.89
  16   0 -10    0.26    3.92
  16   2 -20   -6.08    6.02
  17   1 -15   -0.45    5.01
  18   0 -13    2.30    4.22
  20   0 -17   -0.68    4.43
  -1   3 -12   -1.56    3.31
   1   3 -12    4.24    3.33
   3   3 -13    8.59    4.21
   5   1  -4  471.09    4.90
   5   3 -14   -1.51    4.26
   7   1  -5   10.37    2.67
   7   3 -16    0.57    5.60
   8   0  -3  470.80    4.56
   9   3 -18    0.28    5.65
  11   1  -8    3.11    3.83
  12   0  -6    2.52    2.78
  14   0  -8    0.39    3.54
  14   2 -17    6.84    5.48
  17   1 -16    0.35    4.98
  20   0 -18   -0.58    4.27
   7   3 -17    4.59    5.50
   8   2 -10   28.13    4.71
   9   3 -19    0.00    5.13
  10   2 -12    7.05    4.39
  13  -1  -5    1.77    2.50
  16   0 -11    2.85    4.53
  17   1 -17    0.38    5.58
  18   0 -14    1.54    5.04
  20   0 -19    2.20    4.89
  -1   3 -13   15.41    3.67
   1   3 -13   11.05    3.42
   2   2  -7    5.62    2.62
   3   3 -14    4.37    3.84
   4   2  -8   59.15    3.75
   5   3 -15   -2.15    4.37
   6   2  -9   10.00    4.13
   7   3 -18    1.16    5.23
   9   1  -7   55.89    4.22
   9   3 -23   -2.35    6.00
   9   3 -21    9.86    5.26
  12   2 -15    4.86    4.80
  14   2 -20   -1.23    6.08
  14   2 -19   -0.74    5.65
  17   1 -18   -4.11    5.83
  18   0 -15   -1.04    4.37
   1   3 -14   -0.57    4.09
   3   3 -15   22.47    4.99
   5   3 -16    2.24    4.84
   7   3 -20   -0.76    5.66
   7   3 -19    1.60    5.91
   8   2 -11   -5.43    4.35
  10   2 -13   -0.73    4.70
  11   1  -9    9.05    3.99
  14   0  -9    9.56    3.47
  14   2 -22   -1.72    6.01
  14   2 -21    1.06    5.56
  16   0 -12   -3.55    4.93
   0   2  -7  106.20    3.25
   5   3 -18    4.08    4.54
   5   3 -17   -2.51    4.87
   7   1  -6   32.61    3.17
   7   3 -24    4.66    5.02
   7   3 -23    0.55    5.47
   7   3 -22    0.80    5.72
   7   3 -21   -0.14    5.75
  10   2 -14    3.20    4.97
  12   0  -7   21.82    3.49
  12   2 -18   -2.33    5.02
  15  -1  -8    3.57    3.17
  18   0 -16    3.31    4.26
   1   3 -15    1.77    3.68
   3   3 -17    0.44    5.10
   3   3 -16    3.95    4.30
   5   3 -20    5.18    5.85
   5   3 -19    2.15    5.46
   6   2 -10    5.92    2.70
   8   2 -12    0.80    4.63
   9   1  -8    3.41    3.67
  10   2 -15    5.01    4.85
  11   1 -10   18.48    3.97
  12   2 -19    2.28    5.79
  16   0 -13    2.51    4.38
  17  -1 -11   -0.98    3.92
  18   0 -18   -1.58    5.38
  18   0 -17   -1.41    4.71
   1   3 -16    3.04    3.73
   3   3 -18   -2.13    4.71
   5   3 -25   -0.60    5.42
   5   3 -24    1.32    5.21
   5   3 -23    2.41    5.14
   5   3 -22    1.21    5.52
   5   3 -21    1.49    5.59
   8   2 -13   -3.77    4.32
  10   2 -16    4.48    4.82
  11  -1  -4   -2.95    2.15
  12   2 -22    1.70    5.67
  12   2 -21    1.34    6.16
  12   2 -20    3.21    5.80
  13  -1  -6    6.71    2.48
  14   0 -10    2.11    3.34
  15   1 -18    2.08    5.18
  18   0 -19    8.70    5.29
  19  -1 -16    2.69    4.81
   1   3 -17   -5.46    4.05
   3   3 -22   -0.04    5.53
   3   3 -20    3.09    4.86
   3   3 -19    1.69    4.78
   6   2 -11    8.22    3.77
   8   0  -4   70.78    2.64
  10   2 -17    1.45    5.04
  11   1 -11   -0.01    4.17
  12   0  -8   32.09    3.57
  13   1 -14    5.02    4.72
  15  -1  -9    3.85    3.24
  15   1 -20   -1.75    5.27
  15   1 -19    1.67    5.64
  16   0 -14    5.63    4.79
  17  -1 -12    0.45    4.00
  18   0 -20   -1.06    5.24
  19  -1 -17   -1.36    5.41
   1   3 -18    9.42    4.82
   7   1  -7   15.54    3.06
   8   2 -14    0.75    4.79
   9   1  -9    9.43    4.12
  10   0  -6    1.41    2.96
  10   2 -19   -6.67    4.86
  13   1 -15    9.29    4.83
  14   0 -11    0.79    4.03
  15   1 -22    2.44    6.31
  15   1 -21    4.36    5.94
  16   0 -15   -7.88    5.17
  19  -1 -18   -0.95    4.81
   0   2  -8    0.85    2.43
   2   2  -9   19.02    3.22
   6   2 -12    2.92    3.00
   8   2 -15   -1.47    4.97
  10   2 -21   -3.52    5.84
  11   1 -12    2.68    4.32
  13   1 -16    2.63    5.04
  16   0 -16    1.21    5.28
  19  -1 -19    2.29    4.75
   5   1  -6   -0.55    2.70
   6   2 -13    7.32    3.97
   8   2 -16    0.34    4.92
   9   1 -10    9.82    3.62
  11   1 -13    4.75    4.13
  12   0  -9   10.75    3.47
  13  -1  -7   60.92    3.18
  13   1 -17    0.04    5.17
  15  -1 -10    7.38    3.35
  16   0 -17    1.83    5.16
  17  -1 -14   -1.41    4.20
  -2   2  -8   15.96    2.61
   7   1  -8   67.19    3.80
   8   2 -17    2.55    4.65
  10   0  -7   53.57    3.58
  11  -1  -5   -0.28    2.67
  13   1 -19    3.03    5.01
  13   1 -18    1.25    4.56
  14   0 -13    6.57    4.29
  16   0 -19   -3.98    5.31
  16   0 -18    4.69    4.28
  17  -1 -15    0.77    4.38
   0   2  -9    8.47    2.56
   3   1  -5   39.51    2.33
   8   2 -25   -2.65    5.81
   8   2 -24   -0.95    5.96
   8   2 -23    0.09    4.88
   8   2 -22   -0.95    5.26
   8   2 -21    7.16    5.11
   9   1 -11    4.87    3.83
  11   1 -14   -4.21    4.40
  13   1 -23    7.45    5.76
  13   1 -22    8.10    5.90
  13   1 -21   -1.75    5.97
  13   1 -20    0.12    5.22
  14   0 -14    1.61    4.14
  15  -1 -11    6.49    3.32
  16   0 -22   -3.06    5.14
  16   0 -21    2.64    5.77
  16   0 -20   -2.76    5.50
  17  -1 -16   -2.88    4.73
  11   1 -15   -4.99    4.43
  13  -1  -8   25.93    2.96
  14   0 -15   -0.50    5.06
  17  -1 -17    0.37    5.10
   2   2 -11    3.19    3.38
   4   2 -13   -0.77    3.58
   5   1  -7   13.77    2.74
   6   2 -26    1.24    5.43
   6   2 -25    5.09    4.75
   6   2 -18    5.45    4.41
   6   2 -17   -4.28    4.74
   7   1  -9   88.98    4.33
   9   1 -12   10.82    3.83
  10   0  -8   82.80    4.18
  11   1 -17    0.83    4.55
  11   1 -16   -1.80    4.46
  12   0 -11    0.81    3.77
  14   0 -16    1.29    4.33
  15  -1 -12   15.82    4.01
  17  -1 -19    2.12    4.00
  17  -1 -18    1.78    4.79
  -2   2  -9   11.43    2.19
   0   2 -10   -2.44    2.79
   2   2 -12    8.75    3.73
   4   2 -14   -2.39    3.93
   6   2 -24    2.02    5.40
   6   2 -23   -4.95    5.46
   6   2 -21   -0.01    5.08
   6   2 -20    3.20    5.38
   6   2 -19    2.88    4.62
   9   1 -13    7.72    3.84
  11   1 -19    9.13    4.50
  11   1 -18    7.66    5.05
  13  -1  -9    2.06    3.13
  14   0 -17    3.27    4.84
  15  -1 -13    5.70    4.03
  17  -1 -21    1.38    4.96
  17  -1 -20    0.48    4.59
   4   2 -26    3.45    4.54
   4   2 -25    0.94    5.26
   4   2 -16    4.71    4.70
   4   2 -15    1.66    3.82
   6   0  -4  229.36    3.10
   7   1 -10  100.40    4.52
  11   1 -24   -1.98    5.43
  11   1 -23   -2.07    6.07
  11   1 -22    3.84    5.46
  11   1 -20   -2.61    4.60
  12   0 -12    1.14    3.86
   0   2 -11   22.57    3.01
   2   2 -13   23.05    3.65
   3   1  -6  182.57    3.18
   4   2 -24    0.71    4.96
   4   2 -23   -0.99    4.81
   4   2 -18   -3.09    4.19
   4   2 -17   14.63    4.08
   5   1  -8   11.16    2.57
   9   1 -15    1.72    4.21
   9   1 -14   53.25    4.60
  14   0 -23    1.79    5.46
  14   0 -22   -0.81    5.36
  15  -1 -14   -2.61    3.69
 -10   2 -10   -1.11    3.52
  -9   1  -6   39.99    3.38
  -8   2 -11    0.34    4.57
  -8   4 -16   -2.12    6.03
  -7   1  -7   30.94    3.60
  -7   3 -14    0.24    4.54
  -4   4 -17    0.46    5.95
  -1   1  -8   28.85    3.53
   1   3 -15   -4.51    6.97
   2   2 -12    0.91    6.27
   2   4 -17    1.14    7.70
   5   5 -18   -5.60    8.48
  10   4 -14    3.19    7.54
  11   5 -15   -3.95    6.10
  -6   2 -12   10.61    5.37
  -6   4 -17    1.00    5.15
  -5   1  -8   -1.48    3.47
  -5   3 -15   -2.07    5.02
   1   1  -8   23.86    3.96
   7   3 -14    1.58    6.90
   9   5 -17   -5.60    6.50
  11   3 -11   -0.75    5.61
  12   4 -13    8.49    6.50
  -9   3 -14   -0.87    4.43
  -3   3 -16    8.74    7.82
  -2   2 -13    6.45    5.70
  -1   3 -16   -2.11    6.99
   0   2 -13    9.34    5.71
   0   4 -18    5.75    8.73
   1   3 -16   -1.70    7.09
   2   4 -18    0.80    9.14
   4   2 -12   18.60    5.84
   7   5 -18    6.37    7.51
   8   2 -10   29.29    5.18
   8   4 -16    5.18    7.35
   9   3 -13    4.61    6.35
  10   2  -8   52.12    4.45
  10   4 -15   -1.79    8.12
  11   5 -16   -5.17    6.39
  -8   4 -17    1.50    5.98
  -4   2 -13    2.55    5.69
  -4   4 -18   -0.59    6.45
   2   2 -13   28.34    6.15
   3   3 -16   13.17    7.31
   4   4 -18    4.26    9.02
   7   1  -5    7.86    2.85
  12   4 -14    4.18    7.29
 -10   2 -11   -0.38    2.78
  -9   1  -7   27.88    3.49
  -8   2 -12    0.39    4.65
  -7   1  -8  166.02    4.86
  -6   2 -13    5.29    4.60
  -6   4 -18   -0.12    5.87
  -5   3 -16   -3.32    5.02
   0   4 -19   -0.22    9.10
   1   1  -9   12.30    4.10
   2   4 -19    2.21    8.41
   4   2 -13   -1.61    5.93
   7   3 -15   -2.21    7.35
   8   4 -17   -4.90    8.33
   9   3 -14   23.94    7.36
  10   4 -16   -1.04    7.73
  11   5 -17   -0.13    6.27
  -9   3 -15   -0.85    4.37
  -7   3 -16    0.84    5.12
  -5   1  -9   21.66    4.03
  -4   4 -19   -2.92    6.69
  -3   3 -17    3.17    7.33
  -1   3 -17    2.84    6.85
   0   2 -14    8.52    5.64
   1   3 -17   -9.74    7.68
   2   2 -14    3.21    5.66
   8   2 -11   -0.46    5.37
  10   2  -9   34.37    4.41
  12   4 -15    0.94    7.70
  -8   4 -18   -1.97    5.90
  -6   4 -19    0.96    6.29
  -5   3 -17   -0.95    5.38
  -4   2 -14    7.61    5.89
  -1   1 -10   43.71    4.58
   3   1  -9   23.88    4.17
   7   1  -6   31.25    3.36
   7   3 -16    6.56    7.42
   8   4 -18    4.72    7.92
  10   4 -17   -5.15    8.78
  11   3 -13    0.21    6.73
  -9   3 -16   -0.63    5.26
  -8   2 -13   46.47    5.53
  -7   1  -9    2.66    4.30
  -6   2 -14   -1.65    5.57
  -1   3 -18   -9.40    8.39
   0   2 -15    3.28    6.30
   0   4 -20    2.41    8.17
   1   3 -18   15.29    8.30
   2   4 -20    4.11    9.83
   4   2 -14    3.33    6.04
   4   4 -20   -1.04    8.18
   5   3 -17   -0.70    7.16
   8   2 -12    6.91    5.59
  10   2 -10   -2.41    4.65
  12   4 -16    2.38    8.19
  -9   1  -8    0.10    3.37
  -8   4 -19   -1.19    5.99
  -7   3 -17    0.29    5.46
  -5   1 -10   37.37    4.49
  -4   2 -15    1.62    5.62
  -4   4 -20    1.47    5.88
  -3   3 -18   -2.78    6.75
   3   3 -18    3.48    7.98
  10   4 -18   -7.33    8.50
  11   3 -14    1.05    6.73
  -8   2 -14   -1.01    5.74
  -6   4 -20    1.43    6.14
  -5   3 -18    0.84    5.41
  -1   3 -19    6.74    6.54
   0   4 -21    0.66    9.60
   1   3 -19   -3.12    7.09
   2   4 -21   -5.38    9.15
   4   2 -15    1.12    6.38
   5   3 -18   -3.51    8.34
   7   1  -7   15.83    3.30
   8   2 -13    0.85    5.32
   9   3 -16   10.82    7.12
  10   2 -11    7.22    5.19
  12   4 -17   -1.90    8.88
  -9   3 -17    0.80    5.23
  -7   1 -10   18.09    4.22
  -7   3 -18    0.36    4.97
  -6   2 -15   -5.61    5.92
  -3   3 -19    1.50    7.55
   0   2 -16   36.60    6.68
   3   3 -19    6.88    7.64
   4   4 -21   -5.46    8.56
   8   4 -20    3.23    8.14
  10   4 -19   -3.74    8.61
  11   3 -15    5.10    6.89
  -9   1  -9   11.11    3.86
  -5   1 -11    0.94    4.28
  -5   3 -19    0.33    5.71
   3   1 -11   -0.80    5.23
   5   3 -19    0.79    7.47
   6   4 -21    7.53    9.38
   9   3 -17    2.51    7.44
  10   2 -12    2.80    5.10
  12   2  -9    4.04    4.27
  12   4 -18   -2.84    8.66
  -8   2 -15    4.02    5.61
  -6   2 -16    3.48    5.75
  -3   1 -12    3.91    4.68
  -1   1 -12    7.14    5.10
  -1   3 -20   -0.84    8.58
   0   2 -17   -2.99    6.89
   1   1 -12    9.09    5.38
   1   3 -20  -13.11    8.07
   3   3 -20    4.56    7.98
   8   2 -14   -0.75    5.44
   8   4 -21    2.51    8.21
  -7   1 -11   -0.46    3.61
  -7   3 -19   -0.71    5.61
  -5   1 -12   60.97    5.72
  -5   3 -20   -2.78    6.08
  -4   2 -17   -0.31    6.48
   2   2 -17    1.56    4.33
   3   1 -12    7.82    5.12
   6   2 -16   -1.45    6.71
   7   1  -9   83.84    4.85
   9   3 -18   -5.31    7.69
  10   2 -13    1.38    5.28
  12   4 -19    2.89    8.18
  -9   1 -10    4.57    3.75
  -1   1 -13   34.77    5.30
   0   2 -18    2.08    6.06
   1   1 -13   18.51    5.53
   1   3 -21    2.84    8.27
   3   3 -21   -3.43    8.68
   5   1 -11   10.73    4.96
   8   2 -15   -1.52    5.55
  11   3 -17   -2.03    7.56
  13   3 -15    7.99    6.85
  -8   2 -16   -3.24    5.94
  -7   3 -20   -1.75    5.74
  -6   2 -17   -0.79    6.09
  -3   1 -13   -4.03    4.52
  -3   3 -21   10.29    6.67
   2   2 -18    4.17    6.23
   6   2 -17   -6.66    6.85
   7   1 -10   98.44    5.42
   8   2 -16   -1.10    6.16
   9   3 -19   -4.90    7.84
  10   2 -14    1.41    5.97
  12   2 -11    0.92    4.23
  12   4 -20   -9.72    7.33
  -7   1 -12    2.95    4.13
  -5   3 -21    0.44    5.85
  -1   1 -14   13.73    5.64
   1   1 -14   -1.82    5.48
   1   3 -22    7.89    8.04
   3   3 -22    8.94    7.69
   5   1 -12   18.24    5.12
   9   1  -7   54.80    3.62
  11   3 -18    7.88    7.59
  12   2 -12    0.83    4.63
  13   3 -16   -0.14    6.06
  -9   1 -11   10.01    3.51
  -8   2 -17   -2.94    5.94
  -7   3 -21   -0.24    5.82
  -6   2 -18    2.64    6.24
  -3   1 -14   11.97    5.14
   0   2 -19   -3.73    6.68
   2   2 -19    1.35    7.14
   3   1 -14   -2.38    5.65
   5   1 -13    7.76    4.83
   5   3 -22    4.16    8.31
   6   2 -18   -5.44    6.75
   7   1 -11   41.27    5.29
   8   2 -17   -6.26    6.76
   9   1  -8   -1.35    3.65
   9   3 -20    3.54    6.98
  10   2 -15    4.85    6.28
  11   3 -19    7.32    7.87
  13   3 -17    5.42    6.93
  -7   1 -13   -5.54    4.24
  -5   1 -14    8.94    4.97
  -5   3 -22   -1.91    5.98
  -4   2 -19    2.00    6.68
  -1   1 -15   -2.03    5.50
   1   1 -15    7.51    5.12
   1   3 -23   -2.27    8.98
   3   3 -23    1.32    7.83
   4   2 -19    1.52    6.88
   9   3 -21    1.06    8.38
  -9   1 -12    8.34    3.64
  -8   2 -18    3.78    5.57
  -6   2 -19    1.71    6.77
  -3   1 -15   -4.74    5.36
  -2   2 -20   -7.21    7.43
   0   2 -20   -0.30    6.71
   2   2 -20    3.75    7.41
   3   1 -15   54.79    6.43
   4   2 -20    3.16    6.92
   5   1 -14   12.74    5.60
   5   3 -23   -1.18    9.20
   6   2 -19    6.47    7.17
   7   1 -12   -0.40    4.41
   9   1  -9   15.60    4.11
  12   2 -14    3.38    6.22
  13   3 -18   -0.40    7.31
  -7   1 -14   -3.72    4.40
  -7   3 -22    1.18    4.69
  -1   1 -16   -0.81    5.99
   7   1 -13    0.30    5.24
   9   1 -10    3.46    3.98
   9   3 -22   -2.90    7.53
  10   2 -17   -0.93    6.58
  -9   1 -13    1.14    4.29
  -8   2 -19   -1.08    6.22
  -6   2 -20   -1.89    6.20
  -3   1 -16    9.65    5.95
  -2   2 -21   -6.84    7.15
   0   2 -21    9.76    6.18
   2   2 -21    3.88    6.43
   3   1 -16   18.30    6.01
   4   2 -21   -6.54    6.62
   6   2 -20    8.09    6.93
   8   2 -19    7.03    6.98
   9   1 -11    0.93    4.07
  11   3 -21    4.54    7.46
  12   2 -15   -0.20    6.15
  13   3 -19    4.64    7.81
  -7   1 -15   22.65    5.40
  -4   2 -21    8.49    6.97
  -2   0  -7   -0.82    2.53
   0   0  -6    0.77    2.24
   0   2 -22   -8.59    8.18
   1   1 -17    3.87    6.18
   6   2 -21   -0.98    7.64
   9   1 -12    9.21    5.16
   9   3 -23   -7.76    8.53
  10   2 -18    3.04    6.75
  12   2 -16    1.36    6.19
  13   3 -20    1.88    8.14
  -9   1 -14   -0.19    4.25
  -8   2 -20    1.29    6.21
  -6   2 -21    0.19    6.59
  -4   0  -7  151.98    3.88
  -3   1 -17   14.41    5.98
  -2   2 -22    7.11    7.20
   0   0  -7  206.09    4.12
   2   2 -22   -3.01    7.31
   3   1 -17    5.07    6.11
   4   2 -22   -0.10    7.92
   5   1 -16    4.01    3.98
   8   2 -20   10.67    6.98
  10   2 -19   -2.98    6.44
  11   3 -22   -6.22    7.03
  -7   1 -16    2.20    5.03
  -5   1 -17   -4.63    5.74
  -4   2 -22    4.25    6.96
  -2   0  -8   27.59    3.11
   0   2 -23   -0.25    7.75
   1   1 -18   25.99    6.49
   2   0  -6   54.16    2.79
   2   2 -23    1.98    7.55
   5   1 -17    1.28    6.27
   6   2 -22   -0.65    8.07
  11   1  -8    6.57    3.43
  12   2 -17   -1.38    6.01
  13   3 -21    0.98    6.80
  -6   2 -22   -1.24    7.00
  -3   1 -18   -1.19    5.62
  -2   2 -23    5.13    7.36
   0   0  -9   18.86    3.15
   2   0  -8   99.78    3.74
   2   0  -7    0.07    2.71
   4   2 -23    4.38    7.94
   9   1 -14   49.57    5.81
  11   1  -9    7.87    3.20
  12   2 -18    2.28    6.33
  13   3 -22    0.46    7.22
  -7   1 -17    4.23    5.28
  -5   1 -18   -1.23    5.43
  -4   2 -23    0.13    7.20
   1   1 -19    1.10    5.70
   2   0  -9   28.41    3.52
   2   2 -24   -4.38    8.18
   3   1 -19    0.45    6.20
   5   1 -18   -1.51    6.04
   6   2 -23   -2.66    8.17
   9   1 -15    2.37    5.33
  10   2 -21    2.46    6.32
  11   1 -11   -0.63    4.30
  11   1 -10   13.47    3.52
  12   2 -19    3.34    7.38
  -6   2 -23   -5.20    6.53
  -4   0 -10    0.71    3.61
  -2   2 -24   -1.72    7.23
   0   0 -11   43.02    4.33
   1   1 -20    5.17    6.35
   2   0 -10   20.32    3.75
   4   2 -24   -6.99    7.43
   5   1 -19    5.01    6.19
   9   1 -16    9.06    5.39
  -7   1 -18    1.24    5.28
  -6   0  -9    1.89    3.57
  -5   1 -19   10.64    5.81
  -4   0 -11   -3.50    3.64
  -4   2 -24    3.83    6.94
  -3   1 -20    9.73    5.91
   0   0 -12   35.13    4.98
   2   0 -11    8.35    4.06
   4   0  -8  113.24    3.95
   4   0  -7   51.39    3.10
   4   0  -6   -0.19    2.20
   6   2 -24   -0.34    7.50
  10   2 -22    0.38    7.35
  11   1 -13    5.88    4.24
  12   2 -20   -4.93    7.44
  -6   0 -10   13.42    4.07
  -5   1 -20   -0.64    6.78
   0   0 -13    7.13    4.53
   1   1 -21    2.07    6.66
   2   0 -12    1.39    4.92
   3   1 -21   -2.61    6.96
   4   0  -9   14.08    3.31
   5   1 -20   -0.72    6.38
   7   1 -19   -5.72    6.51
   9   1 -17    0.09    5.78
  10   2 -23   -3.58    7.08
  11   1 -14   -0.25    4.72
  12   2 -21    4.33    6.87
  -7   1 -19    6.93    5.29
   2   0 -13   48.00    5.34
   4   0 -11   12.03    4.46
   7   1 -20   -1.21    6.48
   9   1 -18    8.86    6.00
  11   1 -15   -0.20    4.82
  14   2 -19   -2.44    6.47
  -8   0  -7    3.16    2.76
  -7   1 -20    0.52    6.12
  -6   0 -11   -2.93    3.28
  -5   1 -21   -3.56    6.22
  -4   0 -13    2.79    4.04
  -3   1 -22    2.99    6.63
  -1   1 -22    6.22    6.59
   0   0 -14    3.50    3.32
   2   0 -14    1.55    5.18
   3   1 -22   -0.78    6.22
   4   0 -12   26.36    4.80
   7   1 -21    2.65    6.25
   9   1 -19    1.14    6.66
  10   2 -24    4.41    7.37
  11   1 -16   -3.28    5.53
  12   2 -22    3.81    6.20
  14   2 -20    7.75    7.45
  -6   0 -12   19.79    3.53
  -4   0 -14   15.59    4.96
  -1   1 -23   10.34    6.74
   0   0 -15   -1.49    4.60
   1   1 -23    1.46    6.96
   3   1 -23   -3.36    7.39
   4   0 -14    4.45    4.98
   5   1 -22    4.63    6.11
   9   1 -20   -1.64    6.49
  11   1 -17    1.78    5.91
  12   2 -23   -0.16    6.67
  -8   0 -10    4.14    3.05
  -7   1 -21   -1.93    6.25
  -6   0 -13    3.78    3.95
  -5   1 -22    4.14    5.87
  -4   0 -15    4.37    4.55
  -3   1 -23   -0.99    6.63
   0   0 -16   43.49    5.76
   2   0 -16   -1.69    4.89
   4   0 -15   -0.08    4.88
   5   1 -23   -2.77    7.59
   6   0 -12   12.11    4.48
   6   0  -7   -1.26    2.58
   7   1 -22   -3.14    6.35
   9   1 -21   -0.37    6.07
  11   1 -18    4.00    6.05
  12   2 -24   -1.27    7.09
  13   1 -13    0.59    4.01
  13   1 -12    3.02    3.48
  13   1 -11    1.13    2.89
  14   2 -21   -0.87    6.69
  -8   0 -11    9.14    2.99
  -6   0 -14   -5.47    3.89
  -5   1 -23    4.71    6.74
  -4   0 -16   11.16    4.82
  -2   0 -17   22.35    5.08
  -1   1 -24   -2.01    6.97
   0   0 -17    0.88    5.27
   1   1 -24    1.67    6.49
   2   0 -17   -3.35    5.34
   3   1 -24   -5.46    6.98
   4   0 -16    8.62    5.09
   5   1 -24    5.41    6.33
   6   0 -14   11.43    5.13
   6   0 -13    2.59    4.30
   6   0  -6   24.93    2.30
   7   1 -23    2.04    7.19
  11   1 -19    5.06    6.28
  13   1 -15   12.21    5.20
  13   1 -14    0.72    4.20
  14   2 -22    1.42    6.78
  -7   1 -22   -0.95    6.44
  -6   0 -15    1.23    3.93
  -4   0 -17    2.98    5.39
  -3   1 -24    1.18    6.66
  -1   1 -25    0.08    7.49
   1   1 -25    1.24    7.52
   2   0 -18    4.19    5.27
   3   1 -25   -2.42    7.79
   4   0 -17   28.05    5.57
   6   0 -15   65.65    5.86
   7   1 -24   -3.80    8.28
   9   1 -22   -2.35    6.04
  11   1 -20    0.04    6.23
  13   1 -16   -5.52    5.24
  14   2 -23   -1.97    6.16
  -8   0 -13   72.29    3.98
  -6   0 -16    6.11    4.00
  -5   1 -24    0.55    5.84
  -3   1 -25    1.29    5.98
  -2   0 -18    8.15    5.17
   0   0 -19   -8.47    5.80
   2   0 -19   -2.21    5.93
   4   0 -18    2.78    5.63
   5   1 -25   -4.08    7.75
   6   0 -16   -0.28    5.29
   8   0 -12   15.44    3.95
   8   0 -11   -2.95    4.26
   8   0 -10   49.99    4.46
  11   1 -21   -4.40    6.54
  13   1 -17   -0.32    5.37
  -8   0 -14    5.96    3.33
  -6   0 -17    7.61    5.45
  -4   0 -18    0.88    5.25
  -2   0 -19   -2.16    5.56
   0   0 -20   -5.52    5.74
   2   0 -20   12.29    5.60
   6   0 -18    6.25    5.26
   6   0 -17   -2.94    5.31
   7   1 -25    4.92    7.64
   8   0 -14    7.43    4.50
   8   0 -13    0.85    4.20
   8   0  -9    8.36    3.37
   9   1 -24    4.75    7.12
  11   1 -22    6.09    6.35
  13   1 -19    4.36    5.66
  -8   0 -15   -0.58    3.68
  -6   0 -18    5.41    5.51
  -4   0 -19    5.56    5.36
  -2   0 -20    2.70    5.44
   4   0 -20    9.21    5.49
   6   0 -19   -3.18    5.90
   8   0 -16    3.61    4.77
   8   0 -15    2.52    4.60
   8   0  -8   19.11    3.03
   9   1 -25   -2.85    7.39
  11   1 -23   -2.47    6.73
  13   1 -20    1.54    6.30
  -8   0 -16   -1.70    3.96
  -4   0 -20    2.60    5.54
  -2   0 -21   -0.52    5.88
   2   0 -21   -3.05    6.14
   4   0 -21    5.90    7.03
   6   0 -20    1.66    6.04
   8   0  -7    5.84    2.38
  11   1 -24   -4.92    7.20
  13   1 -21    0.42    6.30
  -8   0 -17   -5.25    4.84
  -6   0 -19   -1.61    4.83
  -4   0 -21    5.88    6.05
  -2   0 -22   -0.49    5.67
   2   0 -22   -5.34    5.67
   4   0 -22    0.61    5.83
   6   0 -21    5.06    6.21
  10   0 -13    2.67    4.67
  11   1 -25    2.13    6.34
  13   1 -22   -3.44    6.44
  -6   0 -20    3.93    5.17
  -4   0 -22    6.84    5.94
   2   0 -23    1.59    6.21
   4   0 -23   -1.05    6.73
   6   0 -22    3.43    5.65
   8   0  -6    7.79    2.11
  10   0 -17    0.98    5.82
  10   0 -16    7.25    4.94
  10   0 -15    4.40    4.64
  10   0 -14    3.05    4.28
  10   0 -12   11.70    3.96
  10   0 -11   17.89    3.49
  13   1 -23   -1.74    5.84
  -6   0 -21    1.64    5.44
  -2   0 -23    2.02    5.28
   2   0 -24    4.06    6.76
   4   0 -24   -0.26    6.79
   6   0 -23    5.46    6.57
  10   0 -18   -2.69    5.12
  10   0 -10   -2.72    3.30
  10   0  -9   59.76    4.05
  13   1 -24    0.57    6.35
  -6   0 -22   -1.25    5.05
  -4   0 -23   10.06    5.71
  -2   0 -24   -7.62    6.35
   0   0 -25    4.45    6.12
   2   0 -25    0.05    6.68
   6   0 -24   -2.39    6.87
   8   0 -23   -3.36    7.19
  10   0 -20    2.84    5.74
  10   0 -19   -2.84    5.22
  -4   0 -24    1.03    5.56
  -2   0 -25    2.44    6.27
   2   0 -26   -1.56    6.62
   6   0 -25   -3.12    7.27
   8   0 -24   -1.14    6.07
  10   0 -21    0.53    5.79
  -6   0 -23    2.29    5.27
  -4   0 -25    0.59    4.98
   8   0 -25   -9.59    6.34
  10   0 -23    2.75    5.80
  10   0 -22    0.05    5.32
  12   0 -18   -0.01    5.11
  12   0 -17   -1.04    5.12
  12   0 -16   -0.56    4.72
  12   0 -15   -0.16    4.19
  12   0 -13   33.68    3.93
  -6   0 -24    1.73    5.39
  -1  -1 -12    2.27    3.76
   1  -1 -16    6.85    4.72
   1  -1 -13   24.97    4.42
   1  -1 -12    5.99    4.06
  10   0 -24   -3.14    6.38
  12   0 -20    0.58    6.13
  12   0 -19   -2.64    5.01
  12   0 -12    3.86    3.38
  12   0 -11    3.53    3.61
  -3  -1 -16    5.40    5.15
  -3  -1 -15   -2.17    4.25
  -3  -1 -14    5.97    3.94
  -3  -1 -13    4.59    3.71
  -3  -1 -12    2.31    3.57
  -1  -1 -11   -1.92    3.53
  -1  -1 -10   41.95    3.36
   1  -1 -18   25.63    5.28
   1  -1 -17    5.27    4.75
   1  -1 -11  177.67    5.24
   1  -1 -10   59.23    3.45
   3  -1 -18   -4.54    4.51
   3  -1 -17    2.61    5.08
   3  -1 -16   13.71    5.01
   3  -1 -15   58.89    5.06
   3  -1 -14   -2.18    4.31
   3  -1 -12    9.43    4.23
  10   0 -25    6.77    6.56
  12   0 -22    2.69    5.96
  12   0 -21   -0.14    5.41
  -3  -1 -17   15.10    4.76
  -3  -1 -11   37.52    3.73
  -3  -1 -10   36.74    3.29
  -1  -1 -19   -3.11    5.34
  -1  -1  -9   31.23    3.09
   1  -1 -20   -2.33    5.37
   1  -1 -19    5.55    4.69
   3  -1 -19    4.80    5.08
   3  -1 -11    2.35    3.67
   5  -1 -18   -7.47    4.96
   5  -1 -16    4.38    4.79
   5  -1 -15    4.74    4.38
   5  -1 -14    7.01    4.46
   5  -1 -13    5.96    3.97
  12   0 -24   -1.11    6.43
  12   0 -23    2.29    5.85
  12   0 -10    2.19    2.80
  -5  -1 -16    8.64    4.19
  -5  -1 -15    2.55    3.69
  -5  -1 -14   12.45    3.88
  -5  -1 -13   46.47    4.16
  -5  -1 -12   58.93    3.77
  -3  -1 -19    1.21    4.92
  -3  -1  -9    4.13    2.68
  -1  -1 -21    2.79    5.57
  -1  -1 -20    4.62    4.99
   1  -1 -21    4.31    5.72
   1  -1  -9    9.31    2.22
   3  -1 -10   33.15    2.67
   5  -1 -20   -1.95    5.78
   5  -1 -19    2.31    5.19
   5  -1 -12   17.50    4.27
  12   0 -25   -5.09    6.38
  12   0  -9    9.33    2.84
  14   0 -20    3.31    5.83
  14   0 -19    5.23    4.96
  14   0 -18   -0.55    4.88
  14   0 -17    0.55    4.88
  14   0 -16    4.68    4.27
  14   0 -15    2.20    4.51
  -5  -1 -18    1.56    4.74
  -5  -1 -11    1.25    2.82
  -5  -1 -10   36.80    3.24
  -3  -1 -21    0.65    5.40
  -1  -1 -22   -5.36    5.85
  -1  -1  -8   28.64    2.58
   1  -1 -22    0.67    4.92
   1  -1  -8   21.13    2.89
   3  -1 -23   -1.03    5.66
   3  -1 -22    3.81    5.14
   3  -1  -9   23.34    3.08
   5  -1 -22   -3.46    5.43
   5  -1 -21    2.14    5.36
   5  -1 -11   10.53    2.98
   7  -1 -20    5.02    5.05
   7  -1 -19   -1.83    5.21
   7  -1 -18    1.62    5.28
   7  -1 -17    8.59    4.99
   7  -1 -16    4.51    4.88
  14   0 -22   -4.98    5.95
  14   0 -21   -2.35    6.01
  14   0 -14    2.48    3.60
  -7  -1 -14   -1.15    3.62
  -5  -1 -20    1.76    4.97
  -5  -1 -19    3.78    4.39
  -5  -1  -9   13.28    3.25
  -3  -1 -22   -0.62    5.40
  -3  -1  -8   84.02    2.99
  -1  -1 -23    4.29    5.58
   3  -1 -24    1.04    6.39
   5  -1 -23    1.56    6.53
   5  -1 -10    9.29    3.48
   7  -1 -22    0.69    5.14
   7  -1 -21    0.68    5.42
  14   0 -24    2.78    4.97
  14   0 -23    1.91    5.84
  -7  -1 -18   -3.66    4.91
  -7  -1 -17   -0.65    4.01
  -7  -1 -16    0.43    3.54
  -7  -1 -13   -3.83    2.98
  -7  -1 -12   -0.47    2.84
  -5  -1 -21   -3.67    5.17
  -3  -1 -23   -0.04    5.47
  -1  -1 -25    0.04    6.39
  -1  -1 -24   -3.70    5.47
  -1  -1  -7  121.62    3.18
   1  -1  -7  126.91    3.44
   3  -1 -25    0.70    6.66
   3  -1  -8    2.18    1.92
   5  -1 -25    7.00    5.86
   5  -1 -24   -1.51    6.27
   7  -1 -23    7.06    6.06
   9  -1 -19    2.11    5.33
   9  -1 -18   -2.77    4.96
   9  -1 -17    2.42    4.58
   9  -1 -16    6.14    4.76
   9  -1 -15    1.26    4.27
  -7  -1 -20    0.63    4.70
  -7  -1 -11   -1.81    2.56
  -5  -1 -23    0.47    5.85
  -5  -1 -22    4.36    4.73
  -5  -1  -8    1.21    2.34
  -3  -1 -24    6.34    4.78
   7  -1 -25   -6.91    6.96
   7  -1 -24    5.30    5.53
   9  -1 -14   43.95    4.88
  -5  -1 -24   -0.84    5.13
  -3  -1 -25   -1.18    5.17
   3  -1  -7   10.65    2.67
   5  -1  -8    8.19    2.75
   9  -1 -13    8.39    3.92
  -7  -1  -9   -2.48    2.75
  -5  -1 -25   -0.49    4.91
  -1  -1  -6  168.31    3.11
   1  -1  -6  155.16    3.06
   9  -1 -12    7.82    3.48
  11  -1 -23   -2.32    6.23
  11  -1 -22    1.06    5.44
  11  -1 -21   -4.90    5.51
  11  -1 -20   -1.19    5.38
  11  -1 -19    3.84    4.86
  11  -1 -18    4.21    4.68
  11  -1 -17   -0.55    4.86
  11  -1 -16   -0.33    4.55
  12   0  -7   22.80    2.38
  -5  -1  -7   31.65    2.17
   9  -1 -11    5.07    3.34
  11  -1 -24   -5.21    6.32
  11  -1 -15   -2.00    4.04
  11  -1 -14   -1.09    3.53
  -7  -1  -8  164.79    3.73
   3  -1  -6  178.07    3.59
   9  -1 -10    8.43    3.66
  11  -1 -13    7.88    3.51
  13  -1 -24   -0.68    5.17
  13  -1 -23    0.99    5.39
  13  -1 -22    1.41    5.41
  13  -1 -21    0.47    5.02
  13  -1 -20   -3.03    4.92
  13  -1 -19    1.02    5.11
  13  -1 -18    1.62    4.54
  13  -1 -17    4.57    4.54
  -5  -1  -6    6.63    1.70
   2  -2 -21   -1.57    4.64
   2  -2 -20   -0.77    5.63
   2  -2 -19   -1.49    4.89
   2  -2 -18    1.56    4.72
   2  -2 -17   -2.30    4.57
   4  -2 -20    2.37    5.06
  11  -1 -12    6.59    3.56
  13  -1 -16   -4.88    4.33
  -7  -1  -7   30.56    2.61
  -2  -2 -21   -2.38    4.62
  -2  -2 -20    1.48    4.91
  -2  -2 -19   -3.15    4.87
  -2  -2 -18    8.93    5.02
  -2  -2 -17   15.50    4.45
  -2  -2 -16    2.89    4.04
   0  -2 -23   -2.49    5.43
   0  -2 -15    1.37    4.11
   2  -2 -24   -0.84    5.50
   2  -2 -23   -2.51    5.56
   2  -2 -22    3.40    5.08
   2  -2 -16    0.78    4.42
   2  -2 -15    1.14    4.15
   4  -2 -23   -3.80    5.87
   4  -2 -22    3.65    5.74
   4  -2 -21    0.12    4.69
   4  -2 -18   -4.58    4.55
   4  -2 -17   13.76    5.00
   4  -2 -16    7.10    4.28
   5  -1  -6    0.34    2.17
   6  -2 -21   -0.61    4.72
   6  -2 -20    3.01    4.72
   6  -2 -19   -2.35    4.85
   9  -1  -9   13.07    3.01
  13  -1 -15    9.71    4.27
  -4  -2 -19    3.79    4.87
  -4  -2 -18    4.72    4.82
  -2  -2 -23   -1.78    5.18
  -2  -2 -22    0.31    4.94
  -2  -2 -15    0.16    4.06
  -2  -2 -14    3.27    3.62
   0  -2 -25    4.69    5.14
   0  -2 -24    0.20    5.89
   0  -2 -13    6.53    3.81
   2  -2 -25   -3.56    6.42
   2  -2 -14   -2.71    4.08
   3  -1  -5   45.08    2.12
   4  -2 -25    2.66    5.92
   4  -2 -24   -5.57    5.78
   4  -2 -15    5.08    4.24
   4  -2 -14   -0.03    4.00
   6  -2 -24   -3.86    6.32
   6  -2 -23   -3.59    6.35
   6  -2 -22   -2.20    5.48
   6  -2 -18   -1.99    4.49
   6  -2 -16    0.40    4.48
   7  -1  -7   15.37    2.32
  13  -1 -14    1.22    3.45
  15  -1 -23   -0.66    5.23
  15  -1 -22   -1.88    4.90
  15  -1 -21    6.68    5.39
  15  -1 -20   -0.48    5.30
  15  -1 -19    3.25    5.02
  -4  -2 -22    0.34    5.01
  -4  -2 -21    3.45    4.98
  -4  -2 -20    2.40    4.46
  -4  -2 -17    4.23    4.09
  -4  -2 -16    3.91    3.98
  -4  -2 -15    1.86    3.92
  -2  -2 -24   -1.39    4.89
  -2  -2 -13    4.52    3.73
   2  -2 -13   23.13    3.12
   4  -2 -13   -0.67    3.79
   6  -2 -15   46.63    4.89
   8  -2 -24   -4.41    6.20
   8  -2 -23   -3.11    5.76
   8  -2 -22    1.36    5.69
   8  -2 -20    4.23    4.83
   9  -1  -8    0.54    2.82
  11  -1 -10   15.74    2.79
  15  -1 -18   -3.23    4.82
  -9  -1  -8    0.38    1.83
  -6  -2 -19    3.08    4.57
  -4  -2 -24   -3.19    4.82
  -4  -2 -23    1.39    4.22
  -2  -2 -12   88.81    4.37
   0  -2 -12   21.82    3.57
   2  -2 -12    5.27    3.67
   6  -2 -14    8.79    4.22
  10  -2 -22    1.35    6.17
  10  -2 -21    3.52    5.49
  13  -1 -12    2.08    3.15
  -7  -1  -6   78.32    2.47
  -6  -2 -22    3.72    5.42
  -6  -2 -21    4.60    5.05
  -6  -2 -20   -5.50    4.55
  -6  -2 -18    2.71    4.02
  -6  -2 -17    2.57    4.10
  -6  -2 -16    0.35    3.92
  -4  -2 -13    4.01    3.35
   2  -2 -11    2.78    3.65
   4  -2 -12   19.22    3.05
   6  -2 -13    4.79    3.87
  10  -2 -24   -0.52    5.81
  10  -2 -23    1.41    5.27
  10  -2 -20    5.35    4.54
  10  -2 -19   -2.93    5.13
  10  -2 -18    0.11    4.68
  -6  -2 -15    3.44    3.43
  -6  -2 -14    0.09    3.24
  -4  -2 -12    1.11    3.15
   4  -2 -11   13.80    3.80
  10  -2 -17   -2.62    4.62
  10  -2 -16    5.30    4.33
  11  -1  -9    7.12    2.65
  13  -1 -11    0.63    2.82
  -6  -2 -13    3.45    2.87
  -4  -2 -11    3.54    2.93
   0  -2 -10   -0.49    3.31
   2  -2 -10    3.70    3.72
   9  -1  -7   57.05    2.89
  10  -2 -15    2.54    4.24
  12  -2 -23   -1.45    4.95
  12  -2 -22   -2.38    5.10
  12  -2 -21   -4.62    5.37
  12  -2 -20   -0.67    5.18
  12  -2 -19   -1.91    4.60
  -6  -2 -12   10.09    3.30
   4  -2 -10  165.14    4.99
   6  -2 -11    7.73    3.46
   8  -2 -12   10.41    3.49
  10  -2 -14    5.11    4.58
  12  -2 -18    2.73    4.98
  -4  -2 -10   -1.19    2.88
   0  -2  -9    5.21    3.33
   2  -2  -9   18.48    3.57
  11  -1  -8    4.55    2.49
  12  -2 -17   -2.51    4.22
  12  -2 -16   -2.67    4.80
  13  -1 -10    7.52    2.55
  14  -2 -23   -0.84    5.20
  14  -2 -22   -0.76    4.36
  -6  -2 -11    0.76    2.70
   3  -3 -22    4.13    6.06
   4  -2  -9   11.02    3.58
   6  -2 -10    2.38    3.38
   8  -2 -11    0.80    3.50
  10  -2 -13    3.57    3.68
  12  -2 -15    2.00    4.85
  14  -2 -21   -1.76    4.79
  14  -2 -20    3.69    4.99
  14  -2 -19   -2.93    5.41
  -8  -2 -13   40.24    3.21
  -4  -2  -9   51.65    3.21
  -1  -3 -23    3.27    4.74
  -1  -3 -22   -0.47    4.76
  -1  -3 -21   -0.22    4.57
  -1  -3 -20    0.27    4.21
   0  -2  -8   -2.04    2.74
   1  -3 -19   -2.27    5.00
   1  -3 -18    8.99    4.61
   3  -3 -23   -1.06    5.25
   3  -3 -21   -5.18    4.86
   3  -3 -20   -1.20    5.08
   3  -3 -19    1.41    4.65
   3  -3 -18   -0.27    4.72
   5  -3 -23    1.72    5.81
   5  -3 -22   -0.42    5.70
   5  -3 -21    1.88    5.80
   5  -3 -20    2.22    5.15
   5  -3 -19    4.21    4.37
   7  -1  -5    6.12    1.91
   9  -1  -6    9.22    2.15
  10  -2 -12    5.42    3.45
  14  -2 -18    3.24    4.64
  -8  -2 -12    0.36    2.48
  -6  -2 -10    9.41    2.49
  -3  -3 -22   -1.81    5.09
  -3  -3 -21    3.20    4.93
  -1  -3 -19    0.92    4.45
  -1  -3 -18   -4.64    5.07
   1  -3 -17   -1.26    4.61
   2  -2  -8   59.65    2.66
   3  -3 -17   -1.61    4.59
   5  -3 -18    1.73    5.25
   6  -2  -9   10.05    3.53
   7  -3 -23   -1.45    5.60
   7  -3 -22   -3.42    4.93
   7  -3 -21    0.16    5.70
   7  -3 -20    0.82    5.44
   7  -3 -19   -1.53    4.35
   8  -2 -10   31.40    3.44
  12  -2 -14    4.07    4.14
  13  -1  -9    0.68    2.23
  14  -2 -17    5.09    4.47
  -3  -3 -20   -2.91    4.47
  -3  -3 -19    0.08    4.64
  -3  -3 -18    3.08    4.50
  -1  -3 -17    3.42    4.04
  -1  -3 -16   -0.93    4.22
   1  -3 -16   -0.91    4.11
   1  -3 -15    2.18    4.02
   3  -3 -16    5.39    4.12
   4  -2  -8   58.39    3.60
   5  -3 -17   -4.99    4.62
   5  -3 -16   -1.07    4.47
   7  -3 -18    2.15    5.02
  10  -2 -11   11.19    3.34
  11  -1  -7    8.95    2.19
  12  -2 -13   25.82    3.97
  14  -2 -16   -0.99    4.01
  -8  -2 -11    5.31    2.46
  -6  -2  -9    1.42    2.75
  -5  -3 -23    0.71    4.78
  -5  -3 -22    1.43    4.14
  -5  -3 -21    0.47    4.60
  -5  -3 -20   -3.38    5.01
  -4  -2  -8   40.67    2.94
  -3  -3 -17   -1.50    4.60
  -3  -3 -16    8.80    3.89
   3  -3 -15   19.05    4.24
   5  -3 -15   -3.19    4.57
   7  -3 -17    7.44    4.48
  14  -2 -15   -0.61    4.03
  -5  -3 -19    3.01    4.66
  -5  -3 -18   -1.27    4.40
  -3  -3 -15   -1.11    4.12
   1  -3 -14    0.49    2.80
   3  -3 -14    0.46    3.81
   5  -3 -14    3.78    4.13
   6  -2  -8   22.97    3.70
   7  -3 -16    5.44    4.38
   8  -2  -9    6.30    3.16
  11  -3 -22   -2.62    4.89
  11  -3 -21    6.81    5.17
  11  -3 -20   -3.71    4.94
  12  -2 -12    3.14    3.44
  -5  -3 -17   -3.23    3.72
  -5  -3 -16    0.49    4.00
  -3  -3 -14    0.48    3.83
   1  -3 -13    7.91    4.21
   3  -3 -13    5.21    4.08
   4  -2  -7   23.58    2.85
   7  -3 -15    5.70    4.05
  10  -2 -10    4.35    3.19
  11  -3 -19    1.54    5.03
  14  -2 -14    1.51    3.87
  -6  -2  -8   50.26    3.22
  -5  -3 -15   -1.80    4.02
   1  -3 -12    3.47    3.67
   3  -3 -12    5.34    3.56
   7  -3 -14   -0.25    4.36
   7  -1  -4   -1.59    1.65
   9  -3 -15    2.31    4.10
   9  -1  -5  110.63    2.73
  11  -3 -18   -1.18    4.67
  12  -2 -11    0.76    3.06
  13  -3 -21    0.64    4.60
  14  -2 -13    0.10    4.19
  -5  -3 -14    3.82    3.76
  -3  -3 -13    3.41    3.32
   0  -2  -6    1.61    2.24
   2  -2  -6   23.01    2.53
   5  -3 -12    5.03    4.19
   7  -3 -13   -1.55    4.27
   8  -2  -8   11.48    3.19
  10  -2  -9   36.62    3.70
  11  -3 -17    1.49    4.46
  13  -3 -20   -0.76    4.88
  13  -3 -19   -1.82    5.16
  -8  -2  -9    6.15    2.22
  -7  -3 -16   -3.41    3.95
  -3  -3 -12    1.71    3.36
   1  -3 -11   56.72    4.36
   3  -3 -11   -4.82    4.02
   9  -3 -14   18.96    4.28
  11  -3 -16   -6.02    4.37
  -7  -3 -15    9.82    3.74
  -5  -3 -13   16.27    3.63
   2  -4 -21   -4.10    5.71
   4  -4 -21   -3.75    5.77
   4  -2  -6    2.88    2.40
   5  -3 -11   10.20    3.73
   7  -3 -12    0.85    4.08
   9  -3 -13    3.94    4.22
  11  -3 -15    4.68    4.23
  12  -2 -10    1.40    2.77
  13  -3 -17    1.27    4.68
  14  -2 -12   -1.95    3.08
  15  -3 -21    2.23    4.59
  -7  -3 -14    3.86    3.46
  -6  -2  -7   31.42    2.51
  -5  -3 -12   22.95    3.53
  -4  -2  -6   90.52    3.22
  -3  -3 -11   10.28    3.55
   0  -4 -21    0.11    5.26
   0  -4 -20   -0.93    4.92
   0  -4 -19   -3.36    5.55
   1  -3 -10   16.98    4.01
   2  -4 -20   -4.05    4.97
   2  -4 -19    2.03    4.94
   3  -3 -10    6.19    3.67
   4  -4 -20    1.33    4.74
   4  -4 -19   -1.15    5.29
   6  -4 -21   -0.01    5.11
   6  -4 -20    7.19    5.42
   8  -2  -7    4.44    2.85
  11  -3 -14    1.16    4.29
  13  -3 -16    7.05    5.01
  15  -3 -20   -0.45    4.74
  15  -3 -19    0.91    5.17
  -8  -2  -8   13.81    2.10
  -2  -4 -21    2.24    4.76
  -2  -4 -20   -3.68    4.99
   0  -4 -18    1.12    4.75
   2  -4 -18   -3.27    4.58
   2  -4 -17   -4.45    4.16
   4  -4 -18    4.56    5.06
   5  -3 -10    0.88    3.83
   6  -4 -19    2.16    5.04
   6  -4 -18   -4.04    4.92
   8  -4 -20   -1.35    5.61
  10  -2  -8   52.64    3.35
  14  -2 -11    3.62    3.15
  -9   3   3    2.35    3.04
  -7   5   2    0.05    4.45
  -4   6   1   -4.41    6.47
  -3   7   2    2.11    7.47
  -2   6   0   -2.86    5.79
  -1   7   1    0.16    7.64
   2   6  -2    6.84    6.86
   4   4  -4    1.96    5.74
   7   5  -4   -1.08    6.86
   9   5  -4   -5.97    6.98
  10   6  -3  -12.48    8.33
  11   5  -4   -0.18    7.17
  14   4  -4   -1.64    7.08
  -8   4   2    2.72    3.75
  -7   3   1    7.30    4.51
  -6   6   2   -1.12    5.96
  -5   7   3   -0.14    6.49
  -4   4  -1    4.38    5.26
  -3   5  -1   29.60    7.34
   1   5  -3    3.43    6.83
   5   5  -4   29.66    7.04
   6   6  -3   -0.18    7.78
   8   4  -5    5.26    4.80
  10   4  -5    3.77    5.65
  12   6  -3    3.02    7.50
  13   5  -4    1.09    7.40
  -6   4   0    1.48    5.37
  -5   5   0    2.40    4.70
  -2   6  -1    1.08    5.69
  -1   7   0   -1.93    8.03
   3   5  -4   -3.42    6.74
   4   2  -4   17.01    3.57
   6   4  -5   12.77    5.01
   7   3  -5    2.23    2.69
  11   3  -5   -0.25    0.95
  12   4  -5    6.30    7.33
  14   6  -3    1.15    6.82
  -7   5   1   -0.16    5.34
  -4   6   0   -0.86    6.19
  -3   7   1    4.03    6.88
   2   6  -3   -1.36    7.50
   6   6  -4    5.94    8.12
   7   5  -5    0.32    7.00
   9   5  -5   -0.41    7.04
  10   6  -4   -3.86    8.01
  11   5  -5   -6.26    7.31
  12   6  -4    7.09    6.54
  13   3  -5   -0.02    0.37
  14   4  -5   -9.78    9.07
  -6   6   1    1.49    6.04
  -5   7   2   -1.33    6.18
  -3   5  -2   -1.91    6.78
  -2   2  -2   62.12    2.85
   1   3  -4    0.01    5.33
   1   5  -4   -4.41    6.59
   4   4  -5    0.59    3.63
   4   6  -4    3.09    7.59
   5   5  -5    9.70    6.99
   8   2  -5    2.37    4.36
  13   5  -5   -9.41    7.77
  14   6  -4    4.03    6.18
  -8   4   1   -2.96    4.14
  -5   5  -1    3.90    5.63
  -4   4  -2   -1.04    5.17
  -3   7   0    4.89    6.86
  -2   6  -2    4.07    6.85
  -1   7  -1   -1.06    7.53
   0   4  -4    5.17    5.83
   0   6  -3   -1.77    7.21
   1   7  -2    2.38    8.63
   2   2  -4  206.00    5.46
   3   3  -5   12.09    5.30
   8   4  -6    6.83    7.26
  10   4  -6   -0.74    7.28
  10   6  -5    1.23    6.74
  12   2  -5    5.98    4.31
  -9   3   2    2.26    3.30
  -5   7   1   -3.57    6.47
  -4   6  -1    1.68    5.53
   2   4  -5   71.13    6.49
   2   6  -4    9.73    7.21
   3   5  -5    5.21    6.17
   6   2  -5   81.75    4.93
   6   4  -6   -0.09    6.64
   6   6  -5   -1.03    8.34
   7   3  -6    2.45    4.40
   9   3  -6    2.37    3.48
   9   5  -6    6.33    6.58
  11   3  -6   -2.17    2.22
  11   5  -6    0.08    7.04
  12   4  -6   -4.03    7.13
  12   6  -5    4.22    7.24
  -7   3   0    6.45    4.40
  -7   5   0   -1.92    4.71
  -6   4  -1   47.70    5.60
  -6   6   0    1.21    5.74
  -3   5  -3   -2.36    6.28
  -3   7  -1    0.86    6.15
  -1   7  -2    4.92    7.30
   1   7  -3   -4.08    8.54
   4   4  -6    4.97    5.95
  13   3  -6    2.72    2.20
  13   5  -6   -1.32    7.72
  14   4  -6   -3.41    5.95
  14   6  -5    6.42    6.66
  -6   2   0    7.01    3.02
  -5   7   0    2.91    6.74
  -4   6  -2   -0.69    5.50
   0   6  -4    0.14    7.02
   1   5  -5    1.40    6.58
   2   6  -5    8.50    8.44
   4   2  -5   38.08    4.11
   5   3  -6    0.88    5.11
  10   6  -6   -1.65    7.75
  12   6  -6   -0.73    6.51
  -8   4   0   -1.01    4.76
  -6   6  -1    0.79    6.27
  -4   4  -3    0.21    5.89
  -1   7  -3   -1.11    7.59
   0   4  -5   12.39    6.70
   3   5  -6    4.32    6.89
   6   6  -6   -4.71    7.26
   8   4  -7    2.55    4.44
   9   5  -7   -4.79    7.19
  10   4  -7    4.63    3.51
  11   5  -7    0.45    7.09
  12   4  -7    0.43    2.17
  14   6  -6   -2.21    6.19
  -7   5  -1   -2.33    6.01
  -5   3  -2   17.44    4.36
  -3   7  -2    1.54    6.77
  -1   5  -5   21.05    7.40
   1   7  -4    1.20    9.27
   2   4  -6    7.93    4.51
   3   3  -6   53.94    6.21
   4   6  -6    5.37    7.33
   5   5  -7   -1.28    6.20
   8   2  -6    0.76    4.74
   9   3  -7   17.80    5.36
  10   2  -6   -2.55    4.34
  10   6  -7   -1.01    8.10
  11   3  -7    1.21    4.70
  13   5  -7   -3.82    8.65
  14   4  -7   -0.09    1.32
  -6   4  -2   57.44    5.65
  -5   7  -1   -0.12    5.92
  -4   6  -3    1.17    6.39
  -3   5  -4    5.61    6.64
  -2   6  -4   -5.78    7.23
   0   2  -4   32.41    3.96
   0   6  -5    1.82    6.59
   2   6  -6    8.37    7.38
   6   6  -7   -1.56    8.34
   7   3  -7    8.10    5.19
  12   2  -6   -3.31    3.91
  12   6  -7   -4.09    7.32
  13   3  -7   22.61    5.02
  -9   3   1   -1.52    2.83
  -6   6  -2   -1.32    5.80
  -4   2  -2    1.67    2.78
  -3   7  -3    1.02    6.76
  -1   7  -4   -1.02    7.83
   0   4  -6    0.12    5.98
   2   2  -5  314.13    6.00
   3   5  -7   -1.75    7.00
   4   6  -7    1.58    7.49
   5   3  -7    1.38    5.47
   8   4  -8    2.88    3.37
   9   5  -8    1.88    6.90
  10   4  -8    8.34    2.14
  -7   3  -1    3.50    3.67
  -7   5  -2    1.29    6.66
  -5   7  -2   -1.96    6.26
  -2   6  -5    2.87    6.71
  -1   3  -5  151.17    6.63
   0   6  -6   -1.45    6.82
   1   3  -6   35.79    5.92
   5   5  -8    1.63    5.42
  12   4  -8    0.05    1.03
  12   6  -8    5.78    7.60
  13   5  -8    3.26    9.37
  -4   6  -4    7.24    6.98
  -3   5  -5    0.59    6.32
  -3   7  -4    4.16    7.09
  -1   5  -6   17.14    6.53
  -1   7  -5    5.55    8.57
   2   6  -7   -1.84    8.56
   4   2  -6    4.46    4.13
   6   6  -8    3.26    8.33
   9   3  -8   -6.87    6.39
  -6   6  -3    0.11    6.04
  -5   3  -3   93.70    5.25
  -5   5  -4    3.24    6.16
  -5   7  -3   -0.28    5.73
   3   3  -7    5.18    3.99
   3   5  -8    3.70    6.25
   4   4  -8    9.46    6.00
   4   6  -8    7.01    8.30
   9   5  -9   -0.28    9.02
  11   1  -5   -2.98    3.30
  11   3  -8    6.61    4.97
  -6   2  -1  237.20    4.29
  -2   6  -6   -4.19    7.45
   0   4  -7   18.17    6.35
   0   6  -7    2.89    7.76
   7   1  -5    9.12    2.52
   8   2  -7    1.59    4.82
   8   4  -9   -1.70    4.85
  10   2  -7   33.77    4.78
  10   4  -9    7.41    3.74
  10   6  -9    1.98    7.55
  12   2  -7   12.44    4.63
  12   4  -9    1.52    3.07
  12   6  -9   -8.65    7.48
  13   3  -8    5.65    5.15
  13   5  -9   -0.41    8.18
  -9   3   0    1.12    3.50
  -8   4  -2    3.43    4.79
  -7   5  -3   -5.77    6.26
  -4   4  -5   10.72    5.90
  -3   7  -5   -0.41    6.89
  -2   2  -4   34.76    3.92
  -1   3  -6   60.72    5.90
  -1   5  -7    5.56    7.56
   1   5  -8    7.15    7.85
   2   4  -8    6.90    6.34
   2   6  -8    4.14    7.72
   5   3  -8   -0.77    5.50
   6   2  -7   -3.17    4.71
   6   6  -9    1.81    6.92
  -7   3  -2   -0.81    3.78
  -6   6  -4    0.68    7.06
  -5   5  -5   -0.12    6.78
  -5   7  -4    5.93    6.61
   1   3  -7   37.11    5.70
   2   2  -6   24.21    4.22
   3   5  -9   -1.16    7.30
   4   4  -9    6.14    6.27
   4   6  -9    1.58    7.48
   9   5 -10   -2.17    8.11
  10   6 -10    1.91    6.74
  11   5 -10   -1.12    5.25
  -5   3  -4    3.95    5.18
  -4   2  -3    5.61    2.97
  -2   6  -7   -9.16    7.92
   0   6  -8    3.83    8.46
   2   6  -9    4.40    8.54
   5   5 -10    3.12    6.21
   6   6 -10    2.31    7.84
   7   3  -9   39.62    6.72
   8   4 -10    2.22    6.41
   9   3  -9   -4.15    6.30
  10   4 -10   -1.51    5.72
  11   3  -9   -0.07    5.85
  12   4 -10    5.82    5.48
  13   5 -10    0.20    4.41
  -7   5  -4    2.68    6.31
  -6   6  -5    4.39    7.87
  -5   7  -5    0.96    6.47
  -3   5  -7   -4.07    7.75
   2   4  -9    0.71    6.63
   4   6 -10    8.47    7.61
  13   3  -9   -1.34    5.36
  -8   4  -3    0.26    4.42
  -5   5  -6   -2.37    7.06
  -4   4  -6   23.66    5.58
  -2   6  -8    5.05    7.02
   0   6  -9   -0.26    7.98
   3   5 -10   -4.91    8.07
   5   3  -9   21.82    6.59
   8   2  -8   13.14    4.70
   8   6 -11   -2.30    7.43
   9   5 -11   -2.13    3.81
  10   2  -8   50.17    4.79
  10   6 -11    1.06    7.09
  11   5 -11    1.60    2.07
  13   5 -11    0.85    1.16
  -9   3  -1    1.66    3.77
  -7   3  -3   10.43    4.59
  -6   4  -5   10.10    5.06
  -4   6  -7    2.74    7.60
  -1   3  -7   38.04    4.49
   0   2  -6   -1.54    3.90
   1   3  -8   10.48    5.78
   2   6 -10    6.64    9.01
   5   5 -11    1.05    5.42
   6   2  -8   27.57    5.29
   6   6 -11   -0.42    7.15
  10   4 -11   -0.44    6.43
  12   2  -8   15.32    4.07
  -7   5  -5   -1.19    6.70
  -6   6  -6   -7.85    8.16
  -3   5  -8   10.28    7.17
  -2   2  -5   85.16    4.18
   0   4  -9   -0.61    6.43
   1   5 -10   12.10    8.15
   2   2  -7    2.53    4.42
   4   6 -11    8.83    7.97
   7   3 -10   33.19    6.80
   8   4 -11    4.65    6.80
  11   1  -6   10.08    3.52
  11   3 -10    8.46    5.98
  -5   3  -5    2.65    4.78
  -5   5  -7   -1.86    7.30
  -4   4  -7   23.90    6.03
  -2   6  -9    2.87    8.21
   0   6 -10   -1.64    9.00
   2   4 -10    3.79    6.89
   3   5 -11    7.89    7.09
   6   6 -12    1.35    6.43
   7   1  -6   29.00    3.20
   8   6 -12    3.60    7.10
   9   5 -12   -3.10    3.35
  11   5 -12   -0.74    2.13
  13   3 -10    3.15    5.71
  13   5 -12   -0.05    1.16
  -8   4  -4   12.37    4.65
  -8   6  -5   -5.44    8.15
  -4   2  -4   45.43    3.97
  -4   6  -8    2.86    6.69
   2   6 -11   -4.31    8.57
   4   2  -8   60.11    5.18
   5   3 -10    1.54    6.20
   5   5 -12    1.25    6.07
  -7   5  -6    4.91    6.69
  -6   4  -6    5.79    5.22
  -6   6  -7    1.08    7.49
  -3   5  -9    1.18    7.42
  -1   3  -8   10.99    5.33
  -1   5 -10    0.95    8.13
   0   4 -10   -4.02    6.81
   1   5 -11   12.16    8.30
   4   6 -12   -1.29    7.22
   5   1  -6   -0.65    3.07
   8   2  -9    5.90    5.12
   8   4 -12    4.08    7.55
   9   3 -11    2.25    5.66
  10   2  -9   30.66    4.97
  10   4 -12   -1.81    7.06
  11   3 -11    2.38    6.54
  12   2  -9    6.96    4.84
  12   4 -12   -4.67    7.06
  -9   3  -2   71.17    4.64
  -7   3  -4    0.42    4.01
  -5   5  -8   -6.54    7.20
  -4   4  -8   11.48    6.03
  -4   6  -9    4.12    7.82
  -2   4  -9    5.51    6.26
  -2   6 -10    7.28    8.81
   0   2  -7  109.67    5.35
   0   6 -11   -0.88    8.58
   2   4 -11    0.08    7.01
   2   6 -12   -8.70    8.77
   3   3 -10   12.69    5.89
   3   5 -12    1.85    6.91
   6   2  -9   10.25    5.58
   6   6 -13   -0.49    9.01
   7   3 -11   14.37    6.83
   9   5 -13   -6.53    4.47
  11   5 -13   -0.28    3.13
  13   5 -13   -0.15    2.77
  -8   4  -5   -4.51    5.64
  -8   6  -6  -10.09    8.38
  -6   6  -8    4.15    8.10
  -5   3  -6   -2.40    4.91
  -2   2  -6   46.72    4.44
   4   4 -12   -4.95    7.64
   4   6 -13   -6.49    8.59
  -8   2  -1   24.14    3.60
  -7   5  -7    4.95    6.78
  -6   2  -3    4.75    3.15
  -6   4  -7    1.14    5.97
  -3   5 -10   -1.18    8.07
  -2   6 -11   -2.80    9.56
  -1   3  -9    7.37    6.42
  -1   5 -11   -0.28    7.50
   0   6 -12   10.10   10.14
   1   1  -5   17.66    3.10
   1   5 -12   -6.47    7.55
   4   2  -9    8.36    5.71
   8   4 -13    7.18    8.21
  10   4 -13    4.65    7.86
  11   5 -14    1.08    5.55
  12   4 -13    8.94    7.57
  -8   6  -7    2.78    7.51
  -5   5  -9    3.47    7.79
   0   4 -11    6.45    6.22
   2   4 -12    4.79    7.27
   2   6 -13   -0.50    9.96
   3   1  -6  181.46    4.49
   3   3 -11    2.91    6.88
   3   5 -13    5.71    7.25
   8   2 -10   33.31    5.17
   9   3 -12   -4.53    6.57
  10   2 -10    4.08    4.74
  11   1  -7    7.03    3.29
  11   3 -12    0.47    6.74
  13   5 -14    0.79    3.87
  -9   5  -6   -0.55    7.31
  -7   3  -5    3.74    4.27
  -6   6  -9   -0.68    7.73
  -4   4  -9   13.96    6.27
  -1   5 -12    2.49    6.85
   5   5 -14   -3.64    8.70
   6   2 -10    2.74    5.44
  12   2 -10    0.95    4.45
  -8   4  -6    0.56    5.23
  -7   5  -8   10.93    7.25
  -6   4  -8   10.38    6.01
  -5   3  -7    7.93    5.22
  -4   6 -11   -1.79    8.48
  -3   5 -11    5.39    7.66
  -2   6 -12    0.18   11.00
   0   6 -13   -5.19   11.55
   3   5 -14    2.95    8.01
   8   4 -14    7.12    8.33
   9   5 -15   -3.84    7.63
  10   4 -14    0.85    8.90
  11   5 -15   -1.50    6.25
  -8   6  -8   -2.72    9.14
  -6   6 -10    0.96    8.28
  -5   5 -10    4.99    7.66
  -2   2  -7    1.17    3.08
  -2   4 -11   11.60    7.38
  -1   3 -10    6.35    6.35
   0   4 -12    3.05    7.17
   2   4 -13    2.77    7.71
   4   2 -10  174.39    7.68
   7   5 -15   -6.40    7.79
   9   3 -13    7.45    6.63
  11   3 -13    0.54    7.92
  13   5 -15   -3.33    5.38
  -9   5  -7    6.66    6.27
  -7   5  -9   -5.10    8.15
  -6   2  -4   -1.01    3.70
  -3   5 -12   -0.31    8.63
  -1   5 -13    1.57    7.53
   3   3 -12    6.24    7.02
   5   5 -15    3.99    8.26
  -9   3  -4   -1.82    4.76
  -8   2  -2   31.91    3.55
  -8   4  -7    0.80    5.82
  -8   6  -9   -1.88    7.05
  -7   3  -6   21.41    5.20
  -6   4  -9    0.51    6.66
  -5   3  -8   -2.05    5.60
  -5   5 -11   10.84    8.12
  -4   6 -12   -5.64    9.37
   3   5 -15    2.75    9.50
   7   5 -16    7.00    8.17
   8   4 -15    2.73    9.38
   9   1  -8    3.07    4.22
   9   5 -16    0.48    8.59
  11   5 -16   10.54    7.23
  12   2 -11    3.75    4.90
  12   4 -15   -0.75    9.09
  13   5 -16    2.49    7.14
  -6   6 -11    5.41    7.78
  -2   4 -12   18.27    7.76
  -1   3 -11    2.36    6.60
   0   2  -9    8.66    5.86
   0   4 -13   -0.70    7.15
   1   1  -6  157.14    3.78
   1   3 -12   -2.65    7.12
   2   2 -10    4.36    6.37
   2   4 -14    0.33    8.10
   3   1  -7    7.69    3.79
   7   1  -8   67.28    4.35
  11   1  -8    4.47    3.93
  -9   5  -8  -10.57    7.05
  -7   5 -10    2.03    7.93
  -4   4 -11    4.07    6.91
  -4   6 -13    1.58    8.39
  -3   3 -10    7.26    6.70
  -3   5 -13    0.97    7.62
  -2   2  -8   14.54    5.38
  -1   1  -5  419.10    5.61
  -1   5 -14   -3.69    8.88
   4   4 -15   -2.45    8.87
   7   3 -14    0.75    7.86
   9   3 -14   16.87    8.07
  11   3 -14   -4.81    7.73
  11   5 -17    0.58    8.40
  -8   4  -8    5.54    6.63
  -8   6 -10    4.58    7.82
  -7   3  -7   16.96    5.51
  -6   2  -5   20.23    4.45
  -6   4 -10    4.85    7.08
  -6   6 -12   -5.83    8.11
  -5   5 -12   -4.75    7.87
   3   5 -16    1.08    8.89
   5   1  -8    6.02    3.67
   7   5 -17    1.16    9.91
   8   2 -12    7.49    6.19
   8   4 -16    1.23    8.83
  10   2 -12    4.35    5.62
  10   4 -16    7.77    7.77
  12   4 -16   -5.35    9.30
  -9   3  -5    3.25    4.36
  -9   5  -9  -10.98    7.84
  -8   2  -3   11.34    4.08
  -4   4 -12   -6.17    7.08
  -1   3 -12    3.36    6.88
  -1   5 -15    1.02    8.11
   1   3 -13   12.71    7.26
   2   4 -15   -5.61    8.99
   5   5 -17   -0.32   10.11
   6   2 -12    5.44    5.74
  12   2 -12   -2.62    5.56
  -8   6 -11   -3.06    8.14
  -7   5 -11    6.33    8.28
  -2   2  -9   10.03    6.17
   0   2 -10    2.69    4.53
   1   1  -7  129.65    4.89
   2   2 -11   -1.27    6.72
   3   3 -14    0.37    7.72
   3   5 -17    3.03   10.27
   4   4 -16   -3.28    8.59
   7   5 -18   -0.71   10.57
   9   1  -9   12.18    5.14
   9   3 -15    5.66    8.30
  10   4 -17    6.14    9.80
  11   3 -15    0.66    8.19
  -8   4  -9   -1.58    6.75
  -5   5 -13    3.79    7.32
  -2   4 -14    0.55    7.74
   0   4 -15    1.45    9.09
   3   1  -8    5.02    3.82
   5   5 -18   -7.42    9.45
   8   4 -17    0.85    8.40
  -9   3  -6   12.61    4.80
  -9   5 -10    4.02    7.62
  -7   5 -12    3.30    7.76
  -5   3 -10    9.79    6.38
  -4   4 -13    1.02    7.67
  -1   1  -6  168.00    4.86
  -1   5 -16   -3.72    9.57
   1   3 -14   -2.04    8.27
   1   5 -17   -7.43    9.79
   2   4 -16   -2.74    7.92
   4   4 -17   10.63    9.51
   5   1  -9   71.89    4.94
   8   2 -13   -1.27    6.66
  10   2 -13   -3.73    5.54
  -8   2  -4   52.65    5.13
  -8   4 -10   -6.39    7.38
  -5   5 -14    1.81    8.48
   0   2 -11   24.82    7.13
   2   2 -12    6.69    6.84
   3   3 -15   28.26    8.56
   3   5 -18   -2.94    9.66
   7   3 -16    3.64    8.46
   8   4 -18   -1.23    9.39
  10   4 -18    0.74   10.01
  11   3 -16   -4.26    8.37
  12   4 -18    4.08   11.30
 -10   4  -8   13.10    6.88
  -9   5 -11   -5.27    9.27
  -7   3  -9   -1.90    6.02
  -6   4 -12    7.91    7.42
  -2   4 -15   -4.67    9.36
  -1   5 -17    2.68    8.90
   0   4 -16   -2.66    8.43
   2   4 -17   -6.84    8.66
   4   2 -13   -1.77    7.52
  -9   3  -7    5.51    5.13
  -7   5 -13    4.21    7.58
  -6   2  -7   34.15    5.61
  -5   3 -11   -5.78    6.44
  -5   5 -15   -3.87    9.46
  -4   4 -14   10.78    8.24
  -3   1  -5   19.17    3.50
  -1   3 -14    5.52    8.19
   1   1  -8   22.80    4.47
   1   3 -15    4.94    8.23
   3   1  -9   22.63    4.69
   4   4 -18    0.32   10.14
   9   1 -10   10.53    4.38
  10   2 -14    0.06    6.34
 -10   4  -9    7.41    8.53
  -8   4 -11    8.20    7.22
  -6   4 -13   -4.93    8.10
  -2   4 -16    1.94    7.79
  -1   1  -7  129.34    5.34
   0   2 -12   23.89    7.25
   0   4 -17   -0.15    8.71
   2   2 -13   25.84    7.27
   5   1 -10    7.25    5.11
   6   2 -14   17.21    6.64
   6   4 -19   -4.18   11.26
   7   3 -17    4.62    8.72
   8   4 -19    3.26   10.29
  10   4 -19    0.33    9.56
  11   3 -17   -1.39    8.19
  12   4 -19   -1.86    9.90
  -9   5 -12    5.01    9.31
  -8   2  -5    2.57    4.25
  -7   3 -10    4.21    6.46
  -7   5 -14   -6.34    8.71
  -4   4 -15   -3.18    9.05
  -2   2 -11   30.15    6.68
  -1   5 -18   -0.79   10.05
   2   4 -18    6.64   10.41
 -10   2  -2   -1.14    3.64
  -9   3  -8   -3.72    5.43
  -8   4 -12   -1.57    7.67
  -6   2  -8   46.75    6.06
  -5   5 -16   -2.94    9.77
  -1   3 -15   -3.83    8.58
   1   1  -9    8.43    4.87
   1   3 -16   -6.26    8.64
   3   1 -10   37.35    5.41
   4   4 -19   -0.65    9.70
   7   1 -11   50.76    6.29
   8   2 -15    0.02    7.09
   9   1 -11    5.09    5.58
   9   3 -18   -0.26    9.61
  11   3 -18    5.61    9.19
 -10   4 -10    1.41    7.32
  -9   5 -13    0.61    9.45
  -7   3 -11    2.88    7.22
  -7   5 -15   -3.55    8.78
  -6   4 -14   -1.41    8.24
  -3   1  -6  123.90    4.99
  -2   4 -17    4.83    9.59
  -1   1  -8   21.45    5.01
   0   2 -13   13.97    6.96
   0   4 -18    1.24   10.37
   6   4 -20    1.81   10.64
   7   3 -18   -1.13    8.76
  11   1 -11   -0.03    4.69
  12   4 -20    6.12    9.83
  -9   3  -9    6.70    6.78
  -8   2  -6   -2.53    4.71
  -5   1  -4    2.67    2.90
  -5   3 -13   14.39    8.25
  -5   5 -17   -2.09    9.92
  -4   4 -16   -9.68    9.38
  -2   2 -12   85.26    8.19
  -1   3 -16    1.31    8.34
   1   3 -17   -2.50    8.93
   4   4 -20   -1.04   10.54
   5   1 -11   12.45    5.48
 -10   2  -3   -0.39    3.93
  -9   5 -14   -3.12    8.17
  -8   4 -13    0.38    9.04
  -7   5 -16    0.64    9.74
  -6   2  -9    3.44    5.62
  -6   4 -15   -2.97    9.10
  -3   3 -15   -4.41    8.75
  -2   4 -18   -4.03   10.46
   0   4 -19   -2.95   10.67
   1   1 -10   59.75    5.70
   3   3 -18   -3.80    9.51
   6   4 -21    5.89   10.29
   7   3 -19    1.28    9.61
   8   2 -16   -3.44    7.92
   8   4 -21    9.23   10.40
   9   3 -19   -5.68    9.82
  10   2 -16   11.15    7.35
  10   4 -21   -5.12   10.28
  -5   3 -14    7.18    8.30
  -3   1  -7   41.13    4.27
  -1   1  -9   34.47    5.17
   0   2 -14    8.10    7.38
   2   2 -15    1.63    7.76
   2   4 -20   -1.80    9.93
   4   4 -21    1.06   10.26
   7   1 -12    4.53    5.37
  -9   3 -10    2.94    6.33
  -9   5 -15   -8.62    9.30
  -8   2  -7    0.76    4.78
  -8   4 -14   -5.44    9.46
  -6   4 -16   -9.76    9.03
  -5   1  -5    1.53    4.06
  -1   3 -17   -4.73    9.57
   1   3 -18   13.09   10.23
   5   1 -12   20.57    6.70
   8   2 -17   -2.22    7.76
   9   3 -20   -2.56    8.76
  11   1 -12    6.84    4.38
 -10   2  -4    9.28    4.36
 -10   4 -12    6.00    7.23
  -2   4 -19   12.30    9.82
   0   2 -15    3.13    7.81
   2   2 -16   -4.47    8.38
   3   1 -12   12.46    7.17
   6   2 -17   -6.23    8.80
   7   3 -20   -3.07    9.28
  10   2 -17   -3.84    8.32
  -9   3 -11    7.08    7.12
  -8   2  -8   12.25    5.78
  -8   4 -15   -0.99    8.60
  -6   4 -17    0.53   10.34
  -5   3 -15    1.13    8.06
  -3   1  -8   80.59    5.54
  -2   2 -14    6.39    7.94
  -1   3 -18   -1.60    9.89
   1   3 -19    3.61    9.54
   5   1 -13    8.13    6.02
   9   1 -13   13.47    5.31
 -10   4 -13    3.44    8.55
  -5   1  -6    2.62    4.05
  -3   3 -17    7.85    9.27
  -2   4 -20   -4.94   11.61
   0   2 -16   34.58    8.72
   3   3 -20    3.72    9.19
   6   2 -18   -2.04    8.27
   7   3 -21    4.43   10.32
   8   2 -18   11.47    8.73
   9   3 -21    6.19   10.73
  11   1 -13    3.94    5.01
  11   3 -21   -6.36   11.94
 -10   2  -5    9.42    4.17
  -9   3 -12   -1.96    8.07
  -8   4 -16   -8.46    9.66
  -7   3 -14   -1.31    8.01
  -5   3 -16    1.98    9.24
  -3   1  -9    2.06    5.33
  -2   2 -15   -1.16    8.69
  -1   3 -19   -2.87    9.24
   1   1 -12    4.69    7.13
   1   3 -20    2.91    9.74
   2   2 -17   -1.23    7.75
   3   1 -13   24.28    6.93
   5   3 -21   -2.02   11.11
   7   1 -14    5.77    6.68
  -6   4 -18    8.20    8.98
  -4   2 -14   13.16    7.93
  -3   3 -18    2.10    8.79
   3   3 -21   -2.56   10.95
   5   1 -14   11.12    6.77
   7   3 -22    2.02    9.54
   8   2 -19   12.24    8.40
   9   3 -22   -5.24   10.48
  11   1 -14   -2.61    6.30
  11   3 -22   -6.49   11.00
 -11   3 -10   -3.95    7.29
 -10   2  -6    3.39    4.85
  -9   3 -13    3.02    7.57
  -8   4 -17    6.56    8.45
  -5   3 -17    3.99    9.88
   0   2 -17   -0.35    9.37
   2   2 -18    7.40    8.72
   3   1 -14   -3.72    7.40
   6   2 -19   -4.02    9.27
 -10   4 -15   -4.94   10.37
  -8   2 -10    1.64    6.47
  -6   4 -19   -2.68    9.28
  -4   2 -15   -3.55    8.42
  -3   1 -10   39.70    6.56
  -3   3 -19    1.83   10.18
   1   3 -21    5.10   10.04
   3   3 -22    4.29   11.16
   5   1 -15    8.28    7.39
   7   1 -15    5.24    7.18
   9   1 -15    4.67    5.91
   9   3 -23   -6.35   11.27
 -11   3 -11   -7.07    8.31
 -10   2  -7    7.24    5.01
  -9   3 -14    9.55    7.85
  -8   4 -18    3.01    8.44
  -7   3 -16   -3.27    9.48
  -5   3 -18    3.87    9.93
  -2   2 -17   10.49    9.03
   0   2 -18   -1.89    9.20
   1   1 -14    1.53    7.49
   5   3 -23    1.90   11.74
   6   2 -20    7.72   10.29
   7   3 -23   -4.61   10.25
   8   2 -20    1.93    9.38
  10   2 -20    4.08    9.11
  11   1 -15    3.13    5.84
  11   3 -23    6.39   10.85
 -10   4 -16   -2.95    9.55
  -6   2 -14    0.38    7.87
  -3   1 -11   32.06    7.74
  -3   3 -20   -3.24   10.90
  -1   1 -13   34.84    8.08
  -1   3 -21    3.80   10.89
   1   3 -22   -3.95   11.30
   3   1 -15   57.47    8.06
   3   3 -23   -1.67   12.15
   7   1 -16   10.11    7.51
   9   1 -16   15.25    6.71
 -11   3 -12   -1.48    8.27
  -8   4 -19   -7.88    9.33
  -7   1  -5    5.91    4.02
  -7   3 -17    5.46    9.26
  -4   2 -16    3.85    8.78
  -2   2 -18    9.01    9.18
   0   2 -19    0.80    9.61
   1   1 -15   10.00    7.23
 -10   2  -9   24.01    7.07
 -10   4 -17   -2.73    9.48
  -7   1  -6   82.59    5.25
  -4   2 -17    7.21    8.67
  -3   1 -12    2.77    6.83
  -3   3 -21    7.03   11.22
  -1   1 -14    6.76    7.75
  -1   3 -22   -0.11   11.20
 -11   3 -13    9.62    8.01
  -9   3 -16   -0.16    9.65
  -8   2 -13   47.61    8.57
  -7   3 -18    0.15    8.99
  -3   1 -13    0.12    7.63
  -2   2 -19    3.74   10.19
   0   2 -20   10.94   10.31
   1   1 -16    2.75    8.24
   2   0  -7    2.25    3.43
   5   1 -17   -3.38    8.30
   6   2 -22    2.87   10.09
   8   2 -22    6.17   10.14
  10   2 -22    2.07   10.81
 -10   2 -10    0.63    6.08
 -10   4 -18   -0.36    8.48
  -7   3 -19   14.96   11.00
  -4   2 -18    0.43    9.37
  -1   1 -15   -4.54    8.25
  -1   3 -23    5.40   10.90
   4   0  -9    9.19    5.08
   6   0  -9   15.15    4.01
   7   1 -18   -0.74    8.86
   9   1 -18    7.50    9.27
 -11   3 -14    2.71    8.63
 -10   2 -11    1.30    7.71
  -8   2 -14   -4.32    8.39
  -7   1  -8  159.33    7.43
  -3   1 -14    7.77    7.87
  -2   2 -20   -1.19    9.78
   0   2 -21   -5.48   10.68
   1   1 -17   -1.99    8.77
   2   0  -8  106.40    5.37
   2   2 -22    7.02   11.16
   5   1 -18   -0.20    8.89
   6   0 -10    8.78    5.52
   8   2 -23   -6.22   10.97
  10   2 -23    0.62   12.08
 -11   3 -15   -5.56    9.51
  -7   3 -20    9.72   10.01
  -6   2 -17    7.38    9.68
  -4   2 -19    4.12   10.12
  -1   1 -16    4.40    8.63
   0   0  -6    1.95    3.53
   2   0  -9   30.09    5.23
   4   0 -10  269.86    7.15
   4   2 -23   -4.76   12.07
   7   1 -19   -0.17    9.64
   8   0 -10   39.03    5.70
   9   1 -19   -3.76   10.00
 -10   2 -12   -6.17    7.87
  -9   3 -18   -3.04   10.56
  -8   2 -15    0.57    9.25
  -3   1 -15    0.61    8.58
  -2   2 -21   -2.97   11.16
  -1   1 -17  -14.02    9.61
   0   2 -22   -5.94   12.46
   1   1 -18   32.96    9.16
   2   2 -23   -6.46   12.38
   6   0 -11   14.08    5.64
   6   2 -24    1.06   11.73
   8   2 -24   -8.27   10.98
  10   2 -24    0.07   11.13
 -11   3 -16    0.02   10.42
  -9   3 -19   -6.14   10.49
  -8   2 -16   -2.16    9.33
  -7   3 -21    2.69   10.94
  -6   2 -18    4.92   10.64
  -4   2 -20    4.09   10.40
   4   2 -24    1.14   12.05
   7   1 -20    0.74    9.97
   8   0 -11    1.04    5.21
 -11   3 -17    4.22   11.72
  -9   1  -4    8.46    4.80
  -9   1  -3   86.12    4.81
  -7   1 -11    0.73    7.08
  -6   2 -19    3.24    9.58
  -3   1 -16    9.93    9.27
  -2   2 -22    3.88   11.77
  -1   1 -18   12.46    9.88
   0   0  -9   17.75    5.36
   0   2 -23   -3.79   11.97
   1   1 -19   -2.50    9.75
   2   2 -24    1.75   11.74
   4   0 -12   28.94    6.73
   6   0 -12   10.26    6.13
   6   2 -25    3.56   11.53
   8   2 -25    1.33   10.83
  10   0 -10   -5.05    4.18
  10   2 -25  -10.18   11.61
 -10   2 -14    3.47    9.28
  -9   1  -6   33.82    6.15
  -9   3 -20    4.29   10.37
  -8   2 -17    2.11    9.94
  -7   1 -12   -0.65    7.42
  -5   1 -15    9.90    8.20
  -4   2 -21    4.97   10.72
   0   0 -10    2.99    5.85
   0   2 -24    3.59   13.29
   2   0 -12    9.05    7.39
   4   0 -13  -10.81    7.72
   4   2 -25    1.36   12.12
   5   1 -21    5.49   10.00
   7   1 -21    0.46    9.97
   9   1 -21    5.40    9.55
 -11   3 -18   -8.64   10.37
 -10   2 -15    2.63    9.76
  -8   2 -18   -0.70   11.29
  -6   2 -20   -3.30   11.36
  -2   0  -6   76.67    5.27
  -2   2 -23    1.57   11.66
  -1   1 -19   -9.83   10.21
   2   2 -25   -3.69   13.47
   6   0 -14    5.72    6.88
   8   0 -13   -0.71    5.70
  -7   1 -13    0.73    7.97
  -2   0  -9   13.11    5.38
  -2   0  -8   27.32    5.63
  -2   2 -24    0.93   11.28
  -1   1 -20    7.90   10.45
   0   0 -12   38.32    7.99
   1   1 -21   -0.43   11.32
   4   0 -14    3.78    6.87
   5   1 -22    6.96   10.32
   7   1 -22   -1.30   10.26
   9   1 -22   10.46    9.85
  10   0 -13    1.37    5.55
 -11   3 -19   -5.59   10.06
 -10   2 -16   -0.47    9.94
  -9   1  -9   16.33    6.24
  -8   2 -19   -5.65   10.67
  -7   1 -14   -1.54    8.23
  -6   2 -21   -8.13   11.10
  -2   0 -10    8.65    6.47
   0   0 -13   12.78    8.28
   2   0 -14    1.95    7.67
   4   0 -15    1.79    7.61
   6   0 -15   63.99    8.01
   7   1 -23    4.75   11.10
 -12   2 -13    2.10    8.62
  -9   1 -10    1.45    7.03
  -8   2 -20   13.81   11.40
  -6   2 -22   -2.62   12.40
  -2   0 -11   57.84    7.84
  -1   1 -21    8.70   10.43
   1   1 -22    4.67    9.98
   2   0 -15    7.24    8.38
   9   1 -23   -8.95   11.15
 -12   2 -14    6.76    9.51
  -7   1 -16   -0.13    9.00
  -5   1 -18    0.13    9.65
  -3   1 -20    6.54    9.81
  -2   0 -12  170.35    9.63
  -1   1 -22    1.06   10.43
   1   1 -23   -2.43   11.24
   5   1 -24   -4.09   11.23
   6   0 -17    0.30    7.87
   7   1 -24   -3.75   11.30
   9   1 -24   -2.87   12.72
  10   0 -15    3.71    6.21
 -10   2 -18   -1.09    9.14
  -8   2 -21    8.49   11.64
  -5   1 -19    7.32   11.37
  -4   0  -7  138.21    5.88
  -4   0  -6  177.06    5.73
  -3   1 -21    4.80   10.88
  -2   0 -13   -5.08    8.35
   0   0 -15    2.99    5.95
   2   0 -17   -3.84    9.07
   8   0 -17   -4.64    7.61
  10   0 -16    7.09    6.18
 -12   2 -15   -3.47    9.12
 -10   2 -19   -2.12   10.87
  -8   2 -22   -5.61   12.23
  -7   1 -17   -4.71    9.48
  -4   0  -9   92.38    5.38
  -4   0  -5   86.39    4.27
  -2   0 -14    5.53    8.37
  -1   1 -23   -0.15   12.23
   0   0 -16   42.96    9.67
   1   1 -24    1.14   12.58
   3   1 -25   -3.96   11.69
   4   0 -18    1.05    9.30
   5   1 -25    0.87   11.99
   8   0 -18    7.94    7.87
  10   0 -17   -0.81    7.94
 -12   2 -16   -3.36    9.94
 -10   2 -20    1.56    9.40
  -9   1 -15   -3.80   10.34
  -7   1 -18    2.71   10.36
  -4   0 -12    7.98    7.47
  -4   0 -11   -2.02    5.59
  -3   1 -22   -4.84   11.50
  -2   0 -15   -2.66    8.76
  -1   1 -24    1.70   11.62
   1   1 -25   -2.26   11.67
   5   1 -26    9.07   10.61
   6   0 -19   -6.23    9.67
   7   1 -26  -12.23   11.07
   8   0 -19    5.04    9.04
  10   0 -18    4.19    7.46
 -11   1  -8    3.36    5.51
 -11   1  -7    3.45    5.03
  -5   1 -21    5.30   10.48
  -4   0 -13    4.12    8.28
  -3   1 -23   -2.69   12.28
  -2   0 -16   -0.55    9.18
   0   0 -18   -6.40   10.04
   3   1 -26   -9.47   12.25
   4   0 -20    3.30    9.78
   9   1 -26    0.09   10.99
   6   4  11    0.46    4.91
   8   4  12   -0.60    4.64
   9   3   7   10.39    5.52
  10   2   4    6.09    5.62
  10   4  13   -1.89    5.94
  11   3   8    2.66    6.44
  12   2   5    7.75    5.73
  12   4  15   -1.18    5.55
  13  -1   0   18.92    4.28
  13   1   3   -0.63    5.03
  14   2   6    4.60    5.74
  15  -1   1    1.82    4.63
  15   1   4    5.39    6.00
  16   0   3   -2.11    5.85
  17   1   6   10.69    6.46
  18   2  10   -3.42    8.45
  20   0   7    4.82    6.97
   3   3   6   27.77    3.85
   5   3   6    1.89    3.87
   6   2   3    6.59    3.67
   8   4  11    0.98    5.11
  12   4  14    0.49    5.89
  17  -1   2    0.27    6.14
  18   0   4    3.76    6.29
  20   0   6    2.41    6.18
  21  -1   6   -2.16    8.64
   2   2   3  109.06    3.11
   4   4  10   -1.01    3.57
   6   4  10   -0.43    4.48
   7   3   6   22.34    4.65
   8   2   3    6.90    4.97
   9   1   1    2.61    4.05
  10   4  12   -2.07    5.26
  11  -1  -1   -1.30    3.75
  12   4  13   -0.02    5.39
  14   0   1    0.07    4.96
  14   2   5   10.69    6.05
  15   3  10   -3.24    7.69
  16   0   2   -0.30    5.43
  16   2   7   -7.48    6.11
  18   2   9   -0.30    7.83
   1   3   6   57.55    3.41
   8   4  10    0.14    4.35
   9   3   6    7.71    5.59
  10   2   3    3.58    5.25
  10   4  11    0.53    5.60
  12   0   0   -5.13    4.55
  13   1   2    0.30    4.99
  15   1   3    7.59    6.18
  15   3   9   -5.80    6.89
  16   2   6    5.58    6.96
  18   0   3   -4.44    7.11
  18   2   8    2.15    7.81
  19  -1   3   -1.88    6.43
  20   0   5    4.11    7.21
  21  -1   5    5.51    9.06
  11   1   1    7.88    4.82
  13   3   7    3.07    6.57
  15  -1   0   -3.24    4.66
  17  -1   1   -0.72    6.06
   4   4   9   10.61    4.07
   5   3   5   -2.78    4.18
   6   4   9   -1.24    3.88
   8   4   9   -1.26    4.33
  10   4  10    1.92    5.26
  12   2   3   61.33    6.36
  12   4  11    0.46    6.01
  13  -1  -1    1.39    3.99
  14   2   4    1.46    6.19
  14   4  13    1.10    5.69
  15   1   2    1.06    5.73
  15   3   8   -3.89    6.69
  16   0   1   10.39    5.48
  16   2   5    1.48    6.99
  17   3  10   -1.35    8.27
  18   2   7    4.18    6.87
  19  -1   2   -2.21    7.75
  20   0   4    9.47    6.73
  21   1   7   -3.47    7.63
  22   0   6   -3.93    7.80
   3   3   5    3.09    3.67
   6   2   2  202.44    5.43
   8   2   2   37.80    5.18
   9   3   5    3.81    4.85
  10   0  -1   14.30    3.70
  10   4   9    0.94    5.41
  12   4  10    2.06    5.44
  13   3   6    1.89    5.99
  14   0   0   -3.09    4.99
  14   4  12    0.89    5.75
  17   3   9    4.19    7.52
  18   0   2    0.95    6.22
  18   2   6    3.86    7.45
   6   4   8   13.04    5.68
   9  -1  -2    2.66    2.38
  10   2   2    3.37    5.25
  12   0  -1   -0.69    4.20
  14   2   3    2.56    5.69
  14   4  11   -3.61    6.58
  15   3   7   -5.80    6.25
  16   2   4    6.51    6.61
  17   3   8   -4.31    6.86
  19   1   4   -5.55    6.58
  20   0   3   -3.08    6.98
  21   1   6    2.66    6.93
  22   0   5    3.43    7.02
   4   4   8    3.20    4.09
   7   3   4    9.35    4.54
   8   4   8   -0.48    5.44
  10   4   8    8.67    5.52
  11  -1  -2  217.72    5.31
  11   1   0    0.34    4.80
  12   2   2    5.20    5.39
  12   4   9   -0.04    5.40
  13   3   5    1.60    5.99
  14   4  10    1.49    6.23
  15  -1  -1   -0.10    4.83
  15   3   6    5.11    6.22
  16   0   0    0.85    6.16
  17  -1   0    9.72    6.18
  18   2   5   -0.75    7.60
  20   2   7   -3.96    8.31
  21   1   5   -5.70    7.15
   1   3   5  153.88    4.56
   5   3   4    1.52    4.22
  13   1   0   18.53    5.66
  16   2   3    3.58    6.00
  17   3   7    9.00    7.57
  18   0   1    4.33    5.72
  19   1   3   -1.41    6.56
  20   0   2    2.82    6.39
  20   2   6   -5.09    8.19
  22   0   4    1.14    7.11
   6   4   7    7.84    4.71
   8   2   1   26.55    4.92
   8   4   7   -0.63    5.33
  10   2   1    6.76    5.14
  10   4   7    7.79    6.70
  12   4   8   -1.88    6.02
  13  -1  -2    0.86    4.09
  14   0  -1   30.01    4.86
  14   4   9   -3.17    5.63
  15   3   5    0.06    7.31
  18   2   4   -5.93    6.66
  21   1   4   -7.28    7.40
   3   3   4    5.52    3.62
   4   4   7   23.19    4.80
  12   2   1    1.35    5.34
  12   4   7   -1.94    6.35
  13   3   4    6.01    5.96
  14   4   8    4.45    6.67
  16   4   9    0.13    7.18
  17  -1  -1   19.92    6.58
  17   3   6    6.34    6.80
  18   0   0    4.36    5.98
  19  -1   0   -0.41    7.67
  19   1   2    6.90    6.75
  20   2   5    1.23    7.91
  22   0   3    9.02    7.62
   7   3   3   10.45    4.64
   8   4   6   -1.80    6.35
  12   0  -2    2.14    4.55
  15  -1  -2    1.41    5.48
  15   3   4   10.71    7.14
  16   0  -1    4.44    5.49
  17   3   5    7.96    7.68
  18   2   3   -3.07    6.24
  20   0   1    5.51    7.33
  21   1   3   -2.86    7.34
   5   3   3   90.31    5.28
   6   4   6   -1.07    4.44
  10   4   6   -0.65    6.20
  11   5  11   -0.22    6.88
  12   4   6   -4.98    6.16
  13   3   3    0.86    6.48
  14   2   1   -5.40    5.66
  14   4   7   -1.51    7.23
  16   4   8    3.15    7.91
  17   1   0    1.57    6.10
  19   1   1    0.73    6.92
  19   3   6   -0.60    8.13
  20   2   4    1.54    6.85
  22   0   2    3.01    7.99
  10   2   0   26.91    5.43
  13   5  11    1.16    6.18
  15   3   3    3.61    6.70
  16   2   1    1.23    6.50
  16   4   7   -0.28    7.10
  17   3   4    0.38    7.60
  18   0  -1   -1.59    6.21
  18   2   2    1.43    6.58
  19   3   5   -1.92    8.56
  20   0   0    9.84    6.76
  20   2   3    6.20    6.75
  21   1   2   -2.79    7.39
   4   4   6   22.91    4.22
   8   2   0   10.17    4.83
   8   4   5    3.05    5.32
  10   4   5    3.93    6.19
  11  -1  -3   58.60    4.23
  11   3   2   -1.75    5.74
  11   5  10    4.18    6.61
  13   5  10    3.72    6.50
  14   4   6    0.54    6.54
  16   0  -2   -0.90    5.97
  17  -1  -2   -1.36    6.13
  22   0   1    8.50    7.75
   1   3   4    2.86    2.94
   3   3   3    1.42    4.12
   6   2   0    9.89    3.65
   6   4   5    7.05    4.42
   7   3   2    5.58    4.57
  11   5   9   -0.48    6.69
  12   4   5   -0.53    6.15
  13  -1  -3    2.57    4.28
  13   3   2   -2.30    5.71
  14   2   0    5.15    4.23
  14   4   5    3.47    6.64
  16   4   6   -2.37    7.80
  17   1  -1   11.44    6.71
  17   3   3    4.99    7.45
  18   2   1   -3.38    6.59
  19   1   0    2.22    6.73
  19   3   4   -2.82    8.78
  20   2   2    2.84    7.61
  21   1   1   -1.63    7.41
   9   1  -2   -0.42    3.99
  10   0  -3    5.25    3.97
  13   5   9    0.72    5.96
  15  -1  -3    3.70    4.77
  15   3   2    1.62    6.96
  16   2   0    2.00    6.44
  20   0  -1    3.90    7.41
  22   0   0   -6.63    9.41
  23   1   2    2.45    7.77
   5   3   2   13.82    4.62
   8   4   4   11.07    5.88
   9   5   8   -1.58    5.62
  10   2  -1    6.42    5.45
  11   3   1   -1.89    6.02
  11   5   8   -0.79    6.22
  12   2  -1   -2.62    5.49
  13   3   1   -5.25    6.55
  13   5   8   -3.08    6.70
  14   0  -3    2.30    4.81
  14   4   4   -1.06    6.81
  18   0  -2    0.54    6.30
  19   1  -1    0.87    6.25
  19   3   3    6.90    8.12
  20   2   1   -3.82    6.96
  21   1   0   -4.85    7.14
   4   4   5    5.23    4.23
   7   1  -2   17.32    3.77
   8   2  -1   19.32    4.95
  14   2  -1   19.18    6.34
  17  -1  -3   -3.33    4.71
  17   1  -2    5.76    6.59
  18   2   0   -3.10    6.55
  23   1   1   -1.23    7.66
   4   2   0   -1.41    3.24
   6   4   4   -2.47    4.56
   7   3   1   -0.21    4.91
   9   5   7   -1.37    6.25
  10   4   3   -1.57    6.44
  11   5   7    3.68    7.02
  12   4   3    9.18    7.07
  13   5   7   -1.59    6.42
  16   2  -1    1.60    5.95
  17   3   1    0.10    6.93
  19   3   2    4.04    8.23
  20   0  -2   -2.47    7.97
  22   0  -1    2.83    9.27
   8   4   3   -0.69    5.51
  11   3   0    6.63    5.91
  13  -1  -4   -0.25    3.24
  13   3   0    6.88    6.72
  14   4   3    0.98    6.85
  15   1  -3   -2.06    5.55
  15   5   7   -1.42    6.53
  18   0  -3    2.35    6.90
  18   2  -1    3.01    7.59
  18   4   4   -3.99    8.91
  19   1  -2   -0.71    7.11
  21   1  -1   -2.10    6.18
  23   1   0   -3.26    7.63
   6   2  -1    1.64    3.77
   9   1  -3   15.74    4.12
   9   3   0    2.49    6.01
   9   5   6   -0.48    6.49
  10   2  -2    9.32    5.41
  11  -1  -4    2.62    2.80
  11   5   6   -7.66    7.77
  12   0  -4   21.31    4.60
  12   2  -2    0.94    5.31
  13   5   6   -1.29    7.60
  14   0  -4    0.79    4.26
  14   2  -2   51.32    6.85
  15  -1  -4    1.74    2.11
  15   3   0   -1.31    6.57
  16   2  -2   -2.42    6.04
  17   1  -3    5.84    6.00
  19   3   1    1.26    8.33
  22   0  -2   16.27    9.82
   1   3   3    1.56    3.58
   4   4   4    5.62    4.22
   5   3   1   -8.10    4.63
   6   4   3    2.76    5.05
  10   4   2   -2.13    6.19
  12   4   2    3.94    6.60
  15   5   6    3.63    7.05
  16   0  -4    4.10    5.56
  16   4   2    2.69    7.23
  17   3   0    3.28    6.71
  18   4   3    2.28    7.90
  20   0  -3    5.08    7.62
  21   1  -2   -0.33    7.59
  23   1  -1   -3.69    7.85
   8   2  -2   16.08    5.27
   8   4   2    2.69    5.71
   9   5   5   -2.99    7.21
  10   0  -4    2.94    3.43
  11   3  -1   -1.98    6.06
  11   5   5   -3.36    7.47
  13   3  -1   -3.23    6.68
  13   5   5    3.52    7.36
  15   5   5    4.97    7.80
  18   0  -4   -1.58    7.06
  18   2  -2    3.10    6.97
  18   4   2    5.04    9.00
  19   1  -3   -1.71    6.84
  19   3   0   -2.44    8.30
  12   2  -3    6.68    5.72
  12   4   1    5.02    6.86
  14   2  -3    1.77    6.19
  16   2  -3    2.88    6.28
  16   4   1    3.68    8.62
  17   3  -1    3.18    7.34
  22   2  -1    1.38    7.60
  23   1  -2   -0.99    6.95
   7   1  -3    1.86    2.72
   9   3  -1   -0.31    5.33
  10   2  -3    4.31    5.38
  10   4   1    5.47    6.55
  11   1  -4   -1.90    5.05
  13   5   4   -1.60    8.17
  15   5   4   -2.20    7.82
  17   1  -4    0.56    6.25
  18   4   1   -4.71    7.93
  19   3  -1   -4.77    8.36
  20   0  -4   -2.19    8.38
  21   1  -3   -3.12    6.80
   4   2  -1   40.06    3.87
   4   4   3   -0.42    4.27
   6   4   2   46.57    5.87
   8   0  -4   67.26    3.60
   8   4   1    4.18    6.18
   9   5   4   -1.79    6.94
  13  -1  -5   -0.02    2.32
  13   3  -2   -1.21    6.24
  14   0  -5    3.51    4.46
  15  -1  -5    0.17    1.35
  15   3  -2    4.30    7.02
  16   0  -5   -0.29    5.95
  17   3  -2   -2.48    6.68
  19   1  -4   -5.42    7.15
  22   2  -2    6.71    8.25
   2   4   4    2.91    3.77
   3   3   1  262.43    5.95
   6   2  -2    5.89    3.95
   9   1  -4    3.09    4.21
  11   3  -2   73.34    7.28
  11   5   3    3.56    7.42
  12   0  -5    2.21    3.75
  12   4   0   -3.07    7.13
  13   5   3   -4.23    8.48
  14   2  -4    1.77    6.74
  15   5   3    8.25    8.46
  16   2  -4    5.46    6.43
  16   4   0    4.22    7.34
  18   0  -5    0.65    7.71
  18   4   0   -0.90    7.92
  19   3  -2    1.20    8.21
  22   0  -4    1.36   10.05
  23   1  -3   -0.26    7.20
   7   5   4   -2.69    5.81
   8   2  -3  288.10    7.62
   9   3  -2   -0.45    5.60
  10   4   0    5.96    6.75
  11  -1  -5   -0.17    3.29
  17   1  -5   -4.79    6.67
  20   0  -5    1.98    8.13
  22   2  -3   -3.95    8.25
   1   3   2    2.76    3.98
   6   4   1   53.00    6.08
  10   0  -5    5.43    3.50
  11   5   2   10.07    8.11
  13   3  -3    5.48    7.01
  13   5   2   -2.64    8.33
  15   3  -3    5.28    6.77
  15   5   2   -2.23    8.60
  16   4  -1    2.39    8.50
  18   4  -1    3.63    8.23
  19   1  -5    7.09    7.18
  20   2  -4   -3.54    7.66
  23   1  -4   -0.13    7.82
   4   4   2    0.81    4.28
   8   4   0    3.01    5.72
  10   2  -4    0.77    5.68
  11   3  -3   27.07    6.78
  16   2  -5    2.33    6.36
  18   0  -6   -3.87    8.58
  19   3  -3    6.61    7.43
  21   1  -5   -0.94    7.81
  22   2  -4    1.42    7.64
   5   1  -3  208.40    4.45
   5   3  -1    5.37    4.65
   7   5   3    0.39    6.21
   9   5   2    5.86    7.04
  10   4  -1    1.44    6.95
  13   5   1    2.63    8.00
  14   2  -5    4.60    6.74
  14   4  -2   17.18    7.66
  15  -1  -6    3.35    3.97
  15   1  -6    3.74    5.81
  15   3  -4    3.77    6.69
  15   5   1    0.58    8.59
  16   4  -2   -1.71    8.12
  17   1  -6   -1.68    6.80
  17   3  -4    4.15    6.76
  18   4  -2    5.85    9.40
  21   3  -3   -6.21    8.47
   2   4   3   17.03    3.92
   6   2  -3   11.98    4.51
   9   3  -3    4.29    6.29
  11   5   1   -3.21    8.23
  12   2  -5    6.55    6.10
  13   3  -4   -5.10    7.30
  19   1  -6    6.73    7.68
  23   1  -5    2.95    6.99
   4   2  -2   33.90    4.08
   6   4   0    4.58    5.78
   7   5   2    0.08    7.37
   8   2  -4   38.77    6.03
   8   4  -1    7.32    5.73
  11   3  -4    0.82    6.63
  13  -1  -6    6.21    3.68
  13   5   0   -4.63    8.28
  21   3  -4    1.89    9.16
  22   2  -5    6.71    8.64
   9   5   1   -4.25    6.97
  10   2  -5    4.45    5.81
  10   4  -2   -2.63    7.23
  11   5   0   -1.46    7.50
  14   2  -6    4.05    6.99
  14   4  -3   -5.49    8.78
  15   3  -5    3.51    7.36
  16   0  -7   13.21    4.54
  16   2  -6   14.91    6.68
  16   4  -3   -5.47    8.04
  17   3  -5    6.70    7.43
  18   0  -7    4.30    3.97
  18   4  -3    1.01    8.00
  19   3  -5   -3.13    8.24
  23   1  -6   -7.72    9.28
  10   0  -6    1.97    4.88
  13   3  -5   -6.00    7.48
  14   0  -7    5.09    4.20
  15   1  -7    0.84    5.68
  15   5  -1   10.32    8.28
  17   1  -7    3.87    6.39
  19   1  -7    2.34    7.27
  20   0  -7    3.04    2.29
  22   2  -6   -1.87    9.08
   5   3  -2   13.55    5.60
   7   5   1    2.66    7.32
   8   4  -2    7.14    5.78
   9   3  -4   -1.61    6.48
   9   5   0    1.48    6.63
  11  -1  -6    5.64    3.61
  12   2  -6   -5.40    5.78
  13   1  -7   56.24    5.98
  16   4  -4    2.30    8.93
  18   4  -4    3.69    9.34
  21   1  -7    3.19    7.44
   2   4   2   11.39    4.01
   6   4  -1   -3.36    6.14
   7   1  -5    8.83    4.09
   8   2  -5    5.33    5.36
  10   4  -3   -2.13    7.42
  11   5  -1    0.55    8.19
  12   6   2    2.33    8.03
  14   4  -4   -0.37    8.05
  15   3  -6   -1.82    7.74
  15   5  -2   -2.40    8.80
  17   3  -6   -4.56    7.18
  19   3  -6    2.52    8.59
  21   3  -6    4.02    8.31
  23   1  -7    3.63    9.67
   3   3  -1   36.69    4.58
   4   4   0    2.05    4.68
   5   1  -4  488.88    6.47
   9   1  -6   13.85    5.88
  10   2  -6   -3.03    6.30
  13   3  -6   -0.42    7.57
  13   5  -2  -10.07    8.04
  14   6   1   -1.92    7.99
  16   0  -8    1.37    3.85
  16   4  -5    0.24    8.20
  18   0  -8    2.69    2.47
  19   1  -8   -6.78    8.09
  20   0  -8   -0.64    1.41
  21   1  -8  -11.23    9.71
  22   2  -7    0.84    7.62
   7   5   0    6.53    7.58
   9   5  -1   -2.35    7.13
  11   5  -2    8.71    8.07
  12   2  -7    8.25    6.44
  12   6   1    3.26    8.02
  13  -1  -7   58.85    4.56
  14   4  -5   -5.06    8.26
  15   1  -8   -1.25    5.29
  15   5  -3    1.94    8.81
  17   3  -7    0.60    7.05
  18   2  -8    4.43    7.19
  19   3  -7   -4.70    8.89
  20   2  -8   -2.32    8.43
  23   1  -8   -0.38   10.75
   6   4  -2    3.29    6.70
   8   4  -3   59.67    7.40
  10   4  -4    6.75    7.82
  11   3  -6    2.37    7.37
  14   0  -8    5.82    4.55
  14   6   0   -6.33    8.30
  18   4  -6    5.83    8.62
  21   3  -7   -1.51    9.29
  22   2  -8   -0.72    8.41
   5   5   1    2.40    5.71
   8   0  -6    5.81    3.78
  10   0  -7   54.12    5.29
  12   4  -5   -4.78    7.64
  12   6   0    8.10    7.92
  13   1  -8   23.61    5.14
  13   3  -7   22.98    7.10
  14   2  -8    2.98    6.79
  15   5  -4   -1.85    8.36
  16   4  -6   -2.58    9.44
  17   1  -9   -0.53    7.31
  21   1  -9    8.29   10.72
   4   4  -1    4.14    5.38
   9   5  -2    1.08    7.67
  10   2  -7   37.83    6.94
  11   5  -3    7.88    8.61
  14   4  -6    2.02    8.22
  14   6  -1   -0.50    8.39
  17   3  -8    2.57    7.86
  18   0  -9   -4.25    4.13
  18   2  -9   -5.10    7.33
  20   2  -9    0.45    7.94
  23   1  -9    5.84   10.02
   1   3   0    1.07    3.93
   8   4  -4   14.18    7.28
   9   1  -7   54.07    6.38
  11  -1  -7    8.95    3.60
  12   0  -8   26.60    5.22
  12   2  -8   14.62    6.83
  12   4  -6   -0.90    7.22
  12   6  -1    8.01    8.39
  13   5  -4   -4.06    7.68
  15   1  -9    3.06    5.88
  16   4  -7   10.19    8.48
  18   4  -7    1.60    9.59
  22   2  -9    4.55    7.55
   3   3  -2   15.48    5.07
   5   5   0    3.50    5.80
   6   4  -3    1.41    6.36
   7   3  -5   -0.44    6.02
   9   5  -3    7.97    8.51
  11   3  -7    6.85    7.28
  11   5  -4    3.56    9.31
  14   0  -9    8.58    5.54
  14   2  -9    9.52    6.78
  14   4  -7   -4.28    7.62
  14   6  -2   -0.65    9.07
  15   5  -5   -5.36    8.74
  19   1 -10    7.10    9.55
  19   3  -9   -0.12    7.92
  21   1 -10    0.99    9.16
   5   1  -5   81.48    4.53
   7   5  -2   -3.51    7.56
  10   6  -1    3.53    8.68
  12   6  -2   -6.24    8.76
  13  -1  -8   20.70    4.19
  13   1  -9    1.45    5.96
  13   3  -8   -0.89    6.26
  13   5  -5    1.21    9.18
  17   1 -10    8.81    8.96
  17   3  -9   -5.11    8.16
  18   0 -10    2.56    6.73
  18   4  -8    1.54    9.50
  22   2 -10   -0.63    8.59
  23   1 -10  -12.17    7.88
   2   4   0    0.51    4.51
   4   4  -2    3.93    5.57
   8   2  -7   -1.46    6.10
   8   4  -5   -1.86    6.63
  10   2  -8   47.56    7.59
  15   5  -6    0.76    9.60
   5   5  -1   -2.92    6.35
   9   3  -7   21.05    6.88
   9   5  -4    7.04    8.02
  10   0  -8   83.29    5.71
  10   6  -2    9.59    9.40
  11   5  -5  -11.03    9.36
  12   2  -9    7.91    7.22
  14   4  -8    4.23    7.75
  17   3 -10   -7.12    9.61
  19   1 -11   -0.82    7.79
  21   1 -11   -4.19    6.10
   6   2  -6   16.85    5.56
   6   4  -4   16.74    6.82
   7   3  -6    3.18    6.48
   7   5  -3    2.33    7.40
   8   0  -7    7.49    4.01
  12   0  -9    4.89    5.18
  13   3  -9    1.24    7.32
  14   2 -10    3.62    7.85
  16   4  -9   -7.17    8.84
  17   1 -11   -1.42    5.99
  18   2 -11    4.71    7.46
  18   4  -9   -5.16    8.75
  20   2 -11    4.62    7.87
  22   2 -11   -0.76    8.39
  23   1 -11    1.08    4.25
   3   3  -3   33.35    5.47
   7   1  -7   10.90    5.16
  11  -1  -8    6.61    4.46
  12   4  -8   -1.68    8.46
  12   6  -4    5.96    9.12
  13   1 -10    8.75    6.64
  15   3 -10    5.10    8.72
  16   2 -11   -2.25    7.73
  18   0 -11    5.76    7.31
   2   4  -1    0.71    5.60
   4   4  -3    0.18    6.16
   5   5  -2   -1.04    6.23
   8   4  -6   -1.15    6.95
   9   3  -8   -4.62    6.59
   9   5  -5    7.68    8.49
  10   6  -3  -13.96   10.32
  11   3  -9    2.45    8.04
  11   5  -6   -3.31    8.41
  13  -1  -9    1.34    4.98
  13   5  -7    2.33    9.24
  14   4  -9   -3.17    8.07
  15   1 -11    7.05    6.35
  17   3 -11    0.08    9.13
  18   4 -10   -8.46   10.12
  20   2 -12   -1.58    7.66
  21   1 -12    2.10    3.49
   3   1  -4   67.63    3.06
   6   4  -5   11.93    7.05
   7   5  -4   -6.93    8.25
   8   2  -8    4.71    6.56
  13   3 -10   -2.37    7.60
  16   0 -11    0.53    6.39
  16   4 -10    1.19    9.76
  18   2 -12    4.68    6.31
  19   1 -12    3.56    4.71
   5   1  -6   -3.55    4.59
   7   3  -7    2.68    5.17
  10   0  -9   49.98    6.20
  10   6  -4    4.73    9.50
  11   5  -7    3.53    8.60
  12   4  -9   -2.64    8.91
  12   6  -5    5.72    8.51
  13   5  -8    8.90    9.68
  14   4 -10    1.64    8.31
  15   3 -11    5.71    7.34
  16   2 -12    7.07    6.81
  17   1 -12    2.21    6.01
   0   4   1    4.03    4.55
   3   3  -4   18.81    5.25
   5   5  -3    9.44    6.67
   6   2  -7   -3.13    4.42
   8   4  -7   -6.68    8.09
  11   3 -10   14.81    7.14
  15   1 -12   20.20    8.31
  16   4 -11   -2.55    8.86
  17   3 -12   -1.95    9.30
  20   2 -13    2.67    7.46
  21   1 -13    2.99    4.60
   4   4  -4    5.18    6.22
   6   4  -6    3.88    6.66
   7   1  -8   70.66    5.87
   8   0  -8   25.62    4.42
   9   3  -9   -0.68    7.89
  10   2 -10   -1.62    6.91
  10   6  -5    2.20    8.91
  12   2 -11    4.20    8.04
  12   6  -6   -5.86    8.97
  13   3 -11    0.84    7.89
  18   2 -13    0.17    6.68
  19   1 -13    2.99    6.19
   1   3  -2   67.40    4.83
   7   3  -8   20.45    7.22
   8   2  -9    9.27    6.60
   8   6  -4    8.05    9.11
   9   5  -7   -0.74    8.88
  10   4  -9    8.97    8.31
  11   5  -8    1.70    8.68
  12   4 -10   -7.10    8.54
  13   5  -9   -2.92   10.44
  14   4 -11    2.54   10.15
  16   0 -12    4.56    6.79
  17   1 -13   -3.00    6.91
   4   2  -6    0.80    4.92
  11  -1  -9    4.84    3.97
  11   1 -11    2.28    6.96
  12   6  -7    2.69    9.07
  13  -1 -10    3.25    3.97
  13   1 -12    0.34    7.00
  16   4 -12    3.99    9.81
  17   3 -13    3.90    8.53
  20   2 -14    2.82    8.72
  21   1 -14    2.34    6.14
   3   5  -2    5.33    6.15
   4   4  -5    7.39    6.24
   6   2  -8   29.79    6.42
   7   5  -6    1.40    8.46
   9   3 -10    2.16    7.92
  10   0 -10    1.84    5.44
  10   2 -11    4.54    7.25
  10   6  -6   -4.35    8.89
  11   3 -11    8.81    7.64
  12   2 -12    2.42    7.90
  12   4 -11   -2.86    8.11
  13   3 -12    1.00    8.04
  14   0 -12    3.87    5.88
  15   1 -13    5.21    7.27
  18   2 -14    3.14    8.37
  19   1 -14   -0.17    7.58
   3   1  -5   42.69    4.09
   3   3  -5   10.41    6.16
   6   4  -7   -1.30    7.03
   8   6  -5   -5.27    9.05
  10   4 -10   -3.96    8.41
  14   4 -12    3.84    9.26
  16   0 -13    5.54    7.67
  16   2 -14    0.61    7.46
  16   4 -13    2.16    9.56
  17   1 -14    7.20    7.79
  17   3 -14    8.05   10.07
   5   5  -5    6.20    7.94
   7   1  -9   87.75    6.91
   7   5  -7    4.35    9.36
   8   2 -10   28.90    6.97
  10   6  -7    3.30    9.70
  21   1 -15    1.16    7.26
   3   5  -3    1.15    6.14
   8   6  -6    3.89    9.49
  11   1 -12    4.47    6.77
  11   5 -10   -7.16    9.14
  12   2 -13   20.19    9.29
  12   4 -12    5.11    8.76
  12   6  -9    4.91   10.41
  13   1 -13    4.37    7.08
  13   3 -13    2.78    8.84
  15   1 -14   -4.43    7.28
  15   3 -14    8.21    9.69
  18   2 -15    4.32    8.86
  19   1 -15    3.12    8.48
   4   2  -7   23.53    5.20
   4   4  -6    4.03    6.68
   6   4  -8    2.23    7.65
  10   2 -12    3.19    8.06
  10   4 -11   -3.04    8.26
  10   6  -8    3.00    9.95
  12   0 -12    3.23    5.93
  16   2 -15   -1.87    8.81
  16   4 -14    3.33   10.36
  17   1 -15    4.31    9.10
  20   2 -16    0.38    9.32
   2   2  -5  320.22    6.70
   2   4  -4   29.72    5.88
   3   3  -6   53.97    7.33
   5   5  -6    0.90    7.86
   7   3 -10   36.26    8.10
   7   5  -8   -1.93    9.40
   8   2 -11   -5.09    7.26
  13   3 -14    4.08    8.57
  16   0 -14   -1.27    7.78
   3   5  -4   -4.15    6.51
   6   0  -8   47.05    4.10
   9   5 -10    5.49    9.94
  10   4 -12   -0.42    9.32
  10   6  -9    1.31    8.20
  12   4 -13    8.15    9.19
  13   1 -14   -1.02    7.12
  15   3 -15   -2.42   10.25
  18   2 -16   -2.37    7.55
  19   1 -16   -3.15    9.45
   3   1  -6  184.17    5.45
   4   4  -7    4.70    7.34
   6   4  -9    0.08    7.86
   8   0 -10   40.06    6.36
  10   2 -13   -1.87    8.81
  11   1 -13    0.68    7.00
   5   3  -9   21.99    7.65
   7   3 -11   15.30    8.08
   7   5  -9    2.31    9.38
   8   6  -8    2.79   10.71
   9   5 -11    2.38   10.46
  11   3 -14    5.65    8.45
  11   5 -12   -1.01    9.34
  12   0 -13   32.86    6.22
  12   4 -14    4.16    9.65
  14   0 -14    1.32    6.70
  14   4 -15    0.63   10.44
  15   3 -16    8.10   10.05
  17   1 -16    0.97    8.04
  18   2 -17   -1.41    7.75
  -1   3  -1    0.34    4.29
   0   4  -2    0.44    4.10
   2   4  -5   76.26    6.80
   3   5  -5    1.97    6.67
   8   2 -12    3.97    8.02
   9   3 -13    5.00    8.23
  10   0 -12    8.79    6.28
  10   4 -13    3.47    9.36
  10   6 -10   -3.16    8.49
  16   0 -15   -6.12    8.26
  19   1 -17    1.04    9.52
   4   4  -8    6.16    7.40
   5   1  -9   70.33    5.85
   5   5  -8   -2.60    9.12
   6   4 -10   -6.06    7.98
   6   6  -7   -2.40    9.05
   7   1 -11   46.07    6.60
   8   4 -12   -6.68    9.03
   8   6  -9    6.84   10.22
  10   2 -14   -0.55    8.49
  11  -1 -11    0.83    4.04
  11   1 -14   -1.20    6.97
  11   5 -13   -9.96   10.41
  15   1 -16    0.28    8.35
  16   2 -17   -4.18    9.52
   3   5  -6    9.47    8.49
   9   5 -12   -5.04    9.44
  11   3 -15   -3.67    9.40
  12   4 -15   -5.60   10.29
  13   3 -16   -5.44    9.72
  14   4 -16   -1.49   10.48
  15   3 -17   -3.13   10.46
  17   1 -17    5.97    9.29
  18   2 -18   -2.32    8.45
   0   4  -3    0.11    5.12
   2   4  -6    3.46    6.54
   4   2  -9    7.61    7.16
   6   6  -8    2.62    9.05
   8   6 -10   -4.77   10.74
   9   3 -14   12.25    8.14
  10   4 -14    2.58    8.17
  12   0 -14    6.56    6.07
  14   0 -15   -1.29    6.97
  14   2 -17    4.39   10.34
  19   1 -18   -0.77    8.82
   5   5  -9   -0.98    8.62
   7   5 -11   -0.56    9.46
   8   4 -13    2.65    9.04
   9  -1 -10   11.16    3.86
   9   5 -13   -0.57    9.01
  10   6 -12   -0.75   10.26
  13   1 -16    2.42    8.09
  14   4 -17    9.26   10.12
  15   1 -17    3.05    8.90
  16   2 -18   -1.96    9.20
   3   5  -7    1.37    7.60
   5   1 -10   11.49    5.66
   5   3 -11    8.13    7.56
   6   6  -9   -0.56   10.51
   7   1 -12   -5.39    6.37
   7   3 -13   -6.15    8.10
   8   6 -11    2.20   10.78
  10   2 -15    9.56    8.05
  10   4 -15   -6.60    9.69
  11   3 -16   -0.54    8.64
  13   3 -17   -4.84    9.22
  18   2 -19    2.57    8.59
   1   3  -6   37.32    6.25
   2   4  -7    2.00    6.83
   4   2 -10  169.75    8.81
   6   2 -12   -0.94    7.26
   7   5 -12   -4.39    9.92
   8   2 -14   -2.12    7.78
   8   4 -14    2.03    8.94
   9   1 -14   42.90    7.55
   9   3 -15    1.99    8.46
  11  -1 -12    6.64    4.38
  14   0 -16   -1.79    7.47
  14   2 -18    6.55    8.07
   0   4  -4    5.28    4.54
   4   4 -10   42.68    8.64
   6   0 -10    5.90    4.54
   8   0 -12   11.21    5.61
   9   5 -14    6.02    9.89
  12   0 -15    5.43    6.19
  12   4 -17   -3.47   10.68
  13   1 -17   -4.87    8.00
  13   3 -18    3.98   10.19
  15   1 -18   -4.79    9.14
  16   2 -19    4.13    8.62
  17   1 -19   -3.57    9.97
   3   1  -8    0.22    3.34
   3   5  -8   -1.60    8.17
   5   3 -12   11.73    7.85
   6   6 -10   -1.13   10.79
   7   3 -14    6.99    7.93
   8   6 -12    6.55    8.65
  10   0 -14    5.70    6.31
  10   4 -16    0.62    9.18
  11   1 -16    1.45    7.71
  -1   3  -3    5.39    4.27
   1   1  -5   19.44    2.57
   1   3  -7   31.78    7.07
   2   2  -8   61.23    6.30
   4   4 -11    4.76    8.40
   8   2 -15    3.40    8.46
   8   4 -15   -3.84    8.98
   9  -1 -11    4.51    3.78
   9   1 -15   -2.74    6.45
   9   3 -16   10.45    8.84
   9   5 -15    0.44   10.12
  12   2 -18    0.67    8.49
  12   4 -18   -9.67   10.48
  14   2 -19   -6.68    9.61
  16   2 -20   -4.17    9.10
   0   4  -5   10.05    4.78
   3   5  -9    6.22    8.21
   8   6 -13  -10.27    9.86
  10   2 -17    4.74    8.02
  10   4 -17    0.25    9.97
  11  -1 -13    3.88    4.36
  11   3 -18   10.46    9.58
  12   0 -16   -1.23    6.55
  13   3 -19   -3.85    9.43
  14   0 -17    3.74    7.28
  15   1 -19    2.39    8.98
  17   1 -20   -5.06    9.57
   1   5  -6    2.07    6.12
   5   3 -13    5.15    8.04
   5   5 -12    4.00    9.55
   7   3 -15    3.33    7.84
   7   5 -14   -0.10    9.62
   8   4 -16    4.21    8.33
   9   3 -17   -3.35    8.28
   9   5 -16   -2.40   10.77
  11   1 -17   -3.22    7.70
   3   1  -9   22.84    3.79
   3   3 -11   -2.56    7.13
   6   0 -11    8.90    5.50
   6   6 -12   -1.16    9.67
   8   2 -16   -1.68    7.97
   8   6 -14   -5.80    9.86
   9   1 -16    9.11    6.74
  10   0 -15   13.58    6.00
  10   4 -18   -1.63    9.08
  13   3 -20    2.83   11.32
  14   2 -20   -0.68    9.08
  16   2 -21    2.70    8.65
   6   0   7   58.81    5.74
   6   0  11   -0.58    5.85
   9  -1  -2    2.29    4.18
   9  -1  18   -4.42    7.67
  12  -2  19    0.75    9.38
  14  -2  -1   22.74    6.78
  14  -2  15   10.70   10.16
  17  -3  -1    7.19    8.18
   6   0   5   50.01    5.08
   6   0  13    3.49    6.34
   7  -1  21    0.21    7.90
   9  -1  19    6.29    8.63
  11  -1  15    1.85    8.57
  14  -2  -2   54.85    6.64
  16  -2   7   -9.19    9.29
  16  -2   8    2.77    8.63
  16  -2   9    2.97    8.44
  17  -3  -2    1.39    7.63
   4   0  17   -0.48    4.95
  11  -1   0    9.41    6.08
  11  -1  16   -2.75    7.46
  13  -1   7   -2.27    8.08
  13  -1   8   10.47    7.95
  13  -1   9    9.71    8.19
  16  -2   3    2.85    8.71
  16  -2   4    0.46    7.53
  16  -2  10   12.39    9.45
  16  -2  11   -1.63   10.48
  16  -2  12    3.25    9.94
   4   0  18    2.12    5.56
   6   0   3    8.02    4.01
   6   0  15    1.80    6.36
   9  -1  -3   23.64    3.85
   9  -1  20   -3.04    8.79
  11  -1  17   -0.16    8.14
  13  -1   4    9.11    7.49
  13  -1   5   -4.68    7.42
  13  -1   6   -1.50    5.35
  13  -1  10   14.49    7.94
  13  -1  11    5.40    8.85
  13  -1  12   -3.48    8.28
  14  -2  -3    2.13    5.15
  16  -2   1    8.19    7.80
  16  -2   2   -1.43    7.15
  16  -2  13   -1.90   10.28
  19  -3   3    0.64    9.00
  19  -3   4    4.22    8.43
  19  -3   5    1.08    8.55
  19  -3   6    1.50    8.62
  19  -3   7    5.21    9.03
   8   0   8   26.36    6.86
   8   0   9   21.49    6.60
   8   0  12   -0.78    6.72
   9  -1  21    0.97    9.04
  11  -1  -1   -1.18    5.42
  11  -1  18    0.14    7.73
  13  -1  13    0.11    8.89
  16  -2   0    7.58    6.98
  16  -2  14    3.41    9.68
  19  -3   1   -5.55    8.88
  19  -3   2   -6.22    8.67
   6   0   2  345.90    6.31
   6   0  17    0.73    5.43
   8   0   5    1.42    5.17
   8   0   6    3.17    4.28
   8   0  13   70.16    7.62
  11  -1  19   -2.18    8.01
  14  -2  -4   -1.43    4.65
  16  -2  -1   -2.34    6.92
  19  -3   0   -5.78    8.19
   8   0   4   82.02    5.76
  11  -1  -2  213.17    6.97
  11  -1  20   -3.25    7.67
  13  -1   1   -1.37    6.34
  13  -1  16    1.57    8.35
  18  -2   5    3.48    7.86
  18  -2   6    3.00    8.30
  18  -2   8    5.71    9.48
  18  -2   9    5.67    9.18
  18  -2  10   -4.31   10.21
  18  -2  11   -2.15    9.41
   6   0  19    2.69    6.88
   8   0   3   15.34    4.79
  10   0   9   31.90    6.96
  10   0  10   -9.57    6.56
  11  -1  21    5.91    7.77
  13  -1  17    2.59    8.10
  14  -2  -5   -0.54    4.45
  15  -1   5    8.62    7.49
  15  -1   7    4.81    7.78
  15  -1   8    3.26    7.91
  15  -1   9    3.16    8.71
  15  -1  10   -1.14    8.06
  15  -1  11   -2.76    7.80
  15  -1  12    2.42    8.18
  16  -2  -2    3.03    6.08
  18  -2   3    0.76    8.22
  18  -2   4    7.75    7.91
   6   0   1  358.08    5.77
   8   0  17    2.89    6.76
  10   0   6   13.45    6.18
  10   0   7   13.22    6.88
  10   0   8   45.67    5.34
  10   0  13   -2.15    7.42
  11  -1  -3   62.55    5.18
  13  -1  18    0.81    7.25
  15  -1  13  -11.91    9.33
  15  -1  14    5.83    8.56
  16  -2  -3   -1.39    5.28
  18  -2   1    0.94    6.80
  18  -2   2    3.57    7.42
  21  -3   3   -4.78    6.99
   8   0  18   -0.81    5.97
  10   0   5   26.03    6.32
  10   0  14   11.31    7.20
  10   0  15    4.49    7.09
  13  -1  19   -0.49    7.05
  15  -1   2   -0.04    6.15
  18  -2   0    4.25    6.32
  21  -3   1   -1.68    8.06
  21  -3   2   -3.38    7.95
   8   0  19   -0.62    6.01
  10   0   4   14.16    6.00
  10   0  16    8.67    7.61
  15  -1   1   -2.68    6.45
  15  -1  17   -0.75    7.34
  16  -2  -4   -3.94    5.03
  18  -2  -1   -1.82    7.18
  20  -2   7    2.61    8.26
   6   0   0   12.16    3.02
   8   0   1   57.35    4.19
   8   0  20    0.27    6.06
  10   0   3    4.25    5.63
  10   0  17    4.00    6.97
  11  -1  -4    3.24    4.60
  12   0   7   -0.58    6.83
  12   0   8    9.44    6.59
  12   0   9   -8.83    7.62
  12   0  10    2.60    7.13
  12   0  11   11.74    7.55
  13  -1  -2    2.41    4.99
  17  -1   6    9.65    8.19
  17  -1   7    4.22    7.48
  17  -1   8   -1.75    7.35
  17  -1   9  -10.77    8.44
  17  -1  10   -2.96    9.04
  17  -1  11    7.40    9.28
  17  -1  12   -1.39    8.26
  20  -2   4    3.33    8.14
  20  -2   5    5.09    8.03
  20  -2   6   -0.22    8.12
  10   0   2    6.91    4.77
  10   0  18    1.36    6.52
  12   0   5   15.85    6.37
  12   0   6   -0.17    6.64
  12   0  14    6.12    7.58
  12   0  15    2.14    7.64
  17  -1  13    4.06    8.59
  18  -2  -2    2.27    6.29
  20  -2   2    0.90    6.52
  20  -2   3    1.54    7.92
  10   0  19   -0.62    6.36
  12   0   4   16.76    6.14
  12   0  16   -0.71    8.00
  13  -1  -3    5.39    4.28
  15  -1  -1   -1.77    5.37
  17  -1   3    2.51    7.01
  18  -2  -3    0.94    6.64
  20  -2   1    2.28    7.58
   8   0   0   32.76    3.56
  10   0   1    7.00    4.62
  10   0  20    0.95    7.33
  12   0   3   99.27    7.01
  12   0  17    5.35    7.55
  12   0  18    4.13    7.03
  14   0   8   -8.15    6.48
  14   0   9   11.04    7.08
  14   0  10   -1.84    7.27
  14   0  11   -2.69    7.55
  14   0  12   -5.82    7.52
  17  -1   2   -8.92    6.57
  20  -2   0    5.03    7.52
  11  -1  -5    1.91    3.46
  12   0  19   -0.27    6.24
  13  -1  -4    0.15    4.53
  14   0   6   -2.18    7.20
  14   0   7   -6.38    6.56
  14   0  15   -3.87    7.48
  15  -1  -2   -2.00    4.99
  17  -1   1    1.41    6.05
  19  -1   7    7.29    7.86
  19  -1   8    0.99    8.84
  19  -1   9    8.73    8.23
  19  -1  10    4.48    9.02
  20  -2  -1   -4.01    6.70
   3   1  13    2.25    4.47
  12   0   2    6.86    5.02
  12   0  20   -0.37    6.91
  14   0   5    7.26    7.33
  14   0  16   -0.57    8.47
  17  -1   0   10.05    6.56
  19  -1   4    4.03    6.93
  22  -2   3   -0.04    7.44
   1   1  12   -1.34    3.73
   1   1  13   29.28    3.76
   1   1  14    5.80    3.76
   3   1  14    4.29    3.78
   3   1  15   -0.55    3.82
   5   1  11   -0.82    4.33
   5   1  14    7.37    4.97
   5   1  15    5.83    5.12
   9  -1  -6    7.06    2.65
  12   0   1   10.90    5.29
  12   0  21    1.40    6.84
  14   0   4    2.84    6.37
  14   0  17   -1.53    7.34
  14   0  18    2.32    6.27
  15  -1  -3    6.42    4.52
  16   0   9   -4.73    6.90
  16   0  10    5.51    6.94
  16   0  11    5.90    6.93
  17  -1  -1   19.97    6.28
  19  -1   3   -2.36    6.89
  22  -2   2    0.02    6.76
   1   1  11   -4.75    3.08
   3   1   9    2.16    3.19
   5   1  16   -0.09    4.71
   7   1  11   -2.98    5.10
   7   1  12   -0.55    5.43
   7   1  13   -1.87    5.23
   7   1  14   -0.73    5.29
  14   0   3    1.12    4.22
  14   0  19   -6.67    7.18
  16   0   6   -2.14    6.37
  16   0   7   -2.70    7.20
  16   0   8    7.44    7.17
  16   0  12   -8.18    7.38
  16   0  13    7.97    8.12
  19  -1   2    5.04    6.29
  22  -2   1   -5.44    7.09
   5   1   8   -1.34    3.92
   5   1  17   -1.40    5.63
   7   1  15   13.02    5.50
   7   1  16   -0.65    5.72
   9   1  12    9.55    5.17
  13  -1  -5   -1.31    3.42
  15  -1  -4    4.22    4.12
  16   0   5    5.54    6.36
  16   0  16   -4.23    8.10
  17  -1  -2    0.68    5.61
  21  -1   6    6.17    8.18
  22  -2   0   -2.98    6.19
   1   1   9   30.51    3.18
   7   1   7   29.14    4.62
   7   1  17   -1.71    6.00
   7   1  18   -3.55    7.00
   9   1  11   12.11    5.44
   9   1  13    4.07    5.24
   9   1  14   -3.81    6.20
   9   1  15    2.62    6.53
   9   1  16   -3.16    6.93
  16   0   4    4.28    6.37
  19  -1   0    2.08    6.47
  21  -1   4   -4.86    7.52
  21  -1   5   -0.78    7.08
   9   1  17   -0.92    6.04
  11   1  12    3.92    6.66
  11   1  13    6.51    6.62
  11   1  14   10.11    7.53
  12   0  -1   -2.07    4.70
  17  -1  -3    1.39    5.17
  18   0   7    3.30    6.84
  18   0   8    3.45    8.16
  18   0   9   -1.43    7.36
  18   0  10   -3.86    7.68
  18   0  11    0.64    7.57
  18   0  12    1.18    7.89
  18   0  13   -4.58    9.01
  19  -1  -1    2.90    6.07
  21  -1   2    1.58    7.20
  21  -1   3    4.67    7.29
   5   1   6    4.04    3.29
   9   1  18    7.77    6.36
   9   1  19   -2.59    6.94
  11   1   8    5.79    6.25
  11   1   9   -0.97    5.79
  11   1  15    1.00    6.68
  11   1  16    1.60    7.15
  14   0   0    2.96    5.14
  15  -1  -5    5.39    3.72
  18   0   5    6.05    7.01
  18   0   6    1.68    6.25
  19  -1  -2   -0.05    6.13
  21  -1   1    2.70    7.23
  11   1   7    5.49    5.47
  11   1  17   -4.73    7.30
  11   1  18    1.30    6.51
  13   1  10   11.42    6.35
  13   1  13   -7.62    7.19
  13   1  14    0.69    7.76
  14   0  -1   25.97    6.42
  16   0   1   19.28    6.28
  17  -1  -4    4.52    4.52
  21  -1   0    0.83    7.20
   9   1   5    1.88    4.91
  11   1   6    8.24    5.31
  11   1  19    4.17    7.74
  12   0  -2    4.55    4.71
  13   1   8    7.05    5.85
  13   1   9    6.96    6.93
  13   1  15    0.76    6.88
  13   1  16    2.61    7.49
  16   0   0    2.65    5.62
  19  -1  -3   -0.66    5.75
  20   0   7   -0.01    7.03
  20   0   8   -2.90    7.98
  20   0   9    0.91    8.36
   9   1   4    9.63    4.96
  11   1   5   30.60    5.92
  13   1   7    3.36    6.30
  13   1  17    3.09    6.58
  13   1  18   -0.70    7.37
  15  -1  -6    2.16    4.44
  15   1  11    2.59    6.31
  17  -1  -5   -2.24    4.36
  18   0   2    2.35    5.90
  21  -1  -1    2.15    6.76
  23  -1   2   -1.98    6.89
   5   1   4    2.44    3.37
  11   1   4   14.20    5.72
  12   0  -3    2.13    4.82
  13   1   5    5.29    5.75
  13   1  19    0.04    6.93
  14   0  -2   83.47    6.03
  15   1   8   -0.75    6.76
  15   1  10   -1.37    6.53
  15   1  14    2.88    6.96
  15   1  15    3.64    7.47
  15   1  16   -1.76    8.01
  16   0  -1   -3.20    5.52
  18   0   1   -1.45    6.34
  19  -1  -4    0.74    5.59
  21  -1  -2    1.46    6.45
  23  -1   1    5.67    6.55
   7   1   3   28.49    3.87
   9   1   3   83.12    5.70
  11   1   3    9.47    5.01
  13   1   4    8.17    5.84
  13   1  20    0.61    5.53
  15   1   6   -2.81    6.27
  15   1   7    2.24    6.15
  15   1  17   -3.10    7.42
  18   0   0    0.87    5.86
  20   0   3   -2.57    6.93
  23  -1   0    4.53    6.55
  14   0  -3    3.48    4.62
  15   1   5   11.98    6.02
  16   0  -2    3.93    5.34
  17   1   8   -1.81    6.43
  17   1   9  -10.66    7.84
  17   1  10   -1.57    7.74
  17   1  11    4.24    7.12
  17   1  14    1.67    7.99
  20   0   2    1.19    6.08
  21  -1  -3   -3.90    6.43
  22   0   5   -1.42    6.78
  23  -1  -1    4.54    6.67
   5   1   3  347.94    5.43
  10   0  -4    1.32    3.63
  11   1   2    4.01    4.94
  13   1   3   -1.12    5.14
  15   1   4    7.60    6.52
  17   1   6    5.32    6.59
  17   1   7    8.69    6.36
  20   0   1    0.24    6.35
  22   0   4    0.45    7.29
   3   1   4   16.41    2.29
   7   1   2    5.03    3.28
  12   0  -4   21.45    4.03
  13   1   2    5.16    5.31
  15   1   3   16.49    6.34
  16   0  -3   -1.09    4.86
  17   1   5    0.71    6.87
  18   0  -2    4.05    5.95
  19   1   9    6.60    7.11
  19   1  10   -3.91    8.35
  20   0   0    6.86    6.80
  22   0   3    5.87    7.17
  11   1   1    5.39    5.07
  14   0  -4    3.49    4.37
  15   1   2   -1.22    5.92
  17   1   4    2.00    6.38
  19   1   7    0.43    7.63
  19   1   8    4.37    7.77
  20   0  -1   -7.75    6.68
  22   0   2   -0.02    6.56
  13   1   1   -1.01    5.12
  16   0  -4    4.34    4.96
  17   1   3    7.28    6.08
  18   0  -3    1.06    5.78
  19   1   5    2.63    6.81
  19   1   6   -2.08    6.71
  22   0   1    3.24    5.79
   8   2  12    2.23    4.66
   8   2  14    3.09    5.53
   8   2  15   -0.94    5.74
   8   2  16   -0.93    5.94
  10   2  12   -6.66    6.07
  10   2  13   -1.95    6.16
  10   2  14   -2.58    5.98
  10   2  15   -0.61    5.85
  10   2  16   -3.91    6.71
  15   1   1    5.39    6.04
  19   1   4   -1.02    6.47
  20   0  -2    3.24    6.00
   6   2  12   13.37    4.85
   6   2  13    2.08    4.25
   6   2  14    3.28    4.26
   6   2  15    2.30    4.54
   6   2  16   -3.27    4.55
   8   2  10    0.89    5.02
   8   2  11   -0.92    4.84
   8   2  17   -2.75    5.40
   9   1   0    8.29    3.88
  10   0  -5    1.13    2.96
  10   2  10    2.85    5.35
  10   2  11    1.38    5.60
  10   2  17    2.87    5.93
  12   0  -5    5.72    3.77
  12   2  11    3.40    6.26
  12   2  12   -0.94    6.44
  12   2  13   -0.44    6.18
  12   2  14    6.62    6.24
  12   2  15   -8.37    6.71
  12   2  16    4.40    6.89
  12   2  17   -4.44    6.86
  13   1   0   21.80    5.20
  14   0  -5    3.34    3.94
  18   0  -4   -1.65    6.05
  22   0  -1   -0.55    6.50
   8   2   9    5.68    5.26
  10   2   9   23.75    5.53
  12   2   8    4.01    5.71
  12   2  18   -4.70    7.78
  14   2  12    1.54    6.22
  14   2  13    2.31    6.09
  14   2  14    3.96    6.26
  14   2  15    4.69    7.06
  14   2  16    2.90    6.79
  14   2  17   -4.01    6.19
  16   0  -5    6.00    4.20
  20   0  -3   -4.46    5.34
  22   0  -2   13.94    6.61
   4   2  13    2.97    3.77
   4   2  14    8.25    3.91
   5   1   1    1.54    2.83
   7   1   0   21.12    3.71
   8   2   8    7.23    5.03
  10   2   7    2.48    5.38
  11   1  -1    1.92    4.68
  12   2   7   -1.77    6.13
  14   2   8   -0.96    6.33
  14   2   9   10.58    6.15
  14   2  18    2.53    6.56
  15   1  -1    2.29    5.00
  16   2  10    3.89    6.64
  16   2  12   -3.35    7.62
  16   2  13   -2.05    7.44
  16   2  14   -5.12    7.34
  16   2  15   -1.34    7.30
  17   1   0    5.96    6.29
  19   1   1    1.04    6.61
  20   0  -4    0.31    5.73
   4   2  11    0.59    4.27
   4   2  12    1.25    3.77
   6   2   9    2.02    4.23
   8   0  -5    2.12    2.10
   9   1  -1    7.83    3.64
  12   2   6    6.55    6.04
  14   2   7   -3.57    6.22
  16   2   8    2.84    6.31
  16   2   9    0.34    6.62
  18   0  -5    2.90    5.09
  21   1   2   -4.86    7.38
  22   0  -3   -0.89    6.58
  24   0  -1    1.43    5.85
   4   2  10   -2.99    4.49
   6   2   8   45.05    5.03
   8   2   6   -2.98    4.28
  12   0  -6    2.40    3.26
  12   2   5    5.18    6.18
  13   1  -2   -1.88    4.88
  14   2   6    4.41    5.74
  15   1  -2   -0.10    5.88
  16   2   6   -0.73    6.34
  16   2   7   -3.75    6.19
  17   1  -1   18.73    5.90
  18   2   9    2.28    7.46
  18   2  10    0.49    8.07
  18   2  11    3.29    7.34
  19   1   0    4.06    5.95
  21   1   1    2.44    6.62
  24   0  -2   -1.25    5.57
  10   2   5   11.88    4.90
  14   2   5    7.88    6.04
  16   2   5    1.91    6.68
  17   1  -2    6.48    5.47
  18   0  -6   -3.78    5.02
  18   2   7    2.18    7.87
  18   2   8   -1.32    6.99
  19   1  -1    0.87    6.21
  20   0  -5   -0.76    5.17
  21   1   0   -4.52    6.93
  22   0  -4    1.76    6.76
   2   2  13    3.94    3.63
   7   1  -1   36.26    3.77
   8   2   5    3.03    4.83
  10   0  -6    3.34    2.90
  10   2   4   10.21    5.52
  12   2   4    1.58    4.40
  14   2   4    0.14    5.91
  16   2   4    0.93    6.57
  18   2   5   10.15    6.57
  18   2   6   -0.54    7.55
  23   1   1    3.45    7.27
   5   1   0    1.06    2.85
  12   2   3   59.34    6.34
  13   1  -3   -1.23    4.55
  14   0  -7    8.51    3.96
  14   2   3   -1.33    5.77
  15   1  -3    2.33    4.83
  16   2   3    5.11    5.83
  17   1  -3   -3.84    5.12
  18   2   4    6.05    5.97
  19   1  -2    0.57    5.89
  20   2   7   -2.28    6.71
  21   1  -1   -5.15    6.34
   2   2  11   25.60    4.03
   8   2   4   46.81    5.42
  11   1  -3   61.61    5.16
  14   2   2   -1.69    5.99
  16   0  -7   15.42    4.03
  18   2   3   -3.81    5.99
  20   2   5   -4.31    7.71
  21   1  -2    5.47    5.64
  23   1   0   -3.02    6.30
  12   0  -7   22.33    3.32
  12   2   2    0.04    5.10
  15   1  -4   -0.49    4.62
  16   2   2   -4.05    6.09
  18   2   2   -2.63    6.00
  19   1  -3   -1.93    5.53
  20   2   4    1.97    7.45
  23   1  -1    0.21    6.57
   7   1  -2   16.23    3.31
   8   2   3    8.14    5.02
  12   2   1    1.45    5.06
  13   1  -4   -1.29    4.61
  14   2   1    0.44    5.77
  16   2   1    5.49    5.98
  17   1  -4    1.07    5.52
  20   2   3    2.19    6.76
  23   1  -2   -4.39    5.67
   4   2   6   89.31    4.30
   6   2   4   -1.84    4.06
  11   3  12    2.51    5.90
  11   3  13    6.22    6.60
  11   3  14    8.42    6.81
  11   3  15   -7.62    6.87
  11   3  16    2.88    7.27
  13   3  11    0.86    6.12
  13   3  12    1.62    6.99
  13   3  13    5.56    7.22
  13   3  14   -3.98    6.93
  13   3  15    1.41    7.00
  13   3  16   -1.51    6.44
  13   3  17    3.62    6.51
  15   3  11    4.06    8.02
  15   3  12    4.46    6.86
  15   3  13    3.10    7.30
  15   3  14   -1.89    7.19
  15   3  15    2.08    7.05
  18   2   1    0.29    6.82
  19   1  -4   -0.68    5.46
   2   2   9    9.99    3.42
   5   1  -1    7.17    2.64
   9   3  12    0.61    6.76
   9   3  13    3.13    5.72
   9   3  15   -2.28    5.68
  10   2   1    5.17    5.05
  11   3  10   -0.87    6.51
  11   3  11   -0.74    6.17
  12   2   0    3.85    4.79
  13   3   9    4.94    6.83
  13   3  10    3.31    6.70
  14   0  -8   -1.02    3.14
  15   1  -5    0.16    4.74
  15   3  10   -0.03    7.36
  16   2   0    4.66    5.94
  17   1  -5   -4.80    5.43
  17   3  11   -9.63    7.66
  21   1  -4   -4.86    6.66
  23   1  -3    3.33    5.94
   9   3  10   -1.94    6.64
   9   3  11    9.60    5.75
  11   3   9    4.94    6.21
  13   1  -5    1.03    4.37
  15   3   7   -0.45    7.15
  15   3   8    0.01    6.42
  17   3   8    2.99    7.34
  17   3   9   -1.90    7.52
  19   1  -5    7.72    5.56
  20   2   0    5.52    6.68
  22   2   1   -4.38    7.32
  23   1  -4   -1.93    6.64
   2   2   8   12.31    3.23
   6   2   3    4.99    2.80
   7   3  13    1.05    4.96
   7   3  14   -3.79    5.36
  10   2   0   25.15    5.37
  11   3   8   -0.30    5.92
  12   0  -8   30.01    3.57
  13   3   7    1.75    6.04
  14   2  -1   15.50    5.77
  17   3   7    1.42    7.51
  18   2  -1   -0.41    6.56
  20   2  -1   -2.87    7.23
  21   1  -5    0.43    6.34
  22   2   0    6.35    6.42
   7   1  -3    5.18    3.36
   7   3  11    1.76    5.12
   8   2   1   28.61    4.99
   9   3   8   -2.36    5.74
  11   1  -5   -2.20    4.30
  12   2  -1    1.40    4.91
  13   3   6   -1.39    5.93
  15   1  -6    5.37    4.29
  15   3   5    5.07    6.79
  16   2  -2   -4.84    6.22
  17   1  -6    7.82    5.26
  17   3   5   -0.55    7.01
  17   3   6   -2.64    7.09
  18   2  -2   -2.68    6.04
  19   1  -6    9.21    5.48
  19   3   6   -7.53    8.03
   6   2   2  200.77    5.73
   7   3  10    4.53    5.02
   9   3   7    4.21    5.59
  11   3   6   -4.62    5.95
  13   3   5    5.24    5.82
  15   3   4   12.79    7.21
  19   3   5    0.58    7.55
  20   2  -2    0.17    6.38
  21   1  -6    0.88    5.57
  22   2  -1    8.36    6.83
   7   3   9    0.94    4.84
  10   2  -1    8.22    5.02
  12   2  -2    2.85    5.32
  13   1  -6    5.07    4.43
  13   3   4    5.60    6.12
  16   2  -3   -1.12    6.12
  17   3   3    7.66    6.59
  18   2  -3    6.53    5.98
  19   3   4   -1.26    8.04
  22   2  -2   -1.27    6.90
   0   2  11   21.83    3.42
   5   1  -2   71.27    3.19
   5   3  11   -4.15    5.09
   7   3   8   42.45    6.05
  11   3   4    6.91    6.68
  13   3   3    5.21    6.43
  14   2  -3    0.91    5.52
  15   1  -7    5.72    4.49
  17   3   2   -5.17    6.35
  19   1  -7   -1.95    5.48
  19   3   3   -6.73    7.79
  20   2  -3    2.39    6.64
   2   2   6   48.02    3.81
   5   3  10    5.09    5.16
   6   2   1  239.26    6.00
   9   3   5   -0.84    5.99
  11   1  -6    7.37    4.02
  15   3   2   -3.12    6.55
  16   2  -4    2.57    6.62
  18   2  -4    1.08    6.27
  19   3   2   -1.08    8.22
  22   2  -3   -9.79    6.81
   7   3   6   18.06    5.18
   8   2  -1    9.73    4.78
   9   3   4    1.62    5.61
  10   2  -2    3.22    3.82
  11   3   3    1.81    4.38
  13   1  -7   60.62    5.05
  13   3   2    1.53    4.20
  15   3   1   -1.83    6.67
  17   3   1   -1.99    6.39
  20   2  -4   -3.57    5.84
  22   2  -4    2.19    5.71
   5   3   9    8.13    4.73
  11   3   2   -5.12    6.37
  13   3   1    1.17    5.96
  14   4  11   -4.65    8.11
  14   4  12    3.83    7.24
  14   4  13   -3.01    7.00
  17   1  -8    8.81    4.61
  17   3   0   10.81    6.28
  18   2  -5   -0.42    5.93
  19   3   0   -3.08    7.50
  20   2  -5   -0.34    6.97
   5   3   8   -3.21    4.83
   9   3   3   35.48    6.25
  12   2  -4   17.45    5.12
  12   4  11    1.46    7.07
  12   4  12   -7.90    7.43
  12   4  13   -2.00    7.56
  12   4  14    1.39    6.34
  14   4   9    8.30    7.12
  15   3   0   -5.19    6.18
  16   2  -5    7.03    5.97
  16   4   9   -1.04    7.54
  22   2  -5   11.28    6.61
   0   2   9    6.19    2.86
   2   2   5   81.89    3.58
   3   3  12   -0.38    3.94
   4   2   2    0.22    3.45
   5   3   7    8.47    4.77
   6   2   0    8.81    4.01
  10   2  -3   -2.79    4.82
  10   4  12    4.55    7.28
  10   4  13   -4.34    7.23
  10   4  14    3.09    7.06
  11   3   1    4.77    6.16
  12   4   9   -6.11    7.14
  12   4  10    3.98    7.23
  13   3   0    9.02    6.15
  14   2  -5    3.39    5.22
  14   4   8   -0.19    7.51
  15   3  -1   -2.29    5.99
  16   4   7   -4.66    8.27
  17   3  -1    9.13    6.40
  21   3  -1   -7.14    7.60
   7   3   4    3.29    5.47
   8   2  -2   18.86    4.80
   9   1  -6   10.24    3.66
  10   4  10   -1.94    6.63
  10   4  11    3.69    6.98
  12   4   8    5.69    7.05
  13   1  -8   21.97    4.85
  14   4   6   -1.53    6.69
  16   2  -6   14.98    6.71
  19   3  -2   -0.51    7.38
  20   2  -6   -0.26    6.88
  21   3  -2   -4.34    7.98
  22   2  -6   -2.66    6.80
   3   3  10    9.31    4.21
   5   3   6   -2.55    4.80
   8   4  13    2.68    6.47
  10   4   9    0.92    7.09
  11   3   0    2.37    6.40
  12   4   7   -2.58    7.16
  13   3  -1   -3.38    6.17
  14   4   5   -1.98    6.50
  15   3  -2    0.04    6.62
  16   4   5   -4.13    7.64
  18   4   4   -6.59    7.75
   0   2   8   -1.55    2.90
   6   2  -1    4.38    4.10
   7   3   3   13.61    5.43
   8   4  11    2.76    6.23
   8   4  12   -0.55    6.15
   9   3   1    0.27    5.75
  10   4   8   11.32    6.49
  14   4   4   -4.01    6.46
  15   1  -9    2.85    3.95
  16   4   4    0.51    7.18
  17   3  -3    1.24    7.15
  18   2  -7    2.56    5.84
  18   4   3    2.51    7.79
  19   3  -3   -2.42    7.09
  20   2  -7   -0.16    6.56
  21   3  -3    0.98    7.08
  22   2  -7    2.93    7.43
   3   3   9    3.37    4.01
   4   2   1    4.01    3.87
   5   3   5   -1.96    4.94
   8   4  10   -2.73    6.36
  10   4   7    5.20    6.69
  13   3  -2   -4.79    6.68
  14   4   3    4.20    6.40
  16   2  -7   14.90    5.97
  16   4   3    5.08    7.12
  18   4   2   -1.97    8.37
   3   3   8   25.06    4.39
   8   4   9    3.36    6.46
   9   3   0    0.11    5.70
  10   4   6    8.92    6.75
  12   4   4   -2.44    7.37
  16   4   2   -1.21    7.89
  17   3  -4    5.97    7.13
  18   4   1   -1.84    7.87
  19   3  -4    0.45    6.35
  20   2  -8   -2.50    6.50
  21   3  -4    0.14    6.62
   0   2   7  109.11    4.03
   6   4  12    5.18    6.03
   8   4   8    0.89    5.92
  11   1  -8    9.00    3.80
  11   3  -2   73.98    7.41
  12   2  -6    3.31    5.15
  12   4   3   14.00    7.31
  13   1  -9    2.54    3.78
  13   3  -3    5.73    6.35
  14   2  -7    2.64    5.50
  14   4   2   -0.26    6.82
  15   3  -4   -0.55    6.93
  16   4   1    6.13    8.07
  18   2  -8    2.74    5.68
  21   3  -5   -2.01    6.27
   3   3   7    6.56    4.48
   6   2  -2    5.81    4.16
   7   3   1    1.34    5.72
   8   4   7   -5.11    6.46
   9   1  -7   58.64    4.11
   9   3  -1   -3.05    5.78
  10   4   4   -2.13    7.02
  12   4   2    2.16    6.65
  16   2  -8    1.92    5.65
  16   4   0    3.63    8.07
  17   3  -5   -3.43    7.01
  18   4   0   -1.58    7.45
   4   2   0    2.74    3.88
   6   4   9    5.96    6.69
   8   2  -4   38.53    5.43
   8   4   6    1.40    6.45
  10   4   3   -1.18    6.45
  15   3  -5    2.02    6.18
  18   4  -1   -0.69    8.00
  19   3  -6    7.65    7.26
  21   3  -6   -1.50    6.60
   1   3  11   -0.75    4.17
   6   4   8    8.89    6.60
   7   1  -6   34.21    3.65
   8   4   5    3.70    6.20
  11   3  -3   22.78    4.82
  12   2  -7   11.30    5.42
  12   4   1   -0.44    7.24
  13   5   9    3.16    8.24
  14   4   0   -4.57    6.93
  16   4  -1   -3.84    8.26
  17   3  -6    6.01    6.78
  18   2  -9   -0.62    5.73
  18   4  -2   10.94    7.35
   0   2   6    1.27    2.65
   7   3   0    9.70    4.10
   9   3  -2   -6.48    5.77
  10   2  -6    0.10    4.85
  10   4   2   -4.43    7.19
  11   5  11   -5.64    7.67
  11   5  12   -1.24    6.96
  11   5  13    9.57    6.01
  12   4   0    6.87    6.32
  13   5   8    6.07    8.17
  14   4  -1    6.68    7.82
  16   4  -2   -0.56    7.61
  21   3  -7    0.11    6.49
   1   3  10   12.38    3.77
   2   2   2   60.10    3.83
   3   3   5    0.25    5.11
   5   3   2   21.02    5.42
   6   2  -3    9.98    4.53
   6   4   7    4.32    6.05
  11   1  -9    5.52    3.72
  11   3  -4    0.83    6.03
  11   5   9   -2.99    7.73
  11   5  10    5.18    7.37
  13   1 -10    1.82    3.78
  13   5   6   -9.69    7.56
  13   5   7   -5.87    8.43
  17   3  -7   -6.20    7.66
  19   3  -7   -2.44    6.29
   1   3   9   11.00    4.60
   4   2  -1   39.17    4.50
   4   4  11   -2.43    5.47
   6   4   6    4.23    6.24
   8   4   3   -6.96    7.35
   9   1  -8    2.49    4.42
   9   5  12    6.22    6.99
  11   5   8    2.19    7.81
  15   5   4   -3.63    9.15
  16   4  -3    3.81    7.56
  21   3  -8    3.50    6.13
   3   3   4    9.36    5.04
   4   4  10   -2.40    5.49
   5   3   1   -5.28    5.95
   6   4   5    2.85    6.14
   9   5  10    2.26    7.76
   9   5  11   -3.55    8.09
  10   4   0    3.95    6.75
  11   5   6   -8.76    7.24
  11   5   7    0.52    6.98
  12   2  -8   10.69    5.41
  13   3  -6    5.79    6.59
  14   2  -9    6.95    5.16
  15   3  -7    2.60    6.66
  15   5   3    5.97    8.94
  16   2 -10   -1.94    6.15
  18   4  -4   -1.23    7.33
  19   3  -8   -5.99    7.32
   0   2   5   74.67    3.28
   1   3   8   11.11    4.95
   8   4   2    5.30    4.81
   9   5   9    8.93    7.92
  10   2  -7   38.72    4.77
  11   5   5    2.46    7.19
  12   4  -2   -1.69    7.05
  13   5   3    4.53    7.97
  14   4  -3    0.09    7.39
  15   5   2   -0.14    9.06
  17   3  -8   -0.30    7.69
  18   4  -5   -3.15    6.95
   2   2   1   28.30    3.53
   4   4   8    8.73    5.50
   6   4   4    4.37    6.42
   7   3  -2   11.18    6.10
   9   3  -4    0.23    6.23
   9   5   7    1.09    8.07
  10   4  -1    2.04    7.10
  13   5   2    4.95    7.66
  14   4  -4   -6.76    7.43
  15   5   1   -1.09    8.66
  19   3  -9   -5.89    7.78
  21   3  -9    0.60    5.92
   1   3   7   37.15    5.39
   4   2  -2   35.12    4.39
   4   4   7   24.62    5.80
   5   3   0    4.44    5.94
   7   1  -7   15.02    3.12
   7   5  10   -1.03    7.67
   7   5  11    0.16    7.07
   8   2  -6   -0.16    5.35
   9   5   6   -1.59    7.82
  11   1 -10   13.15    4.16
  12   4  -3    2.84    7.20
  13   3  -7   19.80    6.86
  14   2 -10   -0.26    5.31
  15   3  -8   -0.09    6.76
  15   5   0   -5.68    9.34
  16   4  -5    4.78    6.96
  18   4  -6    0.66    7.50
   4   4   6   17.16    6.89
   7   5   9   -2.05    7.26
   9   5   5    4.40    7.82
  10   2  -8   56.37    6.07
  10   4  -2    1.71    7.27
  13   5   1   -0.71    7.58
  16   2 -11    5.12    4.31
  16   4  -6    2.62    7.83
   0   2   4   33.61    3.58
   6   4   2   47.20    7.54
   7   3  -3   -0.14    5.66
   7   5   8    5.29    7.75
   9   1  -9    8.72    4.42
   9   3  -5   20.70    6.87
   9   5   4    0.99    7.96
  11   5   2    1.30    7.21
  12   4  -4    2.33    7.17
  13   5   0    4.82    8.91
  15   5  -1    1.43    7.82
  18   4  -7    0.84    7.89
   1   3   6   54.85    5.40
   5   3  -1    3.81    4.22
   6   2  -5   83.19    5.25
   7   5   7    2.46    7.50
   8   4  -1   -1.74    7.31
  10   4  -3   -4.00    6.84
  11   3  -7   -0.80    6.07
  11   5   1   -5.39    7.78
  13   3  -8   10.72    6.11
  13   5  -1   -0.92    7.85
  15   3  -9    7.07    5.96
  15   5  -2    5.27    8.60
  17   3 -10    0.32    6.57
   2   2   0    2.76    3.81
   2   4  10   -1.67    4.93
   6   4   1   47.05    7.21
   7   5   6   -6.80    7.82
  11   5   0   -4.66    7.12
  12   2 -10    4.14    4.64
  12   4  -5   -1.54    7.37
  14   2 -11    2.09    5.00
  15   5  -3   -1.57    7.58
  18   4  -8   -6.01    7.64
   1   3   5  149.43    6.14
   3   3   1  250.66    7.64
   4   2  -3   -1.92    3.99
   4   4   4    4.54    6.43
   5   3  -2   12.20    6.08
   7   3  -4    2.51    4.34
   8   4  -2    1.54    7.58
  10   4  -4   -0.86    7.38
   2   4   8    3.53    5.16
   4   4   3   -3.07    6.22
   5   1  -6    1.61    2.63
   5   5   9    2.90    6.93
   6   4   0   -1.79    6.67
   7   5   4    0.83    7.56
   9   5   1    0.01    8.07
  10   2  -9   38.49    5.42
  10   6   8    7.18    7.18
  10   6   9    2.32    7.58
  11   1 -11    1.08    3.22
  11   3  -8    9.20    6.34
  11   5  -1    2.35    7.94
  13   5  -3   -4.10    8.14
  14   4  -7    0.12    7.84
  15   5  -4   -5.65    8.74
  16   4  -8    4.03    7.20
  17   3 -11   -2.07    6.63
  18   4  -9    0.15    6.81
  -9   1 -20   -1.33    6.87
  -8   0 -14    1.33    5.33
  -6   0 -14   -3.10    5.80
  -4   0 -14   15.08    6.05
  -2   0 -13    9.35    5.62
  -1   1 -20    3.21    8.28
   0   0 -11   42.78    5.42
   0   2 -24   -3.98   10.17
   2   2 -23   -4.50    9.91
   4   2 -22   -4.62    8.87
   6   2 -20   -0.60    8.98
   7   1 -10  103.60    5.56
   7   1  -9   84.12    4.94
   7   3 -23   -5.78    9.77
   8   2 -18   10.24    8.45
  10   2 -13    2.36    4.85
 -10   0 -14   -1.12    3.90
  -9   1 -21   -0.74    7.24
  -8   0 -15    3.94    5.81
  -7   1 -21   -0.70    6.70
  -6   0 -15   -0.39    5.64
  -5   1 -21   -0.44    5.61
  -2   0 -14   -8.15    6.00
   0   0 -12   37.94    6.06
   3   1 -18   -7.80    7.28
   6   2 -21   -2.31    8.87
  -5   1 -22   -1.79    6.65
  -4   0 -15   -0.61    5.86
  -1   1 -21   11.54    7.51
   0   0 -13    8.02    6.01
   1   1 -20    3.41    7.65
   2   0  -8  103.46    4.54
   2   2 -24   -1.13    9.67
   4   2 -23   -0.93   10.26
   7   1 -12    0.67    5.23
   8   2 -19    5.54    8.07
   9   3 -22   -7.19    8.01
  10   2 -15    8.28    6.03
 -10   0 -15   -1.17    4.28
  -9   1 -22    1.77    5.79
  -8   0 -16   -0.98    5.58
  -7   1 -22   -2.38    5.95
  -6   0 -16    0.84    6.36
  -4   0 -16   13.26    6.16
  -2   0 -15    5.33    5.91
  -1   1 -22    0.14    7.63
   0   0 -14    2.60    5.82
   1   1 -21   -3.39    8.31
   2   0 -10   20.92    4.46
   2   0  -9   29.37    4.28
   4   2 -24    6.19    8.92
   7   1 -13    1.62    5.45
   9   3 -23   -0.49    8.44
  10   2 -16    7.17    6.70
 -10   0 -16   -0.97    4.87
  -8   0 -17   -0.17    5.48
  -7   1 -23   -2.47    6.65
  -6   0 -17    1.28    6.86
  -5   1 -23   -3.40    6.98
  -4   0 -17    0.58    6.51
  -2   0 -16   -0.20    6.55
   2   0 -11    7.58    4.84
   3   1 -20    7.25    7.45
   5   1 -18    6.31    8.18
   7   1 -14    0.74    5.78
  10   2 -17   -1.82    7.08
  -9   1 -23    1.72    6.07
  -2   0 -17   22.01    7.73
  -1   1 -23    9.97    8.91
   0   0 -15    2.06    5.77
   1   1 -22    0.92    7.81
   2   0 -13   48.54    5.98
   2   0 -12    5.65    5.82
   4   2 -25   -0.25    9.60
   5   1 -19    2.34    8.00
   7   1 -16   14.33    7.21
   7   1 -15    5.35    6.16
   8   2 -21   -0.60    7.49
   9   3 -24    6.42    8.09
  -8   0 -18   -1.11    5.13
  -6   0 -18    9.66    6.49
  -5   1 -24    0.51    6.27
  -4   0 -18   -1.51    7.12
  -1   1 -24    6.32    7.92
   0   0 -16   36.39    7.12
   2   0 -14    6.40    6.08
   3   1 -22    5.57    7.29
   5   1 -20    4.46    7.63
   6   2 -24   -3.07    9.16
   7   1 -17    8.86    6.39
   8   2 -22    4.40    8.55
  10   2 -19    1.79    6.85
  -8   0 -19   -0.66    5.59
  -6   0 -19   -4.09    7.12
  -4   0 -19    2.62    7.02
   0   0 -17   -0.37    6.52
   2   0 -15    6.30    5.83
   6   2 -25    3.49    9.31
   7   1 -18   -2.77    6.98
   8   2 -23   -2.75    8.13
  10   2 -20    2.21    8.23
  -6   0 -20   -0.25    6.27
  -4   0 -20    0.04    6.73
  -1   1 -25    4.56    8.84
   0   0 -18    3.43    6.35
   1   1 -24    4.65    8.34
   2   0 -16   -2.33    6.13
   5   1 -21   11.22    7.51
   7   1 -19    3.65    8.00
  -8   0 -20    0.12    5.76
   0   0 -19   -1.59    7.03
   1   1 -25    5.48    9.02
   2   0 -17    3.98    6.57
   3   1 -24    0.77    8.82
   4   0 -13   -7.21    5.32
   4   0 -11   13.04    5.05
   4   0 -10  289.70    6.38
   4   0  -9   10.64    3.72
   5   1 -22    0.26    7.23
   8   2 -24    3.54    8.08
   9   1 -14   53.87    5.87
   9   1 -13    9.92    5.35
   9   1 -12    5.39    4.40
   9   1 -11    0.23    4.18
   9   1 -10    6.34    4.21
   9   1  -9    9.13    3.93
  10   2 -21   -2.18    7.52
  -8   0 -21   -3.44    6.20
  -6   0 -21    0.80    6.18
  -4   0 -21    1.82    7.25
   0   0 -20    1.90    7.28
   4   0 -15   -2.13    5.81
   4   0 -14   -1.87    5.81
   7   1 -20    2.26    6.71
   8   2 -25   -1.46    8.60
   9   1 -16    7.84    6.68
   9   1 -15    1.34    5.59
  10   2 -22    0.38    7.91
  -6   0 -22    1.10    5.93
  -4   0 -22    9.72    7.26
   0   0 -21    6.87    7.28
   2   0 -19    2.15    6.56
   3   1 -25    6.81    8.20
   4   0 -16    8.99    6.12
   7   1 -21   -4.27    7.55
   9   1 -17   -4.22    6.53
  -8   0 -22    2.17    6.13
  -6   0 -23   -1.29    6.25
  -4   0 -23   -2.11    7.01
   0   0 -22    0.22    7.81
   4   0 -17   21.99    6.68
   7   1 -22    3.37    7.15
   9   1 -18    2.85    7.02
  10   2 -24    2.99    7.70
  -8   0 -23    0.66    5.74
   2   0 -21   -3.65    7.92
   4   0 -19    2.37    6.74
   4   0 -18   -2.62    6.64
   5   1 -25   -0.14    8.17
   7   1 -23    1.75    8.03
   9   1 -20   -2.21    6.65
   9   1 -19   -1.00    6.59
  10   2 -25    1.44    8.27
  12   2 -21   -1.56    7.33
  -8   0 -24   -0.30    6.04
  -7  -1 -13   -1.71    4.59
  -7  -1 -11    0.65    3.65
  -7  -1 -10   16.19    3.61
  -7  -1  -9    3.28    3.26
  -6   0 -24    0.29    5.95
  -5  -1 -13   48.03    5.52
  -5  -1 -12   59.97    4.82
  -5  -1 -10   34.95    4.16
  -4   0 -24   -0.48    7.15
   0   0 -23   17.62    7.21
   2   0 -22   10.12    7.23
   7   1 -24    2.68    8.67
   9   1 -21    2.96    7.47
  12   2 -22   -5.41    8.01
  -9  -1 -13    0.33    4.40
  -9  -1 -12    8.69    3.74
  -9  -1 -11    6.54    3.37
  -9  -1 -10    6.30    2.98
  -9  -1  -9   12.78    3.03
  -9  -1  -8   -1.84    3.11
  -7  -1 -15   17.80    5.67
  -7  -1 -14   -0.08    4.31
  -5  -1 -15   -2.02    4.62
  -5  -1 -14   13.05    5.09
  -5  -1  -8   -3.79    2.99
  -4   0 -25    1.52    7.14
  -3  -1 -13   -2.89    4.60
  -3  -1 -12   -3.31    4.36
  -3  -1 -11   37.23    4.82
  -2   0 -25    9.61    7.55
   0   0 -24    0.93    8.07
   4   0 -21    5.51    7.85
   6   0 -17    3.14    6.00
   7   1 -25    7.69    8.35
   9   1 -22    5.72    7.14
  12   2 -23    5.00    8.55
  -9  -1 -15   -0.73    5.10
  -9  -1 -14    0.54    4.16
  -9  -1  -7   24.04    2.98
  -7  -1 -16   -1.67    5.42
  -5  -1 -16    1.76    5.12
  -5  -1  -7   29.27    2.69
  -3  -1 -15    0.23    4.92
  -3  -1 -14    7.76    4.84
   0   0 -25    2.19    7.97
   4   0 -22    8.29    7.19
   6   0 -19   -3.45    6.18
   6   0 -18   -2.96    6.60
   9   1 -23   -8.27    7.68
  11   1 -15   -2.85    4.94
  11   1 -14   -3.71    4.24
  11   1 -13    3.23    4.08
  12   2 -24   -2.65    7.46
  -7  -1 -17    4.98    5.49
  -7  -1  -6   76.46    3.28
  -5  -1 -18    4.41    5.55
  -5  -1 -17    0.70    5.76
  -3  -1 -17   15.65    5.94
  -3  -1 -16   14.54    5.14
  -3  -1  -8   76.27    3.63
  -1  -1 -15    1.41    5.28
  -1  -1 -14   10.78    5.23
  -1  -1 -13   32.27    5.16
  -1  -1 -12    0.03    4.74
  -1  -1 -11    0.21    4.54
   4   0 -23    1.69    7.95
   6   0 -20    0.54    6.82
   9   1 -24   -4.69    7.79
  11   1 -19    6.72    5.87
  11   1 -12    3.81    3.80
  11   1 -11    0.86    4.11
  -7  -1 -19    6.67    6.13
  -7  -1 -18    2.05    5.62
  -5  -1 -19   11.57    6.06
  -3  -1 -19    1.75    5.90
  -3  -1 -18   -5.14    6.12
  -3  -1  -7   33.35    2.99
  -1  -1 -10   39.23    4.20
   2   0 -26   -1.63    8.08
   4   0 -24   -4.41    8.35
   9   1 -25   -6.93    7.83
  11   1 -10   18.87    3.59
  -7  -1 -20   -3.18    6.60
  -5  -1 -20    2.00    6.94
  -3  -1 -20    6.70    6.16
  -1  -1  -9   35.82    2.88
   1  -1 -15    9.16    5.10
   1  -1 -14    1.55    5.41
   1  -1 -13   19.40    5.07
   4   0 -25    4.09    8.07
   6   0 -23   -0.71    6.84
   6   0 -22    0.70    6.31
   6   0  -7    4.20    2.61
   8   0 -17   -3.00    5.68
   8   0 -16    3.43    5.52
   8   0 -15    2.13    5.45
   8   0 -14    4.32    5.05
  11   1 -22    1.21    7.50
  -7  -1 -21    3.04    5.80
  -3  -1 -21    0.01    7.11
   1  -1 -18   27.74    6.44
   1  -1 -17    4.94    5.86
   1  -1 -16   -1.32    5.79
   1  -1 -12    5.30    4.71
   1  -1 -11  177.67    6.06
   4   0 -26    2.03    8.18
   6   0 -24    3.99    7.91
   8   0 -20    4.49    7.22
   8   0 -19    4.89    6.16
   8   0 -18    6.33    6.03
   8   0 -13   -4.15    4.62
   8   0 -12   15.41    4.59
  11   1 -23   -0.32    7.39
  -7  -1 -22    1.46    6.85
  -5  -1 -22    0.37    6.36
   1  -1 -20    4.41    6.26
   1  -1 -19    4.37    6.00
   1  -1 -10   55.90    4.23
   6   0 -25   -6.34    8.40
   8   0 -21    3.43    7.26
   8   0 -11   -1.70    4.35
  11   1 -25   -7.50    7.88
  11   1 -24   -3.61    6.47
  -7  -1 -23    1.53    5.89
  -5  -1 -23    4.66    6.72
  -3  -1 -23   -6.07    6.80
  -1  -1  -7  120.40    3.67
   1  -1 -21   -2.47    7.10
   3  -1 -18   -2.23    5.28
   3  -1 -17    1.05    6.05
   3  -1 -14   -1.78    5.26
   6   0 -26  -12.30    8.79
   6   0  -6   27.05    2.32
   8   0 -23   -0.91    7.23
   8   0 -22   -2.95    6.41
   8   0 -10   49.03    4.20
  -7  -1 -24   -2.05    5.30
  -5  -1 -24   -0.20    6.25
  -3  -1 -24   -1.99    7.12
  -1  -1 -24   -1.77    7.56
   1  -1 -23   -1.41    6.76
   1  -1 -22   -0.30    5.87
   3  -1 -20    8.18    6.47
   3  -1 -19    5.73    6.00
   3  -1 -13   20.72    3.78
   3  -1 -12    7.51    4.96
   8   0 -24    3.22    7.67
  13   1 -21    6.49    6.58
  13   1 -20    2.43    5.93
  13   1 -19   -0.93    6.02
  -3  -1 -25    0.78    6.25
  -1  -1 -25    1.36    7.61
   1  -1 -24    2.18    7.59
   1  -1  -8   23.62    3.30
   3  -1 -22    2.63    6.20
   3  -1 -21   -0.93    6.27
   3  -1 -11    6.19    4.42
   8   0 -25   -5.78    7.95
  10   0 -19    2.27    6.02
  10   0 -18    1.59    5.95
  10   0 -17    0.66    5.65
  10   0 -16    8.74    5.44
  13   1 -23   -3.10    7.70
  13   1 -22    2.73    7.20
   1  -1 -25    7.77    7.07
   3  -1 -23    0.59    7.54
   3  -1 -10   35.85    4.11
   5  -1 -19    4.54    6.00
   5  -1 -18    3.49    5.93
   5  -1 -17    2.68    5.60
   5  -1 -16    5.25    5.34
   5  -1 -15    2.35    5.12
  10   0 -22   -2.35    6.41
  10   0 -21   -2.45    6.62
  10   0 -15   11.32    4.43
  10   0 -14    2.16    4.76
  13   1 -24    0.22    6.62
   3  -1 -25   -1.27    7.64
   3  -1 -24    2.37    6.72
   5  -1 -22   -4.36    5.81
   5  -1 -21    4.00    6.67
   5  -1 -20    0.23    6.13
   5  -1 -14   12.41    4.91
   5  -1 -13    8.51    4.60
  10   0 -24   -2.16    7.23
  10   0 -23    5.53    5.97
  10   0 -13    1.11    4.33
   3  -1  -9   23.60    2.64
   5  -1 -24    3.25    6.99
   5  -1 -23   -1.76    7.42
  10   0 -25    1.53    7.10
  10   0 -12    9.43    3.97
   5  -1 -25    4.94    7.33
   5  -1 -11    7.88    4.62
   7  -1 -20    6.51    5.63
   7  -1 -19   -0.42    5.68
   7  -1 -18    0.41    5.46
   7  -1 -17    7.72    5.45
   3  -1  -8    5.34    2.99
   7  -1 -23    8.38    7.04
   7  -1 -22    0.93    5.94
   7  -1 -21   -1.17    5.97
   7  -1 -16    7.44    5.28
   7  -1 -15    0.69    5.30
   8   0  -7    9.97    2.79
  12   0 -23    7.37    6.98
  12   0 -22   -2.26    6.69
  12   0 -21   -4.40    6.52
  12   0 -20    5.28    6.32
  12   0 -19    6.06    5.60
  12   0 -18   -4.25    5.69
  12   0 -17    1.47    5.64
  -6  -2 -19    1.71    5.05
  -6  -2 -18   -0.31    4.92
  -6  -2 -17    4.38    4.99
  -6  -2 -16   -0.53    4.47
  -6  -2 -15    0.50    4.07
  -6  -2 -14   -1.28    4.52
  -4  -2 -19    0.57    5.49
  -4  -2 -18    0.50    5.20
  -4  -2 -17    1.44    5.11
  -4  -2 -16    6.79    4.81
  -4  -2 -15    6.02    4.57
  -4  -2 -14   10.14    4.58
  -2  -2 -18   12.10    5.33
  -2  -2 -17   12.99    5.32
  -2  -2 -16    5.43    4.68
   5  -1 -10    2.82    4.06
   7  -1 -25    0.64    7.30
   7  -1 -24    6.84    6.91
  10   0 -10    0.66    3.31
  12   0 -25   -3.88    6.08
  12   0 -24    1.32    5.94
  12   0 -16   -0.52    4.64
  -6  -2 -22    0.84    6.36
  -6  -2 -21   -3.30    6.01
  -6  -2 -20   -5.10    5.05
  -6  -2 -13   -1.00    3.54
  -4  -2 -22   -5.96    5.99
  -4  -2 -21    2.38    5.27
  -4  -2 -13    2.54    4.08
  -2  -2 -22    1.90    5.86
  -2  -2 -21   -5.80    6.00
  -2  -2 -20    3.39    5.25
  -2  -2 -14    0.96    4.52
   3  -1  -7    5.59    2.86
  12   0 -15    1.20    4.36
  -8  -2 -13   30.30    4.02
  -6  -2 -23   -2.88    5.72
  -6  -2 -12    9.57    3.51
  -4  -2 -24   -1.88    5.76
  -4  -2 -23    0.96    5.24
  -4  -2 -12    4.92    3.79
  -2  -2 -24    0.82    6.56
  -2  -2 -23   -3.85    6.40
   0  -2 -23    5.68    6.09
   5  -1  -9   75.03    3.94
   9  -1 -23   -1.26    7.05
   9  -1 -22   -2.83    6.32
   9  -1 -21    2.54    6.40
   9  -1 -20   -0.57    5.88
   9  -1 -19   -0.51    5.80
   9  -1 -18    2.38    5.48
  12   0 -14    7.30    3.95
  -8  -2 -12   -2.09    2.97
  -6  -2 -11    1.22    3.09
  -4  -2 -11   -2.36    3.32
  -2  -2 -12   90.19    4.91
   0  -2 -25   -0.78    6.11
   0  -2 -24    3.18    6.84
   0  -2 -13    9.94    4.42
   2  -2 -23    1.65    5.99
   2  -2 -22    6.93    6.36
   2  -2 -21    0.02    5.39
   2  -2 -20    5.01    5.89
   2  -2 -19   -2.38    5.41
   2  -2 -18    0.89    5.32
   2  -2 -17   -4.36    5.28
   2  -2 -16   -2.74    5.32
   9  -1 -16   10.98    4.96
  10   0  -9   59.42    3.61
  12   0 -13   32.18    4.12
  -8  -2 -11    1.59    2.88
   0  -2 -12   17.80    3.98
   2  -2 -25   -4.18    7.13
   2  -2 -24   -2.54    6.64
   2  -2 -15   -1.82    4.86
   5  -1  -8    6.47    2.92
   8   0  -6    7.68    2.08
   9  -1 -15   -2.79    4.64
  12   0 -12    4.65    3.78
  14   0 -24    7.34    5.93
  14   0 -23    0.02    5.71
  14   0 -22    1.87    6.46
  14   0 -21    1.42    5.76
  14   0 -20   -5.72    5.72
  14   0 -19    0.87    5.42
  -6  -2 -10   10.74    2.91
  -4  -2 -10    1.31    3.06
   2  -2 -14    0.85    3.21
   2  -2 -13   28.68    4.59
   4  -2 -24   -1.82    7.02
   4  -2 -23   -0.49    7.05
   4  -2 -22    1.37    6.17
   4  -2 -21    1.10    5.20
   4  -2 -20    0.79    4.48
   4  -2 -19    3.18    5.52
   4  -2 -18    1.95    5.44
   4  -2 -17   17.84    5.25
   9  -1 -14   44.10    5.08
  11  -1 -22   -0.86    6.31
  11  -1 -21   -2.87    6.32
  14   0 -18    8.49    5.38
  14   0 -17    8.78    5.15
  -6  -2  -9   -0.15    3.25
  -2  -2 -10    8.54    3.82
   0  -2 -11   23.14    4.19
   4  -2 -16    8.92    4.48
   4  -2 -15    3.57    5.21
   9  -1 -13   12.34    4.38
  10   0  -8   90.23    3.48
  11  -1 -25   -2.83    6.47
  11  -1 -24   -2.62    6.61
  11  -1 -23   -7.16    6.18
  11  -1 -20   -4.35    5.46
  11  -1 -18    0.88    5.16
  12   0 -11    3.95    3.55
  -4  -2  -9   52.45    3.47
   0  -2 -10    2.03    3.67
   2  -2 -12    6.37    4.39
   4  -2 -14    1.71    4.48
   6  -2 -24    6.86    6.54
   6  -2 -23    2.98    6.86
   6  -2 -22    2.32    6.74
   6  -2 -20    5.52    5.57
   6  -2 -19    1.95    5.86
   6  -2 -18    4.06    5.29
   9  -1 -12    9.04    3.93
  -8  -2  -9   11.18    2.31
  -2  -2  -9   10.77    3.40
   2  -2 -11    4.91    4.10
   4  -2 -13   -0.45    4.32
   5  -1  -7   16.41    2.54
   6  -2 -17    0.70    5.22
   6  -2 -16    2.07    5.00
  11  -1 -16    3.19    4.93
  -6  -2  -8   48.61    3.00
  -4  -2  -8   40.28    3.20
   6  -2 -15   55.46    5.57
   8  -2 -24   -1.60    6.12
   8  -2 -23   -1.49    6.54
   8  -2 -22   -1.44    6.30
   8  -2 -21    3.82    5.29
   9  -1 -11    5.78    3.45
  11  -1 -15    3.55    4.49
  12   0 -10    0.56    3.10
  13  -1 -24    2.30    5.52
  13  -1 -23    3.42    5.18
  13  -1 -22   -1.05    6.38
  -8  -2  -8   14.91    2.55
  -2  -2  -8   15.08    2.96
   0  -2  -9    3.10    3.36
   2  -2 -10    7.81    4.05
   3  -1  -5   44.96    2.52
   4  -2 -12   20.30    4.30
   6  -2 -14   12.82    4.60
   8  -2 -20    4.43    5.13
   8  -2 -19   -1.99    5.77
   8  -2 -18    8.31    4.83
  11  -1 -14   -2.51    4.19
  13  -1 -21    1.29    5.63
  13  -1 -20   -1.86    5.89
  13  -1 -19    3.34    5.77
  -3  -3 -22   -0.62    5.53
  -3  -3 -21    3.75    4.74
  -3  -3 -20   -2.57    5.43
   4  -2 -11   15.44    4.15
   8  -2 -17    1.72    5.22
   9  -1 -10    3.31    4.08
  11  -1 -13    7.44    4.23
  13  -1 -18    0.54    4.80
  -6  -2  -7   32.23    3.04
  -5  -3 -23    2.72    5.04
  -5  -3 -22   -0.54    5.19
  -5  -3 -21   -0.71    5.80
  -5  -3 -20    0.23    5.47
  -5  -3 -19    4.36    5.08
  -5  -3 -18    2.68    4.53
  -5  -3 -17   -1.87    4.74
  -4  -2  -7   95.24    3.21
  -3  -3 -23    0.25    4.68
  -3  -3 -19   -1.03    4.79
  -3  -3 -18    4.99    5.08
  -3  -3 -17    2.87    4.44
  -1  -3 -23    0.43    5.74
  -1  -3 -22    0.01    5.00
  -1  -3 -21   -0.53    5.10
  -1  -3 -20   -1.91    4.93
  -1  -3 -19    0.63    5.17
  -1  -3 -18    0.40    4.95
   0  -2  -8    3.97    2.83
   1  -3 -23   -2.20    5.95
   1  -3 -22    2.90    6.02
   1  -3 -21    4.24    6.45
   2  -2  -9   19.83    3.69
   5  -1  -6   -0.27    2.38
   6  -2 -13    0.80    4.22
   8  -2 -16    3.36    5.16
  10  -2 -22    0.65    6.44
  10  -2 -21   -1.32    5.48
  12   0  -9    8.13    2.79
  13  -1 -17   -2.86    5.25
  -5  -3 -16    2.42    4.32
  -3  -3 -16    3.30    4.62
  -2  -2  -7   -2.06    2.51
  -1  -3 -17   -2.44    4.84
  -1  -3 -16    1.65    4.39
   3  -3 -22   -1.80    5.55
   3  -3 -21    1.99    5.51
   4  -2 -10  174.28    5.45
   8  -2 -15   -3.17    4.96
  10  -2 -20    4.36    5.46
  10  -2 -19   -3.33    5.69
  11  -1 -12    7.77    3.82
  13  -1 -16   -3.92    4.88
  -8  -2  -7   -0.65    2.23
  -5  -3 -15    0.07    4.18
  -3  -3 -15   -4.92    4.45
  -1  -3 -15   -6.23    4.93
   3  -3 -20    4.73    4.90
   3  -3 -19    7.32    5.13
   3  -3 -18    0.15    5.12
   8  -2 -14   -0.98    4.48
   9  -1  -9   15.31    3.31
  10  -2 -18   -2.10    5.33
  13  -1 -15   15.24    4.59
  15  -1 -22    1.58    5.22
  15  -1 -21   -2.36    5.69
  -5  -3 -14    4.62    3.75
  -3  -3 -14   -0.39    4.25
  -1  -3 -14    3.28    4.32
   0  -2  -7  111.30    3.46
   3  -3 -17    0.72    5.05
   5  -3 -23    5.12    6.38
   5  -3 -22   -1.17    6.66
   5  -3 -21   -0.83    6.30
   5  -3 -20   -1.04    5.57
   6  -2 -11    8.11    4.03
  10  -2 -17    0.17    4.78
  11  -1 -11    3.09    3.84
  15  -1 -20    4.86    5.36
  -4  -2  -6   95.17    3.27
  -3  -3 -13    0.38    3.85
  -1  -3 -13   14.91    3.79
   3  -3 -16    8.00    4.79
   4  -2  -9    4.38    3.92
   5  -3 -18   -2.38    5.31
  10  -2 -16    1.75    4.73
  12  -2 -22    0.31    5.43
  12  -2 -21    1.11    5.85
  12  -2 -20    2.70    4.92
  15  -1 -19   -3.13    4.58
  -6  -2  -6   -0.48    2.04
  -3  -3 -12    1.78    3.22
  -2  -2  -6   47.48    2.59
   3  -3 -15   25.51    5.05
   5  -3 -17    0.66    5.19
   6  -2 -10   -0.09    3.82
   7  -3 -22    3.36    6.22
   7  -3 -21    5.11    5.83
  10  -2 -15    7.84    4.86
  12  -2 -19   -5.28    5.65
  15  -1 -17    3.25    5.09
  -5  -3 -12   19.69    3.67
  -1  -3 -12    3.30    3.77
   2  -2  -7    3.88    2.81
   3  -3 -14    0.48    4.53
   5  -3 -16   -2.70    4.90
   7  -3 -19   -0.54    5.22
   9  -1  -8   -2.46    3.08
  10  -2 -14    6.68    4.53
  11  -1 -10   15.21    3.26
  12  -2 -18   -4.21    5.25
  -8  -2  -6    1.38    1.58
  -7  -3 -12   -0.60    3.10
  -5  -3 -11   -0.65    3.23
  -3  -3 -11   16.98    3.50
   1  -3 -12    3.48    4.29
   3  -3 -13   11.71    4.32
   4  -2  -8   58.02    3.76
   5  -3 -15    5.20    4.84
   7  -3 -18   -4.06    4.79
   7  -3 -17    3.11    5.00
   7  -1  -6   32.42    2.44
   9  -3 -22   -2.00    6.50
  12  -2 -17    4.61    4.80
  14  -2 -23   -0.25    5.68
  14  -2 -22    0.37    4.86
  -7  -3 -11    2.65    3.23
  -1  -3 -11    3.01    3.81
   5  -3 -14    1.01    4.54
   6  -2  -9   11.77    3.76
   7  -3 -16    5.34    4.73
   9  -3 -21    6.58    5.70
   9  -3 -20   -2.58    5.94
  10  -2 -13    4.25    4.07
  12  -2 -16   -1.70    4.90
  13  -1 -12    0.67    3.31
  14  -2 -21    0.05    5.36
  14  -2 -20    2.94    5.71
  -5  -3 -10    7.72    3.59
  -4  -2  -5   49.68    2.56
  -3  -3 -10    5.25    3.32
   3  -3 -12    0.69    4.42
   9  -3 -19    0.50    5.15
   9  -3 -18   -0.25    4.67
  11  -1  -9    7.79    2.83
  12  -2 -15    3.02    4.80
  14  -2 -19   -2.44    5.44
  -6  -2  -5   18.67    2.36
  -4  -4 -21    2.81    4.69
  -4  -4 -20    0.45    4.30
  -2  -4 -21    0.74    4.55
  -2  -4 -20   -0.54    4.99
  -2  -4 -19    1.33    5.48
  -1  -3 -10    9.69    3.60
   0  -4 -21   -0.42    5.36
   0  -4 -20    3.53    5.53
   2  -4 -21    0.60    5.36
   4  -2  -7   23.04    3.11
   5  -3 -13    4.59    4.32
   7  -3 -15    3.59    4.39
   9  -3 -17   -2.65    5.11
   9  -1  -7   57.34    3.16
  10  -2 -12    5.12    3.88
  11  -3 -21   -6.97    6.80
  12   0  -7   20.70    2.38
  13  -1 -11    4.19    3.50
  14  -2 -18    3.23    5.39
  -7  -3 -10    1.84    2.78
  -4  -4 -19   -1.75    5.53
  -4  -4 -18   -1.24    4.58
  -2  -4 -18   -3.04    4.93
   0  -4 -19   -0.12    4.63
   0  -4 -18    0.77    4.63
   2  -4 -20    0.98    5.60
   3  -3 -11   -1.95    4.03
   4  -4 -21   -1.20    6.31
   5  -3 -12    8.65    4.57
   5  -1  -4  493.67    4.28
   7  -3 -14    1.29    4.49
   9  -3 -16    4.06    4.70
  11  -3 -20   -0.73    5.93
  12  -2 -14    0.77    4.82
  14  -2 -17    3.20    5.14
  -5  -3  -9    3.15    2.80
  -4  -4 -17   -0.73    4.80
  -3  -3  -9    2.97    3.07
  -2  -4 -17    0.70    4.89
  -1  -3  -9    6.72    3.41
   0  -4 -17   -2.79    5.18
   0  -2  -5   70.18    2.88
   4  -4 -20   -1.74    5.73
   7  -3 -13   -2.29    4.60
  10  -2 -11    6.67    4.14
  11  -3 -19   -0.10    5.87
  12  -2 -13   24.56    5.01
  16  -2 -22    5.70    4.76
  16  -2 -21   -0.78    5.41
  -7  -3  -9    0.30    2.90
  -4  -4 -16    1.58    4.45
  -2  -4 -16    3.34    4.98
   0  -4 -16    0.79    5.38
   3  -3 -10   10.73    3.83
   4  -4 -19   -4.56    5.26
   4  -4 -18    5.07    5.37
   5  -3 -11    5.44    4.36
   6  -4 -21    6.14    5.84
   9  -3 -15    0.00    4.62
  11  -3 -18    3.05    4.80
  11  -1  -8    4.15    2.73
  13  -1 -10    2.84    3.28
  14  -2 -16   -2.34    4.43
  16  -2 -20   -1.96    5.21
  -4  -4 -15    5.80    4.05
  -2  -4 -15    0.52    4.57
   0  -4 -15    1.54    4.58
   1  -3  -9    5.78    2.52
   4  -4 -17    0.95    5.24
   6  -4 -20    4.78    5.28
   6  -4 -19   -3.29    6.00
   6  -2  -7   -2.52    3.33
   9  -3 -14   20.26    4.98
   9  -1  -6   11.39    2.85
  10  -2 -10   -2.10    3.88
  11  -3 -17   -1.69    5.04
  13  -3 -21    1.26    5.70
  13  -3 -20    0.74    5.54
  14  -2 -15   -0.27    4.45
  16  -2 -19    0.19    5.62
  -5  -3  -8    1.11    2.48
  -4  -4 -14    0.40    4.24
  -4  -2  -4   44.28    2.34
  -3  -3  -8   29.51    3.22
  -2  -4 -14   -0.55    4.60
  -1  -3  -8   10.16    3.31
   0  -4 -14    2.81    4.54
   3  -3  -9    2.72    3.86
   4  -4 -16    0.62    5.13
   5  -3 -10    0.72    3.76
   6  -4 -18    4.82    5.81
   8  -4 -20    1.95    5.63
  11  -3 -16    3.83    5.14
  12  -2 -12    2.62    3.86
  13  -3 -19   -1.32    5.49
  16  -2 -18   -1.31    5.41
  -2  -4 -13    0.24    4.08
   4  -4 -15   -2.12    5.19
   6  -4 -17    4.13    5.32
   7  -3 -11   18.82    4.65
   8  -4 -19    2.58    6.02
   9  -3 -13    5.81    4.63
  11  -3 -15    6.67    4.98
  12   0  -6    0.91    1.90
  13  -3 -18    0.06    5.25
  16  -2 -17    2.23    4.70
  -7  -3  -8   47.40    2.92
  -6  -2  -4    2.13    1.59
  -4  -4 -13    0.82    4.09
   0  -4 -13   -3.18    4.43
   6  -4 -16    2.40    4.87
   8  -4 -18    5.78    5.77
   9  -3 -12    0.40    4.62
  10  -2  -9   38.17    3.87
  11  -1  -7    6.13    3.07
  12  -2 -11    1.11    3.73
  13  -3 -17    1.61    5.15
  13  -1  -9    0.76    2.66
  -4  -4 -12   -0.02    4.43
  -3  -3  -7    1.75    3.12
  -2  -4 -12   18.61    4.60
  -1  -3  -7   37.10    3.73
   0  -4 -12    4.68    4.27
   0  -2  -4   33.73    2.38
   3  -3  -8    4.79    3.50
   4  -4 -14    1.57    4.51
   6  -4 -15    7.74    5.55
   6  -2  -6   15.42    3.00
   7  -3 -10   29.02    4.34
   8  -4 -17   -3.70    6.04
  10  -4 -20    4.06    6.46
  11  -3 -14    4.16    4.49
  13  -3 -16    0.16    5.57
  14  -2 -13    6.21    4.32
  15  -3 -20   -2.42    5.52
  16  -2 -16   -2.04    4.76
  -5  -3  -7    7.01    2.66
   1  -3  -7   31.27    3.60
   4  -4 -13   -1.67    4.67
   4  -2  -5   35.66    2.22
   6  -4 -14    4.17    4.87
   8  -4 -16    1.51    5.40
  10  -4 -19   -7.37    5.84
  10  -4 -18   -0.35    5.48
  11  -3 -13    1.93    4.74
  15  -3 -19    8.36    4.95
  16  -2 -15   -1.88    4.59
  -7  -3  -7   15.24    2.63
  -4  -4 -11    3.98    4.09
  -2  -4 -11   14.42    3.92
  -1  -5 -19   -0.90    4.73
   0  -4 -11    2.20    4.42
   1  -5 -19    6.86    5.63
   2  -2  -4  202.90    3.84
   8  -4 -15    3.39    4.76
   9  -1  -5  109.09    3.10
  10  -4 -17   -0.65    5.29
  10  -2  -8   53.23    3.66
  12  -2 -10   -0.70    3.56
  13  -3 -15    0.78    5.40
  14  -2 -12    1.72    3.84
  15  -3 -18    1.46    5.50
  -6  -4 -11    1.31    3.80
  -3  -5 -19   -2.63    5.10
  -3  -5 -18   -3.37    5.02
  -1  -5 -18   -2.83    4.97
   1  -5 -18   -0.79    5.78
   2  -4 -11   -0.28    4.54
   3  -3  -7    8.11    3.67
   4  -4 -12    3.64    4.58
   5  -3  -8    4.91    4.00
   6  -4 -13   -2.27    4.93
   7  -3  -9   39.01    4.38
  11  -3 -12    3.72    4.69
  12  -4 -19    0.03    5.57
  13  -1  -8   21.46    2.73
  15  -3 -17   -1.98    5.04
  16  -2 -14    0.82    4.53
  -4  -4 -10   -0.25    3.76
  -3  -5 -17    1.98    4.71
  -3  -3  -6   31.30    3.05
  -2  -4 -10    0.01    3.87
  -1  -5 -17   -3.67    5.10
  -1  -3  -6   55.64    3.92
   0  -4 -10    0.43    3.98
   1  -5 -17   -2.33    5.56
   3  -5 -18    2.39    5.99
   8  -4 -14   -1.67    5.26
  10  -4 -16    0.92    5.11
  11  -1  -6    5.66    2.90
  12  -4 -18    1.00    5.46
  13  -3 -14    1.42    4.63
  -5  -3  -6   -2.84    2.56
  -4  -2  -3    6.12    1.56
  -3  -5 -16    2.05    5.72
  -1  -5 -16    1.97    5.11
   1  -5 -16    6.14    5.09
   1  -3  -6   41.37    3.87
   2  -4 -10    2.94    4.53
   4  -4 -11   -2.20    4.36
   5  -5 -18    4.42    5.89
   6  -4 -12   -3.21    4.63
   6  -2  -5   80.14    3.51
   8  -4 -13    2.34    5.34
  10  -4 -15    6.23    5.18
  11  -3 -11    5.43    4.19
  12  -4 -17    3.60    5.32
  12  -2  -9    3.87    3.52
  13  -3 -13    3.40    4.45
  15  -3 -16    2.98    5.05
  17  -3 -19    1.06    4.64
  -6  -4 -10   -0.78    3.39
  -3  -5 -15    0.23    5.43
  -2  -4  -9    3.74    4.05
  -1  -5 -15    3.65    4.89
   0  -2  -3    2.23    2.06
   1  -5 -15   -1.25    4.71
   4  -2  -4   22.20    2.52
   5  -5 -17    0.70    6.11
   5  -3  -7    3.73    3.82
   6  -4 -11    0.45    4.63
   7  -3  -8   26.84    4.17
  10  -4 -14   -0.07    4.81
  10  -2  -7   35.32    3.52
  15  -3 -15    5.27    5.25
  17  -3 -18    7.68    5.57
  -7  -3  -6   17.83    2.39
  -4  -4  -9    9.16    3.53
  -1  -5 -14    0.63    5.33
   0  -4  -9    1.95    3.83
   2  -4  -9   -0.24    4.02
   3  -3  -6   51.56    4.29
   4  -4 -10   36.65    4.70
   5  -5 -16    0.99    5.96
   7  -5 -17    3.69    5.67
   8  -4 -12   -3.03    5.16
  12  -4 -16   -2.94    5.41
  13  -3 -12   -0.48    4.49
  14  -4 -18   -1.03    6.16
  14  -2 -10   -1.57    3.63
  -6  -4  -9    0.61    3.45
  -3  -5 -14    1.84    5.08
  -1  -3  -5  148.65    4.43
   1  -5 -14   -3.34    4.69
   2  -2  -3    5.52    2.47
   5  -5 -15   -2.22    5.73
   7  -5 -16    5.64    6.56
  10  -4 -13   -1.38    5.76
  11  -3 -10   13.60    4.42
  12  -4 -15   -4.13    5.66
  12  -2  -8   14.87    3.63
  15  -3 -14    2.94    5.38
  17  -3 -17   -0.62    5.46
  -5  -3  -5    0.67    2.56
  -2  -4  -8    0.25    3.55
  -1  -5 -13    1.86    5.16
   0  -4  -8    2.88    3.79
   1  -5 -13    2.55    5.20
   1  -3  -5    2.60    3.42
   4  -4  -9    0.50    4.57
   5  -5 -14    4.38    5.34
   5  -3  -6    1.49    3.72
   6  -4 -10    2.37    4.70
   7  -3  -7    7.26    3.99
   8  -4 -11    4.22    4.78
   9  -5 -17   -2.38    5.84
   9  -1  -4    0.81    2.02
  12  -4 -14    5.34    4.96
  14  -4 -17   -0.63    5.31
  17  -3 -16    1.05    5.55
  -4  -4  -8    5.23    3.36
  -1  -5 -12   -0.87    5.31
   2  -4  -8   12.64    4.29
   6  -2  -4  120.04    3.62
   7  -5 -15    1.22    5.88
   9  -5 -16    0.85    6.01
  10  -2  -6   -1.20    3.22
  11  -3  -9    4.53    3.97
  11  -1  -5    0.37    2.66
  13  -3 -11   -1.77    4.43
  14  -4 -16    0.83    5.70
  14  -2  -9    4.77    3.72
  15  -3 -13   -4.83    5.00
  -6  -4  -8   13.03    3.44
  -3  -5 -12    0.86    4.60
   1  -5 -12   -1.82    5.19
   3  -3  -5    7.59    3.68
   4  -4  -8   13.39    4.33
   4  -2  -3    0.57    2.45
   5  -5 -13    3.32    5.36
   6  -4  -9   -0.62    4.82
   7  -5 -14   -2.11    6.24
   8  -4 -10   11.48    4.97
  12  -4 -13    7.43    5.66
  14  -4 -15   -5.86    5.20
  17  -3 -15    1.42    5.64
  -7  -3  -5    3.12    1.97
  -2  -4  -7   -2.31    3.90
  -1  -5 -11    0.50    4.84
   0  -4  -7   19.75    3.97
   1  -5 -11    9.62    4.74
   7  -3  -6    8.77    4.08
   9  -5 -15   -4.86    5.75
  12  -2  -7   10.10    3.53
  13  -3 -10    3.44    4.59
  15  -3 -12   10.67    5.06
  -4  -4  -7   21.09    3.52
  -3  -5 -11    0.14    4.47
  -3  -3  -4    5.35    2.93
   0  -2  -2    2.13    1.99
   1  -3  -4    5.72    3.39
   2  -4  -7    0.99    4.35
   5  -5 -12    2.26    4.85
   5  -3  -5   37.44    4.16
   6  -4  -8    2.75    4.68
   7  -5 -13   -0.33    5.46
   8  -4  -9   -3.47    5.02
   9  -5 -14   10.69    6.02
  11  -3  -8    3.22    4.32
  12  -4 -12   -0.80    5.41
  13  -1  -6    8.64    2.31
  14  -4 -14   -0.58    5.74
  17  -3 -14   -2.30    4.77
  -6  -4  -7    6.41    3.43
  -5  -3  -4    0.53    3.03
  -1  -5 -10   -0.44    4.86
   1  -5 -10    7.48    4.65
   4  -4  -7    0.87    4.62
   5  -5 -11    4.00    5.18
   8  -2  -4   37.48    3.27
   9  -5 -13    0.00    6.88
  11  -5 -15    0.64    6.27
  15  -3 -11    0.31    4.58
  16  -4 -16    3.30    5.41
  -3  -5 -10    2.71    4.37
   0  -6 -15    2.63    4.96
   2  -2  -2    9.53    2.50
   3  -3  -4   19.21    3.90
   6  -2  -3   13.45    2.81
  10  -2  -5   -3.90    3.04
  11  -5 -14   -3.25    5.81
  12  -4 -11   -0.21    5.49
  13  -3  -9    2.95    4.49
  14  -4 -13    0.98    5.07
  16  -4 -15   -2.39    5.55
  -2  -6 -15    2.25    5.29
  -1  -5  -9    5.97    4.30
   6  -4  -7    2.70    4.87
   7  -3  -5    2.77    3.72
   8  -4  -8    0.54    4.83
   9  -5 -12   -0.58    6.11
  11  -3  -7    3.62    3.97
  12  -2  -6    1.19    3.23
  -5  -3  -3   97.61    2.28
  -4  -4 -10   -0.95    2.42
  -2  -4 -15   -0.84    3.08
  -2  -4 -14    0.91    3.13
  -1  -3  -8    9.97    2.71
   1  -3 -12   -1.81    3.53
   2  -2  -8   60.94    2.99
   3  -3 -22   -0.23    5.79
   3  -3 -21   -2.24    4.76
   3  -3 -20    2.06    4.34
   6   0  -9   14.43    2.06
   7  -1 -26   -0.55    5.14
   8   0 -15   -3.49    3.08
   9   1 -16    3.12    2.38
  -3  -3  -5    5.22    1.95
  -2  -4 -13    0.50    2.76
   1  -3 -11   58.86    4.05
   3  -3 -23    2.42    5.10
   3  -3 -19   -3.30    4.20
   3  -3 -18    2.81    4.41
   3  -3 -17    5.81    4.24
   4  -2 -12   18.51    3.65
   6  -2 -23   -0.50    4.80
   6  -2 -22   -1.07    5.51
   6  -2 -20   -2.50    4.55
   8   0 -14    6.38    3.08
   9   1 -15    3.84    2.37
  -4  -4  -9    9.06    2.50
  -1  -3  -7   37.66    3.12
   0  -4 -21    1.16    3.99
   0  -4 -20   -0.12    3.88
   0  -4 -19   -0.69    3.68
   0  -4 -18   -2.12    3.81
   3  -3 -16    8.57    4.13
   4  -2 -11    9.25    3.39
   5  -1  -9   67.54    3.04
   6  -2 -24   -2.44    5.18
   6  -2 -19    0.60    4.16
   6  -2 -18    2.25    4.19
   7  -1 -14   -1.79    3.33
   7   1  -9   87.41    2.43
   0  -4 -17   -1.55    3.57
   0  -4 -16   -1.19    3.13
   1  -3 -10   23.17    3.19
   2  -2  -7    0.29    2.22
   3  -3 -15   24.11    4.19
   3  -3 -14    0.00    3.75
   6  -2 -17   -0.53    4.01
   6  -2 -16    0.27    4.26
   8   0 -13   -0.48    2.82
   9   1 -14   46.49    2.64
  -4  -4  -8    7.09    2.83
  -2  -4 -11    9.63    2.96
   0  -4 -15   -3.58    3.63
   4  -2 -10  179.08    4.69
   6  -2 -15   46.41    4.39
   6   0  -8   50.23    2.28
   7  -1 -13   -3.74    3.34
  10   0 -25    0.58    3.17
  10   0 -24   -4.38    3.90
  10   0 -23    5.37    3.73
  10   0 -22   -2.26    3.65
  10   0 -21   -0.38    3.84
  -3  -3  -4    8.44    1.89
  -2  -4 -10    2.62    3.07
   0  -4 -14   -2.40    3.74
   1  -3  -9    8.24    2.75
   3  -3 -13    8.05    3.53
   3  -1  -5   39.94    2.00
   5  -3 -23   -4.83    5.67
   5  -3 -22   -4.35    5.66
   5  -3 -21    1.50    5.36
   5  -3 -20    2.15    4.83
   5  -3 -19   -1.77    4.02
   5  -1  -8    7.95    2.12
   6  -2 -14   11.98    3.69
   7  -1 -12   -3.24    2.86
   8   0 -12   13.60    2.73
   9  -1 -24    0.57    4.13
   9  -1 -23   -3.12    4.10
   9  -1 -22    3.78    3.86
   9  -1 -21   -2.54    4.16
   9  -1 -20    3.94    4.09
   9   1 -13   10.30    2.21
  10   0 -26   -0.04    2.79
  10   0 -20    0.34    3.25
  10   0 -19    2.72    3.11
   0  -4 -13    0.90    3.44
   2  -4 -21    0.58    3.83
   2  -4 -20   -0.24    4.08
   2  -4 -19    4.31    4.12
   2  -4 -18    2.88    4.45
   4  -2  -9   11.12    3.03
   5  -3 -18    0.93    4.62
   5  -3 -17    3.61    3.88
   8  -2 -24    2.86    4.78
   8  -2 -23    0.43    4.57
   8  -2 -22   -2.39    4.60
   9  -1 -19    3.60    3.66
   9  -1 -18    2.23    3.82
  10   0 -18    2.40    3.17
  -2  -4  -9    2.86    2.63
   0  -4 -12    1.89    3.48
   1  -3  -8    7.37    2.73
   2  -4 -17   -0.42    4.46
   5  -3 -16    1.92    3.97
   6  -2 -13    3.40    2.40
   8  -2 -21    1.31    4.10
   8  -2 -20    6.01    4.37
   8  -2 -19    0.96    4.21
   8   0 -11    1.46    2.50
   9  -1 -17    1.20    3.51
   9   1 -12    5.50    2.09
  10   0 -17   -0.68    2.83
   2  -4 -16   -5.42    4.20
   5  -3 -15    3.23    4.00
   6  -2 -12    1.28    3.25
   7  -1 -11   44.16    2.66
   9  -1 -16    9.06    3.37
  10   0 -16    5.42    2.98
  -1  -5 -19    1.25    3.60
  -1  -3  -5  155.15    3.37
   0  -4 -11    5.09    3.31
   2  -4 -15   -0.63    3.64
   4  -2  -8   57.61    3.18
   7  -3 -23   -2.31    5.33
   7  -3 -22    1.26    4.62
   8  -2 -17    2.90    3.84
   9  -1 -15    4.90    3.28
  10   0 -15    6.07    2.61
  -2  -4  -8    1.73    2.37
  -1  -5 -18    0.68    3.56
  -1  -5 -17    0.96    3.99
   1  -3  -7   36.03    2.89
   2  -4 -14    4.29    3.54
   4  -4 -19    0.81    5.26
   6  -2 -11   10.98    3.33
   7  -3 -21   -4.05    4.88
   7  -3 -20   -2.46    5.03
   7  -3 -19    1.62    3.90
   7  -1 -10  103.69    3.95
   8  -2 -16    1.61    3.83
   8   0 -10   42.33    2.60
   9   1 -11    2.12    1.98
  11  -1 -24    2.37    3.94
  11  -1 -23   -0.56    4.39
  -3  -3  -3    1.28    1.70
  -1  -5 -16    0.66    3.50
   0  -4 -10   -2.21    3.01
   2  -4 -13    8.06    3.66
   3  -1  -4   65.34    1.91
   4  -4 -18    2.77    4.47
   4  -4 -17    5.52    4.05
   5  -3 -13    3.10    3.27
   7  -3 -18   -2.05    4.59
   8  -2 -15    5.14    3.63
  10   0 -14    8.24    2.78
  11  -1 -22   -1.65    4.08
  11  -1 -21    3.71    3.89
  12   0 -24   -0.35    3.56
  12   0 -23   -2.16    3.73
  12   0 -22   -0.18    3.46
  -1  -5 -15    0.63    3.21
   1  -5 -19   -0.50    3.79
   2  -4 -12   -1.37    3.65
   4  -4 -16    0.97    4.22
   4  -2  -7   20.17    2.36
   5  -3 -12    8.05    3.54
   6  -2 -10    4.75    3.02
   7  -3 -17    6.76    4.47
   8  -2 -14    5.63    3.50
  11  -1 -20   -5.39    4.18
  11  -1 -19    0.83    3.66
  11   1 -15   -0.15    2.53
  12   0 -21   -1.68    3.18
  12   0 -20    2.64    3.30
  -2  -4  -7    0.25    2.14
  -1  -5 -14   -0.22    3.03
   0  -4  -9    1.76    2.63
   1  -5 -18   -0.02    3.45
   4  -4 -15    3.61    3.86
   5  -1  -6   -1.11    1.84
   7  -3 -16    5.60    4.10
   7  -1  -9   91.56    3.40
   8   0  -9    9.60    2.59
  10  -2 -19   -2.15    4.62
  10   0 -13    2.25    2.67
  11  -1 -18    3.10    3.91
  12   0 -19   -0.96    3.16
  -1  -5 -13    2.61    3.25
  -1  -3  -4    1.08    1.98
   1  -5 -17   -0.98    3.58
   1  -5 -16    0.03    3.78
   1  -3  -6   39.88    2.73
   2  -4 -11   -0.17    3.14
   4  -4 -14    1.75    3.67
   6  -4 -21    0.41    4.83
   6  -4 -20    1.22    4.89
   6  -4 -19   -4.57    5.66
   7  -3 -15    1.98    3.83
   8  -2 -13    0.10    3.52
   9  -3 -22    3.59    5.11
   9  -3 -21    1.46    4.69
   9   1 -10    7.87    1.96
  10  -2 -18    0.03    4.17
  11  -1 -17    0.35    3.62
  11   1 -14   -1.95    2.90
  12   0 -18    3.63    3.15
   0  -4  -8   -0.57    2.79
   1  -5 -15    3.59    4.24
   6  -2  -9    8.69    3.01
   9  -3 -20   -3.25    5.33
  10  -2 -17   -1.62    4.09
  10   0 -12   11.05    2.72
  11  -1 -16   -1.73    3.39
  12   0 -17    2.28    3.32
  -2  -4  -6    8.43    2.13
  -1  -5 -12   -2.85    3.71
   2  -4 -10   -1.29    3.15
   2  -2  -4  208.61    3.08
   3  -5 -19    0.52    3.83
   3  -5 -18   -0.75    4.17
   4  -2  -6    2.48    2.05
   5  -3 -10    4.77    3.07
   7  -1  -8   64.62    2.88
   8  -2 -12    7.37    2.45
   9  -3 -19   -1.75    4.55
   9  -3 -18    0.96    3.94
  10  -2 -16    8.57    3.97
  13  -1 -24   -2.08    3.69
  13  -1 -23    1.01    4.02
   1  -5 -14   -3.10    3.95
   3  -5 -17   -1.96    4.37
   4  -4 -12    3.66    3.54
   7  -3 -13   -1.05    3.59
   8   0  -8   21.93    2.57
   9  -3 -17    0.79    4.35
  10  -2 -15   -1.41    3.96
  11  -1 -15    1.39    3.18
  11   1 -13    5.70    2.17
  12  -2 -23    1.11    4.85
  12  -2 -22   -1.51    4.90
  12   0 -16    3.47    3.14
  13  -1 -22    1.04    4.08
  13  -1 -21   -4.32    4.37
  -3  -3  -2    6.82    1.49
   0  -4  -7   17.43    2.96
   1  -5 -13    3.28    3.61
   1  -3  -5    1.50    2.14
   2  -4  -9    2.14    2.84
   3  -5 -16   -1.11    4.39
   6  -2  -8   22.86    3.05
   7  -3 -12   -2.19    3.87
   8  -4 -20   -0.52    4.85
   8  -2 -11    3.41    3.03
   9  -3 -16    2.22    4.48
  10   0 -11   17.39    2.78
  12  -2 -21    6.80    4.85
  12  -2 -20    0.41    4.15
  12   0 -15    2.63    3.00
  13  -1 -20    2.52    3.78
   1  -5 -12   -1.68    3.92
   3  -5 -15   -0.77    4.49
   4  -4 -11   -4.25    3.81
   5  -5 -19   -1.84    5.18
   5  -3  -9   20.88    3.35
   5  -1  -5   84.22    2.41
   8  -4 -19   -0.18    5.13
  10  -2 -14    6.37    3.90
  11  -3 -22   -1.71    5.66
  11  -3 -21   -0.16    4.89
  11  -1 -14    3.23    3.09
  12  -2 -19   -3.53    4.27
  13  -1 -19   -1.32    3.94
  -2  -4  -5   11.25    2.43
  -1  -3  -3    2.28    1.82
   3  -5 -14    2.86    4.37
   5  -5 -18    2.84    4.79
   7  -3 -11   18.70    3.70
   7  -1  -7   13.26    2.23
   8  -4 -18    7.29    5.06
   8  -2 -10   31.54    3.60
   9  -3 -15    2.18    3.94
  11  -3 -20   -0.06    5.20
  11  -1 -13    5.52    2.96
  11   1 -12    6.62    1.92
  12   0 -14    5.54    3.09
  13  -1 -18    0.90    3.72
  14   0 -20   -0.14    3.54
   1  -5 -11    6.74    4.02
   2  -4  -8   12.14    3.03
   3  -3  -6   51.60    3.29
   4  -4 -10   39.28    4.05
   4  -2  -5   33.66    2.20
   5  -5 -17    2.00    4.67
   5  -3  -8    2.23    3.02
   6  -2  -7    0.17    2.74
   8  -4 -17    1.55    4.49
   9  -3 -14   18.62    4.29
  10  -2 -13    0.75    3.66
  10   0 -10   -2.61    2.59
  11  -3 -19    1.68    4.95
  13  -1 -17   -3.13    3.53
  14   0 -19    1.75    3.30
   0  -4  -6   -1.27    2.29
   1  -3  -4    2.83    2.26
   3  -5 -13    5.75    4.20
   5  -5 -16   -1.51    4.70
   8  -4 -16   -0.99    4.07
   8   0  -7    6.53    2.00
  11  -3 -18   -2.89    4.84
  12   0 -13   36.10    3.57
  14   0 -18    4.30    3.60
   1  -5 -10    6.74    3.91
   5  -5 -15    1.54    4.46
   7  -3 -10   34.81    2.96
   8  -4 -15    3.55    4.07
   8  -2  -9    8.88    3.03
   9  -3 -13   -1.18    4.12
  10  -4 -19   -1.23    5.07
  10  -2 -12    4.14    3.45
  11  -3 -17   -0.72    4.08
  11  -1 -12    2.17    3.18
  11   1 -11   -0.72    2.07
  13  -1 -16   -0.41    3.67
  14  -2 -22    2.51    4.60
  14  -2 -21   -3.53    4.99
  14   0 -17    2.58    4.14
  15  -1 -23    0.49    3.25
  15  -1 -22    3.77    3.78
   2  -4  -7    1.09    2.78
   3  -5 -12    3.83    3.53
   4  -4  -9    4.91    3.31
   5  -5 -14   -0.88    4.59
   5  -3  -7    3.75    2.67
   7  -5 -18   -2.33    5.23
   8  -4 -14    3.97    4.22
   9  -3 -12   -1.87    3.91
  10  -4 -18   -4.58    4.87
  11  -3 -16    1.18    4.22
  13  -3 -21    0.69    5.07
  13  -1 -15    8.96    3.66
  14  -2 -20    0.64    4.85
  15  -1 -21    4.43    3.90
  -2  -4  -4    6.67    1.84
   3  -5 -11   -1.12    3.95
   3  -3  -5   10.59    2.60
   5  -1  -4  475.98    4.12
   6  -2  -6   13.94    2.53
   7  -5 -17    2.14    5.10
   7  -3  -9   36.56    3.92
   7  -1  -6   28.74    2.28
  10  -4 -17   -2.64    4.99
  10  -2 -11   12.68    3.49
  11  -3 -15    2.18    4.72
  11  -1 -11    3.81    3.27
  12   0 -12    4.41    3.07
  13  -3 -20    0.27    5.33
  14  -2 -19   -3.93    4.54
  14   0 -16   -0.09    3.64
  15  -1 -20    1.46    4.26
   0  -4  -5    9.26    2.30
   1  -5  -9   -0.28    3.36
   4  -4  -8   11.33    3.23
   4  -2  -4   21.04    1.87
   5  -5 -13   -3.51    4.67
   6  -4 -10   -0.44    3.55
   7  -5 -16    1.41    4.88
   8  -4 -13    0.03    4.29
   8  -2  -8    4.16    3.16
   9  -3 -11    0.08    3.80
  10  -4 -16    3.26    4.70
  13  -3 -19    4.95    4.91
  13  -1 -14    2.81    3.66
  14  -2 -18    3.21    4.14
  15  -1 -19   -4.11    4.39
  -1  -3  -2    0.77    1.83
   2  -4  -6    6.85    2.85
   3  -5 -10    0.45    4.06
   7  -5 -15   -1.01    4.64
   8  -4 -12    2.00    3.78
  10  -2 -10    0.20    3.42
  11  -3 -14   -0.63    4.22
  11   1 -10   10.02    1.97
  13  -3 -18    1.92    5.17
  14  -2 -17    1.36    4.24
   1  -5  -8    0.61    3.60
   1  -3  -3    2.39    1.73
   4  -6 -16    4.12    4.50
   5  -5 -12    0.78    4.45
   5  -3  -6    0.70    2.94
   7  -3  -8   26.76    3.57
   8   0  -6    6.82    1.60
  10  -4 -15    0.70    4.46
  11  -3 -13    3.60    4.12
  11  -1 -10   12.14    3.28
  12   0 -11    5.75    2.89
  13  -3 -17    2.38    5.28
  13  -1 -13    0.74    3.72
  15  -1 -17   -0.85    3.88
   4  -6 -15   -2.31    4.59
   4  -4  -7    6.22    3.14
   5  -5 -11   -1.64    4.67
   6  -4  -9    1.58    3.71
   6  -2  -5   80.99    2.89
   7  -5 -14    1.43    4.09
   8  -4 -11    4.10    3.87
   8  -2  -7    1.27    3.07
   9  -5 -17   -1.06    5.25
   9  -3 -10    6.75    3.66
  10  -4 -14    6.32    4.25
  10   0  -8   88.54    2.95
  12  -4 -18   -1.95    5.26
  12  -2 -12    5.95    3.74
  13  -3 -16    3.05    4.17
  14  -2 -16    4.04    4.36
  14   0 -14    3.10    3.03
  16  -2 -21    0.70    4.48
  -2  -4  -3   15.37    2.13
   0  -4  -4    3.13    2.13
   3  -5  -9    2.73    3.63
   3  -3  -4   19.09    2.48
   7  -5 -13   -3.70    4.68
   7  -1  -5   10.53    2.04
   9  -5 -16    0.83    5.39
  10  -2  -9   30.55    3.79
  11  -3 -12    0.32    4.09
  12  -4 -17    1.54    5.48
  13  -1 -12    5.80    3.36
  14  -2 -15   -3.64    4.35
  15  -1 -16    0.87    4.16
  16  -2 -20   -2.50    4.62
  17  -1 -21    2.27    4.55
   1  -5  -7    5.08    2.87
   4  -6 -14    1.42    4.41
   5  -5 -10    4.64    4.30
   6  -4  -8    6.51    3.52
   7  -3  -7    4.05    3.32
   9  -5 -15   -1.48    4.53
   9  -3  -9    1.25    3.78
  10  -4 -13    3.33    4.18
  11  -1  -9   10.47    3.33
  12  -4 -16   -4.87    6.00
  12   0 -10   -0.41    2.51
  13  -3 -15    5.59    4.36
  14   0 -13    3.91    3.43
  15  -1 -15   -1.65    4.65
  16  -2 -19    0.00    4.61
  17  -1 -20    0.57    5.00
   3  -5  -8   -3.13    3.63
   4  -6 -13   -0.31    5.03
   4  -4  -6   -2.05    3.12
   4  -2  -3   -0.59    1.79
   5  -1  -3  213.12    2.97
   7  -5 -12   -0.13    4.47
  10  -4 -12   -1.28    4.43
  11  -3 -11    1.60    4.23
  12  -4 -15   -3.62    6.20
  12  -2 -11    1.54    3.91
  13  -3 -14    2.96    4.58
  14  -2 -14    1.12    4.35
  16  -2 -18   -1.61    4.95
  17  -1 -19   -1.79    5.32
   6  -6 -15    1.54    4.19
   8  -2  -6   11.62    2.83
   9  -5 -14    2.55    5.49
  10  -2  -8   54.90    3.95
  13  -1 -11    0.73    3.62
  15  -1 -14    0.94    4.14
  16  -2 -17   -1.32    4.95
   1  -5  -6    2.74    3.32
   1  -3  -2   68.95    2.32
   4  -6 -12    5.02    4.74
   5  -5  -9    2.18    4.04
   6  -6 -14    0.48    4.28
   6  -4  -7    1.72    3.37
   6  -2  -4  110.87    3.12
   7  -5 -11    7.20    4.12
   7  -3  -6    7.57    3.39
   8   0  -5    1.78    1.44
   9  -5 -13    3.57    5.01
   9  -3  -8   -0.80    3.61
   9  -1  -6   11.05    2.86
  10  -4 -11    2.88    4.50
  11  -3 -10    4.21    4.03
  11  -1  -8   10.63    3.19
  12  -4 -14    0.89    5.49
  12  -2 -10   -4.15    3.74
  13  -3 -13    2.49    4.71
  14  -2 -13    3.19    4.19
  14   0 -12    0.81    2.72
  17  -1 -18   -3.52    5.37
  -1  -3  -1    0.16    1.96
   0  -4  -3    0.69    2.46
   2  -4  -4   36.41    3.04
   3  -5  -7    1.32    3.50
   3  -3  -3   32.70    2.59
   6  -6 -13   -0.33    4.78
  12   0  -9    4.85    2.34
  14  -4 -17   -0.42    5.93
  15  -3 -16    1.07    5.53
  15  -1 -13    8.45    4.92
  16  -2 -16    2.85    4.64
  17  -1 -17    4.08    5.20
   4  -6 -11   -2.93    4.80
   4  -4  -5    7.28    3.06
   5  -5  -8   -0.47    4.00
   7  -5 -10    6.39    4.21
   9  -5 -12   -0.25    4.71
  10  -4 -10   -0.65    4.11
  10  -2  -7   34.98    3.87
  12  -4 -13    8.25    4.75
  13  -3 -12    6.10    4.69
  13  -1 -10    5.66    3.62
  14  -4 -16    5.19    5.40
  14  -2 -12   -3.85    4.53
  15  -3 -15   -0.45    5.20
  16  -2 -15   -3.29    4.43
   6  -6 -12    4.48    4.87
   6  -4  -6   -3.76    3.61
   8  -6 -14   -0.94    4.61
   8  -2  -5    3.78    2.84
   9  -3  -7   17.43    3.53
  11  -3  -9   -0.84    4.24
  12  -4 -12   -3.30    4.76
  12  -2  -9    4.82    3.72
  14  -4 -15   -9.22    6.09
  14   0 -11    2.79    2.45
  17  -1 -16    4.97    4.82
  18  -2 -19    3.01    4.75
   1  -5  -5   -0.65    2.66
   4  -2  -2   30.12    2.05
   7  -5  -9    7.04    4.47
   7  -3  -5    1.02    2.92
   9  -5 -11   -1.13    4.33
  11  -1  -7    4.41    3.12
  13  -3 -11   -1.29    4.55
  15  -3 -14   -3.64    4.73
  15  -1 -12   23.78    4.57
  16  -2 -14    3.68    4.97
  17  -1 -15    5.07    5.11
  18  -2 -18   -0.46    4.78
   5  -5  -7   -1.58    4.14
   6  -6 -11   -3.13    5.05
   6  -2  -3   18.26    2.28
   8  -6 -13   -3.08    5.12
   9  -1  -5  112.87    3.33
  10  -4  -9    9.93    4.25
  10   0  -6    0.34    1.89
  11  -3  -8    0.61    4.02
  12  -4 -11   -5.59    5.04
  12  -2  -8   14.57    3.79
  12   0  -8   26.93    2.41
  13  -1  -9    2.24    3.54
  14  -4 -14    2.71    5.65
  17  -3 -17   -4.20    5.65
  18  -2 -17   -1.65    4.64
   2  -4  -3    0.52    2.36
   3  -3  -2   18.04    2.45
   4  -4  -4    3.29    2.96
   6  -4  -5   14.25    3.48
   7  -5  -8    3.33    4.50
   8  -6 -12   -2.76    5.22
   9  -5 -10   -7.69    4.84
   9  -3  -6    5.82    3.82
  10  -2  -6   -1.71    3.26
  13  -3 -10    0.41    4.30
  14   0 -10   -0.67    2.38
  15  -1 -11   -3.32    4.06
  16  -2 -13   -2.33    5.02
  16   0 -13   -2.90    3.40
  17  -3 -16   -7.26    5.76
   0  -4  -2    1.53    2.01
   1  -3  -1    1.72    1.85
   3  -5  -5    1.83    3.43
   6  -6 -10   -0.87    5.22
   8  -2  -4   39.97    3.28
   8   0  -4   68.13    2.23
  12  -4 -10    0.95    5.38
  13  -5 -14    5.10    6.10
  15  -3 -12   13.72    4.60
   7  -3  -4    2.30    2.01
   7  -1  -3    6.12    1.88
   8  -6 -11    0.62    4.78
   9  -5  -9   -1.08    4.74
  11  -3  -7    3.47    3.90
  13  -5 -13   -0.75    5.33
  13  -3  -9   -4.64    4.39
  13  -1  -8   18.69    3.69
  14  -4 -12    3.70    5.53
  16  -2 -12    2.06    5.03
  16   0 -12    1.49    2.86
  17  -1 -13   -1.43    3.89
  18  -2 -15   -1.52    4.58
   6  -6  -9   -1.64    4.84
   7  -5  -7   -0.10    3.96
   9  -3  -5   33.38    3.78
  10  -4  -7    7.39    4.19
  10  -2  -5   -0.46    3.33
  12  -4  -9    7.52    4.85
  12  -2  -7   14.79    2.92
  12   0  -7   22.51    2.27
  15  -3 -11   -1.62    4.95
  15  -1 -10    6.77    3.52
  16  -4 -14    5.18    5.60
  19  -1 -16    0.36    4.79
   2  -4  -2    5.85    2.73
   4  -4  -3    3.56    2.98
   6  -4  -4   19.84    3.69
   8  -6 -10   -1.99    4.97
   9  -5  -8   -4.22    5.05
   9  -1  -4    1.74    2.20
  10  -6 -12   -2.94    5.53
  13  -5 -12   -0.31    5.73
  14  -4 -11   -2.17    5.44
  14   0  -9    8.44    2.60
  16  -2 -11    4.03    5.00
  17  -1 -12    5.82    4.26
  18  -2 -14   -5.41    5.63
  -1  -3   0    0.66    1.54
   3  -5  -4    2.66    3.25
   5  -5  -5   13.44    3.74
   6  -6  -8    0.88    4.92
   6  -2  -2    2.48    2.16
   7  -5  -6    3.27    4.19
  10  -6 -11    6.03    5.54
  10   0  -5    2.57    1.87
  11  -3  -6   -1.15    3.77
  13  -3  -8    3.33    4.35
  13  -1  -7   61.41    3.71
  15  -3 -10    8.29    4.95
  16  -4 -13   -0.67    5.81
  16   0 -11    0.43    2.73
  19  -1 -15   -0.64    4.87
  20  -2 -17    6.19    5.28
   3  -3  -1   35.44    2.61
   7  -3  -3   -0.58    2.75
   8  -6  -9    4.11    4.99
   8  -2  -3  296.16    5.10
   9  -5  -7    2.41    4.30
  10  -4  -6   -0.39    4.33
  11  -5  -9   -0.18    4.68
  12  -4  -8    5.35    3.48
  12  -2  -6   -1.41    3.98
  13  -5 -11   -2.07    5.52
  14  -4 -10   -2.60    4.85
  15  -1  -9    2.04    3.30
  16  -2 -10    5.81    4.86
  18  -2 -13    2.88    5.48
   0  -4  -1    5.60    2.02
   9  -3  -4   -1.80    3.25
  10  -6 -10    1.29    4.82
  10  -2  -4    1.54    3.28
  13  -3  -7   19.78    4.85
  14   0  -8    3.51    2.80
  15  -3  -9    3.27    4.55
  16  -4 -12   -2.01    5.55
  17  -1 -11    2.04    3.82
  19  -1 -14   -3.20    4.72
  20  -2 -16   -2.14    5.02
   4  -4  -2    6.79    3.00
   5  -5  -4   28.48    3.95
   5  -1  -1    4.74    1.83
   6  -6  -7    1.93    4.11
   6  -4  -3    2.90    3.39
   7  -5  -5   -1.31    4.16
   7  -1  -2   18.36    2.35
   8  -6  -8   -0.70    5.06
  11  -5  -8   -5.84    5.03
  11  -3  -5   -1.33    3.78
  12  -4  -7    4.28    4.55
  12   0  -6    2.53    2.14
  13  -5 -10    2.60    5.45
  14  -4  -9   -4.95    4.96
  16  -4 -11    1.88    5.38
  16   0 -10    0.11    2.69
  18  -2 -12    8.64    5.45
  19  -3 -14   -1.99    5.94
  20  -2 -15    1.92    5.47
   1  -3   0    1.41    1.89
   3  -5  -3    2.48    3.16
   8   0  -3  455.60    4.14
   9  -5  -6    6.39    4.38
   9  -1  -3   20.94    2.42
  10  -6  -9    3.51    5.10
  10  -4  -5   -6.07    4.38
  13  -1  -6   12.05    3.06
  15  -1  -8    2.04    3.33
  16  -2  -9   -3.33    4.96
  17  -1 -10    2.88    4.19
  19  -1 -13    3.48    4.33
   2  -4  -1   -1.93    2.48
   6  -6  -6   -2.81    4.52
   8  -6  -7   -2.79    5.29
   9  -3  -3    4.52    3.39
  11  -5  -7    1.09    4.97
  12  -4  -6    3.96    4.12
  13  -3  -6    8.89    4.06
  14  -4  -8    1.65    4.74
  15  -3  -8    0.70    4.96
  16  -4 -10    1.92    5.88
  18  -2 -11    4.36    5.22
  19  -3 -13   -0.43    6.25
  20  -2 -14   -5.26    5.52
   5  -5  -3    4.67    4.26
   6  -2  -1    3.49    2.13
   7  -5  -4   -0.07    4.30
   8  -4  -3   60.10    4.58
   8  -2  -2   17.41    2.16
  10  -6  -8   -0.06    5.26
  10  -2  -3    1.75    3.06
  10   0  -4    3.19    1.91
  11  -3  -4    0.98    3.71
  15  -5 -10   -5.11    6.87
  16  -2  -8   -3.80    4.62
  16   0  -9   -1.70    3.09
  19  -3 -12    5.72    5.68
  19  -1 -12    4.23    3.93
   3  -3   0  141.11    3.54
   4  -2   0   -0.28    1.74
   6  -4  -2    0.74    3.11
   9  -5  -5    5.42    4.31
  10  -4  -4   -1.14    3.98
  11  -5  -6    2.67    4.52
  14  -4  -7    1.14    4.54
  15  -3  -7   -1.92    4.78
  15  -1  -7    5.58    3.16
  16  -4  -9   -0.75    5.97
  17  -3  -9    2.31    4.71
  17  -1  -9    0.05    3.77
  18  -2 -10   -1.76    5.34
   0  -4   0  221.04    4.24
   3  -5  -2    3.45    3.02
   4  -4  -1    5.77    2.96
   6  -6  -5    0.03    4.49
   8  -6  -6    2.75    5.22
  10  -6  -7   -1.37    5.52
  12  -4  -5   -1.60    4.36
  12  -2  -4   11.98    3.54
  13  -3  -5   -0.35    4.32
  13  -1  -5    3.04    2.82
  15  -5  -9   -1.65    5.56
  18  -4 -11    5.27    6.49
  19  -3 -11   -0.78    6.12
  19  -1 -11    2.53    3.73
  20  -2 -12   -1.98    5.21
   7  -5  -3    4.82    4.06
   7  -3  -1    8.01    3.01
   9  -5  -4    5.59    4.32
   9  -3  -2   -1.56    3.40
   9  -1  -2    2.12    2.19
  12  -6  -8    2.40    4.94
  14  -2  -5   -1.03    3.60
  16  -4  -8   -4.72    5.93
  16  -2  -7   11.78    4.50
  18  -2  -9   -4.00    4.71
   5  -5  -2    1.03    3.64
   7  -1  -1   34.98    2.60
   8  -6  -5   -2.71    4.60
   8  -4  -2    2.94    3.67
  11  -5  -5    1.11    4.95
  11  -3  -3   23.74    4.11
  14  -4  -6   -1.67    4.37
  14   0  -6    0.57    2.80
  15  -5  -8   -4.94    5.57
  15  -3  -6    1.29    4.94
  15  -1  -6    1.73    3.09
  16   0  -8    0.73    2.65
  17  -3  -8   -2.49    4.89
  17  -1  -8    4.15    3.83
  18  -4 -10   -0.44    5.91
  19  -3 -10   -4.00    6.13
  20  -2 -11    6.23    5.23
   1  -3   1    0.64    2.35
   6  -6  -4    1.12    4.33
   8  -2  -1   14.82    2.64
  10  -6  -6   -2.17    4.99
  10  -2  -2    8.90    2.51
  12  -6  -7    0.75    5.79
  12  -4  -4    3.03    4.22
  12  -2  -3    3.75    3.39
  13  -3  -4   -3.02    4.07
  16  -4  -7    6.55    5.23
  18  -4  -9    1.86    5.48
  19  -1 -10    3.09    3.35
   4  -4   0   -1.31    3.04
   5  -1   0   -1.43    1.96
   6  -2   0    7.07    2.45
   8   0  -2   39.09    2.16
   9  -5  -3   -1.92    4.43
  11  -5  -4   -0.72    5.35
  13  -1  -4    0.52    2.79
  14  -4  -5    2.94    4.72
  15  -5  -7    0.92    5.44
  15  -3  -5   -1.38    4.53
  16  -2  -6    4.17    4.02
  17  -3  -7    0.12    5.04
  18  -2  -8    0.20    4.34
  19  -3  -9   -1.39    6.38
  20  -2 -10    0.39    4.93
  22  -2 -13   -0.75    4.95
   7  -5  -2    1.28    4.04
   8  -6  -4    4.88    4.99
   9  -3  -1    1.49    3.57
  10  -6  -5   -2.49    5.24
  14  -2  -4    0.35    3.78
  15  -1  -5    4.32    3.39
  17  -1  -7    3.74    3.48
  18  -4  -8    0.41    5.53
  19  -1  -9   -2.31    3.80
   3  -3   1  255.56    4.30
   5  -5  -1   -0.85    3.55
   6  -6  -3    4.86    4.22
   7  -3   0    7.06    3.17
   8  -4  -1    1.11    3.41
  12  -6  -6   -1.94    4.91
  12  -4  -3   -0.92    4.12
  13  -3  -3    2.62    4.24
  15  -5  -6   -0.90    5.04
  16  -4  -6    3.54    5.45
  17  -3  -6    1.68    4.94
  18  -2  -7   -0.75    4.69
  20  -2  -9   -4.10    4.22
  22  -2 -12   -3.33    4.93
   0  -4   1    4.17    2.16
   4  -2   1    1.40    1.70
   6  -4   0    1.87    3.32
   9  -5  -2    1.30    4.21
   9  -1  -1    3.55    2.43
  10  -6  -4   -0.52    5.25
  10  -2  -1    8.43    3.54
  11  -5  -3    4.30    4.90
  12  -2  -2    2.69    3.58
  14  -4  -4   -0.90    4.19
  14   0  -5    1.10    2.70
  15  -3  -4    1.60    4.66
  18  -4  -7   -1.61    5.55
  22  -2 -11   -2.18    4.92
   2  -4   1    3.63    2.62
   3  -5   0   20.09    3.16
   5  -3   1    0.89    2.88
   7  -5  -1   -3.62    4.19
   8  -6  -3    5.39    5.10
   8  -2   0   14.66    2.34
  12  -6  -5    3.61    5.42
  13  -1  -3    4.77    2.81
  14  -2  -3    1.78    3.73
  16  -4  -5    6.62    5.22
  17  -1  -6    2.18    3.60
  19  -1  -8    2.53    3.38
   4  -4   1    4.16    3.03
   7  -1   0   20.93    2.03
   8  -4   0    0.25    3.73
   9  -3   0    3.31    3.36
  11  -3  -1    0.24    3.90
  12  -4  -2    0.96    3.87
  13  -3  -2   -2.31    3.81
  14  -4  -3   -1.87    4.76
  15  -5  -5  -10.03    5.19
  15  -1  -4   -0.27    3.27
  17  -3  -5   -2.35    4.53
  18  -2  -6    0.69    3.83
  20  -2  -8   -6.03    4.18
  21  -3  -9   -2.25    6.28
  22  -2 -10   -0.14    4.65
   5  -5   0    0.34    3.42
   6  -2   1  240.51    4.07
   7  -3   1    3.42    2.56
   8  -6  -2    2.05    5.02
   9  -5  -1   -0.52    4.29
  10   0  -2    7.53    2.35
  11  -5  -2    7.98    5.06
  12  -6  -4    1.07    5.19
  12   0  -3    2.19    2.62
  15  -3  -3    1.27    4.33
  16  -4  -4    1.52    4.85
  18  -4  -6    3.34    4.99
  19  -1  -7    1.09    3.53
   1  -3   2   -1.01    3.10
   6  -4   1   48.11    4.04
   7  -5   0    0.92    3.91
  10  -2   0   25.52    3.66
  12  -2  -1    3.61    3.36
  14  -2  -2   49.65    4.28
  14   0  -4    3.99    2.71
  15  -5  -4    3.17    5.46
  17  -3  -4    3.57    4.45
  17  -1  -5    2.37    3.51
  18  -2  -5   -3.40    4.11
  20  -2  -7    4.07    4.36
  21  -3  -8   -1.59    6.09
  21  -1  -9    1.63    4.00
  22  -2  -9    0.62    4.44
   3  -3   2    7.99    3.30
   8   0  -1   40.58    2.32
  12  -6  -3    1.79    5.37
  12  -4  -1   -0.85    3.72
  13  -3  -1    1.88    3.54
  13  -1  -2    1.41    3.03
  14  -4  -2   20.82    4.67
  15  -1  -3    3.08    3.58
  18  -4  -5   -2.24    5.62
   2  -4   2   12.85    3.07
   3  -5   1   34.89    3.31
   5  -5   1   -0.71    3.64
   5  -3   2   18.52    3.79
   8  -6  -1    3.08    4.91
   8  -4   1    4.38    3.65
   8  -2   1   29.83    2.60
   9  -5   0   -0.98    4.01
   9  -3   1    0.47    2.98
  10  -6  -2    4.66    4.51
  11  -5  -1    2.43    4.59
  13  -5  -2    2.67    4.80
  15  -5  -3   -0.20    5.10
  15  -3  -2   -3.72    4.19
  16  -4  -3   -0.23    4.84
  19  -1  -6    1.88    3.87
  20  -2  -6    2.48    4.26
  21  -3  -7    2.93    5.48
  21  -1  -8   -2.31    3.94
  22  -2  -8    3.00    4.51
   0  -4   2    2.54    2.25
   4  -4   2   -0.03    3.18
   4  -2   2   -1.47    1.78
  17  -3  -3    1.62    4.12
  17  -1  -4   -3.72    3.68
  18  -4  -4    4.32    5.45
  18  -2  -4    0.92    3.96
   6  -4   2   49.15    3.94
   6  -2   2  207.87    4.14
   7  -5   1    4.23    3.85
  10  -6  -1    0.71    4.41
  12  -6  -2   -0.25    4.84
  12  -4   0    2.52    3.65
  12  -2   0    3.19    3.29
  12   0  -2    7.10    2.65
  13  -5  -1    1.58    4.34
  13  -3   0   10.80    3.67
  14  -4  -1    2.62    4.42
  14  -2  -1   16.14    3.91
  14   0  -3    3.32    2.84
  16  -4  -2    3.51    4.59
  18   0  -6   -1.37    3.20
  21  -3  -6    2.05    5.11
  21  -1  -7    4.18    3.99
   8  -6   0   -2.70    4.80
  10  -2   1    0.76    2.35
  10   0  -1   11.88    2.43
  11  -5   0    1.64    4.30
  11  -3   1    1.27    3.97
  13  -1  -1   -1.72    3.22
  15  -3  -1   -3.35    3.85
  15  -1  -2    4.47    3.30
  16   0  -4    0.06    3.10
  17  -3  -2   -1.93    4.11
  18  -4  -3   -4.15    5.58
  19  -1  -5    8.70    3.59
  20  -2  -5    2.14    4.23
  22  -2  -7   -2.24    4.04
   3  -5   2    1.87    2.89
   5  -5   2    2.42    3.79
   8  -4   2    8.52    3.95
   8  -2   2   34.33    3.58
   9  -5   1   -4.77    3.90
   9  -3   2   70.14    4.03
  12  -6  -1   -2.83    4.16
  14  -4   0    1.31    4.10
  17  -1  -3    1.37    3.60
  18  -2  -3    3.26    3.63
  21  -3  -5    0.19    5.05
   3  -3   3    2.44    2.29
   5  -3   3   94.37    3.90
   7  -5   2    1.44    4.41
   9  -1   1    3.04    2.85
  10  -6   0   -1.96    4.62
  12  -4   1   -4.04    4.02
  13  -5   0   -0.94    4.34
  14  -2   0    2.92    3.64
  16  -4  -1    5.78    4.85
  18   0  -5    3.70    2.93
  20  -2  -4   -0.83    3.98
  21  -1  -6   -1.53    3.88
  22  -2  -6   -0.53    3.98
   1  -3   3    2.05    0.89
   2  -4   3   16.25    3.19
   4  -4   3    1.16    3.28
   6  -4   3    1.36    3.18
   8  -6   1   -0.32    4.62
  11  -5   1   -3.13    4.14
  11  -3   2   -1.41    3.56
  12  -2   1    2.61    2.53
  13  -3   1    2.59    4.12
  15  -3   0    2.47    4.16
  17  -3  -1    8.28    4.40
  18  -4  -2    4.84    4.99
  18  -2  -2   -0.82    3.80
  19  -1  -4   -3.27    3.41
  21  -3  -4    0.89    5.01
   5  -1   2   72.83    2.86
   9  -5   2   11.97    4.31
  10  -2   2    3.85    3.61
  12  -6   0    0.93    4.34
  12   0  -1    0.40    2.63
  13  -1   0   24.17    3.74
  14  -4   1   -1.17    3.94
  14   0  -2   76.62    3.82
  15  -1  -1   -1.97    3.09
  16  -4   0    2.44    4.37
  16   0  -3   -1.51    2.77
  17  -1  -2   -3.06    3.65
  19  -3  -2   -1.30    4.61
  21  -1  -5   -3.03    4.11
  22  -2  -5    6.94    3.84
   0  -4   3   -1.76    2.63
   4  -2   3    4.66    2.04
   7  -1   2    5.87    2.56
   8  -4   3   -2.31    3.53
   9  -3   3   31.56    3.35
  10  -6   1   -2.18    4.87
  11  -5   2    6.15    4.61
  11  -1   1    8.74    3.19
  12  -4   2    1.10    4.12
  13  -5   1    6.29    4.22
  18  -4  -1    0.73    4.95
  18   0  -4   -0.04    3.57
  19  -1  -3    5.61    3.85
  20  -2  -3   -1.58    3.51
  21  -3  -3    1.46    4.22
  -1  -3   3    0.01    0.08
   7  -5   3    4.88    3.83
   8  -6   2   -0.54    4.36
   8  -2   3    7.39    3.65
  10   0   0   44.51    2.78
  12  -6   1   -2.97    4.59
  12  -2   2   -1.57    3.76
  13  -3   2    0.02    3.92
  14  -2   1    1.76    2.49
  15  -3   1    6.36    3.97
  17  -3   0    4.90    4.14
  18  -2  -1    1.89    3.77
  19  -3  -1    0.84    4.90
  22  -2  -4   -1.25    3.55
   9  -5   3   12.26    4.09
   9  -1   2  208.59    4.75
  11  -3   3   -0.72    3.39
  13  -5   2   -0.13    3.99
  14  -4   2   -3.20    4.03
  15  -1   0   -2.76    3.34
  16  -4   1    3.33    4.70
  17  -1  -1   12.81    3.61
  18  -4   0    0.26    4.66
  20  -2  -2   -0.25    3.61
  21  -1  -4    0.00    3.87
  -4   4   5    6.27    4.29
  -1   5   5    0.06    6.92
   4   4   1   -3.17    4.26
   4   6   6    0.68    5.66
   8   4   0   -4.80    6.60
   8   6   5   -0.36    8.74
  10   4   0    8.34    6.49
  10   6   5    1.01    8.84
  11   5   2    0.28    7.11
  14   2  -2   57.48    5.35
  15   3  -1   -7.84    7.34
  16   4   1    6.44    7.40
  18   4   2    6.85    6.22
  -3   5   6    3.25    6.72
   0   2   0  988.56    7.54
   0   6   7   -1.33    6.28
   2   6   6    0.79    5.87
   3   5   3   -3.55    7.20
   6   2  -2    3.70    3.78
   6   6   5    0.61    8.21
   7   5   2   -0.49    6.89
  13   5   2   -3.91    8.26
  14   4   0    1.97    7.53
  -2   4   3   -0.85    5.42
   0   4   2   -2.19    5.35
   2   2  -1    8.57    3.41
   4   6   5    2.47    7.21
   5   5   2    8.72    7.08
   8   6   4   -1.80    8.97
   9   3  -2   -5.95    5.50
  10   6   4    0.20    9.35
  11   3  -2   77.96    6.54
  16   2  -2    6.45    5.05
  16   4   0    6.02    6.29
  17   3  -1    8.05    6.37
  18   4   1   -4.79    7.48
  20   4   2    4.22    7.16
  -1   3   1    3.65    3.92
   7   5   1    9.39    7.18
   8   4  -1    0.90    6.36
   9   1  -3   23.00    3.25
   9   5   1    4.91    7.68
  10   4  -1    0.94    6.65
  11   1  -3   62.18    3.97
  11   5   1    0.86    6.85
  13   1  -3   -2.00    2.38
  13   3  -2    5.15    5.70
  13   5   1   -5.94    8.13
  -4   4   4    4.11    4.91
  -1   5   4    3.16    6.06
   0   6   6    1.70    5.70
   2   6   5   -5.16    6.13
   3   3  -1   31.69    5.40
   3   5   2    3.59    6.84
   4   6   4    0.26    8.22
   7   3  -2    9.97    3.95
   8   6   3   -1.50    8.65
  10   2  -3    4.23    4.33
  10   6   3    0.62    9.04
  12   2  -3    4.78    4.70
  14   2  -3    1.18    5.36
  15   3  -2   -7.01    6.64
  15   5   1    7.69    7.63
  18   4   0   -2.39    7.72
  20   4   1    1.33    6.94
  -3   3   2   18.95    3.65
  -3   5   5    4.44    5.38
   5   5   1   -1.95    6.80
   6   4  -1   -5.49    6.47
   9   5   0   -1.14    8.00
  11   5   0   -3.09    7.31
  13   5   0    4.52    7.27
  16   4  -1   -2.77    7.09
  17   3  -2   -6.18    6.36
   0   4   1    9.10    5.21
   0   6   5   -0.28    6.03
   1   5   2   -3.34    6.23
   2   6   4    2.38    8.38
   3   7   7   -1.30    6.67
   4   6   3    2.99    7.86
   5   3  -2   21.79    5.20
   7   1  -3    3.56    2.19
   7   5   0   -4.24    7.36
   9   3  -3    7.63    5.38
  10   6   2   -1.38    8.75
  11   3  -3   18.93    5.79
  13   3  -3   -6.19    6.04
  15   5   0    4.74    8.00
  16   2  -3    2.55    5.96
  20   4   0   -5.11    6.48
  -2   4   2    2.11    4.62
  -1   5   3    5.88    5.67
   3   5   1   35.11    7.06
   4   4  -1    5.95    5.96
   8   4  -2    4.32    6.44
  11   5  -1   -6.69    7.89
  14   4  -2   16.82    6.65
  15   3  -3    6.89    6.42
  17   5   0   -2.43    7.15
  18   4  -1    5.57    6.32
  -5   3   3   72.24    4.24
  -3   5   4   -2.75    6.32
   1   7   7   -0.45    6.85
   2   6   3    4.27    8.60
   3   7   6    1.83    5.77
   7   3  -3   -1.20    5.30
   8   6   1   -4.18    7.72
   9   5  -1   -6.74    7.88
  10   6   1   -2.86    8.82
  12   2  -4   14.76    5.70
  12   6   1   -1.58    8.58
  13   5  -1    3.74    6.98
  16   4  -2   -0.90    6.17
  17   3  -3    0.56    6.96
  -4   4   3   -2.93    4.67
   0   6   4   -4.22    7.35
   1   3  -1    2.78    2.83
   3   3  -2   20.13    5.39
   3   7   5    1.48    6.94
   4   6   2  -10.57    8.15
  10   2  -4   -1.78    4.74
  10   4  -3    0.01    6.25
  11   1  -4   -1.77    2.82
  13   1  -4    1.75    2.06
  14   2  -4   -0.82    5.60
  14   4  -3    7.64    6.42
  17   5  -1   -1.03    7.97
  18   4  -2    6.18    7.09
  20   4  -1    0.17    5.92
   0   4   0  221.99    7.18
   1   7   6    0.13    6.58
   3   5   0   22.68    7.51
   5   1  -3  212.76    3.89
   5   5  -1   -5.37    6.77
   8   4  -3   53.34    7.11
  10   6   0    5.25    9.21
  11   3  -4    1.13    5.42
  11   5  -2    4.70    7.38
  12   6   0    1.85    8.28
  13   3  -4   -1.17    5.72
  13   5  -2   -8.40    7.82
  15   3  -4    2.40    6.98
  16   2  -4    3.66    5.45
  16   4  -3   -3.36    6.54
  -3   3   1   35.85    4.26
  -2   4   1   -2.05    5.01
   0   6   3   -1.30    7.70
   2   6   2    0.93    8.14
   3   7   4    8.74    6.75
   4   2  -3    0.69    4.07
   4   4  -2    3.68    5.58
   4   6   1    5.37    7.53
   9   1  -4    0.55    2.98
   9   3  -4    2.01    5.19
   9   5  -2   -3.47    7.26
  15   5  -2    3.13    7.93
  -3   5   3    5.81    5.25
   1   7   5   -0.91    6.63
   6   4  -3    2.49    6.19
   7   3  -4    3.91    5.24
  10   6  -1    0.49    7.78
  12   6  -1   -1.27    9.01
  17   3  -4   -2.30    6.83
  17   5  -2    1.62    7.65
  18   4  -3    1.40    7.17
  -2   6   4    7.48    6.33
   1   5   0   -2.13    6.51
   5   5  -2    4.45    6.56
   6   2  -4  114.28    4.97
   9   5  -3    2.44    7.10
  10   4  -4    3.07    6.07
  12   2  -5   -0.12    2.91
  13   3  -5   -1.93    6.02
  14   2  -5    1.42    1.86
  15   5  -3   -1.80    7.51
  16   4  -4   -2.23    7.09
  -4   4   2    5.34    3.83
   0   6   2    4.15    6.88
   1   3  -2   66.08    5.00
   1   7   4    2.34    6.19
   2   6   1   -1.85    7.12
   3   7   3    1.70    6.12
   4   4  -3   -3.77    5.75
   5   7   2   -7.76    8.64
   8   4  -4    9.98    6.30
  10   2  -5   -0.46    3.38
  11   3  -5   -3.73    5.04
  12   6  -2   -0.14    7.98
  15   3  -5    2.13    6.50
  16   2  -5    0.16    0.84
  17   5  -3   -7.10    7.60
  18   4  -4   -0.30    6.49
  -2   6   3    8.13    7.30
  -1   3  -1   -0.35    3.73
   0   4  -1    3.42    4.78
   7   5  -3    2.23    6.64
   8   6  -2   -2.43    7.87
  10   6  -2    1.96    7.87
  11   5  -4    2.24    6.35
  13   1  -5   -2.00    3.91
  17   3  -5    3.61    7.25
  -5   3   2   18.97    3.65
  -2   4   0    3.16    4.41
   1   5  -1   -4.38    6.41
   1   7   3   -0.94    6.39
   2   6   0   -2.70    7.60
   3   7   2   -2.38    7.72
   4   6  -1    0.51    7.84
   5   5  -3    9.09    6.68
   5   7   1    1.69    8.36
   6   4  -4   15.66    4.80
  10   4  -5    4.71    6.28
  11   1  -5    2.57    3.85
  15   5  -4   -1.92    6.94
  16   4  -5   -0.54    7.24
  17   5  -4    3.07    6.54
   0   6   1   -1.91    7.14
   2   2  -3    7.72    3.75
   6   6  -2    3.35    7.46
   7   3  -5   -0.56    4.78
   8   4  -5    2.10    5.92
  10   6  -3   -6.15    8.40
  12   6  -3    1.24    7.67
  13   3  -6    7.01    6.11
  15   3  -6   -9.65    8.40
  18   4  -5    4.44    7.18
  -2   6   2   -2.26    6.48
   0   2  -2    1.05    2.98
   1   7   2    4.41    7.75
   3   7   1    3.77    7.65
   4   4  -4    1.62    5.99
   5   7   0    0.83    8.08
   7   5  -4   -8.29    6.78
   8   6  -3    8.28    8.80
   9   1  -5  108.29    4.47
  11   3  -6    4.61    5.15
  11   5  -5   -5.80    6.59
  12   2  -6   -1.47    3.08
  12   4  -6   -3.96    6.05
  14   2  -6   -0.44    1.66
  14   4  -6   -5.77    6.24
  15   5  -5   -1.73    7.51
  -4   4   1    2.85    4.07
  -3   5   1    4.17    5.05
   0   4  -2   -0.20    4.80
   1   3  -3    1.14    4.32
   1   5  -2    4.66    7.12
   2   6  -1    6.39    7.25
   3   3  -4   15.27    5.67
   4   6  -2    1.42    7.39
   5   1  -4  491.61    5.42
   6   2  -5   83.63    4.63
   6   6  -3    2.16    7.04
   9   5  -5    5.15    7.92
  10   2  -6    1.13    4.00
  10   6  -4   -1.84    7.58
  12   6  -4   -2.19    8.71
  16   4  -6    7.63    6.82
  17   5  -5   -7.07    7.56
  -2   4  -1    4.70    5.18
   0   6   0   23.20    7.08
   1   7   1   -1.57    8.18
   3   7   0   -3.30    8.15
   5   3  -5   36.84    4.37
   5   5  -4   24.41    6.74
   5   7  -1   -0.10    8.49
   7   5  -5    5.07    6.39
   8   6  -4   -1.36    7.44
  18   4  -6    6.05    7.28
  -2   6   1    0.52    6.68
  -1   3  -2    1.60    4.01
   4   6  -3    5.12    8.10
   7   3  -6    5.52    5.70
   8   4  -6    5.63    6.07
  11   3  -7    1.70    6.84
  11   5  -6   -0.68    6.83
  12   6  -5    5.78    8.18
  13   1  -6   10.25    4.43
  13   3  -7   22.77    6.42
  14   4  -7    4.89    5.79
  15   3  -7   -6.01    5.92
  15   5  -6    0.26    6.78
  17   5  -6   -3.35    7.30
   2   4  -4   29.67    6.09
   2   6  -2   -5.28    6.88
   3   7  -1   -0.94    6.89
   5   7  -2   -7.10    7.65
   6   6  -4   -1.82    7.98
   9   5  -6    5.32    7.23
  10   4  -7    7.98    5.55
  10   6  -5    5.64    7.79
  11   1  -6    9.18    4.61
  12   4  -7    0.12    5.51
  14   2  -7    8.88    3.81
  16   4  -7   11.50    6.96
  17   3  -7   -2.68    3.66
  -5   3   1    0.99    3.45
  -3   5   0   19.04    5.46
   0   4  -3   -3.21    4.95
   1   5  -3   -1.18    6.27
   1   7   0    4.88    7.71
   4   2  -5   34.54    3.80
   5   5  -5   14.13    6.17
   7   5  -6   -3.26    6.48
   8   6  -5   -2.03    7.92
  12   2  -7    7.09    4.81
  15   5  -7   -4.68    7.46
  18   4  -7   -6.13    8.43
  -4   4   0    2.40    3.93
  -3   3  -1  253.52    5.42
  -2   6   0   -5.14    6.50
  -1   5  -2   -1.98    5.43
   2   2  -4  208.27    4.82
   2   6  -3    3.29    6.72
   4   6  -4    1.51    6.94
   5   3  -6    0.70    5.97
   6   2  -6   15.66    4.05
   8   4  -7   -1.52    6.02
  10   2  -7   31.34    5.01
  10   6  -6    0.63    8.53
  11   5  -7    0.61    6.52
  14   4  -8    6.79    6.57
  15   3  -8   -0.74    1.95
  17   5  -7   -1.95    7.17
  -2   4  -2   11.71    4.80
   0   2  -3    3.74    2.88
   0   6  -2    4.40    7.04
   1   7  -1   -2.50    7.58
   3   7  -2   -6.19    7.14
   5   7  -3   10.20    7.52
   6   6  -5   -2.38    7.28
   7   3  -7   11.05    5.53
   9   1  -6   11.84    3.55
  11   3  -8    6.05    3.57
  12   4  -8   -0.76    5.24
  13   3  -8    1.82    2.70
  16   4  -8   -6.70    7.43
  17   3  -8    0.06    0.82
  18   4  -8    2.32    9.54
  -3   5  -1   30.90    5.72
  -1   3  -3    4.67    4.20
   1   5  -4    1.58    5.94
   2   4  -5   70.61    6.23
   5   5  -6    0.57    5.90
   7   5  -7    4.28    6.60
  10   4  -8    7.38    5.36
  11   5  -8   -0.80    7.52
  15   5  -8    2.39    7.27
  17   5  -8    2.84    6.41
  -2   6  -1   -2.74    6.51
  -1   5  -3   -0.61    5.45
   2   6  -4    3.57    7.88
   3   7  -3    1.67    7.75
   4   6  -5   -3.85    7.26
   6   6  -6    3.02    7.58
   8   4  -8    2.84    5.31
  10   6  -7    2.69    7.39
  -4   4  -1   -2.47    3.79
   0   6  -3    2.08    7.24
   3   3  -6   49.50    5.92
   5   1  -5   81.84    3.45
   8   6  -7   -0.12    7.92
   9   5  -8   -3.23    6.14
  12   4  -9   -3.30    5.80
  13   3  -9   -4.26    3.91
  14   4  -9    4.07    6.90
  15   3  -9    2.20    2.88
  15   5  -9   -1.78    7.56
  17   3  -9    0.33    2.16
  18   4  -9    1.03    9.32
  -6   4   1   -0.70    2.68
  -5   3   0    4.59    3.43
   3   7  -4    5.15    7.74
   4   2  -6    1.41    3.85
   4   4  -7    6.10    6.02
   5   5  -7   -0.29    6.68
   7   3  -8   24.70    5.52
   7   5  -8    3.56    7.00
  10   2  -8   50.63    5.24
  10   4  -9    7.46    6.19
  10   6  -8    4.35    8.38
  11   1  -7    5.71    3.83
  11   3  -9    6.14    4.99
  11   5  -9    1.87    6.58
  13   5  -9   -5.76    6.98
  -3   3  -2    3.24    3.77
  -3   5  -2    6.51    5.01
  -2   6  -2   -3.01    6.26
   2   2  -5  304.94    5.72
   2   4  -6    4.03    5.32
   6   2  -7   -4.38    4.68
   6   4  -8    3.41    6.22
   6   6  -7    5.88    7.60
  -1   5  -4    3.51    5.77
  -1   7  -2    3.15    8.38
   0   4  -5    8.23    5.29
   0   6  -4    4.83    7.08
   8   2  -8    5.54    5.13
   9   1  -7   50.54    4.70
  12   2  -9    4.04    5.37
  12   4 -10   -0.44    7.84
  13   5 -10   -0.84    6.37
  14   4 -10   -8.27    7.87
  15   3 -10    2.39    5.32
  15   5 -10    0.31    6.51
  16   4 -10   -5.23    6.81
  18   4 -10    8.61    5.26
  -4   4  -2    3.85    4.02
  -2   6  -3    5.50    6.70
   2   6  -6    5.95    7.56
   3   7  -5    0.19    7.13
   5   3  -8    3.53    5.20
   5   5  -8    3.75    6.78
   6   6  -8    0.13    7.38
  10   6  -9    1.06    7.11
  11   5 -10   -2.17    6.96
  13   3 -10    4.79    5.50
  17   3 -10   -0.57    4.09
  -6   4   0    2.72    3.71
  -3   5  -3    2.31    5.05
   0   6  -5   -1.93    7.53
   2   4  -7    4.55    5.84
   3   3  -7    4.49    3.49
   4   4  -8   15.64    7.06
   6   4  -9    3.03    7.63
   7   3  -9   35.16    5.76
   8   6  -9    0.77    7.90
   9   5 -10    0.80    6.52
  10   2  -9   34.69    5.50
  11   3 -10    3.46    5.64
  13   1  -8   19.87    3.77
  -1   5  -5   19.47    6.43
  -1   7  -3    0.14    7.10
   0   4  -6   -4.10    6.36
   1   3  -6   38.29    5.00
   3   7  -6   -2.88    7.99
   4   2  -7   20.89    3.95
   8   4 -10    6.33    6.63
  10   6 -10    0.35    8.03
  12   4 -11   -2.08    4.95
  13   5 -11   -0.94    6.35
  14   4 -11   -0.14    3.75
  15   5 -11   -5.09    6.64
  16   4 -11   -2.41    2.84
  18   4 -11   -0.78    1.87
  -5   3  -1   -3.53    3.62
  -2   6  -4   -2.99    6.20
   1   5  -7    4.24    7.11
   1   7  -5    5.92    6.27
   2   6  -7    4.02    6.43
   3   5  -8   -3.67    6.45
   5   5  -9   -2.88    7.19
   6   2  -8   33.39    4.85
   6   6  -9    2.69    7.91
  11   5 -11    2.68    6.20
  13   3 -11    2.48    6.18
  15   3 -11    2.11    5.58
  -4   4  -3    0.50    4.74
  -3   5  -4    3.06    5.38
  -1   7  -4    1.11    7.12
   0   6  -6    1.88    6.68
   3   1  -5   42.87    2.82
   4   4  -9   -2.61    6.81
   5   3  -9   25.80    5.14
   6   4 -10   -4.93    6.53
   7   1  -7    9.82    3.42
   8   2  -9    8.56    4.74
   9   5 -11    1.29    7.33
  11   3 -11    6.89    5.99
  15   5 -12   -3.75    5.81
  16   4 -12   -0.53    2.05
  -5   5  -2    6.96    4.56
  -1   5  -6   16.30    5.93
   1   7  -6   -1.57    7.10
   2   4  -8    8.79    6.28
   3   3  -8    6.63    4.85
   6   6 -10    0.59    6.87
   7   3 -10   36.77    5.98
   8   4 -11   -1.59    6.17
   9   1  -8    1.20    3.88
  10   2 -10   -2.44    4.78
  11   5 -12    3.06    6.67
  12   4 -12    1.63    4.58
  13   5 -12    4.18    5.42
  14   4 -12    1.80    3.01
  18   4 -12    0.65    0.97
  -6   4  -1   46.84    3.82
  -2   6  -5   -0.76    6.47
  -1   7  -5   -1.32    7.73
   0   2  -5   68.01    3.66
   1   3  -7   32.40    5.18
   2   6  -8   -0.46    6.56
   3   5  -9    4.66    6.37
   5   5 -10   -4.14    7.07
   7   5 -11    2.77    7.07
   8   6 -11    2.94    7.36
  15   3 -12   14.14    6.20
  -3   5  -5    1.64    6.04
   1   5  -8    4.35    5.62
   1   7  -7   -4.59    6.76
   9   5 -12   -1.23    6.83
  13   3 -12    0.65    6.29
  13   5 -13    1.15    6.08
  14   2 -11    1.31    4.80
  14   4 -13    5.07    4.55
  16   4 -13    1.04    2.71
  -5   5  -3   11.39    4.77
  -4   4  -4   12.03    4.86
  -3   3  -4    7.30    3.82
  -2   4  -6    6.85    5.56
  -1   5  -7    5.97    6.04
   2   4  -9   -5.05    5.97
   2   6  -9    5.23    6.22
   4   4 -10   40.91    4.87
   5   3 -10    1.10    5.34
   5   5 -11   -4.26    6.36
   6   4 -11    4.64    6.12
   6   6 -11    2.86    7.32
   8   4 -12   -4.74    6.29
  11   1  -9    8.40    3.73
  11   3 -12    3.42    6.33
  12   4 -13    6.65    5.60
  -5   3  -2   15.90    3.36
  -2   6  -6   -5.40    6.73
  -1   7  -6    2.40    6.98
   0   6  -8    4.29    7.19
   1   5  -9   -0.52    6.74
   2   2  -7    2.74    2.72
   3   5 -10    2.03    6.13
   7   1  -8   66.16    4.08
   7   3 -11   11.71    4.31
   7   5 -12   -2.57    6.87
  10   2 -11    8.94    5.91
  15   3 -13   -3.35    6.97
  -6   4  -2   57.08    3.92
   1   7  -8   -3.91    7.54
   6   6 -12    7.08    8.38
   9   5 -13    4.07    6.36
  13   3 -13   -2.09    6.79
  14   4 -14   -4.92    4.97
  16   4 -14    1.71    4.81
  -5   5  -4    1.06    4.73
  -3   5  -6    3.51    5.42
  -2   6  -7   -4.04    6.46
  -1   5  -8   -2.22    5.95
  -1   7  -7    1.09    6.88
   2   4 -10    1.04    5.75
   2   6 -10   -4.53    7.60
   3   1  -6  190.76    3.95
   3   5 -11   -1.46    6.98
   4   4 -11   -2.22    6.21
   5   5 -12   -0.23    7.02
   6   2 -10    8.54    4.50
   7   5 -13    2.75    7.86
   8   4 -13   -4.54    6.32
   9   1  -9    8.93    4.03
  11   3 -13   -4.57    6.26
  12   4 -14    2.19    5.70
  13   1 -10    6.60    3.54
  14   2 -12    1.87    5.31
  -2   4  -7   -0.48    5.09
   0   6  -9    0.68    7.02
   1   5 -10   11.07    6.20
   3   3 -10   12.86    5.15
   5   3 -11    9.38    5.43
   7   3 -12   -1.18    5.63
   8   2 -11    0.46    4.73
   9   5 -14    4.87    7.74
  12   2 -12    4.43    5.22
  -7   3   0    5.44    2.82
  -1   7  -8  -10.16    7.20
   2   6 -11   -1.77    8.11
   6   6 -13    2.25    8.27
   9   3 -13    7.06    6.41
  10   2 -12   -0.61    4.94
  11   1 -10   17.41    3.71
  14   4 -15   -7.09    6.63
  15   3 -14   -5.84    6.56
  16   4 -15   -2.84    5.33
  -5   3  -3   97.69    4.21
  -5   5  -5    1.47    4.96
  -3   5  -7   -1.58    5.46
  -2   6  -8   -0.89    7.25
  -1   5  -9    2.87    6.41
   2   4 -11   -2.88    5.62
   3   5 -12   -3.33    7.21
   4   4 -12   -0.30    6.24
   5   5 -13    8.59    8.32
   6   4 -13    2.95    6.61
   7   5 -14    5.11    9.05
   8   4 -14   -4.71    7.14
  11   3 -14   -1.36    6.03
  12   4 -15   -8.66    6.92
  -4   4  -6   26.42    5.10
  -2   4  -8    1.61    4.86
   0   6 -10   -2.05    6.19
   1   1  -5   19.17    1.92
   4   6 -13   -0.74    7.38
   5   3 -12    4.16    5.77
   6   2 -11    7.63    4.60
   7   1  -9   91.15    4.55
   7   3 -13   -2.92    5.90
   9   1 -10    9.30    4.44
   9   5 -15    3.82    7.82
  12   2 -13   18.45    6.24
  -3   5  -8    7.16    6.56
  -2   6  -9   -5.10    7.54
  -1   7  -9   -0.90    6.72
   0   2  -7  108.07    4.55
   2   6 -12   -1.85    7.33
   3   3 -11    0.76    5.26
   4   2 -10  166.73    6.47
   9   3 -14   20.35    6.56
  13   1 -11    1.66    3.73
  13   3 -15    2.23    6.61
  14   4 -16   -2.82    6.67
  15   3 -15   -1.56    7.04
  16   4 -16    3.34    6.56
  -6   4  -4    0.04    4.23
  -5   5  -6   -1.54    5.45
  -4   6  -7    4.95    6.00
  -1   5 -10    4.67    6.29
   0   6 -11    3.95    7.35
   1   3 -10   25.08    5.63
   2   2  -9   17.58    4.90
   2   4 -12   -0.41    5.99
   4   4 -13   -7.21    6.42
   5   5 -14   -5.91    8.43
   6   4 -14   -0.25    6.27
   9   5 -16   -5.78    8.39
  10   2 -13    1.70    5.20
  11   1 -11    2.15    4.46
  11   3 -15   -1.12    7.34
  12   4 -16    1.12    7.03
  -4   2  -3    3.87    2.56
  -2   4  -9    2.55    5.12
   2   6 -13    3.54    8.12
   5   3 -13    2.34    5.76
   7   3 -14    3.45    5.95
  10   4 -16    2.79    7.12
  14   2 -14    0.40    5.61
  16   4 -17    3.23    6.76
  -4   4  -7   25.22    4.86
  -3   5  -9    6.20    5.88
  -2   6 -10    5.57    6.66
   5   5 -15    6.96    8.18
   6   4 -15   12.46    6.84
   7   1 -10   96.69    5.07
   7   5 -16    4.98    7.41
   9   3 -15   -1.08    6.52
  12   2 -14    4.63    5.88
  13   3 -16    3.24    6.31
  14   4 -17    3.01    6.78
  15   3 -16   -5.46    7.62
  -5   5  -7    3.75    5.80
   0   2  -8    2.86    3.93
   0   6 -12   -2.11    6.66
   1   1  -6  158.16    3.80
   1   3 -11   64.43    5.76
   2   4 -13    4.65    5.60
   3   5 -14    7.12    7.11
   4   2 -11   16.05    4.83
   4   4 -14    2.47    6.12
   8   4 -16   -1.50    6.25
   9   1 -11    1.99    3.83
   9   5 -17   -1.55    7.65
  10   2 -14    6.77    5.79
  11   3 -16   -2.77    7.54
  12   4 -17   -3.52    6.77
  13   1 -12   -0.62    4.21
  -6   4  -5    2.24    3.99
  -2   6 -11   -1.12    7.44
   2   6 -14    3.19    7.43
   5   3 -14    0.84    5.98
  10   4 -17    9.18    7.36
  11   1 -12    6.59    4.36
  14   4 -18    2.95    7.86
  -7   3  -2    2.63    3.05
  -5   3  -5   -2.78    3.79
  -4   4  -8    4.41    5.07
  -4   6  -9    5.38    6.04
  -3   5 -10    7.89    6.22
  -1   5 -12   -0.69    6.78
   0   6 -13  -10.59    7.35
   3   1  -8    6.50    3.10
   3   3 -13   11.46    5.89
   3   5 -15    9.29    7.80
   5   5 -16   -2.55    8.30
   6   4 -16   -0.26    6.42
   7   3 -15    0.79    6.21
   7   5 -17   -0.26    8.43
   9   3 -16    3.79    6.39
  12   4 -18   -2.79    8.11
  13   3 -17    5.45    7.26
  15   3 -17    3.84    7.43
  -5   5  -8    4.22    5.88
  -3   3  -8   31.26    4.75
  -1   3 -10   12.77    5.26
   2   4 -14   -0.59    6.37
   4   2 -12   22.34    5.59
   7   1 -11   47.56    4.80
   8   2 -14   -2.35    5.38
   8   4 -17    5.71    6.47
  10   4 -18    0.33    8.30
  11   3 -17   -1.92    6.54
  -6   4  -6    1.03    4.08
  -4   6 -10    5.34    6.83
  -3   5 -11    2.92    7.28
  -2   4 -11    5.33    6.15
  -2   6 -12   -3.67    6.79
   0   2  -9    5.64    4.93
   0   6 -14   -1.04    6.54
   1   3 -12   -0.08    4.14
   5   3 -15    2.00    5.71
   5   5 -17   -6.12    8.63
   9   1 -12    8.92    4.19
  10   2 -15    4.61    5.93
  14   2 -16    5.83    6.90
  -5   3  -6   -2.76    3.79
  -5   5  -9    1.51    5.88
  -4   4  -9   12.26    5.40
  -1   5 -13    6.51    6.57
   1   1  -7  128.63    4.15
   3   5 -16   -2.41    7.47
   4   4 -16    2.39    6.57
   6   4 -17    7.25    6.59
   8   4 -18    5.41    7.73
   9   3 -17    2.00    7.27
  11   1 -13    5.09    4.21
  12   4 -19   -4.34    7.83
  13   3 -18    2.80    7.44
  15   3 -18   -3.07    7.18
  -7   3  -3   13.51    3.64
  -6   4  -7    3.77    5.22
  -4   6 -11   -3.63    7.41
  -3   3  -9   -0.92    4.69
  -2   6 -13    2.87    6.56
  -1   3 -11   -0.20    5.29
   1   3 -13   12.47    5.92
   2   4 -15   -2.23    7.15
   3   1  -9   23.66    3.80
   8   2 -15   -0.49    5.96
  10   4 -19    4.46    7.80
  11   3 -18   -2.95    7.16
  -4   2  -5   54.38    3.64
  -4   4 -10    2.84    5.05
  -3   5 -12    4.66    7.36
  -2   4 -12   22.15    6.56
  -1   1  -5  424.07    4.86
  -1   5 -14   -1.89    6.96
   0   2 -10   -3.95    5.21
   0   4 -14    2.83    6.29
   3   5 -17   -2.30    7.72
   5   3 -16   -4.82    6.51
   5   5 -18   -8.54    7.70
   6   4 -18    5.82    6.95
   9   1 -13    5.50    5.28
  10   2 -16    1.03    6.40
  -5   3  -7   12.77    4.11
  -5   5 -10    4.90    5.89
  -2   2  -8   14.54    4.46
  -2   6 -14    1.39    6.57
   2   2 -12    7.02    5.64
   3   3 -15   22.57    6.94
   4   4 -17    6.48    6.61
   9   3 -18   -0.57    7.00
  12   2 -17   -4.52    6.95
  13   3 -19    7.27    7.22
  -6   4  -8    4.17    5.08
  -4   6 -12   -4.61    6.51
  -3   3 -10    6.24    5.47
  -3   5 -13   -0.25    6.51
   1   1  -8   20.08    3.79
   3   5 -18    2.39    7.48
   4   2 -14    2.76    5.44
   8   2 -16    2.35    5.81
  10   4 -20    3.83    7.12
  11   1 -14    0.01    4.25
  11   3 -19   -5.18    7.56
  -7   3  -4    5.68    3.14
  -5   5 -11   -0.91    6.25
  -4   4 -11   -0.04    5.80
   0   2 -11   27.74    5.62
   0   4 -15   -3.35    7.04
   3   1 -10   35.34    4.14
   4   4 -18    6.97    7.62
   5   3 -17    2.99    6.71
   6   4 -19    2.95    7.91
  10   2 -17    4.58    6.19
  13   3 -20    2.28    7.98
  -5   3  -8    0.71    4.61
  -4   2  -6   97.38    4.13
  -4   6 -13   -2.46    7.05
  -2   2  -9    9.87    4.99
  -1   1  -6  172.23    4.10
  -1   3 -13   11.06    5.68
   2   2 -13   31.39    5.65
   2   4 -17    0.15    6.61
   3   3 -16    9.45    6.08
   7   1 -13   -0.53    4.49
   8   0  -9   14.00    2.99
   9   1 -14   47.26    5.37
  12   2 -18   -3.24    6.24
  -6   4  -9    4.42    5.30
  -4   4 -12   -2.60    5.87
  -3   3 -11   14.05    5.67
  -3   5 -14   -0.53    6.40
  -2   4 -14   -5.59    6.74
  -1   5 -16   -3.33    8.12
   1   3 -15   -1.02    6.73
   4   2 -15    0.40    6.07
   6   0  -8   45.92    3.06
   6   4 -20    0.86    7.55
   8   2 -17   -2.53    6.62
  11   3 -20    0.85    6.58
   6   2   8   43.31    5.46
   9   1   3   88.99    6.68
  10   2  10   -0.08    6.59
  12   2  12    1.71    7.41
  13  -1  -2    1.38    5.61
  13   1   5   -1.38    7.79
  14   2  16    0.10    6.68
  14   2  17   -2.11    7.76
  14   2  18   -5.67    7.82
  15  -1  -1   -6.04    6.33
  15   1   7    7.81    7.79
  16   0   3   -1.41    7.97
  17   1  10    2.76    9.35
  18  -2  -1    0.37    7.24
  18   0   5    2.46    8.93
  20  -2   1   -2.55    8.74
  20   0   8  -12.49    9.76
  21  -1   5   -1.33    9.14
   6   0  -1    2.72    2.37
   8   0  -1   43.12    4.47
   8   2   8    6.54    6.17
  12   0   0    5.60    5.84
  12   2  11    1.94    7.76
  14   0   1   -3.50    6.64
  14   2  14   -2.44    7.32
  14   2  15   -3.65    8.02
  15   1   6    0.66    7.34
  17  -1   0    6.13    7.68
  17   1   9    1.90    8.66
  19  -1   2   -5.49    8.35
  20   0   7    3.69    9.54
  21  -1   4    3.13    8.09
  11   1   3    5.25    6.60
  12   2  10   -4.72    7.95
  13   1   4   12.61    7.43
  14  -2  -4    2.97    5.10
  14   2  12   -0.63    7.50
  14   2  13   -0.23    7.16
  16  -2  -3   -2.17    5.48
  16   0   2    3.53    7.59
  17   1   8    5.10    8.19
  18   0   4   -0.08    8.04
  19  -1   1    2.22    8.91
  20  -2   0    0.64    8.63
  20   0   6    2.00    8.49
  22  -2   2    0.61    8.24
   4   2   7   93.52    4.88
   5   1   2   73.29    4.04
   6   2   7   29.41    5.23
   7   1   2    6.18    4.31
   8   2   7    2.75    5.27
  10   0  -1    9.74    5.03
  10   2   8   28.77    6.75
  12   2   9   10.73    7.38
  14   2  11    9.27    8.50
  15  -1  -2   -0.90    5.92
  15   1   5   10.50    7.77
  16   2  15   -2.28    8.21
  17  -1  -1   19.12    8.15
  17   1   7    0.31    8.27
  18  -2  -2    3.30    7.02
  18   0   3   -4.64    8.25
  19   1  10    3.80   10.03
  21  -1   3   -4.99    8.81
   9   1   2  222.58    6.31
  10   2   7    8.52    7.30
  12  -2  -5    5.74    4.29
  12   2   8    3.18    8.14
  13  -1  -3    1.86    5.39
  13   1   3    4.24    6.97
  14   2  10    4.35    8.22
  16   2  13    2.64    8.18
  16   2  14   -1.47    7.67
  17   1   6    8.32    8.37
  20  -2  -1    0.49    7.71
  20   0   5    1.98    8.37
  21  -1   2   -4.92    7.77
  22  -2   1   -0.35    8.01
  11   1   2    4.05    6.08
  15   1   4   15.57    7.00
  16  -2  -4    2.82    5.61
  16   2  12    7.97    8.06
  18  -2  -3    9.17    7.19
  19  -1   0   -5.73    7.38
  19   1   8   -2.52    9.70
   6   2   6    0.54    4.74
   8   2   6   -4.72    5.45
   9  -1  -4    0.82    3.43
  12   2   7    3.68    7.12
  15  -1  -3    4.97    5.96
  16   2  11   -0.78    8.47
  17  -1  -2   -6.20    6.90
  17   1   5    2.24    8.09
  19   1   7   -4.91    9.47
  21  -1   1   -5.57    8.12
  22  -2   0   -8.92    8.41
   4   2   6   90.76    4.82
   7   1   1    9.00    4.40
   8   0  -2   36.96    4.13
   9   1   1   -0.54    4.99
  10   2   6    5.06    6.05
  13   1   2   -2.71    6.17
  14  -2  -5   -0.69    4.47
  14   2   8   -0.46    7.06
  15   1   3   13.61    5.14
  16   2  10   12.07    7.78
  19  -1  -1   -0.34    7.47
  19   1   6    3.79    9.03
   6   0  -2   10.90    2.86
  11   1   1    4.74    6.30
  16   2   9   -6.62    7.73
  18   2  11   -1.19    8.58
  18   2  12   -6.84    8.70
  19   1   5   -4.77    8.60
  21  -1   0   -4.23    8.17
  23  -1   2    8.18    7.96
   6   2   5   19.95    4.87
  11   3  13    0.90    7.49
  13   1   1   -3.90    6.63
  16   0  -1    0.67    7.42
  17  -1  -3   -3.47    6.02
  17   1   3    2.09    8.07
  18   0   0    5.86    7.30
  18   2  10    2.99    9.22
  19  -1  -2    4.08    6.96
   9   3  12   -0.96    6.09
  10  -2  -6    1.53    3.10
  11   3  12   -5.55    7.66
  13   3  14    1.78    7.24
  15  -1  -4    2.02    5.22
  19   1   4   -1.00    8.37
  20   0   1    4.30    7.65
  21  -1  -1    0.93    7.74
  21   1   6    1.27    8.93
  23  -1   1    5.93    7.28
   4   2   5   58.62    3.87
   7   3  11    2.49    4.76
   9   1   0    9.61    4.68
   9   3  11    4.11    5.98
  11   1   0    2.86    6.09
  11   3  11   -1.61    7.58
  13   3  13   -0.38    7.14
  16   0  -2   -0.90    7.52
  16   2   6    3.24    8.08
  17   1   2   -5.40    7.18
  18   0  -1    0.33    7.32
  19   1   3    4.94    7.17
  22   0   2    0.44    8.66
  23  -1   0    1.59    7.46
   7   1   0   19.16    4.42
   9   3  10    5.49    5.44
  11  -1  -5   -2.11    4.17
  12   0  -3    3.25    5.29
  12   2   4    2.74    6.74
  13   1   0   26.30    6.54
  13   3  12    5.19    7.52
  15   3  13    0.52    7.37
  15   3  14    0.80    6.65
  17  -1  -4    3.17    6.12
  18   2   7    3.45    8.53
  19  -1  -3    0.06    6.63
  20   0   0   14.45    6.99
  21  -1  -2    7.34    7.94
  21   1   4   -4.38    8.23
   6   2   4    3.17    4.26
   7   3  10   -0.11    4.96
  11   3  10   -1.57    7.05
  13  -1  -5    1.51    4.25
  13   3  11   -1.33    6.99
  14   0  -3    0.29    5.74
  15   1   0   -4.01    7.34
  15   3  12    0.43    8.07
  16   2   5    5.06    7.78
  17   1   1    0.57    6.67
  19   1   2    4.83    7.80
  22   0   1    4.08    7.89
  23  -1  -1   -2.49    7.46
   5   3  10    7.87    4.77
   7   3   9    3.97    5.44
   9   3   9    7.35    5.76
  10   2   3    2.14    5.74
  11   3   9    1.90    6.63
  13   3  10   11.14    7.36
  15  -1  -5    4.92    4.76
  15   3  11   -2.57    8.02
  16   0  -3   -3.83    6.38
  16   2   4    2.63    7.25
  19  -1  -4    4.29    6.84
  20   0  -1   -5.21    7.15
  20   2   7    2.84    8.75
  21  -1  -3    4.68    7.78
  21   1   3   -4.21    8.69
  22   0   0    2.92    7.47
  11   1  -1   -1.48    4.25
  13   1  -1    0.06    6.03
  15   3  10   -2.89    7.85
  17   1   0    0.15    7.45
  17   3  12    1.74    7.16
  18   2   5    2.90    7.79
  19   1   1   -0.24    7.31
  20   2   6   -6.53   10.21
  21   1   2   -7.58    7.91
  23  -1  -2   -3.07    7.47
   4   2   4   46.10    3.60
   5   1   0   -0.09    2.28
   5   3   9    2.75    4.69
  11   3   8    7.84    6.21
  12   0  -4   20.04    5.21
  12   2   2   -2.78    5.90
  13   3   8    0.94    7.29
  15   1  -1    0.41    6.68
  15   3   9    1.96    7.67
  16   2   3   -1.48    7.38
  17   3  10    1.90    9.00
  17   3  11   -2.98    8.28
  18   0  -3   -0.45    6.70
  18   2   4   -1.12    8.01
  20   0  -2    6.82    7.36
  22   0  -1   -6.45    8.25
   7   1  -1   34.55    4.34
   7   3   8   40.50    5.54
  10   0  -4   -0.56    4.20
  10   2   2    6.01    5.23
  11   3   7   -7.07    6.58
  13  -1  -6    9.93    4.67
  14   0  -4    3.76    5.36
  14   2   2   -0.31    7.32
  15   3   8   -3.12    7.83
  16   0  -4    3.17    5.57
  17   1  -1   10.50    6.94
  17   3   9    0.36    8.74
  19  -1  -5    7.07    6.81
  19   1   0   -3.55    7.02
  20   2   5    8.65    8.32
  21  -1  -4    6.99    7.46
  21   1   1   -5.87    8.66
  23  -1  -3   -4.01    7.37
   9   3   7   12.09    5.55
  11  -1  -6    3.51    3.90
  11   1  -2  217.86    7.73
  13   1  -2    5.66    6.16
  13   3   7    4.58    6.64
  15  -1  -6    5.83    4.51
  15   1  -2   -0.69    6.03
  15   3   7   -0.17    7.46
  16   2   2    1.56    6.97
  18   2   3   -7.89    6.81
  20   0  -3    4.58    7.63
  20   2   4   -3.20    9.14
  22   0  -2    2.18    8.05
   5   3   8   -1.89    4.68
   7   3   7   11.68    5.01
  12   2   1   -2.02    6.32
  13   3   6   -4.95    7.00
  14   2   1    5.21    7.12
  17  -1  -6    5.43    5.11
  17   1  -2    1.50    6.70
  18   0  -4    3.73    6.58
  18   2   2   -0.73    7.13
  19   1  -1    7.89    7.10
  20   2   3    0.93    7.81
  21  -1  -5   -2.89    7.14
  23  -1  -4   -4.83    8.21
   9   1  -2    2.26    3.27
   9   3   6    5.32    5.90
  10   2   1   -3.08    5.51
  14   0  -5    0.80    5.40
  15   3   6    3.94    7.87
  16   2   1    3.16    7.21
  17   3   7    6.14    7.32
  19  -1  -6    2.45    6.79
  20   0  -4    4.38    7.83
  22   0  -3   -0.62    7.42
   3   3   9    4.37    3.43
   4   2   3    4.44    3.18
   9  -1  -6   10.07    3.20
  11   3   5    5.84    6.39
  13   3   5    4.97    6.94
  15   1  -3    6.45    6.68
  15   3   5    8.91    7.59
  16   0  -5    5.93    5.92
  17   3   6    2.67    8.06
  18   2   1    7.74    7.31
  19   3   7    1.36    8.72
  20   2   2   -1.40    9.27
   5   1  -1    5.37    3.35
   5   3   7    5.60    4.21
   7   3   6   20.78    5.07
   9   3   5    1.82    5.79
  11   1  -3   59.40    6.31
  15  -1  -7    2.87    4.90
  16   2   0   -1.61    7.21
  18   0  -5    3.58    6.57
  19   3   6    1.68    9.05
  20   2   1   -4.29    8.13
  22   0  -4    7.81    6.77
  24   0  -3    1.70    7.98
  13   3   4    9.35    6.59
  15   3   4   14.42    7.56
  17  -1  -7   -2.82    5.08
  18   2   0    3.96    7.12
  20   0  -5    1.29    7.60
   3   3   8   27.53    4.12
   7   3   5    2.38    4.91
   9   3   4    0.79    5.47
  14   0  -6    3.85    5.10
  14   2  -1   10.96    7.05
  16   0  -6   17.62    6.01
  16   2  -1    2.01    6.71
  16   4  11    3.35    7.82
  19  -1  -7   -2.32    6.22
  20   2   0   -0.21    8.60
  21   1  -3   -0.74    7.10
  23   1  -2   -3.69    8.43
  24   0  -4    4.38    7.85
   5   3   6   -1.31    4.19
   6   2   1  243.30    6.13
  11   3   3    1.64    6.30
  12   0  -6    2.40    4.67
  12   2  -1    1.08    4.13
  13   1  -4    3.42    5.71
  14   4  10    2.17    8.38
  16   4  10    5.70    7.42
  18   0  -6    1.64    6.44
  18   2  -1    1.85    7.30
  19   1  -4   -1.98    6.90
  22   0  -5   -5.61    7.75
  10   2  -1    6.69    5.84
  11   1  -4   -3.46    5.60
  12   4   9   -2.31    6.81
  14   4   9    3.59    7.99
  16   2  -2    2.95    6.60
  16   4   9    4.80    7.31
  19   3   3   -6.00    8.51
  20   0  -6   -2.80    7.25
  20   2  -1    4.63    8.36
  22   2   0    4.38    8.18
   7   3   4    0.28    4.91
  10   4   9   -0.84    6.87
  12   4   8    3.28    6.65
  14   2  -2   47.64    6.75
  14   4   8    1.41    7.81
  15  -1  -8    1.19    4.18
  16   4   8   -1.77    7.68
  17  -1  -8    5.50    4.78
  17   1  -5   -4.84    6.83
  18   2  -2    0.49    7.79
  19   3   2    5.88    7.70
  21   1  -4   -4.90    7.00
  22   0  -6    2.65    7.08
  22   2  -1    0.29    8.27
  24   0  -5   -2.74    7.10
   3   3   7   10.84    3.86
   5   3   5    4.45    5.02
   7   1  -3    2.74    4.18
  10   0  -6    1.77    4.29
  10   4   8    6.25    7.56
  11   3   2   -2.73    5.93
  13  -1  -8   26.59    3.89
  14   0  -7    6.84    5.48
  14   4   7    4.99    7.79
  15   3   1    0.26    7.30
  16   0  -7   17.74    6.17
  16   4   7   -0.28    7.59
  17   3   1   -1.88    6.95
  18   0  -7   -2.97    6.59
  19   1  -5    3.84    7.27
  20   2  -2   -1.49    8.37
  23   1  -4   -3.72    7.94
   5   1  -2   72.24    3.90
   8   2  -1   18.40    5.57
  10   2  -2    6.96    5.58
  12   4   7    3.43    6.57
  14   2  -3    5.02    6.54
  14   4   6    3.10    8.18
  16   2  -3   -0.53    7.02
  16   4   6   -4.17    8.45
  18   2  -3   -2.90    8.57
  19   3   1    1.54    8.62
  20   0  -7   -2.09    6.43
  21   1  -5    2.19    7.19
  22   2  -2    1.48    8.64
  24   0  -6    1.59    6.72
   6   2   0    9.82    3.00
   8   4   8    4.75    5.96
  10   4   7   -0.01    6.49
  11   1  -5    1.67    5.34
  12   0  -7   18.63    4.61
  12   4   6   -2.22    6.79
  17   1  -6    1.11    6.95
  17   3   0   -2.76    7.32
  18   4   6    2.20    8.34
  19   1  -6   11.60    6.58
  20   2  -3   -2.82    8.37
  22   0  -7    4.44    7.54
  23   1  -5   -1.27    7.91
  11  -1  -8   10.38    3.82
  12   2  -3    3.52    4.27
  13   3   0   10.27    7.31
  14   4   5    8.53    7.46
  15   1  -6    3.04    6.33
  16   0  -8    0.70    5.11
  16   2  -4   -1.48    6.73
  16   4   5   -0.24    8.30
  18   0  -8    0.70    6.27
  18   2  -4   -4.46    7.53
  18   4   5   -1.60    8.26
  19   3   0   -0.40    7.87
  20   0  -8    1.47    7.00
  24   0  -7   -2.44    7.16
   3   3   6   32.88    3.67
   5   3   4   -4.05    4.65
   8   4   7   -2.65    6.31
  10   4   6    3.46    6.57
  12   4   5   -1.27    7.03
  14   2  -4    1.92    6.60
  14   4   4   -3.30    7.32
  15  -1  -9    0.77    3.97
  15   3  -1    4.95    6.76
  16   4   4    4.31    7.70
  17   3  -1    1.52    7.66
  18   4   4    0.99    7.53
  19   3  -1   -5.68    7.97
  20   2  -4   -4.86    8.28
  22   0  -8    3.61    7.92
  23   1  -6   -3.65    7.21
   7   3   2    1.12    5.39
   8   0  -6    9.53    3.24
   8   2  -2   17.65    5.74
  10   2  -3    2.29    5.87
  10   4   5   -0.72    7.29
  13   3  -1   -7.27    7.45
  17   1  -7   -4.83    6.75
  19   1  -7    0.72    7.09
  21   3  -1   -3.20    8.74
   6   2  -1   -0.72    4.33
   7   1  -4   -2.98    4.01
   8   4   6    1.95    5.49
   9   1  -5  104.57    5.51
  10   0  -7   52.35    4.74
  12   2  -4   10.78    6.36
  13  -1  -9   -1.74    3.49
  14   4   3    4.35    8.17
  15   1  -7    4.76    6.09
  16   2  -5    8.01    7.05
  16   4   3    2.79    7.17
  17   3  -2   -0.83    7.61
  18   4   3    2.34    7.96
  19   3  -2   -8.03    9.03
  20   2  -5   -4.23    8.16
  21   1  -7    2.43    6.47
   5   3   3  100.01    5.64
  10   4   4   -3.96    6.77
  11   3  -1    1.04    6.58
  12   0  -8   27.99    4.68
  12   4   3    9.21    7.50
  14   2  -5    6.32    6.89
  15   3  -2   -2.32    5.31
  16   0  -9    0.38    5.23
  18   4   2   -3.56    8.80
  20   0  -9    1.88    5.78
  21   3  -2    3.01    8.22
  22   0  -9   -4.80    7.65
  23   1  -7   -0.28    7.07
   3   3   5    3.48    3.80
   8   4   5   -1.72    5.82
  10   2  -4    3.65    5.58
  13   1  -7   53.65    6.33
  17   1  -8    6.80    6.68
  17   3  -3    5.08    7.45
  18   2  -6   -0.38    8.09
  18   4   1    7.21    9.49
  19   1  -8   -6.37    7.47
  19   3  -3    0.37    8.99
  21   1  -8   -5.04    8.08
  21   3  -3    2.36    8.04
   4   2   0    2.96    3.78
   8   2  -3  280.33    8.03
  10   4   3    3.90    6.72
  12   2  -5   -0.94    6.75
  14   0  -9    8.38    4.76
  14   4   1    3.71    8.71
  15   1  -8   -2.99    6.31
  15   3  -3   -0.06    7.54
  16   2  -6    7.74    6.97
  16   4   1    1.49    7.46
  22   2  -6   -4.32    9.10
  23   1  -8    3.43    7.28
   6   4   6    0.40    5.36
  13   3  -3   -2.06    7.39
  17   3  -4    3.86    7.18
  18   0 -10    6.83    6.14
  19   3  -4    2.70    8.92
  20   0 -10   -6.92    6.47
  21   3  -4    3.48    9.20
   5   3   2   16.75    5.03
   6   2  -2    3.89    3.25
   7   1  -5    6.91    3.93
   7   3   0    7.72    5.61
  10   0  -8   86.49    5.04
  12   4   1   -2.73    7.59
  13   1  -8   26.88    6.35
  14   4   0    3.85    7.35
  15   3  -4    1.90    7.49
  15   5   6   -2.01    7.89
  16   2  -7   19.84    6.77
  17   1  -9    7.96    6.69
  19   1  -9    0.83    7.29
  21   1  -9   -0.14    7.51
  23   1  -9    1.67    6.51
   3   3   4    6.77    4.08
   8   0  -7   10.18    3.54
  10   2  -5    4.59    6.04
  11   3  -3   21.93    7.14
  12   0  -9    7.98    4.60
  12   2  -6   -2.90    6.45
  13   5   6    7.47    8.10
  15   5   5    4.89    7.71
  17   3  -5    4.43    7.10
  19   3  -5    5.06    8.85
  21   3  -5   -3.02    8.88
   6   4   5    9.77    4.79
   8   2  -4   33.87    6.52
   8   4   3    1.15    5.88
   9   3  -2   -0.60    6.44
  13   3  -4   -4.71    7.10
  13   5   5   -3.08    8.73
  14   0 -10   -0.11    4.66
  14   2  -7    3.59    6.86
  15   1  -9    2.80    6.50
  15   3  -5   -1.79    7.29
  15   5   4    4.57    8.57
  18   4  -2    1.98    8.36
  20   2  -8    2.95    8.18
  21   1 -10   11.09    8.16
  22   2  -8    1.14    8.27
   4   2  -1   40.99    4.18
   5   3   1   -2.60    5.19
  10   4   1    5.37    6.53
  16   4  -2    1.52    8.40
  17   1 -10    6.75    7.35
  18   0 -11    1.35    6.15
  19   1 -10    1.83    7.05
  19   3  -6   -1.88    8.95
  21   3  -6   -5.20    9.30
  23   1 -10   11.53    6.96
   5   1  -4  499.20    6.87
   6   4   4   -0.38    5.20
   8   4   2    7.33    6.05
  11   1  -8    9.95    5.49
  11   3  -4    6.93    7.05
  11   5   5    2.87    7.50
  12   2  -7    8.66    6.42
  12   4  -1   -3.00    7.63
  13   1  -9   -0.11    6.05
  13   3  -5    2.05    7.28
  13   5   4   -8.30    8.55
  15   5   3    9.06    8.19
  16   0 -11    3.05    5.43
  17   3  -6   -0.23    7.27
  18   4  -3    6.44    9.03
  20   2  -9   -0.16    8.03
  22   2  -9    5.34    8.36
   1   3   6   60.85    4.12
   3   3   3   -0.02    4.11
   9   3  -3    7.30    6.81
  10   2  -6   -1.26    6.44
  10   4   0   -0.25    7.38
  13   5   3    6.71    8.37
  14   2  -8    6.64    7.03
  15   1 -10    4.24    6.48
  15   3  -6   -4.95    8.03
  15   5   2    1.51    8.25
  16   4  -3    1.42    8.21
  18   2  -9    1.49    7.86
  19   3  -7    4.51    8.98
  21   1 -11    0.89    7.35
  23   1 -11    4.28    6.77
   7   1  -6   35.71    4.56
   8   2  -5    1.60    6.21
   8   4   1    4.13    6.27
  10   0  -9   50.96    4.94
  11   5   4    5.24    7.28
  12   0 -10    0.55    4.46
  14   4  -3    0.25    8.36
  17   3  -7   -5.35    7.99
  18   4  -4    7.47    8.75
  19   1 -11    1.15    6.90
   5   3   0    9.52    5.30
   6   4   3    0.61    5.55
   8   0  -8   19.34    4.45
  10   4  -1    1.80    7.23
  11   3  -5    5.12    7.24
  11   5   3   -0.67    8.00
  13   3  -6    5.25    7.78
  13   5   2    3.02    8.46
  14   0 -11    7.44    4.64
  15   5   1    2.82    8.34
  16   4  -4   -0.63    9.31
  17   1 -11   -2.69    6.96
  17   5   0   -3.46    9.24
  18   2 -10   -2.47    8.66
  20   2 -10   -0.95    8.14
  22   2 -10    0.72    7.43
   9   3  -4   -0.90    6.60
  11   1  -9    3.00    5.50
  12   2  -8   12.98    6.97
  13   1 -10    9.59    5.94
  13   5   1    3.97    7.38
  15   5   0   -4.44    8.40
  16   0 -12    5.03    5.36
  18   4  -5    6.67    8.42
  21   1 -12   -3.86    8.12
  23   1 -12   -4.19    7.09
   3   3   2    8.28    4.55
   4   2  -2   30.15    3.55
   4   4   5    9.15    4.51
   6   4   2   51.96    6.39
   8   4   0   -3.54    6.58
  10   4  -2    2.39    7.71
  16   2 -10   -6.28    7.63
  16   4  -5   -7.82    8.70
  19   1 -12    3.56    7.61
  22   2 -11   -2.51    8.09
   5   3  -1   -3.93    5.55
   7   3  -3   -2.79    6.33
  13   3  -7   19.64    5.88
  13   5   0    6.66    8.24
  14   4  -5   -3.97    8.21
  15   3  -8    1.30    8.27
  15   5  -1   -4.40    9.43
  17   1 -12   -1.09    6.94
  17   5  -2   -5.33    9.71
  18   2 -11   -1.05    8.02
  18   4  -6    1.18    8.63
  19   3  -9   -3.09    8.70
   4   4   4    6.80    5.59
   6   0  -7    2.47    3.85
   8   4  -1   -5.58    7.11
   9   3  -5   21.13    7.59
   9   5   3   12.34    7.27
  11   5   1   -8.81    8.55
  12   0 -11   -0.71    4.88
  12   2  -9   -1.98    7.05
  12   4  -4   -1.00    7.80
  14   0 -12    4.33    4.91
  15   5  -2   -8.93    8.53
  16   4  -6    6.61    9.62
  17   3  -9    7.31    7.78
  18   4  -7    1.79   10.56
  21   1 -13   -1.20    8.36
   6   4   1   43.63    6.79
   9   5   2    4.47    8.58
  10   2  -8   50.25    7.55
  11   1 -10   16.43    6.09
  11   5   0   -0.09    9.40
  13   3  -8    4.18    8.59
  13   5  -1    9.71    7.78
  16   2 -11   -1.71    7.80
  19   1 -13    6.79    7.68
  20   2 -12   -2.82    8.34
   3   3   1  252.91    6.85
   4   2  -3   -1.24    4.83
   6   2  -5   80.73    6.35
   7   3  -4    4.45    6.69
   8   4  -2   10.76    8.30
   9   1  -9   16.52    5.97
  11   3  -7    4.05    7.92
  13   5  -2   -8.73    8.30
  14   4  -6   -7.40    7.92
  15   5  -3    1.20    9.42
  16   4  -7    2.38   10.06
  17   1 -13    1.41    6.55
  17   3 -10    0.28    8.92
  18   2 -12   11.56    8.25
  18   4  -8    4.70   10.59
   4   4   3    2.29    5.13
   6   4   0    1.41    6.86
   8   0  -9    7.70    4.46
   8   2  -7    0.78    4.98
   9   3  -6    9.39    7.54
   9   5   1   -1.56    8.03
  11   5  -1   -2.43    8.91
  14   2 -11    0.01    8.13
   9  -1 -10    9.18    3.67
  11   3  -8   -0.05    8.12
  12   4  -6   -5.01    8.86
  13   1 -12    6.03    7.00
  13   5  -3   -0.78    8.65
  14   0 -13   -0.05    6.43
  14   4  -7   -3.27    8.44
  15   3 -10    2.00    9.25
  16   2 -12    4.10    8.00
  16   4  -8   -0.01   10.48
  18   4  -9   -3.70   11.12
   3   3   0  132.68    6.36
   4   4   2    3.76    5.93
   7   3  -5    7.08    6.57
   8   4  -3   57.35    8.36
  11   1 -11    2.48    6.18
  11   5  -2   13.02    9.53
  14   6   1    4.95    8.90
  15   1 -13    5.47    7.28
  19   3 -12    2.80   10.16
   2   2  -1    9.21    3.76
   6   2  -6   16.55    6.34
   6   4  -1   -5.24    7.11
   7   5   2    0.07    7.27
   8   2  -8    8.45    7.06
   9   3  -7   12.49    7.72
  10   0 -11   17.16    4.45
  12   4  -7   -6.24    8.67
  13   5  -4    1.78    9.36
  14   4  -8    8.38    8.84
  14   6   0    6.26    8.86
  15   3 -11    5.28    8.78
  16   4  -9    0.79   10.87
  17   1 -14   -3.75    6.99
  20   2 -14    3.11    8.30
   3   1  -4   66.16    4.24
   4   2  -4   19.30    4.81
   9   1 -10   11.20    5.96
  11   3  -9    7.12    8.86
  11   5  -3    8.78    9.85
  13   3 -10    7.37    8.18
  18   2 -14   -2.65    9.02
  18   4 -10   -1.38    9.79
  19   1 -15   -1.25    8.06
   1   3   3    7.69    4.00
   4   4   1    0.80    5.97
   6   0  -8   46.39    3.62
   7   5   1    2.22    7.72
  10   2 -10   -3.82    7.19
  10   4  -6    1.37    8.46
  12   6   1    0.94    8.42
  13   1 -13   -3.89    6.58
  13   5  -5    2.00    9.82
  14   4  -9   -5.83    9.19
  14   6  -1   -2.50    9.18
  15   1 -14   -1.57    7.57
  16   4 -10   -4.45   10.73
   3   3  -1   31.59    6.22
   5   3  -4  157.04    8.63
   7   3  -6    7.60    5.93
   8   0 -10   36.78    4.89
   9   3  -8   -2.81    8.80
   9   5  -2    1.94    8.96
  11   1 -12    6.92    6.34
  12   0 -13   34.08    5.93
  12   4  -8    1.89    9.98
  12   6   0   -3.27    9.01
  14   2 -13   -0.36    8.02
  14   6  -2    0.63    9.81
  15   5  -7   -4.29   11.18
  17   1 -15   -2.10    7.41
  17   3 -13   11.19    8.70
  20   2 -15    4.38    8.33
   5   1  -7   17.64    4.74
   6   2  -7    2.73    7.24
   7   5   0   -3.61    8.61
   8   2  -9   11.03    7.01
  11   3 -10   11.43    8.93
  12   2 -12    4.65    8.13
  12   6  -1    8.93    8.79
  14   4 -10    2.79    9.45
  16   2 -14    4.00    8.17
  16   4 -11   -2.00    9.46
  18   2 -15    3.04    8.30
  19   3 -14   -6.82    8.93
   1   3   2    0.91    5.02
   4   4   0   -0.57    6.56
   9  -1 -11    0.31    3.76
   9   1 -11    1.16    6.02
  10   0 -12    7.74    4.79
  11   5  -5   -0.76    9.80
  12   4  -9    0.04   10.74
  20   2 -16   -0.38    8.85
   3   3  -2   15.66    6.84
   7   3  -7    0.36    6.20
   7   5  -1    1.66    9.11
   8   4  -6    0.82    9.57
   9   3  -9   -5.24    9.57
  10   4  -8    4.02    9.04
  12   6  -2   -8.88   10.10
  13   1 -14   -2.61    7.23
  13   3 -12   -5.60    9.71
  14   2 -14    0.66    8.01
  15   1 -15   -2.72    7.83
  17   1 -16    2.75    9.00
  17   3 -14    0.43   10.27
   3   1  -5   44.10    4.24
   6   4  -4   21.47    8.45
   8   2 -10   35.89    7.50
   9   5  -4    1.43    9.19
  11   1 -13   -0.76    6.72
  11   3 -11   -4.84    9.57
  11   5  -6   -2.92   10.04
  12   4 -10   -3.85   10.20
  12   6  -3    0.62    9.64
  13   5  -8   -1.25   10.09
  14   4 -11   -6.20   10.43
  16   4 -12   -1.49    9.91
  18   2 -16   -4.47    9.11
   5   5   1    8.02    7.18
   7   5  -2    2.10    9.16
  10   6  -1   -6.12   10.10
  12   0 -14    5.25    5.61
  15   3 -14    8.38    9.73
  17   3 -15    9.57    8.80
  20   2 -17   -0.46    8.09
   7   3  -8   19.67    6.37
  -1  -3 -10    9.38    2.44
   2  -2  -7    2.38    2.05
   3  -3 -14   -1.97    3.72
   4  -2  -9    7.49    3.12
   8  -2 -15    3.03    4.04
   9  -1 -11    0.63    2.95
  10  -2 -22    0.71    4.94
  10  -2 -21    3.47    5.21
  10  -2 -20    4.56    4.20
  13  -1 -23    2.70    5.40
  13  -1 -22    7.49    4.93
  13  -1 -21   -4.14    4.58
  14   0 -18    2.18    4.56
   1  -3 -11   62.48    3.57
   5  -1  -6    2.79    2.07
   6  -2 -11    3.47    3.52
   7  -3 -22   -2.11    5.08
   7  -1  -8   72.33    3.10
   8  -2 -14   -1.35    3.85
  10  -2 -19   -1.29    4.55
  10   0  -9   60.70    3.18
  13  -1 -20   -2.13    4.86
  14   0 -17    4.37    4.04
  -3  -3  -8   27.59    2.49
  -1  -3  -9    7.83    2.75
   0  -4 -21   -1.35    5.00
   0  -4 -20    0.70    4.52
   0  -4 -19   -4.97    4.50
   3  -3 -13    8.68    3.32
   7  -3 -21   -2.17    5.09
   7  -3 -20   -0.69    4.75
  10  -2 -18    2.67    4.48
  11   1  -8   10.15    1.93
  13  -1 -19    2.31    4.47
  13  -1 -18    1.70    5.05
  13   1 -11    0.98    2.29
  14   0 -16    0.97    4.21
   0  -4 -18    0.22    4.04
   0  -2  -5   68.40    2.18
   2  -4 -23    1.55    4.34
   2  -4 -22    0.92    4.44
   3  -3 -12    7.24    3.23
   3  -1  -4   64.53    1.71
   4  -2  -8   55.44    3.20
   6  -2 -10    3.45    3.30
   7  -3 -19   -0.79    4.09
   7  -3 -18    5.51    4.14
   8  -2 -13    0.34    3.68
   8   0  -6    8.13    1.77
   9  -1 -10    4.60    3.11
  10  -2 -17    0.86    4.21
  12  -2 -23    0.41    5.41
  13  -1 -17    2.02    4.78
  14   0 -15   -4.76    4.41
  16   0 -23    5.70    4.00
  16   0 -22    2.93    4.61
   0  -4 -17    2.20    3.73
   1  -3 -10   20.12    3.07
   2  -4 -21    2.24    4.46
   2  -4 -20   -5.17    4.72
   8  -2 -12    5.54    3.52
  10  -2 -16    4.14    4.07
  10   0  -8   89.49    3.27
  12  -2 -22   -3.73    5.73
  12  -2 -21    1.83    5.45
  12   0 -11    2.08    3.22
  16   0 -21   -1.37    4.27
  16   0 -20    1.06    4.22
   0  -4 -16    1.80    3.78
   2  -4 -19    4.08    4.51
   2  -4 -18    1.40    3.92
   2  -2  -6   23.78    2.19
   3  -3 -11   -3.92    3.25
   7  -3 -16    3.46    3.98
   7  -1  -7   13.52    2.46
   9  -3 -22    2.66    5.76
   9  -3 -21    3.38    5.32
  10  -2 -15    6.05    4.35
  12  -2 -20    1.59    5.24
  13  -1 -16    1.66    4.35
  13   1 -10    5.37    2.67
  14   0 -14    0.64    3.64
  15  -1 -22   -0.40    5.23
  16   0 -19   -0.28    4.87
  -3  -3  -7    4.93    2.29
  -1  -3  -8   13.20    2.36
   0  -4 -15   -0.42    3.73
   1  -3  -9    5.71    2.76
   2  -4 -17   -3.02    4.17
   4  -4 -22    3.57    4.25
   4  -4 -21    4.00    4.59
   4  -4 -20   -5.58    5.01
   6  -2  -9   11.55    3.24
   9  -3 -20    4.25    5.12
   9  -3 -19    0.63    4.62
   9  -1  -9   12.56    3.01
  10  -2 -14   -0.05    4.39
  12  -2 -19   -0.62    4.54
  12  -2 -18   -3.35    4.21
  13  -1 -15    5.07    4.43
  15  -1 -21    1.78    4.79
  15  -1 -20   -0.04    4.52
  16   0 -18    5.99    4.19
   0  -4 -14   -3.25    4.02
   2  -4 -16    2.76    3.96
   4  -4 -19    5.09    4.63
   4  -2  -7   24.50    2.50
   7  -3 -15   -0.39    3.96
   8  -2 -11    2.24    2.55
   9  -3 -18    1.98    4.51
  12  -2 -17    2.40    4.70
  12   0 -10   -2.76    3.06
  14   0 -13    3.31    3.27
  15  -1 -19    0.84    4.59
  16   0 -17   -0.24    4.49
   2  -4 -15    1.35    4.21
   3  -3 -10    5.44    3.03
   4  -4 -18    0.60    4.45
   6  -4 -22    0.90    5.20
   7  -3 -14   -0.65    4.27
   9  -3 -17   -5.42    4.82
  10  -2 -13   -4.23    4.38
  13  -1 -14   -1.57    4.07
  15  -1 -18   -3.27    4.65
   0  -4 -13    0.47    3.31
   1  -3  -8    4.41    3.15
   6  -4 -21    4.87    4.61
   6  -2  -8   31.47    3.38
   7  -1  -6   28.01    2.52
   8  -2 -10   24.42    4.05
   8   0  -5    2.82    1.62
   9  -3 -16   -1.73    4.66
   9  -1  -8    1.03    3.10
  10   0  -7   50.60    2.91
  11  -3 -21    0.28    5.55
  12  -2 -16    1.64    4.34
  13  -1 -13   -3.46    4.64
  13   1  -9    0.98    2.06
  15  -1 -17    1.78    4.63
  16   0 -16   -0.47    3.99
  -1  -3  -7   41.21    2.70
   0  -2  -4   35.25    1.83
   2  -4 -14    4.31    3.86
   2  -2  -5  313.26    3.95
   3  -3  -9    7.06    3.00
   4  -4 -16    0.72    4.45
   6  -4 -19   -0.78    4.90
   7  -3 -13   -3.95    4.14
  10  -2 -12    7.17    3.93
  11  -3 -20   -3.96    5.33
  11  -3 -19    1.13    5.27
  11  -1 -10   14.32    3.43
  12  -2 -15    1.93    4.53
  12   0  -9    5.92    2.77
   0  -4 -12    4.06    3.06
   2  -4 -13    3.82    4.30
   4  -4 -15   -2.43    4.30
   4  -2  -6   -0.01    2.37
   6  -4 -18    1.84    4.20
   7  -3 -12   -1.28    3.97
   8  -4 -21   -2.60    5.15
   9  -3 -15    5.47    4.16
  11  -3 -18   -3.13    5.86
  12  -2 -14    8.03    4.37
  15  -1 -16    1.53    4.42
  17  -1 -21   -0.80    5.16
   5  -1  -4  480.64    4.41
   6  -4 -17   -1.19    4.69
   8  -4 -20   -4.19    5.52
   8  -2  -9    4.08    3.58
   9  -3 -14   15.90    4.67
  10  -2 -11   12.57    3.94
  11  -3 -17   -1.28    4.80
  13  -1 -12    2.20    3.64
  14   0 -11    2.97    3.00
  15  -1 -15   -2.19    4.54
  16   0 -14    1.79    4.41
  17  -1 -20   -0.24    5.00
   0  -4 -11    2.57    3.22
   1  -3  -7   34.44    2.97
   3  -3  -8    2.88    2.87
   4  -4 -14    0.44    3.98
   6  -4 -16    1.22    4.82
   6  -2  -7   -1.35    2.26
   7  -3 -11   14.26    4.13
  10   0  -6    4.16    2.46
  11  -3 -16   -0.37    4.37
  11  -1  -9    5.23    3.32
  12  -2 -13   24.49    4.82
  12   0  -8   31.80    3.25
  13  -3 -20   -1.19    5.76
  17  -1 -19   -2.51    5.17
  -2  -4 -10    0.02    2.70
  -1  -3  -6   63.44    2.83
   4  -4 -13   -3.81    4.19
   5  -3  -9   23.85    3.88
   6  -4 -15   10.40    4.72
   7  -1  -5    9.98    2.14
   9  -3 -13    2.23    4.34
  10  -2 -10   -0.15    3.57
  13  -3 -19    6.23    5.61
  13  -1 -11    1.10    3.67
  16  -2 -20   -4.01    5.89
  16   0 -13   -0.17    4.15
  17  -1 -18   -0.62    5.29
   6  -4 -14    1.86    4.95
   8  -2  -8   13.56    3.34
  10  -4 -20   -3.52    6.38
  11  -3 -15    2.06    5.16
  12  -2 -12    6.12    4.51
  13  -3 -18   -1.91    5.63
  14   0 -10   -0.34    2.90
  17  -1 -17    2.38    5.16
   2  -4 -11    2.00    3.33
   2  -2  -4  204.04    3.45
   3  -5 -19    2.13    4.62
   4  -4 -12    0.34    4.15
   4  -2  -5   37.18    1.98
   6  -2  -6   16.32    2.88
   8   0  -4   71.37    2.21
   9  -3 -12   -2.58    4.33
  10  -4 -19    3.02    5.72
  11  -3 -14    1.22    5.05
  11  -1  -8    8.51    3.16
  13  -3 -17    3.53    5.18
  13  -1 -10    4.26    4.06
  15  -1 -13    9.78    4.53
  16  -2 -18    1.61    5.82
  17  -1 -16    3.59    5.37
  -3  -3  -5    3.69    2.27
  -2  -4  -9    3.37    2.87
   1  -3  -6   39.02    2.97
   3  -5 -18    2.07    5.22
   3  -3  -7    2.64    3.30
   5  -3  -8    1.06    3.38
   6  -4 -13    1.11    4.50
  10  -4 -18    3.00    5.75
  10  -2  -9   30.76    4.35
  12  -2 -11    4.85    4.44
  16  -2 -17    2.78    5.33
  16   0 -12   -0.54    3.51
  19  -1 -20   -1.41    4.92
   2  -4 -10    4.06    3.29
   3  -5 -17   -3.98    5.69
   4  -4 -11   -0.51    4.00
   5  -5 -19   -0.74    4.93
   7  -3  -9   42.40    4.30
   8  -2  -7    2.16    3.48
   9  -3 -11    2.44    4.10
  10  -4 -17    1.65    5.79
  11  -3 -13   -2.59    4.86
  12   0  -7   22.73    2.77
  13  -3 -16    3.37    5.15
  14   0  -9    5.50    3.03
  15  -3 -19   -2.27    5.85
  15  -1 -12   19.57    4.64
  17  -1 -15    0.17    5.13
  19  -1 -19    1.43    4.78
  -1  -3  -5  154.12    3.65
   0  -4  -9   -1.23    2.79
   3  -5 -16    2.23    4.98
   5  -5 -18    4.63    4.03
   5  -1  -3  210.90    3.22
   6  -4 -12   -8.30    4.38
  10  -4 -16   -2.58    5.97
  10   0  -5    2.43    2.08
  13  -3 -15    2.06    5.30
  13  -1  -9    2.00    3.33
  15  -3 -18    1.47    5.63
  16  -2 -16   -1.71    4.77
  19  -1 -18    4.01    5.38
  -2  -4  -8    1.02    2.93
   3  -5 -15    8.62    4.86
   4  -4 -10   43.37    4.92
   5  -5 -17   -2.12    5.04
   7  -5 -19   -4.02    5.82
   7  -1  -4    1.61    2.30
   9  -3 -10    5.17    4.28
  10  -4 -15   -1.50    4.94
  10  -2  -8   52.58    4.76
  11  -3 -12    0.99    4.83
  11  -1  -7    7.49    3.18
  11   1  -5    1.78    2.06
  12  -4 -18    1.31    6.53
  12  -2 -10   -1.15    4.24
  13  -3 -14    6.31    4.94
  15  -1 -11    2.22    4.22
  16  -2 -15    2.64    5.49
  16   0 -11    0.66    3.32
  17  -1 -14    5.44    4.80
  18  -2 -19    0.28    5.79
   2  -4  -9    2.17    3.43
   3  -3  -6   57.65    3.67
   4  -2  -4   19.48    2.44
   5  -5 -16   -1.14    5.39
   5  -3  -7    5.43    2.46
   6  -4 -11    3.85    4.19
   6  -2  -5   82.28    3.50
   7  -5 -18    3.11    5.41
   7  -3  -8   26.19    4.05
  12  -4 -17   -0.31    6.07
  15  -3 -17    1.62    5.51
  18  -2 -18   -4.77    5.82
  19  -1 -17   -0.69    5.35
   0  -4  -8   -0.32    2.85
   1  -3  -5    2.52    2.63
   2  -2  -3    6.89    1.99
   3  -5 -14    1.91    4.63
   5  -5 -15   -1.99    5.34
   7  -5 -17   -2.02    5.83
   8  -2  -6    4.74    3.69
   9  -3  -9    3.98    4.16
  10  -4 -14    0.45    4.91
  11  -3 -11    1.33    4.95
  12  -4 -16    3.71    5.36
  12  -2  -9    1.45    4.01
  12   0  -6    1.52    2.97
  13  -3 -13   -0.18    5.50
  14   0  -8    5.11    2.80
  16  -2 -14    9.76    4.97
  17  -1 -13   -3.15    4.63
  18  -2 -17   -0.25    5.37
  19  -1 -16   -1.85    6.15
   3  -5 -13    6.18    4.56
   4  -4  -9    0.92    3.79
   6  -4 -10   -2.92    4.69
   7  -5 -16    2.29    5.49
  10  -4 -13   -1.04    5.02
  13  -1  -8   23.39    4.02
  14  -2 -11   -3.07    4.87
  15  -3 -15    1.34    5.84
  15  -1 -10    3.88    3.99
  16   0 -10    2.24    3.53
  -3  -3  -4    6.35    2.27
  -2  -4  -7   -0.28    2.83
   2  -4  -8    6.21    3.60
   5  -5 -14   -1.08    4.74
   5  -3  -6   -2.97    3.61
   7  -5 -15   -1.89    4.82
   7  -3  -7    5.86    4.26
   8   0  -3  458.85    3.98
  11  -3 -10    9.85    4.78
  11  -1  -6    7.93    3.40
  12  -4 -15   -4.42    6.37
  13  -3 -12    3.33    5.10
  16  -2 -13    2.10    5.04
  17  -1 -12    7.87    4.35
  18  -2 -16   -4.55    5.95
  19  -1 -15    1.33    5.52
  -1  -3  -4   -1.75    2.56
   0  -4  -7   19.70    3.33
   3  -5 -12   -0.18    4.13
   3  -3  -5    6.54    3.55
   5  -5 -13    2.25    5.16
   9  -5 -16   -2.73    5.60
   9  -3  -8   -0.53    4.34
  10  -4 -12   -1.64    5.48
  10   0  -4    1.17    2.36
  12  -4 -14    6.19    5.63
  12  -2  -8   16.66    4.31
  14  -4 -17    2.89    6.67
  14  -2 -10    0.05    4.77
  15  -3 -14   -0.08    5.56
  18  -2 -15   -1.75    5.74
   6  -4  -9    3.60    4.30
   6  -2  -4  116.17    3.78
   7  -5 -14    2.02    5.54
   7  -1  -3    5.07    2.33
   8  -2  -5   -2.44    3.61
  13  -3 -11   -0.48    5.17
  13  -1  -7   64.08    4.12
  14  -4 -16   -4.73    6.51
  14   0  -7   12.56    3.01
  15  -3 -13   -2.59    6.05
  15  -1  -9    4.59    4.10
  16  -2 -12    3.98    4.68
  16   0  -9   -1.89    3.37
  17  -1 -11    2.72    5.16
  19  -1 -14   -1.34    5.27
   1  -3  -4    3.70    2.70
   2  -4  -7    3.03    3.54
   3  -5 -11    6.33    4.85
   4  -2  -3    1.74    2.41
   5  -5 -12    2.77    5.09
   5  -1  -2   71.41    2.37
   7  -5 -13   -4.19    4.97
   9  -5 -15    0.58    5.99
  10  -4 -11    4.91    5.47
  10  -2  -6   -1.18    3.74
  11  -3  -9    0.17    3.39
  12  -4 -13    5.69    5.73
  14  -4 -15   -4.75    6.39
  18  -2 -14    1.07    5.78
   1  -5 -10    4.84    4.98
   5  -3  -5   34.73    4.05
   6  -4  -8    8.25    4.61
   7  -3  -6   11.63    3.89
   9  -5 -14    1.73    6.01
   9  -3  -7   13.46    4.45
  11  -1  -5    2.00    3.23
  11   1  -4    0.94    1.79
  12   0  -5    3.42    2.69
  13  -3 -10   -3.96    5.31
  14  -2  -9    6.12    4.49
  15  -3 -12   10.64    5.23
  16  -2 -11    0.76    5.03
  19  -1 -13    2.44    4.94
  -2  -4  -6    8.11    2.42
   0  -4  -6    0.01    3.31
   4  -4  -7    5.01    4.00
   5  -5 -11   -0.79    5.06
   7  -5 -12   -1.91    5.64
   8  -4  -9    5.12    3.29
  10  -4 -10    0.40    5.29
  11  -3  -8    5.55    4.59
  12  -4 -12    1.60    5.15
  14  -4 -14    1.12    6.77
  15  -1  -8    1.40    3.88
  18  -2 -13    1.61    5.56
  20  -2 -16    3.00    5.86
   2  -4  -6    4.06    4.02
   2  -2  -2   10.30    2.10
   3  -5 -10   -1.86    4.66
   8  -2  -4   42.69    3.87
   9  -5 -13    0.81    5.66
  12  -4 -11   -2.87    5.20
  13  -1  -6    9.77    3.44
  14  -4 -13    1.79    6.07
  14  -2  -8    7.06    4.59
  15  -3 -11    0.39    5.99
  16  -2 -10    1.53    5.15
  16   0  -8    0.97    3.35
  20  -2 -15    2.68    5.03
   5  -5 -10   -0.42    5.05
   6  -2  -3   17.82    2.94
   7  -5 -11   -0.32    5.80
   7  -3  -5    4.97    4.03
   8  -4  -8    1.49    4.70
   9  -5 -12   -1.02    5.39
   9  -3  -6    4.95    4.28
  10  -2  -5    2.38    3.45
  13  -3  -9    0.34    4.95
  14   0  -6    0.88    2.96
  17  -3 -13    1.57    6.81
  18  -2 -12    9.52    5.53
  -1  -3  -3    4.22    2.14
   3  -5  -9   -0.13    4.59
   4  -4  -6    2.30    3.99
   5  -3  -4  158.08    5.07
   6  -6 -15   -2.33    5.84
  10  -4  -9    8.40    3.99
  11  -3  -7    2.83    4.73
  14  -4 -12    2.54    6.41
  15  -3 -10   -2.47    5.56
  15  -1  -7    0.40    3.74
  16  -4 -14   -2.03    6.60
  17  -1  -9    7.42    4.29
  20  -2 -14    1.16    5.62
  -3  -3  -3   -1.03    1.87
   0  -4  -5   11.75    3.50
   1  -3  -3    1.02    2.69
   4  -2  -2   31.63    2.83
   5  -5  -9   -0.64    5.48
   6  -6 -14   -2.91    5.90
   7  -5 -10    6.91    5.87
   7  -1  -2   17.27    2.55
   8   0  -2   34.27    1.93
   9  -5 -11   -1.35    5.63
  10   0  -3    2.91    2.03
  11  -1  -4    0.41    3.26
  12  -4 -10   -0.09    4.57
  13  -3  -8    4.27    5.60
  14  -2  -7    5.19    4.52
  16  -2  -9   -0.15    4.81
  17  -3 -12   -1.35    5.87
  18  -2 -11    9.09    5.45
  -2  -4  -5   13.81    2.54
   1  -5  -8    3.68    3.80
   2  -4  -5   73.51    4.51
   8  -4  -7   -4.56    5.17
  10  -4  -8   11.13    5.57
  13  -1  -5    1.29    3.35
  14  -4 -11   -6.12    6.40
  16  -4 -13    0.79    6.91
  19  -3 -14    1.45    6.16
  20  -2 -13   -3.65    5.91
   3  -5  -8   -2.50    4.72
   6  -6 -13    0.67    5.77
   7  -5  -9    3.81    5.57
   7  -3  -4    0.20    4.07
   8  -6 -14    2.52    6.11
   8  -2  -3  290.39    5.82
   9  -5 -10   -1.21    6.12
   9  -3  -5   28.27    4.85
  10  -2  -4    3.35    3.81
  11  -3  -6    7.98    4.88
  12  -4  -9    3.02    5.62
  13  -5 -13    2.97    7.06
  14   0  -5    1.85    3.20
  16  -2  -8    4.64    4.99
  17  -3 -11   -0.46    5.58
  17  -1  -8    1.41    4.58
  18  -2 -10   -0.60    5.76
  19  -3 -13   -8.53    7.11
  19  -1 -10    0.95    5.03
   4  -4  -5    4.23    4.26
   5  -5  -8   -2.20    5.09
   6  -2  -2    0.20    2.85
  10  -4  -7    1.90    5.28
  13  -3  -7   20.99    5.82
  14  -4 -10   -0.13    6.25
  14  -2  -6    1.73    4.09
  15  -1  -6    1.97    3.72
  16  -4 -12    2.57    6.09
  20  -2 -12    0.05    5.96
   1  -5  -7    1.49    3.84
   3  -5  -7    6.07    5.21
   5  -3  -3   70.88    4.53
   6  -6 -12    0.91    6.15
   8  -4  -6    0.45    4.98
   9  -5  -9    1.43    5.81
  12  -4  -8    6.57    6.05
  13  -5 -12   -5.58    6.74
  16  -4 -11    1.94    6.51
  17  -3 -10   -3.07    5.62
  19  -3 -12   -3.33    6.67
   0  -4  -4    5.54    3.05
   2  -4  -4   30.63    4.21
   2  -2  -1    8.23    2.27
   6  -6 -11   -0.10    6.35
   7  -5  -8    3.97    5.26
   8  -6 -12   -3.71    5.93
   9  -3  -4   -1.36    4.34
  11  -3  -5    0.00    4.88
  11  -1  -3   56.48    3.88
  13  -5 -11   -4.10    6.30
  13  -1  -4    2.50    3.88
  14  -4  -9    3.07    6.08
  16  -2  -7   13.28    5.42
  17  -1  -7    1.18    4.46
  18  -2  -9   -5.38    5.43
  19  -1  -9   -2.27    5.22
  20  -2 -11    7.07    5.72
  -2  -4  -4    4.28    3.11
  -1  -3  -2   -1.50    2.76
   4  -4  -4    2.83    4.30
   5  -5  -7   -0.02    5.05
   7  -3  -3    3.66    4.23
   9  -5  -8    4.25    5.75
  10  -4  -6   -3.52    5.60
  10  -2  -3    2.25    3.84
  12  -4  -7    0.49    5.47
  13  -3  -6    4.94    5.11
  16  -4 -10   -2.71    6.84
  17  -3  -9    2.30    5.77
  19  -3 -11   -0.21    6.68
  22  -2 -13   -0.93    6.16
   1  -5  -6    3.71    4.57
   3  -5  -6    1.90    5.22
   4  -2  -1   39.69    3.28
   6  -6 -10    4.37    6.49
   7  -5  -7    6.03    5.68
   7  -1  -1   36.26    2.96
   8  -6 -11   -1.87    6.15
   8  -4  -5   -1.75    5.12
   8  -2  -2   15.33    3.90
  10   0  -2    8.67    2.50
  11  -5  -9    0.81    5.98
  12   0  -3    3.79    2.80
  13  -5 -10    3.62    7.31
  14  -4  -8   -2.40    5.82
  14  -2  -5   -2.95    4.52
  15  -1  -5    2.98    3.79
  18  -2  -8    5.20    5.33
  20  -2 -10   -3.73    6.38
   5  -5  -6   -1.28    5.35
  11  -3  -4   -4.46    5.30
  13  -3  -5    3.27    5.01
  14   0  -4   -1.20    2.84
  16  -4  -9    1.96    6.72
  16  -2  -6   11.71    5.03
  17  -3  -8   -3.83    6.28
  18  -4 -11    0.45    7.39
  19  -3 -10   -0.18    6.53
  19  -1  -8    0.96    5.22
  22  -2 -12   -4.14    6.30
   4  -6  -9    5.79    5.90
   6  -6  -9    4.97    6.70
   6  -2  -1    1.00    3.14
   8  -6 -10   -7.74    6.57
   8   0  -1   41.26    2.38
   9  -5  -7   -1.60    6.31
   9  -3  -3    5.30    4.61
  10  -6 -11    0.18    6.10
  10  -4  -5   -3.74    5.67
  11  -5  -8    0.86    5.76
  12  -4  -6    1.58    5.91
  13  -5  -9   -0.81    7.31
  17  -1  -6    5.35    4.77
  20  -2  -9    1.03    6.44
   0  -4  -3    2.13    3.09
   7  -5  -6    0.52    5.49
   7  -3  -2    7.83    4.48
   8  -4  -4   11.45    5.21
  10  -6 -10   -2.43    6.16
  10  -2  -2    2.28    4.17
  11  -1  -2  217.17    5.30
  13  -1  -3    5.42    3.67
  14  -2  -4    0.70    4.55
  15  -5 -10    6.99    7.62
  16  -4  -8    3.54    6.42
  19  -3  -9   -4.57    6.86
  21  -3 -11    7.03    6.75
  22  -2 -11    0.77    6.37
   1  -5  -5    0.23    3.97
   3  -5  -5    0.81    4.87
   4  -6  -8   -1.26    5.75
   5  -5  -5    3.10    5.53
   8  -6  -9   -3.16    6.60
  11  -5  -7    3.94    5.99
  13  -5  -8   -1.81    7.26
  15  -1  -4    0.95    3.83
  16  -2  -5    4.02    5.02
  17  -3  -7   -6.50    5.92
  19  -1  -7    3.13    5.13
  -2  -4  -3   14.51    2.87
   1  -3  -1    3.48    3.04
   5  -1   0    1.53    2.27
   6  -6  -8    0.07    6.32
   7  -5  -5    1.33    5.70
   8  -2  -1   14.81    4.10
  10  -6  -9    2.02    7.23
  10  -4  -4    3.45    5.47
  11  -3  -3   25.48    5.40
  12  -4  -5    3.60    5.57
  14  -4  -6    2.11    5.99
  15  -5  -9   -2.75    8.10
  19  -3  -8    3.85    6.14
  20  -2  -8    1.73    6.45
  21  -3 -10    3.33    6.81
  22  -2 -10    0.38    6.26
   2  -2   0    4.98    2.69
   4  -6  -7    1.07    5.92
   5  -3  -1   -2.79    4.43
   8  -6  -8   -0.99    6.74
   8  -4  -3   61.08    6.03
  11  -5  -6   -6.71    6.03
  12   0  -2    2.04    3.51
  13  -5  -7    1.24    7.55
  14   0  -3    1.98    3.22
  16  -4  -7    9.07    6.47
  17  -3  -6    1.44    5.96
  18  -2  -6    3.02    5.36
  -1  -3  -1    0.65    2.54
   1  -5  -4    1.95    4.65
   2  -4  -2    0.51    4.21
   3  -5  -4    1.08    4.68
   4  -4  -2    8.49    4.49
   4  -2   0    2.00    3.20
   5  -5  -4   24.09    5.61
   6  -6  -7    3.40    6.36
  10  -6  -8    3.20    7.23
  12  -4  -4    1.77    5.86
  14  -4  -5   -2.47    5.97
  14  -2  -3   -1.66    4.48
  15  -5  -8    7.13    7.00
  16  -2  -4    2.88    4.53
  19  -1  -6    9.78    4.76
  20  -2  -7    2.30    6.80
  21  -3  -9   -4.38    6.75
   0  -4  -2   -2.03    3.31
   7  -5  -4    0.56    5.78
   7  -1   0   20.71    3.50
   8  -6  -7    1.40    6.43
  10  -4  -3   -8.60    6.07
  10  -2  -1    2.44    4.35
  10   0  -1   14.49    2.54
  11  -3  -2   80.90    6.31
  13  -5  -6   -6.01    6.87
  13  -3  -3   -2.49    5.26
  13  -1  -2    5.52    3.83
  15  -1  -3    3.97    3.90
  16  -4  -6   -0.71    7.33
  19  -3  -7    4.41    5.66
   4  -6  -6   -0.14    5.67
   6  -6  -6   -0.44    6.49
   8  -4  -2   -0.76    5.39
   9  -3  -1    2.35    4.50
  10  -6  -7   -1.75    7.29
  11  -5  -5   -1.83    6.00
  15  -5  -7   -7.06    7.36
  17  -3  -5    4.27    5.78
  17  -1  -4    3.90    4.06
  18  -2  -5    2.99    5.03
  21  -3  -8    2.79    5.77
   3  -5  -3    3.10    4.93
   5  -5  -3    5.18    5.75
   8  -6  -6    1.43    6.73
   8  -2   0   11.59    4.33
  12  -4  -3    4.99    5.86
  14  -4  -4   -3.24    6.30
  16  -4  -5   -3.90    7.13
  19  -3  -6    2.92    6.49
  20  -2  -6   -2.02    6.52
   1  -5  -3    1.97    4.05
   4  -4  -1    7.17    4.58
   5  -3   0    2.32    4.76
   7  -5  -3   -1.34    5.91
  10  -6  -6    4.62    7.36
  10  -4  -2    3.55    5.96
  11  -5  -4    4.28    6.40
  12  -6  -7    1.00    7.72
  13  -5  -5   -2.49    6.79
  13  -3  -2    0.39    5.39
  15  -5  -6   -5.40    8.36
  16  -2  -3    3.27    5.06
  17  -3  -4    0.51    5.77
   0   0   0    0.00    0.00
;
_shelx_hkl_checksum              29257
loop_
_space_group_symop_operation_xyz
'x, y, z'
'-x, y, -z'
'x+1/2, y+1/2, z'
'-x+1/2, y+1/2, -z'
'-x, -y, -z'
'x, -y, z'
'-x+1/2, -y+1/2, -z'
'x+1/2, -y+1/2, z'
loop_
_atom_site_label
_atom_site_type_symbol
_atom_site_fract_x
_atom_site_fract_y
_atom_site_fract_z
_atom_site_U_iso_or_equiv
_atom_site_adp_type
_atom_site_occupancy
_atom_site_site_symmetry_order
_atom_site_calc_flag
_atom_site_refinement_flags_posn
_atom_site_refinement_flags_adp
_atom_site_refinement_flags_occupancy
_atom_site_disorder_assembly
_atom_site_disorder_group
Bi1 Bi 0.45138(10) 0.000000 0.18902(10) 0.0463(6) Uani 0.943(3) 2 d S T P . .
Bi2 Bi 0.15163(11) 0.000000 0.06460(16) 0.0429(6) Uani 0.757(3) 2 d S T P . .
Ag2 Ag 0.15163(11) 0.000000 0.06460(16) 0.0429(6) Uani 0.200(0) 2 d S T P . .
Cu2 Cu 0.150(7) 0.000000 0.020(8) 0.02(3) Uiso 0.043(3) 2 d S . P . .
Bi3 Bi 0.24351(12) 0.000000 0.62223(11) 0.0598(6) Uani 1 2 d S T P . .
Se1 Se 0.4010(3) 0.000000 0.3575(3) 0.0467(10) Uani 1 2 d S T P . .
Se2 Se 0.7929(3) 0.000000 0.1242(3) 0.0480(10) Uani 1 2 d S T P . .
Se3 Se 0.1376(2) 0.000000 0.4561(2) 0.0362(8) Uani 1 2 d S T P . .
Se4 Se 0.0937(2) 0.000000 0.2308(2) 0.0408(9) Uani 1 2 d S T P . .
Se5 Se 0.000000 0.500000 0.000000 0.0344(11) Uani 1 4 d S T P . .
Cu3 Cu -0.016(7) 0.000000 0.438(7) 0.13(3) Uiso 0.091(8) 2 d S . P . .
Cu4 Cu 0.462(4) 0.000000 0.532(4) 0.091(18) Uiso 0.160(8) 2 d S . P . .
Cu5 Cu 0.000000 0.331(8) 0.500000 0.078(8) Uiso 0.243(8) 2 d S . P . .
Cu6 Cu 0.495(4) 0.000000 0.510(3) 0.030(8) Uiso 0.163(8) 2 d S . P . .
loop_
_atom_site_aniso_label
_atom_site_aniso_U_11
_atom_site_aniso_U_22
_atom_site_aniso_U_33
_atom_site_aniso_U_23
_atom_site_aniso_U_13
_atom_site_aniso_U_12
Bi1 0.0502(10) 0.0432(9) 0.0462(11) 0.000 0.0105(7) 0.000
Bi2 0.0406(10) 0.0392(9) 0.0495(15) 0.000 0.0095(8) 0.000
Ag2 0.0406(10) 0.0392(9) 0.0495(15) 0.000 0.0095(8) 0.000
Bi3 0.0664(11) 0.0586(11) 0.0493(11) 0.000 -0.0049(7) 0.000
Se1 0.054(2) 0.039(2) 0.054(3) 0.000 0.0274(19) 0.000
Se2 0.036(2) 0.0324(19) 0.071(3) 0.000 -0.0039(18) 0.000
Se3 0.0389(19) 0.0360(18) 0.034(2) 0.000 0.0074(15) 0.000
Se4 0.040(2) 0.035(2) 0.046(2) 0.000 0.0013(16) 0.000
Se5 0.033(3) 0.034(3) 0.035(3) 0.000 0.002(2) 0.000
loop_
_atom_type_symbol
_atom_type_description
_atom_type_scat_dispersion_real
_atom_type_scat_dispersion_imag
_atom_type_scat_source
Cu Cu 0.3240 0.8257 'International Tables Vol C Tables 4.2.6.8 and 6.1.1.4'
Se Se 0.2367 1.4831 'International Tables Vol C Tables 4.2.6.8 and 6.1.1.4'
Ag Ag -1.6473 0.7167 'International Tables Vol C Tables 4.2.6.8 and 6.1.1.4'
Bi Bi -1.3494 7.2566 'International Tables Vol C Tables 4.2.6.8 and 6.1.1.4'
loop_
_geom_angle_atom_site_label_1
_geom_angle_atom_site_label_2
_geom_angle_atom_site_label_3
_geom_angle
_geom_angle_site_symmetry_1
_geom_angle_site_symmetry_3
_geom_angle_publ_flag
Se1 Bi1 Se4 93.32(10) . 3 ?
Se1 Bi1 Se4 93.32(10) . 3_545 ?
Se4 Bi1 Se4 93.89(11) 3 3_545 ?
Se1 Bi1 Se2 91.65(10) . 3_445 ?
Se4 Bi1 Se2 173.63(11) 3 3_445 ?
Se4 Bi1 Se2 89.79(7) 3_545 3_445 ?
Se1 Bi1 Se2 91.65(10) . 3_455 ?
Se4 Bi1 Se2 89.79(7) 3 3_455 ?
Se4 Bi1 Se2 173.63(11) 3_545 3_455 ?
Se2 Bi1 Se2 86.10(10) 3_445 3_455 ?
Se1 Bi1 Se5 178.15(9) . 3_545 ?
Se4 Bi1 Se5 87.93(8) 3 3_545 ?
Se4 Bi1 Se5 87.93(8) 3_545 3_545 ?
Se2 Bi1 Se5 87.00(9) 3_445 3_545 ?
Se2 Bi1 Se5 87.00(9) 3_455 3_545 ?
Cu2 Bi2 Se4 162(8) . . ?
Cu2 Bi2 Se2 103(5) . 3_455 ?
Se4 Bi2 Se2 89.40(11) . 3_455 ?
Cu2 Bi2 Se2 103(5) . 3_445 ?
Se4 Bi2 Se2 89.40(11) . 3_445 ?
Se2 Bi2 Se2 92.44(12) 3_455 3_445 ?
Cu2 Bi2 Se5 76(5) . 1_545 ?
Se4 Bi2 Se5 90.81(7) . 1_545 ?
Se2 Bi2 Se5 177.93(8) 3_455 1_545 ?
Se2 Bi2 Se5 89.62(5) 3_445 1_545 ?
Cu2 Bi2 Se5 76(5) . . ?
Se4 Bi2 Se5 90.81(7) . . ?
Se2 Bi2 Se5 89.62(5) 3_455 . ?
Se2 Bi2 Se5 177.93(8) 3_445 . ?
Se5 Bi2 Se5 88.31(5) 1_545 . ?
Cu2 Bi2 Se2 16(8) . 5_655 ?
Se4 Bi2 Se2 177.64(11) . 5_655 ?
Se2 Bi2 Se2 92.23(11) 3_455 5_655 ?
Se2 Bi2 Se2 92.23(11) 3_445 5_655 ?
Se5 Bi2 Se2 87.49(7) 1_545 5_655 ?
Se5 Bi2 Se2 87.49(7) . 5_655 ?
Bi2 Cu2 Se2 160(10) . 5_655 ?
Bi2 Cu2 Se5 91(6) . 1_545 ?
Se2 Cu2 Se5 103(3) 5_655 1_545 ?
Bi2 Cu2 Se5 91(6) . . ?
Se2 Cu2 Se5 103(3) 5_655 . ?
Se5 Cu2 Se5 92(3) 1_545 . ?
Se3 Bi3 Se1 80.44(10) . 7_546 ?
Se3 Bi3 Se1 80.44(10) . 7_556 ?
Se1 Bi3 Se1 90.85(10) 7_546 7_556 ?
Se3 Bi3 Se3 82.35(10) . 7_556 ?
Se1 Bi3 Se3 162.67(12) 7_546 7_556 ?
Se1 Bi3 Se3 88.23(6) 7_556 7_556 ?
Se3 Bi3 Se3 82.35(10) . 7_546 ?
Se1 Bi3 Se3 88.23(6) 7_546 7_546 ?
Se1 Bi3 Se3 162.67(12) 7_556 7_546 ?
Se3 Bi3 Se3 87.53(9) 7_556 7_546 ?
Se3 Bi3 Cu3 50.8(19) . 5_556 ?
Se1 Bi3 Cu3 50.7(7) 7_546 5_556 ?
Se1 Bi3 Cu3 50.7(7) 7_556 5_556 ?
Se3 Bi3 Cu3 117.8(12) 7_556 5_556 ?
Se3 Bi3 Cu3 117.8(12) 7_546 5_556 ?
Cu6 Se1 Cu4 15.1(13) 5_656 5_656 ?
Cu6 Se1 Cu5 16.9(7) 5_656 7_556 ?
Cu4 Se1 Cu5 24.9(9) 5_656 7_556 ?
Cu6 Se1 Cu5 16.9(7) 5_656 3_545 ?
Cu4 Se1 Cu5 24.9(9) 5_656 3_545 ?
Cu5 Se1 Cu5 33.0(15) 7_556 3_545 ?
Cu6 Se1 Cu6 7(3) 5_656 . ?
Cu4 Se1 Cu6 22(2) 5_656 . ?
Cu5 Se1 Cu6 16.9(7) 7_556 . ?
Cu5 Se1 Cu6 16.9(7) 3_545 . ?
Cu6 Se1 Cu3 54(2) 5_656 3 ?
Cu4 Se1 Cu3 54.0(19) 5_656 3 ?
Cu5 Se1 Cu3 39(2) 7_556 3 ?
Cu5 Se1 Cu3 71(2) 3_545 3 ?
Cu6 Se1 Cu3 55(2) . 3 ?
Cu6 Se1 Cu3 54(2) 5_656 3_545 ?
Cu4 Se1 Cu3 54.0(19) 5_656 3_545 ?
Cu5 Se1 Cu3 71(2) 7_556 3_545 ?
Cu5 Se1 Cu3 39(2) 3_545 3_545 ?
Cu6 Se1 Cu3 55(2) . 3_545 ?
Cu3 Se1 Cu3 107(4) 3 3_545 ?
Cu6 Se1 Cu4 20(2) 5_656 . ?
Cu4 Se1 Cu4 35(2) 5_656 . ?
Cu5 Se1 Cu4 23.1(7) 7_556 . ?
Cu5 Se1 Cu4 23.1(7) 3_545 . ?
Cu6 Se1 Cu4 12.9(12) . . ?
Cu3 Se1 Cu4 59(2) 3 . ?
Cu3 Se1 Cu4 59(2) 3_545 . ?
Cu6 Se1 Bi1 127.7(13) 5_656 . ?
Cu4 Se1 Bi1 112.5(13) 5_656 . ?
Cu5 Se1 Bi1 129.4(2) 7_556 . ?
Cu5 Se1 Bi1 129.4(2) 3_545 . ?
Cu6 Se1 Bi1 135.0(12) . . ?
Cu3 Se1 Bi1 106(2) 3 . ?
Cu3 Se1 Bi1 106(2) 3_545 . ?
Cu4 Se1 Bi1 147.9(11) . . ?
Cu6 Se1 Bi3 103.9(9) 5_656 7_546 ?
Cu4 Se1 Bi3 113.8(8) 5_656 7_546 ?
Cu5 Se1 Bi3 113.0(5) 7_556 7_546 ?
Cu5 Se1 Bi3 89.2(6) 3_545 7_546 ?
Cu6 Se1 Bi3 98.9(8) . 7_546 ?
Cu3 Se1 Bi3 141(2) 3 7_546 ?
Cu3 Se1 Bi3 68(2) 3_545 7_546 ?
Cu4 Se1 Bi3 89.9(8) . 7_546 ?
Bi1 Se1 Bi3 112.04(11) . 7_546 ?
Cu6 Se1 Bi3 103.9(9) 5_656 7_556 ?
Cu4 Se1 Bi3 113.8(8) 5_656 7_556 ?
Cu5 Se1 Bi3 89.2(5) 7_556 7_556 ?
Cu5 Se1 Bi3 113.0(5) 3_545 7_556 ?
Cu6 Se1 Bi3 98.9(8) . 7_556 ?
Cu3 Se1 Bi3 68(2) 3 7_556 ?
Cu3 Se1 Bi3 141(2) 3_545 7_556 ?
Cu4 Se1 Bi3 89.9(8) . 7_556 ?
Bi1 Se1 Bi3 112.04(11) . 7_556 ?
Bi3 Se1 Bi3 90.84(10) 7_546 7_556 ?
Cu2 Se2 Bi2 90.7(16) 5_655 3_545 ?
Cu2 Se2 Bi2 90.7(16) 5_655 3 ?
Bi2 Se2 Bi2 92.44(12) 3_545 3 ?
Cu2 Se2 Bi1 88.7(17) 5_655 3 ?
Bi2 Se2 Bi1 176.78(10) 3_545 3 ?
Bi2 Se2 Bi1 90.73(4) 3 3 ?
Cu2 Se2 Bi1 88.7(17) 5_655 3_545 ?
Bi2 Se2 Bi1 90.73(4) 3_545 3_545 ?
Bi2 Se2 Bi1 176.78(10) 3 3_545 ?
Bi1 Se2 Bi1 86.10(10) 3 3_545 ?
Cu2 Se2 Bi2 4(2) 5_655 5_655 ?
Bi2 Se2 Bi2 87.77(11) 3_545 5_655 ?
Bi2 Se2 Bi2 87.77(11) 3 5_655 ?
Bi1 Se2 Bi2 91.82(9) 3 5_655 ?
Bi1 Se2 Bi2 91.82(9) 3_545 5_655 ?
Cu3 Se3 Cu4 57.4(11) . 7_546 ?
Cu3 Se3 Cu4 57.4(11) . 7_556 ?
Cu4 Se3 Cu4 112.1(19) 7_546 7_556 ?
Cu3 Se3 Cu3 47(5) . 5_556 ?
Cu4 Se3 Cu3 61.8(13) 7_546 5_556 ?
Cu4 Se3 Cu3 61.8(13) 7_556 5_556 ?
Cu3 Se3 Cu5 41.3(16) . . ?
Cu4 Se3 Cu5 89.8(13) 7_546 . ?
Cu4 Se3 Cu5 24.0(10) 7_556 . ?
Cu3 Se3 Cu5 38.8(13) 5_556 . ?
Cu3 Se3 Cu5 41.3(16) . 5_556 ?
Cu4 Se3 Cu5 24.0(10) 7_546 5_556 ?
Cu4 Se3 Cu5 89.8(13) 7_556 5_556 ?
Cu3 Se3 Cu5 38.8(13) 5_556 5_556 ?
Cu5 Se3 Cu5 66.6(13) . 5_556 ?
Cu3 Se3 Bi3 120(3) . . ?
Cu4 Se3 Bi3 98.1(13) 7_546 . ?
Cu4 Se3 Bi3 98.1(13) 7_556 . ?
Cu3 Se3 Bi3 73(2) 5_556 . ?
Cu5 Se3 Bi3 93.25(10) . . ?
Cu5 Se3 Bi3 93.25(10) 5_556 . ?
Cu3 Se3 Cu6 50.7(13) . 7_546 ?
Cu4 Se3 Cu6 10.5(10) 7_546 7_546 ?
Cu4 Se3 Cu6 102.9(15) 7_556 7_546 ?
Cu3 Se3 Cu6 51.4(12) 5_556 7_546 ?
Cu5 Se3 Cu6 80.0(11) . 7_546 ?
Cu5 Se3 Cu6 13.6(8) 5_556 7_546 ?
Bi3 Se3 Cu6 94.9(10) . 7_546 ?
Cu3 Se3 Cu6 50.7(12) . 7_556 ?
Cu4 Se3 Cu6 102.9(15) 7_546 7_556 ?
Cu4 Se3 Cu6 10.5(10) 7_556 7_556 ?
Cu3 Se3 Cu6 51.4(12) 5_556 7_556 ?
Cu5 Se3 Cu6 13.6(8) . 7_556 ?
Cu5 Se3 Cu6 80.0(11) 5_556 7_556 ?
Bi3 Se3 Cu6 94.9(10) . 7_556 ?
Cu6 Se3 Cu6 93.3(15) 7_546 7_556 ?
Cu3 Se3 Bi3 123.3(16) . 7_556 ?
Cu4 Se3 Bi3 159.8(12) 7_546 7_556 ?
Cu4 Se3 Bi3 77.9(10) 7_556 7_556 ?
Cu3 Se3 Bi3 135.8(3) 5_556 7_556 ?
Cu5 Se3 Bi3 101.8(6) . 7_556 ?
Cu5 Se3 Bi3 164.6(5) 5_556 7_556 ?
Bi3 Se3 Bi3 97.65(10) . 7_556 ?
Cu6 Se3 Bi3 167.1(10) 7_546 7_556 ?
Cu6 Se3 Bi3 88.2(8) 7_556 7_556 ?
Cu3 Se3 Bi3 123.3(16) . 7_546 ?
Cu4 Se3 Bi3 77.9(10) 7_546 7_546 ?
Cu4 Se3 Bi3 159.8(12) 7_556 7_546 ?
Cu3 Se3 Bi3 135.8(3) 5_556 7_546 ?
Cu5 Se3 Bi3 164.6(5) . 7_546 ?
Cu5 Se3 Bi3 101.8(6) 5_556 7_546 ?
Bi3 Se3 Bi3 97.65(10) . 7_546 ?
Cu6 Se3 Bi3 88.2(8) 7_546 7_546 ?
Cu6 Se3 Bi3 167.1(10) 7_556 7_546 ?
Bi3 Se3 Bi3 87.53(9) 7_556 7_546 ?
Bi2 Se4 Bi1 94.77(10) . 3_445 ?
Bi2 Se4 Bi1 94.77(10) . 3_455 ?
Bi1 Se4 Bi1 93.89(11) 3_445 3_455 ?
Cu2 Se5 Cu2 180.0 5 1_565 ?
Cu2 Se5 Cu2 92(3) 5 5_565 ?
Cu2 Se5 Cu2 88(3) 1_565 5_565 ?
Cu2 Se5 Cu2 88(3) 5 . ?
Cu2 Se5 Cu2 92(3) 1_565 . ?
Cu2 Se5 Cu2 180.0 5_565 . ?
Cu2 Se5 Bi2 13(2) 5 5 ?
Cu2 Se5 Bi2 167(2) 1_565 5 ?
Cu2 Se5 Bi2 91.4(14) 5_565 5 ?
Cu2 Se5 Bi2 88.6(14) . 5 ?
Cu2 Se5 Bi2 167(2) 5 1_565 ?
Cu2 Se5 Bi2 13(2) 1_565 1_565 ?
Cu2 Se5 Bi2 88.6(14) 5_565 1_565 ?
Cu2 Se5 Bi2 91.4(14) . 1_565 ?
Bi2 Se5 Bi2 180.00(9) 5 1_565 ?
Cu2 Se5 Bi2 91.4(14) 5 5_565 ?
Cu2 Se5 Bi2 88.6(14) 1_565 5_565 ?
Cu2 Se5 Bi2 13(2) 5_565 5_565 ?
Cu2 Se5 Bi2 167(2) . 5_565 ?
Bi2 Se5 Bi2 88.32(5) 5 5_565 ?
Bi2 Se5 Bi2 91.68(5) 1_565 5_565 ?
Cu2 Se5 Bi2 88.6(14) 5 . ?
Cu2 Se5 Bi2 91.4(14) 1_565 . ?
Cu2 Se5 Bi2 167(2) 5_565 . ?
Cu2 Se5 Bi2 13(2) . . ?
Bi2 Se5 Bi2 91.68(5) 5 . ?
Bi2 Se5 Bi2 88.32(5) 1_565 . ?
Bi2 Se5 Bi2 180.0 5_565 . ?
Cu2 Se5 Bi1 81(2) 5 3_455 ?
Cu2 Se5 Bi1 99(2) 1_565 3_455 ?
Cu2 Se5 Bi1 81(2) 5_565 3_455 ?
Cu2 Se5 Bi1 99(2) . 3_455 ?
Bi2 Se5 Bi1 93.66(5) 5 3_455 ?
Bi2 Se5 Bi1 86.34(5) 1_565 3_455 ?
Bi2 Se5 Bi1 93.66(5) 5_565 3_455 ?
Bi2 Se5 Bi1 86.34(5) . 3_455 ?
Cu2 Se5 Bi1 99(2) 5 7 ?
Cu2 Se5 Bi1 81(2) 1_565 7 ?
Cu2 Se5 Bi1 99(2) 5_565 7 ?
Cu2 Se5 Bi1 81(2) . 7 ?
Bi2 Se5 Bi1 86.34(5) 5 7 ?
Bi2 Se5 Bi1 93.66(5) 1_565 7 ?
Bi2 Se5 Bi1 86.34(5) 5_565 7 ?
Bi2 Se5 Bi1 93.66(5) . 7 ?
Bi1 Se5 Bi1 180.0 3_455 7 ?
Cu5 Cu3 Cu5 111(6) . 5_556 ?
Cu5 Cu3 Cu3 56(3) . 5_556 ?
Cu5 Cu3 Cu3 56(3) 5_556 5_556 ?
Cu5 Cu3 Se3 84(4) . . ?
Cu5 Cu3 Se3 84(4) 5_556 . ?
Cu3 Cu3 Se3 79(6) 5_556 . ?
Cu5 Cu3 Cu6 13.7(13) . 7_556 ?
Cu5 Cu3 Cu6 125(6) 5_556 7_556 ?
Cu3 Cu3 Cu6 69(3) 5_556 7_556 ?
Se3 Cu3 Cu6 83(3) . 7_556 ?
Cu5 Cu3 Cu6 125(6) . 7_546 ?
Cu5 Cu3 Cu6 13.7(13) 5_556 7_546 ?
Cu3 Cu3 Cu6 69(3) 5_556 7_546 ?
Se3 Cu3 Cu6 83(3) . 7_546 ?
Cu6 Cu3 Cu6 138(6) 7_556 7_546 ?
Cu5 Cu3 Cu4 26.3(14) . 7_556 ?
Cu5 Cu3 Cu4 130(6) 5_556 7_556 ?
Cu3 Cu3 Cu4 77(4) 5_556 7_556 ?
Se3 Cu3 Cu4 71(3) . 7_556 ?
Cu6 Cu3 Cu4 15.6(14) 7_556 7_556 ?
Cu6 Cu3 Cu4 141(5) 7_546 7_556 ?
Cu5 Cu3 Cu4 130(6) . 7_546 ?
Cu5 Cu3 Cu4 26.3(14) 5_556 7_546 ?
Cu3 Cu3 Cu4 77(4) 5_556 7_546 ?
Se3 Cu3 Cu4 71(3) . 7_546 ?
Cu6 Cu3 Cu4 141(5) 7_556 7_546 ?
Cu6 Cu3 Cu4 15.6(14) 7_546 7_546 ?
Cu4 Cu3 Cu4 138(6) 7_556 7_546 ?
Cu5 Cu3 Cu6 7.2(15) . 3_455 ?
Cu5 Cu3 Cu6 118(5) 5_556 3_455 ?
Cu3 Cu3 Cu6 62(3) 5_556 3_455 ?
Se3 Cu3 Cu6 87(3) . 3_455 ?
Cu6 Cu3 Cu6 8(2) 7_556 3_455 ?
Cu6 Cu3 Cu6 132(5) 7_546 3_455 ?
Cu4 Cu3 Cu6 24(2) 7_556 3_455 ?
Cu4 Cu3 Cu6 137(6) 7_546 3_455 ?
Cu5 Cu3 Cu6 118(5) . 3_445 ?
Cu5 Cu3 Cu6 7.2(15) 5_556 3_445 ?
Cu3 Cu3 Cu6 62(3) 5_556 3_445 ?
Se3 Cu3 Cu6 87(3) . 3_445 ?
Cu6 Cu3 Cu6 132(5) 7_556 3_445 ?
Cu6 Cu3 Cu6 8(2) 7_546 3_445 ?
Cu4 Cu3 Cu6 137(6) 7_556 3_445 ?
Cu4 Cu3 Cu6 24(2) 7_546 3_445 ?
Cu6 Cu3 Cu6 125(5) 3_455 3_445 ?
Cu5 Cu3 Se3 71(3) . 5_556 ?
Cu5 Cu3 Se3 71(3) 5_556 5_556 ?
Cu3 Cu3 Se3 54(5) 5_556 5_556 ?
Se3 Cu3 Se3 133(5) . 5_556 ?
Cu6 Cu3 Se3 80(3) 7_556 5_556 ?
Cu6 Cu3 Se3 80(3) 7_546 5_556 ?
Cu4 Cu3 Se3 96(3) 7_556 5_556 ?
Cu4 Cu3 Se3 96(3) 7_546 5_556 ?
Cu6 Cu3 Se3 72(2) 3_455 5_556 ?
Cu6 Cu3 Se3 72(2) 3_445 5_556 ?
Cu5 Cu3 Cu4 14.3(17) . 3_455 ?
Cu5 Cu3 Cu4 111(5) 5_556 3_455 ?
Cu3 Cu3 Cu4 58(2) 5_556 3_455 ?
Se3 Cu3 Cu4 98(3) . 3_455 ?
Cu6 Cu3 Cu4 21(2) 7_556 3_455 ?
Cu6 Cu3 Cu4 125(5) 7_546 3_455 ?
Cu4 Cu3 Cu4 37(3) 7_556 3_455 ?
Cu4 Cu3 Cu4 135(5) 7_546 3_455 ?
Cu6 Cu3 Cu4 13.1(12) 3_455 3_455 ?
Cu6 Cu3 Cu4 117(4) 3_445 3_455 ?
Se3 Cu3 Cu4 59(2) 5_556 3_455 ?
Cu6 Cu4 Cu6 9(9) . 5_656 ?
Cu6 Cu4 Cu5 43(3) . 7_556 ?
Cu6 Cu4 Cu5 42(3) 5_656 7_556 ?
Cu6 Cu4 Cu5 43(3) . 3_545 ?
Cu6 Cu4 Cu5 42(3) 5_656 3_545 ?
Cu5 Cu4 Cu5 85(5) 7_556 3_545 ?
Cu6 Cu4 Cu4 6(6) . 5_656 ?
Cu6 Cu4 Cu4 4(4) 5_656 5_656 ?
Cu5 Cu4 Cu4 42(3) 7_556 5_656 ?
Cu5 Cu4 Cu4 42(3) 3_545 5_656 ?
Cu6 Cu4 Cu3 82(4) . 7_556 ?
Cu6 Cu4 Cu3 85(3) 5_656 7_556 ?
Cu5 Cu4 Cu3 45(3) 7_556 7_556 ?
Cu5 Cu4 Cu3 123(5) 3_545 7_556 ?
Cu4 Cu4 Cu3 84(3) 5_656 7_556 ?
Cu6 Cu4 Cu3 82(4) . 7_546 ?
Cu6 Cu4 Cu3 85(3) 5_656 7_546 ?
Cu5 Cu4 Cu3 123(5) 7_556 7_546 ?
Cu5 Cu4 Cu3 45(3) 3_545 7_546 ?
Cu4 Cu4 Cu3 84(3) 5_656 7_546 ?
Cu3 Cu4 Cu3 138(6) 7_556 7_546 ?
Cu6 Cu4 Se1 79(9) . 5_656 ?
Cu6 Cu4 Se1 88(4) 5_656 5_656 ?
Cu5 Cu4 Se1 86(3) 7_556 5_656 ?
Cu5 Cu4 Se1 86(3) 3_545 5_656 ?
Cu4 Cu4 Se1 85(4) 5_656 5_656 ?
Cu3 Cu4 Se1 69(3) 7_556 5_656 ?
Cu3 Cu4 Se1 69(3) 7_546 5_656 ?
Cu6 Cu4 Se3 120(3) . 7_546 ?
Cu6 Cu4 Se3 117.5(16) 5_656 7_546 ?
Cu5 Cu4 Se3 156(4) 7_556 7_546 ?
Cu5 Cu4 Se3 78.3(19) 3_545 7_546 ?
Cu4 Cu4 Se3 118.7(19) 5_656 7_546 ?
Cu3 Cu4 Se3 157(4) 7_556 7_546 ?
Cu3 Cu4 Se3 51(2) 7_546 7_546 ?
Se1 Cu4 Se3 109.2(15) 5_656 7_546 ?
Cu6 Cu4 Se3 120(3) . 7_556 ?
Cu6 Cu4 Se3 117.5(16) 5_656 7_556 ?
Cu5 Cu4 Se3 78.3(19) 7_556 7_556 ?
Cu5 Cu4 Se3 156(4) 3_545 7_556 ?
Cu4 Cu4 Se3 118.7(19) 5_656 7_556 ?
Cu3 Cu4 Se3 51(2) 7_556 7_556 ?
Cu3 Cu4 Se3 157(4) 7_546 7_556 ?
Se1 Cu4 Se3 109.2(15) 5_656 7_556 ?
Se3 Cu4 Se3 112.1(19) 7_546 7_556 ?
Cu6 Cu4 Cu3 62(4) . 3_545 ?
Cu6 Cu4 Cu3 58(2) 5_656 3_545 ?
Cu5 Cu4 Cu3 100(4) 7_556 3_545 ?
Cu5 Cu4 Cu3 23(3) 3_545 3_545 ?
Cu4 Cu4 Cu3 59(2) 5_656 3_545 ?
Cu3 Cu4 Cu3 143(3) 7_556 3_545 ?
Cu3 Cu4 Cu3 45(5) 7_546 3_545 ?
Se1 Cu4 Cu3 105(3) 5_656 3_545 ?
Se3 Cu4 Cu3 59.2(19) 7_546 3_545 ?
Se3 Cu4 Cu3 146(3) 7_556 3_545 ?
Cu6 Cu4 Cu3 62(4) . 3 ?
Cu6 Cu4 Cu3 58(2) 5_656 3 ?
Cu5 Cu4 Cu3 23(3) 7_556 3 ?
Cu5 Cu4 Cu3 100(4) 3_545 3 ?
Cu4 Cu4 Cu3 59(2) 5_656 3 ?
Cu3 Cu4 Cu3 45(5) 7_556 3 ?
Cu3 Cu4 Cu3 143(3) 7_546 3 ?
Se1 Cu4 Cu3 105(3) 5_656 3 ?
Se3 Cu4 Cu3 146(3) 7_546 3 ?
Se3 Cu4 Cu3 59.2(19) 7_556 3 ?
Cu3 Cu4 Cu3 108(4) 3_545 3 ?
Cu6 Cu5 Cu6 29(8) 3_455 7_556 ?
Cu6 Cu5 Cu4 61(6) 3_455 7_556 ?
Cu6 Cu5 Cu4 34(3) 7_556 7_556 ?
Cu6 Cu5 Cu4 34(3) 3_455 3_455 ?
Cu6 Cu5 Cu4 61(6) 7_556 3_455 ?
Cu4 Cu5 Cu4 95(5) 7_556 3_455 ?
Cu6 Cu5 Cu5 14(4) 3_455 5_566 ?
Cu6 Cu5 Cu5 14(4) 7_556 5_566 ?
Cu4 Cu5 Cu5 48(3) 7_556 5_566 ?
Cu4 Cu5 Cu5 48(3) 3_455 5_566 ?
Cu6 Cu5 Cu3 133(5) 3_455 5_556 ?
Cu6 Cu5 Cu3 156(5) 7_556 5_556 ?
Cu4 Cu5 Cu3 142(5) 7_556 5_556 ?
Cu4 Cu5 Cu3 109(4) 3_455 5_556 ?
Cu5 Cu5 Cu3 146(3) 5_566 5_556 ?
Cu6 Cu5 Cu3 156(5) 3_455 . ?
Cu6 Cu5 Cu3 133(5) 7_556 . ?
Cu4 Cu5 Cu3 109(4) 7_556 . ?
Cu4 Cu5 Cu3 142(5) 3_455 . ?
Cu5 Cu5 Cu3 146(3) 5_566 . ?
Cu3 Cu5 Cu3 69(6) 5_556 . ?
Cu6 Cu5 Se1 66(4) 3_455 7_556 ?
Cu6 Cu5 Se1 82(4) 7_556 7_556 ?
Cu4 Cu5 Se1 89(3) 7_556 7_556 ?
Cu4 Cu5 Se1 69(3) 3_455 7_556 ?
Cu5 Cu5 Se1 73.5(7) 5_566 7_556 ?
Cu3 Cu5 Se1 74(3) 5_556 7_556 ?
Cu3 Cu5 Se1 138(4) . 7_556 ?
Cu6 Cu5 Se1 82(4) 3_455 3_455 ?
Cu6 Cu5 Se1 66(4) 7_556 3_455 ?
Cu4 Cu5 Se1 69(3) 7_556 3_455 ?
Cu4 Cu5 Se1 89(3) 3_455 3_455 ?
Cu5 Cu5 Se1 73.5(7) 5_566 3_455 ?
Cu3 Cu5 Se1 138(4) 5_556 3_455 ?
Cu3 Cu5 Se1 74(3) . 3_455 ?
Se1 Cu5 Se1 147.0(15) 7_556 3_455 ?
Cu6 Cu5 Se3 134(5) 3_455 . ?
Cu6 Cu5 Se3 112(4) 7_556 . ?
Cu4 Cu5 Se3 78(2) 7_556 . ?
Cu4 Cu5 Se3 162(3) 3_455 . ?
Cu5 Cu5 Se3 123.3(6) 5_566 . ?
Cu3 Cu5 Se3 71(3) 5_556 . ?
Cu3 Cu5 Se3 55(3) . . ?
Se1 Cu5 Se3 93.8(2) 7_556 . ?
Se1 Cu5 Se3 104.2(3) 3_455 . ?
Cu6 Cu5 Se3 112(4) 3_455 5_556 ?
Cu6 Cu5 Se3 134(4) 7_556 5_556 ?
Cu4 Cu5 Se3 162(3) 7_556 5_556 ?
Cu4 Cu5 Se3 78(2) 3_455 5_556 ?
Cu5 Cu5 Se3 123.3(6) 5_566 5_556 ?
Cu3 Cu5 Se3 55(3) 5_556 5_556 ?
Cu3 Cu5 Se3 71(3) . 5_556 ?
Se1 Cu5 Se3 104.2(3) 7_556 5_556 ?
Se1 Cu5 Se3 93.8(2) 3_455 5_556 ?
Se3 Cu5 Se3 113.4(13) . 5_556 ?
Cu6 Cu5 Cu5 166(4) 3_455 5_556 ?
Cu6 Cu5 Cu5 166(4) 7_556 5_556 ?
Cu4 Cu5 Cu5 132(3) 7_556 5_556 ?
Cu4 Cu5 Cu5 132(3) 3_455 5_556 ?
Cu5 Cu5 Cu5 180.00(3) 5_566 5_556 ?
Cu3 Cu5 Cu5 34(3) 5_556 5_556 ?
Cu3 Cu5 Cu5 34(3) . 5_556 ?
Se1 Cu5 Cu5 106.5(7) 7_556 5_556 ?
Se1 Cu5 Cu5 106.5(7) 3_455 5_556 ?
Se3 Cu5 Cu5 56.7(6) . 5_556 ?
Se3 Cu5 Cu5 56.7(6) 5_556 5_556 ?
Cu6 Cu6 Cu4 155(10) 5_656 . ?
Cu6 Cu6 Cu5 76(4) 5_656 3_545 ?
Cu4 Cu6 Cu5 103(4) . 3_545 ?
Cu6 Cu6 Cu5 76(4) 5_656 7_556 ?
Cu4 Cu6 Cu5 103(4) . 7_556 ?
Cu5 Cu6 Cu5 151(8) 3_545 7_556 ?
Cu6 Cu6 Cu4 16(10) 5_656 5_656 ?
Cu4 Cu6 Cu4 171(9) . 5_656 ?
Cu5 Cu6 Cu4 76(4) 3_545 5_656 ?
Cu5 Cu6 Cu4 76(4) 7_556 5_656 ?
Cu6 Cu6 Cu3 105(5) 5_656 7_556 ?
Cu4 Cu6 Cu3 82(4) . 7_556 ?
Cu5 Cu6 Cu3 166(6) 3_545 7_556 ?
Cu5 Cu6 Cu3 33(4) 7_556 7_556 ?
Cu4 Cu6 Cu3 101(3) 5_656 7_556 ?
Cu6 Cu6 Cu3 105(5) 5_656 7_546 ?
Cu4 Cu6 Cu3 82(4) . 7_546 ?
Cu5 Cu6 Cu3 33(4) 3_545 7_546 ?
Cu5 Cu6 Cu3 166(6) 7_556 7_546 ?
Cu4 Cu6 Cu3 101(3) 5_656 7_546 ?
Cu3 Cu6 Cu3 138(6) 7_556 7_546 ?
Cu6 Cu6 Se1 119(10) 5_656 5_656 ?
Cu4 Cu6 Se1 86(9) . 5_656 ?
Cu5 Cu6 Se1 97(4) 3_545 5_656 ?
Cu5 Cu6 Se1 97(4) 7_556 5_656 ?
Cu4 Cu6 Se1 103(4) 5_656 5_656 ?
Cu3 Cu6 Se1 70(3) 7_556 5_656 ?
Cu3 Cu6 Se1 70(3) 7_546 5_656 ?
Cu6 Cu6 Cu3 66(5) 5_656 3_545 ?
Cu4 Cu6 Cu3 105(4) . 3_545 ?
Cu5 Cu6 Cu3 17(4) 3_545 3_545 ?
Cu5 Cu6 Cu3 139(5) 7_556 3_545 ?
Cu4 Cu6 Cu3 71(3) 5_656 3_545 ?
Cu3 Cu6 Cu3 172(2) 7_556 3_545 ?
Cu3 Cu6 Cu3 48(5) 7_546 3_545 ?
Se1 Cu6 Cu3 114(3) 5_656 3_545 ?
Cu6 Cu6 Cu3 66(5) 5_656 3 ?
Cu4 Cu6 Cu3 105(4) . 3 ?
Cu5 Cu6 Cu3 139(5) 3_545 3 ?
Cu5 Cu6 Cu3 17(4) 7_556 3 ?
Cu4 Cu6 Cu3 71(3) 5_656 3 ?
Cu3 Cu6 Cu3 48(5) 7_556 3 ?
Cu3 Cu6 Cu3 172(2) 7_546 3 ?
Se1 Cu6 Cu3 114(3) 5_656 3 ?
Cu3 Cu6 Cu3 125(5) 3_545 3 ?
Cu6 Cu6 Se1 54(10) 5_656 . ?
Cu4 Cu6 Se1 101(9) . . ?
Cu5 Cu6 Se1 82(4) 3_545 . ?
Cu5 Cu6 Se1 82(4) 7_556 . ?
Cu4 Cu6 Se1 69(3) 5_656 . ?
Cu3 Cu6 Se1 111(3) 7_556 . ?
Cu3 Cu6 Se1 111(3) 7_546 . ?
Se1 Cu6 Se1 173(3) 5_656 . ?
Cu3 Cu6 Se1 65(3) 3_545 . ?
Cu3 Cu6 Se1 65(3) 3 . ?
Cu6 Cu6 Se3 120(9) 5_656 7_546 ?
Cu4 Cu6 Se3 49(2) . 7_546 ?
Cu5 Cu6 Se3 55(3) 3_545 7_546 ?
Cu5 Cu6 Se3 146(5) 7_556 7_546 ?
Cu4 Cu6 Se3 127.8(14) 5_656 7_546 ?
Cu3 Cu6 Se3 131(3) 7_556 7_546 ?
Cu3 Cu6 Se3 46(3) 7_546 7_546 ?
Se1 Cu6 Se3 99.2(14) 5_656 7_546 ?
Cu3 Cu6 Se3 57(2) 3_545 7_546 ?
Cu3 Cu6 Se3 137(3) 3 7_546 ?
Se1 Cu6 Se3 85.7(13) . 7_546 ?
loop_
_geom_bond_atom_site_label_1
_geom_bond_atom_site_label_2
_geom_bond_distance
_geom_bond_site_symmetry_2
_geom_bond_publ_flag
Bi1 Se1 2.797(4) . ?
Bi1 Se4 2.872(3) 3 ?
Bi1 Se4 2.872(3) 3_545 ?
Bi1 Se2 3.074(3) 3_445 ?
Bi1 Se2 3.074(3) 3_455 ?
Bi1 Se5 3.0961(16) 3_545 ?
Bi2 Cu2 0.68(11) . ?
Bi2 Se4 2.807(4) . ?
Bi2 Se2 2.906(3) 3_455 ?
Bi2 Se2 2.906(3) 3_445 ?
Bi2 Se5 3.0124(13) 1_545 ?
Bi2 Se5 3.0124(13) . ?
Bi2 Se2 3.129(5) 5_655 ?
Cu2 Se2 2.48(11) 5_655 ?
Cu2 Se5 2.93(6) 1_545 ?
Cu2 Se5 2.93(6) . ?
Bi3 Se3 2.729(4) . ?
Bi3 Se1 2.946(3) 7_546 ?
Bi3 Se1 2.946(3) 7_556 ?
Bi3 Se3 3.034(2) 7_556 ?
Bi3 Se3 3.034(2) 7_546 ?
Bi3 Cu3 3.12(10) 5_556 ?
Se1 Cu6 2.29(5) 5_656 ?
Se1 Cu4 2.33(6) 5_656 ?
Se1 Cu5 2.488(10) 7_556 ?
Se1 Cu5 2.488(10) 3_545 ?
Se1 Cu6 2.49(5) . ?
Se1 Cu3 2.60(7) 3 ?
Se1 Cu3 2.60(6) 3_545 ?
Se1 Cu4 2.68(6) . ?
Se3 Cu3 2.09(10) . ?
Se3 Cu4 2.53(3) 7_546 ?
Se3 Cu4 2.53(3) 7_556 ?
Se3 Cu3 2.53(10) 5_556 ?
Se3 Cu5 2.535(18) . ?
Se3 Cu5 2.535(19) 5_556 ?
Se3 Cu6 2.89(4) 7_546 ?
Se3 Cu6 2.89(4) 7_556 ?
Cu3 Cu5 1.68(6) . ?
Cu3 Cu5 1.68(6) 5_556 ?
Cu3 Cu3 1.9(2) 5_556 ?
Cu3 Cu6 2.25(4) 7_556 ?
Cu3 Cu6 2.25(4) 7_546 ?
Cu3 Cu4 2.25(4) 7_556 ?
Cu3 Cu4 2.25(4) 7_546 ?
Cu3 Cu6 2.37(5) 3_455 ?
Cu3 Cu6 2.37(5) 3_445 ?
Cu3 Cu4 2.60(7) 3_455 ?
Cu4 Cu6 0.61(5) . ?
Cu4 Cu6 0.95(9) 5_656 ?
Cu4 Cu5 1.05(4) 7_556 ?
Cu4 Cu5 1.05(4) 3_545 ?
Cu4 Cu4 1.56(10) 5_656 ?
Cu5 Cu6 0.73(3) 3_455 ?
Cu5 Cu6 0.73(3) 7_556 ?
Cu5 Cu5 1.42(7) 5_566 ?
Cu5 Cu5 2.78(7) 5_556 ?
Cu6 Cu6 0.36(10) 5_656 ?
