#------------------------------------------------------------------------------
#$Date: 2022-09-14 01:52:42 +0300 (Wed, 14 Sep 2022) $
#$Revision: 277819 $
#$URL: file:///home/coder/svn-repositories/cod/cif/7/71/12/7711238.cif $
#------------------------------------------------------------------------------
#
# This file is available in the Crystallography Open Database (COD),
# http://www.crystallography.net/
#
# All data on this site have been placed in the public domain by the
# contributors.
#
data_7711238
loop_
_publ_author_name
'Wang, Xinyue'
'Zhang, Bingbing'
'Yang, Daqing'
'Wang, Ying'
_publ_section_title
;
 CsB3O4(OH)2: A new deep-ultraviolet birefringent crystal with [B3O4(OH)2]
 anionic group
;
_journal_name_full               'Dalton Transactions'
_journal_paper_doi               10.1039/D2DT02573F
_journal_year                    2022
_chemical_formula_sum            'B3 Cs H2 O6'
_chemical_formula_weight         263.36
_space_group_crystal_system      monoclinic
_space_group_IT_number           14
_space_group_name_Hall           '-P 2ybc'
_space_group_name_H-M_alt        'P 1 21/c 1'
_atom_sites_solution_hydrogens   difmap
_atom_sites_solution_primary     direct
_audit_creation_method
;
FinalCif V102 by Daniel Kratzert, Freiburg 2022,
https://dkratzert.de/finalcif.html
;
_audit_update_record
;
2022-07-25 deposited with the CCDC.	2022-09-13 downloaded from the CCDC.
;
_cell_angle_alpha                90
_cell_angle_beta                 98.716(6)
_cell_angle_gamma                90
_cell_formula_units_Z            4
_cell_length_a                   7.5289(10)
_cell_length_b                   6.4534(7)
_cell_length_c                   12.4902(19)
_cell_measurement_reflns_used    4163
_cell_measurement_temperature    273(2)
_cell_measurement_theta_max      30.083
_cell_measurement_theta_min      2.737
_cell_volume                     599.85(14)
_computing_cell_refinement       'SAINT V8.40B'
_computing_data_collection       'Bruker BIS V6.2.14/2020-04-30'
_computing_data_reduction        'SAINT V8.40B'
_computing_structure_refinement  'SHELXL-2018/3 (Sheldrick, 2018)'
_computing_structure_solution    'SHELXT 2018/2 (Sheldrick, 2018)'
_diffrn_ambient_environment      N~2~
_diffrn_ambient_temperature      273(2)
_diffrn_detector                 CPAD
_diffrn_detector_area_resol_mean 7.41
_diffrn_detector_type            'Bruker PHOTON III'
_diffrn_measured_fraction_theta_full 0.999
_diffrn_measured_fraction_theta_max 0.894
_diffrn_measurement_device       'three-circle diffractometer'
_diffrn_measurement_device_type  'Bruker D8 VENTURE dual wavelength Mo/Cu'
_diffrn_measurement_method       '\w and \f scans'
_diffrn_measurement_specimen_support 'MiTeGen micromount'
_diffrn_radiation_monochromator  'mirror optics'
_diffrn_radiation_probe          x-ray
_diffrn_radiation_type           MoK\a
_diffrn_radiation_wavelength     0.71073
_diffrn_reflns_av_R_equivalents  0.0512
_diffrn_reflns_av_unetI/netI     0.0380
_diffrn_reflns_Laue_measured_fraction_full 0.999
_diffrn_reflns_Laue_measured_fraction_max 0.894
_diffrn_reflns_limit_h_max       11
_diffrn_reflns_limit_h_min       -10
_diffrn_reflns_limit_k_max       9
_diffrn_reflns_limit_k_min       -10
_diffrn_reflns_limit_l_max       19
_diffrn_reflns_limit_l_min       -19
_diffrn_reflns_number            14646
_diffrn_reflns_point_group_measured_fraction_full 0.999
_diffrn_reflns_point_group_measured_fraction_max 0.894
_diffrn_reflns_theta_full        25.242
_diffrn_reflns_theta_max         33.839
_diffrn_reflns_theta_min         2.737
_diffrn_source                   'microfocus sealed X-ray tube'
_diffrn_source_current           1.4
_diffrn_source_type              'Incoatec I\ms'
_diffrn_source_voltage           50.0
_exptl_absorpt_coefficient_mu    6.132
_exptl_absorpt_correction_T_max  0.7456
_exptl_absorpt_correction_T_min  0.6797
_exptl_absorpt_correction_type   multi-scan
_exptl_crystal_colour            colourless
_exptl_crystal_density_diffrn    2.916
_exptl_crystal_description       block
_exptl_crystal_F_000             480
_refine_diff_density_max         1.322
_refine_diff_density_min         -0.771
_refine_diff_density_rms         0.178
_refine_ls_extinction_coef       0.0044(6)
_refine_ls_extinction_expression Fc^*^=kFc[1+0.001xFc^2^\l^3^/sin(2\q)]^-1/4^
_refine_ls_extinction_method     'SHELXL-2018/3 (Sheldrick 2018)'
_refine_ls_goodness_of_fit_ref   1.069
_refine_ls_hydrogen_treatment    refxyz
_refine_ls_matrix_type           full
_refine_ls_number_parameters     98
_refine_ls_number_reflns         2162
_refine_ls_number_restraints     2
_refine_ls_restrained_S_all      1.076
_refine_ls_R_factor_all          0.0658
_refine_ls_R_factor_gt           0.0380
_refine_ls_shift/su_max          0.001
_refine_ls_shift/su_mean         0.000
_refine_ls_structure_factor_coef Fsqd
_refine_ls_weighting_details
'w=1/[\s^2^(Fo^2^)+(0.0347P)^2^+1.1312P] where P=(Fo^2^+2Fc^2^)/3'
_refine_ls_weighting_scheme      calc
_refine_ls_wR_factor_gt          0.0778
_refine_ls_wR_factor_ref         0.0867
_reflns_Friedel_coverage         0.000
_reflns_number_gt                1678
_reflns_number_total             2162
_reflns_threshold_expression     'I > 2\s(I)'
_cod_data_source_file            d2dt02573f2.cif
_cod_data_source_block           1
_cod_original_sg_symbol_H-M      'P 21/c'
_cod_original_formula_sum        'B3 H2 Cs O6'
_cod_database_code               7711238
_shelx_shelxl_version_number     2018/3
_shelx_space_group_comment
;
The symmetry employed for this shelxl refinement is uniquely defined
by the following loop, which should always be used as a source of
symmetry information in preference to the above space-group names.
They are only intended as comments.
;
_olex2_diffrn_ambient_temperature_device 'Oxford Cryostream 800'
_shelx_res_file
;
TITL 1_a.res in P2(1)/c
    1.res
    created by SHELXL-2018/3 at 18:01:01 on 18-Apr-2022
REM Old TITL 1 in P2(1)/c
REM SHELXT solution in P2(1)/c: R1 0.052, Rweak 0.002, Alpha 0.030
REM <I/s> 0.463 for 117 systematic absences, Orientation as input
REM Formula found by SHELXT: B3 O6 Cs
CELL 0.71073 7.5289 6.4534 12.4902 90 98.716 90
ZERR 4 0.001 0.0007 0.0019 0 0.006 0
LATT 1
SYMM -X,0.5+Y,0.5-Z
SFAC B Cs O H
UNIT 12 4 24 8
HTAB
EQIV $13 -x+1, -y, -z+1
HTAB O6 O5_$13
L.S. 10
PLAN  50
TEMP 0
CONF
list 4
fmap 2 53
DFIX 0.87 O1 H1 O6 H2
MORE -1
ACTA
REM <olex2.extras>
REM <HklSrc "%.\\1.hkl">
REM </olex2.extras>

WGHT    0.034700    1.131200
EXTI    0.004352
FVAR       0.48757
CS1   2    0.007899    1.266984    0.132799    11.00000    0.03033    0.03437 =
         0.03637    0.00047    0.00769   -0.00072
B1    1    0.341068    0.803650    0.152380    11.00000    0.01913    0.02440 =
         0.02545    0.00028    0.00256    0.00322
B2    1    0.388335    0.512032    0.289630    11.00000    0.02490    0.02416 =
         0.02695   -0.00077    0.00706   -0.00042
B3    1    0.373093    0.231954    0.413713    11.00000    0.02417    0.02540 =
         0.02705    0.00279    0.00641   -0.00244
O1    3    0.176600    0.871403    0.090149    11.00000    0.01475    0.02421 =
         0.02637    0.00073   -0.00424    0.00613
H1    4    0.216619    0.979129    0.094765    11.00000   -1.20000
O2    3    0.288983    0.656535    0.229222    11.00000    0.02324    0.03028 =
         0.03606    0.00665    0.00938    0.00340
O3    3    0.567246    0.484263    0.294499    11.00000    0.02283    0.02647 =
         0.04040    0.00819    0.00793   -0.00011
O4    3    0.288027    0.384224    0.348236    11.00000    0.02055    0.03283 =
         0.03865    0.00780    0.00962   -0.00002
O5    3    0.553369    0.204891    0.423152    11.00000    0.02146    0.02981 =
         0.02980    0.00617    0.00528   -0.00044
O6    3    0.269455    0.109928    0.468611    11.00000    0.02643    0.03816 =
         0.04780    0.01564    0.01483    0.00094
H2    4    0.334139    0.015571    0.505217    11.00000   -1.20000
HKLF 4




REM  1_a.res in P2(1)/c
REM wR2 = 0.0867, GooF = S = 1.069, Restrained GooF = 1.076 for all data
REM R1 = 0.0380 for 1678 Fo > 4sig(Fo) and 0.0658 for all 2162 data
REM 98 parameters refined using 2 restraints

END

WGHT      0.0347      1.1312

REM Instructions for potential hydrogen bonds
HTAB O6 O5_$13

REM Highest difference peak  1.322,  deepest hole -0.771,  1-sigma level  0.178
Q1    1  -0.0018  1.2590  0.2932  11.00000  0.05    1.32
Q2    1  -0.0005  1.2402 -0.0030  11.00000  0.05    1.19
Q3    1   0.0400  1.2814  0.0635  11.00000  0.05    1.12
Q4    1  -0.0017  0.7434  0.0303  11.00000  0.05    1.08
Q5    1   0.1964  0.8993  0.0641  11.00000  0.05    0.85
Q6    1   0.1976  0.9041  0.1257  11.00000  0.05    0.81
Q7    1   0.1641  0.7995  0.0801  11.00000  0.05    0.81
Q8    1   0.0317  1.2402  0.2041  11.00000  0.05    0.73
Q9    1  -0.0031  0.7474  0.1419  11.00000  0.05    0.73
Q10   1   0.1251  0.9135  0.0817  11.00000  0.05    0.66
Q11   1  -0.0661  1.2485  0.0405  11.00000  0.05    0.62
Q12   1   0.3015  0.7366  0.1931  11.00000  0.05    0.56
Q13   1   0.3629  0.1385  0.4548  11.00000  0.05    0.53
Q14   1   0.3590  0.7116  0.2609  11.00000  0.05    0.51
Q15   1   0.6636  0.1764  0.4997  11.00000  0.05    0.48
Q16   1   0.2782 -0.0833  0.3791  11.00000  0.05    0.48
Q17   1   0.3267  0.5817  0.4608  11.00000  0.05    0.46
Q18   1  -0.0374  1.3804  0.0620  11.00000  0.05    0.46
Q19   1   0.0779  0.8822  0.0000  11.00000  0.05    0.46
Q20   1   0.3012  0.1348  0.4021  11.00000  0.05    0.45
Q21   1   0.2662  0.2236  0.5947  11.00000  0.05    0.45
Q22   1  -0.0607  1.1968  0.1972  11.00000  0.05    0.44
Q23   1  -0.1312  1.3590  0.0558  11.00000  0.05    0.44
Q24   1   0.2230  0.5187  0.2389  11.00000  0.05    0.44
Q25   1  -0.1166  1.1495  0.1164  11.00000  0.05    0.44
Q26   1   0.1183  0.7983  0.2571  11.00000  0.05    0.43
Q27   1   0.5245  0.2008  0.3678  11.00000  0.05    0.43
Q28   1   0.3166  0.7783  0.3045  11.00000  0.05    0.43
Q29   1   0.1630  0.6616  0.0693  11.00000  0.05    0.43
Q30   1   0.1400  1.2273  0.0921  11.00000  0.05    0.42
Q31   1   0.4659  0.7170  0.2650  11.00000  0.05    0.42
Q32   1   0.0949 -0.0495  0.4903  11.00000  0.05    0.42
Q33   1  -0.2188  1.1365  0.0783  11.00000  0.05    0.41
Q34   1   0.2611  0.3998  0.2604  11.00000  0.05    0.41
Q35   1   0.5566  0.2432  0.4623  11.00000  0.05    0.40
Q36   1   0.2082  0.0773  0.3576  11.00000  0.05    0.40
Q37   1   0.2659  0.3272  0.3830  11.00000  0.05    0.40
Q38   1   0.2194  0.8576  0.2993  11.00000  0.05    0.40
Q39   1   0.3622  0.2728  0.3510  11.00000  0.05    0.39
Q40   1  -0.0059  0.9408  0.1039  11.00000  0.05    0.39
Q41   1   0.6647  0.6416  0.2452  11.00000  0.05    0.39
Q42   1   0.5037  0.5324  0.2444  11.00000  0.05    0.39
Q43   1   0.3206  0.6729  0.3862  11.00000  0.05    0.39
Q44   1   0.2793  0.6412  0.2589  11.00000  0.05    0.38
Q45   1   0.2424  0.1143  0.3149  11.00000  0.05    0.38
Q46   1   0.3767  0.5936  0.2587  11.00000  0.05    0.38
Q47   1   0.0773  1.3016  0.1364  11.00000  0.05    0.38
Q48   1   0.6266  0.5305  0.2012  11.00000  0.05    0.38
Q49   1   0.1598  0.6415  0.2420  11.00000  0.05    0.38
Q50   1   0.3649  0.3563  0.3955  11.00000  0.05    0.38
;
_shelx_res_checksum              40179
_shelx_hkl_file
;
   1   0   0 2792.32   70.19
   1   0   0 2996.00   71.99
  -1   0   0 2853.11   71.59
  -1   0   0 2837.12   68.89
   2   0   0 3588.04  100.29
   2   0   0 3903.61   97.19
  -2   0   0 3712.93   90.79
   2   0   0 3668.23   91.09
   2   0   0 3674.23   93.39
   3   0   0 7228.38  179.18
  -3   0   0 7770.22  187.58
   3   0   0 7825.22  188.78
   3   0   0 7222.18  182.28
   3   0   0 6957.00  193.28
   4   0   0 4870.61  131.79
   4   0   0 4655.93  124.09
   4   0   0 4511.05  138.59
  -4   0   0 4987.20  130.69
   4   0   0 4665.53  120.79
   5   0   0 2485.05   76.39
   5   0   0 2574.04   85.09
   5   0   0 2432.86   92.09
   5   0   0 2481.25   72.59
  -5   0   0 2799.22   83.89
   6   0   0 1645.44   65.89
  -6   0   0 1579.14   66.39
   6   0   0 1585.14   55.99
   6   0   0 1545.75   52.39
   6   0   0 1555.84   73.39
   7   0   0 1827.92   87.89
   7   0   0 1951.00   64.39
   7   0   0 1892.41   67.59
   7   0   0 2036.60   80.19
   8   0   0  458.45   26.90
   8   0   0  389.56   41.10
   8   0   0  411.16   34.60
  -8   0   0  444.46   33.10
  -8   0   0  495.15   32.40
   8   0   0  471.75   29.20
   9   0   0  251.17   23.30
   9   0   0  229.38   41.80
  -9   0   0  259.57   26.10
  -9   0   0  244.18   28.10
 -10   0   0  204.38   29.20
  10   0   0  180.58   23.70
  10   0   0  206.98   43.60
   0  -1   0    0.20    0.60
   0  -1   0    0.20    1.00
   0  -1   0    0.50    0.50
   0  -1   0    0.40    0.40
   0   1   0    0.40    0.40
   0   1   0   -0.10    0.40
   0   1   0    0.30    0.60
   0   1   0    0.70    1.30
   1  -1   0   25.80    3.00
  -1  -1   0   27.60    2.80
  -1  -1   0   22.30    5.40
  -1  -1   0   26.80    4.60
   1  -1   0   24.30    1.90
   1   1   0   27.20    2.80
  -1   1   0   31.70    3.40
  -1   1   0   26.30    1.90
   1   1   0   15.40    4.10
   1   1   0   31.10    5.30
   2  -1   0   62.69    3.50
   2  -1   0   66.69    5.20
  -2  -1   0   74.59    7.80
  -2  -1   0   88.69   15.00
   2  -1   0   64.09    6.00
  -2  -1   0   56.39    4.90
   2   1   0   58.19    5.00
  -2   1   0   51.29    5.70
  -2   1   0   62.69    4.80
   2   1   0   63.39    7.60
   2   1   0   76.09    9.60
  -3  -1   0    3.00    1.90
   3  -1   0    0.10    1.00
   3  -1   0   -0.30    1.40
   3  -1   0    0.70    1.60
  -3  -1   0    5.10    3.50
  -3   1   0    4.90    2.30
   3   1   0    2.30    3.40
  -3   1   0   -0.10    1.20
   3   1   0    1.60    1.50
   3   1   0    0.50    1.20
  -4  -1   0  794.12   35.30
   4  -1   0  702.63   29.80
   4  -1   0  661.03   23.50
   4   1   0  691.53   26.10
   4   1   0  681.53   26.70
   4   1   0  678.03   34.70
  -4   1   0  663.13   27.70
   4   1   0  622.14   38.70
   5  -1   0  188.78   16.00
   5  -1   0  177.28   14.70
   5  -1   0  206.08   19.80
  -5  -1   0  214.38   18.90
   5  -1   0  196.18   12.00
   5   1   0  185.18   22.00
   5   1   0  171.88   18.10
   5   1   0  182.58   13.20
   5   1   0  184.78   13.10
  -5   1   0  219.28   15.90
   6  -1   0  261.07   15.90
   6  -1   0  247.58   24.40
   6  -1   0  235.98   20.30
   6  -1   0  285.87   20.00
   6   1   0  248.18   28.60
   6   1   0  294.07   21.60
   6   1   0  218.68   22.10
   6   1   0  238.18   16.70
  -6   1   0  266.57   19.90
   7  -1   0    9.10    6.40
   7  -1   0   15.20    7.30
   7  -1   0   -8.70    5.90
   7  -1   0    8.10    5.40
  -7  -1   0    5.30    6.30
   7   1   0    3.70    4.60
   7   1   0    4.10    4.10
   7   1   0   -1.60    7.00
   7   1   0    8.10    9.00
   8  -1   0  141.29   27.40
  -8  -1   0  160.68   24.60
  -8  -1   0  171.88   20.90
   8  -1   0  154.38   24.00
   8  -1   0  226.88   17.80
   8  -1   0  142.49   21.10
   8   1   0  162.18   27.50
   8   1   0  147.29   15.10
  -8   1   0  183.38   20.40
   8   1   0  189.68   37.30
  -8   1   0  187.38   18.00
   8   1   0  193.38   17.70
   9  -1   0  138.69   30.50
  -9  -1   0  158.68   24.50
   9  -1   0  120.59   18.00
   9  -1   0  154.78   22.10
   9   1   0  118.69   18.50
  -9   1   0  139.69   26.90
  -9   1   0  109.99   18.70
 -10  -1   0    7.90   14.00
  10  -1   0   19.40   19.80
 -10   1   0   63.79   15.70
  10   1   0   34.50   11.10
   0  -2   0 7169.48  186.68
   0  -2   0 7614.94  179.38
   0  -2   0 7019.20  175.58
   0   2   0 7318.77  187.88
   1  -2   0 6273.87  148.59
   1  -2   0 6343.27  150.78
  -1  -2   0 6097.69  153.68
  -1  -2   0 6632.04  162.08
   1  -2   0 6514.05  162.98
  -1  -2   0 6274.87  170.08
   1  -2   0 6173.48  148.89
  -1   2   0 6369.66  150.68
   1   2   0 6420.36  171.38
   1   2   0 6265.07  153.38
  -1   2   0 6185.08  156.28
  -1   2   0 6507.55  161.48
   1   2   0 6312.87  154.58
   2  -2   0 5274.37  119.09
  -2  -2   0 4941.61  144.29
   2  -2   0 5234.78  130.39
  -2  -2   0 5098.89  127.29
  -2  -2   0 5205.98  137.19
   2  -2   0 5162.88  121.99
   2  -2   0 4910.81  132.09
   2   2   0 4872.01  146.39
   2   2   0 4918.51  137.49
  -2   2   0 5060.59  120.49
  -2   2   0 4982.40  130.49
   2   2   0 5041.30  126.99
   3  -2   0 4611.74  112.79
   3  -2   0 4560.14  124.09
  -3  -2   0 4595.44  120.69
   3  -2   0 4943.21  117.59
  -3  -2   0 4914.01  133.49
  -3  -2   0 4649.43  141.79
   3   2   0 4730.23  134.89
  -3   2   0 4832.32  115.29
  -3   2   0 4632.04  126.09
   3   2   0 4497.15  143.19
   3   2   0 4494.85  120.69
   4  -2   0 2798.82   88.59
  -4  -2   0 3254.77   99.59
   4  -2   0 3022.30   78.59
   4  -2   0 3283.67   85.39
  -4   2   0 2914.81   91.49
   4   2   0 3091.79   86.19
   4   2   0 3157.38  101.89
  -4   2   0 3115.19   82.09
   4   2   0 3029.00   81.39
   5  -2   0 1824.02   58.49
   5  -2   0 1693.43   50.99
  -5  -2   0 1797.92   69.89
   5   2   0 1892.91   74.29
   5   2   0 1686.63   80.99
   5   2   0 1763.62   53.49
   5   2   0 1701.13   57.49
  -5   2   0 1837.42   55.59
   6  -2   0 1900.31   56.59
   6  -2   0 1912.31   65.39
   6  -2   0 1929.11   67.39
   6  -2   0 1806.42   73.19
   6   2   0 1791.52   78.19
  -6   2   0 1836.82   60.39
   6   2   0 1808.32   89.39
   6   2   0 1784.72   62.19
   6   2   0 1807.02   57.99
  -7  -2   0  726.93   42.60
  -7  -2   0  748.33   45.40
   7  -2   0  732.03   31.40
   7  -2   0  778.52   39.50
   7  -2   0  788.12   47.50
   7   2   0  810.72   51.89
   7   2   0  702.43   32.00
   7   2   0  761.62   58.29
   7   2   0  732.03   36.00
  -8  -2   0  477.55   40.00
  -8  -2   0  563.24   39.30
   8  -2   0  488.85   27.00
   8  -2   0  535.85   34.70
   8  -2   0  541.25   35.30
   8  -2   0  518.85   41.50
   8   2   0  550.34   53.49
   8   2   0  513.95   27.80
  -8   2   0  534.85   31.00
  -8   2   0  541.95   29.80
   8   2   0  548.25   32.50
   9  -2   0  360.46   25.30
   9  -2   0  365.26   39.50
  -9  -2   0  377.26   43.00
   9  -2   0  453.35   33.60
  -9  -2   0  349.27   33.30
   9   2   0  390.66   25.20
  -9   2   0  400.56   27.40
 -10  -2   0  123.39   25.40
  10  -2   0   45.40   14.80
  10  -2   0   50.89   24.80
 -10   2   0   92.69   19.20
   0  -3   0   -0.20    0.80
   0  -3   0   -0.10    0.90
   0  -3   0   -0.10    1.80
   0  -3   0    1.00    1.40
   0  -3   0   -4.60    1.90
   0   3   0    0.10    1.00
   0   3   0    3.20    3.30
   0   3   0   -0.40    0.70
   1  -3   0    0.20    3.30
  -1  -3   0    6.50    4.00
   1  -3   0    8.40    2.30
  -1  -3   0   11.00    3.70
  -1  -3   0    4.40    3.30
   1  -3   0    7.60    2.00
  -1  -3   0   10.30    3.00
   1   3   0    4.80    1.80
   1   3   0   11.80    2.80
   1   3   0    4.30    4.00
   1   3   0    7.40    2.40
  -1   3   0    8.50    4.30
  -2  -3   0  192.08   14.60
  -2  -3   0  198.18   12.20
  -2  -3   0  183.18   19.50
  -2  -3   0  211.08   17.00
   2  -3   0  180.98   12.80
   2  -3   0  209.48    9.00
   2  -3   0  215.18   16.50
   2  -3   0  197.48    7.90
   2   3   0  209.58   12.00
   2   3   0  225.88   22.30
  -2   3   0  200.48   13.90
   2   3   0  196.88   12.60
  -3  -3   0  257.67   18.90
  -3  -3   0  285.77   26.30
   3  -3   0  271.47   17.40
  -3  -3   0  263.97   15.50
   3  -3   0  246.98   18.00
   3  -3   0  247.78   10.90
   3  -3   0  265.37    9.70
  -3  -3   0  262.67   20.80
  -3   3   0  248.28    8.70
   3   3   0  265.37   26.90
  -3   3   0  237.88   17.30
   3   3   0  256.87   21.80
   3   3   0  253.27   15.90
   3   3   0  261.87   15.30
  -4  -3   0    2.50    4.20
  -4  -3   0    2.10    5.30
   4  -3   0    2.20    2.60
   4  -3   0    0.90    1.90
   4  -3   0    3.20    3.40
   4  -3   0   -1.50    1.20
   4   3   0    3.20    2.70
  -4   3   0   -1.20    2.40
   4   3   0    0.60    2.70
   4   3   0    3.30    4.80
  -4   3   0    2.50    1.30
   5  -3   0    4.90    3.10
   5  -3   0    3.10    2.40
  -5  -3   0   -1.10    4.20
  -5  -3   0    8.40    6.90
   5   3   0    9.10    4.20
   5   3   0   10.00    8.10
   5   3   0    0.20    6.30
   5   3   0    1.40    2.20
  -5   3   0    5.80    2.80
  -6  -3   0  356.16   28.20
   6  -3   0  367.96   18.00
   6  -3   0  377.06   21.50
   6  -3   0  295.27   29.30
  -6   3   0  375.56   17.90
   6   3   0  373.56   18.10
   6   3   0  379.56   34.30
  -6   3   0  356.46   17.80
   6   3   0  347.17   39.20
   7  -3   0   78.79   10.80
   7  -3   0   89.69   16.40
  -7  -3   0   99.09   19.60
   7  -3   0   91.99   18.80
   7  -3   0   99.39   14.40
  -7  -3   0   94.19   20.10
   7   3   0  100.19   11.80
   7   3   0   92.69   28.00
  -7   3   0   82.69    9.40
   8  -3   0   45.10   15.30
   8  -3   0   70.19   11.40
   8  -3   0   52.29   16.90
  -8  -3   0   52.09   16.60
  -8  -3   0   76.69   18.80
   8   3   0   49.10   24.90
   8   3   0   98.49   12.60
  -8   3   0   65.49   12.60
   8   3   0   55.19   13.50
  -8   3   0   83.89   11.50
  -9  -3   0   29.90   16.80
   9  -3   0   41.60   10.70
   9  -3   0   56.09   20.00
  -9   3   0   49.80   11.20
   9   3   0   58.59   11.20
 -10  -3   0   24.90   20.50
  10  -3   0   21.60   12.50
  10  -3   0   20.50   19.10
 -10   3   0   51.29   13.10
   0  -4   0 1913.51   74.09
   0  -4   0 1940.31   58.59
   0  -4   0 1981.60   56.29
   0  -4   0 2100.19   64.09
   0   4   0 1888.31   76.49
   0   4   0 1831.42   56.59
   0   4   0 1947.01   50.99
   0   4   0 1885.31   50.39
   1  -4   0 1394.26   57.99
  -1  -4   0 1445.26   64.49
  -1  -4   0 1483.55   54.19
   1  -4   0 1398.26   43.10
   1  -4   0 1476.35   47.20
   1  -4   0 1481.05   42.20
  -1  -4   0 1367.46   49.10
  -1  -4   0 1418.06   44.60
   1   4   0 1454.55   44.20
  -1   4   0 1434.56   58.49
   1   4   0 1406.16   41.90
   1   4   0 1383.46   42.30
  -1   4   0 1457.95   47.80
   1   4   0 1395.56   66.09
  -2  -4   0 5127.09  144.79
  -2  -4   0 4975.70  158.68
   2  -4   0 5335.07  127.29
   2  -4   0 4662.53  141.99
  -2  -4   0 5030.00  138.49
  -2  -4   0 4859.21  130.49
   2  -4   0 4984.20  123.49
   2   4   0 4926.31  122.29
   2   4   0 5088.39  164.48
  -2   4   0 4894.61  135.09
   2   4   0 5135.79  131.39
   2   4   0 4789.42  128.39
   3  -4   0 1833.42   67.39
  -3  -4   0 1948.61   72.89
  -3  -4   0 1802.02   81.89
  -3  -4   0 1729.43   65.89
   3  -4   0 1907.31   49.60
   3  -4   0 1977.20   49.60
   3   4   0 1895.51   58.89
   3   4   0 1844.92   85.99
   3   4   0 1886.31   60.79
  -3   4   0 1787.72   64.39
   4  -4   0  747.13   22.30
  -4  -4   0  762.42   39.70
  -4  -4   0  745.93   50.69
   4  -4   0  712.23   34.90
   4  -4   0  716.03   37.30
   4  -4   0  731.93   23.50
  -4  -4   0  725.63   42.60
   4   4   0  702.43   32.10
  -4   4   0  702.23   36.70
   4   4   0  660.03   50.89
   4   4   0  699.63   33.30
   5  -4   0 1663.33   64.59
   5  -4   0 1674.23   47.20
   5  -4   0 1638.04   46.20
  -5  -4   0 1608.94   67.69
   5  -4   0 1532.85   61.49
  -5  -4   0 1755.82   74.69
   5   4   0 1641.44   58.49
   5   4   0 1616.74   44.70
   5   4   0 1635.84   61.49
   6  -4   0  483.75   33.30
   6  -4   0  511.35   21.90
  -6  -4   0  527.15   46.10
  -6  -4   0  513.05   36.40
   6   4   0  548.75   30.70
   6   4   0  560.34   22.80
   6   4   0  573.64   32.90
   7  -4   0  333.47   28.50
  -7  -4   0  304.67   28.90
   7  -4   0  265.97   23.90
   7  -4   0  323.97   26.80
  -7  -4   0  371.86   36.20
   7  -4   0  305.57   17.70
   7   4   0  312.97   15.10
   7   4   0  267.57   24.20
   8  -4   0  324.97   29.10
   8  -4   0  306.57   31.30
   8  -4   0  320.67   20.60
  -8  -4   0  330.27   37.50
  -8  -4   0  366.36   39.20
   8   4   0  371.06   52.39
   9  -4   0  355.96   34.80
   9  -4   0  300.67   22.70
  -9  -4   0  328.67   37.00
 -10  -4   0   43.20   24.30
  10  -4   0   90.49   17.00
   0  -5   0    6.10    5.40
   0  -5   0    2.10    3.00
   0  -5   0    4.50    4.20
   0  -5   0    3.40    2.70
   0   5   0    0.80    1.10
   0   5   0    2.40    1.30
   0   5   0    0.40    1.80
   0   5   0    4.70    5.00
   1  -5   0   35.20    8.00
   1  -5   0   23.70    9.30
  -1  -5   0   46.50   14.10
   1  -5   0   47.10    7.20
  -1  -5   0   31.60    8.70
  -1  -5   0   55.29   10.10
   1  -5   0   43.70    7.10
   1   5   0   47.60    7.00
   1   5   0   57.49    7.30
   1   5   0   40.80    6.60
  -1   5   0   41.40   11.30
  -1   5   0   40.80    8.60
   1   5   0   79.19   21.00
   2  -5   0   40.40    5.90
   2  -5   0   58.39   14.10
  -2  -5   0   30.50   11.00
   2  -5   0   47.80    7.50
   2  -5   0   31.80    5.40
  -2  -5   0   41.10   11.40
  -2  -5   0   39.20    9.50
   2   5   0   42.40    7.90
  -2   5   0   29.20    7.30
   2   5   0   45.40    6.20
   2   5   0   33.70   15.30
   2   5   0   47.60    8.00
  -3  -5   0    5.10    6.70
  -3  -5   0   20.70    8.50
   3  -5   0   10.90    2.80
   3  -5   0   10.40    7.00
   3  -5   0    9.60    2.40
   3  -5   0    9.90    2.90
  -3  -5   0   14.40    5.70
  -3   5   0    7.80    4.30
   3   5   0   10.10    2.30
   3   5   0    2.60    4.00
   3   5   0   12.70    5.50
   3   5   0    4.90    9.20
  -4  -5   0   54.39   12.80
  -4  -5   0   48.40   17.60
  -4  -5   0   49.70   13.10
   4  -5   0   42.50   10.80
   4  -5   0   47.60    5.40
   4   5   0   58.19   10.50
   4   5   0   38.40    9.10
   4   5   0   42.50   16.80
  -4   5   0   37.10   10.30
   5  -5   0   -1.00    6.70
  -5  -5   0   -1.40    8.90
   5  -5   0   10.70    3.30
  -5  -5   0   21.50   10.40
  -5  -5   0    3.30    6.80
   5   5   0   12.40    5.60
   5   5   0    7.70   11.40
   6  -5   0   62.69    8.20
  -6  -5   0   56.89   15.40
  -6  -5   0   60.89   18.30
   6  -5   0   82.59   16.40
   6   5   0  123.09   44.10
   6   5   0   50.69   12.30
   6   5   0   65.49   12.80
  -7  -5   0   47.70   17.40
   7  -5   0   69.09   16.20
   7  -5   0   68.09    9.20
  -7  -5   0   89.49   19.70
   7  -5   0   77.09   15.30
   7   5   0   50.69   29.70
   7   5   0   52.29   13.00
   7   5   0   61.49   13.30
  -8  -5   0   45.40   16.80
  -8  -5   0   33.00   21.70
   8  -5   0   35.50   14.60
   8  -5   0   54.49   11.80
   8  -5   0   33.30   13.30
   8   5   0   33.20   12.70
   9  -5   0   31.50   10.40
  -9  -5   0   84.29   25.40
   9  -5   0   30.20   16.50
 -10  -5   0   46.90   32.00
   0  -6   0  470.65   37.80
   0  -6   0  467.25   28.90
   0  -6   0  481.95   26.10
   0   6   0  494.95   40.30
   0   6   0  502.95   25.40
   1  -6   0 1037.50   41.30
   1  -6   0  895.61   51.59
  -1  -6   0  866.51   55.99
  -1  -6   0  965.90   42.90
   1  -6   0  970.10   36.10
  -1  -6   0  976.80   47.20
   1   6   0 1036.00   36.40
   1   6   0  954.80   31.60
  -1   6   0  904.51   40.30
  -1   6   0  951.50   52.89
   1   6   0  878.71   61.09
   1   6   0  963.60   32.60
   2  -6   0  570.44   37.80
  -2  -6   0  587.14   37.50
   2  -6   0  580.84   25.80
  -2  -6   0  534.05   44.30
   2  -6   0  608.44   26.80
   2  -6   0  553.44   24.20
  -2  -6   0  508.75   31.80
   2   6   0  538.65   24.90
   2   6   0  576.54   22.60
  -2   6   0  592.34   32.50
   2   6   0  573.94   26.60
   2   6   0  551.04   48.80
  -3  -6   0  598.14   40.50
   3  -6   0  599.54   36.80
  -3  -6   0  428.26   42.00
   3  -6   0  530.45   22.60
  -3  -6   0  517.65   34.00
   3  -6   0  567.84   18.90
   3  -6   0  569.64   19.80
   3   6   0  545.95   18.20
  -3   6   0  514.45   32.40
   3   6   0  529.05   28.20
   4  -6   0  473.35   31.10
  -4  -6   0  515.25   35.80
  -4  -6   0  478.95   46.30
   4  -6   0  531.85   21.20
  -4  -6   0  500.35   39.00
  -4   6   0  434.46   31.80
   4   6   0  489.75   29.20
   4   6   0  468.45   27.10
   4   6   0  544.35   54.69
   5  -6   0  297.57   15.50
   5  -6   0  330.07   23.90
  -5  -6   0  299.87   32.60
  -5  -6   0  316.27   29.90
   5   6   0  275.37   22.70
   5   6   0  231.68   53.89
   5   6   0  285.77   23.90
   6  -6   0  236.98   14.60
  -6  -6   0  209.48   32.80
  -6  -6   0  224.68   27.60
   6   6   0  262.07   23.80
   6   6   0  226.78   23.20
  -7  -6   0   98.59   30.30
   7  -6   0  118.99   14.10
   7  -6   0   80.49   13.50
   7  -6   0   95.19   11.90
  -7  -6   0   97.99   22.60
   7   6   0   63.49   15.40
  -8  -6   0  107.09   26.00
  -8  -6   0  115.59   32.00
   0  -7   0   11.90    9.30
   0  -7   0    8.30    5.40
   0  -7   0   -1.00    6.30
   0   7   0   18.80   11.00
   0   7   0    4.20    3.80
   1  -7   0   47.90    9.40
  -1  -7   0   68.29   13.40
   1  -7   0   53.79   15.60
  -1  -7   0   57.79   14.50
   1  -7   0   79.79   13.80
   1   7   0   94.89   12.60
  -1   7   0   59.99   12.30
   1   7   0   58.89    5.60
   1   7   0   66.39   21.00
  -1   7   0   68.39   20.00
   2  -7   0   36.40    7.50
  -2  -7   0   40.60   12.90
  -2  -7   0   29.30   13.00
   2  -7   0   33.20    7.10
   2  -7   0   40.90   13.20
  -2  -7   0   24.60    9.50
   2  -7   0   30.60    6.90
  -2   7   0   22.70    8.20
   2   7   0   33.70    7.40
   2   7   0   19.60    5.80
   3  -7   0   13.70    5.50
   3  -7   0    3.40    2.70
  -3  -7   0   -0.30    6.60
  -3  -7   0   23.70   10.90
   3  -7   0   14.90    8.90
   3  -7   0   11.60    2.90
  -3  -7   0    2.70   12.00
   3   7   0    8.00    5.80
   3   7   0    9.80    5.50
   3   7   0   17.60   16.50
  -4  -7   0   15.60   14.10
   4  -7   0   35.00   12.10
   4  -7   0   23.20    6.60
  -4  -7   0   19.00   14.90
  -4  -7   0   29.80   12.90
   4   7   0   32.00   20.00
   4   7   0   35.30    9.70
  -5  -7   0   33.20   16.90
   5  -7   0   27.10    6.60
   5   7   0   18.00    9.30
   6  -7   0   15.10    5.40
  -6  -7   0   16.80   17.40
  -6  -7   0  -11.50   11.50
   6   7   0    5.50   10.90
  -7  -7   0   28.10   25.90
   7  -7   0    7.10    8.70
   0  -8   0  262.77   31.20
   0  -8   0  268.07   28.00
   0  -8   0  245.58   24.30
  -1  -8   0  117.49   22.20
  -1  -8   0  136.89   28.40
   1  -8   0  116.19   22.30
   1  -8   0  138.19   16.90
   1  -8   0   98.29   14.00
  -1  -8   0   99.59   19.60
   1   8   0  150.58   36.90
  -1   8   0  200.98   36.60
   2  -8   0   85.59   11.30
  -2  -8   0   96.99   20.30
  -2  -8   0   70.39   15.00
   2  -8   0   83.29   20.10
  -2  -8   0   72.09   24.30
   2  -8   0   70.39   11.10
   2   8   0   60.89    8.40
   2   8   0   76.69    9.10
  -3  -8   0   92.19   25.70
  -3  -8   0   92.39   17.90
  -3  -8   0   98.89   26.90
   3  -8   0   82.89   18.40
   3   8   0  119.59   14.00
   3   8   0  103.49   13.70
   3   8   0   75.49   28.50
   4  -8   0   87.39   12.40
   4  -8   0   79.49   16.90
  -4  -8   0  109.09   26.60
   4   8   0   73.99   14.90
  -5  -8   0   96.29   30.60
   5  -8   0  122.79   12.90
   5   8   0   94.69   18.50
   5   8   0   83.79   17.90
   6   8   0   19.70   15.40
   0  -9   0   11.80   11.50
   0  -9   0    1.10   16.00
   0   9   0   -2.80   19.30
   1  -9   0    8.40   14.90
  -1  -9   0   18.00   12.80
   1  -9   0   -2.70   10.30
  -1  -9   0   -4.70   17.80
   1   9   0  -19.40   22.40
  -2  -9   0   -4.50   14.70
   2  -9   0    2.10    6.50
  -2  -9   0   -5.00   21.00
   2  -9   0    4.20   16.50
   3  -9   0   23.60   14.40
   3   9   0    0.70    9.20
   4   9   0    9.20   11.90
  10   0  -1   29.70   20.60
 -10   0   1    4.40   11.60
  10   0  -1  -35.10   20.50
   9   0  -1    2.80   12.10
   9   0  -1    9.70    9.90
   9   0  -1    6.80    5.70
  -9   0   1    3.90    9.70
   8   0  -1    0.80    7.10
   8   0  -1   -2.40    6.60
   8   0  -1   -0.80    4.30
   8   0  -1    6.80    5.40
  -8   0   1    2.40    6.80
   7   0  -1    4.00    3.30
   7   0  -1    0.90    5.00
   7   0  -1    0.30    4.90
  -7   0   1    2.10    5.30
   7   0  -1    0.30    3.20
   6   0  -1    7.10    5.60
   6   0  -1    5.30    4.70
   6   0  -1    0.50    2.00
  -5   0   1    0.30    1.60
   5   0  -1    1.40    3.60
   5   0  -1    0.50    4.20
  -5   0   1    1.80    3.30
   5   0  -1    0.40    1.50
   5   0  -1    1.00    1.20
  -4   0   1   -0.80    1.90
   4   0  -1   -1.30    1.30
   4   0  -1    0.30    2.70
   4   0  -1   -1.50    2.20
  -4   0   1    0.60    1.20
   4   0  -1    0.30    1.20
   3   0  -1   -0.80    1.60
  -3   0   1    1.70    2.40
  -3   0   1    1.60    1.20
   3   0  -1   -1.40    1.60
   3   0  -1    2.50    1.60
  -3   0   1    0.20    0.90
   3   0  -1    0.70    1.00
  -2   0   1    0.00    0.70
   2   0  -1    0.70    1.50
   2   0  -1    0.60    0.90
   2   0  -1    0.60    0.90
  -2   0   1    0.10    0.80
  -2   0   1    0.60    1.30
   2   0  -1    0.10    1.70
  -2   0   1    1.60    1.70
   1   0  -1   -0.90    0.60
  -1   0   1    1.00    0.90
   1   0  -1   -0.40    0.40
   1   0  -1    0.60    1.10
  -1   0   1    0.30    0.90
  -1   0   1   -0.30    0.50
  -1   0  -1    1.80    1.20
  -2   0  -1   -0.90    1.00
  -2   0  -1   -0.70    1.10
   2   0   1    1.50    1.70
   3   0   1    0.60    1.20
   3   0   1    1.80    2.30
   3   0   1    0.10    0.80
  -3   0  -1    0.20    1.90
   4   0   1    1.60    1.50
   4   0   1   -0.20    1.10
   4   0   1   -0.20    2.20
   4   0   1    4.60    3.30
  -4   0  -1   -0.50    2.50
   5   0   1   -2.40    1.60
  -5   0  -1    0.10    3.50
   5   0   1    3.50    4.20
   5   0   1   -0.40    1.60
   5   0   1    0.90    3.70
  -6   0  -1   -4.20    3.70
   6   0   1   -0.80    4.30
   6   0   1   -1.50    5.90
  -6   0  -1    1.40    3.50
   6   0   1    1.00    2.60
   6   0   1   -0.70    2.50
   7   0   1    1.70    3.10
   7   0   1   -1.30    5.00
   7   0   1    2.30    5.90
  -7   0  -1    0.20    3.90
   7   0   1   -1.90    3.40
  -8   0  -1   -4.00    7.70
   8   0   1    8.30    5.70
   8   0   1    2.40    9.90
  -8   0  -1   -2.60    5.30
  -9   0  -1   17.00    9.00
   9   0   1   -0.70    5.80
   9   0   1   -5.30   14.90
   9   0   1   -0.30    6.60
  10   0   1   -9.40    9.60
 -10   0  -1   -3.00   12.40
 -10  -1   1   14.90   13.30
  10  -1  -1   23.20   21.00
 -10   1   1   -3.50   10.60
  -9  -1   1   17.00   10.90
   9  -1  -1    5.90    8.80
  -9  -1   1  -17.80   10.80
   9  -1  -1    8.00    7.50
   9  -1  -1    8.40   11.80
   9   1  -1    9.00    7.50
   9   1  -1  -12.30    9.80
   9   1  -1   32.30   20.90
  -9   1   1   28.70   10.60
  -9   1   1    9.90   10.20
   8  -1  -1   82.99   16.90
   8  -1  -1   68.59   12.40
   8  -1  -1   49.20   15.70
  -8  -1   1   72.99   17.10
   8   1  -1   71.09   17.40
   8   1  -1   67.79   13.30
   8   1  -1   72.49   21.60
  -8   1   1   59.39   14.20
   8   1  -1   54.49   11.90
   7  -1  -1    6.50    5.70
   7  -1  -1   -5.00    3.20
   7  -1  -1    0.80    6.40
  -7  -1   1    5.50    6.50
   7   1  -1   -3.10    6.50
   7   1  -1    5.60    4.30
   7   1  -1    2.20    2.80
   6  -1  -1    5.40    6.10
  -6  -1   1   -4.80    4.50
   6  -1  -1    5.60    3.70
   6  -1  -1    4.30    2.90
   6  -1  -1    3.90    4.40
   6   1  -1    4.40    5.60
   6   1  -1    1.60    5.70
   6   1  -1    7.20    4.30
   6   1  -1    7.80    3.80
  -6   1   1    4.70    4.20
  -5  -1   1    3.90    2.50
   5  -1  -1    6.50    2.90
   5  -1  -1   -1.90    2.60
  -5  -1   1    7.00    4.40
   5  -1  -1    2.80    2.40
   5  -1  -1    4.30    4.10
  -5   1   1    1.20    2.30
   5   1  -1   -1.20    2.60
   5   1  -1    1.30    1.50
   5   1  -1   -3.60    4.20
   5   1  -1    1.80    2.80
   4  -1  -1  618.94   27.10
   4  -1  -1  595.04   27.90
  -4  -1   1  631.34   36.70
   4  -1  -1  689.83   23.90
  -4  -1   1  633.74   31.80
  -4  -1   1  657.43   25.40
   4  -1  -1  663.33   31.90
   4   1  -1  593.04   32.10
  -4   1   1  658.33   27.70
   4   1  -1  634.44   25.60
  -4   1   1  700.23   29.60
   4   1  -1  639.84   38.50
   4   1  -1  634.44   23.90
   3  -1  -1    0.70    1.30
   3  -1  -1    3.80    2.50
   3  -1  -1    4.00    2.20
  -3  -1   1    6.90    3.60
  -3  -1   1    0.40    2.40
  -3  -1   1    1.20    1.50
   3  -1  -1    1.40    1.30
   3   1  -1    2.10    3.50
  -3   1   1    0.00    1.50
   3   1  -1    1.20    1.20
  -3   1   1    3.30    2.10
  -3   1   1    1.30    1.10
   3   1  -1   -1.00    1.40
   3   1  -1    1.90    2.30
   2  -1  -1   -1.50    1.10
   2  -1  -1    0.60    0.80
  -2  -1   1   -3.60    1.20
  -2  -1   1    1.30    1.10
   2  -1  -1   -0.20    1.50
  -2  -1   1    2.40    2.40
   2   1  -1    1.50    0.80
   2   1  -1   -1.10    1.70
  -2   1   1    0.10    0.60
  -2   1   1   -0.50    0.80
   2   1  -1    1.30    1.20
  -2   1   1    2.20    1.40
   2   1  -1    0.80    2.60
   1  -1  -1  108.59    5.90
  -1  -1   1  105.99    5.70
  -1  -1   1   99.59   10.00
   1  -1  -1  104.99    4.90
  -1  -1   1  103.39    7.40
   1   1  -1   83.19    9.20
  -1   1   1   96.29    5.50
   1   1  -1   98.09    7.60
  -1   1   1   96.39    6.10
   1   1  -1  107.19    5.80
  -1   1   1  102.69    4.50
   0  -1   1    1.70    1.00
   0  -1  -1    2.00    1.20
   0  -1   1    3.60    2.60
   0  -1  -1    1.70    1.60
   0  -1  -1    2.10    1.00
   0  -1   1    4.40    0.90
   0  -1   1    3.80    1.10
   0   1   1    2.60    1.20
   0   1  -1    2.40    0.60
   0   1   1    3.00    1.60
   0   1  -1    4.00    2.50
   0   1   1    1.20    0.90
   0   1  -1    3.40    1.20
   1  -1   1    3.60    1.50
  -1  -1  -1    5.50    2.10
  -1  -1  -1    8.10    2.90
   1   1   1    2.50    1.70
   1   1   1    6.20    2.00
   1   1   1    5.40    3.10
   2  -1   1  131.69    9.30
  -2  -1  -1  121.79    9.30
  -2  -1  -1  123.39   10.90
   2  -1   1  118.89    7.10
   2   1   1  124.29    7.80
  -2   1  -1  132.09    6.40
   2   1   1  153.08   13.80
   2   1   1  119.69   10.70
  -2   1  -1  136.49    7.10
   3  -1   1  401.16   19.80
  -3  -1  -1  374.26   22.20
   3  -1   1  414.16   14.40
   3  -1   1  372.46   18.00
  -3  -1  -1  438.96   21.70
   3   1   1  446.16   18.10
   3   1   1  387.06   23.20
  -3   1  -1  405.26   17.60
   3   1   1  439.16   28.00
  -4  -1  -1   22.10    6.70
   4  -1   1   27.60    6.60
   4  -1   1   31.00    7.10
   4  -1   1   24.90    4.40
   4   1   1   11.00    5.20
  -4   1  -1   35.50    6.90
   4   1   1   32.30    8.40
   4   1   1   19.10    4.70
   4   1   1   25.90    5.50
  -5  -1  -1    0.10    2.50
   5  -1   1    0.00    2.20
   5  -1   1   -1.10    1.60
  -5  -1  -1    0.30    3.90
   5  -1   1    4.20    3.30
   5   1   1   -0.30    4.30
   5   1   1    2.40    2.20
  -5   1  -1    2.80    2.60
   5   1   1    2.90    5.00
  -5   1  -1    2.50    2.90
   5   1   1   -0.20    2.30
   6  -1   1    2.10    2.70
  -6  -1  -1    5.30    4.00
   6  -1   1    4.20    2.70
   6  -1   1    6.20    4.60
   6  -1   1   -3.90    3.30
  -6  -1  -1   -2.90    3.20
   6   1   1    0.20    2.40
  -6   1  -1    1.50    3.20
  -6   1  -1   -0.30    3.80
   6   1   1    5.90    5.60
   7  -1   1   25.50    9.20
   7  -1   1   33.30    8.40
  -7  -1  -1   16.00    8.80
  -7  -1  -1   13.00    6.00
   7  -1   1   27.80    9.80
   7   1   1   55.09   19.90
  -7   1  -1   25.90    7.30
   7   1   1   19.10    7.00
   7   1   1   34.20    9.00
   8  -1   1   -1.40    7.30
   8  -1   1    9.60    5.70
  -8  -1  -1  -10.70    5.30
   8  -1   1   -1.40    4.70
  -8  -1  -1    6.50    9.00
   8   1   1   -2.10    4.60
  -8   1  -1    5.60    7.30
   8   1   1    4.80   10.00
   8   1   1    5.50    5.20
  -8   1  -1    4.00    5.20
   9  -1   1   -6.60    5.60
  -9  -1  -1   -5.70    8.70
   9  -1   1   -2.50   11.40
   9  -1   1    8.60    8.40
  -9   1  -1    6.30    7.80
   9   1   1  -10.90   11.30
   9   1   1    9.40    6.80
   9   1   1    2.10    7.20
  10  -1   1  -12.00   17.60
 -10  -1  -1  -10.70   14.10
  10   1   1    8.70    9.30
  10  -2  -1    2.90   10.40
 -10  -2   1   -6.70   15.20
  10  -2  -1   -1.40   17.00
 -10   2   1   -9.20   11.00
   9  -2  -1    0.90   10.60
   9  -2  -1    2.70    6.30
  -9  -2   1    4.90   10.90
  -9  -2   1  -25.60   10.90
   9   2  -1   21.30   22.60
  -9   2   1   -0.90    7.80
   9   2  -1   -2.90   12.00
  -8  -2   1   -3.60    9.40
   8  -2  -1   -1.10    9.00
   8  -2  -1   -5.70    4.30
   8  -2  -1    2.30    4.80
   8  -2  -1   -1.00    6.10
  -8   2   1   15.60    7.60
   8   2  -1    5.30    5.50
   8   2  -1    5.80    3.90
   8   2  -1   -1.80    9.10
   8   2  -1   -7.10   10.50
   7  -2  -1    1.30    5.80
   7  -2  -1    0.60    4.70
  -7  -2   1    9.70    8.00
   7  -2  -1    1.30    4.50
   7   2  -1   13.10   15.00
   7   2  -1   10.60    4.20
   7   2  -1   -5.90    3.50
   7   2  -1    7.30    7.60
   6  -2  -1   20.50    8.60
   6  -2  -1   15.30    5.10
   6  -2  -1   12.10    4.80
  -6  -2   1   21.60    9.30
   6  -2  -1   11.20    5.50
   6   2  -1   22.10    6.30
   6   2  -1   16.60    8.90
   6   2  -1    6.70    8.60
  -6   2   1   21.80    5.60
   6   2  -1   11.30    3.90
   5  -2  -1  166.98   14.80
   5  -2  -1  195.28   16.90
  -5  -2   1  178.48   21.70
  -5  -2   1  165.28   13.00
  -5  -2   1  162.18   17.60
   5  -2  -1  172.38   11.20
   5  -2  -1  194.38   15.00
   5   2  -1  178.68   23.80
  -5   2   1  166.18   12.80
   5   2  -1  192.38   14.30
  -5   2   1  183.68   16.30
   5   2  -1  124.59   19.40
   5   2  -1  164.28   10.50
   4  -2  -1   56.99    5.50
   4  -2  -1   56.19    8.50
  -4  -2   1   75.09   17.90
  -4  -2   1   64.59   12.70
  -4  -2   1   47.70    7.50
   4  -2  -1   69.39   11.10
   4   2  -1   28.10    9.60
  -4   2   1   58.59    6.60
   4   2  -1   52.69    4.90
  -4   2   1   76.39   11.80
   4   2  -1   55.29   11.60
   4   2  -1   43.50    7.30
   3  -2  -1  138.09    7.50
  -3  -2   1  141.09   10.10
   3  -2  -1  125.19    8.90
   3  -2  -1  133.09   10.80
  -3  -2   1  118.79   15.50
  -3  -2   1  143.39   13.70
  -3   2   1  126.39   11.10
  -3   2   1  130.49    8.40
   3   2  -1  132.19   17.20
   3   2  -1  140.89   10.00
   3   2  -1  117.59   13.30
   3   2  -1  136.79    6.40
   2  -2  -1    2.30    1.10
  -2  -2   1   -0.10    2.00
   2  -2  -1    2.20    1.60
   2  -2  -1    0.10    1.10
  -2  -2   1    3.70    2.60
  -2  -2   1    2.20    1.70
   2   2  -1    1.50    3.50
  -2   2   1    5.00    2.60
   2   2  -1    0.80    1.50
  -2   2   1    0.20    1.00
   2   2  -1    3.20    2.50
   1  -2  -1   10.50    2.10
  -1  -2   1   14.30    4.10
  -1  -2   1   13.50    2.70
  -1  -2   1    4.60    4.20
   1  -2  -1   10.00    3.20
   1  -2  -1    5.60    1.90
  -1   2   1    7.10    2.10
  -1   2   1    6.50    1.30
  -1   2   1    6.20    2.70
   1   2  -1    8.40    3.30
  -1   2   1    5.00    2.40
   1   2  -1   10.60    1.60
   1   2  -1    2.00    2.10
  -1   2   1    4.80    1.10
   0  -2  -1  310.07   12.70
   0  -2   1  316.27   11.00
   0  -2  -1  313.57   13.90
   0  -2  -1  326.57   17.50
   0  -2   1  328.47   21.00
   0  -2   1  294.87   13.40
   0  -2   1  316.17   10.80
   0  -2   1  295.07   11.90
   0   2   1  302.57   13.80
   0   2   1  306.17   11.50
   0   2  -1  309.07   12.50
   0   2   1  334.07   18.30
   0   2  -1  311.17    9.60
   0   2  -1  315.57   13.90
   0   2   1  313.17   12.10
   0   2  -1  324.67    9.90
  -1  -2  -1  894.11   31.60
   1  -2   1  927.01   37.50
  -1  -2  -1  915.21   29.20
   1  -2   1  903.11   23.30
  -1  -2  -1  882.31   34.70
   1  -2   1  845.62   32.20
   1  -2   1  916.51   24.10
  -1  -2  -1  970.70   38.70
   1   2   1  907.91   28.10
   1   2   1  937.21   39.30
  -1   2  -1  890.31   30.20
   1   2   1  908.11   29.10
  -1   2  -1  914.81   36.00
  -2  -2  -1  322.27   23.00
  -2  -2  -1  304.27   17.60
   2  -2   1  328.67   16.80
   2  -2   1  340.27   20.50
   2   2   1  336.47   16.00
   2   2   1  289.37   22.70
  -2   2  -1  331.47   17.40
   2   2   1  337.67   15.20
  -3  -2  -1   -2.10    2.00
   3  -2   1    2.00    1.60
   3  -2   1    1.80    1.80
   3  -2   1    1.70    0.90
  -3  -2  -1    2.90    2.80
  -3   2  -1   -0.10    0.90
  -3   2  -1    3.50    1.20
   3   2   1    0.80    2.40
   3   2   1    1.90    1.60
   4  -2   1   14.80    4.10
  -4  -2  -1    9.60    5.50
   4  -2   1   11.90    2.60
  -4  -2  -1    3.50    3.70
   4  -2   1   12.40    4.80
  -4   2  -1   12.40    3.30
   4   2   1   16.80    7.90
   4   2   1    2.70    4.50
  -4   2  -1   19.40    4.10
   4   2   1   14.60    4.30
   5  -2   1   55.89    5.70
   5  -2   1   57.49    9.50
  -5  -2  -1   36.00   10.70
   5  -2   1   56.89   11.50
  -5  -2  -1   37.80    9.70
   5   2   1   52.19    8.80
   5   2   1   46.70    7.70
  -5   2  -1   54.49    6.50
  -5   2  -1   43.00    7.50
   5   2   1   28.80    9.30
   5   2   1   48.30   16.50
   6  -2   1  226.08   13.60
   6  -2   1  216.98   18.90
  -6  -2  -1  193.48   21.00
  -6  -2  -1  214.18   20.60
   6  -2   1  197.88   16.90
  -6   2  -1  197.48   15.10
   6   2   1  142.39   25.70
  -6   2  -1  215.18   14.50
   6   2   1  223.98   16.90
   6   2   1  200.38   14.80
   7  -2   1   28.90    6.70
  -7  -2  -1   22.70   10.70
   7  -2   1   29.10   11.30
  -7  -2  -1   15.70    8.90
   7   2   1   20.50    6.40
  -7   2  -1   25.30    7.40
   7   2   1   24.40   15.80
   7   2   1   51.49   11.10
  -8  -2  -1   16.30    8.90
   8  -2   1   43.50   12.60
  -8  -2  -1   20.80   12.20
   8  -2   1    6.90   10.40
   8  -2   1    9.10    6.70
   8   2   1   21.30   10.20
   8   2   1   15.00    7.20
  -8   2  -1   10.30    8.10
  -8   2  -1    9.20    6.90
   8   2   1   46.60   20.80
   9  -2   1   23.80   15.60
   9  -2   1   13.10    8.90
  -9  -2  -1   12.70   12.70
   9  -2   1   16.90   10.00
   9   2   1    9.50   20.90
  -9   2  -1    6.10    9.70
  10  -2   1    7.80    9.50
  10  -2   1   -3.90   18.10
 -10  -2  -1    6.50   15.70
 -10   2  -1   -0.90   11.20
  10   2   1   21.10   11.20
  10  -3  -1    3.00   11.20
  10  -3  -1  -10.00   17.10
  -9  -3   1  -14.50   17.30
   9  -3  -1   -1.90    7.00
   9  -3  -1   14.90   10.40
  -9  -3   1   21.60   15.50
  -9   3   1   10.80    8.10
  -8  -3   1   94.09   20.80
   8  -3  -1   90.79   15.90
  -8  -3   1   67.09   17.70
   8  -3  -1  105.79   12.00
   8  -3  -1   92.69   20.20
   8   3  -1   66.39   21.70
   8   3  -1   63.99   26.90
  -8   3   1   75.79   12.00
   8   3  -1   64.99   14.40
   7  -3  -1  106.29   15.60
   7  -3  -1  120.29   21.10
  -7  -3   1  104.49   20.80
   7  -3  -1  128.89   11.90
   7   3  -1  124.69   10.20
  -7   3   1  114.79   13.90
   7   3  -1  144.19   35.90
   6  -3  -1   53.59    9.50
   6  -3  -1   58.39    8.30
  -6  -3   1   52.69   13.50
   6  -3  -1   61.49   12.20
   6  -3  -1   57.89   12.10
   6   3  -1   32.30   16.60
  -6   3   1   58.09    8.70
   6   3  -1   54.59    7.10
   6   3  -1   49.90   14.90
  -5  -3   1  457.65   38.70
   5  -3  -1  444.26   22.30
   5  -3  -1  496.15   31.10
  -5  -3   1  454.25   32.00
   5  -3  -1  457.75   25.00
  -5  -3   1  449.36   24.40
   5  -3  -1  461.55   19.20
   5   3  -1  454.65   16.70
   5   3  -1  420.36   33.20
   5   3  -1  430.26   24.10
   5   3  -1  435.36   40.90
  -5   3   1  424.36   27.80
  -5   3   1  436.36   19.50
   4  -3  -1  249.38   14.20
  -4  -3   1  272.67   27.70
   4  -3  -1  268.57   18.50
  -4  -3   1  269.77   16.90
   4  -3  -1  243.18   12.10
   4  -3  -1  253.57   17.10
  -4  -3   1  278.87   23.00
  -4   3   1  236.78   18.30
  -4   3   1  258.57   12.40
   4   3  -1  269.27    9.60
   4   3  -1  265.57   29.00
   4   3  -1  250.07   16.30
   4   3  -1  265.07   23.90
   3  -3  -1  172.18   10.20
  -3  -3   1  163.38   16.20
   3  -3  -1  188.08   13.00
  -3  -3   1  156.88   11.70
  -3  -3   1  188.18   21.60
   3   3  -1  180.08   12.40
  -3   3   1  166.48   13.90
   3   3  -1  267.87   34.10
  -3   3   1  165.88    9.00
   3   3  -1  149.69   16.30
  -2  -3   1  183.18   15.70
  -2  -3   1  193.38   12.00
   2  -3  -1  182.58   10.10
   2  -3  -1  188.38    9.20
   2  -3  -1  200.38   13.40
  -2  -3   1  221.78   21.90
  -2   3   1  201.18   13.90
   2   3  -1  214.58   22.80
  -2   3   1  192.48    9.90
   2   3  -1  197.48   12.20
   2   3  -1  211.58   17.30
   2   3  -1  198.68    6.40
   2   3  -1  200.28   11.70
  -1  -3   1  124.49   11.40
  -1  -3   1  121.59    9.60
   1  -3  -1  119.39    7.70
  -1  -3   1  133.49   16.30
   1  -3  -1  136.89   11.90
   1  -3  -1  118.69    8.30
  -1   3   1  123.29    5.20
   1   3  -1  121.09    7.70
   1   3  -1  131.29    6.90
   1   3  -1  115.99   15.10
  -1   3   1  145.09   10.20
  -1   3   1  134.39    5.10
  -1   3   1  142.19    9.00
   1   3  -1  136.39    8.50
   1   3  -1  111.49   11.30
  -1   3   1  148.29   12.60
   0  -3   1  321.37   15.10
   0  -3  -1  332.87   21.60
   0  -3   1  357.96   15.50
   0  -3  -1  337.77   15.20
   0  -3   1  321.17   16.50
   0  -3   1  342.17   13.20
   0  -3  -1  338.07   16.60
   0   3  -1  326.77   10.70
   0   3  -1  338.87   24.60
   0   3   1  345.37   13.90
   0   3  -1  337.77   11.00
   0   3   1  310.97   16.40
   0   3   1  366.76   14.40
   0   3   1  351.26   23.10
   0   3  -1  321.77   14.70
   1  -3   1   21.00    3.30
  -1  -3  -1   23.00    5.70
  -1  -3  -1   19.60    4.50
   1  -3   1   14.70    6.40
   1  -3   1   11.40    3.40
   1  -3   1   15.40    2.20
   1  -3   1   17.90    2.70
  -1  -3  -1    7.60    4.20
  -1  -3  -1   14.30    5.30
   1  -3   1   15.10    3.20
  -1   3  -1   16.60    4.30
  -1   3  -1   14.80    5.30
   1   3   1   17.00    6.50
   1   3   1    7.70    2.80
   2  -3   1  722.63   36.40
  -2  -3  -1  785.92   32.80
  -2  -3  -1  730.33   40.30
   2   3   1  691.03   41.40
   2   3   1  733.03   28.60
  -2   3  -1  712.43   30.50
   2   3   1  738.33   27.30
  -3  -3  -1  155.88   19.30
  -3  -3  -1  175.28   17.60
   3  -3   1  162.78   16.50
   3  -3   1  172.78   13.70
   3  -3   1  158.78    5.30
  -3  -3  -1  174.08   15.30
   3   3   1  200.38   14.10
   3   3   1  172.48   21.00
   3   3   1  151.38   11.70
  -3   3  -1  146.19   13.60
   4  -3   1   89.19   13.00
  -4  -3  -1   80.19   13.50
   4  -3   1   86.99    5.30
  -4  -3  -1   70.79   15.50
   4   3   1   96.59    9.90
   4   3   1   66.99   15.10
   4   3   1   90.89   12.70
   5  -3   1   15.20    3.50
   5  -3   1   12.20    4.90
  -5  -3  -1   30.20   10.70
  -5  -3  -1   18.30    7.90
   5   3   1   16.20    7.40
   5   3   1   15.40    6.00
  -5   3  -1   24.70    3.60
   5   3   1    1.40    4.90
  -5   3  -1   19.30    3.30
  -6  -3  -1   70.89   16.80
   6  -3   1   61.49    7.10
  -6  -3  -1   65.19   14.00
   6   3   1   74.29    8.30
  -6   3  -1   72.29    6.80
  -6   3  -1   75.09    7.30
   7  -3   1   22.40    5.80
  -7  -3  -1   19.00   10.20
  -7  -3  -1   10.10    7.00
   7  -3   1   10.40    8.50
   7  -3   1   18.10    7.70
  -7   3  -1   18.30    5.30
   7   3   1   13.20   13.10
   7   3   1   22.70    6.20
   7   3   1   18.90    7.60
   8  -3   1   -3.70    4.30
  -8  -3  -1   13.40    9.10
  -8  -3  -1    7.30   13.00
   8  -3   1   -3.20    5.80
   8  -3   1   -9.50    7.70
   8   3   1   16.80   17.40
   8   3   1    1.70    6.10
   8   3   1    2.30    4.70
  -8   3  -1    9.80    6.00
   8   3   1    5.30    7.20
   9  -3   1   24.90   15.90
   9  -3   1   27.20    9.90
  -9  -3  -1   20.80   14.20
   9   3   1   46.20   10.70
   9   3   1   25.70   11.30
  10  -3   1  -15.10   10.80
  10  -3   1    6.80   21.00
 -10  -3  -1    1.10   19.30
  10   3   1   -8.50    9.20
 -10  -4   1   -4.70   22.00
  10  -4  -1    4.80   12.20
  -9  -4   1   19.90   12.70
   9  -4  -1   10.00    9.00
   9  -4  -1   22.60   12.10
  -8  -4   1   58.39   19.10
  -8  -4   1   29.10   13.10
   8  -4  -1   40.10    9.60
   8  -4  -1   56.09   13.90
   8  -4  -1   31.10    9.50
  -8   4   1   41.60    7.10
   7  -4  -1    8.60    6.90
  -7  -4   1   -0.70    8.90
  -7  -4   1    5.60    8.00
   7  -4  -1    5.20    4.50
   7  -4  -1    7.50    4.60
   7  -4  -1   -1.80    6.00
  -7   4   1    7.80    3.90
   7   4  -1    7.40    8.40
  -7   4   1    8.90    3.60
   7   4  -1   -0.70   16.00
  -6  -4   1   22.80   10.80
  -6  -4   1   45.10   12.80
   6  -4  -1   39.00    7.00
   6  -4  -1   43.20   12.90
   6  -4  -1   43.30    8.20
   6  -4  -1   42.30    9.20
   6   4  -1   37.30    9.70
  -6   4   1   32.90    5.20
   6   4  -1   31.10   13.90
  -6   4   1   31.70   10.60
   5  -4  -1  238.78   13.30
   5  -4  -1  255.17   14.60
  -5  -4   1  237.98   25.20
   5  -4  -1  230.38   18.00
  -5   4   1  236.28   21.40
   5   4  -1  258.67   18.70
   5   4  -1  272.07   28.90
   4  -4  -1   15.40    5.70
   4  -4  -1   12.10    3.50
  -4  -4   1   16.70    9.90
  -4  -4   1    6.60    7.40
  -4  -4   1    4.10    4.20
   4  -4  -1    3.40    2.50
  -4   4   1    6.10    4.10
  -4   4   1    7.80    2.50
   4   4  -1   12.30    8.90
   4   4  -1    7.00    7.70
   4   4  -1   16.60    5.60
   4   4  -1    9.20    4.10
   3  -4  -1  217.78   11.80
   3  -4  -1  210.58   10.90
  -3  -4   1  207.08   19.90
  -3  -4   1  237.98   15.70
   3  -4  -1  219.08   15.90
  -3  -4   1  246.18   27.40
  -3   4   1  200.38   10.20
   3   4  -1  188.58   14.40
  -3   4   1  197.58   16.40
   3   4  -1  203.08   14.10
   3   4  -1  190.38   30.60
   3   4  -1  199.48   20.60
  -2  -4   1  169.68   21.60
   2  -4  -1  148.29   10.10
   2  -4  -1  159.78    9.50
   2  -4  -1  162.68   14.60
  -2  -4   1  171.18   12.20
  -2  -4   1  152.48   15.80
  -2  -4   1  160.78   14.50
   2   4  -1  156.18   11.60
   2   4  -1  123.49    9.90
  -2   4   1  153.18    9.60
  -2   4   1  129.09   12.10
   2   4  -1  159.58    7.30
   2   4  -1  163.48   29.50
   1  -4  -1  513.55   28.40
  -1  -4   1  465.95   34.60
   1  -4  -1  476.55   20.90
  -1  -4   1  465.95   23.60
  -1  -4   1  422.66   24.70
   1  -4  -1  466.05   19.50
  -1  -4   1  467.85   20.20
   1   4  -1  439.56   18.00
   1   4  -1  479.35   18.20
   1   4  -1  435.86   34.50
  -1   4   1  493.25   23.00
   1   4  -1  502.25   19.70
  -1   4   1  420.46   27.10
   0  -4  -1  125.39   12.90
   0  -4   1  103.49    9.10
   0  -4   1  113.29   20.10
   0  -4   1  112.39   10.40
   0  -4  -1  108.49   14.00
   0  -4  -1   97.89    9.40
   0  -4  -1   89.99    8.30
   0  -4   1   88.59    7.20
   0   4  -1  103.69    4.60
   0   4   1  107.19   19.10
   0   4  -1   96.89    8.50
   0   4   1  110.89    9.10
   0   4  -1   95.69    4.40
   0   4   1  118.79    7.20
   0   4   1   98.09    7.10
   0   4  -1  116.69   21.60
  -1  -4  -1  416.16   26.40
   1  -4   1  416.46   15.60
   1  -4   1  409.56   16.30
  -1  -4  -1  503.35   32.60
   1  -4   1  438.46   17.50
   1  -4   1  466.15   31.40
   1  -4   1  392.86   18.40
  -1  -4  -1  472.85   24.10
  -1   4  -1  456.05   30.20
   1   4   1  430.96   18.50
  -1   4  -1  432.96   21.90
   1   4   1  479.85   34.40
   1   4   1  431.66   19.80
   2  -4   1  311.47   10.80
   2  -4   1  304.37   24.90
  -2  -4  -1  281.67   23.20
   2  -4   1  320.07   18.90
  -2  -4  -1  297.07   26.90
   2  -4   1  300.37   10.80
   2  -4   1  303.07   11.60
   2  -4   1  316.07   11.40
  -2  -4  -1  263.47   19.40
   2   4   1  278.07   15.90
   2   4   1  314.27   17.90
   2   4   1  267.87   27.00
  -2   4  -1  329.57   20.20
  -3  -4  -1  224.18   25.10
  -3  -4  -1  208.88   20.90
  -3  -4  -1  220.38   19.00
   3  -4   1  219.88    8.30
   3  -4   1  255.27   22.30
   3  -4   1  226.68   17.30
  -3   4  -1  217.78   17.80
   3   4   1  261.47   16.10
   3   4   1  241.88   28.30
   3   4   1  246.38   16.80
   4  -4   1  242.58   22.50
  -4  -4  -1  193.28   19.40
   4  -4   1  212.48    8.90
  -4  -4  -1  271.67   25.20
   4  -4   1  229.98   22.00
   4   4   1  233.98   17.80
   4   4   1  217.68   16.40
   4   4   1  233.28   38.90
   5  -4   1   90.99   17.60
  -5  -4  -1   74.89   17.30
  -5  -4  -1   87.09   16.40
   5  -4   1   50.39    9.70
   5  -4   1   64.09    5.70
   5   4   1   49.80    9.80
   5   4   1   92.29   22.30
  -6  -4  -1  215.08   26.30
  -6  -4  -1  309.57   27.20
   6  -4   1  222.68   24.50
   6  -4   1  264.07   13.80
   6   4   1  277.57   15.00
   6   4   1  246.78   20.30
   6   4   1  244.18   21.30
  -7  -4  -1   16.90   10.80
   7  -4   1   33.90   14.40
   7  -4   1   33.50   11.20
   7  -4   1   19.60    6.60
  -7  -4  -1   32.00   14.20
   7   4   1   25.20    5.60
   7   4   1   13.10   14.90
   7   4   1   23.40    9.30
   7   4   1   18.20    6.70
   8  -4   1   67.29   18.20
  -8  -4  -1  105.19   30.40
  -8  -4  -1  113.19   36.20
   8   4   1   66.69   10.10
   8   4   1   85.19   16.70
  -9  -4  -1    5.60   15.60
   9  -4   1   43.10   17.00
   9  -4   1   52.69   22.90
   9  -4   1   33.30    9.70
   9   4   1   37.40    9.00
 -10  -4  -1   64.09   26.30
  10  -4   1   29.80   23.00
 -10  -5   1   39.10   28.40
  -9  -5   1   16.00   19.70
   9  -5  -1   18.80   10.30
  -8  -5   1    0.60   11.00
   8  -5  -1   27.30    8.60
  -8  -5   1   35.10   30.30
   8   5  -1   28.30    9.80
   7  -5  -1   70.19   12.10
  -7  -5   1   38.10   16.70
   7  -5  -1   65.79   10.10
  -7  -5   1   49.50   16.20
   7   5  -1   64.29   15.30
   7   5  -1   49.70   13.50
   7   5  -1   18.80   19.60
  -6  -5   1  168.48   25.40
   6  -5  -1  159.18    9.70
   6  -5  -1  173.18   14.90
   6  -5  -1  182.98   12.90
   6   5  -1  211.28   19.80
   6   5  -1  165.68   39.20
   6   5  -1  198.88   19.60
   5  -5  -1  181.08   12.00
  -5  -5   1  151.48   31.00
  -5  -5   1  185.08   22.30
  -5  -5   1  149.79   24.60
   5  -5  -1  184.48   15.20
   5  -5  -1  178.18   10.10
   5   5  -1  183.38   18.20
   5   5  -1  240.68   41.10
  -5   5   1  198.48   20.50
   4  -5  -1   99.19    8.50
  -4  -5   1  122.99   21.20
   4  -5  -1  100.39   11.20
  -4  -5   1   93.19   16.50
  -4  -5   1   96.69   25.10
   4  -5  -1   97.79    8.00
  -4   5   1  113.49   17.50
   4   5  -1   98.89   14.10
   4   5  -1  100.69   11.70
   4   5  -1   75.49   21.60
   3  -5  -1  101.59    8.40
  -3  -5   1   94.29   15.10
   3  -5  -1  124.99   13.50
   3  -5  -1  110.99    8.70
  -3  -5   1   86.59   21.90
  -3  -5   1   97.79   11.00
  -3  -5   1  116.49   19.50
   3   5  -1  110.89   11.70
   3   5  -1  122.19   11.40
  -3   5   1   68.99   11.30
  -2  -5   1  528.55   41.30
   2  -5  -1  402.66   19.60
   2  -5  -1  413.36   22.70
  -2  -5   1  430.16   29.00
  -2  -5   1  432.46   26.60
  -2  -5   1  385.96   21.50
   2  -5  -1  439.46   19.80
   2  -5  -1  445.06   30.00
   2   5  -1  434.86   20.50
  -2   5   1  415.96   24.60
   2   5  -1  440.66   40.00
   2   5  -1  434.86   21.50
   1  -5  -1  152.98   11.40
   1  -5  -1  217.18   20.30
   1  -5  -1  140.39   14.20
  -1  -5   1  169.88   14.50
  -1  -5   1  159.58   12.00
  -1  -5   1  173.58   22.80
   1  -5  -1  177.18   12.90
  -1  -5   1  144.19   15.60
  -1   5   1  155.38   18.20
   1   5  -1  160.08    9.80
   1   5  -1  196.98   25.30
   1   5  -1  161.88   11.10
  -1   5   1  151.58   13.30
   0  -5   1  347.37   16.70
   0  -5  -1  323.97   27.10
   0  -5   1  317.67   29.60
   0  -5  -1  355.26   20.50
   0  -5  -1  304.67   22.70
   0  -5   1  315.87   20.60
   0  -5  -1  320.07   18.30
   0  -5   1  299.27   17.90
   0   5   1  340.67   13.70
   0   5  -1  327.97   18.30
   0   5   1  302.27   13.80
   0   5   1  314.47   18.20
   0   5   1  321.07   29.10
   0   5  -1  282.07   28.70
   1  -5   1  168.08   10.90
  -1  -5  -1  178.58   21.40
   1  -5   1  180.18   11.60
  -1  -5  -1  203.18   19.30
  -1  -5  -1  191.18   16.10
   1  -5   1  212.98   22.60
   1  -5   1  166.58   12.90
   1   5   1  218.58   25.50
   1   5   1  172.08   11.90
   1   5   1  168.28   11.90
   1   5   1  166.88   11.20
  -1   5  -1  200.48   21.70
  -1   5  -1  169.08   14.20
  -2  -5  -1  110.59   18.30
  -2  -5  -1  157.88   26.40
  -2  -5  -1  136.09   14.70
   2  -5   1  125.69    7.60
   2  -5   1  144.69   24.20
   2  -5   1  120.79    8.20
   2  -5   1  117.09    8.20
   2   5   1  102.79    9.90
   2   5   1   90.79   19.20
  -2   5  -1  109.09   12.70
   2   5   1  125.89   11.90
   2   5   1  137.49    9.50
   3  -5   1   31.90   10.90
  -3  -5  -1   41.70   11.20
  -3  -5  -1   40.30   12.10
  -3  -5  -1   56.29   17.70
   3   5   1   66.49   20.10
   3   5   1   55.09    9.50
   3   5   1   42.30    9.00
  -4  -5  -1  100.69   19.40
  -4  -5  -1  115.79   18.50
   4  -5   1   94.69   14.70
   4  -5   1  134.19   23.60
   4  -5   1  103.39    7.30
   4   5   1  123.39   26.50
   4   5   1  107.79   15.10
   4   5   1  110.39   12.20
  -5  -5  -1   63.89   17.00
   5  -5   1   91.89   19.30
   5  -5   1   87.09    6.60
  -5  -5  -1   66.19   23.70
   5  -5   1   49.00   10.80
   5   5   1   66.89   14.80
   5   5   1   76.59   14.00
   5   5   1  120.89   32.00
   6  -5   1   23.20   12.60
   6  -5   1   23.70    5.20
   6  -5   1   21.90   10.30
  -6  -5  -1   22.90   12.70
  -6  -5  -1   -0.60    8.10
   6   5   1   11.80    3.90
   6   5   1   11.10    7.40
   6   5   1    9.90   21.80
   6   5   1   19.50    8.70
  -7  -5  -1   19.60   13.80
  -7  -5  -1    0.00   14.50
   7  -5   1   25.80    6.10
   7  -5   1   44.50   14.70
   7   5   1   19.80   11.10
   7   5   1   11.80    9.50
   8  -5   1   13.00   10.90
   8  -5   1   -0.50   11.70
  -8  -5  -1    2.70   12.00
  -8  -5  -1   32.00   17.90
   8  -5   1    3.40    5.60
   8   5   1   -2.20   15.20
   9  -5   1    9.20    9.20
   9  -5   1    2.50   16.10
  -9  -5  -1   27.30   20.10
  -8  -6   1   27.50   21.40
   8  -6  -1    3.10    8.00
  -8  -6   1   -3.30   17.30
   7  -6  -1   46.50    8.20
  -7  -6   1   32.30   15.40
  -7  -6   1   37.30   17.50
   7   6  -1   15.10    9.90
  -6  -6   1   36.10   15.30
   6  -6  -1   17.10    5.60
  -6  -6   1   29.80   13.50
   6   6  -1   11.40    9.90
   6   6  -1   15.40    8.90
   6   6  -1   16.70   17.50
  -5  -6   1   81.49   25.00
  -5  -6   1  121.79   22.10
  -5  -6   1   43.20   16.10
   5  -6  -1   85.49   10.50
   5   6  -1   82.49   14.10
   5   6  -1   78.89   13.90
  -5   6   1   62.89   12.90
   4  -6  -1   17.60    6.60
  -4  -6   1   30.40   11.00
   4  -6  -1   22.70    4.50
  -4  -6   1   21.80   14.40
   4  -6  -1   24.30    5.60
  -4  -6   1   44.10   14.50
   4  -6  -1   13.00    4.00
   4   6  -1   31.00    7.90
   4   6  -1   12.30    7.20
   4   6  -1   16.50   12.40
  -4   6   1   20.20    7.40
  -3  -6   1  158.28   32.90
  -3  -6   1  140.49   17.40
   3  -6  -1  140.69   10.80
   3  -6  -1  133.79   12.10
   3  -6  -1  155.18   12.00
   3  -6  -1  124.19   15.50
  -3   6   1  156.18   17.30
   3   6  -1  152.48   13.20
   3   6  -1  156.18   14.20
   2  -6  -1  269.07   16.50
  -2  -6   1  274.37   24.40
   2  -6  -1  271.77   23.50
  -2  -6   1  253.87   21.50
   2  -6  -1  268.47   16.40
  -2  -6   1  230.58   29.40
   2  -6  -1  270.57   19.10
  -2   6   1  283.87   21.50
   2   6  -1  304.47   37.10
   2   6  -1  264.27   16.80
   2   6  -1  295.67   16.20
   1  -6  -1  220.48   15.70
  -1  -6   1  230.88   28.50
   1  -6  -1  225.48   16.40
  -1  -6   1  208.08   20.00
   1  -6  -1  201.78   18.50
   1  -6  -1  229.78   23.40
  -1  -6   1  260.17   19.50
  -1   6   1  246.38   24.70
  -1   6   1  213.78   17.30
   1   6  -1  222.18   11.10
   1   6  -1  244.28   11.80
   1   6  -1  159.78   31.20
   0  -6  -1  139.99   13.00
   0  -6  -1  137.99   13.90
   0  -6  -1  144.49   17.00
   0  -6   1  153.38   13.70
   0  -6  -1  144.09   24.30
   0  -6   1  112.39   13.50
   0  -6   1  180.28   29.50
   0   6  -1  198.28   15.00
   0   6  -1  201.78   26.00
   0   6   1  154.28    7.80
   0   6   1  155.98   26.80
   0   6   1  175.18   14.60
   0   6   1  155.78    7.70
  -1  -6  -1  165.28   28.80
  -1  -6  -1  172.68   19.90
   1  -6   1  202.48   25.30
   1  -6   1  174.38   14.50
  -1  -6  -1  164.18   16.40
   1   6   1  147.19   11.30
   1   6   1  166.58   13.10
  -1   6  -1  169.08   22.60
   1   6   1  174.78   31.40
   1   6   1  127.89   10.30
  -1   6  -1  170.98   15.40
  -2  -6  -1   99.69   18.50
   2  -6   1  135.99    9.30
  -2  -6  -1  197.78   25.80
   2  -6   1  154.68   11.00
  -2  -6  -1  129.19   18.20
   2  -6   1  136.39   10.20
   2  -6   1  198.18   23.10
   2   6   1  160.48   12.60
   2   6   1   83.99   20.00
   2   6   1  130.69   12.60
   2   6   1  141.99   10.70
   3  -6   1  244.58   13.10
  -3  -6  -1  242.08   22.80
  -3  -6  -1  278.17   32.70
  -3  -6  -1  275.17   27.80
   3  -6   1  311.97   28.50
   3   6   1  266.97   19.50
   3   6   1  252.07   18.00
   3   6   1  280.27   54.99
   4  -6   1  292.67   28.30
  -4  -6  -1  215.68   31.40
   4  -6   1  281.47   13.60
  -4  -6  -1  312.77   27.50
   4   6   1  336.27   51.89
   4   6   1  303.77   22.80
   4   6   1  298.17   11.90
   5  -6   1   62.99    6.80
   5  -6   1   60.29   16.10
  -5  -6  -1   59.09   15.70
  -5  -6  -1   59.19   18.90
   5   6   1   71.99   13.90
   5   6   1   68.19   14.20
   5   6   1   23.80   21.50
   6  -6   1  130.29    9.90
   6  -6   1  110.89   21.50
  -6  -6  -1  156.28   30.60
  -6  -6  -1  105.09   23.20
   6   6   1  135.09   18.80
   6   6   1  120.59   20.00
  -7  -6  -1   77.09   25.60
   7  -6   1   32.40    7.20
   7  -6   1   53.39   16.40
  -7  -6  -1    3.90   15.00
   7   6   1   38.70   13.00
   8  -6   1   49.70   16.70
  -8  -6  -1   23.10   19.50
   8  -6   1   66.49   18.70
  -7  -7   1   76.19   29.00
  -6  -7   1   65.79   22.20
   6  -7  -1   36.70    8.40
  -6  -7   1   43.40   16.70
   6   7  -1   48.90   13.50
  -5  -7   1  171.38   29.30
  -5  -7   1  149.99   35.80
   5  -7  -1  164.18   14.20
   5   7  -1  161.98   19.10
   5   7  -1  172.68   21.00
  -4  -7   1   35.70   11.70
   4  -7  -1    9.50    7.40
   4  -7  -1   28.50    6.90
  -4  -7   1   32.30   14.00
  -4  -7   1   30.90   16.80
   4   7  -1  -13.80   18.60
  -4   7   1   28.70   10.40
   3  -7  -1  141.99   16.90
   3  -7  -1  117.99   10.60
   3  -7  -1  122.99   11.60
  -3  -7   1  105.09   24.20
   3  -7  -1  111.69   12.40
  -3  -7   1  111.79   18.90
   3   7  -1  174.38   43.80
  -3   7   1  113.49   19.80
   3   7  -1  103.79   13.70
  -2  -7   1  212.28   21.50
   2  -7  -1  246.98   23.70
   2  -7  -1  202.98   18.00
  -2  -7   1  284.47   27.00
   2  -7  -1  240.18   17.20
   2  -7  -1  202.18   16.10
  -2  -7   1  260.87   33.50
  -2   7   1  247.58   22.10
   2   7  -1  237.78   14.20
   2   7  -1  248.28   15.10
   1  -7  -1   49.10   10.10
   1  -7  -1   35.40   10.70
  -1  -7   1   35.20   16.40
   1  -7  -1   48.20    9.50
  -1  -7   1   18.60    9.30
   1  -7  -1   55.59   15.50
  -1  -7   1   31.60    9.80
  -1   7   1   51.69   10.00
   1   7  -1   33.70   16.00
  -1   7   1   69.39   17.00
   0  -7  -1  231.08   19.10
   0  -7   1  205.18   19.60
   0  -7  -1  232.58   35.20
   0  -7   1  195.68   17.50
   0  -7   1  236.28   29.80
   0  -7  -1  248.38   23.20
   0   7   1  230.78   18.00
   0   7  -1  157.48   29.30
   1  -7   1  122.79   15.80
   1  -7   1   98.29   11.00
  -1  -7  -1   91.29   16.00
  -1  -7  -1  135.59   22.80
  -1  -7  -1  100.79   22.40
   1  -7   1  101.89   22.90
   1   7   1  132.29    9.80
  -1   7  -1  120.09   28.80
   1   7   1  109.79    8.80
   1   7   1  130.69   29.10
   1   7   1  142.39   13.20
   2  -7   1   52.79    7.80
   2  -7   1   63.59    7.50
   2  -7   1   82.89   20.40
  -2  -7  -1   61.09   17.00
  -2  -7  -1   96.59   24.70
  -2  -7  -1   78.79   15.30
   2   7   1   84.29   10.90
   2   7   1   56.29    9.50
   2   7   1   61.89   10.10
   3  -7   1    7.10   10.70
  -3  -7  -1   14.10   10.80
   3  -7   1   10.70    4.90
  -3  -7  -1   10.70   12.20
  -3  -7  -1    3.30    8.00
   3   7   1    7.30    5.90
   3   7   1   36.60   20.60
   3   7   1   18.70    6.70
   4  -7   1   95.09    9.70
   4  -7   1  122.59   23.80
  -4  -7  -1   75.59   17.20
  -4  -7  -1  109.19   23.10
   4   7   1   97.09   32.00
   4   7   1  133.29   18.40
   4   7   1  118.69   17.00
  -5  -7  -1   21.00   20.90
  -5  -7  -1   31.30   17.70
   5  -7   1   21.20   11.80
   5  -7   1   29.00    6.50
   5   7   1   21.20   10.50
   5   7   1   29.80   10.20
   6  -7   1    6.90   11.80
  -6  -7  -1   18.50   13.30
  -6  -7  -1   39.70   23.60
   6  -7   1   23.80    5.80
   6   7   1    3.10   10.80
  -7  -7  -1   -6.70   26.90
   6   8  -1    5.70   12.90
  -5  -8   1    6.20   20.90
   5  -8  -1   10.10    8.50
   5   8  -1    9.70   12.60
   5   8  -1   18.10   11.80
   4  -8  -1   18.80    8.00
  -4  -8   1   16.70   16.10
  -4  -8   1   46.00   26.60
   4   8  -1   25.20    9.90
  -3  -8   1  110.49   23.70
   3  -8  -1  100.59   13.60
   3  -8  -1  112.49   18.50
   3  -8  -1  118.59   15.00
   3  -8  -1  119.39   10.40
  -3  -8   1  126.19   20.80
  -3  -8   1  126.59   29.60
   3   8  -1   62.69   28.60
  -3   8   1  127.49   20.90
   3   8  -1  103.09   13.20
   3   8  -1  127.79   13.70
  -2  -8   1   37.50   17.90
  -2  -8   1   34.10   14.20
   2  -8  -1   10.50   13.30
  -2  -8   1   31.20   11.10
   2  -8  -1   33.70    8.50
   2  -8  -1   34.60    9.70
  -2   8   1   27.90   10.40
   2   8  -1   30.20    4.00
   2   8  -1   60.99   23.90
   1  -8  -1   95.19   23.10
  -1  -8   1   73.39   22.20
   1  -8  -1   67.79   15.60
   1  -8  -1   49.40   10.90
  -1  -8   1   65.79   15.20
  -1  -8   1   76.79   18.30
   1   8  -1   78.89   25.20
  -1   8   1   78.89   20.40
  -1   8   1   61.29   12.90
   0  -8   1  117.49   18.90
   0  -8  -1  116.69   22.50
   0  -8   1  147.99   29.90
   0  -8   1  113.09   16.00
   0  -8  -1  118.39   23.60
   0   8   1  128.59   18.20
   0   8  -1   88.49   25.60
   0   8   1  139.19   29.40
  -1  -8  -1  102.99   20.90
   1  -8   1  165.48   16.50
  -1  -8  -1  137.79   20.40
   1  -8   1  107.29   14.40
   1  -8   1  157.18   30.00
  -1  -8  -1  170.48   32.50
  -1   8  -1  133.69   28.10
   1   8   1   82.79   27.20
   1   8   1  132.79   14.70
  -2  -8  -1   42.90   16.00
   2  -8   1   42.60    6.80
  -2  -8  -1   39.30   12.40
   2  -8   1   66.89   20.10
  -2  -8  -1   31.80   13.70
   2   8   1   45.50    8.70
   2   8   1   47.10    8.50
   2   8   1   28.20   19.80
  -3  -8  -1   70.89   22.10
   3  -8   1  122.99   23.30
  -3  -8  -1   97.49   17.20
   3   8   1  106.79   15.40
   3   8   1   72.89   16.60
   3   8   1   54.19   25.20
  -4  -8  -1  114.19   26.90
   4  -8   1   96.69   20.90
   4   8   1  122.79   17.40
   4   8   1   99.59   16.00
  -5  -8  -1    6.10   25.90
   5  -8   1   33.70    7.30
   5  -8   1   35.00   14.40
   5   8   1   30.30   16.30
   5   8   1   26.40   12.60
  -2  -9   1   54.49   23.80
  -2  -9   1   72.49   21.00
   2  -9  -1   44.90   12.30
  -1  -9   1   27.60   18.70
  -1  -9   1   10.80   15.40
   1  -9  -1   60.09   13.80
   1   9  -1   41.10   29.20
   0  -9   1   43.90   20.10
   0  -9  -1   36.70   17.30
   0  -9   1   66.19   15.10
   0   9  -1   32.70   23.40
   0   9   1   42.50   23.30
   1  -9   1    9.80   19.20
  -1  -9  -1   34.20   16.20
   1   9   1   45.10   27.00
   2  -9   1   54.19   19.50
  -2  -9  -1   18.50   20.60
   3   9   1   38.90   11.20
   4   9   1   40.20   14.20
   5   9   1   24.70   26.20
   0 -10   1   20.60   27.10
  10   0  -2   43.10   17.30
  10   0  -2   71.89   29.60
 -10   0   2   31.10   16.50
   9   0  -2   21.60   18.80
  -9   0   2   19.60   11.80
   9   0  -2   15.30   12.60
   9   0  -2   49.90   18.80
   8   0  -2   32.50   12.20
   8   0  -2   35.40   10.90
  -8   0   2   51.99   13.80
   8   0  -2   40.90   13.10
   7   0  -2  216.78   17.10
  -7   0   2  214.68   21.30
   7   0  -2  213.78   27.40
   7   0  -2  221.98   25.30
   7   0  -2  234.58   17.80
   6   0  -2  105.39   21.20
  -6   0   2   99.49   18.90
  -6   0   2   94.49    9.20
   6   0  -2   78.29   14.40
   6   0  -2   94.99   12.70
   6   0  -2   91.69   10.20
  -5   0   2  102.69    8.80
  -5   0   2  115.59   12.90
   5   0  -2  105.89    9.80
  -5   0   2  119.59   11.30
   5   0  -2  123.99   10.60
   5   0  -2  114.59   14.00
   5   0  -2   95.09   16.30
   4   0  -2  142.49   15.40
   4   0  -2  119.99    9.50
   4   0  -2  136.39   13.30
  -4   0   2  138.99    9.30
  -4   0   2  139.79   10.70
  -4   0   2  150.58   13.20
   4   0  -2  137.89   10.00
  -3   0   2   51.89    9.20
  -3   0   2   41.60    4.70
  -3   0   2   49.30    8.10
  -3   0   2   51.49    5.50
   3   0  -2   55.89   10.80
   3   0  -2   45.30    9.20
   3   0  -2   48.90    5.30
  -2   0   2   23.00    5.70
  -2   0   2   15.10    2.80
   2   0  -2   20.80    3.70
   2   0  -2   22.70    5.40
   2   0  -2   19.60    4.40
  -2   0   2   16.30    2.80
   1   0  -2  139.09    8.30
  -1   0   2  143.69   10.10
   1   0  -2  138.29    9.70
   0   0   2  285.37   10.20
   0   0  -2  302.27   11.40
   0   0   2  279.27   11.10
   0   0  -2  274.97   10.10
   1   0   2   39.40    4.00
  -1   0  -2   35.80    5.20
   1   0   2   26.70    2.90
  -2   0  -2  558.94   23.10
  -2   0  -2  507.55   22.70
   2   0   2  581.14   21.30
  -3   0  -2 1752.32   52.19
  -3   0  -2 1648.04   54.39
  -4   0  -2   19.20    5.20
   4   0   2   24.80    4.70
  -4   0  -2   34.10    7.70
   5   0   2  174.48   14.90
   5   0   2  183.28   12.60
  -5   0  -2  182.68   16.40
  -5   0  -2  168.98   14.40
   5   0   2  207.38   22.10
  -6   0  -2  143.79   14.50
  -6   0  -2  140.79   16.10
   6   0   2  118.69   19.70
   6   0   2  174.48   15.50
   6   0   2  155.88   12.70
  -7   0  -2  677.23   36.20
   7   0   2  642.74   30.80
   7   0   2  666.73   49.80
   7   0   2  650.93   34.90
  -8   0  -2   56.79   15.60
   8   0   2   66.69   26.30
   8   0   2   62.59   12.00
  -8   0  -2   73.69   14.90
   9   0   2   69.59   27.30
   9   0   2   73.29   13.90
  -9   0  -2   44.40   15.50
   9   0   2   52.89   13.20
  11  -1  -2   -6.20   25.60
 -10  -1   2  342.07   35.60
  10  -1  -2  316.07   41.30
  10   1  -2  289.27   51.99
  10   1  -2  305.57   43.10
   9  -1  -2  316.07   32.70
   9  -1  -2  417.56   27.90
   9  -1  -2  422.76   41.50
  -9  -1   2  377.36   34.70
   9   1  -2  431.26   48.80
   9   1  -2  308.67   36.50
   9   1  -2  349.67   27.40
  -9   1   2  353.66   30.80
   8  -1  -2  724.53   35.10
   8  -1  -2  655.93   42.40
  -8  -1   2  697.93   44.90
   8   1  -2  670.13   47.40
   8   1  -2  673.73   56.09
   8   1  -2  736.83   37.10
  -8   1   2  630.64   38.30
   7  -1  -2 1099.79   59.39
   7  -1  -2 1244.78   45.90
   7  -1  -2 1063.29   52.79
  -7  -1   2 1181.28   56.19
   7   1  -2 1187.28   70.29
   7   1  -2 1119.69   65.89
   7   1  -2 1185.08   47.20
   6  -1  -2 1629.94   57.49
   6  -1  -2 1537.45   53.19
   6  -1  -2 1593.74   68.19
  -6  -1   2 1586.34   53.69
   6  -1  -2 1546.95   62.59
  -6  -1   2 1645.54   66.29
   6   1  -2 1721.33   80.69
  -6   1   2 1666.03   60.89
  -6   1   2 1593.84   59.69
   6   1  -2 1675.53   53.09
   6   1  -2 1662.73   69.19
   5  -1  -2 2636.04   75.39
   5  -1  -2 2597.54   88.49
  -5  -1   2 2791.02   98.49
   5  -1  -2 2595.84   83.79
  -5  -1   2 2658.73   88.09
   5  -1  -2 2646.74   79.49
  -5  -1   2 2602.14   76.09
   5   1  -2 2680.13   90.79
  -5   1   2 2568.14   81.19
  -5   1   2 2705.63   71.19
   5   1  -2 2683.63  101.89
   5   1  -2 2594.94   77.69
   5   1  -2 2583.64   73.79
  -5   1   2 2627.14   81.89
  -4  -1   2 2370.06   66.59
   4  -1  -2 2309.87   71.79
   4  -1  -2 2317.37   68.79
   4  -1  -2 2351.46   74.69
  -4  -1   2 2269.57   75.49
   4  -1  -2 2475.15   65.59
  -4  -1   2 2098.09   81.69
   4   1  -2 2363.56   87.89
  -4   1   2 2351.06   62.09
  -4   1   2 2319.37   70.09
   4   1  -2 2275.37   63.09
   4   1  -2 2354.96   67.69
  -4   1   2 2256.87   69.69
   4   1  -2 2334.37   78.09
   3  -1  -2 6506.05  153.38
  -3  -1   2 6323.37  173.98
   3  -1  -2 6338.27  159.18
   3  -1  -2 6019.20  158.48
  -3  -1   2 6324.87  155.38
  -3  -1   2 6183.18  163.68
  -3  -1   2 6114.89  151.58
   3   1  -2 6036.00  164.58
  -3   1   2 6406.46  158.68
  -3   1   2 6137.69  157.58
  -3   1   2 6262.77  151.28
   3   1  -2 6026.40  155.38
   3   1  -2 6351.56  175.98
  -2  -1   2 9846.62  240.28
  -2  -1   2 9621.04  250.47
   2  -1  -2 9999.00  232.68
   2  -1  -2 9424.96  235.58
   2   1  -2 9760.72  240.98
   2   1  -2 9728.43  251.87
  -1  -1   2 7564.14  199.68
   1   1  -2 7662.93  188.68
  -1   1   2 7803.22  182.08
   1   1  -2 7808.82  200.88
   0  -1   2 1632.84   55.59
   0  -1  -2 1678.83   47.20
   0  -1   2 1725.33   43.20
   0  -1  -2 1721.13   46.00
   0  -1   2 1745.53   45.40
   0   1  -2 1845.82   56.79
   0   1   2 1686.83   45.60
   0   1  -2 1729.63   42.50
   0   1   2 1682.63   47.20
  -2  -1  -2 5569.34  142.39
  -2  -1  -2 5795.72  147.89
   2   1   2 5431.66  142.49
   2   1   2 5528.05  138.59
  -2   1  -2 5619.24  134.19
  -2   1  -2 5411.26  136.09
  -3  -1  -2 2847.42   87.89
   3  -1   2 2936.91   83.19
  -3  -1  -2 2853.71   82.99
  -3   1  -2 2970.10   78.69
   3   1   2 2926.81   96.29
   3   1   2 2879.11   77.69
  -3   1  -2 2760.82   75.49
   4  -1   2 4194.68  103.69
  -4  -1  -2 3946.81  119.69
   4  -1   2 4176.68  115.19
  -4  -1  -2 4103.39  115.39
   4   1   2 3789.12  129.59
   4   1   2 4230.78  108.89
  -4   1  -2 4046.80  107.49
  -4   1  -2 4090.99  110.69
  -5  -1  -2 1956.90   67.39
  -5  -1  -2 1895.61   71.39
   5  -1   2 2001.80   56.49
   5  -1   2 1937.21   65.99
   5   1   2 1899.31   82.99
   5   1   2 1999.10   60.69
   5   1   2 1928.01   63.09
  -5   1  -2 1819.22   62.49
  -5   1  -2 1871.71   59.99
  -6  -1  -2  965.90   44.60
  -6  -1  -2  931.01   47.50
   6  -1   2  923.71   34.80
   6   1   2  986.90   39.10
  -6   1  -2  963.90   41.80
   6   1   2  975.20   41.10
   6   1   2  889.61   57.39
  -6   1  -2  933.51   38.70
   7  -1   2  519.65   41.90
   7  -1   2  511.45   36.20
  -7  -1  -2  509.35   32.50
  -7  -1  -2  482.55   35.30
   7   1   2  487.95   44.80
  -7   1  -2  520.95   28.80
   7   1   2  466.55   26.90
   8  -1   2  600.34   37.50
   8  -1   2  697.53   52.89
  -8  -1  -2  631.64   39.90
   8  -1   2  649.93   32.10
  -8  -1  -2  618.84   47.40
   8   1   2  659.03   34.30
  -8   1  -2  630.04   35.00
  -8   1  -2  684.13   57.09
   8   1   2  632.44   55.29
  -9  -1  -2  271.47   29.90
   9  -1   2  344.97   24.70
   9  -1   2  306.67   27.40
   9  -1   2  306.97   39.70
  -9   1  -2  264.47   24.60
   9   1   2  356.06   47.20
   9   1   2  247.18   23.90
   9   1   2  322.67   26.70
 -10  -1  -2  148.39   27.40
  10   1   2  117.29   19.30
 -10   1  -2  110.49   20.70
  10  -2  -2   13.80   16.60
  10  -2  -2   36.20   19.70
 -10  -2   2   32.60   18.70
 -10   2   2   18.80   13.50
  10   2  -2   23.90   19.00
   9  -2  -2   70.99   13.70
  -9  -2   2   70.09   19.20
   9  -2  -2   53.79   18.70
   9   2  -2   63.09   20.50
   9   2  -2   47.20   24.80
   8  -2  -2   51.29   10.00
  -8  -2   2   26.20   11.70
   8  -2  -2   27.90    9.80
   8  -2  -2   55.39   17.10
   8   2  -2   27.20    9.10
  -8   2   2   59.49   12.90
   8   2  -2   33.20   12.70
   7  -2  -2  148.19   13.60
   7  -2  -2  135.49   21.40
  -7  -2   2  129.49   21.90
   7  -2  -2  155.58   17.70
   7   2  -2  140.59   24.30
   7   2  -2  160.08   15.80
   7   2  -2  194.08   37.50
  -6  -2   2   -5.20    4.40
   6  -2  -2   -0.10    2.50
  -6  -2   2    4.00    2.80
   6  -2  -2   -1.70    3.70
   6  -2  -2    3.00    4.20
   6   2  -2    0.40    7.10
   6   2  -2    1.10    5.10
  -6   2   2   -2.70    2.90
  -6   2   2    3.60    3.50
   6   2  -2    4.70    3.20
  -5  -2   2  266.97   27.00
  -5  -2   2  256.57   22.20
   5  -2  -2  244.58   18.20
  -5  -2   2  251.07   16.70
   5  -2  -2  247.28   14.10
   5  -2  -2  247.78   17.90
   5   2  -2  231.88   27.30
   5   2  -2  240.48   16.60
   5   2  -2  259.27   23.60
  -5   2   2  239.58   16.40
  -5   2   2  240.28   18.70
  -4  -2   2    0.80    3.20
  -4  -2   2    3.60    2.70
   4  -2  -2    3.50    3.70
  -4  -2   2    2.50    3.70
   4  -2  -2    8.70    3.40
   4  -2  -2    5.10    2.40
   4   2  -2    4.10    4.00
  -4   2   2    4.20    1.40
   4   2  -2    9.60    6.10
  -4   2   2    4.70    2.70
   4   2  -2    1.30    2.20
   3  -2  -2   16.50    3.60
  -3  -2   2   13.40    6.50
   3  -2  -2    8.60    3.30
  -3  -2   2   17.20    4.50
   3  -2  -2   16.90    3.30
  -3  -2   2   11.40    5.00
  -3   2   2   10.50    3.50
   3   2  -2    9.00    4.40
  -3   2   2   12.30    2.10
   3   2  -2   21.30    4.70
  -3   2   2    9.20    4.20
   3   2  -2    3.30    4.50
  -2  -2   2  182.08   18.60
   2  -2  -2  175.98   10.60
  -2  -2   2  177.68   10.50
  -2  -2   2  187.28   13.90
  -2   2   2  167.58    7.60
   2   2  -2  191.68   10.70
   2   2  -2  181.68   14.30
  -2   2   2  168.58   11.60
  -2   2   2  179.48   10.30
  -1  -2   2  213.58   10.30
  -1  -2   2  202.28   18.70
  -1  -2   2  217.48    7.60
  -1  -2   2  224.48   13.40
   1  -2  -2  232.08   11.70
  -1   2   2  210.58   10.80
  -1   2   2  222.38    9.60
   1   2  -2  211.68   13.30
  -1   2   2  202.78   11.00
   1   2  -2  176.38   17.70
   0  -2   2   42.20    4.60
   0  -2   2   50.29   11.20
   0  -2   2   42.10    3.40
   0  -2   2   38.00    4.00
   0  -2  -2   49.50    5.50
   0  -2  -2   34.90    5.10
   0   2  -2   41.00    2.30
   0   2   2   38.30    6.00
   0   2  -2   30.30    7.70
   0   2   2   39.00    4.20
   0   2   2   44.60    7.30
   0   2  -2   45.40    2.50
   0   2  -2   41.10    4.60
   1  -2   2  925.21   41.10
  -1  -2  -2  950.70   31.60
  -1  -2  -2 1003.00   34.30
   1  -2   2  908.41   31.70
   1  -2   2  993.90   25.20
   1   2   2  968.20   31.50
   1   2   2  988.10   40.40
  -1   2  -2  968.70   24.80
   1   2   2  912.21   33.60
  -2  -2  -2   10.90    4.20
   2  -2   2   11.10    3.70
  -2  -2  -2   10.90    5.30
   2   2   2   12.50    3.30
   2   2   2    6.90    4.60
   2   2   2    9.40    3.60
  -3  -2  -2  332.97   20.70
   3  -2   2  344.07   19.70
  -3  -2  -2  342.47   23.80
   3   2   2  334.77   27.20
  -3   2  -2  331.77   11.10
   3   2   2  339.37   17.20
   3   2   2  370.26   18.90
  -3   2  -2  343.27   11.70
   4  -2   2  462.95   25.10
  -4  -2  -2  464.65   29.80
  -4  -2  -2  399.26   28.90
   4   2   2  490.85   24.00
   4   2   2  442.76   22.00
  -4   2  -2  446.46   16.90
  -4   2  -2  420.76   17.50
  -5  -2  -2   62.79   13.60
   5  -2   2   65.79    6.30
   5  -2   2   73.99   12.70
  -5  -2  -2   57.39   11.40
  -5   2  -2   76.39    7.30
   5   2   2   84.79    9.50
  -5   2  -2   89.99    8.30
  -6  -2  -2  247.88   22.00
   6  -2   2  201.58   18.80
  -6  -2  -2  242.18   24.80
   6  -2   2  231.58   13.80
   6   2   2  231.88   17.20
  -6   2  -2  225.18   14.60
   6   2   2  192.38   16.30
  -6   2  -2  223.18   15.60
   6   2   2  224.88   28.90
   7  -2   2  183.18   14.00
   7  -2   2  177.78   18.90
  -7  -2  -2  125.89   20.10
  -7  -2  -2  142.39   24.00
   7  -2   2  185.08   24.30
  -7   2  -2  178.58   14.80
  -7   2  -2  171.38   18.40
   7   2   2  173.48   16.50
   7   2   2  160.58   15.20
   7   2   2  153.98   27.10
   8  -2   2  131.29   21.40
   8  -2   2  124.09   26.10
  -8  -2  -2  119.29   21.50
   8  -2   2  128.89   13.30
  -8   2  -2  102.49   14.70
   8   2   2  106.19   18.50
   8   2   2  114.19   16.10
   9  -2   2  103.79   28.90
  -9  -2  -2   75.09   20.80
   9  -2   2   87.99   14.40
   9  -2   2   70.39   18.70
   9   2   2  110.99   17.50
   9   2   2   92.59   18.20
  -9   2  -2   87.89   15.40
  10  -2   2   37.50   24.50
 -10  -2  -2   96.59   24.30
  10  -2   2   53.39   17.40
  10  -3  -2  167.88   30.20
  10  -3  -2  187.28   24.80
 -10  -3   2  208.88   35.40
 -10   3   2  220.48   24.30
  -9  -3   2  168.58   28.10
  -9  -3   2  174.58   31.00
   9  -3  -2  177.08   18.80
   9  -3  -2  200.08   31.00
   9  -3  -2  192.48   25.80
   9   3  -2  152.38   32.00
  -8  -3   2  381.56   36.50
   8  -3  -2  440.46   32.50
   8  -3  -2  412.56   24.60
   8  -3  -2  384.66   28.60
  -8   3   2  350.16   28.20
   8   3  -2  420.96   29.10
   8   3  -2  262.77   67.19
   8   3  -2  408.06   40.20
   7  -3  -2  918.31   35.90
  -7  -3   2  798.82   49.40
   7  -3  -2  736.33   38.80
   7  -3  -2  800.32   41.10
   7   3  -2  784.22   63.69
   7   3  -2  843.82   54.99
  -7   3   2  843.32   36.10
   6  -3  -2  794.92   31.50
  -6  -3   2  786.82   46.10
  -6  -3   2  682.83   50.49
   6  -3  -2  795.62   36.70
   6   3  -2  845.02   60.49
   6   3  -2  830.32   50.99
  -6   3   2  798.72   32.90
  -6   3   2  800.32   42.20
  -5  -3   2 1897.81   74.79
   5  -3  -2 1847.32   60.79
  -5  -3   2 1918.91   62.69
   5  -3  -2 1827.72   58.39
  -5  -3   2 1991.60   89.39
   5  -3  -2 1856.01   55.69
  -5   3   2 1855.31   60.19
   5   3  -2 1743.93   88.89
  -5   3   2 1862.31   68.09
   5   3  -2 1852.11   62.49
   5   3  -2 1904.71   79.09
  -4  -3   2 2735.03  106.39
   4  -3  -2 2629.34   71.89
  -4  -3   2 2592.44   78.49
   4  -3  -2 2730.03   70.69
   4  -3  -2 2748.12   72.29
  -4  -3   2 2489.65   89.29
   4  -3  -2 2539.55   75.99
  -4   3   2 2678.73   83.99
   4   3  -2 2746.03  110.29
   4   3  -2 2730.33   78.99
   4   3  -2 2597.74   93.49
  -4   3   2 2568.24   73.09
  -3  -3   2 2475.55   82.89
   3  -3  -2 2518.45   67.59
   3  -3  -2 2523.35   70.79
  -3  -3   2 2588.94   72.99
   3   3  -2 2567.04   85.99
  -3   3   2 2452.05   76.99
  -3   3   2 2467.85   68.79
   3   3  -2 2514.35   72.39
   2  -3  -2 1646.34   44.80
  -2  -3   2 1438.36   67.89
   2  -3  -2 1603.54   48.00
  -2  -3   2 1721.63   49.10
  -2  -3   2 1510.35   55.59
   2  -3  -2 1591.24   45.70
  -2   3   2 1566.44   39.40
  -2   3   2 1650.33   39.80
   2   3  -2 1626.14   48.10
   2   3  -2 1527.95   70.89
   2   3  -2 1574.94   57.79
  -2   3   2 1598.64   52.09
  -2   3   2 1582.24   47.10
  -1  -3   2 5135.09  136.39
  -1  -3   2 5347.77  156.98
   1  -3  -2 5208.98  133.69
   1  -3  -2 5241.68  131.99
   1  -3  -2 5051.09  128.99
  -1   3   2 5027.40  131.39
   1   3  -2 5217.98  127.29
  -1   3   2 4934.81  124.79
  -1   3   2 5155.48  136.79
  -1   3   2 5164.88  125.89
   1   3  -2 5182.08  127.79
   1   3  -2 5130.99  158.68
   0  -3  -2 4633.94  119.99
   0  -3  -2 4568.74  117.29
   0  -3   2 4782.52  141.69
   0  -3   2 4500.45  112.09
   0  -3   2 4430.86  117.19
   0  -3  -2 4565.04  126.59
   0   3   2 4587.04  113.99
   0   3   2 4571.24  115.29
   0   3  -2 4378.96  138.19
   0   3  -2 4284.67  117.99
   0   3   2 4612.94  130.29
   0   3   2 4829.32  120.99
  -1  -3  -2 3750.32  105.79
   1  -3   2 3864.21  120.89
   1  -3   2 3841.32   92.19
   1  -3   2 3728.33   91.89
   1  -3   2 3831.32  101.89
  -1  -3  -2 3845.22  102.39
   1  -3   2 3793.02   93.99
   1  -3   2 3833.32   94.79
  -1  -3  -2 3842.12  115.69
   1   3   2 3730.03  101.29
  -1   3  -2 3954.50  118.89
   1   3   2 4039.70  119.79
   1   3   2 3862.51   99.69
   1   3   2 3866.11  106.89
   2  -3   2 2171.68   77.89
  -2  -3  -2 2129.09   67.39
   2  -3   2 2147.79   64.29
  -2  -3  -2 1916.11   71.79
   2   3   2 2092.99   60.59
   2   3   2 2026.70   62.09
   2   3   2 1957.20   79.49
  -3  -3  -2 2163.28   71.69
   3  -3   2 2127.79   79.29
   3  -3   2 2110.39   67.99
  -3  -3  -2 2051.59   76.69
   3   3   2 2160.68   63.99
   3   3   2 1996.90   85.89
   3   3   2 2098.19   65.79
   4  -3   2 2206.38   55.49
  -4  -3  -2 2159.48   82.69
  -4  -3  -2 2312.17   78.29
   4  -3   2 2105.49   72.89
   4   3   2 2269.67   96.79
   4   3   2 2238.78   68.79
   4   3   2 2185.88   71.09
  -5  -3  -2  635.54   40.80
   5  -3   2  661.73   35.10
  -5  -3  -2  670.63   38.00
   5  -3   2  668.63   22.30
   5   3   2  676.53   51.59
   5   3   2  660.33   31.30
   5   3   2  622.34   32.40
  -6  -3  -2  963.80   49.80
  -6  -3  -2  833.72   51.49
   6  -3   2  956.30   32.60
  -6   3  -2  988.50   29.20
   6   3   2 1021.50   39.00
   6   3   2  954.90   44.20
  -6   3  -2  959.50   29.60
  -7  -3  -2  659.13   42.90
   7  -3   2  720.13   28.90
  -7  -3  -2  703.13   47.40
   7   3   2  666.33   36.20
   7   3   2  667.93   38.00
   7   3   2  698.13   32.30
   7   3   2  715.63   60.89
  -7   3  -2  698.13   25.40
  -8  -3  -2  183.88   28.50
  -8  -3  -2  214.38   37.30
   8  -3   2  165.18   27.10
   8  -3   2  250.37   24.70
   8  -3   2  192.78   15.80
  -8   3  -2  186.38   13.40
   8   3   2  139.69   35.20
   8   3   2  186.48   21.30
  -8   3  -2  192.58   14.60
   8   3   2  139.39   20.10
  -9  -3  -2  109.69   24.90
   9  -3   2   71.49   23.80
   9  -3   2  100.99   14.60
   9   3   2   80.19   16.50
  -9   3  -2   92.19   11.90
  10  -3   2  144.99   35.50
 -10  -3  -2  109.39   29.20
  10  -3   2  107.89   19.00
  10   3   2  117.29   19.90
 -10   3  -2  162.38   18.20
  10  -4  -2   66.69   19.10
 -10  -4   2   22.20   22.00
 -10   4   2   42.30   13.50
   9  -4  -2   20.60   11.30
   9  -4  -2   11.80   10.10
   9  -4  -2   10.70    9.40
  -9  -4   2   14.50   15.40
   9  -4  -2   19.50   11.40
  -9   4   2   23.20    8.70
  -8  -4   2   64.79   18.00
   8  -4  -2   32.50   10.50
  -8  -4   2    2.60   12.80
   8  -4  -2   49.60   11.60
   8  -4  -2   46.00    9.70
  -8   4   2   39.70    8.30
   8   4  -2   21.70   19.10
   8   4  -2   42.10   20.10
   7  -4  -2   28.90    8.10
   7  -4  -2   25.40    7.20
   7  -4  -2   31.10    8.60
  -7  -4   2   41.40   13.80
   7  -4  -2   41.80    8.20
   7   4  -2   20.60   15.50
  -7   4   2   19.60    9.70
   7   4  -2   49.10   23.40
  -7   4   2   31.00    7.50
   7   4  -2   37.70   10.40
   6  -4  -2    3.80    3.70
   6  -4  -2   -1.60    3.10
  -6  -4   2    4.80    4.60
   6  -4  -2   -6.70    3.70
  -6  -4   2    4.30    9.80
  -6  -4   2    4.50    8.20
   6  -4  -2   -0.40    3.00
   6   4  -2    7.80    6.30
   6   4  -2    1.30    6.70
  -6   4   2   -1.00    3.60
  -6   4   2   -2.30    2.90
   5  -4  -2   55.59    7.70
  -5  -4   2  103.79   18.70
  -5  -4   2   94.19   33.50
   5  -4  -2   65.69    8.10
  -5   4   2   51.99   11.90
   5   4  -2   56.39   10.20
   5   4  -2   71.89   19.00
  -5   4   2   65.09    7.00
  -4  -4   2  100.79   18.30
  -4  -4   2   88.59   21.60
   4  -4  -2   91.69    8.20
   4  -4  -2   91.49    9.10
  -4  -4   2   98.19   10.80
   4   4  -2   99.09   10.50
   4   4  -2   71.99   15.50
  -4   4   2   92.69    7.80
   4   4  -2  101.39   26.20
  -4   4   2   86.39   13.90
   3  -4  -2   26.20    4.80
   3  -4  -2   15.10    4.10
  -3  -4   2   21.70    6.00
  -3  -4   2   15.60    8.50
   3  -4  -2   28.70    5.90
  -3  -4   2   15.20    7.10
   3   4  -2   12.50    7.70
   3   4  -2   22.70    5.60
  -3   4   2   36.80    5.90
   3   4  -2   29.20    6.30
   3   4  -2   34.20   15.00
  -3   4   2   21.70    6.80
  -2  -4   2   41.00    6.90
   2  -4  -2   57.69    7.00
  -2  -4   2   57.29   16.40
  -2  -4   2   75.79   13.00
   2  -4  -2   59.59    6.50
   2  -4  -2   67.19   10.10
  -2   4   2   45.50    7.20
   2   4  -2   41.90   11.00
   2   4  -2   52.69    7.70
   2   4  -2   77.19   13.50
  -2   4   2   49.60    9.00
   2   4  -2   56.59    8.10
  -1  -4   2   -3.40    3.50
  -1  -4   2   -3.40    2.20
  -1  -4   2    2.60    1.90
   1  -4  -2   -0.70    2.30
   1  -4  -2   -0.50    1.60
   1  -4  -2   -0.30    1.80
  -1   4   2    1.20    1.20
   1   4  -2   -0.20    1.30
  -1   4   2   -0.10    2.00
   1   4  -2   -2.60    4.00
  -1   4   2   -1.30    1.90
  -1   4   2    0.40    1.10
   1   4  -2   -2.10    1.40
   1   4  -2    2.30    2.90
   0  -4   2  102.39    9.80
   0  -4  -2  131.19   14.50
   0  -4  -2  110.19    9.70
   0  -4  -2  106.49   10.50
   0  -4   2   89.59   18.10
   0  -4   2  118.99    9.50
   0   4  -2  136.79   18.20
   0   4   2  145.89   16.50
   0   4   2  136.89    8.60
   0   4   2  116.49    8.80
   0   4   2  125.29   11.40
  -1  -4  -2   26.80    6.90
  -1  -4  -2   21.30    7.90
   1  -4   2   27.30    3.80
   1  -4   2   32.80    5.00
  -1  -4  -2   29.00    6.30
   1  -4   2   31.20    6.70
   1  -4   2   25.00    9.00
   1  -4   2   28.20    5.60
  -1  -4  -2   36.60   11.00
   1  -4   2   25.30    4.20
   1   4   2   27.20    6.00
   1   4   2   61.09   15.00
  -1   4  -2   31.10   11.50
   1   4   2   30.30    5.60
   2  -4   2   12.10    2.00
  -2  -4  -2   14.60    7.70
  -2  -4  -2    2.80    5.90
   2  -4   2   28.30   10.10
   2  -4   2   13.80    1.90
   2  -4   2    5.90    3.30
  -2  -4  -2   14.30    5.90
   2   4   2    2.80    5.90
   2   4   2   13.80    4.70
   2   4   2   15.30    3.90
   3  -4   2   10.70    3.90
  -3  -4  -2   20.20    8.20
  -3  -4  -2   15.50    6.50
   3  -4   2   22.10   10.00
   3   4   2    8.40    4.50
   3   4   2   15.60    5.10
   3   4   2   33.40   13.20
  -4  -4  -2  157.78   18.00
   4  -4   2  172.48   16.50
   4  -4   2  175.58   21.00
  -4  -4  -2  162.78   24.30
   4  -4   2  169.38    6.30
   4   4   2  140.09   14.20
   4   4   2  111.69   23.30
   4   4   2  189.48   14.90
   5  -4   2  461.55   29.80
   5  -4   2  488.45   18.30
  -5  -4  -2  448.16   32.20
   5  -4   2  467.75   36.80
  -5  -4  -2  454.45   36.40
   5   4   2  437.06   53.39
   5   4   2  470.05   30.20
   5   4   2  467.45   28.50
   6  -4   2    5.50    7.00
  -6  -4  -2   -0.90    5.60
   6  -4   2    2.70    4.20
  -6  -4  -2    3.40    8.80
   6  -4   2    2.70    2.60
   6   4   2   -2.00    4.40
   6   4   2   10.80    5.80
   6   4   2  -15.20    8.90
  -7  -4  -2   78.69   20.20
   7  -4   2   97.29   21.40
   7  -4   2   57.09   15.60
  -7  -4  -2  110.79   22.10
   7  -4   2   98.09    9.50
   7   4   2   76.49   15.60
   7   4   2  108.49   16.90
   7   4   2  129.89   35.90
   7   4   2   68.29   10.50
   8  -4   2   80.39   20.60
   8  -4   2   64.09   11.70
   8  -4   2   62.39   19.10
  -8  -4  -2   74.19   19.80
   8   4   2   64.79   11.20
   8   4   2   45.60   13.80
   9  -4   2   22.10    9.70
   9  -4   2   34.80   21.10
   9  -4   2   20.50   17.80
  -9  -4  -2   31.90   18.70
   9   4   2   37.80   10.90
 -10  -4  -2   54.09   29.60
  10  -4   2   71.49   29.90
 -10  -5   2   42.00   28.60
  -9  -5   2   20.30   19.90
   9  -5  -2   63.49   14.50
  -8  -5   2  113.79   29.20
   8  -5  -2  156.78   16.30
  -8  -5   2  137.59   26.20
   8  -5  -2  160.28   15.30
   8   5  -2  118.79   19.30
   7  -5  -2  342.77   19.90
   7  -5  -2  319.67   20.30
  -7  -5   2  366.26   38.20
  -7  -5   2  362.36   34.10
   7   5  -2  360.66   28.60
   7   5  -2  342.27   62.89
   7   5  -2  312.47   27.00
   6  -5  -2  352.26   19.40
  -6  -5   2  309.67   29.60
  -6  -5   2  343.57   40.00
  -6  -5   2  382.16   34.50
   6  -5  -2  344.77   19.60
   6   5  -2  375.36   26.40
   6   5  -2  483.35   82.69
   6   5  -2  398.26   27.70
  -6   5   2  411.16   32.00
  -5  -5   2  591.94   38.70
  -5  -5   2  552.84   50.29
   5  -5  -2  574.84   25.40
   5  -5  -2  578.34   25.30
  -5  -5   2  615.24   42.10
  -5  -5   2  572.94   31.90
   5   5  -2  653.93   34.10
   5   5  -2  628.84   46.20
   5   5  -2  577.14   56.69
  -5   5   2  618.04   37.70
  -5   5   2  611.24   20.70
   4  -5  -2 1173.48   39.40
   4  -5  -2 1180.58   40.10
  -4  -5   2 1196.48   58.39
  -4  -5   2 1195.98   72.19
  -4  -5   2 1162.18   54.99
  -4  -5   2 1136.99   46.80
   4   5  -2 1112.99   75.39
   4   5  -2 1188.58   45.30
  -4   5   2 1169.48   36.20
   4   5  -2 1145.09   61.29
  -4   5   2 1117.49   50.89
   4   5  -2 1157.78   46.70
  -3  -5   2  684.43   44.70
   3  -5  -2  637.84   26.00
  -3  -5   2  631.14   29.70
   3  -5  -2  601.34   26.10
  -3  -5   2  632.64   49.20
  -3  -5   2  615.94   35.10
   3  -5  -2  587.44   25.10
   3   5  -2  587.54   50.09
   3   5  -2  650.13   29.40
   3   5  -2  627.84   27.90
  -3   5   2  633.44   25.10
  -3   5   2  633.24   33.50
   2  -5  -2  796.42   32.40
  -2  -5   2  768.12   53.39
  -2  -5   2  823.02   41.20
  -2  -5   2  880.21   39.40
   2  -5  -2  887.61   37.00
   2  -5  -2  837.82   31.90
  -2  -5   2  828.62   33.60
   2   5  -2  856.51   31.90
  -2   5   2  787.62   36.80
   2   5  -2  822.72   57.89
  -2   5   2  770.82   36.30
  -2   5   2  849.91   36.50
   2   5  -2  822.82   30.60
  -1  -5   2 1497.75   48.90
   1  -5  -2 1625.84   51.09
  -1  -5   2 1457.75   74.99
   1  -5  -2 1629.64   60.89
  -1  -5   2 1512.05   56.99
  -1  -5   2 1526.25   54.49
   1  -5  -2 1577.74   52.69
   1   5  -2 1468.55   76.19
  -1   5   2 1476.45   39.70
  -1   5   2 1555.74   63.49
   1   5  -2 1537.45   43.60
  -1   5   2 1555.74   53.99
   1   5  -2 1505.65   44.00
  -1   5   2 1569.74   40.20
   0  -5   2 1524.65   52.89
   0  -5   2 1505.95   50.19
   0  -5  -2 1531.65   61.09
   0  -5  -2 1586.04   64.99
   0  -5   2 1470.55   46.40
   0  -5  -2 1544.95   51.79
   0  -5  -2 1539.65   54.19
   0  -5   2 1593.14   74.59
   0   5   2 1587.34   69.79
   0   5   2 1581.34   46.60
   0   5   2 1488.95   44.80
   0   5  -2 1500.95   73.89
   0   5   2 1510.55   51.39
   1  -5   2 1199.58   44.50
  -1  -5  -2 1349.07   58.09
  -1  -5  -2 1332.97   51.09
  -1  -5  -2 1298.97   47.20
  -1  -5  -2 1345.27   62.39
   1  -5   2 1311.87   40.30
   1  -5   2 1160.68   62.99
   1  -5   2 1288.57   39.80
   1   5   2 1326.87   42.50
   1   5   2 1321.57   44.20
  -1   5  -2 1197.28   62.09
   1   5   2 1382.76   68.29
   2  -5   2  769.52   23.20
   2  -5   2  710.73   20.60
  -2  -5  -2  759.42   43.40
  -2  -5  -2  741.03   47.50
   2  -5   2  687.73   45.50
   2  -5   2  754.62   20.40
   2  -5   2  739.73   24.00
  -2  -5  -2  669.13   36.20
   2  -5   2  721.13   33.10
   2   5   2  762.92   32.90
   2   5   2  731.43   50.49
   2   5   2  774.12   31.00
   3  -5   2  986.40   55.69
  -3  -5  -2  924.11   51.59
  -3  -5  -2 1000.70   47.70
   3  -5   2 1036.90   28.00
   3   5   2  992.60   39.70
   3   5   2  999.40   64.39
   3   5   2  948.31   41.10
  -4  -5  -2  487.85   33.50
   4  -5   2  484.95   15.20
   4  -5   2  595.94   40.90
  -4  -5  -2  483.65   37.40
   4  -5   2  516.65   30.70
   4   5   2  407.26   43.90
   4   5   2  487.95   27.20
   5  -5   2  338.87   26.30
  -5  -5  -2  310.47   31.90
   5  -5   2  324.97   12.20
  -5  -5  -2  282.57   32.00
   5  -5   2  256.37   28.10
   5   5   2  275.17   21.70
   5   5   2  339.67   43.50
   5   5   2  316.97   24.00
  -6  -5  -2  458.05   36.20
   6  -5   2  444.26   38.40
   6  -5   2  462.75   18.10
  -6  -5  -2  511.85   42.70
   6  -5   2  461.55   35.80
   6   5   2  530.95   48.30
   6   5   2  443.96   21.00
   6   5   2  459.05   53.29
   6   5   2  462.45   31.50
  -7  -5  -2  252.47   38.60
  -7  -5  -2  251.67   29.70
   7  -5   2  219.08   34.70
   7  -5   2  247.88   14.30
   7   5   2  257.67   15.30
  -8  -5  -2   92.19   29.10
  -8  -5  -2  112.39   23.60
   8  -5   2   76.99   11.60
   8  -5   2   56.19   19.90
   8  -5   2   77.49   22.80
   8   5   2   81.79   10.70
  -9  -5  -2   28.70   23.50
   9  -5   2    1.60   21.10
  -8  -6   2   26.30   19.70
   8  -6  -2    6.80    7.90
  -8  -6   2    7.60   15.30
  -7  -6   2   11.10   12.50
   7  -6  -2   37.00    8.30
  -7  -6   2   39.20   22.70
   7   6  -2   10.50    9.70
   6  -6  -2    2.40    5.70
  -6  -6   2    8.40   11.40
   6  -6  -2    5.20    2.60
  -6  -6   2   14.20   18.90
  -6  -6   2   -8.20   13.20
   6   6  -2   10.00    8.40
   6   6  -2   -3.90    8.70
  -5  -6   2   -6.50    6.20
  -5  -6   2   -7.00    9.80
   5  -6  -2    3.30    4.70
  -5  -6   2   12.40    9.90
   5  -6  -2   12.40    4.30
  -5   6   2    2.30    6.10
   5   6  -2   24.10   18.70
   5   6  -2   10.80    7.10
   5   6  -2   10.90    7.10
   4  -6  -2   -0.50    3.50
   4  -6  -2   -2.00    3.60
  -4  -6   2    4.20    7.90
  -4  -6   2   -4.00    4.00
  -4  -6   2   -0.30    8.40
  -4  -6   2    8.40    7.50
  -4   6   2    8.40    5.10
   4   6  -2    2.20    4.40
   4   6  -2    0.20    4.80
   4   6  -2    9.00   16.40
   3  -6  -2   24.40    5.90
   3  -6  -2    9.60    5.50
   3  -6  -2   14.10    6.00
   3  -6  -2   10.40    5.10
  -3  -6   2   30.30    8.00
  -3  -6   2   13.20    7.70
  -3  -6   2    6.30    6.30
  -3  -6   2   29.50   13.40
  -3   6   2   11.10    5.90
   3   6  -2   14.20    5.40
   3   6  -2   17.90    5.90
   2  -6  -2    3.90    3.50
  -2  -6   2    3.10    4.40
   2  -6  -2    1.30    3.20
  -2  -6   2   -4.20    5.50
  -2  -6   2    5.00    9.90
   2  -6  -2   -1.30    4.80
   2  -6  -2    7.80    5.40
  -2  -6   2    1.40    3.70
   2   6  -2    0.80    2.80
   2   6  -2   -4.40    8.20
   2   6  -2    4.00    2.90
  -2   6   2    1.30    3.40
  -2   6   2    1.10    5.40
  -1  -6   2   76.59   12.50
  -1  -6   2   77.79   13.80
   1  -6  -2  125.79   20.30
  -1  -6   2  103.99   25.40
  -1  -6   2   81.29   11.40
   1  -6  -2   88.09   15.40
   1  -6  -2  113.99   12.40
   1  -6  -2  109.19   11.60
   1   6  -2   70.39   20.10
  -1   6   2   87.19   13.00
   1   6  -2   92.19    5.30
  -1   6   2   93.89   18.30
   1   6  -2   95.09    5.70
   0  -6   2   25.30    5.70
   0  -6  -2   46.00    9.30
   0  -6   2   32.90    8.10
   0  -6   2   15.10   11.00
   0  -6  -2   30.40    9.60
   0  -6   2   17.00    5.70
   0  -6  -2   28.30   11.10
   0  -6  -2   25.20    7.80
   0   6   2   25.40    4.50
   0   6   2   25.40    6.10
   0   6  -2   21.40   11.10
   0   6   2   22.80   10.50
   1  -6   2   19.50   11.60
  -1  -6  -2   15.50    8.00
   1  -6   2   17.00    4.30
  -1  -6  -2   13.30    9.20
  -1  -6  -2   15.50    6.90
   1  -6   2   12.20    4.70
   1  -6   2   10.00    3.90
   1   6   2   15.10    5.40
   1   6   2   21.00   12.50
  -1   6  -2   29.10   13.30
   1   6   2   21.60    6.00
   1   6   2   15.50    4.50
  -2  -6  -2  126.19   21.90
   2  -6   2  111.89   22.90
  -2  -6  -2  138.79   27.80
  -2  -6  -2  112.79   17.40
   2  -6   2   77.69    5.50
   2  -6   2   82.99    5.70
   2   6   2   41.60   16.20
   2   6   2   77.79    9.10
   2   6   2   77.69   10.90
   2   6   2   79.69   12.00
  -3  -6  -2   11.90    6.80
   3  -6   2   14.10   11.00
   3  -6   2    8.10    3.00
  -3  -6  -2    6.20    8.80
   3   6   2    7.40    3.40
   3   6   2    9.60    5.10
   3   6   2   15.40    5.20
  -4  -6  -2   37.30   15.10
  -4  -6  -2   42.90   11.70
   4  -6   2   13.00   11.80
   4   6   2   41.10   22.40
   4   6   2   25.50    8.00
  -5  -6  -2   41.80   13.60
   5  -6   2   25.40   11.30
  -5  -6  -2   30.40   14.10
   5   6   2   35.70   10.50
   5   6   2   21.40   17.90
   5   6   2   19.60    8.80
  -6  -6  -2   86.29   22.80
   6  -6   2   77.79   20.40
   6  -6   2   68.19    7.70
  -6  -6  -2   76.99   19.40
   6   6   2   51.59   13.30
   6   6   2   59.49   14.10
   6   6   2   79.09    6.20
  -7  -6  -2   12.90   13.20
  -7  -6  -2    4.00   17.50
   7  -6   2   15.60    5.30
   7  -6   2   18.70   14.80
   7   6   2   17.30   10.40
   8  -6   2   26.60   17.70
  -8  -6  -2   50.09   23.00
  -7  -7   2   45.50   27.70
   7  -7  -2   82.69   13.60
  -6  -7   2   85.89   25.20
  -6  -7   2  139.29   25.80
   6  -7  -2  106.09   14.30
   6   7  -2   94.49   16.90
   6   7  -2   84.89   17.00
   5  -7  -2  157.78   14.40
  -5  -7   2  115.79   24.70
  -5  -7   2  115.29   37.90
  -5  -7   2  158.28   37.70
   5   7  -2  146.59   19.00
  -5   7   2  155.48   26.70
   5   7  -2  157.68   18.40
  -4  -7   2  112.19   29.20
  -4  -7   2  189.58   29.60
   4  -7  -2  165.68   12.20
  -4  -7   2  191.28   27.10
   4  -7  -2  162.48   14.50
   4  -7  -2  183.28   13.80
  -4   7   2  145.49   21.40
   4   7  -2  164.68   16.90
   4   7  -2  138.09   16.90
   4   7  -2  196.18   46.50
   3  -7  -2  238.58   19.30
  -3  -7   2  259.17   44.50
  -3  -7   2  274.97   25.50
  -3  -7   2  278.87   28.60
   3  -7  -2  227.18   17.80
   3  -7  -2  275.97   17.90
  -3   7   2  295.27   25.20
   3   7  -2  260.27   18.60
   3   7  -2  354.66   46.30
   3   7  -2  259.87   17.40
   2  -7  -2  295.97   21.20
  -2  -7   2  315.17   25.60
  -2  -7   2  338.97   29.00
   2  -7  -2  341.97   25.10
  -2  -7   2  366.66   41.10
   2  -7  -2  343.27   26.40
   2  -7  -2  355.46   23.30
   2   7  -2  379.76   16.80
   2   7  -2  356.86   16.90
   2   7  -2  352.26   44.70
  -2   7   2  370.26   27.00
   1  -7  -2  315.07   28.10
  -1  -7   2  354.16   24.30
   1  -7  -2  324.07   22.00
  -1  -7   2  306.27   25.10
   1  -7  -2  317.77   25.90
   1  -7  -2  304.07   22.40
  -1  -7   2  293.67   36.90
  -1   7   2  321.07   30.10
   0  -7  -2  195.28   19.10
   0  -7   2  234.68   24.30
   0  -7   2  261.97   18.80
   0  -7  -2  249.18   24.20
   0  -7  -2  202.28   25.40
   0   7   2  207.98   27.30
   0   7   2  232.58   18.60
   0   7   2  220.48    9.10
   0   7  -2  235.18   29.50
   1  -7   2  168.48   13.40
  -1  -7  -2  224.98   25.10
   1  -7   2  213.78   16.00
  -1  -7  -2  201.28   25.70
  -1  -7  -2  211.58   20.40
   1  -7   2  217.68   29.00
   1   7   2  178.98   30.60
   1   7   2  229.58   17.30
  -1   7  -2  176.58   31.10
   1   7   2  219.38   14.40
   1   7   2  171.18   12.60
  -2  -7  -2  357.96   28.80
   2  -7   2  412.16   14.00
   2  -7   2  395.46   14.10
   2  -7   2  318.77   34.00
   2   7   2  379.76   23.00
   2   7   2  427.66   22.20
   2   7   2  366.46   23.30
   3  -7   2  205.58   32.80
  -3  -7  -2  211.48   23.80
  -3  -7  -2  121.69   25.30
   3   7   2  239.08   49.80
   3   7   2  185.98   17.40
   3   7   2  190.48   13.20
   3   7   2  181.48   16.80
  -4  -7  -2  200.08   30.10
   4  -7   2  133.29   26.00
  -4  -7  -2  130.29   27.40
   4   7   2  129.39   14.00
   4   7   2  157.88   18.40
   4   7   2  167.68   17.90
   4   7   2  115.29   28.70
   5  -7   2  106.09    8.00
   5  -7   2  134.29   25.10
   5   7   2  119.29   18.70
   5   7   2  105.99   18.10
  -6  -7  -2   48.80   19.90
   6  -7   2   61.59   22.10
  -6  -7  -2   81.39   24.80
   6  -7   2   69.09    6.90
   6   7   2   81.39   18.20
   7  -7   2   39.20   21.70
  -7  -7  -2   25.40   29.10
   6   8  -2  -28.00   12.80
  -5  -8   2   -7.90   16.90
   5  -8  -2  -17.40    7.60
   5   8  -2   -3.80   10.20
  -4  -8   2    2.40   17.10
   4  -8  -2   15.90    7.60
  -4  -8   2   17.10   15.40
   4  -8  -2    2.70    3.60
   4  -8  -2   -3.40    3.30
   4   8  -2   -7.70    8.10
   4   8  -2   -5.10    7.70
  -4   8   2    1.60    9.10
  -3  -8   2  -15.20   13.40
  -3  -8   2    5.20    8.80
   3  -8  -2   -4.80    8.80
  -3  -8   2   -9.40   11.40
   3  -8  -2    5.30    6.60
   3   8  -2    2.90    5.50
   3   8  -2    3.20    5.40
  -3   8   2    5.60    7.90
  -2  -8   2   -8.80   11.80
   2  -8  -2    3.50    7.20
  -2  -8   2   -5.60    9.60
   2  -8  -2   -5.10    7.80
  -2  -8   2    8.90    7.70
   2   8  -2    5.50   15.10
  -2   8   2   -6.30    6.60
   1  -8  -2   -4.50   15.50
  -1  -8   2   10.60    9.50
  -1  -8   2  -12.40   10.00
  -1  -8   2    4.70    7.30
   1   8  -2   -3.40   12.70
  -1   8   2   -2.30    6.20
   0  -8   2   15.10    6.90
   0  -8   2    3.00    7.20
   0  -8   2   15.90   13.30
   0  -8  -2    1.70    7.10
   0  -8  -2   -1.60    9.90
   0   8   2   14.10    6.60
   0   8   2  -12.70   11.20
   0   8  -2  -10.70   12.60
  -1  -8  -2    2.30    7.70
   1  -8   2  -12.30    5.60
  -1  -8  -2  -20.90    9.80
   1  -8   2    6.10    5.30
   1  -8   2  -15.80   10.80
   1   8   2    1.90    3.70
   1   8   2   -5.30   13.60
   1   8   2    5.50    5.80
   2  -8   2   46.60   18.60
  -2  -8  -2   70.59   18.80
  -2  -8  -2   55.69   14.90
   2   8   2   67.39   10.40
   2   8   2   42.70    9.50
   2   8   2   51.09   10.10
   2   8   2   41.20   20.70
  -3  -8  -2   11.50   14.50
   3  -8   2    6.50   13.30
  -3  -8  -2   -8.10    8.20
   3   8   2   18.60   20.70
   3   8   2    2.70    7.90
   3   8   2    7.70    5.70
   4  -8   2    8.90   13.20
  -4  -8  -2   26.00   16.60
   4   8   2   -1.30    9.00
  -5  -8  -2  -32.90   21.10
   5  -8   2  -14.50   15.80
   5   8   2   18.40   12.40
   3  -9  -2   40.80    9.20
  -2  -9   2   89.99   21.60
  -2  -9   2   66.89   25.10
   2  -9  -2   89.89   17.50
  -2   9   2   95.99   19.50
   1  -9  -2    1.70   14.50
  -1  -9   2   49.70   16.00
  -1   9   2    4.30   11.30
  -1   9   2    1.30   17.60
   0  -9   2   50.79   26.00
   0  -9   2   43.60   12.70
   0   9   2   36.40   24.70
   0   9  -2   31.90   22.80
   0   9   2   46.50   13.00
   1  -9   2   44.50   10.80
   1  -9   2   43.70   23.20
   1  -9   2   26.80    8.80
  -1  -9  -2   55.29   19.90
   1   9   2   57.79   14.10
   1   9   2   51.69   29.30
   2  -9   2   32.30   21.40
   2   9   2   29.40    9.20
   3  -9   2    3.20   20.00
   4   9   2   29.20   14.50
   5   9   2    9.90   23.20
  10   0  -3  -21.00   12.40
  10   0  -3   -9.40   19.10
  -9   0   3   -6.40    9.60
   9   0  -3   -7.80   10.40
   9   0  -3   -1.60    7.20
   9   0  -3   -6.90    9.00
  -8   0   3   -5.30    6.70
   8   0  -3    9.80    5.60
   8   0  -3   -4.00    6.80
   8   0  -3    5.80    8.70
   7   0  -3   -4.60    5.00
  -7   0   3    0.20    2.90
  -7   0   3   -2.00    5.90
   7   0  -3   -4.10    3.50
   7   0  -3    0.50    5.90
   6   0  -3    1.50    3.10
  -6   0   3   -0.80    2.40
   6   0  -3    9.50    6.60
  -6   0   3   -9.90    7.50
  -6   0   3   -0.30    2.00
   6   0  -3   -3.10    3.80
   5   0  -3   -2.90    2.70
  -5   0   3    3.40    3.40
   5   0  -3   -3.10    2.90
   5   0  -3    6.30    2.70
  -4   0   3    0.70    1.40
   4   0  -3   -1.20    1.50
   4   0  -3   -1.00    3.20
  -4   0   3    0.30    1.40
  -4   0   3   -1.10    2.50
   4   0  -3    1.00    3.20
  -4   0   3    0.60    2.20
   3   0  -3    1.30    2.50
   3   0  -3   -0.10    1.20
  -3   0   3    4.30    2.80
  -3   0   3    0.00    1.10
  -3   0   3    3.40    2.50
   3   0  -3    3.00    2.60
  -3   0   3    0.50    1.30
  -2   0   3   -1.00    1.50
   2   0  -3   -0.70    1.80
  -2   0   3   -2.30    0.80
  -2   0   3   -0.20    2.00
   2   0  -3   -3.10    1.30
   2   0  -3   -0.20    1.10
   1   0  -3   -1.00    1.00
  -1   0   3    0.30    1.00
  -1   0   3    0.00    0.90
  -1   0   3    6.30    3.50
   1   0  -3    0.00    1.30
   1   0  -3   -0.50    0.70
   0   0  -3    1.10    1.10
   0   0   3    0.00    0.80
   0   0   3    0.50    1.10
   0   0  -3    0.70    1.20
   1   0   3    0.90    1.00
   1   0   3    0.70    1.00
  -1   0  -3   -0.80    0.80
   2   0   3    1.10    1.20
   2   0   3    2.70    1.90
  -2   0  -3   -0.30    1.20
  -3   0  -3    2.20    2.80
  -3   0  -3    0.90    1.70
  -4   0  -3   -2.30    1.70
  -4   0  -3   -6.40    2.20
  -5   0  -3   -3.00    3.70
  -5   0  -3    0.20    2.80
   5   0   3    2.90    2.10
   5   0   3   -2.60    2.00
   6   0   3    1.50    4.80
   6   0   3   -1.10    2.70
  -6   0  -3   -5.30    3.00
   6   0   3   -4.90    2.40
  -6   0  -3    0.40    4.10
   7   0   3    0.30    4.80
   7   0   3    1.80    6.70
   7   0   3   -4.40    3.50
  -7   0  -3    1.20    4.20
   8   0   3    9.90    6.50
   8   0   3    5.70    5.90
   8   0   3   -2.40    9.10
  -8   0  -3   -4.80    7.50
  -8   0  -3    0.90    6.60
   9   0   3    0.70    7.50
   9   0   3  -12.70   13.90
   9   0   3    1.10    7.50
 -10   0  -3   10.30   15.10
  11  -1  -3  -20.20   25.10
  10  -1  -3   39.30   20.20
  10   1  -3  -20.40   20.30
  10   1  -3    9.40   17.00
  -9  -1   3   15.10   13.70
   9  -1  -3   18.50   10.20
   9  -1  -3    3.80   12.40
   9  -1  -3    1.20    8.10
   9   1  -3    8.30   12.50
   9   1  -3   -6.00    7.50
   9   1  -3    9.70   14.00
  -9   1   3   23.30   10.90
   8  -1  -3   30.40   14.10
  -8  -1   3   26.30   13.00
   8  -1  -3   12.50    6.40
   8  -1  -3   19.80    9.60
   8   1  -3   28.80   16.70
   8   1  -3   28.80   11.80
   8   1  -3   36.90    9.40
  -8   1   3   20.00    9.00
  -7  -1   3   14.60    5.90
  -7  -1   3   10.60    7.70
   7  -1  -3    9.80    5.30
   7  -1  -3    7.90    8.10
   7  -1  -3   20.10    8.40
   7   1  -3   10.30   11.20
   7   1  -3   16.80    7.80
   7   1  -3   26.30    7.50
   6  -1  -3   88.89   15.20
  -6  -1   3   96.39   17.00
   6  -1  -3  109.19   11.00
   6  -1  -3  135.39   23.70
  -6  -1   3  100.59   10.40
  -6   1   3   95.79   15.00
  -6   1   3  131.09   13.80
   6   1  -3   85.09   16.30
  -6   1   3  110.19    9.30
   6   1  -3   82.19   19.00
   6   1  -3  111.79   11.90
   5  -1  -3   -0.40    3.40
  -5  -1   3    2.20    2.50
   5  -1  -3    1.10    4.20
  -5  -1   3    5.30    3.00
  -5  -1   3    6.10    5.60
   5  -1  -3   -1.00    2.10
  -5  -1   3    1.80    3.70
  -5   1   3    2.70    2.20
  -5   1   3   -0.60    3.30
  -5   1   3    2.40    3.00
   5   1  -3    7.40    6.80
   5   1  -3    3.90    2.90
   5   1  -3    4.40    3.70
  -4  -1   3   43.60    6.20
  -4  -1   3   43.60    7.30
   4  -1  -3   45.20    8.70
   4  -1  -3   58.09   11.10
  -4  -1   3   61.49   11.70
   4  -1  -3   38.20    6.30
  -4  -1   3   32.60    9.30
   4   1  -3   40.60    7.40
   4   1  -3   47.90   10.30
  -4   1   3   43.10    8.40
  -4   1   3   43.80    6.20
  -4   1   3   53.59    9.30
   4   1  -3   38.90   12.10
  -3  -1   3  149.29   10.20
   3  -1  -3  156.28   12.20
  -3  -1   3  146.49   13.10
   3  -1  -3  154.68    9.90
   3  -1  -3  145.99   11.50
  -3  -1   3  158.88    8.50
  -3  -1   3  177.78   17.70
  -3   1   3  146.79   11.50
   3   1  -3  157.48   10.50
   3   1  -3  176.98   18.40
  -3   1   3  148.39    9.00
  -3   1   3  146.49   10.90
  -3   1   3  158.68   10.80
   3   1  -3  150.78   13.70
  -2  -1   3  401.86   20.30
   2  -1  -3  374.06   18.30
   2  -1  -3  395.16   16.10
  -2  -1   3  393.96   25.70
  -2  -1   3  408.26   17.10
   2  -1  -3  422.06   16.50
  -2   1   3  421.46   18.80
   2   1  -3  454.55   28.00
   2   1  -3  410.26   20.80
   2   1  -3  414.66   17.00
  -2   1   3  385.66   16.20
  -2   1   3  386.36   15.70
  -1  -1   3 1474.35   40.70
  -1  -1   3 1383.86   54.59
   1  -1  -3 1380.26   43.10
   1  -1  -3 1482.65   41.20
  -1  -1   3 1477.45   44.10
   1   1  -3 1421.16   44.40
  -1   1   3 1451.85   43.50
   1   1  -3 1478.25   43.10
  -1   1   3 1404.06   40.60
   0  -1   3  558.24   19.70
   0  -1  -3  597.44   20.40
   0  -1   3  537.95   17.80
   0  -1  -3  543.15   21.50
   0  -1   3  571.44   28.90
   0   1   3  534.45   19.60
   0   1  -3  565.84   17.30
   0   1   3  586.54   21.70
   1  -1   3   29.90    3.50
  -1  -1  -3   27.10    5.10
  -1  -1  -3   33.20    4.90
   1  -1   3   31.90    2.90
  -1   1  -3   27.30    3.30
   1   1   3   39.10    6.10
   1   1   3   41.40    5.90
   2  -1   3   44.90    4.50
  -2  -1  -3   42.30    6.90
  -2   1  -3   28.10    4.10
   2   1   3   39.40    7.20
   2   1   3   46.10    6.70
  -3  -1  -3  134.19   11.80
  -3  -1  -3  147.49   14.40
  -3   1  -3  143.99    9.20
   3   1   3  129.59   10.20
  -3   1  -3  126.19   10.10
  -4  -1  -3   -3.60    2.60
  -4  -1  -3    4.40    3.40
   4  -1   3    2.20    2.10
   4   1   3    6.10    3.10
  -4   1  -3    2.90    3.10
   4   1   3    2.90    2.30
  -5  -1  -3  127.49   14.00
  -5  -1  -3  113.79   17.40
   5  -1   3   67.69   10.70
   5  -1   3   95.39    8.40
  -5   1  -3  106.29   10.40
   5   1   3  100.29   10.00
   5   1   3   87.29   20.40
  -5   1  -3   89.09   11.00
  -6  -1  -3   18.00    9.10
   6  -1   3   10.00    5.60
  -6  -1  -3   22.50    8.40
   6  -1   3   14.40    4.90
   6   1   3   12.40    5.20
  -6   1  -3   14.30    5.90
   6   1   3    6.30   10.30
   6   1   3   12.80    5.70
   7  -1   3   -6.30    6.30
  -7  -1  -3    2.60    8.30
  -7  -1  -3   -8.90    4.90
   7   1   3   -6.20    8.40
   7   1   3    4.20    4.20
   7   1   3   -5.00    3.80
  -7   1  -3    8.00    4.90
  -8  -1  -3   10.10    9.50
  -8  -1  -3    4.10    6.30
   8  -1   3   -3.70    8.20
   8  -1   3    6.80    7.00
   8  -1   3   -0.50    4.30
   8   1   3   -4.60    9.40
  -8   1  -3    1.50    5.70
   8   1   3    9.60   11.60
  -8   1  -3   -6.70    7.60
   9  -1   3    2.30   13.70
   9  -1   3    1.20    8.60
  -9  -1  -3   18.20   11.00
   9  -1   3   -2.30    8.00
   9   1   3    4.00    8.90
  -9   1  -3   18.10   15.70
   9   1   3   10.20    9.50
 -10  -1  -3   42.60   18.30
 -10   1  -3   36.80   15.00
  10  -2  -3   46.70   20.40
  10   2  -3   67.09   22.60
   9  -2  -3    2.20    6.90
   9  -2  -3    3.90   10.80
  -9  -2   3    3.70   12.70
   9   2  -3   -5.80   13.60
   9   2  -3   22.70   13.60
   8  -2  -3    9.10   10.00
  -8  -2   3   21.90   12.20
   8  -2  -3   14.90    8.40
   8  -2  -3   10.60    6.60
   8   2  -3   22.90   11.80
   8   2  -3   -3.00    6.20
  -8   2   3   13.70    7.50
   7  -2  -3   69.49   14.10
  -7  -2   3   78.39   12.60
   7  -2  -3   93.69   18.10
  -7  -2   3   79.19   17.30
   7  -2  -3   60.19   10.90
   7   2  -3   58.99   17.10
   7   2  -3   63.89   16.40
  -7   2   3   62.89   13.00
   6  -2  -3  459.65   28.30
  -6  -2   3  406.66   35.80
  -6  -2   3  483.75   25.40
   6  -2  -3  407.16   27.60
  -6  -2   3  418.16   31.40
   6  -2  -3  459.25   22.90
   6   2  -3  453.35   40.90
   6   2  -3  405.76   24.50
  -6   2   3  391.66   24.40
   6   2  -3  407.86   32.50
  -6   2   3  413.26   27.40
  -5  -2   3    2.80    4.10
   5  -2  -3   -0.80    1.80
   5  -2  -3    5.30    3.30
  -5  -2   3    3.80    5.30
   5  -2  -3   -4.40    3.10
  -5  -2   3   -2.50    1.90
  -5   2   3    2.50    3.00
  -5   2   3    3.20    2.00
   5   2  -3    3.20    2.60
   5   2  -3   -2.80    4.40
   5   2  -3    5.20    5.80
  -5   2   3    1.40    2.90
   4  -2  -3   14.30    5.00
  -4  -2   3   10.10    3.90
  -4  -2   3   16.50    7.60
   4  -2  -3    4.00    2.60
   4  -2  -3   11.30    3.80
  -4  -2   3    6.20    4.60
   4   2  -3    3.90    2.70
  -4   2   3   10.00    4.30
   4   2  -3    4.00    3.80
  -4   2   3   10.00    2.80
   4   2  -3    3.10    5.10
  -4   2   3   15.80    4.50
   3  -2  -3  541.05   24.50
  -3  -2   3  548.45   23.40
   3  -2  -3  565.54   21.60
  -3  -2   3  554.94   29.00
  -3  -2   3  546.75   36.70
   3   2  -3  542.65   29.90
  -3   2   3  582.34   24.10
   3   2  -3  514.95   37.10
  -3   2   3  557.24   19.30
   3   2  -3  527.85   23.00
  -3   2   3  554.74   25.50
  -2  -2   3    5.60    3.10
  -2  -2   3    1.30    3.50
   2  -2  -3    0.70    1.60
  -2  -2   3    3.70    2.40
   2  -2  -3    2.70    1.70
   2   2  -3    8.10    5.60
  -2   2   3    4.60    2.50
   2   2  -3    8.10    4.00
  -2   2   3    1.20    1.30
   2   2  -3    2.60    1.80
  -1  -2   3    7.80    2.50
   1  -2  -3    8.00    2.60
  -1  -2   3    5.30    2.80
   1  -2  -3   10.30    3.40
  -1  -2   3    9.20    7.10
  -1   2   3   11.40    2.90
   1   2  -3    3.70    4.20
   1   2  -3   13.20    4.30
  -1   2   3   15.00    3.50
   1   2  -3   11.30    2.60
  -1   2   3   10.40    3.10
   0  -2  -3  398.86   17.60
   0  -2   3  442.36   14.80
   0  -2   3  409.96   16.80
   0  -2  -3  425.86   19.70
   0   2   3  429.76   19.50
   0   2  -3  423.56   27.30
   0   2  -3  398.16   12.30
   0   2  -3  393.96   16.90
   0   2   3  427.16   21.30
   0   2   3  385.16   16.80
   1  -2   3 1042.70   27.90
   1  -2   3 1064.19   29.90
  -1  -2  -3 1074.29   38.30
  -1  -2  -3 1061.99   35.60
  -1   2  -3 1134.49   30.50
   1   2   3 1117.19   44.80
  -2  -2  -3  136.49   11.90
   2  -2   3  135.49    6.20
   2  -2   3  148.19   11.70
  -2   2  -3  129.99    5.50
   2   2   3  133.59   12.00
   2   2   3  138.69   15.60
   2   2   3  131.69   10.30
  -2   2  -3  125.59    5.70
  -3  -2  -3   57.99   12.40
  -3  -2  -3   64.19   12.20
   3  -2   3   99.39   13.30
   3   2   3   52.79    8.30
  -3   2  -3   67.89    4.50
  -3   2  -3   64.69    5.00
   3   2   3   88.29   17.70
   3   2   3   80.99    8.00
   4  -2   3  124.49   12.90
  -4  -2  -3  133.99   20.10
  -4  -2  -3  163.88   18.00
  -4   2  -3  136.59    8.20
   4   2   3  138.19   11.70
  -4   2  -3  121.99    8.80
   4   2   3  132.49   12.40
   5  -2   3   89.89    7.30
  -5  -2  -3   75.49   15.70
   5  -2   3   60.99   10.60
  -5  -2  -3   91.59   16.20
   5   2   3   73.79   12.60
  -5   2  -3   72.49    8.10
   5   2   3  118.79   28.70
   5   2   3   85.39   12.80
  -5   2  -3   85.49    7.70
   6  -2   3    0.90    4.00
  -6  -2  -3    6.90    4.90
   6  -2   3    7.60    3.20
  -6  -2  -3    5.20    7.00
   6   2   3    8.10    4.20
   6   2   3   13.00    8.80
  -6   2  -3    9.10    4.20
   7  -2   3    3.00    3.00
  -7  -2  -3    0.10    6.70
   7  -2   3    5.90    5.10
  -7  -2  -3    7.00    8.70
   7   2   3   -0.10    4.30
   7   2   3    8.60    5.40
   7   2   3    0.50    9.40
  -7   2  -3    4.00    3.70
  -7   2  -3    2.90    5.30
  -8  -2  -3    3.80   11.50
   8  -2   3   17.60   14.90
   8  -2   3   16.40    6.30
   8  -2   3    1.90   11.40
  -8  -2  -3   27.40   11.70
  -8   2  -3   17.00    6.30
   8   2   3   10.30   10.50
   8   2   3    5.50    7.10
   8   2   3    7.00    7.20
  -8   2  -3   -1.40    6.70
   9  -2   3   14.00    8.40
  -9  -2  -3   33.80   15.20
   9   2   3    6.90    8.70
  -9   2  -3    4.90    7.80
 -10  -2  -3   29.00   19.20
  10   2   3   14.50   12.80
 -10  -3   3  -20.30   17.10
  10  -3  -3    2.40   13.60
  10   3  -3   -0.80   31.80
  -9  -3   3    8.30   12.90
   9  -3  -3   12.10   10.30
   9  -3  -3    6.20    8.00
   9  -3  -3    8.30    9.80
   9   3  -3   28.40   17.00
  -8  -3   3   26.00   14.90
   8  -3  -3   39.50    9.40
   8  -3  -3   33.80   11.70
   8  -3  -3   22.30   10.30
   8   3  -3   44.00   11.10
  -8   3   3   43.90   10.80
   8   3  -3   57.49   18.10
   7  -3  -3   91.59   19.60
  -7  -3   3   62.19   11.60
   7  -3  -3   78.59   14.20
  -7  -3   3   49.10   17.20
   7  -3  -3   59.59   13.00
  -7  -3   3   54.39   15.00
   7   3  -3   66.69   17.90
   7   3  -3   75.59   17.10
   7   3  -3   69.09   21.80
  -7   3   3   77.79   16.70
  -7   3   3   88.59   13.10
  -6  -3   3    3.40    3.40
   6  -3  -3    7.80    3.60
   6  -3  -3   -4.80    3.90
   6  -3  -3    3.80    4.00
  -6  -3   3    4.00    6.60
   6   3  -3    8.20    8.60
  -6   3   3    7.00    4.30
   6   3  -3    9.10    7.90
   6   3  -3    9.70    4.90
  -6   3   3    5.10    4.40
   5  -3  -3  132.39   10.70
  -5  -3   3  135.99   21.20
  -5  -3   3  120.19   12.20
   5  -3  -3  111.69   12.30
  -5  -3   3   76.99   16.50
   5   3  -3  111.89   20.40
  -5   3   3  146.79   19.90
   5   3  -3   92.49   18.20
   5   3  -3  128.99   12.70
  -5   3   3  114.59   11.10
   4  -3  -3   82.19    7.70
  -4  -3   3   64.39   17.10
  -4  -3   3   78.19   11.00
  -4  -3   3   77.49   13.80
   4  -3  -3   98.39   10.10
   4   3  -3   92.79   16.00
  -4   3   3   77.09    3.70
  -4   3   3   77.89   12.80
   4   3  -3   84.29   22.70
   4   3  -3   79.09   11.10
  -4   3   3   86.89    8.80
   3  -3  -3    2.00    2.50
  -3  -3   3    6.00    3.40
  -3  -3   3    4.50    4.70
  -3  -3   3    0.50    4.20
   3  -3  -3    7.20    2.80
   3   3  -3    8.90    3.80
  -3   3   3    7.30    1.90
   3   3  -3    2.20    3.60
  -3   3   3   13.30    4.30
  -3   3   3   13.20    5.40
   3   3  -3    7.10    5.20
  -2  -3   3  674.43   43.10
   2  -3  -3  658.33   24.20
   2  -3  -3  604.04   25.80
  -2  -3   3  632.14   30.50
  -2  -3   3  682.63   25.60
  -2   3   3  611.44   25.20
  -2   3   3  620.84   20.90
   2   3  -3  527.35   39.90
  -2   3   3  653.33   28.10
   2   3  -3  617.94   31.60
   2   3  -3  621.44   24.10
  -1  -3   3  618.54   39.80
  -1  -3   3  570.84   26.10
  -1  -3   3  594.74   19.10
   1  -3  -3  599.14   23.40
   1  -3  -3  564.84   24.90
  -1  -3   3  564.84   21.60
  -1   3   3  572.24   25.30
   1   3  -3  580.04   20.30
   1   3  -3  567.94   38.10
  -1   3   3  593.54   24.90
  -1   3   3  562.84   21.10
   0  -3   3  225.38   12.90
   0  -3  -3  238.28   15.10
   0  -3  -3  242.18   14.10
   0  -3   3  231.38   10.60
   0  -3   3  230.78   12.20
   0  -3   3  258.77   24.50
   0   3   3  245.68   18.30
   0   3   3  222.98   12.80
   0   3   3  263.07   16.10
   0   3  -3  235.68   21.80
   0   3  -3  207.48   13.00
   1  -3   3    0.10    3.90
   1  -3   3   -1.00    1.20
  -1  -3  -3    5.60    2.90
   1  -3   3   -0.60    1.90
  -1  -3  -3    6.10    3.70
   1  -3   3    2.00    1.10
   1   3   3    1.40    2.00
   1   3   3    2.00    3.00
   1   3   3    0.60    2.20
  -1   3  -3    5.10    1.70
  -2  -3  -3  414.26   24.20
  -2  -3  -3  437.36   29.00
   2  -3   3  424.76   22.20
   2  -3   3  430.16   31.10
   2   3   3  439.16   20.60
   2   3   3  421.66   31.40
   2   3   3  441.96   21.80
  -3  -3  -3  266.87   20.20
   3  -3   3  300.57   19.40
  -3  -3  -3  255.47   23.00
   3  -3   3  255.27   24.70
   3   3   3  276.57   16.90
   3   3   3  305.87   28.60
   3   3   3  279.57   18.10
  -4  -3  -3   76.49   13.60
  -4  -3  -3  113.09   19.90
   4  -3   3  107.99   16.60
   4   3   3  138.09   28.80
   4   3   3   89.29   10.10
   4   3   3   90.39   13.40
  -5  -3  -3  256.37   26.50
  -5  -3  -3  315.47   25.40
   5  -3   3  294.47   26.00
   5  -3   3  283.07   12.60
   5   3   3  265.97   48.20
   5   3   3  297.67   21.70
   6  -3   3   59.89    6.60
  -6  -3  -3   47.60   14.40
  -6  -3  -3   67.19   14.40
  -6   3  -3   42.80    4.60
  -6   3  -3   53.19    4.40
   6   3   3   32.60    9.70
   7  -3   3   23.30    9.80
  -7  -3  -3   58.99   19.10
  -7  -3  -3   47.10   13.50
   7  -3   3   46.80    8.40
   7   3   3   31.90   10.30
   7   3   3   50.49   11.10
  -7   3  -3   29.50    5.40
   7   3   3   35.40    8.70
   7   3   3   58.09   24.60
  -8  -3  -3   -7.70    9.10
   8  -3   3   11.40    8.30
   8  -3   3   -6.40    4.70
  -8  -3  -3   -2.40   11.50
   8  -3   3   27.70   13.60
  -8   3  -3    4.70    4.70
   8   3   3   12.00    9.10
  -8   3  -3   -0.90    6.40
   8   3   3   23.10    7.60
  -9  -3  -3   55.49   17.70
   9  -3   3   25.90    9.80
   9  -3   3   59.59   26.20
   9   3   3   40.00   12.10
 -10  -3  -3   53.89   26.00
  10  -3   3   24.80   13.60
 -10   3  -3   63.89   14.50
 -10  -4   3   24.30   22.80
   9  -4  -3   35.40   11.50
  -9  -4   3   13.30   17.50
   9  -4  -3    4.90   10.80
  -9  -4   3    9.10   20.70
   9   4  -3   51.79   23.10
   8  -4  -3   38.90   10.40
  -8  -4   3   23.80   14.40
   8   4  -3   20.40   26.80
   8   4  -3   34.60   15.90
  -8   4   3   40.80    9.00
  -7  -4   3  105.69   21.40
   7  -4  -3   92.49   14.90
   7  -4  -3  120.89   13.20
  -7  -4   3  103.99   25.10
  -7  -4   3  103.09   15.70
   7   4  -3  121.19   18.00
  -7   4   3  127.29   12.90
   7   4  -3   68.09   28.70
   7   4  -3   94.39   21.90
  -7   4   3  140.49   23.20
   6  -4  -3   95.89   10.20
  -6  -4   3   69.59   12.60
  -6  -4   3  147.19   23.30
  -6  -4   3  131.19   29.80
   6  -4  -3  113.79   12.90
   6   4  -3   90.99   16.90
  -6   4   3  111.69   19.10
   6   4  -3  103.59   22.50
   6   4  -3  126.59   37.90
  -5  -4   3   20.10    7.00
  -5  -4   3   56.79   19.10
   5  -4  -3   29.10    7.10
  -5  -4   3   28.00   11.20
   5  -4  -3   37.50    7.20
   5   4  -3   23.30   13.10
   5   4  -3   34.20    7.90
  -5   4   3   33.00    7.00
  -5   4   3   27.00    9.10
  -4  -4   3  291.47   24.90
  -4  -4   3  211.88   28.30
  -4  -4   3  299.27   19.00
   4  -4  -3  276.97   17.60
   4  -4  -3  290.67   16.10
   4   4  -3  256.37   32.60
   4   4  -3  281.67   26.20
   4   4  -3  297.57   18.70
  -4   4   3  275.27   18.20
  -4   4   3  243.18   20.20
  -3  -4   3  191.08   22.00
   3  -4  -3  192.78   12.80
  -3  -4   3  216.38   15.10
   3  -4  -3  237.48   15.40
  -3  -4   3  267.77   29.70
  -3   4   3  191.88   13.30
   3   4  -3  238.78   22.40
   3   4  -3  203.88   14.10
  -3   4   3  260.27   18.60
  -2  -4   3   31.00   12.60
  -2  -4   3   24.90    7.60
   2  -4  -3   39.70    6.90
  -2  -4   3   27.30    5.90
   2  -4  -3   32.70    6.70
   2   4  -3   29.00    5.60
  -2   4   3   30.30    3.40
  -2   4   3   30.80    3.20
   2   4  -3   32.70    6.10
  -2   4   3   38.10    6.80
   2   4  -3   39.00   10.40
  -2   4   3   24.50    5.90
  -2   4   3   31.60    7.90
   1  -4  -3  368.66   19.30
  -1  -4   3  400.86   18.20
  -1  -4   3  351.76   21.40
   1  -4  -3  401.66   21.40
  -1  -4   3  418.56   35.20
  -1   4   3  423.16   24.70
   1   4  -3  406.46   24.00
   1   4  -3  416.86   35.10
  -1   4   3  370.26   15.60
   1   4  -3  403.16   16.00
  -1   4   3  345.37   20.30
   1   4  -3  404.16   15.60
  -1   4   3  392.16   16.60
   0  -4   3  193.08   11.50
   0  -4   3  173.18   22.30
   0  -4  -3  154.68   12.20
   0  -4  -3  157.58   13.30
   0  -4   3  161.28   11.90
   0   4   3  161.98   17.20
   0   4  -3  151.78   19.80
   0   4   3  162.48   11.30
   0   4   3  177.18   14.40
   0   4   3  157.38   10.30
   0   4  -3  151.78   12.50
   1  -4   3  160.88   12.20
   1  -4   3  152.28    9.00
   1  -4   3  163.18   21.40
   1  -4   3  151.28    7.80
  -1  -4  -3  163.48   14.60
  -1  -4  -3  159.18   13.00
   1  -4   3  162.88    9.10
   1   4   3  132.29   13.70
   1   4   3  169.48   19.60
   1   4   3  164.48   12.40
   1   4   3  151.98   11.20
  -1   4  -3  140.69   18.30
   2  -4   3   22.20    2.10
  -2  -4  -3   30.80    8.50
  -2  -4  -3   30.60    9.70
   2  -4   3   26.70   10.10
   2  -4   3   17.20    5.30
   2   4   3   11.00    5.80
   2   4   3   31.90    6.60
   2   4   3   26.40    6.50
  -3  -4  -3  172.48   20.20
   3  -4   3  151.08   27.50
   3  -4   3  186.98   15.90
  -3  -4  -3  134.99   15.60
   3   4   3  158.58   13.10
   3   4   3  145.79   13.50
  -4  -4  -3   25.70    9.60
   4  -4   3   23.10   10.80
  -4  -4  -3   23.80    8.50
   4  -4   3   22.10    7.30
   4   4   3   41.90    9.00
   4   4   3   22.20    7.00
   4   4   3   31.30   12.30
   5  -4   3    8.10    6.50
  -5  -4  -3   20.90   10.50
   5  -4   3   13.20    9.30
  -5  -4  -3    6.60    7.20
   5   4   3   14.20    6.60
  -6  -4  -3   14.90   13.70
   6  -4   3   14.90    6.70
  -6  -4  -3   22.40   10.80
   6  -4   3   21.20    9.80
   6  -4   3   14.30    4.00
   6   4   3   18.40    7.30
   6   4   3   18.10   15.80
   6   4   3   27.00    8.30
  -7  -4  -3   14.70    9.30
   7  -4   3   13.70    8.20
  -7  -4  -3   -5.40   12.80
   7  -4   3   14.20   12.30
   7   4   3   10.50    7.20
   7   4   3   12.80    8.00
   7   4   3   12.80    6.50
   7   4   3    8.30   15.10
   8  -4   3   23.40    7.70
   8  -4   3   -7.40   13.60
  -8  -4  -3    4.10   13.90
   8   4   3    4.40    7.80
   8   4   3    8.20    7.80
   9  -4   3   14.10   19.60
   9  -4   3  -23.70   17.40
  -9  -4  -3   -8.00   16.00
   9  -4   3   -6.10    7.80
  10  -4   3   28.50   26.80
 -10  -5   3  -12.90   28.40
   9  -5  -3    0.00   11.20
  -9  -5   3   24.50   19.70
   8  -5  -3   38.60   10.30
   8  -5  -3   27.00    9.90
  -8  -5   3   64.49   18.10
  -8  -5   3   41.60   21.50
   8   5  -3    6.50   16.00
   8   5  -3   43.20   12.90
  -8   5   3   29.10    6.80
  -7  -5   3   36.60   15.60
  -7  -5   3    9.10   13.80
   7  -5  -3   16.50    8.40
   7  -5  -3   31.50    7.50
   7   5  -3   21.20   18.90
  -7   5   3   29.10    6.10
  -7   5   3   27.40   13.50
   7   5  -3   26.20    9.80
   7   5  -3   19.60    9.20
   7   5  -3    6.50   16.60
   6  -5  -3   72.29   11.60
   6  -5  -3  102.09   12.20
  -6  -5   3  106.69   16.60
  -6  -5   3  103.29   21.00
  -6  -5   3   83.39   22.20
   6   5  -3   98.09   16.10
  -6   5   3   91.09    9.50
  -6   5   3  102.59   18.70
   6   5  -3   83.89   14.30
   6   5  -3   71.69   21.80
   5  -5  -3    7.80    4.30
  -5  -5   3   -1.50    7.10
  -5  -5   3    4.80    4.50
  -5  -5   3   -9.50    6.00
   5  -5  -3    1.20    3.80
   5   5  -3    5.90   10.70
  -5   5   3    5.40    5.80
   5   5  -3    7.80    5.40
   5   5  -3   -1.60    4.40
   4  -5  -3  553.44   25.30
  -4  -5   3  608.24   38.50
   4  -5  -3  515.25   29.50
  -4  -5   3  549.85   48.50
  -4  -5   3  527.05   28.90
  -4   5   3  544.45   24.20
   4   5  -3  573.44   28.30
  -4   5   3  612.74   34.70
   4   5  -3  560.94   29.10
  -3  -5   3  149.88   18.10
   3  -5  -3  147.49   12.00
  -3  -5   3  164.98   31.70
  -3  -5   3  147.29   13.50
   3  -5  -3  159.28   13.30
   3   5  -3  141.69   22.00
  -3   5   3  179.78   16.80
   3   5  -3  129.79   12.40
   3   5  -3  154.68   12.80
   3   5  -3  169.88   36.50
  -3   5   3  138.89   12.40
   2  -5  -3   30.40    7.00
  -2  -5   3   53.39   18.60
  -2  -5   3   34.90    9.70
   2  -5  -3   40.00    8.10
  -2  -5   3   43.20    8.10
   2   5  -3   28.90    9.80
   2   5  -3   75.79   25.40
   2   5  -3   44.10    7.30
  -2   5   3   40.50    9.40
   2   5  -3   44.10    7.10
  -2   5   3   41.00    7.80
   1  -5  -3  333.37   20.70
  -1  -5   3  309.97   21.20
   1  -5  -3  286.87   18.20
  -1  -5   3  302.47   16.80
  -1  -5   3  298.47   32.10
   1   5  -3  258.17   30.50
   1   5  -3  324.57   13.10
  -1   5   3  313.27   20.30
  -1   5   3  306.07   20.10
  -1   5   3  308.27   13.50
  -1   5   3  335.47   14.50
  -1   5   3  352.26   26.00
   0  -5   3  283.07   16.80
   0  -5   3  235.78   13.40
   0  -5   3  234.18   16.30
   0  -5  -3  284.77   19.60
   0  -5  -3  230.58   16.80
   0  -5   3  282.37   30.40
   0   5   3  284.97   26.00
   0   5  -3  257.67   28.20
   0   5   3  301.07   16.00
   0   5   3  261.77   14.10
  -1  -5  -3  566.24   28.00
  -1  -5  -3  502.15   34.80
   1  -5   3  484.45   40.20
   1  -5   3  518.85   21.70
   1  -5   3  523.35   25.40
   1  -5   3  573.74   21.20
  -1  -5  -3  550.34   30.30
   1   5   3  494.05   23.20
   1   5   3  607.44   41.80
   1   5   3  530.55   25.10
  -1   5  -3  467.55   37.50
   2  -5   3  129.79   22.90
   2  -5   3  142.09    7.30
   2  -5   3  151.38   13.70
  -2  -5  -3  147.49   22.90
  -2  -5  -3  148.19   15.70
   2   5   3  140.59   13.00
   2   5   3  102.09   21.90
   2   5   3  128.39   12.00
   3  -5   3  262.77    8.70
  -3  -5  -3  304.67   29.10
   3  -5   3  270.87   29.60
  -3  -5  -3  280.87   23.50
   3  -5   3  265.77    9.10
   3  -5   3  230.88   19.10
   3   5   3  241.38   19.10
   3   5   3  255.17   18.30
   3   5   3  211.58   33.10
   4  -5   3  106.29   16.80
  -4  -5  -3  139.29   22.00
  -4  -5  -3  148.09   26.40
   4  -5   3  170.88   29.50
   4   5   3  149.19   16.00
   5  -5   3  165.88    7.20
  -5  -5  -3  168.78   25.40
  -5  -5  -3  214.78   50.99
   5  -5   3  157.18   18.10
   5  -5   3  157.68   27.80
   5   5   3  239.98   46.70
   5   5   3  178.58   18.60
   5   5   3  165.88   17.30
   6  -5   3   38.50   11.80
   6  -5   3   44.10    5.60
  -6  -5  -3   17.30   11.70
   6  -5   3   31.80   14.80
  -6  -5  -3   28.90   15.40
   6   5   3   50.79   22.30
   6   5   3   41.90   11.30
   6   5   3   54.49   12.20
   7  -5   3  169.58   11.80
  -7  -5  -3  161.78   32.50
   7  -5   3  162.68   31.30
  -7  -5  -3  123.99   23.60
   7   5   3  140.59   21.60
   7   5   3  162.38   14.50
   8  -5   3   15.00   19.50
  -8  -5  -3   77.39   23.00
   8  -5   3   54.79    8.90
   8   5   3   53.99   10.30
  -9  -5  -3  -50.29   21.60
   9  -5   3    9.70   22.10
   8  -6  -3  123.19   16.80
  -8  -6   3   89.79   24.30
   7  -6  -3   18.60    7.30
  -7  -6   3   16.90   16.10
  -7  -6   3   39.20   15.20
   7  -6  -3   27.70    9.10
  -7  -6   3   15.50   19.10
   7   6  -3   45.20   12.10
   6  -6  -3   44.90    9.20
  -6  -6   3   28.80   21.30
  -6  -6   3   46.30   14.70
   6  -6  -3   39.70   12.40
  -6  -6   3   44.50   17.10
  -6   6   3   17.70    8.40
   6   6  -3   21.10   10.20
  -5  -6   3   93.59   19.00
  -5  -6   3   86.19   14.60
   5  -6  -3   90.19   10.90
  -5  -6   3   76.99   25.40
   5  -6  -3  121.39   12.20
  -5  -6   3   91.29   20.50
   5   6  -3  101.19   15.20
   5   6  -3   70.49   26.60
   5   6  -3   83.69   14.90
  -5   6   3   99.99   17.20
   4  -6  -3  183.08   14.50
  -4  -6   3  187.38   17.40
  -4  -6   3  191.48   21.00
   4  -6  -3  171.48   14.70
  -4  -6   3  171.18   33.30
  -4  -6   3  188.88   27.30
  -4   6   3  171.48   12.90
  -4   6   3  211.58   21.30
   4   6  -3  186.28   15.80
   4   6  -3  150.68   15.00
   4   6  -3  138.49   34.90
  -3  -6   3  274.47   44.90
  -3  -6   3  191.98   19.90
  -3  -6   3  191.88   21.10
   3  -6  -3  174.18   14.60
   3  -6  -3  174.48   15.00
  -3  -6   3  185.58   16.20
  -3   6   3  186.48   18.90
   3   6  -3  181.38   14.70
   3   6  -3  193.48   14.40
   2  -6  -3   26.10    7.80
  -2  -6   3   28.80    9.00
  -2  -6   3   45.70   11.50
   2  -6  -3   56.99   10.30
  -2  -6   3   39.60    8.60
  -2  -6   3   40.20   15.80
   2   6  -3   46.60    7.00
   2   6  -3   28.20    5.80
  -2   6   3   36.60    9.10
  -1  -6   3  398.76   26.50
   1  -6  -3  470.35   27.20
  -1  -6   3  446.96   42.80
  -1  -6   3  427.36   22.20
   1  -6  -3  427.56   24.30
   1  -6  -3  421.06   30.50
  -1  -6   3  411.36   25.40
  -1   6   3  445.26   15.10
   1   6  -3  443.96   43.00
  -1   6   3  444.96   32.40
  -1   6   3  400.66   15.70
  -1   6   3  459.55   26.60
   0  -6   3   17.00    5.60
   0  -6   3   15.50   11.00
   0  -6   3    7.30    5.60
   0  -6  -3   16.50    6.00
   0  -6  -3    2.10    6.90
   0  -6   3   21.70    5.70
   0  -6  -3    9.20    5.20
   0   6   3   23.20   10.10
   0   6  -3   16.90   10.10
   0   6   3   14.50    4.20
   0   6   3   15.20    5.80
   0   6   3   18.20    4.50
   1  -6   3   37.00    6.90
   1  -6   3   36.90   14.60
   1  -6   3   41.10    6.50
  -1  -6  -3   32.60    9.00
   1  -6   3   34.60    7.00
  -1  -6  -3   42.50   12.50
   1   6   3   52.19    9.30
  -1   6  -3   23.20   13.20
   1   6   3   47.20    8.50
   1   6   3   44.40    8.10
   1   6   3   30.90   12.10
  -2  -6  -3  167.38   26.00
   2  -6   3  157.78    9.60
  -2  -6  -3  191.68   19.50
   2  -6   3  136.79   26.50
   2   6   3  131.09   14.00
   2   6   3  131.69   17.60
   2   6   3  159.28   28.40
   3  -6   3  141.19   15.70
  -3  -6  -3  161.48   26.10
  -3  -6  -3  114.69   18.70
   3  -6   3  192.98   33.90
   3   6   3  124.79   14.10
   3   6   3  115.99   18.40
  -4  -6  -3    9.10   12.50
   4  -6   3   16.70   11.50
   4  -6   3   14.60    9.10
  -4  -6  -3   15.80    8.50
   4   6   3   16.80   15.20
   4   6   3   19.10    7.80
   4   6   3   12.50    6.80
  -5  -6  -3   13.50   13.70
  -5  -6  -3   11.20    9.50
   5  -6   3    6.80   10.80
   5   6   3   -6.50    6.10
   5   6   3   31.00   18.30
   5   6   3    9.30    8.90
  -6  -6  -3   23.10   13.60
   6  -6   3   27.70    4.00
  -6  -6  -3   19.10   20.40
   6  -6   3   22.90   15.70
   7  -6   3    0.80    4.20
   7  -6   3    2.80   14.10
  -7  -6  -3    0.40   13.80
  -7  -6  -3   18.30   23.60
   7   6   3   -2.90    5.20
  -8  -6  -3  -18.20   18.00
   8  -6   3   -5.40   19.30
   7  -7  -3   12.30   10.70
  -7  -7   3   77.59   28.40
   7   7  -3   18.50   12.70
  -6  -7   3   25.90   14.50
  -6  -7   3   27.00   27.90
   6  -7  -3   27.20    9.00
   6   7  -3   26.10   11.50
   6   7  -3   25.40   13.00
   5  -7  -3   57.39    9.20
   5  -7  -3   56.59   11.10
  -5  -7   3   43.30   15.30
  -5  -7   3   65.79   19.70
   5  -7  -3   61.19   10.50
  -5  -7   3   42.90   21.30
  -5   7   3   28.20   11.50
   5   7  -3   73.29   13.60
   5   7  -3   81.79   14.90
  -4  -7   3   74.49   18.20
  -4  -7   3  117.39   17.30
  -4  -7   3  101.69   25.60
   4  -7  -3   78.19   14.00
  -4  -7   3   89.99   17.70
   4  -7  -3  101.29   12.00
   4  -7  -3   96.59   13.50
   4   7  -3   79.79   14.70
   4   7  -3   95.09   13.70
  -4   7   3   78.19   16.10
   4   7  -3  164.08   42.60
  -3  -7   3   90.89   25.20
  -3  -7   3   98.39   20.50
   3  -7  -3  116.89   13.40
   3  -7  -3   97.29   16.70
   3  -7  -3  106.19   14.70
  -3  -7   3  106.09   16.10
  -3  -7   3  114.89   19.40
  -3   7   3  101.09   18.20
   3   7  -3   88.89   10.20
   3   7  -3  111.89   12.00
   2  -7  -3  162.48   19.00
   2  -7  -3  144.09   14.80
  -2  -7   3  100.49   26.40
  -2  -7   3  143.49   22.10
  -2  -7   3  124.39   16.10
  -2  -7   3  114.39   17.60
  -2   7   3  158.68   18.00
   2   7  -3  127.89    9.30
   2   7  -3  126.09    8.80
   2   7  -3   88.39   26.40
   1  -7  -3   69.49   13.50
   1  -7  -3  103.09   15.20
  -1  -7   3   26.90   14.60
  -1  -7   3   77.19   11.90
  -1  -7   3   82.39   13.90
  -1  -7   3   75.49   14.80
   1  -7  -3   60.09   14.80
  -1   7   3   53.99   11.70
   1   7  -3   39.80   20.60
  -1   7   3   55.59   16.00
   0  -7  -3  195.28   24.00
   0  -7  -3  203.28   19.40
   0  -7   3  215.58   17.20
   0  -7  -3  185.68   18.20
   0  -7   3  214.38   17.90
   0  -7   3  213.28   38.40
   0  -7   3  197.38   15.00
   0   7   3  198.28   11.10
   0   7   3  139.29   29.10
   0   7   3  198.08   17.70
   0   7  -3  123.89   34.90
   1  -7   3  185.88   14.00
   1  -7   3  166.58   12.40
  -1  -7  -3  163.28   18.70
  -1  -7  -3  165.58   25.50
   1   7   3  207.68   15.00
   1   7   3  193.18   16.30
   1   7   3  184.28   13.80
   1   7   3  203.18   38.60
   2  -7   3  226.68   30.10
  -2  -7  -3  151.58   26.50
  -2  -7  -3  177.78   20.10
   2   7   3  167.18   15.70
   2   7   3  194.38   15.90
   2   7   3  190.28   15.40
   3  -7   3  153.48   30.90
  -3  -7  -3   96.79   23.20
  -3  -7  -3  125.79   21.60
   3   7   3  109.39   11.70
   3   7   3   99.19   14.90
   3   7   3   80.89   23.50
   4  -7   3   53.39   22.40
  -4  -7  -3   73.09   16.40
  -4  -7  -3   92.89   24.30
   4   7   3   91.49    9.80
   4   7   3   95.09   15.80
   4   7   3   59.39   26.50
   4   7   3   74.69   14.60
   5  -7   3  154.58   31.90
  -5  -7  -3  190.18   32.60
  -5  -7  -3  115.29   27.90
   5   7   3  132.49   10.50
   5   7   3  100.49   17.10
   5   7   3  123.19   20.10
  -6  -7  -3   50.89   17.60
   6  -7   3   21.30   17.90
  -6  -7  -3   -5.70   23.80
   6   7   3   10.50   11.60
   7  -7   3   99.89   34.60
   6   8  -3   43.30   16.40
   5  -8  -3   51.39   13.30
  -5  -8   3    2.90   20.30
   5   8  -3   46.40   13.40
   5   8  -3   43.20   12.50
   4  -8  -3   87.59   12.10
  -4  -8   3  108.19   23.50
  -4  -8   3   82.59   28.10
   4  -8  -3   68.79   13.00
   4   8  -3   78.69   13.20
  -4   8   3   42.00   13.70
   4   8  -3   68.39   12.50
   3  -8  -3   42.20   10.30
  -3  -8   3   58.39   22.80
   3  -8  -3   67.69   12.30
  -3  -8   3   42.30   12.90
   3  -8  -3   63.99   14.30
  -3  -8   3   50.89   16.60
   3   8  -3   33.40    7.00
   3   8  -3   50.09    8.10
  -3   8   3   75.49   16.00
   2  -8  -3   74.19   13.70
   2  -8  -3   91.39   17.90
  -2  -8   3   78.79   16.00
  -2  -8   3   48.10   16.20
  -2  -8   3   90.39   27.10
   2  -8  -3   78.89   14.60
  -2   8   3   83.19   16.80
   2   8  -3   98.69   34.50
   1  -8  -3   87.89   18.50
   1  -8  -3   62.09   12.90
  -1  -8   3   71.49   14.40
   1  -8  -3   63.59   13.50
  -1  -8   3   50.59   18.00
  -1  -8   3   92.59   27.10
  -1   8   3   48.80   17.30
  -1   8   3   87.09   15.40
   0  -8   3    0.40   15.00
   0  -8  -3   22.20   14.50
   0  -8   3   10.50    7.00
   0  -8  -3   24.60   10.70
   0  -8   3   11.70    7.90
   0   8   3   20.80    9.30
   0   8  -3   36.90   21.40
   0   8   3   46.50   16.80
   1  -8   3   96.39   10.90
  -1  -8  -3   53.09   14.40
   1  -8   3   54.49   21.20
  -1  -8  -3   54.29   19.40
   1  -8   3   68.69    9.50
   1   8   3   67.39   26.80
   1   8   3   95.79   10.00
   1   8   3   73.59   15.30
   1   8   3   79.99   10.00
  -2  -8  -3   21.50   17.50
   2  -8   3   30.10   18.60
  -2  -8  -3   39.90   13.40
   2   8   3   35.60    8.50
   2   8   3   39.20    9.40
   2   8   3   25.20   20.80
  -3  -8  -3   54.99   21.30
  -3  -8  -3    3.40   11.10
   3  -8   3   12.80   14.50
   3   8   3   18.00    9.10
   3   8   3   22.30   24.10
   3   8   3   37.80   10.90
   3   8   3   26.50    7.30
  -4  -8  -3  -16.40   20.20
   4  -8   3   21.90   17.20
   4   8   3   10.10   12.20
   4   8   3   26.90    6.40
   4   8   3   24.30   10.50
  -5  -8  -3   34.20   23.60
   5  -8   3    9.40   18.50
   5   8   3   16.70   13.30
   3  -9  -3   25.70   13.70
   3  -9  -3   36.30   14.50
  -2  -9   3   52.69   27.80
  -2  -9   3   41.30   19.10
   2  -9  -3   50.39   16.30
  -2   9   3   62.89   17.10
   1  -9  -3  113.09   21.50
  -1  -9   3   52.99   28.30
  -1  -9   3  105.19   18.90
  -1   9   3   69.69   25.90
  -1   9   3  112.29   20.90
   0  -9   3   27.10   11.50
   0  -9   3   25.60   20.80
   0  -9  -3   40.00   16.40
   0   9   3    8.60   21.60
   0   9  -3    8.70   27.90
   0   9   3   22.30   12.50
   1  -9   3   61.29   25.80
   1  -9   3   74.39    9.00
  -1  -9  -3   64.69   25.30
   1  -9   3   59.29    8.50
   1   9   3   59.29   32.10
   1   9   3   59.79   14.20
   2  -9   3   54.99   26.00
   2   9   3   71.59   14.90
   2   9   3   50.49   10.70
   3  -9   3   39.50   25.40
   3   9   3   41.20   12.80
   4   9   3   44.70   17.60
  10   0  -4  261.17   46.80
  10   0  -4  314.87   37.50
   9   0  -4  629.94   46.70
   9   0  -4  486.75   48.20
  -9   0   4  590.74   42.00
   9   0  -4  629.14   36.30
   8   0  -4  566.54   47.60
   8   0  -4  665.93   44.40
  -8   0   4  637.14   40.90
  -8   0   4  610.84   29.50
   8   0  -4  584.54   33.00
  -7   0   4  657.83   34.00
   7   0  -4  710.93   49.00
   7   0  -4  542.65   42.90
  -7   0   4  692.53   30.40
  -7   0   4  630.34   38.60
   7   0  -4  665.03   32.90
   6   0  -4 2451.85   97.59
  -6   0   4 2499.45   73.69
   6   0  -4 2392.56   88.39
  -6   0   4 2430.66   77.99
   6   0  -4 2571.44   96.59
   5   0  -4 3252.07  110.69
   5   0  -4 3178.68   91.19
  -5   0   4 3053.99   90.49
  -5   0   4 3287.17  105.69
  -5   0   4 3291.97   89.19
  -5   0   4 3051.49   98.59
   5   0  -4 3126.29  101.99
   4   0  -4 3980.50  107.79
  -4   0   4 4007.50  106.89
  -4   0   4 4012.80  106.19
  -4   0   4 4104.09  121.19
   4   0  -4 3821.52  123.49
   4   0  -4 4031.20  117.19
  -4   0   4 3972.20  114.79
  -3   0   4 3417.06   98.19
  -3   0   4 3437.46  104.59
   3   0  -4 3506.65  107.09
   3   0  -4 3437.66   99.79
   3   0  -4 3514.05   92.79
  -3   0   4 3385.96   91.89
   2   0  -4 4189.48  112.29
  -2   0   4 3967.00  110.49
   2   0  -4 4126.39  118.49
   2   0  -4 4155.08  106.29
  -2   0   4 4218.68  118.69
  -1   0   4 6937.21  172.48
   1   0  -4 6590.94  172.58
   1   0  -4 7001.20  168.88
  -1   0   4 7050.39  181.78
   0   0   4 6203.28  153.48
   0   0  -4 6387.46  153.38
   0   0   4 6378.36  156.48
   0   0  -4 6070.69  156.08
   1   0   4 5671.53  144.69
  -1   0  -4 5700.93  141.49
  -1   0  -4 6000.30  145.59
   1   0   4 5659.73  142.29
   2   0   4 5556.74  139.49
  -2   0  -4 5575.04  142.19
   2   0   4 5588.14  142.69
  -3   0  -4 2594.54   82.09
   3   0   4 2731.13   74.09
  -3   0  -4 2739.83   77.19
   3   0   4 2568.54   76.99
  -4   0  -4 1032.80   40.00
   4   0   4 1067.29   37.50
  -4   0  -4 1055.79   44.70
  -5   0  -4 1632.64   57.99
  -6   0  -4 1372.46   53.59
   6   0   4 1293.27   50.89
   6   0   4 1382.36   56.29
  -7   0  -4  554.64   33.40
   7   0   4  567.44   48.00
   7   0   4  569.24   28.80
   8   0   4  308.37   26.60
   8   0   4  308.17   24.00
   8   0   4  322.37   39.20
  -8   0  -4  288.87   28.20
   8   0   4  282.67   22.00
   9   0   4  152.78   22.40
   9   0   4  138.29   21.60
   9   0   4  145.49   19.20
 -10   0  -4   15.80   17.30
  11  -1  -4  -23.90   24.80
  10  -1  -4   25.00   18.10
  10   1  -4   39.60   18.80
  10   1  -4   17.90   27.30
   9  -1  -4   38.20   16.70
   9  -1  -4    6.70   10.10
   9  -1  -4    8.20   10.00
  -9  -1   4   24.00   13.10
   9   1  -4   -1.20   12.30
   9   1  -4   20.00    8.30
   9   1  -4   24.70   15.10
  -9   1   4    2.20   11.10
  -8  -1   4   77.59   12.60
   8  -1  -4   58.79   17.40
  -8  -1   4   64.09   15.40
   8  -1  -4   90.89   17.70
   8  -1  -4   65.09   12.90
  -8   1   4  107.99   18.70
   8   1  -4   85.89   14.10
   8   1  -4   46.30   15.10
   8   1  -4   85.79   25.60
   7  -1  -4   19.20    8.30
   7  -1  -4   12.80    8.20
  -7  -1   4   -4.10    6.00
   7  -1  -4   11.10    5.00
  -7  -1   4   14.50    5.30
   7   1  -4   12.30    8.00
  -7   1   4    4.10    5.40
   7   1  -4   11.50    6.50
  -7   1   4    5.90    3.50
  -7   1   4    9.80    5.40
   7   1  -4   -0.30    7.40
   6  -1  -4    6.00    3.90
  -6  -1   4    6.40    3.50
  -6  -1   4    9.50    8.50
   6  -1  -4   -8.60    6.10
  -6  -1   4    2.40    2.80
   6  -1  -4    2.30    5.50
  -6  -1   4   28.90    9.40
  -6   1   4    8.50    5.90
   6   1  -4   20.40    8.60
   6   1  -4   13.60    5.70
  -6   1   4   11.50    5.60
   6   1  -4   16.40    7.90
  -6   1   4    7.40    3.30
   5  -1  -4   20.40    6.90
   5  -1  -4   28.50    9.80
   5  -1  -4    8.40    4.10
  -5  -1   4    8.60    5.70
  -5  -1   4   12.50    7.90
  -5  -1   4    5.70    3.20
  -5  -1   4   23.30    6.20
  -5   1   4    8.80    3.80
  -5   1   4   -2.00    3.90
   5   1  -4   11.30    4.50
   5   1  -4    5.90    5.90
   5   1  -4   18.00    7.30
  -5   1   4    7.20    3.40
  -4  -1   4  151.68   23.50
  -4  -1   4  109.69    9.80
   4  -1  -4  110.89   12.10
   4  -1  -4  110.89   12.10
  -4  -1   4  115.69   13.00
   4  -1  -4   89.99    8.90
  -4   1   4  120.49   11.70
  -4   1   4  129.29   11.70
   4   1  -4   97.39   18.40
   4   1  -4  106.19    9.90
   4   1  -4  104.09   12.70
  -4   1   4  106.59   10.30
  -4   1   4  114.79    8.90
   3  -1  -4   19.60    5.50
  -3  -1   4   22.70    8.00
  -3  -1   4   18.30    4.30
   3  -1  -4   27.40    6.70
   3  -1  -4   32.40    5.70
  -3  -1   4   34.50    7.70
   3   1  -4   27.50    5.50
  -3   1   4   34.00    7.20
   3   1  -4   18.30    8.20
  -3   1   4   21.80    5.90
  -3   1   4   26.70    5.00
   3   1  -4   20.20    6.00
  -2  -1   4  506.15   23.40
   2  -1  -4  427.86   24.50
  -2  -1   4  437.96   18.80
   2  -1  -4  456.05   19.10
  -2   1   4  456.65   21.40
   2   1  -4  447.36   29.20
  -2   1   4  450.95   21.10
  -2   1   4  440.36   20.80
   2   1  -4  472.75   19.30
   2   1  -4  445.46   22.90
  -1  -1   4   23.20    5.00
   1  -1  -4   19.40    4.80
   1  -1  -4   30.40    5.00
  -1  -1   4   21.10    4.20
  -1  -1   4   13.90    5.20
   1   1  -4   16.70    3.40
   1   1  -4   24.60    5.30
  -1   1   4   19.20    4.40
  -1   1   4   20.00    4.20
   1   1  -4   14.80    4.60
   0  -1   4  780.82   26.70
   0  -1  -4  737.43   26.40
   0  -1   4  799.02   24.80
   0  -1  -4  725.23   28.30
   0   1   4  751.32   26.40
   0   1  -4  777.22   23.70
  -1  -1  -4  190.88   12.70
   1  -1   4  193.68    9.30
   1  -1   4  182.38   10.20
  -1  -1  -4  183.28   11.20
  -1   1  -4  201.38   10.60
  -1   1  -4  187.28    8.00
   1   1   4  206.48   13.10
   1   1   4  199.68   11.70
  -2  -1  -4  351.26   19.30
   2  -1   4  370.46   16.20
   2  -1   4  378.26   14.70
   2   1   4  383.36   18.00
  -2   1  -4  351.46   15.70
   2   1   4  390.66   20.40
  -3  -1  -4   45.50    8.80
   3  -1   4   32.80    5.20
   3  -1   4   39.80    6.60
  -3   1  -4   28.20    6.40
  -3   1  -4   44.30    6.50
   3   1   4   35.30    6.70
   3   1   4   32.40    7.00
  -4  -1  -4  570.24   29.80
  -4  -1  -4  552.44   33.10
   4   1   4  650.53   28.20
  -4   1  -4  617.84   28.60
  -4   1  -4  604.94   25.40
  -5  -1  -4  695.43   34.90
   5  -1   4  699.43   35.80
  -5  -1  -4  688.13   57.29
   5   1   4  676.83   29.80
  -5   1  -4  625.74   28.60
   5   1   4  666.73   31.20
   6  -1   4  175.68   13.10
   6  -1   4  175.68   17.80
  -6  -1  -4  202.18   18.80
  -6  -1  -4  171.68   19.90
  -6   1  -4  137.19   15.60
   6   1   4  210.68   27.60
   6   1   4  172.18   15.90
   6   1   4  171.18   14.90
  -6   1  -4  172.98   14.70
   7  -1   4  147.19   13.00
  -7  -1  -4  142.39   23.10
  -7  -1  -4  155.78   18.50
   7  -1   4  160.08   18.40
   7   1   4  101.69   14.60
   7   1   4  104.89   16.00
  -7   1  -4  163.48   18.20
   7   1   4  184.58   36.50
   7   1   4  150.78   17.50
  -7   1  -4  126.29   14.70
   8  -1   4  139.69   27.80
   8  -1   4  182.28   21.60
  -8  -1  -4  178.48   26.60
   8  -1   4  190.68   16.60
  -8  -1  -4  201.88   22.60
  -8   1  -4  195.08   23.60
   8   1   4  187.78   19.30
   8   1   4  182.98   20.90
   8   1   4  177.28   19.80
  -8   1  -4  155.08   21.50
   8   1   4  125.19   24.80
   9  -1   4   78.59   15.00
   9  -1   4   87.29   25.30
  -9  -1  -4   93.09   20.60
   9   1   4   66.89   18.20
  -9   1  -4   83.39   16.60
   9   1   4   82.09   17.20
  10  -1   4   23.10   13.90
 -10  -1  -4    8.10   20.50
 -10   1  -4   19.20   26.80
  10  -2  -4  129.69   29.30
  10   2  -4   71.89   25.50
   9  -2  -4  432.96   47.90
  -9  -2   4  465.25   41.30
   9  -2  -4  388.26   36.00
   9  -2  -4  467.65   38.50
   9   2  -4  438.76   43.40
   9   2  -4  476.45   54.69
   8  -2  -4  586.24   39.80
  -8  -2   4  529.85   42.00
   8  -2  -4  619.04   40.60
   8  -2  -4  593.04   32.40
  -8  -2   4  631.44   33.90
   8   2  -4  556.34   44.80
   8   2  -4  661.63   58.99
  -8   2   4  672.63   40.50
  -7  -2   4  682.83   52.19
   7  -2  -4  668.63   39.30
  -7  -2   4  703.93   44.50
   7  -2  -4  648.24   32.00
  -7  -2   4  665.63   33.60
   7  -2  -4  646.24   38.30
  -7   2   4  715.43   39.70
   7   2  -4  639.84   54.19
   7   2  -4  620.54   44.30
   6  -2  -4 2005.60   63.99
  -6  -2   4 1949.51   89.79
  -6  -2   4 1959.60   78.39
   6  -2  -4 2015.40   72.79
   6  -2  -4 1929.91   69.59
  -6  -2   4 1900.51   65.19
  -6   2   4 2009.80   56.39
   6   2  -4 1904.71   81.39
  -6   2   4 1964.90   70.99
   6   2  -4 1995.10   96.29
  -5  -2   4 1507.95   61.59
  -5  -2   4 1425.46   71.89
  -5  -2   4 1385.06   49.99
   5  -2  -4 1480.45   50.69
   5  -2  -4 1443.76   48.70
   5  -2  -4 1451.15   55.59
   5   2  -4 1476.15   51.69
  -5   2   4 1432.46   52.89
  -5   2   4 1444.06   54.99
   5   2  -4 1459.15   76.19
  -5   2   4 1449.55   43.50
   5   2  -4 1437.46   63.79
  -4  -2   4 3163.58   81.89
   4  -2  -4 3129.59   95.69
  -4  -2   4 3377.16  118.69
   4  -2  -4 3164.48   89.09
   4  -2  -4 3269.77   84.39
  -4  -2   4 3153.38  101.49
  -4  -2   4 3273.47   91.79
  -4   2   4 3254.77   85.19
   4   2  -4 3187.08  120.69
  -4   2   4 3218.88   93.69
   4   2  -4 3309.77  105.19
   4   2  -4 3393.06   92.49
  -4   2   4 3128.79   94.69
  -3  -2   4 2767.92   86.29
  -3  -2   4 2733.93  102.69
  -3  -2   4 2777.22   68.29
   3  -2  -4 2652.13   75.79
   3  -2  -4 2805.32   81.49
  -3  -2   4 2695.23   77.39
  -3   2   4 2814.12   80.69
   3   2  -4 2612.64   86.89
  -3   2   4 2762.42   79.99
   3   2  -4 2707.73   77.59
   3   2  -4 2782.12  104.49
   2  -2  -4 4852.51  124.79
  -2  -2   4 4957.40  132.69
  -2  -2   4 4920.21  125.49
  -2  -2   4 4816.22  151.78
   2  -2  -4 4873.71  129.19
   2   2  -4 4908.31  124.69
   2   2  -4 4736.03  133.39
  -2   2   4 4873.81  128.29
   1  -2  -4 3305.07   86.49
   1  -2  -4 3257.07   89.69
  -1  -2   4 3211.68  110.29
  -1  -2   4 3323.47   89.59
  -1  -2   4 3166.98   84.09
  -1   2   4 3241.18   89.09
  -1   2   4 3006.20   88.89
   1   2  -4 3179.28   82.89
   1   2  -4 3221.68   90.29
   0  -2   4 5740.43  141.29
   0  -2  -4 5980.80  147.39
   0  -2   4 5903.41  170.88
   0  -2  -4 5787.92  149.99
   0  -2   4 5794.62  144.79
   0   2   4 5759.22  145.89
   0   2  -4 5823.92  138.29
   0   2  -4 5821.32  145.79
   0   2   4 5614.64  149.39
   0   2  -4 5553.44  166.18
   1  -2   4 2544.25   93.49
  -1  -2  -4 2622.64   75.49
   1  -2   4 2615.14   67.69
   1  -2   4 2758.62   70.19
   1   2   4 2752.52   79.79
   1   2   4 2791.92   76.09
  -1   2  -4 2732.33   70.79
   2  -2   4 3697.13   90.69
  -2  -2  -4 3662.93  100.69
   2  -2   4 3717.13   92.69
   2   2   4 3797.62  101.49
   2   2   4 3630.44  105.79
   3  -2   4 3005.50   89.79
  -3  -2  -4 2880.71   97.69
   3   2   4 2890.71  104.59
   3   2   4 2826.62   84.79
   3   2   4 2948.21   91.39
  -3   2  -4 2984.30   77.19
  -3   2  -4 2943.81   75.09
   4  -2   4  728.13   35.70
  -4  -2  -4  756.02   36.60
  -4  -2  -4  693.43   40.60
  -4   2  -4  713.83   26.70
  -4   2  -4  715.43   24.80
   4   2   4  717.33   30.70
   4   2   4  743.43   47.60
   4   2   4  666.73   31.50
   5  -2   4 2196.48   75.99
  -5  -2  -4 2094.59   75.89
   5   2   4 2047.60   70.19
  -5   2  -4 2091.99   60.09
   5   2   4 2046.20   67.39
   5   2   4 1995.20   93.19
   6  -2   4  394.26   19.20
  -6  -2  -4  333.87   26.70
  -6  -2  -4  422.16   34.20
  -6   2  -4  415.56   22.30
   6   2   4  415.46   26.60
  -6   2  -4  382.36   19.70
   6   2   4  341.47   23.20
  -7  -2  -4  512.55   35.80
  -7  -2  -4  576.94   42.20
   7  -2   4  480.65   24.20
   7  -2   4  554.74   35.50
  -7   2  -4  470.05   26.90
   7   2   4  559.14   33.20
   7   2   4  506.95   49.70
   7   2   4  489.25   30.40
   7   2   4  507.65   30.00
  -7   2  -4  515.55   25.60
   8  -2   4  287.67   28.00
  -8  -2  -4  230.48   34.40
   8  -2   4  269.37   18.70
  -8  -2  -4  222.98   26.20
   8  -2   4  201.58   34.00
   8   2   4  216.18   23.50
   8   2   4  275.37   24.10
   8   2   4  228.48   47.50
   8   2   4  244.38   21.80
  -8   2  -4  256.17   19.40
  -8   2  -4  265.77   22.00
   9  -2   4  126.89   17.80
  -9  -2  -4  132.19   26.40
   9  -2   4  157.68   38.90
   9   2   4  127.19   20.70
  -9   2  -4  130.99   17.50
   9   2   4  115.19   20.10
  10  -2   4  125.49   21.90
  10   3  -4   32.30   23.70
   9  -3  -4   17.60   11.90
  -9  -3   4   20.70   16.20
   9  -3  -4   15.80   10.20
   9  -3  -4   33.70   12.90
   9   3  -4   34.40   19.30
   8  -3  -4   23.10    8.80
   8  -3  -4   52.49   10.90
  -8  -3   4   33.20   13.80
  -8  -3   4   55.89   11.90
  -8   3   4   35.00   10.00
   8   3  -4   43.30   11.60
   8   3  -4   28.40   15.00
  -8   3   4   44.30   13.50
   7  -3  -4    0.50    5.20
   7  -3  -4   -0.20    5.60
  -7  -3   4    9.10    9.70
   7  -3  -4   -0.60    3.70
  -7  -3   4   10.00    8.70
  -7  -3   4   -0.80    3.40
  -7   3   4    4.60    5.40
   7   3  -4   -9.70    7.60
   7   3  -4   -2.40    6.00
  -7   3   4  -12.40    4.60
   7   3  -4    4.00   12.40
   6  -3  -4   84.19    9.90
  -6  -3   4   47.40   13.90
   6  -3  -4   85.69   14.20
  -6  -3   4   71.59   11.60
  -6  -3   4   85.39   17.00
   6   3  -4   80.99   17.60
  -6   3   4   75.39   14.60
   6   3  -4   77.79   26.10
   6   3  -4   91.59   15.30
  -6   3   4   92.89   15.90
  -5  -3   4    3.30    5.20
  -5  -3   4    3.10    2.90
  -5  -3   4    7.20    6.10
   5  -3  -4    8.20    4.50
   5  -3  -4    1.90    2.70
  -5   3   4    1.00    3.30
   5   3  -4   -1.50    2.50
   5   3  -4    4.10    6.50
   5   3  -4    8.80    6.50
  -5   3   4    1.90    1.50
  -5   3   4   -1.40    2.50
  -4  -3   4    0.80    6.50
  -4  -3   4    4.20    4.50
   4  -3  -4    5.00    3.80
   4  -3  -4    5.20    3.00
  -4  -3   4    2.10    2.40
  -4   3   4    1.50    2.40
  -4   3   4    1.20    2.80
  -4   3   4    0.90    1.50
   4   3  -4    6.50    3.40
   4   3  -4   -6.40    4.30
   4   3  -4    6.50    5.00
  -3  -3   4   37.10   13.30
   3  -3  -4   31.50    6.40
  -3  -3   4   33.40    8.60
  -3  -3   4   47.70    7.80
   3  -3  -4   36.40    7.60
  -3   3   4   24.70    6.10
   3   3  -4   38.80    7.00
  -3   3   4   39.70    4.60
   3   3  -4   40.90    9.90
  -3   3   4   45.60    8.40
   3   3  -4   25.00   10.50
   2  -3  -4   61.39    8.40
  -2  -3   4   50.99    3.30
  -2  -3   4   59.09   10.70
  -2  -3   4   49.70    7.50
  -2  -3   4   46.90   13.50
   2  -3  -4   44.00    8.00
   2   3  -4   35.10   12.50
   2   3  -4   65.09   12.00
  -2   3   4   47.90    7.80
   2   3  -4   61.29    6.60
   1  -3  -4   -1.50    1.70
  -1  -3   4    2.40    1.80
  -1  -3   4    5.90    4.60
  -1  -3   4    1.70    2.20
   1  -3  -4    2.20    2.20
  -1  -3   4   -0.60    1.30
  -1   3   4    3.80    2.90
  -1   3   4    1.70    2.10
  -1   3   4    3.00    2.40
   1   3  -4    2.40    4.30
   1   3  -4    8.50    2.60
   0  -3   4  203.08   10.30
   0  -3   4  188.38   11.80
   0  -3   4  211.18   23.50
   0  -3  -4  189.68   13.20
   0  -3  -4  209.38   14.90
   0  -3   4  183.88   11.90
   0   3   4  191.78   16.40
   0   3   4  182.58   14.20
   0   3   4  184.78   12.30
   0   3  -4  208.78   22.00
   0   3  -4  167.88   12.10
   1  -3   4   32.90    4.70
   1  -3   4   33.80    3.40
  -1  -3  -4   47.20    8.20
   1  -3   4   39.40    7.90
  -1  -3  -4   22.20    6.00
   1  -3   4   24.20    9.30
  -1   3  -4   33.90    5.10
   1   3   4   30.70    7.40
   1   3   4   37.60    7.00
   1   3   4   26.50    8.10
  -2  -3  -4  664.83   32.60
   2  -3   4  679.23   19.00
   2  -3   4  680.03   19.10
   2  -3   4  687.43   31.10
   2  -3   4  678.53   42.60
  -2  -3  -4  709.83   30.20
   2   3   4  683.73   33.60
   2   3   4  620.04   39.40
   2   3   4  670.53   29.60
   3  -3   4  251.27   18.50
  -3  -3  -4  265.27   24.50
  -3  -3  -4  226.68   19.50
   3  -3   4  228.78   25.10
   3   3   4  253.87   26.60
   3   3   4  274.07   17.10
   3   3   4  241.38   17.40
  -4  -3  -4  153.88   16.70
   4  -3   4  109.29   13.10
  -4  -3  -4  136.99   22.90
   4   3   4  232.78   37.30
   4   3   4  130.39   12.60
   4   3   4  144.19   14.20
  -5  -3  -4   97.49   30.90
  -5  -3  -4  133.09   19.70
   5   3   4  114.39   18.10
  -6  -3  -4  221.18   26.40
  -6  -3  -4  186.38   20.90
   6  -3   4  163.58   11.30
   6   3   4  170.08   16.70
  -6   3  -4  183.28    7.10
  -6   3  -4  168.18    7.10
   6   3   4  223.18   20.30
   7  -3   4  157.38   23.10
  -7  -3  -4  155.38   27.20
  -7  -3  -4  138.29   23.10
   7  -3   4  147.99   12.00
   7   3   4  150.18   15.90
   7   3   4  134.49   19.00
   7   3   4  156.18   21.90
   7   3   4   99.59   24.00
   8  -3   4   96.19   12.70
  -8  -3  -4   87.79   19.70
  -8  -3  -4   36.30   21.10
   8   3   4   99.79   18.20
  -8   3  -4   95.99   11.20
   9  -3   4  129.99   34.60
  -9  -3  -4   73.49   22.30
   9  -3   4  103.49   15.40
   9   3   4   94.29   18.20
  -9   3  -4   93.29   11.10
  10  -3   4    9.00   12.50
  10   3   4   -1.30   17.40
 -10  -4   4   61.19   28.80
  -9  -4   4  115.89   29.30
   9   4  -4  110.09   29.80
  -8  -4   4  376.46   31.70
  -8  -4   4  434.06   40.60
   8  -4  -4  390.66   30.10
   8  -4  -4  340.07   23.80
  -8   4   4  357.36   24.70
  -8   4   4  288.07   30.00
   8   4  -4  272.87   42.90
  -7  -4   4  552.44   52.29
   7  -4  -4  599.04   29.80
   7  -4  -4  589.14   33.90
  -7  -4   4  540.55   42.00
  -7  -4   4  576.44   33.50
  -7   4   4  590.34   39.50
   7   4  -4  511.05   44.10
  -7   4   4  564.94   29.60
   7   4  -4  520.35   37.30
   6  -4  -4  612.14   29.90
   6  -4  -4  680.13   34.80
  -6  -4   4  678.33   45.00
  -6  -4   4  700.73   35.50
  -6  -4   4  642.04   54.29
  -6   4   4  676.23   39.60
   6   4  -4  676.13   48.80
   6   4  -4  688.13   35.70
  -6   4   4  660.53   31.20
   6   4  -4  613.04   57.89
   5  -4  -4  586.54   31.30
  -5  -4   4  642.64   52.49
  -5  -4   4  671.23   32.70
   5  -4  -4  604.64   27.90
  -5  -4   4  609.74   40.20
  -5   4   4  648.54   36.40
   5   4  -4  679.53   44.70
  -5   4   4  652.53   29.50
   5   4  -4  627.94   31.50
   4  -4  -4 1151.78   44.70
   4  -4  -4 1099.19   40.50
  -4  -4   4 1159.38   54.09
  -4  -4   4 1163.98   70.19
  -4  -4   4 1196.18   44.80
  -4   4   4 1190.38   42.60
   4   4  -4 1010.20   69.09
   4   4  -4 1148.39   57.79
  -4   4   4 1140.99   49.10
   4   4  -4 1144.29   43.70
   3  -4  -4 2099.29   63.59
  -3  -4   4 2030.80   96.39
  -3  -4   4 2158.28   85.29
   3  -4  -4 2077.49   67.09
  -3  -4   4 2024.80   65.29
  -3   4   4 2106.09   54.69
  -3   4   4 2018.60   65.09
  -3   4   4 2089.19   70.99
   3   4  -4 2161.48   64.59
   3   4  -4 2110.79   78.79
   2  -4  -4 1745.03   58.49
  -2  -4   4 1836.02   85.49
  -2  -4   4 1655.03   62.19
   2  -4  -4 1795.52   55.89
  -2  -4   4 1721.03   54.89
   2   4  -4 1862.51   53.49
  -2   4   4 1674.33   59.19
   2   4  -4 1711.63   65.09
  -2   4   4 1744.03   49.90
  -2   4   4 1718.43   57.39
  -2   4   4 1749.03   51.89
   2   4  -4 1870.41   87.29
   1  -4  -4 2014.40   66.99
  -1  -4   4 2085.89   60.69
  -1  -4   4 2118.39   93.19
   1  -4  -4 2081.89   64.79
  -1  -4   4 2148.19   67.79
   1   4  -4 2084.49   55.99
   1   4  -4 2064.89   69.59
  -1   4   4 2143.39   60.69
  -1   4   4 2127.09   70.49
  -1   4   4 2073.59   67.19
   1   4  -4 2088.29   56.39
   0  -4   4 1641.34   50.39
   0  -4   4 1602.44   47.00
   0  -4  -4 1635.74   54.39
   0  -4  -4 1625.74   56.89
   0  -4   4 1739.43   80.09
   0  -4   4 1582.94   51.29
   0   4   4 1577.14   49.60
   0   4   4 1596.54   64.59
   0   4   4 1631.64   57.89
   0   4  -4 1624.04   75.59
   0   4  -4 1650.03   53.79
   0   4   4 1639.64   51.69
   1  -4   4 1351.06   39.60
  -1  -4  -4 1305.27   50.89
   1  -4   4 1293.37   46.10
   1  -4   4 1351.66   38.00
  -1  -4  -4 1316.07   48.20
   1  -4   4 1285.97   68.59
   1   4   4 1332.27   52.49
   1   4   4 1335.77   46.60
   1   4   4 1426.86   45.60
   1   4   4 1414.66   63.29
   2  -4   4 1182.78   31.50
   2  -4   4 1241.18   65.19
  -2  -4  -4 1265.87   50.39
  -2  -4  -4 1090.39   44.20
   2  -4   4 1160.48   45.00
  -2  -4  -4 1204.98   57.69
   2   4   4 1213.48   42.90
   2   4   4 1105.39   44.00
   2   4   4 1130.19   61.29
   3  -4   4 1190.38   30.20
   3  -4   4 1222.88   49.50
  -3  -4  -4 1104.49   51.19
   3  -4   4 1283.77   67.59
  -3  -4  -4 1302.57   62.49
   3   4   4 1329.07   49.30
   3   4   4 1165.88   66.49
   3   4   4 1285.27   47.00
   4  -4   4 1123.99   63.49
  -4  -4  -4 1176.88   54.09
  -4  -4  -4 1150.38   60.89
   4  -4   4 1127.79   49.80
   4   4   4 1260.87   72.49
   4   4   4 1135.39   45.60
   4   4   4 1043.20   51.99
  -5  -4  -4  541.65   36.40
  -5  -4  -4  497.45   40.00
   5  -4   4  572.74   34.60
   5  -4   4  538.15   44.40
   5   4   4  499.75   31.30
   5   4   4  534.35   30.40
  -6  -4  -4  258.17   36.20
   6  -4   4  251.87   24.80
   6  -4   4  302.17   13.90
  -6  -4  -4  275.97   26.70
   6  -4   4  266.87   32.20
   6   4   4  246.78   23.10
   6   4   4  298.57   23.20
   6   4   4  310.97   40.70
   7  -4   4  125.59   10.60
  -7  -4  -4   81.79   20.10
   7  -4   4  158.98   30.70
  -7  -4  -4  145.19   26.40
   7  -4   4   79.49   14.90
   7   4   4  130.89   19.60
   7   4   4  133.79   19.50
   7   4   4  126.19   37.40
   8  -4   4  156.38   33.50
  -8  -4  -4  145.49   32.10
   8   4   4  151.68   21.90
   8   4   4  171.68   21.00
   9  -4   4   97.99   14.70
  -9  -4  -4  109.79   27.50
   9  -4   4  110.89   32.60
   9  -4   4   98.59   28.90
   9   4   4   80.89   17.60
  10  -4   4   75.09   38.10
   9  -5  -4   12.50   12.10
   9   5  -4   25.30   26.70
  -8  -5   4   -7.00   16.40
   8  -5  -4   -8.20    7.00
   8  -5  -4   -6.80    7.90
   8   5  -4   11.60   17.20
   7  -5  -4   -0.60    6.10
  -7  -5   4  -17.90   11.80
  -7  -5   4  -14.90   12.40
   7  -5  -4   10.10    7.50
  -7  -5   4    9.70    7.90
   7   5  -4    5.00    8.90
  -7   5   4    4.40    6.20
  -7   5   4   22.70    8.90
   7   5  -4    3.00   14.50
   6  -5  -4   41.40    9.30
  -6  -5   4   25.70   14.20
  -6  -5   4   14.80   13.30
   6  -5  -4   45.30   10.30
  -6  -5   4   36.10    9.30
  -6   5   4   55.09   13.80
   6   5  -4   46.20   16.50
  -6   5   4   55.49    9.60
   6   5  -4   23.80   21.60
   6   5  -4   39.70   11.10
   5  -5  -4   16.30    5.60
  -5  -5   4   -1.90    3.70
   5  -5  -4    1.20    4.90
  -5  -5   4   13.30    9.80
  -5   5   4    4.50    5.00
   5   5  -4   -2.80    7.80
  -5   5   4    5.10    4.60
   5   5  -4    2.40    5.10
   4  -5  -4   13.00    5.60
   4  -5  -4   15.10    5.50
  -4  -5   4   33.70   16.20
  -4  -5   4   12.60    5.00
  -4  -5   4    7.00    7.40
  -4   5   4   16.10    6.30
   4   5  -4   18.50    5.80
  -4   5   4    8.80    5.20
   4   5  -4   13.50    5.40
   4   5  -4   32.60   11.80
  -3  -5   4   16.00    7.20
  -3  -5   4   12.40    5.00
  -3  -5   4   -9.30    7.60
   3  -5  -4    8.80    4.20
  -3   5   4    5.20    3.80
   3   5  -4    3.70    4.30
  -3   5   4   12.30    4.80
   3   5  -4   13.70    8.60
   3   5  -4    2.90    3.60
   3   5  -4    5.50    4.00
  -2  -5   4   -3.60    2.20
  -2  -5   4    4.20    3.90
   2  -5  -4    4.80    3.30
  -2  -5   4   -5.40    6.50
   2  -5  -4    4.10    4.20
  -2   5   4    4.10    3.20
  -2   5   4   -7.00    2.90
   2   5  -4   -1.10    2.30
   2   5  -4   10.70    8.70
  -2   5   4   -3.00    1.50
  -2   5   4   -1.20    1.60
  -2   5   4   -1.90    2.60
   2   5  -4   -9.90    4.30
   2   5  -4   -0.90    2.30
  -1  -5   4    8.30    3.30
  -1  -5   4    7.70    4.50
  -1  -5   4    9.30    7.00
   1  -5  -4    0.00    2.90
   1  -5  -4    5.50    4.30
  -1   5   4    6.70    2.60
  -1   5   4    0.40    2.40
  -1   5   4   -0.50    3.30
   1   5  -4    3.50    1.70
   1   5  -4    8.10    7.50
   1   5  -4   12.10    5.30
   0  -5   4   74.79   10.20
   0  -5  -4   76.19   13.00
   0  -5  -4   65.29   11.20
   0  -5   4   59.39   15.60
   0  -5   4   59.69    6.60
   0  -5   4   66.79   10.50
   0   5  -4   76.29   20.60
   0   5   4   59.99    9.20
   0   5   4   63.79    7.40
   0   5   4   45.50   14.50
   0   5   4   78.69   12.90
   1  -5   4   28.90    5.50
  -1  -5  -4   32.80   11.30
  -1  -5  -4   17.20    6.30
   1  -5   4   35.00    5.60
  -1  -5  -4   47.80   10.20
   1  -5   4   17.00   10.50
   1  -5   4   27.00    4.80
   1  -5   4   33.50    8.00
   1   5   4   32.20    7.20
   1   5   4   32.60    6.60
   1   5   4   16.30   10.30
   2  -5   4   59.89    9.80
  -2  -5  -4  104.59   20.80
  -2  -5  -4   42.60   10.20
   2  -5   4   77.49    5.40
   2  -5   4   90.89   24.30
   2   5   4   68.99   19.80
   2   5   4   71.59   12.00
   3  -5   4  296.47   21.70
   3  -5   4  279.07    9.50
   3  -5   4  309.47   33.20
  -3  -5  -4  307.27   25.70
  -3  -5  -4  277.77   29.00
   3   5   4  299.97   20.30
   3   5   4  265.67   20.60
   3   5   4  293.67   33.80
   4  -5   4   20.00    6.70
   4  -5   4   46.30   19.10
  -4  -5  -4   16.90    9.70
  -4  -5  -4   27.70   11.10
   4   5   4   35.30    9.90
   5  -5   4   52.39   16.50
   5  -5   4   22.40    7.50
  -5  -5  -4   28.90   13.60
  -5  -5  -4   54.79   15.20
   5  -5   4   28.10    3.00
   5   5   4   36.50    9.20
   5   5   4   25.00   14.90
   5   5   4   10.70    8.00
   6  -5   4   95.39   25.10
  -6  -5  -4  101.09   25.90
   6  -5   4   71.89   15.50
   6  -5   4  104.89    7.20
  -6  -5  -4  116.19   21.60
   6   5   4   90.09   31.20
   6   5   4  107.29   18.00
   6   5   4   84.39   14.60
   7  -5   4   57.19   21.60
  -7  -5  -4   42.80   18.50
   7  -5   4   54.99    7.60
   7   5   4   54.29   13.00
   7   5   4   34.80   10.30
  -8  -5  -4   42.00   19.70
   8  -5   4   47.30    9.10
   8  -5   4    3.20   20.80
   8   5   4   25.10   10.60
   9  -5   4   12.70   24.80
  -9  -5  -4   47.20   27.90
   8  -6  -4  120.29   18.40
  -8  -6   4   86.29   25.20
   7  -6  -4  162.38   17.10
  -7  -6   4   96.99   25.50
  -7  -6   4  107.59   38.90
   7  -6  -4  121.19   17.80
   7   6  -4  145.59   25.10
  -7   6   4  125.09    9.30
   6  -6  -4  291.97   20.60
   6  -6  -4  256.57   19.70
  -6  -6   4  238.88   34.90
   6   6  -4  279.27   43.50
  -6   6   4  280.27   27.80
  -6   6   4  269.37   16.20
   6   6  -4  227.08   22.80
  -5  -6   4  250.77   47.80
   5  -6  -4  255.37   19.80
  -5  -6   4  207.28   20.00
  -5  -6   4  243.68   28.90
   5  -6  -4  249.88   18.70
   5   6  -4  278.67   40.20
  -5   6   4  239.58   16.70
   5   6  -4  236.98   21.00
  -5   6   4  239.18   23.90
   5   6  -4  167.48   38.00
   5   6  -4  252.47   23.80
   4  -6  -4  417.16   24.70
  -4  -6   4  363.06   31.40
  -4  -6   4  348.97   42.10
  -4  -6   4  389.56   25.90
   4   6  -4  408.06   23.60
   4   6  -4  271.77   51.19
  -4   6   4  414.16   22.50
   4   6  -4  356.86   35.50
  -4   6   4  391.16   29.70
   4   6  -4  398.16   24.10
   3  -6  -4  570.84   32.30
  -3  -6   4  532.15   51.19
  -3  -6   4  584.74   30.30
   3  -6  -4  612.24   31.40
  -3  -6   4  573.74   37.10
   3   6  -4  639.94   57.89
  -3   6   4  581.04   29.20
  -3   6   4  579.04   34.80
   3   6  -4  556.44   26.20
   3   6  -4  595.94   27.60
  -2  -6   4  494.25   47.10
  -2  -6   4  452.85   24.60
  -2  -6   4  442.56   29.00
  -2  -6   4  448.76   30.40
   2  -6  -4  477.15   28.20
   2   6  -4  490.65   20.40
  -2   6   4  474.15   29.30
   2   6  -4  467.75   19.50
  -2   6   4  448.26   25.60
  -2   6   4  452.05   26.90
  -1  -6   4  466.75   28.10
  -1  -6   4  463.65   26.90
   1  -6  -4  487.55   28.90
  -1  -6   4  435.36   22.50
   1  -6  -4  430.76   25.70
  -1   6   4  472.75   28.00
  -1   6   4  448.86   18.80
   1   6  -4  402.46   42.30
  -1   6   4  446.66   18.20
  -1   6   4  467.05   32.70
   0  -6   4  700.53   31.20
   0  -6   4  715.73   32.90
   0  -6   4  721.23   54.49
   0  -6  -4  773.32   38.80
   0  -6   4  706.03   28.70
   0  -6  -4  734.93   44.90
   0  -6  -4  754.22   36.30
   0   6   4  773.82   30.50
   0   6   4  665.03   45.90
   0   6   4  765.62   35.30
   0   6   4  710.43   28.40
   0   6  -4  738.33   55.09
   1  -6   4  391.96   18.30
  -1  -6  -4  346.37   24.30
  -1  -6  -4  380.76   27.00
   1  -6   4  389.56   40.00
   1  -6   4  382.76   17.70
   1   6   4  405.16   37.10
   1   6   4  377.96   22.20
   1   6   4  375.16   20.50
   2  -6   4  355.16   23.80
  -2  -6  -4  367.86   33.70
  -2  -6  -4  381.06   28.30
   2  -6   4  372.96   15.70
   2  -6   4  402.56   40.20
   2   6   4  331.47   22.50
   2   6   4  380.56   22.20
   2   6   4  379.96   38.70
   3  -6   4  400.76   14.00
   3  -6   4  339.87   37.50
  -3  -6  -4  348.57   29.10
   3  -6   4  388.76   26.60
  -3  -6  -4  339.57   35.20
   3   6   4  420.36   26.60
  -4  -6  -4  224.58   24.80
   4  -6   4  254.27   23.10
  -4  -6  -4  258.77   31.90
   4  -6   4  234.78   37.40
   4   6   4  301.27   53.59
   4   6   4  274.77   23.60
   4   6   4  244.48   21.10
  -5  -6  -4  180.38   31.30
   5  -6   4  279.17   44.90
   5  -6   4  216.88   24.10
  -5  -6  -4  219.78   26.50
   5   6   4  258.67   23.60
   5   6   4  208.48   41.40
   5   6   4  209.48   22.20
   6  -6   4   34.60   18.40
  -6  -6  -4   56.09   24.80
  -6  -6  -4   56.19   17.80
   6   6   4   56.39   14.90
  -7  -6  -4  122.69   32.20
   7  -6   4  118.09    8.60
   7  -6   4  223.68   42.70
   7  -6   4  124.59    8.70
  -7  -6  -4   83.49   24.40
   7   6   4  110.09   15.00
   8  -6   4  -27.80   22.90
  -8  -6  -4   71.09   29.20
   7  -7  -4   24.80   11.90
   7  -7  -4   18.00    6.40
  -7  -7   4    2.80   21.40
   7   7  -4   18.00   11.90
  -6  -7   4    6.80   16.60
   6  -7  -4   -5.90    7.20
   6  -7  -4   -2.70    6.70
  -6  -7   4   20.70   12.60
   6   7  -4    1.00    8.50
   6   7  -4    7.10   10.70
  -5  -7   4    6.60    9.60
  -5  -7   4   13.90   12.30
   5  -7  -4   -9.10    6.80
  -5  -7   4    3.20    7.00
   5  -7  -4   10.30    7.20
  -5  -7   4  -10.50   14.60
   5   7  -4    3.50    8.40
   5   7  -4   -2.30    7.10
  -5   7   4   -3.70    7.00
   4  -7  -4   -2.40    5.80
   4  -7  -4    6.40    6.50
  -4  -7   4   -0.20    7.90
  -4  -7   4  -23.30   13.60
  -4  -7   4  -20.70    9.90
  -4  -7   4   -2.20    6.00
   4   7  -4   15.40   21.70
   4   7  -4    5.70    6.20
  -4   7   4   10.60    7.40
   4   7  -4    8.20    6.30
  -3  -7   4   -5.30    5.10
  -3  -7   4    0.00    8.10
   3  -7  -4    2.10    5.40
   3  -7  -4    2.10    5.80
  -3  -7   4  -20.60   10.60
  -3  -7   4    0.70    6.20
   3   7  -4    6.00    4.70
   3   7  -4    4.20    3.90
  -3   7   4    4.90    6.20
   3   7  -4   23.00   16.30
   2  -7  -4   -2.50    5.40
  -2  -7   4   -2.90   11.60
   2  -7  -4    5.30    6.00
  -2  -7   4   -0.70    6.80
  -2  -7   4    6.80    4.90
   2  -7  -4   12.60    9.20
  -2  -7   4  -12.70    5.00
   2   7  -4   -1.20    8.80
  -2   7   4    6.90    4.80
  -1  -7   4    8.50    9.40
   1  -7  -4    2.90    5.90
   1  -7  -4    4.60    5.80
   1  -7  -4    5.00    9.40
  -1  -7   4    5.00    4.70
  -1  -7   4    8.00    6.70
  -1  -7   4   16.60    6.90
   1   7  -4   12.10   11.80
  -1   7   4   -8.90    8.30
  -1   7   4    6.00    5.00
   0  -7   4   30.20   18.70
   0  -7  -4   26.00   12.30
   0  -7   4   23.70    6.10
   0  -7   4   28.00    7.20
   0  -7  -4   17.50    7.40
   0  -7  -4   20.70    9.70
   0  -7   4   39.40    9.50
   0   7   4   24.80    6.30
   0   7   4   30.50    9.00
   0   7   4   53.09   16.80
   0   7   4   33.90    6.30
  -1  -7  -4   14.40   10.40
  -1  -7  -4   -0.20    6.00
   1  -7   4    2.70    3.90
   1  -7   4    5.20    4.20
   1  -7   4    5.20    3.90
   1  -7   4    2.60   12.20
   1   7   4   -0.30   10.70
   1   7   4    5.20    5.00
   1   7   4    2.50    5.30
   1   7   4    8.70    5.10
  -2  -7  -4    5.00   11.10
   2  -7   4    6.80    3.50
   2  -7   4   11.00    9.70
  -2  -7  -4   -2.70    6.50
   2   7   4    3.40    4.90
   2   7   4   -0.70    4.80
  -3  -7  -4   44.50   15.30
  -3  -7  -4   30.50   11.60
   3  -7   4   22.10   15.20
   3   7   4   25.10    9.10
   3   7   4   37.90    9.60
   3   7   4   17.60   17.60
   4  -7   4   19.80   15.10
  -4  -7  -4   33.20   12.90
  -4  -7  -4   41.90   19.10
   4   7   4   35.00   25.60
   4   7   4   20.10    8.60
   4   7   4   35.20   10.70
   5  -7   4   21.90   15.20
  -5  -7  -4   24.80   14.50
  -5  -7  -4   20.40   18.80
   5   7   4   23.80   11.10
  -6  -7  -4   52.79   29.90
  -6  -7  -4   35.90   16.00
   6  -7   4    6.00   18.10
   7  -7   4   23.40   28.40
   5  -8  -4   67.39   13.50
  -5  -8   4   90.79   25.90
   5  -8  -4   83.69   16.20
   5   8  -4   85.69   16.80
   5   8  -4   91.29   16.60
   4  -8  -4   67.49   13.20
   4  -8  -4   49.30   13.80
  -4  -8   4   61.19   23.70
   4  -8  -4   40.00   11.80
   4   8  -4   66.19   12.50
  -4   8   4   39.70   13.50
   3  -8  -4   91.19   17.90
  -3  -8   4   48.70   22.10
  -3  -8   4  167.48   38.00
   3  -8  -4  151.98   22.90
  -3  -8   4  108.49   22.70
   3  -8  -4   84.19   15.00
  -3   8   4  122.19   21.10
   3   8  -4   83.79   11.10
   2  -8  -4   39.40   12.10
  -2  -8   4   79.49   18.10
   2  -8  -4   52.19   20.80
  -2  -8   4   66.39   25.80
  -2  -8   4   77.39   14.30
  -2  -8   4   65.89   15.00
   2  -8  -4   50.79   13.80
  -2   8   4   77.29   17.20
   2   8  -4   51.49   26.20
  -1  -8   4  122.29   19.80
   1  -8  -4  102.49   21.30
   1  -8  -4   98.89   17.50
   1  -8  -4  100.29   25.60
  -1  -8   4   85.89   26.20
  -1  -8   4  128.49   17.70
  -1   8   4  113.39   17.70
  -1   8   4  128.59   25.10
   1   8  -4  107.69   31.30
   0  -8   4   79.29   13.30
   0  -8   4  107.19   28.90
   0  -8  -4  128.59   20.70
   0  -8  -4  102.79   21.10
   0   8   4   91.99    6.30
   0   8   4   94.29   16.20
   0   8   4   52.89   21.70
   1  -8   4  213.38   43.50
   1  -8   4  126.29   10.40
  -1  -8  -4  166.28   24.40
  -1  -8  -4  142.89   27.60
   1   8   4  122.19   13.60
   1   8   4  124.19   18.00
   1   8   4  157.98   14.00
   2  -8   4   63.59   24.60
  -2  -8  -4   51.99   14.90
  -2  -8  -4   64.79   21.80
   2   8   4   55.29   26.20
   2   8   4  104.89   15.50
   2   8   4   66.89   12.90
   2   8   4   68.69   12.80
   3  -8   4   15.90   19.60
  -3  -8  -4   -0.80   19.00
   3   8   4    0.00   20.20
   3   8   4   24.10    9.10
   3   8   4   37.60   11.90
   3   8   4   43.00   12.20
  -4  -8  -4    6.40   27.10
   4  -8   4   87.59   25.80
   4   8   4   52.29   10.50
   4   8   4   86.69   19.50
   4   8   4  112.79   19.10
   5  -8   4   -4.40   20.10
   4  -9  -4   26.40   12.50
   2  -9  -4   -4.20   15.50
  -2   9   4    7.00   11.80
   1  -9  -4    4.10   29.70
  -1  -9   4   31.50   21.50
  -1  -9   4   17.30   12.20
   0  -9   4  -10.50   22.00
   0  -9  -4  -26.40   18.80
   0   9   4   13.00   10.60
   1   9   4    8.20   10.30
   2  -9   4   25.30   23.70
   2   9   4    4.60   10.40
   2   9   4    4.60   10.70
   3  -9   4   -4.90   23.40
   3   9   4   16.20   13.50
   4   9   4   20.80   17.10
  10   0  -5   23.10   23.40
  10   0  -5  -11.10   16.30
  -9   0   5   -4.90   10.40
  -9   0   5   -5.00    5.40
   9   0  -5   -6.60   12.70
   9   0  -5  -18.60    9.80
  -8   0   5   -7.30    8.10
  -8   0   5    0.30    3.90
   8   0  -5    4.00    5.60
   8   0  -5    4.20    8.90
   8   0  -5    5.20    6.90
  -7   0   5   -0.70    5.30
  -7   0   5   -2.60    3.60
  -7   0   5    1.10    3.10
   7   0  -5    0.10    3.50
   7   0  -5    0.40    6.50
   7   0  -5   -7.80    7.10
  -6   0   5   11.70    6.60
   6   0  -5    3.40    3.50
  -6   0   5   -3.50    3.80
   6   0  -5   -8.30    3.60
  -6   0   5   -3.50    2.00
   6   0  -5   -1.40    4.80
  -6   0   5    0.60    2.50
   5   0  -5    3.90    4.30
   5   0  -5    0.00    3.40
  -5   0   5    1.70    3.20
   5   0  -5    0.40    2.50
  -5   0   5    3.10    4.70
  -5   0   5    3.10    2.40
  -5   0   5   -2.60    1.70
  -4   0   5    1.80    3.20
  -4   0   5   -3.10    2.90
   4   0  -5   -2.70    2.70
  -4   0   5    1.60    2.00
  -4   0   5    0.80    2.10
   4   0  -5   -1.30    3.10
   4   0  -5   -1.20    1.40
  -3   0   5    1.30    2.70
  -3   0   5   -4.00    1.60
   3   0  -5    0.30    2.10
   3   0  -5   -0.10    1.30
   3   0  -5    1.90    2.90
  -3   0   5   -3.10    1.40
   2   0  -5    4.10    2.90
  -2   0   5    0.60    1.80
   2   0  -5    0.40    1.70
  -2   0   5   -1.10    1.80
   2   0  -5    0.50    2.20
  -2   0   5   -1.60    1.00
   1   0  -5    1.10    1.80
   1   0  -5    2.30    2.20
  -1   0   5    0.00    1.10
  -1   0   5    0.40    2.40
  -1   0   5   -2.30    1.60
   0   0  -5   -2.00    1.20
   0   0   5    0.70    1.50
   0   0  -5    2.60    1.70
   1   0   5    1.00    1.40
  -1   0  -5    1.80    1.50
  -1   0  -5    1.30    1.60
   1   0   5    1.50    1.60
  -2   0  -5    4.60    2.60
   2   0   5    3.30    2.20
   2   0   5    2.10    1.70
   3   0   5    1.60    2.00
   3   0   5   -0.20    2.00
  -3   0  -5    1.40    1.90
  -4   0  -5    2.70    3.60
  -4   0  -5   -4.10    2.40
   4   0   5   -1.00    2.00
   5   0   5   -0.50    2.70
  -5   0  -5    1.60    3.70
  -5   0  -5   -0.20    4.00
   6   0   5   -4.00    3.20
  -6   0  -5    2.20    4.00
   6   0   5    0.80    3.40
   7   0   5    0.50    5.20
   7   0   5   -5.10    5.10
   7   0   5    5.50    8.60
  -7   0  -5  -14.00    7.00
   7   0   5   -6.70    4.10
   8   0   5   -0.30    6.80
   8   0   5   -1.10    6.60
   8   0   5    6.10    6.60
  -8   0  -5  -12.90    9.70
   8   0   5  -14.20   12.60
  -9   0  -5   -8.30   10.10
   9   0   5    9.80   10.90
  11  -1  -5   22.20   28.60
  10  -1  -5   -3.50   15.30
  10   1  -5  -10.40   14.30
  10   1  -5    8.50   18.90
   9  -1  -5    1.90   12.50
  -9  -1   5   16.90   13.10
   9  -1  -5   14.70   10.40
   9  -1  -5   10.80    9.60
  -9  -1   5   11.40    6.80
   9   1  -5   14.70   10.30
   9   1  -5    8.80   15.10
   9   1  -5   16.30   13.40
   8  -1  -5   24.60    8.10
   8  -1  -5   24.40   13.00
  -8  -1   5   19.80    6.30
   8  -1  -5   39.80   13.60
  -8  -1   5   21.30   11.70
  -8   1   5   23.70    6.30
   8   1  -5   16.40   11.30
   8   1  -5   33.80    9.20
  -8   1   5   20.30   10.10
  -8   1   5    8.10    7.00
   8   1  -5   15.00   12.60
  -7  -1   5   12.30    8.10
   7  -1  -5    9.30    7.30
   7  -1  -5   16.50    6.30
  -7  -1   5   14.50    9.20
  -7  -1   5    7.20    5.00
   7  -1  -5   -2.40    7.30
   7   1  -5    3.30   11.50
  -7   1   5    7.60    3.60
  -7   1   5   -3.40    6.30
  -7   1   5    1.70    4.10
   7   1  -5   -2.50    4.20
   7   1  -5   -2.50    8.30
  -6  -1   5   33.80    7.10
  -6  -1   5   48.80   13.00
   6  -1  -5   22.40    8.60
   6  -1  -5   28.50   11.40
   6  -1  -5   35.80   12.00
  -6  -1   5   49.50   15.60
  -6  -1   5   52.49    8.90
  -6   1   5   50.39   11.00
   6   1  -5   36.00   11.90
  -6   1   5   27.00    6.50
  -6   1   5   31.10    8.50
   6   1  -5   49.80    9.90
   6   1  -5   11.80    7.90
  -5  -1   5  164.28   20.70
  -5  -1   5  162.68   11.80
  -5  -1   5  143.29   20.20
  -5  -1   5  137.29   12.30
   5  -1  -5  157.48   13.10
   5  -1  -5  164.28   17.20
   5  -1  -5  134.89   15.50
  -5   1   5  134.99   11.10
   5   1  -5  150.98   27.50
   5   1  -5  146.09   13.10
   5   1  -5  111.89   17.90
  -5   1   5  148.89   15.00
  -5   1   5  146.09   13.30
  -4  -1   5    1.20    2.80
   4  -1  -5   -1.10    2.50
  -4  -1   5    0.60    1.80
   4  -1  -5    2.80    2.10
  -4  -1   5    2.20    1.60
   4  -1  -5    0.20    3.20
  -4  -1   5    8.90    6.30
  -4   1   5   -0.20    2.50
   4   1  -5    2.10    2.30
   4   1  -5   -7.20    4.30
   4   1  -5    0.90    3.30
  -4   1   5   -0.50    2.40
  -4   1   5   -2.30    1.30
  -4   1   5   -0.60    1.70
   3  -1  -5    8.40    4.50
   3  -1  -5    8.10    3.80
   3  -1  -5    6.50    2.70
  -3  -1   5    8.90    5.20
  -3  -1   5   14.10    4.10
  -3   1   5    7.20    3.90
   3   1  -5    8.00    3.20
  -3   1   5   12.70    4.40
  -3   1   5    5.10    2.40
   3   1  -5    0.10    2.70
   3   1  -5    5.60    4.00
  -2  -1   5  571.14   35.80
  -2  -1   5  553.44   23.00
   2  -1  -5  546.05   23.00
   2  -1  -5  579.74   26.90
  -2   1   5  546.05   26.90
  -2   1   5  602.24   26.60
   2   1  -5  536.15   34.30
   2   1  -5  553.14   27.50
  -2   1   5  544.95   22.60
   1  -1  -5    9.00    3.00
  -1  -1   5    0.90    4.00
  -1  -1   5    7.00    2.80
  -1  -1   5    8.30    3.70
   1  -1  -5    7.70    3.60
   1   1  -5    9.50    3.70
   1   1  -5    6.70    3.70
  -1   1   5    7.40    3.10
   1   1  -5    8.80    2.90
  -1   1   5    7.80    2.80
   0  -1   5   29.70   10.10
   0  -1  -5   29.50    6.00
   0  -1  -5   32.80    5.50
   0  -1   5   24.30    5.30
   0  -1   5   28.00    4.70
   0   1  -5   25.10    4.30
   0   1  -5   32.80    6.30
   0   1   5   30.70    6.50
   0   1   5   21.10    4.50
   1  -1   5  329.07   14.80
   1  -1   5  352.16   16.80
  -1  -1  -5  353.26   17.30
  -1  -1  -5  343.87   19.10
   1   1   5  370.16   17.70
  -1   1  -5  358.66   13.70
   2  -1   5  286.07   15.10
  -2  -1  -5  285.17   17.80
  -2  -1  -5  276.37   15.50
   2  -1   5  274.07   13.40
   2   1   5  275.57   17.70
  -2   1  -5  285.97   14.90
   2   1   5  304.87   16.50
  -3  -1  -5   97.39   11.00
   3  -1   5   89.19    7.80
   3  -1   5  102.39    9.20
  -3   1  -5  108.59    9.20
   3   1   5  106.89   11.60
   3   1   5  100.69    9.70
   4  -1   5   12.60    3.80
  -4  -1  -5    9.00    5.60
  -4  -1  -5   14.20    5.60
  -4   1  -5   16.30    5.60
   4   1   5   16.60    5.20
   5  -1   5    7.90    3.50
  -5  -1  -5    1.20    4.70
  -5  -1  -5    7.30    5.90
  -5   1  -5    7.20    4.50
  -5   1  -5   -0.20    4.30
   5   1   5   11.60    5.10
   6  -1   5   12.10    4.40
  -6  -1  -5    4.20    5.50
   6  -1   5    4.70    3.80
  -6  -1  -5   -6.60    6.00
   6   1   5    1.90    4.40
   6   1   5   12.10    4.70
   6   1   5   -0.30    9.00
  -6   1  -5    6.00    5.10
   7  -1   5    5.60    5.40
  -7  -1  -5    7.30    6.80
  -7  -1  -5   -0.70    8.00
   7  -1   5   -0.90    4.00
   7  -1   5   -2.40    5.00
  -7   1  -5    4.10    5.00
   7   1   5    0.40    5.50
   7   1   5   -0.50   12.40
  -7   1  -5   -6.60    7.00
   7   1   5    3.10    5.10
   8  -1   5   -1.10    4.90
   8  -1   5   -6.10    5.90
   8  -1   5    8.50    6.30
  -8  -1  -5    5.70   11.80
  -8  -1  -5   18.90   11.10
  -8   1  -5    1.30    8.80
   8   1   5   -6.70   11.80
   8   1   5   12.10    7.90
  -8   1  -5   12.80    7.90
   8   1   5    1.00    6.70
   8   1   5   -0.90    6.80
  -9  -1  -5  -20.60   10.30
   9  -1   5   12.80    8.90
   9  -1   5    9.00    8.20
  -9   1  -5   25.40   11.90
   9   1   5    8.00   10.40
   9   1   5   -5.60    9.40
  10   2  -5    1.30   20.50
   9  -2  -5   -3.80    8.00
  -9  -2   5    7.70   13.40
  -9  -2   5   12.20    6.80
   9  -2  -5    3.30   10.70
   9  -2  -5    1.20   10.60
   9   2  -5   17.80   15.00
   9   2  -5   -0.60   13.50
   8  -2  -5    0.10    7.10
  -8  -2   5   12.70    6.10
   8  -2  -5   10.70    8.10
  -8  -2   5   28.50   11.70
   8  -2  -5   -0.20    5.10
   8   2  -5   -4.00    6.10
   8   2  -5   13.50   10.00
  -8   2   5   -0.20    5.70
   8   2  -5   30.40   12.30
   7  -2  -5   69.09   12.80
  -7  -2   5   54.99   16.00
  -7  -2   5   46.10    9.90
   7  -2  -5   85.39   17.30
   7  -2  -5   47.70   12.10
  -7  -2   5   63.79   17.90
   7   2  -5   63.29   22.20
   7   2  -5   59.89   16.60
  -7   2   5   50.89    7.90
  -7   2   5   56.99   12.70
  -6  -2   5   -7.20    4.60
  -6  -2   5    1.60    5.80
   6  -2  -5    0.20    4.70
   6  -2  -5   -8.50    3.50
  -6  -2   5   -2.20    3.10
   6  -2  -5    4.90    5.70
   6   2  -5   -1.80    5.70
   6   2  -5   -4.80    7.30
  -6   2   5   -3.90    2.70
  -6   2   5    1.70    2.60
  -5  -2   5    7.10    6.80
   5  -2  -5   21.00    5.60
   5  -2  -5   13.30    5.90
  -5  -2   5    8.30    4.80
  -5  -2   5    7.40    3.60
   5  -2  -5   12.80    4.40
  -5  -2   5   14.00    3.70
   5   2  -5   14.40    7.60
   5   2  -5   11.50    8.90
  -5   2   5   12.30    5.00
  -5   2   5   14.10    3.90
   4  -2  -5  255.57   19.50
   4  -2  -5  265.57   16.50
  -4  -2   5  289.57   29.10
  -4  -2   5  297.67   22.70
  -4  -2   5  337.27   19.00
  -4  -2   5  283.87   12.80
  -4   2   5  282.87   19.30
   4   2  -5  307.87   24.60
  -4   2   5  278.67   18.90
  -4   2   5  304.17   15.70
   4   2  -5  325.77   32.20
   4   2  -5  306.47   18.60
   3  -2  -5  783.72   34.00
  -3  -2   5  752.32   46.80
   3  -2  -5  732.93   29.40
  -3  -2   5  746.93   35.60
  -3  -2   5  793.52   30.70
  -3   2   5  782.82   33.10
   3   2  -5  742.13   47.40
  -3   2   5  750.32   28.00
   3   2  -5  755.62   37.40
   3   2  -5  686.33   29.20
  -2  -2   5  151.48   10.90
  -2  -2   5  155.38   13.40
   2  -2  -5  148.99   11.10
   2  -2  -5  142.89   12.60
  -2  -2   5  161.68   26.90
   2   2  -5  143.39   19.00
  -2   2   5  160.08   12.90
   2   2  -5  152.48   14.00
  -2   2   5  149.49   10.40
  -2   2   5  129.29    9.80
   2   2  -5  149.19   10.30
   1  -2  -5   27.10    5.50
  -1  -2   5   15.40    4.70
  -1  -2   5   15.60    7.40
  -1  -2   5   13.10    3.60
   1  -2  -5   32.90    7.40
   1   2  -5   22.20    4.10
  -1   2   5   19.70    5.20
   1   2  -5   14.10    7.30
  -1   2   5   27.30    5.60
   0  -2  -5 1182.98   40.10
   0  -2   5 1100.29   37.70
   0  -2   5 1113.49   35.10
   0  -2  -5 1153.28   42.50
   0  -2   5 1203.88   58.19
   0   2  -5 1186.58   39.70
   0   2   5 1127.39   42.00
   0   2   5 1172.58   39.10
   0   2  -5 1086.59   32.20
  -1  -2  -5   96.89   10.40
   1  -2   5  113.79    8.10
   1  -2   5   98.99   19.30
  -1  -2  -5  101.39    9.60
   1  -2   5   95.19    6.70
  -1   2  -5   89.99    7.90
   1   2   5   95.09   10.50
   1   2   5   98.19    9.30
  -2  -2  -5   57.99    9.90
   2  -2   5   46.00    4.60
   2  -2   5   38.70    5.60
  -2  -2  -5   39.10    7.10
   2   2   5   41.10    7.70
   2   2   5   40.50    8.40
   3  -2   5  257.47   12.30
   3  -2   5  275.37   13.70
  -3  -2  -5  258.07   19.40
  -3   2  -5  243.58   14.30
   3   2   5  271.27   17.80
  -3   2  -5  257.27   12.70
   3   2   5  246.78   19.30
  -4  -2  -5  158.88   19.40
  -4  -2  -5  163.88   16.30
   4  -2   5  164.18   10.40
   4  -2   5  157.58   16.00
  -4   2  -5  155.68   10.30
  -4   2  -5  160.78   11.90
   4   2   5  189.98   15.50
  -5  -2  -5   37.50   12.30
  -5  -2  -5   28.50    9.70
   5  -2   5   28.40    5.90
   5   2   5   33.90    8.40
  -5   2  -5   27.10    6.60
   5   2   5   28.20    7.40
  -5   2  -5   34.40    6.50
  -6  -2  -5   61.19   15.40
   6  -2   5   13.40    7.10
  -6  -2  -5   37.70   11.80
   6  -2   5   30.60    6.50
   6  -2   5   33.30    7.30
   6   2   5   26.50    8.80
   6   2   5   35.80    9.70
  -6   2  -5   27.30    6.70
   7  -2   5  140.89   14.10
  -7  -2  -5  100.19   23.60
   7  -2   5  121.99   12.70
   7  -2   5  139.99   23.40
  -7  -2  -5  117.59   20.80
  -7   2  -5  107.49   12.30
   7   2   5   80.39   34.20
   7   2   5  135.59   18.20
   7   2   5   94.79   16.40
  -7   2  -5  143.29   15.20
   8  -2   5   32.00   12.00
  -8  -2  -5    6.00   11.50
   8  -2   5   11.70    7.40
   8  -2   5   17.10    7.50
   8   2   5   27.20   10.40
  -8   2  -5   21.90    9.80
  -8   2  -5   32.90    8.20
   8   2   5   54.79   12.60
   8   2   5   21.10   11.10
  -9  -2  -5   11.00   15.10
   9  -2   5    5.00    8.30
  -9   2  -5   -8.80    8.70
   9   2   5    1.70   10.40
  10  -2   5    2.90   12.70
  10   3  -5   -0.50   26.10
  -9  -3   5   72.79   21.20
   9  -3  -5   43.00   15.20
  -9  -3   5   51.69   12.60
   9  -3  -5   53.59   13.50
   9   3  -5   12.00   15.90
  -9   3   5   58.69   14.90
  -8  -3   5   80.39   15.00
  -8  -3   5   64.59   18.70
  -8  -3   5   57.29   19.10
   8  -3  -5   96.69   15.30
   8  -3  -5   92.89   18.50
   8   3  -5   82.89   37.10
   8   3  -5   53.59   19.70
   8   3  -5   68.59   14.20
  -8   3   5   63.29   14.20
  -8   3   5   67.89   17.00
  -7  -3   5   -4.70    4.50
  -7  -3   5    4.70    8.00
   7  -3  -5    1.90    4.50
  -7  -3   5   -1.30    8.70
   7  -3  -5    5.10    6.40
   7   3  -5   -3.90    9.80
   7   3  -5    2.60    5.40
  -7   3   5  -12.20    5.50
  -7   3   5    6.50    5.50
   7   3  -5    2.70    7.60
  -6  -3   5  126.09   24.60
   6  -3  -5  115.39   17.50
  -6  -3   5  108.19   20.80
  -6  -3   5  126.19   13.50
  -6   3   5   97.29   15.10
   6   3  -5  114.79   22.50
  -5  -3   5   37.20    8.20
   5  -3  -5   26.00    6.70
   5  -3  -5   20.50    7.50
  -5  -3   5   30.60   10.40
   5   3  -5   32.00    7.70
  -5   3   5   21.00    6.80
   5   3  -5   21.50   10.10
  -5   3   5   30.10    5.10
  -5   3   5   23.50    8.70
   5   3  -5   11.20   10.10
  -4  -3   5  126.39   15.40
  -4  -3   5  117.39   24.50
   4  -3  -5   96.49   11.60
   4  -3  -5  101.39   10.20
  -4  -3   5   90.69   10.50
   4   3  -5  122.79   11.50
  -4   3   5   91.99   10.70
   4   3  -5  139.29   28.80
  -4   3   5   71.09   11.60
  -4   3   5   99.79    8.10
   4   3  -5   74.69   15.30
  -3  -3   5   66.19   16.30
  -3  -3   5   54.69    8.70
  -3  -3   5   60.59   12.00
   3  -3  -5   75.09   11.30
   3  -3  -5   62.59    9.10
  -3   3   5   50.69    9.70
   3   3  -5   71.99   10.20
   3   3  -5   48.80   11.90
  -3   3   5   60.09    6.40
  -2  -3   5  409.76   36.00
  -2  -3   5  416.66   24.40
   2  -3  -5  421.46   23.20
  -2  -3   5  405.26   20.10
   2  -3  -5  399.06   20.50
   2   3  -5  424.26   19.20
  -2   3   5  396.66   15.70
  -2   3   5  396.96   18.70
   2   3  -5  420.96   25.90
  -2   3   5  399.26   22.30
   2   3  -5  432.56   36.60
  -1  -3   5  116.49    9.00
  -1  -3   5  116.69   11.10
   1  -3  -5  121.09   11.90
  -1  -3   5   95.99   21.90
   1  -3  -5  116.99   10.40
   1   3  -5  130.49    8.30
  -1   3   5  127.99   10.00
  -1   3   5  126.59   12.10
   1   3  -5   77.69   15.90
   0  -3  -5   18.80    5.60
   0  -3   5   24.60    5.20
   0  -3   5   30.10   11.10
   0  -3  -5   21.30    5.50
   0   3   5   23.70    6.60
   0   3   5   19.30    4.90
   0   3   5   33.30    8.50
   0   3  -5   25.30    5.50
   0   3  -5   44.90   14.50
   1  -3   5   88.59    7.40
   1  -3   5  139.19   27.40
   1  -3   5  101.39    6.90
  -1  -3  -5  105.89   11.50
  -1  -3  -5  118.69   11.20
   1   3   5  109.59   12.00
  -1   3  -5  126.59    8.90
   1   3   5  118.49   10.80
   1   3   5   82.89   14.30
  -2  -3  -5   59.89   10.00
   2  -3   5   56.79   16.60
   2  -3   5   66.69   11.40
   2  -3   5   51.59    8.10
  -2  -3  -5   63.89   11.90
   2  -3   5   52.99    4.50
   2   3   5   51.59   12.10
  -2   3  -5   66.99    4.80
   2   3   5   48.20   10.70
   2   3   5   46.00    8.90
   3  -3   5   58.69   14.20
   3  -3   5   82.99    5.80
   3  -3   5   72.59   12.00
  -3  -3  -5   93.39   17.70
  -3  -3  -5   80.29   14.60
   3   3   5   76.09   13.50
   3   3   5   85.49   20.10
   3   3   5   82.89   12.20
   4  -3   5   45.00   11.20
  -4  -3  -5   14.80    7.40
  -4  -3  -5   23.30   10.60
   4  -3   5   35.80    5.10
   4   3   5   35.40    8.80
   4   3   5   29.30    7.50
   4   3   5   43.20   15.50
  -5  -3  -5    7.90    8.20
  -5  -3  -5   -5.70    5.00
   5   3   5    8.10    4.90
   6  -3   5   -3.30    2.70
   6  -3   5    5.40    5.20
  -6  -3  -5   -1.90    7.00
  -6  -3  -5    4.60    6.50
   6  -3   5   -0.10    3.20
  -6   3  -5    3.60    1.60
   6   3   5   -8.80    8.60
   6   3   5    3.70    5.10
   6   3   5   -3.30    4.30
   7  -3   5    3.60    6.20
  -7  -3  -5  -13.20    7.70
   7  -3   5   -3.60    3.80
  -7  -3  -5   22.30   13.30
   7   3   5   12.20    6.80
  -7   3  -5    5.90    2.70
   7   3   5    7.10    8.50
   7   3   5   10.10    6.60
  -8  -3  -5   -7.20   12.70
   8  -3   5   -8.00    5.50
   8  -3   5   -3.10    6.00
   8   3   5   -6.10    8.10
   8   3   5    2.80    7.80
   9  -3   5    8.00    9.20
   9  -3   5   21.40    9.00
  -9  -3  -5  -26.30   16.50
   9   3   5   -5.50   11.30
  10  -3   5  -17.80   15.10
  -9  -4   5   36.50   23.30
   9  -4  -5   53.49   12.80
   9   4  -5   16.30   22.20
   8  -4  -5    7.00   11.30
  -8  -4   5   10.30   18.10
  -8  -4   5   26.90   14.70
  -8  -4   5   -0.70    8.40
   8  -4  -5    9.50    7.10
   8   4  -5   13.90   14.40
  -8   4   5   -3.70    6.00
   7  -4  -5   63.99   11.80
  -7  -4   5   51.79   16.40
  -7  -4   5   76.49   14.00
   7  -4  -5   54.19   13.50
  -7  -4   5   36.60   17.20
   7   4  -5   60.29   27.00
  -7   4   5   60.19   14.00
   7   4  -5   71.09   21.60
  -7   4   5   49.00   12.40
   6  -4  -5   98.29   13.50
  -6  -4   5  115.39   16.40
   6  -4  -5   78.49   14.40
  -6  -4   5   97.59   19.50
  -6  -4   5   80.99   20.60
  -6   4   5   70.39   12.70
   6   4  -5  107.09   21.90
  -6   4   5   77.59   16.30
   6   4  -5   85.89   24.70
   6   4  -5   84.49   14.40
   5  -4  -5  123.59   12.30
   5  -4  -5  113.69   16.20
  -5  -4   5  129.39   13.70
  -5  -4   5  103.99   25.60
  -5  -4   5  116.69   19.60
  -5   4   5  122.39    4.90
   5   4  -5  120.79   22.40
   5   4  -5  123.19   13.50
  -5   4   5  145.79   16.40
  -4  -4   5   69.99   21.20
   4  -4  -5   66.19   12.00
  -4  -4   5   68.09   11.30
  -4  -4   5   67.29   13.40
   4  -4  -5   79.79   11.50
  -4   4   5   61.89    5.60
   4   4  -5   42.50   18.30
  -4   4   5   75.89   12.30
   4   4  -5   58.49   10.10
  -3  -4   5  290.07   33.50
   3  -4  -5  240.08   18.50
  -3  -4   5  266.07   17.50
   3  -4  -5  294.47   18.00
  -3  -4   5  296.57   23.50
  -3   4   5  258.87   13.30
   3   4  -5  241.68   16.00
   3   4  -5  260.87   31.90
  -3   4   5  266.47   20.00
   3   4  -5  288.57   24.90
  -3   4   5  258.57   18.40
  -2  -4   5  326.77   18.40
  -2  -4   5  301.37   22.20
  -2  -4   5  289.87   32.70
   2  -4  -5  365.66   20.20
   2  -4  -5  368.66   22.30
  -2  -4   5  343.67   12.40
   2   4  -5  310.77   16.40
   2   4  -5  340.07   35.20
  -2   4   5  338.67   16.90
  -2   4   5  343.37   15.60
   2   4  -5  364.86   25.30
  -2   4   5  337.07   21.00
  -1  -4   5   86.19    7.10
   1  -4  -5   54.89   10.30
  -1  -4   5   66.79   16.50
  -1  -4   5   73.49    7.50
   1  -4  -5   68.09   10.50
  -1  -4   5   85.59   10.30
   1   4  -5   60.99    5.50
   1   4  -5   56.29    5.60
   1   4  -5   95.09   23.70
   1   4  -5   60.29   10.60
  -1   4   5   63.29    7.40
  -1   4   5   88.09   14.40
  -1   4   5   52.99    9.70
   0  -4   5  487.05   20.30
   0  -4   5  511.15   23.00
   0  -4   5  528.15   43.20
   0  -4  -5  484.95   27.50
   0  -4  -5  519.95   26.20
   0  -4   5  503.95   23.40
   0   4  -5  462.15   23.90
   0   4   5  524.15   28.70
   0   4   5  503.45   24.20
   0   4  -5  499.05   39.80
   0   4   5  531.55   32.90
  -1  -4  -5  202.68   17.40
   1  -4   5  214.98   11.00
   1  -4   5  240.78   28.00
   1  -4   5  200.88   11.60
  -1  -4  -5  211.18   16.20
   1  -4   5  192.68   14.80
  -1   4  -5  214.08   12.10
   1   4   5  234.68   19.20
   1   4   5  233.98   23.40
   1   4   5  237.98   16.30
  -2  -4  -5  201.58   18.30
  -2  -4  -5  225.78   17.80
   2  -4   5  225.48   17.50
   2  -4   5  223.28   27.60
   2  -4   5  214.08    9.90
   2  -4   5  222.48    7.90
   2   4   5  239.78   26.40
   2   4   5  212.98   16.50
   2   4   5  270.57   22.00
   2   4   5  206.98   15.30
  -3  -4  -5  197.68   23.60
   3  -4   5  225.28   37.60
  -3  -4  -5  221.08   20.50
   3  -4   5  235.08   20.40
   3  -4   5  215.28    9.00
   3   4   5  212.88   17.80
   3   4   5  210.28   16.50
   3   4   5  221.68   27.80
  -4  -4  -5  164.48   23.00
  -4  -4  -5  169.18   28.10
   4  -4   5  195.58   18.80
   4  -4   5  209.68   27.90
   4  -4   5  167.38    8.30
   4   4   5  158.88   31.50
   4   4   5  207.28   18.30
   5  -4   5   70.49    6.50
  -5  -4  -5   84.39   16.80
  -5  -4  -5   99.09   21.50
   5  -4   5   93.39   25.10
   5   4   5   73.39   21.10
   5   4   5   78.79   14.70
   5   4   5   94.09   15.40
   6  -4   5   69.09   19.50
  -6  -4  -5  105.29   24.50
   6  -4   5  123.19    9.00
   6  -4   5  128.49    9.80
   6  -4   5   90.79   17.00
  -6  -4  -5  133.69   23.20
   6   4   5  107.19   17.50
   6   4   5   93.39   29.40
   6   4   5  114.19   17.10
  -7  -4  -5   12.80   18.80
   7  -4   5   25.70   13.50
   7  -4   5   29.40   17.20
   7  -4   5   27.50    6.90
  -7  -4  -5   48.30   16.10
   7  -4   5   35.20    6.80
   7   4   5   29.70   11.00
   8  -4   5   42.50    9.50
   8  -4   5   23.40   20.80
  -8  -4  -5   15.10   17.80
   8  -4   5   25.30    8.20
   8   4   5   18.90   11.20
   9  -4   5   -1.40   12.00
   9  -4   5   27.70   27.40
  -9  -4  -5   22.50   25.40
   9   4   5   56.39   16.10
   9  -5  -5    7.20   13.60
   9   5  -5  -68.59   26.40
  -8  -5   5   34.90   20.80
   8  -5  -5    2.50    9.40
   8  -5  -5   25.70   11.60
   8   5  -5   41.90   24.00
   7  -5  -5   47.20   13.10
  -7  -5   5   66.79   19.40
  -7  -5   5   86.89   24.50
   7  -5  -5   53.69   11.40
  -7   5   5   77.39   13.10
   7   5  -5   49.10   12.60
  -7   5   5   56.19   13.20
   7   5  -5   58.89   20.20
  -6  -5   5   78.69   24.80
  -6  -5   5   82.69   19.90
   6  -5  -5   92.99   13.60
  -6  -5   5   69.19   13.80
   6  -5  -5   97.29   15.40
   6   5  -5   83.09   14.40
  -6   5   5   77.59   16.00
  -6   5   5   77.99   14.00
   6   5  -5   56.89   26.00
   6   5  -5   53.99   19.80
   5  -5  -5  141.69   15.50
  -5  -5   5  113.49   16.10
   5  -5  -5  118.29   13.50
  -5  -5   5  127.99   30.80
  -5  -5   5  124.49   21.30
  -5   5   5  165.38   14.80
   5   5  -5  133.19   25.90
  -4  -5   5   13.60   11.80
  -4  -5   5   32.60    9.90
   4  -5  -5   22.10    7.20
   4  -5  -5   38.80    9.50
  -4  -5   5   39.50    8.60
   4   5  -5   48.80    8.90
  -4   5   5   51.49   10.30
   4   5  -5   53.79   15.30
  -3  -5   5  177.98   36.10
   3  -5  -5  132.09   12.90
  -3  -5   5  136.69   13.20
   3  -5  -5  117.59   13.80
  -3  -5   5  102.59   17.10
  -3   5   5  132.49   13.80
   3   5  -5  133.99   11.80
   3   5  -5  125.49   20.50
   3   5  -5  137.99   12.30
  -3   5   5  122.19    9.00
   3   5  -5  118.69   28.00
  -3   5   5  117.69   13.80
  -3   5   5  122.79    7.40
  -2  -5   5  286.97   22.30
   2  -5  -5  244.38   18.10
   2  -5  -5  319.27   24.60
  -2  -5   5  289.27   18.00
  -2  -5   5  280.87   34.50
  -2   5   5  306.07   15.20
  -2   5   5  278.67   14.00
  -2   5   5  261.07   20.30
   2   5  -5  275.17   15.20
   2   5  -5  292.27   15.20
   2   5  -5  280.87   34.20
  -2   5   5  267.67   15.70
  -1  -5   5   53.49   10.30
  -1  -5   5   24.00    5.30
   1  -5  -5   39.70    8.30
  -1  -5   5   64.49   19.40
  -1  -5   5   40.50    6.20
   1  -5  -5   33.30    7.70
  -1   5   5   52.29    7.50
  -1   5   5   40.60    9.60
  -1   5   5   20.80    8.10
  -1   5   5   29.30    6.00
   1   5  -5   39.90    9.70
   1   5  -5   15.30   10.20
   0  -5  -5  459.45   26.20
   0  -5   5  495.05   24.10
   0  -5   5  478.35   43.90
   0  -5   5  476.65   22.60
   0  -5   5  451.95   20.40
   0  -5  -5  460.15   28.40
   0   5   5  448.66   28.50
   0   5   5  471.55   24.00
   0   5  -5  441.46   40.80
   0   5  -5  449.36   24.60
   0   5   5  505.95   35.00
   0   5   5  441.06   22.10
   1  -5   5  140.29    9.20
  -1  -5  -5  133.69   14.30
   1  -5   5   98.79   11.30
   1  -5   5   95.79   23.80
   1  -5   5  120.99    9.20
  -1  -5  -5  124.49   14.70
   1   5   5  118.39   12.30
   1   5   5  106.99   17.70
   1   5   5  107.79   21.90
   1   5   5  118.29   11.40
  -2  -5  -5   30.10   10.80
   2  -5   5   67.19   23.40
  -2  -5  -5   24.70    8.40
   2  -5   5   22.80    7.20
   2  -5   5   24.60    4.00
   2   5   5   24.10    7.00
   2   5   5   21.30   12.10
   2   5   5   18.80    6.60
   3  -5   5    5.20    1.80
   3  -5   5   -2.40    3.40
  -3  -5  -5  -15.20    7.40
   3  -5   5   20.40   13.40
  -3  -5  -5    8.90    7.10
   3   5   5    4.10    4.40
   3   5   5    4.10    7.00
   3   5   5   -1.00    4.20
  -4  -5  -5   22.70   11.20
   4  -5   5   36.90   15.30
   4  -5   5   26.60   10.20
   4  -5   5   24.10    2.80
   4   5   5   32.50    9.50
   4   5   5   33.20   12.80
   4   5   5   29.00    9.20
  -5  -5  -5   78.69   17.80
   5  -5   5   69.99    5.20
  -5  -5  -5   58.99   21.00
   5   5   5   57.79   24.30
   5   5   5   44.70   12.40
   6  -5   5    5.80    3.40
   6  -5   5   -1.50    7.60
   6  -5   5   12.80   13.00
  -6  -5  -5    7.00   15.40
  -6  -5  -5   -2.00   12.40
   6  -5   5    5.70    3.10
   6   5   5   -1.20   15.70
   6   5   5   10.60    8.30
   6   5   5   20.70   13.00
   7  -5   5    2.50   15.90
  -7  -5  -5    3.50   20.30
   7  -5   5   14.60    5.50
   7  -5   5   14.80    5.10
  -7  -5  -5   18.90   15.70
   7   5   5   17.70   11.70
   8  -5   5   -3.30   18.10
  -8  -5  -5  -33.10   17.60
   8  -5   5   -3.90    6.50
   8  -5   5    6.90    6.70
   9  -5   5   -1.30   24.40
  -9  -5  -5  -39.00   33.40
   8  -6  -5   12.70   11.80
  -8  -6   5   23.90   29.00
   8   6  -5   59.89   30.70
   7  -6  -5   22.70   10.80
   7  -6  -5   35.10   11.60
  -7  -6   5   32.10   18.70
   7   6  -5   16.20   23.00
   7   6  -5   31.70   10.40
  -6  -6   5  110.59   23.20
  -6  -6   5   73.19   24.70
   6  -6  -5   67.69   12.80
  -6  -6   5   55.99   12.30
   6  -6  -5   97.19   15.40
  -6   6   5   74.79   11.60
  -6   6   5   75.69   18.10
   6   6  -5   98.09   25.20
   6   6  -5   80.69   15.20
  -5  -6   5  154.78   17.40
   5  -6  -5  186.38   17.20
   5  -6  -5  209.78   18.60
  -5  -6   5  162.08   26.10
  -5  -6   5  143.89   33.90
  -5   6   5  112.59   19.80
   5   6  -5  184.98   42.70
   5   6  -5  192.28   18.40
  -5   6   5  160.38   16.00
   5   6  -5  124.59   26.90
  -4  -6   5    3.60    8.50
  -4  -6   5    2.80    4.60
   4  -6  -5    7.90    5.80
   4  -6  -5    5.20    5.00
  -4  -6   5   16.20   14.20
  -4   6   5    3.10    5.20
   4   6  -5   11.70    5.70
  -4   6   5    6.50    6.30
   4   6  -5   21.60   16.30
   4   6  -5   13.30    5.50
   4   6  -5    2.80   10.80
  -3  -6   5  135.19   20.60
  -3  -6   5  158.88   33.20
   3  -6  -5  147.19   16.70
  -3  -6   5  187.48   16.10
   3  -6  -5  192.18   16.90
   3   6  -5  155.88   25.30
   3   6  -5  176.58   13.90
   3   6  -5  164.48   12.70
  -3   6   5  172.48   16.90
  -3   6   5  177.08   18.50
  -2  -6   5  304.37   19.50
   2  -6  -5  263.07   20.20
  -2  -6   5  264.67   23.00
  -2  -6   5  299.77   38.60
   2  -6  -5  269.07   21.70
   2   6  -5  224.18   46.30
  -2   6   5  281.17   22.60
   2   6  -5  254.67   12.90
  -2   6   5  285.67   12.40
  -2   6   5  294.27   13.20
  -2   6   5  236.88   20.40
   2   6  -5  269.27   25.90
   1  -6  -5  269.07   21.60
   1  -6  -5  269.57   20.50
  -1  -6   5  213.48   15.60
  -1  -6   5  238.38   41.20
  -1  -6   5  262.97   20.80
  -1   6   5  229.08   22.40
  -1   6   5  233.08   22.80
  -1   6   5  276.57   15.70
  -1   6   5  244.28   14.10
   0  -6  -5  207.28   20.10
   0  -6   5  210.98   14.00
   0  -6  -5  208.58   18.60
   0  -6   5  237.48   18.90
   0  -6   5  206.28   15.80
   0   6   5  218.18   15.60
   0   6   5  215.68   14.60
   0   6  -5  236.48   40.70
   0   6   5  224.38   21.90
   0   6   5  222.28   24.60
   1  -6   5   95.29    8.60
  -1  -6  -5  111.99   16.30
   1  -6   5  109.49    9.10
   1  -6   5  105.19    8.90
  -1  -6  -5   95.79   16.60
   1  -6   5  118.19   12.70
  -1  -6  -5  136.99   24.70
   1   6   5  111.49   25.00
   1   6   5  137.19   12.60
   1   6   5  107.69   14.60
  -2  -6  -5  288.07   25.80
   2  -6   5  284.07   13.50
   2  -6   5  311.37   55.99
   2  -6   5  249.48   20.30
  -2  -6  -5  276.17   30.60
   2   6   5  306.17   29.90
   2   6   5  298.47   20.30
   2   6   5  289.07   34.60
   3  -6   5   80.19    6.00
   3  -6   5   99.29   16.60
  -3  -6  -5  100.39   22.80
  -3  -6  -5   64.09   14.80
   3   6   5   98.59   14.70
   3   6   5   86.79   14.50
   3   6   5  106.19   37.10
   4  -6   5  161.88   18.80
  -4  -6  -5  176.48   30.70
  -4  -6  -5  141.29   22.80
   4  -6   5  146.29    5.70
   4  -6   5  142.29   31.10
   4   6   5  148.99   19.80
   4   6   5   82.39   27.00
   4   6   5  149.79   20.20
  -5  -6  -5  100.49   23.50
   5  -6   5  132.69   22.40
  -5  -6  -5  115.19   22.00
   5  -6   5  148.49   32.10
   5   6   5  137.49   19.70
   5   6   5  143.79   20.40
   5   6   5  104.69   28.80
  -6  -6  -5  107.39   30.70
   6  -6   5  106.79   29.20
  -6  -6  -5  114.29   23.30
   6   6   5  119.59   20.70
   7  -6   5  -14.30   19.80
  -8  -6  -5   28.90   27.90
   8  -6   5   46.10   28.20
  -7  -7   5   14.70   23.60
   7  -7  -5    2.60   13.20
   7   7  -5   -6.60   12.70
  -6  -7   5   71.29   23.30
   6  -7  -5   88.09   16.10
   6  -7  -5   76.39   14.50
   6   7  -5   62.99   15.60
   6   7  -5   51.39   14.90
  -5  -7   5   43.00   13.20
  -5  -7   5   59.19   22.10
   5  -7  -5   25.30    9.40
   5  -7  -5   31.30   11.40
  -5  -7   5   61.09   25.30
  -5  -7   5   44.30   15.50
  -5   7   5   56.49   15.90
   5   7  -5   46.70   11.80
   5   7  -5   24.40   10.40
  -4  -7   5   42.00   15.90
  -4  -7   5  104.09   21.70
  -4  -7   5   67.29   43.70
   4  -7  -5  124.29   17.40
  -4  -7   5   71.39   13.80
   4  -7  -5   88.39   16.60
  -4   7   5   75.69   12.90
   4   7  -5   97.69   14.10
  -4   7   5   58.19   16.80
   4   7  -5   75.99   11.60
   3  -7  -5   41.90   11.40
  -3  -7   5   46.30   10.90
  -3  -7   5   58.19   15.00
  -3  -7   5   71.09   24.30
   3  -7  -5   46.20   10.50
  -3  -7   5   29.60   11.90
  -3   7   5   44.10   12.10
   3   7  -5   35.50    6.90
   3   7  -5   38.90    7.70
   3   7  -5   49.40   25.90
   2  -7  -5   34.80   10.20
  -2  -7   5   40.70   12.20
   2  -7  -5   36.40   10.10
  -2  -7   5   40.70    9.60
  -2  -7   5   33.10   20.20
  -2  -7   5   28.90   10.00
  -2   7   5   38.60   10.60
   1  -7  -5   78.59   19.90
  -1  -7   5   57.59   11.70
  -1  -7   5   66.39   13.20
   1  -7  -5   77.19   13.90
   1  -7  -5   74.39   14.00
  -1  -7   5   32.00   19.30
  -1   7   5   73.79   16.80
  -1   7   5   64.99    6.90
  -1   7   5   69.49   13.10
  -1   7   5   58.29    7.50
   1   7  -5   28.40   16.00
   0  -7   5   97.89   28.30
   0  -7  -5   95.39   17.10
   0  -7  -5  105.09   22.00
   0  -7   5  104.69   10.50
   0  -7   5   90.39   13.40
   0  -7  -5   67.19   13.90
   0  -7   5   91.99   12.40
   0   7   5   72.69   10.90
   0   7   5   85.79   21.30
   0   7   5   88.19   10.00
   0   7   5   68.69   12.80
   0   7  -5   73.79   20.30
   1  -7   5   74.39   23.70
  -1  -7  -5   77.09   20.10
   1  -7   5   60.39    8.00
   1  -7   5   57.89    8.60
  -1  -7  -5   72.99   15.50
   1   7   5   70.89   11.60
   1   7   5   69.99   11.40
   1   7   5   71.79   12.80
   1   7   5   67.09   21.00
   2  -7   5    2.50   14.40
   2  -7   5   17.80    4.90
  -2  -7  -5    0.20   13.70
  -2  -7  -5   -6.00    6.50
   2   7   5    8.20    6.90
   2   7   5   21.90   23.70
  -3  -7  -5   27.80   12.50
   3  -7   5   13.40   17.80
  -3  -7  -5   33.70   15.70
   3  -7   5   21.60    4.70
   3  -7   5   10.30    7.50
   3   7   5   18.60    8.50
   3   7   5   14.90    8.00
   3   7   5   -3.60   16.20
   4  -7   5   -1.70    7.10
  -4  -7  -5   28.60   19.60
   4  -7   5   28.10   18.90
   4   7   5   16.50    9.00
   4   7   5   23.30   18.20
   5  -7   5   13.20   18.00
  -5  -7  -5    9.90   22.40
  -5  -7  -5   -6.10   13.40
   5   7   5   -2.70    9.20
  -6  -7  -5   28.00   31.20
   6  -8  -5   14.50   13.00
   6   8  -5  -32.70   13.30
   5  -8  -5   46.60   14.50
   5   8  -5   59.29   14.30
   4  -8  -5   52.79   24.70
   4  -8  -5   59.19   17.40
  -4  -8   5   77.79   23.70
  -4  -8   5   82.49   16.00
   4   8  -5   61.29   10.60
   4   8  -5   54.59   11.10
   3  -8  -5   19.50   17.30
   3  -8  -5   56.69   17.70
  -3  -8   5   27.70   25.50
  -3  -8   5   43.20   15.90
  -3   8   5   50.89   14.70
  -2  -8   5  118.89   33.70
  -2  -8   5  121.89   19.10
   2  -8  -5  105.49   23.80
  -2  -8   5  121.99   21.40
  -2  -8   5   97.69   15.70
   2  -8  -5   75.79   15.80
   2  -8  -5  147.39   20.50
  -2   8   5  118.99   19.20
  -1  -8   5   86.99   15.30
  -1  -8   5   61.89   13.40
   1  -8  -5   62.19   15.10
   1  -8  -5   80.19   20.30
  -1  -8   5   85.09   28.80
   1  -8  -5   61.89   15.50
  -1  -8   5   69.09   12.00
   1   8  -5   27.50   19.90
  -1   8   5   67.39   13.90
  -1   8   5   76.49   19.80
   0  -8  -5  136.79   22.00
   0  -8   5  164.78   38.30
   0  -8   5  153.98   15.30
   0  -8  -5  125.69   26.10
   0  -8   5  121.89   16.00
   0  -8   5  125.69   14.30
   0   8   5   76.69   22.70
   0   8  -5  186.88   38.70
   0   8   5  140.79   11.70
   0   8   5  144.89   11.50
   0   8   5  151.28   17.90
   1  -8   5  100.59   11.40
  -1  -8  -5   31.40   19.60
   1  -8   5   89.29   30.20
  -1  -8  -5   61.89   15.60
   1  -8   5   53.99    6.50
   1  -8   5   76.99    6.90
   1   8   5   73.19   14.10
   1   8   5   73.99   11.90
   1   8   5   63.79   11.60
   1   8   5   21.20   22.00
   2  -8   5   83.39   26.90
  -2  -8  -5   50.49   22.00
   2   8   5   57.19   12.50
   2   8   5   39.80   11.80
   2   8   5   43.90   28.00
   2   8   5   72.79   13.40
   3  -8   5   89.39   25.70
  -3  -8  -5   81.99   26.60
   3   8   5  130.89   19.20
   3   8   5  133.59   19.30
   3   8   5   87.19   16.40
  -4  -8  -5   49.60   30.00
   4  -8   5   31.50   22.90
   4   8   5   25.90   13.40
   4   8   5   36.30    9.90
   5  -8   5   42.70   32.40
  -1  -9   5   23.40   13.20
  -1   9   5  -14.70   11.10
   0  -9   5   60.59   11.80
   0  -9   5   68.29   28.90
   0   9   5   52.79   14.00
   1  -9   5  -30.00   24.30
   1   9   5    1.50   11.10
   2  -9   5   57.09   31.40
   2   9   5   24.10   13.10
   2   9   5   23.60   13.60
   3  -9   5  -25.10   25.40
   3   9   5   45.10   17.50
  11   0  -6   42.20   30.00
  10   0  -6   -6.50   17.40
  -9   0   6   18.70   14.10
  -9   0   6   36.90   10.10
   9   0  -6   13.70    9.80
   9   0  -6   38.20   15.90
   8   0  -6    0.10    5.70
  -8   0   6   -4.60    7.30
   8   0  -6   -6.20    8.60
   8   0  -6  -14.40    7.10
  -8   0   6   -2.80    4.40
  -8   0   6    9.20    4.70
   7   0  -6   10.50    5.20
   7   0  -6   17.20    9.40
   7   0  -6   10.80    8.60
  -7   0   6    2.90    4.00
   6   0  -6   94.39   14.40
   6   0  -6  117.09   24.00
   6   0  -6   81.69   16.40
  -6   0   6   65.29   14.90
  -6   0   6   89.69   10.30
  -6   0   6   86.39   13.60
  -6   0   6   93.09   16.30
   5   0  -6   13.10    5.90
  -5   0   6    7.60    3.30
  -5   0   6    4.10    2.40
   5   0  -6    7.20    6.60
   5   0  -6    2.90    3.10
  -5   0   6    8.70    5.20
   4   0  -6   43.30   12.00
   4   0  -6   57.99   11.70
   4   0  -6   42.30    7.90
  -4   0   6   59.69    9.00
  -4   0   6   76.39   16.00
   3   0  -6  692.53   33.90
  -3   0   6  740.73   33.40
   3   0  -6  689.03   37.30
  -3   0   6  663.93   27.90
   3   0  -6  622.64   27.60
  -3   0   6  652.33   37.80
   2   0  -6    0.80    1.90
  -2   0   6    2.30    3.60
   2   0  -6    3.30    3.20
   2   0  -6    3.90    2.60
  -2   0   6   -0.30    1.50
  -2   0   6    4.60    3.00
  -1   0   6  402.96   21.60
   1   0  -6  382.36   18.30
   1   0  -6  368.46   21.10
  -1   0   6  416.56   19.20
  -1   0   6  383.86   26.90
   0   0   6   37.80    6.20
   0   0  -6   36.80    7.40
   0   0  -6   38.30    6.30
   0   0   6   32.10    6.90
  -1   0  -6  537.25   25.10
   1   0   6  535.85   24.80
  -1   0  -6  571.64   22.50
   1   0   6  526.45   22.60
  -2   0  -6  520.25   21.40
   2   0   6  526.25   23.10
   2   0   6  511.85   25.10
  -2   0  -6  543.75   25.70
  -3   0  -6  817.92   34.90
   3   0   6  857.81   32.90
   3   0   6  867.41   36.20
   4   0   6  537.45   25.90
  -4   0  -6  565.54   28.50
   4   0   6  540.55   29.00
  -4   0  -6  568.64   33.60
   5   0   6   49.99    9.40
  -5   0  -6   51.49   10.80
  -6   0  -6  403.36   30.50
   6   0   6  374.76   24.10
   7   0   6  138.59   20.00
   7   0   6  152.08   16.30
   7   0   6  130.09   14.40
   8   0   6   88.19   26.40
   9   0   6  203.88   23.60
  -9   0  -6  140.89   24.30
  10  -1  -6  172.88   36.00
  10   1  -6  179.08   41.50
  10   1  -6  193.18   37.60
  -9  -1   6  289.97   32.40
  -9  -1   6  266.37   21.80
   9  -1  -6  278.57   41.80
   9  -1  -6  252.97   24.40
   9   1  -6  289.27   34.90
   9   1  -6  194.18   35.40
   8  -1  -6  911.21   43.50
   8  -1  -6  915.01   56.29
  -8  -1   6  902.81   41.50
   8  -1  -6  874.71   52.49
  -8  -1   6  895.11   52.79
  -8   1   6  849.22   52.99
  -8   1   6  935.11   37.70
  -8   1   6  924.91   47.10
   8   1  -6  860.81   64.89
   8   1  -6  877.01   60.79
   8   1  -6  852.31   55.69
  -7  -1   6 1543.35   69.19
   7  -1  -6 1546.95   69.49
   7  -1  -6 1464.45   57.79
  -7  -1   6 1525.05   56.69
   7  -1  -6 1520.25   71.39
  -7  -1   6 1532.35   76.89
  -7  -1   6 1598.24   56.29
  -7   1   6 1538.05   53.09
   7   1  -6 1499.65   59.49
  -7   1   6 1500.85   67.99
   7   1  -6 1673.73   86.99
  -7   1   6 1672.63   67.29
  -6  -1   6  630.44   28.60
  -6  -1   6  609.34   44.00
   6  -1  -6  594.04   30.70
  -6  -1   6  668.93   45.60
  -6  -1   6  646.14   30.90
   6  -1  -6  602.74   37.80
   6  -1  -6  644.74   38.50
   6   1  -6  679.13   49.99
  -6   1   6  640.74   33.00
   6   1  -6  594.04   39.90
  -6   1   6  642.94   28.60
   6   1  -6  557.84   37.60
  -6   1   6  610.14   35.20
   5  -1  -6 2602.94   87.99
  -5  -1   6 2628.04   89.19
   5  -1  -6 2574.84   88.09
  -5  -1   6 2623.94  100.89
  -5  -1   6 2529.35   77.89
  -5  -1   6 2541.65   73.69
   5  -1  -6 2468.65   78.09
  -5   1   6 2520.55   79.89
   5   1  -6 2339.47  102.19
  -5   1   6 2478.25   83.09
   5   1  -6 2491.75   91.09
  -5   1   6 2693.23   86.09
  -5   1   6 2470.45   74.99
   5   1  -6 2577.64   86.29
   4  -1  -6 2646.04   84.09
   4  -1  -6 2565.34   86.39
  -4  -1   6 2626.14   78.29
   4  -1  -6 2552.44   77.89
  -4  -1   6 2694.53   87.39
  -4  -1   6 2609.44  100.49
   4   1  -6 2803.52   90.99
  -4   1   6 2596.64   83.19
   4   1  -6 2526.45   78.49
  -4   1   6 2605.04   76.39
   4   1  -6 2656.93  101.69
  -4   1   6 2574.04   83.79
  -3  -1   6 2662.73   99.29
  -3  -1   6 2523.45   76.39
  -3  -1   6 2619.04   83.79
   3  -1  -6 2619.94   77.19
   3  -1  -6 2726.33   84.79
   3   1  -6 2841.72   88.49
   3   1  -6 2440.56   96.79
  -3   1   6 2744.23   82.89
   3   1  -6 2687.23   77.29
  -3   1   6 2721.13   76.59
  -3   1   6 2606.24   84.39
  -2  -1   6 3612.34   97.89
  -2  -1   6 3732.33  123.79
  -2  -1   6 3727.23  104.19
   2  -1  -6 3573.74  104.19
   2  -1  -6 3548.24   98.09
   2   1  -6 3354.26  104.49
  -2   1   6 3590.04   97.69
   2   1  -6 3601.34   97.39
   2   1  -6 3630.54  118.79
  -2   1   6 3734.53  104.09
  -2   1   6 3440.86  106.89
  -1  -1   6 5173.18  132.09
  -1  -1   6 5106.39  158.18
  -1  -1   6 5086.09  136.69
   1  -1  -6 4983.70  133.09
  -1   1   6 5361.96  138.69
  -1   1   6 5064.39  133.09
   1   1  -6 5200.68  131.09
   1   1  -6 5072.99  138.29
   0  -1  -6 4227.78  115.89
   0  -1   6 4335.57  112.99
   0  -1   6 4153.38  108.79
   0  -1   6 4298.37  135.69
   0  -1  -6 4294.37  111.99
   0   1  -6 4143.29  107.09
   0   1   6 4178.18  115.29
   0   1  -6 4073.19  113.39
   0   1   6 3962.90  110.59
   1  -1   6 1690.73   52.79
  -1  -1  -6 1659.93   52.69
   1  -1   6 1702.83   50.09
  -1  -1  -6 1701.83   57.09
   1   1   6 1664.93   52.89
   1   1   6 1699.23   56.69
  -1   1  -6 1697.23   47.60
   2  -1   6 2169.08   64.59
  -2  -1  -6 2177.68   69.69
   2  -1   6 2200.68   62.09
  -2  -1  -6 2183.38   64.89
  -2   1  -6 2167.28   64.69
   2   1   6 2138.69   65.79
   2   1   6 2097.69   70.19
   3  -1   6 2317.87   69.89
   3  -1   6 2245.48   65.99
  -3  -1  -6 2263.87   74.39
   3   1   6 2358.76   71.19
  -3   1  -6 2331.17   68.99
   4  -1   6 2114.69   67.39
  -4  -1  -6 2086.39   71.69
   4  -1   6 2077.49   63.09
  -4  -1  -6 2041.50   79.59
  -4   1  -6 2082.89   65.49
  -4   1  -6 2069.59   77.99
   4   1   6 2043.50   80.89
   4   1   6 2171.18   68.29
  -5  -1  -6  458.95   29.10
  -5  -1  -6  498.55   34.70
   5  -1   6  485.75   24.30
  -5   1  -6  497.35   25.60
  -5   1  -6  489.65   29.10
   5   1   6  486.05   27.10
   6  -1   6  759.72   43.30
  -6  -1  -6  830.12   48.10
  -6  -1  -6  832.72   42.50
   6  -1   6  830.32   35.70
  -6   1  -6  838.02   37.30
   6   1   6  699.13   35.00
  -6   1  -6  828.12   41.80
   6   1   6  825.82   39.50
  -7  -1  -6  327.67   27.30
   7  -1   6  270.87   26.50
   7  -1   6  255.67   22.90
   7  -1   6  350.96   21.60
  -7   1  -6  361.86   35.00
   7   1   6  365.26   24.90
   7   1   6  374.66   26.90
  -8  -1  -6  165.58   24.80
   8  -1   6   96.19   14.90
   8  -1   6  121.59   17.80
   8  -1   6   61.69   15.70
  -8   1  -6  115.19   18.10
   8   1   6   88.39   15.40
   8   1   6   92.29   16.70
   8   1   6   90.09   29.40
   9  -1   6  171.58   23.40
   9  -1   6  125.19   20.30
  -9  -1  -6  133.99   25.00
  -9   1  -6  118.59   21.00
   9   1   6  140.09   23.00
  10  -2  -6  -26.20   13.10
  10   2  -6    6.30   18.20
   9  -2  -6   14.10   11.90
   9  -2  -6   -3.10    8.10
  -9  -2   6   -3.20   12.00
  -9  -2   6   -0.70    6.40
   9  -2  -6   -5.00    9.10
   9   2  -6    8.30   21.60
   9   2  -6    6.10   14.20
  -9   2   6   11.70    8.90
  -8  -2   6   -0.60    9.30
   8  -2  -6    0.00    9.10
   8  -2  -6    4.50    7.70
  -8  -2   6    8.40    5.50
  -8  -2   6   -0.90    8.40
   8  -2  -6   -3.00    6.00
   8   2  -6    7.50    6.70
  -8   2   6   -3.50    3.40
  -8   2   6   -1.40    7.60
   8   2  -6   -1.00   10.60
  -8   2   6    9.00    6.30
   8   2  -6   -5.90   10.10
  -7  -2   6   73.99   24.20
   7  -2  -6   51.29   10.40
  -7  -2   6   53.09   14.80
   7  -2  -6   59.59   13.00
  -7  -2   6   42.60    9.50
   7  -2  -6   61.59   14.50
   7   2  -6   54.39   20.50
  -7   2   6   38.50   11.00
  -7   2   6   52.59   12.20
   7   2  -6   63.79   16.90
  -7   2   6   48.70    7.70
  -6  -2   6   12.40    4.30
  -6  -2   6   17.00    5.80
  -6  -2   6   12.10    9.00
   6  -2  -6   28.50    9.70
  -6  -2   6   43.60   11.90
   6  -2  -6   18.00    5.30
   6  -2  -6   17.90    5.90
   6   2  -6   16.60    8.40
  -6   2   6   22.10    7.50
  -6   2   6   27.10    5.80
  -6   2   6   18.70    7.10
   6   2  -6   25.00   13.10
  -5  -2   6    2.50    4.60
   5  -2  -6   -0.80    4.20
  -5  -2   6   -0.90    1.80
  -5  -2   6    3.30    3.10
  -5  -2   6    8.60    7.30
  -5   2   6   10.50    4.80
  -5   2   6    3.20    2.70
   5   2  -6   -0.10    5.60
  -5   2   6    0.90    2.40
   5   2  -6   17.70    7.90
   5   2  -6    1.90    3.70
  -4  -2   6   51.69    8.50
   4  -2  -6   58.39    9.80
  -4  -2   6   58.39    5.60
  -4  -2   6   63.29   12.10
  -4  -2   6   73.89   19.20
   4  -2  -6   55.89   11.00
  -4   2   6   65.79   11.70
   4   2  -6   62.39   13.20
  -4   2   6   68.49    6.60
   4   2  -6   59.39    9.50
   4   2  -6   53.09   16.90
  -4   2   6   56.69    8.40
  -3  -2   6   35.80   13.00
  -3  -2   6   43.50    9.70
   3  -2  -6   27.70    7.50
   3  -2  -6   32.60    6.30
  -3  -2   6   37.90    7.80
  -3   2   6   32.70    6.30
   3   2  -6   28.30    6.10
  -3   2   6   41.50    8.60
   3   2  -6   22.90   10.80
  -3   2   6   39.40    7.00
   3   2  -6   30.40    8.40
  -2  -2   6   54.99    8.30
   2  -2  -6   60.89    8.90
  -2  -2   6   81.69   20.70
   2  -2  -6   85.19   10.30
  -2   2   6   62.19    8.80
   2   2  -6   59.39   15.50
  -2   2   6   65.09    8.20
   2   2  -6   63.59    8.80
  -2   2   6   50.39    9.40
   1  -2  -6  485.75   25.80
   1  -2  -6  511.95   23.80
  -1  -2   6  425.16   35.20
  -1  -2   6  527.75   25.30
  -1  -2   6  521.35   22.10
   1   2  -6  514.45   20.70
   1   2  -6  520.45   36.90
   1   2  -6  494.45   25.90
  -1   2   6  539.05   26.70
   0  -2   6   36.60    6.00
   0  -2   6   36.70    6.60
   0  -2  -6   33.90    6.90
   0  -2   6   77.69   21.60
   0  -2  -6   38.80    8.10
   0   2   6   49.20    9.50
   0   2   6   44.30    7.70
   0   2  -6   41.30    4.50
   1  -2   6  537.05   39.60
  -1  -2  -6  557.44   26.10
  -1  -2  -6  574.54   29.30
   1  -2   6  606.54   24.10
   1  -2   6  589.64   24.80
   1   2   6  568.24   26.00
   1   2   6  572.74   29.40
  -1   2  -6  566.24   24.40
   2  -2   6  225.48   13.20
  -2  -2  -6  226.78   15.80
  -2  -2  -6  196.18   16.70
   2  -2   6  231.18   12.40
   2   2   6  235.48   18.40
   2   2   6  248.68   16.70
  -2   2  -6  234.48   13.60
   3  -2   6  499.35   20.20
  -3  -2  -6  465.65   28.20
   3  -2   6  514.05   21.90
  -3   2  -6  481.95   21.00
   3   2   6  502.15   29.40
   3   2   6  456.55   25.20
  -4  -2  -6  209.68   23.50
   4  -2   6  242.18   14.00
  -4  -2  -6  249.18   21.10
   4   2   6  233.98   18.30
  -4   2  -6  232.18   14.10
  -5  -2  -6  261.97   23.20
   5  -2   6  295.67   17.10
  -5  -2  -6  269.77   27.70
   5   2   6  270.77   21.60
  -5   2  -6  283.37   16.20
  -5   2  -6  291.27   19.00
   5   2   6  278.57   19.60
   6  -2   6  237.28   16.20
  -6  -2  -6  213.98   22.70
  -6  -2  -6  244.08   27.20
   6  -2   6  221.38   23.40
  -6   2  -6  208.38   15.20
  -6   2  -6  203.18   17.40
   6   2   6  223.48   20.20
   6   2   6  157.28   45.70
   6   2   6  219.08   18.90
   7  -2   6  156.18   13.70
   7  -2   6  120.69   25.10
  -7  -2  -6  142.59   28.60
   7  -2   6  159.58   15.00
  -7  -2  -6  145.49   23.40
  -7   2  -6  161.28   22.00
  -7   2  -6  128.69   13.80
   7   2   6  128.59   18.70
   7   2   6  142.79   19.70
   7   2   6  162.78   37.00
   8  -2   6  117.29   15.60
  -8  -2  -6   75.79   20.00
   8  -2   6   91.19   14.40
  -8   2  -6  114.29   15.30
   8   2   6  122.19   21.30
   8   2   6   82.09   17.50
   9  -2   6   71.89   14.90
   9  -2   6   69.79   14.20
  -9  -2  -6   91.99   24.30
  -9   2  -6   58.89   17.80
  10  -2   6   81.79   29.70
  -9  -3   6  285.77   25.80
   9  -3  -6  256.57   24.40
  -9  -3   6  265.97   37.10
   9   3  -6  285.37   42.20
  -9   3   6  264.17   29.70
  -8  -3   6  259.47   35.70
   8  -3  -6  327.97   30.00
  -8  -3   6  243.28   42.00
  -8  -3   6  290.47   24.40
   8  -3  -6  314.07   23.50
  -8   3   6  225.08   24.80
   8   3  -6  251.47   52.79
  -8   3   6  332.97   29.30
   8   3  -6  280.57   25.50
   8   3  -6  317.67   37.00
  -7  -3   6  585.84   33.50
   7  -3  -6  630.04   33.10
  -7  -3   6  636.64   53.79
   7  -3  -6  592.54   37.90
   7   3  -6  640.04   36.00
   7   3  -6  703.73   50.29
  -7   3   6  607.14   38.10
   7   3  -6  703.63   61.79
  -7   3   6  601.84   23.50
  -7   3   6  604.54   35.30
  -6  -3   6  864.31   40.30
  -6  -3   6  938.31   64.29
   6  -3  -6  853.91   38.60
   6  -3  -6  883.61   45.00
  -6  -3   6  843.72   49.70
  -6   3   6  864.11   44.30
   6   3  -6  999.40   70.69
  -6   3   6  915.71   31.40
   6   3  -6  866.51   53.49
  -5  -3   6 1612.14   62.29
   5  -3  -6 1662.93   56.49
  -5  -3   6 1567.34   68.19
  -5  -3   6 1646.74   85.89
   5  -3  -6 1682.73   68.79
   5   3  -6 1537.75   57.39
   5   3  -6 1408.66   85.39
   5   3  -6 1678.43   73.89
  -5   3   6 1560.54   62.39
  -5   3   6 1616.24   49.50
  -4  -3   6 1070.99   66.89
  -4  -3   6 1138.29   43.80
  -4  -3   6 1117.99   30.10
  -4  -3   6 1174.78   52.59
   4  -3  -6 1163.68   43.30
   4  -3  -6 1086.79   47.40
   4   3  -6 1206.78   56.19
  -4   3   6 1105.29   38.30
  -4   3   6 1105.79   46.00
   4   3  -6 1165.48   43.90
  -4   3   6 1087.39   46.50
   3  -3  -6 2198.38   68.39
  -3  -3   6 2181.68   68.19
  -3  -3   6 2069.09   96.49
  -3  -3   6 2241.98   76.99
   3  -3  -6 2048.79   72.29
   3   3  -6 2285.87   67.59
   3   3  -6 2107.59   78.59
  -3   3   6 2201.38   72.29
  -3   3   6 2246.18   64.89
   2  -3  -6 2294.47   76.79
  -2  -3   6 2549.94   79.39
  -2  -3   6 2424.66  104.59
  -2  -3   6 2447.76   71.79
   2  -3  -6 2508.85   73.89
  -2   3   6 2432.66   77.19
   2   3  -6 2431.26   69.49
   2   3  -6 2198.48   99.29
  -2   3   6 2361.46   70.09
   2   3  -6 2480.35   81.69
  -2   3   6 2347.07   67.49
  -1  -3   6 1255.27   70.49
  -1  -3   6 1377.86   48.90
  -1  -3   6 1320.17   43.80
   1  -3  -6 1338.47   50.99
   1  -3  -6 1401.36   48.20
  -1   3   6 1423.76   50.49
   1   3  -6 1359.86   40.80
   1   3  -6 1384.46   70.19
  -1   3   6 1262.87   49.70
  -1   3   6 1400.56   46.50
   0  -3  -6 1834.62   64.69
   0  -3   6 1793.52   85.39
   0  -3   6 1827.22   54.39
   0  -3  -6 1874.81   61.19
   0  -3   6 1909.01   58.19
   0   3  -6 1814.02   46.60
   0   3  -6 1920.01   60.19
   0   3   6 1831.92   59.39
   0   3   6 1888.91   68.69
   0   3   6 1958.00   65.59
  -1  -3  -6 2953.70   86.49
   1  -3   6 2792.92   76.39
  -1  -3  -6 2847.32   90.29
   1  -3   6 2805.52   78.09
   1  -3   6 2807.92  113.49
   1   3   6 2771.22   98.59
   1   3   6 2887.01   85.09
   1   3   6 3013.00   91.99
  -2  -3  -6 1577.64   59.09
   2  -3   6 1534.15   44.80
   2  -3   6 1486.45   43.70
   2  -3   6 1542.45   76.49
  -2  -3  -6 1486.95   54.19
  -2   3  -6 1571.94   44.80
   2   3   6 1418.96   53.09
   2   3   6 1582.74   70.59
   2   3   6 1519.95   59.49
   3  -3   6  837.32   54.69
   3  -3   6  781.72   26.60
   3  -3   6  740.23   38.00
   3  -3   6  801.12   26.60
  -3  -3  -6  788.32   40.10
   3   3   6  765.82   36.20
  -3   3  -6  848.52   24.90
  -3   3  -6  792.52   25.30
   3   3   6  747.23   40.20
   3   3   6  887.21   54.09
  -4  -3  -6  885.81   45.50
   4  -3   6  907.21   44.90
  -4  -3  -6  940.61   54.89
   4  -3   6  891.41   30.90
  -4   3  -6  983.90   25.50
  -4   3  -6  963.20   25.80
   4   3   6  766.42   54.89
   5  -3   6  448.96   31.40
  -5  -3  -6  454.85   32.30
  -5  -3  -6  449.95   37.60
   5  -3   6  450.25   20.20
  -5   3  -6  453.05   15.20
   5   3   6  416.56   28.20
  -5   3  -6  439.36   13.50
  -6  -3  -6  449.06   39.80
  -6  -3  -6  528.25   37.40
   6  -3   6  454.65   33.80
   6  -3   6  508.45   23.70
  -6   3  -6  525.55   17.50
   6   3   6  434.16   47.40
   6   3   6  520.35   31.40
   6   3   6  501.15   32.50
   7  -3   6  224.78   16.40
  -7  -3  -6  160.18   24.80
  -7  -3  -6  217.88   34.50
   7  -3   6  231.18   16.00
   7   3   6  209.98   22.20
  -7   3  -6  215.38    9.10
   8  -3   6  127.69   14.30
  -8  -3  -6  142.39   27.20
   8  -3   6  161.68   15.90
   8   3   6  125.29   21.00
   8   3   6  152.68   23.40
   9  -3   6   75.99   23.90
  -9  -3  -6   56.69   23.30
   9   3   6   55.59   18.10
   9  -4  -6   21.80   19.00
  -9  -4   6   -4.50   21.20
   9   4  -6   -0.20   19.50
   8  -4  -6   16.20    9.00
  -8  -4   6   24.80   15.80
  -8  -4   6   21.60    8.80
   8  -4  -6   15.30   10.60
  -8   4   6   22.00   10.60
   8   4  -6   -5.20   16.50
  -7  -4   6  -24.80    9.90
   7  -4  -6   -1.20    5.00
  -7  -4   6   11.10    6.80
  -7  -4   6    4.20   10.80
   7  -4  -6    2.20    6.90
  -7   4   6    4.40    7.10
   7   4  -6    2.40    6.80
  -7   4   6   -0.20    5.80
   7   4  -6    8.90   10.20
   7   4  -6  -16.20   11.30
  -6  -4   6    8.10   10.20
   6  -4  -6    1.30    4.70
   6  -4  -6   15.80    6.80
  -6  -4   6    2.00    3.90
  -6  -4   6    4.80    9.40
  -6   4   6   -3.10    4.50
   6   4  -6   -1.70    5.80
   6   4  -6   -3.60    7.40
  -6   4   6    2.40    1.80
   6   4  -6   -8.50    8.50
  -6   4   6    1.70    6.00
  -5  -4   6   37.50    8.90
  -5  -4   6   51.39   18.00
   5  -4  -6   72.49   12.70
  -5  -4   6   59.69   14.70
   5  -4  -6   41.70    9.20
   5   4  -6   47.30   15.60
  -5   4   6   36.40    9.40
   5   4  -6   45.00    9.50
   5   4  -6   20.90   11.60
   4  -4  -6   19.00    6.00
  -4  -4   6   17.90    6.20
  -4  -4   6   13.30    7.20
  -4  -4   6    9.00   17.20
   4   4  -6   13.50    5.50
  -4   4   6   11.20    3.80
  -4   4   6   13.70    5.70
  -3  -4   6   -1.10    4.60
   3  -4  -6    5.40    4.10
   3  -4  -6    1.30    3.30
  -3  -4   6    9.90    8.80
  -3  -4   6    0.60    2.60
  -3   4   6    4.40    3.70
   3   4  -6    1.70    5.10
   3   4  -6    3.20    3.30
   3   4  -6    3.80    5.80
  -3   4   6    1.20    2.80
  -2  -4   6   54.19    9.00
  -2  -4   6   56.59    5.10
   2  -4  -6   63.39   11.70
   2  -4  -6   59.29    9.80
  -2  -4   6   52.39   19.10
  -2  -4   6   52.99   10.90
  -2   4   6   48.90    7.80
   2   4  -6   31.90   14.60
  -2   4   6   48.90    9.80
   2   4  -6   54.19   11.90
   2   4  -6   56.29    7.80
  -2   4   6   57.39    8.70
   1  -4  -6  202.48   17.40
  -1  -4   6  231.28   13.60
  -1  -4   6  197.68   13.50
  -1  -4   6  268.77   43.30
  -1  -4   6  211.88   16.60
   1  -4  -6  209.68   16.40
   1   4  -6  201.18   10.40
   1   4  -6  230.08   28.30
  -1   4   6  206.58   14.70
  -1   4   6  214.08   18.30
  -1   4   6  208.68   18.00
   1   4  -6  216.58   18.00
   1   4  -6  210.68   10.40
   0  -4   6   90.29    9.60
   0  -4  -6   87.59   14.30
   0  -4   6  119.49   27.50
   0  -4   6   96.59    8.60
   0  -4  -6   76.99   11.60
   0  -4   6  104.59   10.20
   0   4  -6  136.59   28.60
   0   4   6   94.89   16.50
   0   4   6   83.39   11.50
   0   4   6  111.39   13.50
   0   4  -6   92.29   10.30
   1  -4   6  288.57   14.70
   1  -4   6  272.87   19.00
  -1  -4  -6  269.87   21.30
   1  -4   6  279.87   14.00
   1  -4   6  272.97   32.00
  -1  -4  -6  266.37   19.70
   1   4   6  279.37   18.60
   1   4   6  284.17   22.40
   1   4   6  256.17   25.30
  -1   4  -6  259.77   14.80
   2  -4   6  109.29    6.80
   2  -4   6  106.69    7.50
   2  -4   6  118.29   13.20
   2  -4   6  125.59   27.70
  -2  -4  -6   99.69   14.90
  -2  -4  -6  133.99   19.00
   2   4   6   86.39   16.90
   2   4   6   68.99   16.40
   2   4   6   95.39   13.70
  -3  -4  -6   41.20   11.20
   3  -4   6   50.89   11.20
   3  -4   6   18.00   10.10
  -3  -4  -6   46.50   14.70
   3  -4   6   39.60    5.30
   3   4   6   61.99   18.70
   3   4   6   39.50    8.40
   4  -4   6  250.27   12.00
   4  -4   6  274.57   23.10
   4  -4   6  254.77   32.20
  -4  -4  -6  256.67   24.40
   4   4   6  211.88   19.50
  -5  -4  -6  105.59   19.60
   5  -4   6  158.88   32.50
   5  -4   6  134.49   21.50
  -5  -4  -6  128.89   25.80
   5  -4   6  103.39    8.60
   5   4   6  109.99   16.00
   5   4   6   93.19   16.00
   6  -4   6  219.28   24.40
   6  -4   6  194.58   13.30
   6  -4   6  170.28   32.00
  -6  -4  -6  185.28   31.70
  -6  -4  -6  223.68   27.20
   6   4   6  213.98   21.90
   6   4   6  216.88   20.80
   7  -4   6   55.59   22.70
  -7  -4  -6   53.39   17.20
   7  -4   6   60.39    8.90
  -7  -4  -6   40.90   20.60
   7  -4   6   52.29   10.00
   7   4   6   61.09   14.70
   8  -4   6   47.10    9.60
   8  -4   6    3.60   18.10
  -8  -4  -6   37.30   20.50
   8  -4   6   33.30   10.20
   8   4   6   18.10   12.90
   9  -4   6   47.80   16.00
  -9  -4  -6   46.20   29.40
   9  -4   6   16.80   25.20
   9   4   6  -16.10   17.00
   9   5  -6  130.99   37.40
  -8  -5   6   85.29   26.80
   8  -5  -6   59.19   14.60
   8   5  -6   79.19   26.60
  -7  -5   6  306.67   35.40
  -7  -5   6  257.27   23.70
  -7  -5   6  299.07   52.39
   7  -5  -6  275.87   22.70
   7  -5  -6  212.28   26.10
  -7   5   6  219.68   25.90
   7   5  -6  258.27   25.30
   7   5  -6  242.88   38.50
   6  -5  -6  408.76   26.50
   6  -5  -6  490.25   31.70
  -6  -5   6  410.96   48.00
  -6  -5   6  394.86   37.70
  -6  -5   6  401.26   28.40
   6   5  -6  439.56   28.90
  -6   5   6  420.36   26.70
  -6   5   6  418.36   32.60
   6   5  -6  463.35   43.30
  -5  -5   6  555.94   55.49
   5  -5  -6  611.24   31.90
   5  -5  -6  674.83   36.50
  -5  -5   6  535.95   31.80
  -5  -5   6  586.54   41.10
   5   5  -6  619.44   59.29
  -5   5   6  596.54   38.00
   5   5  -6  608.24   45.90
  -5   5   6  606.14   32.10
  -4  -5   6  498.75   35.50
  -4  -5   6  564.04   29.90
   4  -5  -6  494.25   27.80
   4  -5  -6  553.84   32.00
  -4  -5   6  592.54   54.19
  -4   5   6  518.75   17.90
  -4   5   6  516.85   29.40
   4   5  -6  451.45   37.00
  -4   5   6  511.75   32.80
  -4   5   6  518.05   22.90
   4   5  -6  508.15   27.20
   3  -5  -6  733.93   37.60
   3  -5  -6  667.43   33.20
  -3  -5   6  741.33   60.89
  -3  -5   6  737.53   33.80
  -3  -5   6  802.32   42.00
  -3   5   6  662.63   36.90
   3   5  -6  707.23   30.30
  -3   5   6  709.63   26.40
   3   5  -6  806.32   45.50
  -2  -5   6  953.30   38.40
  -2  -5   6  993.10   45.10
   2  -5  -6 1012.40   45.10
   2  -5  -6  982.00   41.90
  -2  -5   6 1017.00   69.59
  -2   5   6  925.91   34.20
   2   5  -6 1010.70   68.59
   2   5  -6  974.00   33.70
  -2   5   6  937.11   35.20
   2   5  -6  961.00   33.10
  -1  -5   6  404.06   19.20
  -1  -5   6  443.36   22.20
   1  -5  -6  449.06   26.20
  -1  -5   6  450.05   26.10
  -1  -5   6  460.15   45.30
  -1   5   6  422.86   22.50
  -1   5   6  460.95   28.60
  -1   5   6  406.86   28.00
   1   5  -6  488.85   29.00
   1   5  -6  440.66   42.30
   0  -5   6  774.92   31.80
   0  -5   6  677.13   30.50
   0  -5   6  812.22   59.99
   0  -5  -6  698.83   37.90
   0  -5   6  704.93   28.30
   0  -5  -6  720.63   35.70
   0   5  -6  801.82   34.40
   0   5   6  717.93   32.60
   0   5   6  684.63   43.10
   0   5   6  743.13   39.10
   0   5   6  727.13   30.80
   0   5  -6  666.93   51.89
   1  -5   6 1036.80   34.60
   1  -5   6 1024.30   69.49
  -1  -5  -6 1047.40   48.70
   1  -5   6 1043.70   42.30
   1  -5   6  982.60   34.00
  -1  -5  -6  985.50   44.90
   1   5   6 1065.09   41.00
   1   5   6 1110.89   43.90
   1   5   6 1019.40   57.79
   1   5   6 1027.70   49.80
  -2  -5  -6  712.43   48.20
   2  -5   6  581.24   27.10
  -2  -5  -6  640.24   38.20
  -2  -5  -6  718.73   36.40
   2  -5   6  633.14   53.39
   2   5   6  583.14   38.00
   2   5   6  668.63   38.60
   2   5   6  689.83   32.60
   2   5   6  661.73   49.00
  -3  -5  -6  328.37   33.40
   3  -5   6  254.47   11.50
   3  -5   6  216.38   39.80
   3  -5   6  228.38   20.80
   3   5   6  256.17   33.30
   3   5   6  274.27   21.90
   4  -5   6  272.47   36.30
   4  -5   6  308.57   12.40
   4  -5   6  332.07   26.60
  -4  -5  -6  351.66   30.10
  -4  -5  -6  371.86   38.30
   4   5   6  302.97   39.00
   4   5   6  348.57   24.70
   4   5   6  321.47   25.50
  -5  -5  -6  208.88   24.90
  -5  -5  -6  213.98   33.40
   5  -5   6  211.18   10.20
   5  -5   6  196.38   32.70
   5  -5   6  166.78   33.00
   5   5   6  198.28   21.00
   5   5   6  220.38   21.00
   5   5   6  131.19   32.70
   6  -5   6  147.39   10.00
   6  -5   6  132.39   30.00
   6  -5   6  106.69    8.50
  -6  -5  -6   95.59   25.60
  -6  -5  -6  116.49   23.70
   6   5   6  157.48   22.00
  -7  -5  -6   96.69   23.70
   7  -5   6   86.79   10.60
   7  -5   6   39.00   22.10
   7  -5   6   90.19    9.40
  -8  -5  -6   92.09   27.70
   8  -5   6   65.79   16.40
   8   5   6  121.49   20.50
   9   6  -6   55.89   46.90
   8  -6  -6   17.60   15.80
  -8  -6   6   16.70   28.30
   8   6  -6   43.60   28.30
  -7  -6   6   -7.30   14.80
   7  -6  -6    7.80   11.90
   7   6  -6    0.50    9.10
   7   6  -6   -2.30   19.50
  -6  -6   6   -1.60    6.50
  -6  -6   6   22.20   14.30
   6  -6  -6   13.50    8.40
  -6  -6   6    2.20   16.70
   6  -6  -6    0.10    7.10
   6   6  -6  -14.70    8.50
  -6   6   6   -2.10    7.20
   6   6  -6  -12.00    7.20
   6   6  -6   22.50   16.50
  -5  -6   6   29.40   14.40
  -5  -6   6   24.40    8.60
  -5  -6   6   -3.50   10.60
   5  -6  -6   21.90    8.80
   5  -6  -6   19.30    9.40
   5   6  -6    8.10    8.00
  -5   6   6   22.40    9.80
   5   6  -6    9.10   14.60
  -5   6   6   -0.50    5.90
   5   6  -6   -5.30   14.10
   5   6  -6   12.70    7.50
  -4  -6   6   11.70    9.60
   4  -6  -6   27.90    9.10
  -4  -6   6   35.20   17.30
  -4   6   6   20.80    8.60
   4   6  -6   19.20   11.70
   4   6  -6   29.30    8.40
   4   6  -6   20.60   17.60
  -4   6   6   18.00    8.10
   3  -6  -6   17.90    7.30
  -3  -6   6    0.70    8.10
  -3  -6   6   16.90    6.50
   3  -6  -6    5.00    7.10
  -3  -6   6   14.20   15.10
   3   6  -6   17.00   10.20
  -3   6   6    1.40    4.30
   3   6  -6   -8.30   10.60
  -3   6   6   10.70    7.00
   3   6  -6   11.90    4.70
  -3   6   6   11.60    2.70
   3   6  -6    2.70    4.50
   2  -6  -6    5.40    5.60
  -2  -6   6    9.90    6.40
   2  -6  -6   18.90    7.00
  -2  -6   6    9.50   12.80
  -2  -6   6   -2.00    3.60
  -2   6   6   -2.00    5.70
  -2   6   6    5.60    3.00
   2   6  -6    4.30    3.30
  -2   6   6   11.20    5.70
   2   6  -6    4.10    2.70
   2   6  -6    2.50    8.80
   2   6  -6    0.80    7.30
  -2   6   6   -1.40    3.80
  -2   6   6    6.40    3.60
  -1  -6   6   28.30    8.80
   1  -6  -6   19.50    8.20
  -1  -6   6   21.60    5.70
  -1  -6   6   29.90   16.90
   1  -6  -6   20.80    8.40
  -1   6   6   23.00    9.40
  -1   6   6   23.40    6.90
   1   6  -6   21.70   10.20
  -1   6   6   22.50    9.10
   1   6  -6   22.00   17.20
   0  -6   6   50.29   19.60
   0  -6  -6   21.90    8.10
   0  -6   6   35.30    7.20
   0  -6  -6   42.80   10.70
   0  -6   6   52.79    9.00
   0  -6   6   37.50    8.60
   0   6   6   38.10   11.30
   0   6   6   16.30   10.80
   0   6   6   31.50   11.30
   0   6   6   39.30    8.40
   1  -6   6   78.89   24.70
   1  -6   6   74.59    8.00
   1  -6   6   74.49    8.10
  -1  -6  -6   75.69   15.20
  -1  -6  -6   94.29   16.70
   1  -6   6   92.59   14.10
   1  -6   6   74.79    7.60
   1   6   6   86.89   13.00
   1   6   6   84.19   12.20
   2  -6   6   83.29   27.20
   2  -6   6   26.90    8.10
  -2  -6  -6   28.30   10.70
  -2  -6  -6   36.80   16.30
   2  -6   6   27.70    5.10
   2   6   6   21.60    7.90
   2   6   6   50.99   19.50
   3  -6   6   52.19   21.50
   3  -6   6   27.40   10.50
  -3  -6  -6   26.80   11.00
  -3  -6  -6   34.70   14.70
   3  -6   6   34.90    4.80
   3   6   6   27.60    8.60
   3   6   6    4.50   13.40
   3   6   6   19.60    8.60
  -4  -6  -6   59.29   20.60
   4  -6   6   81.99   16.30
   4  -6   6   92.29   24.90
   4  -6   6   76.39    5.20
  -4  -6  -6   91.69   20.00
   4   6   6   72.09   13.70
   4   6   6   70.79   14.80
   4   6   6   16.10   35.60
  -5  -6  -6   15.90   12.30
   5  -6   6   24.30   20.20
  -5  -6  -6   89.39   27.70
   5   6   6   53.69   15.00
   6  -6   6   23.20   22.00
  -6  -6  -6   10.20   13.20
  -6  -6  -6   32.00   26.00
   7  -6   6   16.90   25.10
  -7  -6  -6   65.19   25.80
   8  -6   6   63.79   36.00
   7  -7  -6   64.79   18.90
   7   7  -6   58.39   17.00
   6  -7  -6   78.09   18.70
  -6  -7   6   69.49   25.90
   6   7  -6   73.69   17.10
   6   7  -6   93.59   16.80
  -5  -7   6  131.79   26.00
  -5  -7   6   94.89   33.30
   5  -7  -6  117.09   18.80
  -5  -7   6  131.39   18.80
   5  -7  -6  114.49   17.80
   5   7  -6  117.29   18.50
  -5   7   6  124.29   29.70
   5   7  -6  114.09   16.90
   4  -7  -6  177.78   20.80
  -4  -7   6  160.28   18.70
  -4  -7   6  126.39   33.30
   4  -7  -6  171.88   19.30
  -4  -7   6  215.28   33.50
   4   7  -6  199.38   19.90
  -4   7   6  174.38   25.20
   4   7  -6  151.68   15.60
  -3  -7   6  145.39   36.50
   3  -7  -6  135.59   22.00
  -3  -7   6  127.49   17.00
   3  -7  -6  166.28   19.40
  -3  -7   6  149.49   23.30
   3   7  -6  137.19   11.30
  -3   7   6  185.18   26.30
   3   7  -6  122.49   33.80
   3   7  -6  114.89   10.60
  -2  -7   6  187.78   21.00
   2  -7  -6  162.88   19.90
  -2  -7   6  199.18   40.90
  -2  -7   6  196.98   17.50
  -2  -7   6  220.78   21.40
   2  -7  -6  191.28   20.20
   2   7  -6  126.59   28.00
  -2   7   6  202.48   21.40
  -2   7   6  255.97   23.60
  -2   7   6  207.68    9.00
  -1  -7   6  273.27   21.70
  -1  -7   6  213.98   41.50
   1  -7  -6  221.38   21.40
  -1  -7   6  244.38   36.00
   1  -7  -6  236.48   22.90
  -1  -7   6  210.28   17.20
  -1   7   6  246.88   22.50
  -1   7   6  274.87   15.40
  -1   7   6  212.78   23.70
  -1   7   6  257.97   15.80
   0  -7   6  193.88   16.10
   0  -7  -6  214.08   22.90
   0  -7   6  239.88   41.50
   0  -7   6  178.38   15.80
   0  -7  -6  181.78   26.70
   0   7   6  175.58   15.80
   0   7   6  186.88   31.50
   0   7   6  170.18   18.30
   1  -7   6  103.59    8.80
  -1  -7  -6  131.89   19.90
   1  -7   6  123.49   11.30
  -1  -7  -6  162.58   29.30
   1  -7   6  205.08   38.60
  -1  -7  -6  109.59   20.10
   1  -7   6  136.79    9.20
   1   7   6  117.89   15.50
   1   7   6  124.39   15.70
   1   7   6   92.99   23.30
   2  -7   6   99.29    9.60
   2  -7   6  136.29   36.00
   2  -7   6   94.59   16.00
  -2  -7  -6  104.39   21.40
  -2  -7  -6   74.59   20.10
   2   7   6  146.89   35.30
   2   7   6  101.89   15.10
   2   7   6  140.19   15.40
   3  -7   6  165.08   37.90
  -3  -7  -6  216.18   35.10
   3  -7   6  193.18   22.90
  -3  -7  -6  179.38   30.90
   3  -7   6  167.08   10.50
   3   7   6  192.48   20.70
   3   7   6  178.68   19.50
  -4  -7  -6   92.39   21.60
   4  -7   6   62.29   15.90
  -4  -7  -6   74.69   24.80
   4  -7   6   36.50   20.70
  -5  -7  -6   56.49   19.90
  -5  -7  -6   31.80   27.20
   5  -7   6   54.79   25.70
   6  -7   6    7.80   25.70
  -6  -7  -6   -8.40   33.70
   6   8  -6   39.80   16.00
   5   8  -6   -3.50   10.40
   4  -8  -6   20.80   13.70
  -4  -8   6   25.50   16.00
   4   8  -6    8.40    7.60
   4   8  -6   28.80    8.10
   3  -8  -6  -15.80   11.20
  -3  -8   6    9.20    8.40
  -3   8   6   13.30    9.40
   2  -8  -6   16.60   15.30
   2  -8  -6   11.40   10.40
  -2  -8   6   11.40    6.90
  -2  -8   6    4.10   20.90
  -2  -8   6    1.10   10.90
  -2   8   6    2.10    9.20
  -1  -8   6  -11.90    6.60
  -1  -8   6    5.00    9.10
   1  -8  -6    9.30   15.00
   1  -8  -6    6.20   14.30
  -1  -8   6   -2.60   17.20
  -1  -8   6    8.20    7.30
  -1   8   6   15.20    8.60
  -1   8   6   10.40   12.40
   0  -8  -6   -2.80   16.10
   0  -8   6    8.00    7.30
   0  -8  -6   17.30   13.20
   0  -8   6    5.50    7.40
   0  -8   6    0.40   17.30
   0  -8   6   14.90    6.40
   0   8   6   12.70   16.10
   0   8   6    8.40    6.90
   0   8   6   18.70    6.80
   0   8   6    4.20    8.00
   1  -8   6   28.90   19.60
   1  -8   6    0.20    5.70
  -1  -8  -6   -5.20   16.70
   1   8   6  -10.40   17.20
   1   8   6   -5.30   13.90
   1   8   6   11.80    8.10
   1   8   6   -7.00    7.30
   2  -8   6   22.90   20.60
   2  -8   6   21.00    7.20
  -2  -8  -6   19.50   19.90
   2   8   6   -4.10    9.10
   2   8   6   44.70   11.10
   2   8   6   32.70   11.50
   2   8   6   35.50   26.40
  -3  -8  -6   11.90   22.30
   3  -8   6   11.90   20.20
   3   8   6    6.30    8.50
   3   8   6    3.90   10.70
   3   8   6   13.00   11.50
   4  -8   6   39.40   27.10
   4   8   6    0.60   13.10
   4   8   6   16.00   11.20
   5  -8   6   39.60   32.20
  -1  -9   6   34.10   18.90
  -1   9   6   16.60   15.20
   0  -9   6   50.89   10.60
   0   9   6   20.30   14.00
   1   9   6   -3.40   11.20
   2   9   6   -4.80   22.50
   2   9   6   22.00   15.30
   3   9   6   21.20   22.10
  11   0  -7   -1.30   29.40
  10   0  -7   10.30   20.50
 -10   0   7   -1.20    7.70
  -9   0   7   -0.50    6.10
   9   0  -7   -1.20   12.80
   9   0  -7    4.80   13.80
  -8   0   7   -1.60    4.80
  -8   0   7   -5.40    8.50
   8   0  -7   -2.80   10.30
   8   0  -7   -5.60    9.10
  -8   0   7   -0.70    4.10
  -7   0   7   -8.20    6.00
   7   0  -7    2.30    4.80
  -7   0   7   -2.10    5.20
   7   0  -7   -2.80    6.70
  -7   0   7   -1.90    4.50
   7   0  -7   -1.90    6.30
  -7   0   7    0.10    3.60
   6   0  -7   -4.40    5.60
  -6   0   7   -3.20    6.00
  -6   0   7    0.70    5.40
   6   0  -7    2.60    5.20
   6   0  -7   -4.40    3.20
  -6   0   7   -2.00    2.90
  -6   0   7   -0.60    2.70
  -5   0   7    4.80    4.60
   5   0  -7   -2.90    2.80
  -5   0   7    4.60    3.00
  -5   0   7    1.90    5.10
   5   0  -7    2.10    4.40
   5   0  -7   -5.90    3.70
  -5   0   7   -2.70    2.30
  -4   0   7  -10.40    3.60
   4   0  -7   -4.70    1.80
   4   0  -7    6.50    5.40
  -4   0   7    3.70    2.80
   4   0  -7   -2.60    3.40
  -4   0   7    5.10    4.50
   3   0  -7   -1.10    1.60
   3   0  -7    1.00    3.30
   3   0  -7   -5.00    3.30
  -3   0   7    2.20    4.30
  -3   0   7    3.20    3.50
  -3   0   7   -0.80    1.50
  -2   0   7   -0.30    1.70
  -2   0   7   -3.40    2.00
   2   0  -7   -0.70    2.60
  -2   0   7   -1.60    3.40
   2   0  -7   -1.90    2.00
  -1   0   7    0.50    2.40
   1   0  -7   -1.20    1.60
   1   0  -7   -1.70    2.30
  -1   0   7   -0.60    3.60
  -1   0   7    2.10    2.00
   0   0   7    2.80    2.50
   0   0   7   -2.90    1.60
   0   0  -7    1.10    2.30
   0   0  -7    0.50    1.50
   1   0   7   -1.20    1.50
  -1   0  -7   -1.90    2.50
   1   0   7   -2.70    1.90
  -1   0  -7   -0.70    1.70
   2   0   7   -0.90    1.80
   2   0   7   -0.80    2.50
  -2   0  -7    0.80    2.30
  -2   0  -7    1.50    1.90
   3   0   7    0.10    2.50
  -3   0  -7    3.50    3.30
   3   0   7    1.60    2.60
   4   0   7    3.20    3.60
  -4   0  -7    3.20    5.60
   4   0   7   -0.80    2.70
  -4   0  -7    0.30    3.30
   5   0   7   -0.60    3.40
  -5   0  -7    8.00    4.30
  -6   0  -7   -2.80    8.20
   6   0   7    4.50    4.20
   7   0   7    4.20    7.80
  -7   0  -7   12.90   10.30
   7   0   7    1.90    5.90
   7   0   7   -2.10    5.70
  -8   0  -7   -8.00    9.40
   8   0   7   14.30    8.20
   8   0   7  -16.30    8.60
   8   0   7   22.90    8.50
   9   0   7    3.40   10.90
  -9   0  -7    3.60   14.30
 -10  -1   7  -18.30    9.00
  10  -1  -7   12.80   16.30
  10   1  -7    3.30   24.00
   9  -1  -7   38.70   13.80
  -9  -1   7   -3.80   11.90
  -9  -1   7    0.60    6.10
  -9   1   7    5.50    7.80
  -9   1   7    0.30    5.10
   9   1  -7   14.80   16.80
   9   1  -7    5.50   12.30
  -8  -1   7    3.80    4.70
   8  -1  -7   -5.00    6.10
   8  -1  -7    1.60    8.50
  -8  -1   7   -3.90    8.20
  -8  -1   7    5.90    5.00
   8  -1  -7    1.80    8.40
  -8  -1   7  -13.60    8.10
   8   1  -7   -6.90    6.00
  -8   1   7    2.60    9.00
   8   1  -7   16.30   14.70
   8   1  -7   -3.60    9.40
  -8   1   7    7.60    6.70
   7  -1  -7    9.20    8.70
   7  -1  -7   13.30    6.40
  -7  -1   7   13.00   10.50
   7  -1  -7   10.70    7.30
  -7  -1   7    1.30    4.60
  -7  -1   7   19.80   10.20
  -7  -1   7    2.30    4.00
   7   1  -7    8.60    8.50
   7   1  -7   17.20    9.60
  -7   1   7   18.40    8.10
  -7   1   7   11.00    6.60
  -7   1   7    8.40    5.00
   7   1  -7    9.70    9.10
   6  -1  -7   18.00    8.80
  -6  -1   7   28.80    6.70
  -6  -1   7   24.10   10.80
  -6  -1   7   19.50    9.90
   6  -1  -7   23.90    9.70
  -6  -1   7   34.00    7.90
   6  -1  -7   28.00    7.70
   6   1  -7   24.20   10.40
  -6   1   7   18.40    8.10
  -6   1   7   34.40    7.60
  -6   1   7   15.30    6.20
   6   1  -7   18.00   10.70
  -6   1   7   27.30    8.90
   5  -1  -7   61.29   13.10
   5  -1  -7   65.29   14.50
  -5  -1   7   55.69   12.40
  -5  -1   7   59.29    8.80
  -5  -1   7   51.59    9.60
   5  -1  -7   61.69   10.80
  -5  -1   7   64.99   17.60
   5   1  -7   59.09   10.50
   5   1  -7   68.09   19.20
  -5   1   7   61.19   10.80
  -5   1   7   39.90   12.40
  -5   1   7   49.80    9.00
   5   1  -7   67.89   14.80
  -5   1   7   60.49   12.60
   4  -1  -7   24.90    7.90
  -4  -1   7   18.00    9.00
  -4  -1   7   14.10    4.90
   4  -1  -7   29.10    8.50
  -4  -1   7   10.00    5.50
   4  -1  -7   27.10    6.90
   4   1  -7   27.80    8.60
   4   1  -7   27.40   10.10
  -4   1   7   19.10   10.10
   4   1  -7   16.00    5.20
  -4   1   7   16.50    5.90
  -4   1   7   17.10    4.90
  -3  -1   7    1.30    1.80
  -3  -1   7   -5.10    3.30
   3  -1  -7   -5.20    2.20
   3  -1  -7    4.60    2.70
  -3  -1   7    1.00    2.80
  -3   1   7    0.30    2.00
   3   1  -7    1.70    2.80
  -3   1   7    4.90    3.60
   3   1  -7    5.20    5.10
   3   1  -7   -1.30    1.90
  -3   1   7    1.40    4.00
  -2  -1   7  316.57   29.50
   2  -1  -7  312.67   21.30
   2  -1  -7  303.07   18.10
  -2  -1   7  320.97   18.20
  -2  -1   7  322.37   21.00
   2   1  -7  304.87   27.20
   2   1  -7  319.37   17.80
   2   1  -7  313.17   21.90
  -2   1   7  359.46   29.60
  -2   1   7  329.87   18.40
  -2   1   7  348.77   21.80
  -1  -1   7    0.20    1.90
   1  -1  -7   -1.00    2.30
   1  -1  -7   -3.10    1.90
  -1  -1   7    1.50    3.70
  -1  -1   7    1.90    2.40
  -1   1   7    4.00    4.40
   1   1  -7    1.40    2.60
  -1   1   7   -1.10    1.60
  -1   1   7   -2.30    2.00
   1   1  -7    0.50    1.70
   0  -1   7   73.19    7.80
   0  -1  -7   80.69    8.90
   0  -1   7   88.89    9.70
   0  -1   7   66.79   13.90
   0  -1  -7   86.19   10.40
   0   1   7   62.29   10.30
   0   1  -7   86.99   12.60
   0   1   7   77.79    8.50
   0   1  -7   70.19    7.00
   1  -1   7   26.20    5.60
   1  -1   7   26.90    6.50
  -1  -1  -7   37.50    8.30
  -1  -1  -7   26.90    6.00
   1   1   7   28.10    6.70
   1   1   7   21.20    6.20
  -1   1  -7   27.50    6.50
  -1   1  -7   27.40    5.10
  -2  -1  -7   24.60    7.10
   2  -1   7   17.60    4.60
  -2  -1  -7   24.10    5.80
   2  -1   7   33.40    7.20
   2   1   7   34.20    8.30
   2   1   7   23.50    6.20
   3  -1   7    4.20    2.80
   3  -1   7    6.50    3.80
  -3  -1  -7    2.60    3.90
   3   1   7    6.50    4.80
  -3   1  -7    8.30    3.50
   3   1   7    2.30    3.10
  -4  -1  -7    7.60    5.00
  -4  -1  -7   -2.00    5.20
   4  -1   7    6.10    4.80
   4  -1   7    2.20    3.10
  -4   1  -7    5.00    3.30
   4   1   7    4.40    4.50
   4   1   7    6.40    4.70
  -4   1  -7    8.90    5.50
  -5  -1  -7  205.68   24.00
  -5  -1  -7  196.88   19.20
   5  -1   7  195.48   15.50
   5   1   7  170.68   16.50
  -5   1  -7  208.68   16.40
   6  -1   7    8.60    4.40
  -6  -1  -7    5.30    7.30
  -6  -1  -7    7.60    8.80
  -6   1  -7  -11.50    6.30
   7  -1   7    9.10    5.90
  -7  -1  -7   14.60   12.50
   7  -1   7    4.80    7.50
   7  -1   7    6.40    5.30
  -7  -1  -7   14.40    8.40
  -7   1  -7   15.70   11.70
  -7   1  -7   -9.30    7.90
   7   1   7   -7.70   11.40
   7   1   7    2.20    6.20
   7   1   7   -3.60    5.50
   8  -1   7   29.80   11.30
   8  -1   7    9.00    8.40
  -8  -1  -7    2.30    9.90
   8   1   7    3.30    9.40
   8   1   7    1.50   13.80
  -8   1  -7   -2.10    8.60
   9  -1   7    2.30   11.00
  -9  -1  -7   11.90   17.70
  -9   1  -7   -8.90   13.60
 -10  -2   7   13.90   10.00
  10  -2  -7   -0.70   13.50
  10   2  -7    4.20   30.10
   9  -2  -7   -1.20   10.20
   9  -2  -7  -18.90   11.70
  -9  -2   7   -6.80    8.40
  -9  -2   7   -1.10   12.70
  -9   2   7    5.60    6.30
   9   2  -7   29.30   19.30
   9   2  -7    1.30   14.20
  -8  -2   7   -5.00    4.80
  -8  -2   7    9.50   12.20
   8  -2  -7    9.30    7.80
   8  -2  -7   -4.70    6.40
   8  -2  -7    4.50    9.00
  -8  -2   7   -2.30   11.00
   8   2  -7    9.70   15.60
   8   2  -7   -3.00    6.80
  -8   2   7   12.50    8.80
   8   2  -7    0.80   12.20
  -8   2   7   -0.90    4.20
  -8   2   7    5.60    8.70
  -7  -2   7    3.00    9.90
   7  -2  -7   22.40    7.60
  -7  -2   7   15.30    6.20
   7  -2  -7   11.30    8.00
   7  -2  -7    1.80    7.00
  -7  -2   7   38.10   13.70
   7   2  -7   11.40    9.30
  -7   2   7    9.80    4.40
  -7   2   7   14.20    8.60
   7   2  -7   21.10   12.90
  -7   2   7    8.10    8.70
   7   2  -7   25.00    8.70
   6  -2  -7    9.80    5.00
   6  -2  -7    5.30    6.20
  -6  -2   7   12.40    9.00
  -6  -2   7    3.70    3.70
  -6  -2   7    0.10    2.80
   6  -2  -7   -1.50    4.10
  -6  -2   7    3.90    7.30
   6   2  -7   15.70    8.20
  -6   2   7    4.60    4.20
   6   2  -7    3.70    7.10
  -6   2   7    2.10    5.60
  -6   2   7   16.30    5.30
  -5  -2   7  104.49    8.80
   5  -2  -7   93.59   16.20
   5  -2  -7  115.39   12.30
  -5  -2   7   82.19   12.30
  -5  -2   7   97.99   18.00
  -5  -2   7   99.29   22.40
  -5   2   7  102.49   10.30
   5   2  -7  107.39   20.20
   5   2  -7  125.89   12.90
  -5   2   7  132.69   18.90
  -5   2   7   98.79   14.20
   4  -2  -7   74.09   12.90
  -4  -2   7   83.69   12.10
   4  -2  -7  103.39   14.00
  -4  -2   7   74.99   20.20
  -4  -2   7   77.39   14.50
  -4   2   7   82.79    9.00
   4   2  -7   88.09   10.30
   4   2  -7   81.29   15.40
  -4   2   7   87.49   14.40
  -4   2   7   80.99    9.10
   4   2  -7  130.39   28.00
   3  -2  -7    1.60    2.90
  -3  -2   7    1.90    2.30
  -3  -2   7    3.00    4.80
   3  -2  -7    5.60    2.80
  -3  -2   7   -5.20    3.90
   3   2  -7    3.20    2.90
   3   2  -7    3.80    5.80
  -3   2   7   -2.50    1.70
  -3   2   7   -0.60    3.10
  -3   2   7   -0.20    2.80
   3   2  -7    4.10    5.00
  -2  -2   7    3.70    5.50
  -2  -2   7    9.50    4.20
   2  -2  -7   11.50    4.60
  -2  -2   7   10.70    3.80
   2  -2  -7    9.10    4.80
   2   2  -7    9.00    4.00
   2   2  -7    9.00    5.30
  -2   2   7   10.80    4.00
   2   2  -7    7.80    5.70
  -2   2   7    5.70    3.90
  -2   2   7    8.20    4.10
  -1  -2   7   51.09   15.80
   1  -2  -7   45.70    8.00
  -1  -2   7   36.80    8.00
   1  -2  -7   57.49   10.80
  -1  -2   7   55.89    8.20
   1   2  -7   53.29    7.60
  -1   2   7   62.29    9.50
   1   2  -7   68.79   18.60
  -1   2   7   46.00    8.90
   1   2  -7   47.20   10.10
   0  -2  -7   58.29   10.70
   0  -2  -7   43.30    8.00
   0  -2   7   56.69    9.30
   0  -2   7   50.09    7.60
   0  -2   7   67.79   19.00
   0   2   7   55.59   10.20
   0   2  -7   59.09    5.90
   0   2   7   35.20    7.00
  -1  -2  -7  112.29   11.30
   1  -2   7   77.69   16.80
   1  -2   7  110.69    9.20
   1  -2   7   99.69    9.70
  -1  -2  -7  100.59   12.50
   1   2   7  117.29   12.90
  -1   2  -7  117.89    6.40
  -1   2  -7  113.79   10.80
   1   2   7  134.89   12.10
  -2  -2  -7   16.50    5.40
  -2  -2  -7   15.90    5.90
   2  -2   7   12.20    7.70
   2  -2   7   22.00    5.70
   2  -2   7   13.70    4.00
  -2   2  -7   14.20    4.80
   2   2   7   27.30    7.00
   3  -2   7   13.00    4.40
  -3  -2  -7   11.70    6.00
   3  -2   7   13.60    4.80
   3   2   7   13.50    7.20
   4  -2   7    0.20    3.00
  -4  -2  -7   -2.80    4.40
  -4  -2  -7   -5.00    7.00
   4  -2   7    1.10    2.60
   4   2   7   -5.30    4.50
  -4   2  -7   -6.30    2.40
   4   2   7    2.10    4.20
  -4   2  -7    7.00    4.20
  -5  -2  -7    2.90    5.10
  -5  -2  -7    0.80    8.20
   5  -2   7   14.00    4.60
  -5   2  -7    8.20    4.10
   5   2   7   13.40    6.30
   6  -2   7   10.90    8.20
   6  -2   7    3.50    5.00
  -6  -2  -7    1.60    7.10
  -6  -2  -7   12.60   11.90
   6   2   7   19.60    8.60
   6   2   7   14.10    7.30
  -6   2  -7   11.00    7.20
  -6   2  -7   11.60    5.20
   6   2   7   -1.50    8.60
  -7  -2  -7   -5.40    9.00
   7  -2   7   -0.60    5.20
   7  -2   7   -5.80    7.70
  -7  -2  -7  -16.60   11.90
   7   2   7    3.90    6.70
  -7   2  -7   -9.80    7.10
   7   2   7    3.50    7.20
  -7   2  -7    3.60    5.30
   7   2   7   -2.10   14.40
   8  -2   7    3.80    7.40
   8  -2   7   16.70    8.20
  -8  -2  -7  -15.80   11.90
   8   2   7   -7.10    9.20
  -8   2  -7   12.00    9.40
   8   2   7   27.60   11.00
  -9  -2  -7   29.80   20.60
   9  -2   7   -2.00   10.40
   9  -2   7   -5.90   11.90
  -9   2  -7   12.60   12.70
  -9  -3   7   -7.80    8.00
  -9  -3   7    1.90   15.90
  -9  -3   7  -15.90   16.60
  -9   3   7    8.90    9.30
   9   3  -7   15.50   15.90
   8  -3  -7   33.00   20.70
  -8  -3   7   64.59   12.30
  -8  -3   7   60.19   18.90
  -8  -3   7   63.19   18.30
   8   3  -7   25.50   15.70
  -8   3   7   30.90   12.00
   8   3  -7   68.59   21.20
  -8   3   7   43.30    7.30
  -7  -3   7    0.30    5.10
   7  -3  -7    6.60    6.70
   7  -3  -7    2.20    6.50
  -7  -3   7   10.80    9.50
  -7  -3   7    2.60    9.60
   7   3  -7    6.50   10.50
  -7   3   7   -2.00    4.50
   7   3  -7   11.50    7.30
   7   3  -7   -1.10    7.30
  -7   3   7    6.00    4.10
   6  -3  -7  157.38   19.20
  -6  -3   7  179.28   26.60
   6  -3  -7  169.78   15.90
  -6  -3   7  135.09   15.20
  -6  -3   7  160.28   31.30
  -6   3   7  129.49   20.10
   6   3  -7  155.98   27.30
   6   3  -7  103.09   26.90
  -6   3   7  149.69   11.90
   6   3  -7  166.08   16.90
  -5  -3   7   55.49    5.10
   5  -3  -7   64.09   11.40
  -5  -3   7   57.19   10.80
  -5  -3   7   72.69   16.30
   5  -3  -7   61.29   12.70
  -5   3   7   74.79    8.70
  -5   3   7   57.29   12.60
   5   3  -7   76.89   17.40
   5   3  -7   61.49   11.20
   5   3  -7   51.39   17.70
   4  -3  -7   31.00    8.80
  -4  -3   7   57.69   18.80
  -4  -3   7   33.60   10.60
  -4  -3   7   41.40    9.00
   4  -3  -7   29.00    8.60
  -4   3   7   24.70    8.40
   4   3  -7   42.60   12.10
   4   3  -7   50.19    9.50
   4   3  -7   24.30   11.10
  -4   3   7   33.40    7.50
  -3  -3   7   45.90   16.70
  -3  -3   7   67.29   10.50
   3  -3  -7   91.89   15.00
  -3  -3   7   42.30   10.50
   3  -3  -7   66.89   10.50
  -3   3   7   63.99    9.50
   3   3  -7   59.89    9.80
  -3   3   7   44.90   10.60
   3   3  -7   76.89   14.70
  -2  -3   7  178.28   13.60
   2  -3  -7  191.48   17.00
  -2  -3   7  222.28   28.70
   2  -3  -7  189.18   15.10
  -2  -3   7  194.88   17.00
   2   3  -7  129.79   22.60
   2   3  -7  215.28   19.30
  -2   3   7  187.28   14.10
  -2   3   7  210.18   15.70
   2   3  -7  189.28   13.10
  -2   3   7  200.88   17.30
  -1  -3   7  608.34   48.70
   1  -3  -7  638.64   30.10
  -1  -3   7  595.44   29.60
  -1  -3   7  600.84   26.30
   1  -3  -7  599.74   32.40
  -1   3   7  673.03   33.20
  -1   3   7  644.24   28.70
   1   3  -7  583.94   23.00
   0  -3   7    3.90    2.60
   0  -3   7   -0.30    2.90
   0  -3  -7    4.90    4.40
   0  -3   7    0.70    5.10
   0   3  -7    3.90    1.50
   0   3   7   11.10    5.50
   0   3   7    5.50    3.50
   0   3  -7    4.90    4.10
  -1  -3  -7  680.33   32.20
   1  -3   7  655.53   49.60
  -1  -3  -7  678.83   35.60
   1  -3   7  669.03   27.00
   1  -3   7  660.83   25.60
  -1   3  -7  627.14   27.90
   1   3   7  667.33   31.10
   1   3   7  696.33   36.20
  -2  -3  -7   57.19   12.30
   2  -3   7   56.29    8.00
  -2  -3  -7   46.30    9.70
   2  -3   7   53.59    7.40
   2  -3   7   38.30   15.70
   2   3   7   66.89   11.40
  -2   3  -7   59.69    8.60
   2   3   7   46.20   11.10
   3  -3   7   12.90    9.80
   3  -3   7   10.50    4.00
  -3  -3  -7   11.40    6.40
   3  -3   7   10.20    3.80
   3   3   7   15.50   11.50
   3   3   7   17.80    6.30
  -3   3  -7    8.60    3.50
   3   3   7   17.70    7.50
   4  -3   7  183.98   12.30
   4  -3   7  199.58   37.80
   4  -3   7  202.08   20.30
  -4  -3  -7  222.28   32.00
  -4  -3  -7  189.28   20.60
  -4   3  -7  204.88   10.90
  -4   3  -7  189.28   11.30
   4   3   7  208.68   18.90
   4   3   7  233.08   30.00
   5  -3   7   99.79   10.10
  -5  -3  -7   97.99   19.30
  -5  -3  -7  114.59   24.20
   5  -3   7   96.99   18.50
   5   3   7  124.69   17.30
  -5   3  -7  109.09    7.40
  -5   3  -7   92.59    7.50
   5   3   7  128.79   29.30
   5   3   7  111.89   17.20
  -6  -3  -7   55.79   16.40
   6  -3   7   58.79    9.50
  -6  -3  -7   76.39   19.80
   6   3   7   74.29   13.80
  -6   3  -7   86.09    6.80
   6   3   7   35.90   17.40
   6   3   7   74.49   14.60
  -7  -3  -7   -6.00    8.90
   7  -3   7   11.90    6.10
  -7  -3  -7   -8.70   15.80
   7  -3   7   -2.40    5.50
   7   3   7   13.50    9.60
   8  -3   7   29.50    9.10
   8  -3   7   44.60   11.50
   8   3   7   23.40   13.90
   9  -3   7    8.90   11.40
   9  -3   7   26.80   11.90
   9   4  -7  -12.10   20.80
  -8  -4   7   19.80   18.00
  -8  -4   7   46.40   22.20
  -8  -4   7   30.80    9.70
   8  -4  -7   30.70    9.60
   8  -4  -7   27.30   11.50
   8   4  -7   19.70   18.60
  -8   4   7   17.00   10.40
  -7  -4   7   81.09   19.50
  -7  -4   7   58.59   13.50
  -7  -4   7   69.39   23.40
   7  -4  -7   68.29   12.80
   7  -4  -7   24.30   10.90
   7   4  -7   29.50   20.80
   7   4  -7   34.30   16.00
  -7   4   7   75.79   14.90
  -7   4   7   59.59   14.90
   7   4  -7   50.19   12.20
  -7   4   7   52.59    5.00
  -6  -4   7    2.60    9.50
  -6  -4   7   10.10    6.60
   6  -4  -7   -2.00    6.80
  -6  -4   7    2.20    8.70
   6  -4  -7    0.80    6.10
   6   4  -7    2.10   11.50
  -6   4   7    5.60    5.90
   6   4  -7   17.20    8.20
   6   4  -7    0.40   11.10
  -6   4   7    7.10    7.60
   5  -4  -7  132.09   14.70
  -5  -4   7  125.29   14.40
   5  -4  -7  154.78   17.80
  -5  -4   7  126.49   22.50
  -5  -4   7  137.19   30.50
   5   4  -7  108.99   29.40
   5   4  -7  157.58   15.60
   5   4  -7  136.69   24.00
  -5   4   7  112.49    9.70
  -5   4   7  121.49   19.60
  -4  -4   7   65.49   14.10
  -4  -4   7   31.50    8.50
  -4  -4   7   51.99   18.80
   4  -4  -7   32.90   10.20
   4  -4  -7   43.30    9.00
  -4   4   7   54.89   12.70
  -4   4   7   44.50    7.50
   4   4  -7   26.70    7.00
  -3  -4   7   49.20    4.30
  -3  -4   7   48.70   13.80
   3  -4  -7   51.19   10.10
   3  -4  -7   33.20    9.90
  -3  -4   7   64.99   17.90
  -3  -4   7   47.90    9.60
  -3   4   7   54.39   11.20
   3   4  -7   79.69   15.80
  -3   4   7   41.40    7.90
   3   4  -7   52.69    9.00
   2  -4  -7    9.40    5.80
  -2  -4   7   20.10   13.00
  -2  -4   7   28.10    8.60
  -2   4   7   27.90    6.80
  -2   4   7   28.20    8.30
   2   4  -7   18.40    7.30
  -2   4   7   18.90    5.60
   2   4  -7   19.20    9.60
   2   4  -7   17.10    5.40
  -1  -4   7  246.28   15.90
  -1  -4   7  290.57   46.70
   1  -4  -7  258.37   20.80
  -1  -4   7  232.58   18.10
   1  -4  -7  246.28   20.90
   1   4  -7  264.77   31.60
  -1   4   7  279.37   18.10
  -1   4   7  230.88   20.20
   1   4  -7  259.27   20.30
   1   4  -7  258.57   11.80
  -1   4   7  225.28   19.70
   0  -4  -7   -3.90    3.40
   0  -4   7    3.70    7.80
   0  -4   7    3.50    3.40
   0  -4  -7    4.60    4.10
   0  -4   7    6.00    3.00
   0  -4   7    0.10    2.80
   0   4   7    2.60    3.10
   0   4   7   -3.40    4.10
   0   4  -7   11.00    5.10
   1  -4   7    3.30    4.10
   1  -4   7    6.70    3.00
  -1  -4  -7    2.50    3.60
   1  -4   7   -4.00    6.10
   1  -4   7    6.40    3.00
  -1  -4  -7    9.70    5.40
   1   4   7    6.30    4.40
  -1   4  -7   12.50    4.50
   1   4   7    7.70    7.20
   1   4   7    7.70    5.70
   2  -4   7  154.48   10.00
   2  -4   7  122.59   30.60
   2  -4   7  135.49   15.10
   2  -4   7  147.19    9.70
  -2  -4  -7  125.99   18.50
   2   4   7  153.78   14.80
   2   4   7  150.88   18.30
  -2   4  -7  130.49    8.20
   2   4   7  167.48   30.30
   3  -4   7    0.00    4.00
  -3  -4  -7    9.60    7.60
   3  -4   7    2.40    8.00
   3  -4   7   -4.10    2.00
  -3  -4  -7    4.10    5.80
   3   4   7   -3.60    4.90
   3   4   7   -1.60    3.90
   4  -4   7   -2.00    7.80
  -4  -4  -7    2.80    9.30
   4  -4   7   11.40    3.60
  -4  -4  -7   11.30    8.50
   4  -4   7    9.40    6.60
   4   4   7   13.90    7.40
   4   4   7   12.40    6.10
   4   4   7   -5.60    6.80
  -5  -4  -7    8.20   10.80
  -5  -4  -7    0.70    7.00
   5  -4   7   -4.10   11.80
   5  -4   7    2.00    3.30
   5  -4   7    1.50    6.20
   5   4   7    2.70   12.50
   5   4   7    1.10    5.70
   5   4   7    0.30    5.10
  -6  -4  -7    1.90   13.80
   6  -4   7    8.10   16.10
  -6  -4  -7    8.10   10.50
   6  -4   7   27.60    6.20
   6  -4   7   15.90    9.60
   6   4   7   14.70    8.50
   6   4   7   10.90   10.30
   7  -4   7    3.60   15.90
   7  -4   7   -8.70    5.50
   7   4   7   -1.20    9.70
  -8  -4  -7   -1.10   17.80
   8  -4   7   -1.50   22.50
   8  -4   7    7.50   10.90
   8  -4   7  -12.50    7.20
   9   5  -7   62.39   35.70
  -8  -5   7   48.50   25.10
   8  -5  -7   32.40   12.40
   8   5  -7   35.60   27.40
  -7  -5   7   35.10   17.00
   7  -5  -7   29.60   10.90
  -7  -5   7   16.40    8.20
  -7  -5   7   60.89   17.30
   7  -5  -7   52.69   15.20
  -7   5   7   15.90   10.50
   7   5  -7   13.40   10.70
   7   5  -7   29.50   16.80
  -6  -5   7   39.70   13.90
  -6  -5   7   27.30    8.90
  -6  -5   7   21.10   17.90
   6  -5  -7   20.60    9.30
   6  -5  -7   40.70   10.60
  -6   5   7   24.20    8.60
   6   5  -7   40.60   11.70
   6   5  -7   46.00   17.30
  -6   5   7   30.60    9.60
   6   5  -7    4.30   12.00
  -5  -5   7  104.59   22.70
   5  -5  -7  119.09   16.60
  -5  -5   7  102.79   28.90
   5  -5  -7  107.79   17.70
  -5  -5   7   92.79   14.30
  -5   5   7   89.39   15.60
   5   5  -7  100.89   23.50
  -5   5   7  107.19    6.90
   4  -5  -7  191.38   19.40
  -4  -5   7  163.48   23.90
   4  -5  -7  165.78   16.50
  -4  -5   7  156.28   16.20
  -4   5   7  176.08   11.70
  -4   5   7  185.38   19.70
   4   5  -7  200.78   16.10
   4   5  -7  184.78   27.90
  -4   5   7  201.68   20.90
   3  -5  -7  172.08   18.30
  -3  -5   7  166.78   23.20
  -3  -5   7  146.19   31.60
   3  -5  -7  156.18   15.90
  -3  -5   7  157.18   18.70
  -3   5   7  147.89   11.90
  -3   5   7  199.58   18.80
   3   5  -7  145.69   12.50
   3   5  -7  161.78   25.20
  -2  -5   7  158.38   14.30
  -2  -5   7  157.28   17.40
  -2  -5   7  152.98   30.30
   2  -5  -7  159.08   16.30
  -2  -5   7  179.28   10.20
   2  -5  -7  217.78   19.90
  -2   5   7  169.88   13.10
   2   5  -7  180.08   11.50
   2   5  -7  168.08   11.10
  -2   5   7  182.88   13.90
  -2   5   7  156.98   17.60
  -1  -5   7  166.78   12.20
  -1  -5   7  149.88   15.50
   1  -5  -7  162.28   17.30
  -1  -5   7  129.09   26.60
   1  -5  -7  164.28   16.30
  -1  -5   7  149.19   13.10
  -1   5   7  155.78   17.20
  -1   5   7  147.69   13.70
   1   5  -7  174.28   17.60
  -1   5   7  142.29   17.40
   0  -5   7  178.98   14.50
   0  -5  -7  193.68   19.70
   0  -5   7  173.68   13.10
   0  -5   7  179.78   14.70
   0  -5   7  209.98   41.20
   0  -5  -7  203.48   18.50
   0   5   7  178.28   21.20
   0   5  -7  203.98   16.70
   0   5   7  187.78   19.90
   0   5   7  187.38   16.20
   1  -5   7  227.28   17.90
   1  -5   7  210.48   13.40
   1  -5   7  229.18   42.80
  -1  -5  -7  252.17   20.90
   1  -5   7  212.38   13.40
  -1  -5  -7  240.88   25.40
  -1   5  -7  207.38   14.00
   1   5   7  197.78   21.00
   1   5   7  208.98   18.00
   1   5   7  226.38   27.20
   2  -5   7  158.38   34.20
  -2  -5  -7  179.48   18.60
   2  -5   7  173.78   11.20
  -2  -5  -7  161.78   19.10
   2  -5   7  155.88   16.40
   2   5   7  168.48   16.90
   2   5   7  188.18   22.10
   2   5   7  199.48   31.50
  -3  -5  -7  216.98   32.90
   3  -5   7  278.17   44.70
   3  -5   7  208.28   20.20
   3   5   7  174.38   18.40
   3   5   7  209.38   18.70
  -4  -5  -7   90.29   22.20
   4  -5   7   80.89    7.30
   4  -5   7   79.79   26.40
  -4  -5  -7  109.69   20.60
   4  -5   7  101.19   16.40
   4   5   7   86.69   15.00
   4   5   7  116.89   31.50
   5  -5   7   52.79   11.70
  -5  -5  -7   96.99   19.40
   5  -5   7   90.79    9.00
   5  -5   7   86.19   27.00
  -5  -5  -7   85.49   23.00
   5   5   7  106.49   18.30
   5   5   7   74.89   14.20
   5   5   7  123.99   40.20
  -6  -5  -7   18.70   21.70
  -6  -5  -7    9.90   10.70
   6  -5   7   45.20   19.60
   6  -5   7   20.50    5.50
   6   5   7   21.50   10.40
   7  -5   7   99.19   10.60
   7  -5   7  115.19   12.70
   7  -5   7  111.39   40.10
  -8  -5  -7   32.50   23.90
   8  -5   7  -31.60   24.70
   8   5   7   34.10   17.90
  -8  -6   7  -11.90   43.30
   8   6  -7  -18.00   30.90
   7  -6  -7   96.79   17.60
  -7  -6   7  105.99   27.10
   7   6  -7   53.89   27.20
   6  -6  -7    1.00    9.60
  -6  -6   7   11.20    8.20
   6  -6  -7   30.70   10.40
  -6  -6   7   35.60   18.10
  -6  -6   7   29.10   14.80
   6   6  -7   17.90   11.50
   6   6  -7    6.30   17.40
   6   6  -7   -0.60    8.90
  -6   6   7   11.10    9.30
   5  -6  -7   36.20   17.90
  -5  -6   7   31.10   13.60
  -5  -6   7   13.50    8.40
   5  -6  -7   23.10    9.30
   5   6  -7   47.20   17.80
   5   6  -7    6.00    8.20
   5   6  -7   18.90    9.00
  -5   6   7   19.90    9.70
  -4  -6   7   48.90   10.80
   4  -6  -7   71.69   14.50
  -4  -6   7   62.29   24.30
   4  -6  -7   55.89   12.00
  -4  -6   7   81.09   18.30
   4   6  -7   48.80   10.30
  -4   6   7   42.70   12.30
   4   6  -7   72.19   19.90
  -4   6   7   47.20   11.70
   4   6  -7   30.10   16.80
   4   6  -7   42.90    9.30
   3  -6  -7   40.10   10.60
  -3  -6   7   59.79   21.90
  -3  -6   7   51.09   14.70
  -3  -6   7   39.30    9.60
   3  -6  -7   36.90   11.10
   3   6  -7   45.10    8.40
  -3   6   7   72.59   17.40
   3   6  -7   28.30   12.90
   3   6  -7   63.29    9.40
  -3   6   7   51.49   11.40
  -3   6   7   58.19    7.70
  -3   6   7   48.70    6.90
  -2  -6   7   70.49   24.40
  -2  -6   7   78.79   12.30
  -2  -6   7   77.39   15.10
   2  -6  -7   89.39   15.40
   2  -6  -7   84.49   15.50
  -2   6   7   84.49   11.50
   2   6  -7   93.29   30.50
   2   6  -7   78.49    5.30
  -2   6   7   83.69    8.80
   2   6  -7   74.59    5.30
  -2   6   7   84.09   15.80
   2   6  -7   80.69   16.00
  -2   6   7   96.89   16.10
   1  -6  -7   85.79   15.60
  -1  -6   7   74.29    8.70
  -1  -6   7   81.99   13.50
  -1  -6   7   94.39   10.90
   1  -6  -7   91.59   15.00
  -1  -6   7   51.79   19.10
  -1   6   7   81.19   11.60
  -1   6   7  106.49   18.10
   1   6  -7  104.09   29.10
  -1   6   7  119.79   21.10
  -1   6   7   99.69   10.80
   1   6  -7   94.59   16.40
   0  -6   7   -4.00   12.70
   0  -6  -7   13.70    6.50
   0  -6   7   18.70    6.10
   0  -6   7   10.10    5.30
   0  -6  -7   17.20    7.00
   0   6   7    3.70    4.70
   0   6   7   10.70    9.90
   0   6   7    7.00    7.40
   1  -6   7   16.10    4.60
   1  -6   7   22.90    5.10
   1  -6   7   23.00    8.90
   1  -6   7   26.90   18.60
   1  -6   7    9.70    4.00
  -1  -6  -7   14.00    9.70
   1   6   7   16.40   10.00
   1   6   7    4.70    9.50
   1   6   7   22.80    7.40
   2  -6   7   33.70    6.40
  -2  -6  -7   10.90   13.50
   2  -6   7   12.00    5.80
  -2  -6  -7   23.90    9.40
   2  -6   7   15.10   14.00
   2   6   7   31.00    9.20
   2   6   7   29.00    8.90
   2   6   7   74.69   27.00
  -3  -6  -7   29.50   13.60
  -3  -6  -7   37.30   18.30
   3  -6   7   23.60    4.90
   3  -6   7   30.50    9.60
   3  -6   7   25.80   14.90
   3   6   7   23.50    8.30
   3   6   7   25.90   10.50
   3   6   7   21.40   13.30
  -4  -6  -7   11.20   16.40
  -4  -6  -7   10.50   11.50
   4  -6   7  -13.30   15.90
   4  -6   7   11.90    7.70
   4  -6   7   17.10    3.80
   4   6   7   25.10   12.40
   4   6   7   -4.90    8.00
   4   6   7   22.80   15.20
  -5  -6  -7  -17.70   18.80
   5  -6   7   -8.60   16.50
  -5  -6  -7   15.60   14.30
   5  -6   7    1.60    2.70
   5   6   7    4.70    9.40
  -6  -6  -7   -4.90   17.40
   6  -6   7    0.70   20.00
  -6  -6  -7  -13.40   26.40
   6  -6   7    1.80    3.40
   7  -6   7   49.60   32.50
  -7  -6  -7   37.70   24.10
   7   7  -7   12.40   15.50
  -6  -7   7   51.89   20.80
   6  -7  -7   37.40   17.50
   6   7  -7   35.80   13.60
   6   7  -7   56.29   15.30
   6   7  -7   41.60   28.40
  -5  -7   7   27.20   11.60
  -5  -7   7   23.40   16.80
   5  -7  -7   16.30   11.30
   5   7  -7   29.20    9.80
   5   7  -7    6.20   23.00
   5   7  -7   49.40   12.70
  -4  -7   7  138.99   23.60
   4  -7  -7  164.28   22.80
  -4  -7   7  137.79   34.40
  -4   7   7  102.39   19.70
   4   7  -7  120.49   13.80
   4   7  -7  103.69   25.50
  -3  -7   7  108.89   47.90
  -3  -7   7  108.99   16.50
  -3  -7   7   99.29   19.80
   3  -7  -7   97.69   26.20
   3  -7  -7   87.49   17.30
   3   7  -7  103.09    8.50
   3   7  -7   91.09   22.30
  -3   7   7   97.19   22.70
  -2  -7   7   47.70   13.80
  -2  -7   7   59.99   11.40
  -2   7   7   48.30    7.30
  -2   7   7   45.30    7.20
  -2   7   7   57.79   12.50
   2   7  -7   49.90   21.30
   1  -7  -7  200.98   25.50
  -1  -7   7  195.68   19.40
  -1  -7   7  199.78   19.70
  -1  -7   7  170.98   37.30
   1  -7  -7  160.18   23.50
  -1  -7   7  213.88   16.90
  -1   7   7  209.88   25.50
  -1   7   7  229.38   16.20
  -1   7   7  188.38   14.70
  -1   7   7  209.18   21.70
   0  -7  -7   49.60   12.40
   0  -7   7   26.80    7.50
   0  -7   7   44.50    9.10
   0  -7   7   17.90   16.90
   0  -7  -7   37.70   15.70
   0  -7   7   49.20    9.90
   0  -7  -7   31.30   12.40
   0   7   7   69.59   19.10
   0   7   7   34.00    8.20
   0   7   7   43.10    9.40
   1  -7   7  214.68   12.00
  -1  -7  -7  167.28   23.30
   1  -7   7  217.98   44.90
  -1  -7  -7  199.48   27.90
   1  -7   7  220.88   15.20
   1  -7   7  214.58   18.60
  -1  -7  -7  223.28   36.60
   1   7   7  220.18   39.10
   1   7   7  182.88   18.00
   1   7   7  219.98   19.90
   2  -7   7   83.99    9.30
   2  -7   7  107.69   31.40
  -2  -7  -7   87.79   25.30
   2  -7   7   86.59   15.30
   2   7   7   71.89   13.40
   2   7   7   56.59   13.30
   2   7   7   87.69   26.40
   3  -7   7   74.49   26.20
   3  -7   7   76.89   21.90
  -3  -7  -7   56.89   17.90
  -3  -7  -7  173.88   34.70
   3   7   7   82.79   15.60
   3   7   7   77.49   27.40
   3   7   7   64.79   14.20
   4  -7   7  108.69    7.00
   4  -7   7  107.39   35.40
  -4  -7  -7  112.39   30.00
  -4  -7  -7  120.39   24.70
   4   7   7   63.29   15.90
   5  -7   7  -36.20   27.50
   6  -7   7   51.69   31.40
   5   8  -7   13.20   12.40
  -3  -8   7   47.70   12.40
  -3  -8   7   75.29   19.20
  -2  -8   7   -1.00   23.80
   2  -8  -7  -35.70   14.80
  -2  -8   7   15.50    8.20
  -2   8   7   13.30   11.20
  -1  -8   7   23.50   10.70
  -1  -8   7   28.20    8.90
   1  -8  -7   36.70   20.50
  -1  -8   7   51.99   27.10
  -1   8   7   13.70    5.80
  -1   8   7   21.90   11.00
  -1   8   7   35.10   14.30
  -1   8   7    9.00    5.50
   0  -8   7    4.20   20.50
   0  -8  -7   54.09   21.30
   0  -8   7   19.30    8.80
   0  -8   7   31.60    9.10
   0  -8   7   35.00    8.80
   0   8   7   34.60    9.40
   0   8   7   31.80   10.70
   0   8   7  -12.30   17.20
  -1  -8  -7   30.70   20.50
   1  -8   7    2.10   20.30
   1   8   7   31.50   10.40
   1   8   7    3.30   10.10
   1   8   7    6.90   20.90
   1   8   7   28.00   11.40
   2  -8   7    0.70    6.10
  -2  -8  -7  -31.80   21.00
   2  -8   7   -7.20   21.40
   2   8   7   -3.30    8.70
   2   8   7   10.90   10.40
   2   8   7  -14.50   23.60
   2   8   7    8.60   11.50
  -3  -8  -7    1.00   26.90
   3  -8   7   30.20   25.90
   3   8   7   12.80   11.40
   4  -8   7   40.00   30.20
  -1  -9   7   50.39   13.50
   0  -9   7   40.80   13.40
   0  -9   7   39.70   11.80
   1   9   7   33.60   15.10
 -10   0   8  326.97   26.00
  10   0  -8  342.67   56.09
  -9   0   8  440.26   27.90
   9   0  -8  371.16   44.00
  -9   0   8  407.26   30.60
   8   0  -8  355.16   27.80
  -8   0   8  310.77   24.40
   8   0  -8  328.27   33.40
   8   0  -8  283.57   34.00
  -8   0   8  286.07   21.90
  -7   0   8  566.14   38.40
   7   0  -8  559.94   44.50
   7   0  -8  552.24   33.40
  -7   0   8  586.34   31.10
  -7   0   8  546.45   40.50
  -7   0   8  611.14   32.80
   7   0  -8  550.54   41.60
  -6   0   8 2532.85   98.29
  -6   0   8 2559.24   92.49
   6   0  -8 2573.94  103.09
  -6   0   8 2508.85   80.69
  -6   0   8 2460.45   80.79
   6   0  -8 2347.77   81.79
   6   0  -8 2548.84   97.29
   5   0  -8  408.56   33.50
  -5   0   8  451.05   34.80
  -5   0   8  416.96   24.20
  -5   0   8  390.96   28.30
   5   0  -8  456.85   32.60
   5   0  -8  428.66   25.60
   4   0  -8 2444.16   77.69
   4   0  -8 2530.85   94.09
  -4   0   8 2315.37   82.69
  -4   0   8 2401.26   75.59
  -4   0   8 2446.66   94.69
   4   0  -8 2427.86   87.69
  -3   0   8 3936.91  133.89
  -3   0   8 3922.11  111.59
   3   0  -8 4047.50  112.39
   3   0  -8 3937.51  121.79
  -3   0   8 4026.00  119.09
   2   0  -8 1435.96   50.09
  -2   0   8 1388.46   49.90
  -2   0   8 1406.26   54.39
   2   0  -8 1443.76   56.59
  -2   0   8 1688.53   71.69
   1   0  -8 1451.55   55.69
   1   0  -8 1481.55   49.90
  -1   0   8 1534.25   68.79
  -1   0   8 1529.05   50.99
  -1   0   8 1479.25   54.69
   0   0  -8 1627.84   59.39
   0   0   8 1639.54   58.69
   0   0   8 1759.72   55.59
   0   0  -8 1701.93   54.49
  -1   0  -8 4374.16  114.89
   1   0   8 4266.37  116.39
  -1   0  -8 4149.88  120.59
   1   0   8 4220.28  120.49
   2   0   8 1179.38   42.90
  -2   0  -8 1173.18   46.60
  -2   0  -8 1170.18   40.60
   2   0   8 1123.39   45.70
   3   0   8  888.11   36.70
  -3   0  -8  856.31   39.10
   3   0   8  869.31   39.70
   4   0   8  671.73   34.90
   4   0   8  680.33   32.00
  -4   0  -8  597.34   33.00
  -5   0  -8  666.73   35.60
   5   0   8  628.34   32.50
  -6   0  -8   87.09   18.00
   6   0   8  123.69   17.40
  -6   0  -8  104.49   28.20
   7   0   8  269.57   21.90
  -7   0  -8  272.47   52.29
   7   0   8  250.87   22.60
  -8   0  -8  205.18   25.00
   8   0   8  248.08   31.00
  10  -1  -8    1.40   14.40
 -10  -1   8   -6.60    9.10
  10   1  -8  -11.10   22.00
 -10   1   8    1.00    8.40
  -9  -1   8   -8.70    6.70
   9  -1  -8   10.10   12.20
  -9   1   8    1.70    6.30
   9   1  -8    3.20   13.40
  -9   1   8    5.20    8.90
   9   1  -8    6.40   15.50
  -8  -1   8    3.50   11.10
   8  -1  -8    4.50    9.00
  -8  -1   8   -0.10    5.40
   8  -1  -8   -0.20    6.50
  -8  -1   8   -4.60   10.50
   8  -1  -8   10.60    9.90
  -8  -1   8    2.50    6.20
  -8   1   8   21.20    9.30
   8   1  -8    5.70   10.20
  -8   1   8    7.80    6.60
   8   1  -8    0.80    6.70
  -8   1   8  -11.30    4.80
   8   1  -8   11.10   13.30
   7  -1  -8    5.90    6.80
  -7  -1   8  -11.00    3.60
  -7  -1   8   -0.70    3.40
  -7  -1   8    8.30    8.70
   7  -1  -8   -5.20    4.60
  -7  -1   8   -4.20    8.70
   7  -1  -8   -1.10    7.30
   7   1  -8   -5.90    8.30
   7   1  -8    4.40    5.60
  -7   1   8   -0.30    6.20
  -7   1   8    4.50    4.80
  -7   1   8    3.80    5.70
   7   1  -8   -6.70    8.00
   6  -1  -8   34.60    9.50
  -6  -1   8   44.30   12.00
  -6  -1   8   29.80    8.00
  -6  -1   8   47.70    9.10
   6  -1  -8   22.30    9.70
  -6  -1   8   26.10   13.30
   6  -1  -8   35.70   11.00
  -6   1   8   41.90    8.90
  -6   1   8   40.30   11.00
   6   1  -8   27.50   10.80
  -6   1   8   14.90    8.10
  -6   1   8   39.10   10.50
   5  -1  -8   51.99   10.00
  -5  -1   8   71.49   12.00
  -5  -1   8   65.39   14.00
   5  -1  -8   60.29   14.00
  -5  -1   8   82.99   20.90
   5  -1  -8   63.29   14.10
   5   1  -8   69.29   16.00
  -5   1   8   54.19    9.90
  -5   1   8   73.69   13.70
   5   1  -8   70.29   11.90
   5   1  -8   43.80   12.90
  -5   1   8   59.79   13.70
  -4  -1   8   99.79   11.30
  -4  -1   8  109.39   21.00
   4  -1  -8   82.29   15.10
   4  -1  -8  116.69   22.60
  -4  -1   8  107.49   16.60
  -4   1   8   98.89   10.50
   4   1  -8  113.19   17.20
  -4   1   8  113.19   17.00
   4   1  -8  121.49   24.90
   4   1  -8  120.49   19.90
  -4   1   8  127.89   16.00
  -3  -1   8    1.80    2.60
  -3  -1   8   -2.50    5.00
   3  -1  -8   -0.60    2.90
   3  -1  -8    2.60    2.90
  -3  -1   8    2.00    3.80
   3   1  -8    6.50    5.00
   3   1  -8    7.10    3.90
  -3   1   8    5.80    4.90
  -3   1   8    4.00    2.20
   3   1  -8    3.00    5.00
  -3   1   8    7.90    4.80
   2  -1  -8  356.36   20.60
   2  -1  -8  343.77   24.00
  -2  -1   8  374.76   20.70
  -2  -1   8  348.47   32.20
  -2  -1   8  346.47   23.00
  -2   1   8  376.66   20.80
   2   1  -8  329.57   23.60
  -2   1   8  356.96   23.50
   2   1  -8  334.97   19.30
  -2   1   8  342.27   27.40
   1  -1  -8  236.48   16.20
  -1  -1   8  251.67   16.10
  -1  -1   8  224.88   17.40
  -1  -1   8  244.18   27.00
   1  -1  -8  231.18   19.00
  -1   1   8  237.68   16.30
  -1   1   8  219.48   17.90
  -1   1   8  248.78   23.30
   1   1  -8  243.88   15.10
   1   1  -8  256.57   19.60
   0  -1  -8  644.94   28.90
   0  -1   8  569.84   28.60
   0  -1  -8  604.94   31.30
   0  -1   8  615.64   26.90
   0   1  -8  595.64   30.30
   0   1   8  588.84   28.00
   0   1   8  615.44   31.40
   0   1  -8  631.14   25.70
  -1  -1  -8  298.37   21.30
   1  -1   8  289.97   19.00
  -1  -1  -8  312.47   19.00
   1  -1   8  310.47   17.80
   1   1   8  360.26   20.40
  -1   1  -8  304.57   15.90
  -1   1  -8  303.27   20.00
   1   1   8  336.17   22.20
  -2  -1  -8  563.74   26.90
  -2  -1  -8  553.14   30.60
   2  -1   8  571.64   27.90
   2  -1   8  544.75   25.20
   2   1   8  513.95   30.00
   2   1   8  555.64   27.40
   3  -1   8  252.47   16.70
  -3  -1  -8  247.68   20.70
   3  -1   8  271.37   18.80
   3   1   8  244.48   18.30
  -3   1  -8  266.47   18.40
   3   1   8  227.78   20.00
   4  -1   8  134.79   12.80
   4  -1   8  167.88   15.30
  -4  -1  -8  129.49   16.10
   4   1   8  154.88   15.10
  -4   1  -8  151.18   13.90
   4   1   8  145.99   17.10
  -5  -1  -8  546.15   33.60
   5  -1   8  479.15   26.50
  -5  -1  -8  484.75   38.30
  -5   1  -8  518.45   28.50
  -5   1  -8  532.15   34.10
   5   1   8  456.75   28.50
  -6  -1  -8  169.58   29.80
  -6  -1  -8  149.39   21.60
   6   1   8  182.98   18.80
  -6   1  -8  196.68   18.00
  -6   1  -8  198.28   21.70
  -7  -1  -8  181.28   25.40
   7  -1   8  172.78   19.20
   7  -1   8  205.08   17.90
   7  -1   8  168.38   25.40
   7   1   8  198.18   21.40
   7   1   8  181.68   21.30
  -7   1  -8  195.28   20.40
  -8  -1  -8   77.59   19.70
   8  -1   8   72.89   14.00
   8  -1   8   74.59   14.60
  -8   1  -8   83.29   17.00
   8   1   8   64.29   16.50
   9  -1   8   37.60   13.70
   9  -2  -8  294.07   25.60
  -9  -2   8  239.58   42.20
   9  -2  -8  365.96   37.00
  -9  -2   8  260.97   53.49
  -9  -2   8  259.97   24.20
  -9   2   8  292.57   30.00
   9   2  -8  287.77   42.50
   8  -2  -8  404.16   26.40
   8  -2  -8  339.97   27.20
  -8  -2   8  343.87   40.00
  -8  -2   8  354.86   34.40
   8  -2  -8  353.06   33.10
  -8  -2   8  390.66   27.80
  -8   2   8  362.46   30.00
  -8   2   8  394.66   22.60
  -8   2   8  341.67   30.20
   8   2  -8  457.15   50.19
   8   2  -8  352.06   28.90
   8   2  -8  314.97   39.10
  -7  -2   8  697.63   37.00
   7  -2  -8  751.52   46.20
  -7  -2   8  679.93   55.39
  -7  -2   8  735.73   31.60
   7  -2  -8  748.63   38.80
  -7  -2   8  758.62   48.30
   7   2  -8  714.03   58.59
  -7   2   8  704.43   40.30
  -7   2   8  697.53   32.00
  -7   2   8  701.23   41.70
   7   2  -8  727.53   60.09
   7   2  -8  655.23   37.90
   6  -2  -8  922.21   49.70
  -6  -2   8  954.30   42.60
  -6  -2   8  945.71   35.30
   6  -2  -8  885.71   41.70
  -6   2   8  907.21   37.70
   6   2  -8  947.11   55.49
   6   2  -8  981.70   49.20
  -6   2   8  870.61   43.50
   6   2  -8  807.62   61.79
  -6   2   8  924.91   46.90
   5  -2  -8 1146.19   46.70
  -5  -2   8 1168.78   39.40
  -5  -2   8 1087.99   67.89
   5  -2  -8 1101.69   53.29
  -5  -2   8 1128.09   54.49
  -5  -2   8 1011.70   50.09
  -5   2   8 1143.69   42.00
   5   2  -8 1178.48   59.39
   5   2  -8 1142.79   46.80
   5   2  -8 1170.98   71.39
  -5   2   8 1186.58   52.29
  -5   2   8 1143.69   43.60
   4  -2  -8 1518.85   55.09
  -4  -2   8 1525.75   55.59
   4  -2  -8 1594.84   63.59
  -4  -2   8 1509.85   62.49
  -4  -2   8 1401.26   77.29
  -4   2   8 1424.86   53.39
   4   2  -8 1545.35   81.69
  -4   2   8 1496.55   52.59
   4   2  -8 1539.95   66.59
  -4   2   8 1651.33   86.79
  -3  -2   8 1907.01   70.29
   3  -2  -8 1781.02   69.29
   3  -2  -8 1952.90   64.89
  -3  -2   8 2089.59   95.39
  -3  -2   8 1861.11   62.89
  -3   2   8 1962.30   69.29
   3   2  -8 1917.91   82.09
  -3   2   8 1992.40   69.69
   3   2  -8 1871.81   62.29
   3   2  -8 1998.10   90.09
  -3   2   8 1915.41   62.69
   2  -2  -8 1567.44   54.99
  -2  -2   8 1510.65   80.29
  -2  -2   8 1508.65   52.89
   2  -2  -8 1612.84   60.79
   2   2  -8 1622.94   78.19
  -2   2   8 1594.34   61.49
   2   2  -8 1525.05   51.09
  -2   2   8 1551.44   53.79
  -2   2   8 1599.44   60.19
   2   2  -8 1564.04   61.39
   1  -2  -8 2063.19   66.69
   1  -2  -8 2086.79   71.99
  -1  -2   8 2082.79   63.89
  -1  -2   8 2091.39   94.59
  -1  -2   8 1937.71   66.99
  -1   2   8 1978.50   70.09
   1   2  -8 2080.59   60.69
   1   2  -8 1910.11   69.69
   0  -2   8 1806.62   57.69
   0  -2   8 1875.71   88.59
   0  -2   8 1863.51   61.49
   0  -2  -8 1818.72   62.09
   0  -2  -8 1888.41   67.19
   0   2   8 1782.42   61.09
   0   2   8 1935.01   67.19
   0   2  -8 1871.11   54.19
  -1  -2  -8 1297.37   53.39
   1  -2   8 1359.56   44.50
  -1  -2  -8 1372.76   49.60
   1  -2   8 1281.67   71.59
   1  -2   8 1317.17   47.10
  -1   2  -8 1272.87   39.80
  -1   2  -8 1272.57   47.70
   1   2   8 1360.76   53.99
   1   2   8 1328.87   48.90
  -2  -2  -8 1204.58   47.40
   2  -2   8 1329.97   72.59
   2  -2   8 1276.17   44.90
   2  -2   8 1218.18   42.20
  -2  -2  -8 1290.27   53.59
   2   2   8 1200.78   52.19
   2   2   8 1190.28   47.20
  -2   2  -8 1291.27   45.90
  -3  -2  -8  853.01   43.20
   3  -2   8  902.11   36.10
   3  -2   8  867.51   33.70
   3   2   8  933.91   45.70
  -3   2  -8  900.21   36.20
   3   2   8  892.41   40.00
   4  -2   8  576.34   28.00
  -4  -2  -8  463.55   32.00
   4  -2   8  516.85   25.30
  -4  -2  -8  559.34   40.60
  -4   2  -8  524.65   25.70
  -4   2  -8  548.95   29.80
   4   2   8  528.05   30.70
   4   2   8  545.15   35.00
   5  -2   8  461.35   24.50
  -5  -2  -8  424.96   31.70
  -5  -2  -8  480.45   39.60
  -5   2  -8  485.55   28.20
   5   2   8  510.25   30.80
  -5   2  -8  435.06   23.70
   6  -2   8  164.88   15.60
  -6  -2  -8  206.58   23.40
   6   2   8  244.68   22.40
  -6   2  -8  168.08   15.50
   6   2   8  140.49   31.60
  -6   2  -8  193.08   19.90
   7  -2   8  148.59   18.50
  -7  -2  -8  125.59   21.90
  -7   2  -8  120.99   16.70
  -7   2  -8  150.98   15.90
   7   2   8  148.99   24.20
   8  -2   8  114.79   24.00
   8  -2   8  143.59   21.10
   9  -2   8   49.30   15.50
  -9  -3   8   -5.60   18.00
   9   3  -8   17.60   20.20
   8  -3  -8    7.40   11.30
  -8  -3   8    0.60    7.30
   8  -3  -8    8.80    8.70
  -8  -3   8   11.70   16.50
  -8  -3   8   -0.70   13.10
   8   3  -8    3.30   15.50
  -8   3   8    3.60    9.60
  -8   3   8   13.40    5.40
   8   3  -8   -4.20   14.70
  -7  -3   8   15.10    9.90
   7  -3  -8    9.30    6.50
   7  -3  -8    3.90    8.80
  -7  -3   8   15.30   12.70
  -7  -3   8    0.90    6.80
  -7   3   8   -1.30    4.90
   7   3  -8   10.90    7.60
   7   3  -8    7.30   14.30
  -7   3   8   -2.60    7.80
  -7   3   8   13.40    4.60
   7   3  -8   -0.10    9.10
  -6  -3   8   11.10    7.60
   6  -3  -8   -2.00    6.70
  -6  -3   8    9.10    5.10
  -6  -3   8   -1.50    8.50
  -6  -3   8   -3.70    2.30
   6  -3  -8    8.60    4.80
  -6   3   8    4.10    6.00
   6   3  -8   -0.70    5.20
  -6   3   8   -1.20    4.50
   6   3  -8   -7.80    7.30
  -6   3   8   -1.80    3.50
   6   3  -8   23.00   12.50
  -5  -3   8    0.40    3.70
  -5  -3   8   -5.40    6.70
   5  -3  -8    4.20    5.40
  -5  -3   8    1.80    2.10
  -5  -3   8    5.00    8.10
   5  -3  -8    7.40    5.00
  -5   3   8   -0.20    3.20
   5   3  -8   -1.60    4.20
  -5   3   8    1.00    5.10
  -5   3   8   -3.80    2.90
   5   3  -8   -6.40    6.80
   5   3  -8   11.20    8.50
   4  -3  -8  111.09   12.80
   4  -3  -8  129.49   15.80
  -4  -3   8  128.19   13.60
  -4  -3   8  112.09   24.80
  -4  -3   8   88.99   16.30
   4   3  -8  124.69   21.90
  -4   3   8  115.29   11.50
   4   3  -8   61.59   19.50
   4   3  -8  118.89   12.70
  -4   3   8  105.29   17.30
   3  -3  -8  193.48   16.00
  -3  -3   8  190.18   15.40
  -3  -3   8  140.59   28.70
   3  -3  -8  160.18   16.80
  -3  -3   8  155.48   16.90
  -3   3   8  163.88   13.50
  -3   3   8  156.38   12.40
   3   3  -8  218.18   28.30
  -3   3   8  144.69   16.30
   3   3  -8  172.68   19.30
   3   3  -8  174.48   14.00
  -2  -3   8   96.49   26.10
   2  -3  -8   89.69   14.60
  -2  -3   8   65.09   12.30
  -2  -3   8   65.79   10.10
  -2   3   8   89.49   10.10
   2   3  -8   72.19   13.80
   2   3  -8   82.09    8.70
  -2   3   8   64.09   13.10
   2   3  -8   63.39   19.40
  -2   3   8   77.59   13.50
  -1  -3   8   98.69   10.30
   1  -3  -8   86.69   19.30
  -1  -3   8   91.09   24.10
   1  -3  -8   98.09   15.10
  -1  -3   8  113.49   12.60
  -1   3   8   92.99   15.10
   1   3  -8   82.49   16.20
   1   3  -8   95.69    8.30
  -1   3   8  103.69   11.20
   0  -3  -8  315.17   25.20
   0  -3   8  357.06   37.90
   0  -3  -8  321.97   23.90
   0  -3   8  340.07   18.60
   0  -3   8  379.26   21.40
   0   3  -8  355.56   17.70
   0   3  -8  346.07   22.00
   0   3   8  348.07   24.70
   0   3   8  297.77   20.30
  -1  -3  -8  108.49   12.50
   1  -3   8  120.79   10.10
   1  -3   8  196.38   38.80
  -1  -3  -8   96.39   16.60
   1  -3   8  106.89   10.70
   1   3   8  128.29   15.00
   1   3   8  102.89   12.00
  -1   3  -8  106.59   11.80
  -2  -3  -8  226.18   18.50
   2  -3   8  216.88   13.80
   2  -3   8  179.18   34.20
  -2  -3  -8  234.78   21.50
   2  -3   8  225.78   14.70
   2   3   8  212.08   20.90
  -2   3  -8  241.58   15.50
   2   3   8  178.98   16.50
   3  -3   8  423.06   19.90
   3  -3   8  395.36   20.10
  -3  -3  -8  427.06   30.10
   3  -3   8  407.06   52.89
   3   3   8  391.26   25.70
  -3   3  -8  352.56   19.00
   3   3   8  440.16   31.50
  -4  -3  -8  238.08   23.40
   4  -3   8  218.58   22.10
   4  -3   8  227.68   14.90
  -4  -3  -8  228.58   28.10
   4  -3   8  202.58   34.70
  -4   3  -8  212.98   13.30
  -4   3  -8  217.58   14.70
   4   3   8  229.38   24.40
   4   3   8  201.98   19.60
   5  -3   8  202.78   28.00
   5  -3   8  169.68   13.60
  -5  -3  -8  182.78   22.40
  -5  -3  -8  187.08   31.00
  -5   3  -8  166.28   11.20
   5   3   8  115.19   27.70
   5   3   8  168.38   17.70
   5   3   8  170.78   18.90
   6  -3   8   55.89   10.60
   6  -3   8   63.19   15.40
  -6  -3  -8   56.29   15.30
  -6  -3  -8   38.80   17.20
   6   3   8   38.70   10.90
  -6   3  -8   42.50    6.40
   6   3   8   22.40   18.50
  -6   3  -8   53.49    7.10
   6   3   8   31.40   10.70
   7  -3   8  111.49   14.20
  -7  -3  -8  129.69   26.60
   7   3   8  159.18   24.70
   8  -3   8   87.49   14.50
  -8  -3  -8   72.59   25.50
   8  -3   8  125.79   16.90
   9  -3   8    0.80   18.00
   9   4  -8  194.08   40.40
  -8  -4   8  395.86   50.79
   8  -4  -8  414.56   34.60
  -8  -4   8  417.46   43.80
  -8  -4   8  417.36   31.10
   8  -4  -8  402.66   30.90
   8   4  -8  368.56   49.90
  -7  -4   8  151.98   32.70
  -7  -4   8  203.98   23.80
   7  -4  -8  200.58   30.30
   7  -4  -8  233.48   24.60
  -7  -4   8  212.48   33.90
  -7   4   8  216.08   12.90
   7   4  -8  181.58   32.10
   7   4  -8  225.38   47.50
  -7   4   8  172.18   29.70
   7   4  -8  217.78   23.80
   6  -4  -8  569.74   38.20
  -6  -4   8  534.15   40.90
   6  -4  -8  600.84   33.50
  -6  -4   8  540.95   32.90
  -6  -4   8  548.45   53.99
  -6   4   8  513.55   35.50
   6   4  -8  554.44   46.10
  -6   4   8  553.84   35.80
  -6   4   8  576.14   24.60
   6   4  -8  544.55   33.30
  -5  -4   8  478.95   29.30
  -5  -4   8  457.45   48.50
   5  -4  -8  458.45   28.60
   5  -4  -8  432.86   32.20
  -5  -4   8  582.54   39.10
  -5   4   8  444.86   31.00
   5   4  -8  435.36   37.50
  -5   4   8  505.65   23.60
  -5   4   8  476.65   32.40
  -4  -4   8  991.70   70.99
   4  -4  -8  922.61   42.20
   4  -4  -8  983.40   48.20
  -4  -4   8  929.11   41.90
  -4  -4   8  929.41   49.50
   4   4  -8  940.71   40.50
   4   4  -8  971.50   71.09
   4   4  -8  868.91   61.59
  -4   4   8 1018.20   46.90
  -4   4   8 1011.20   47.10
  -4   4   8  986.70   37.40
   3  -4  -8  437.96   29.90
  -3  -4   8  356.86   41.70
   3  -4  -8  498.05   28.10
  -3  -4   8  467.35   26.40
   3   4  -8  444.86   33.10
   3   4  -8  484.25   24.30
  -3   4   8  468.75   29.70
  -3   4   8  439.26   23.70
  -2  -4   8  666.13   31.50
  -2  -4   8  761.22   37.60
   2  -4  -8  715.33   35.10
   2  -4  -8  746.83   38.90
  -2   4   8  713.23   38.20
  -2   4   8  738.53   32.30
  -2   4   8  678.73   31.80
   2   4  -8  636.04   27.30
   2   4  -8  671.03   38.60
  -1  -4   8 2108.09   66.29
   1  -4  -8 2065.89   77.39
  -1  -4   8 2111.39   71.49
   1  -4  -8 2184.88   73.79
  -1  -4   8 1916.11  103.99
   1   4  -8 2073.59   57.39
  -1   4   8 2172.68   77.49
   1   4  -8 2297.47  105.29
  -1   4   8 2155.08   76.79
  -1   4   8 2151.48   69.99
   1   4  -8 2068.79   74.69
   0  -4   8  524.45   49.70
   0  -4   8  584.14   28.00
   0  -4  -8  575.24   33.70
   0  -4   8  561.74   25.60
   0  -4  -8  574.74   31.60
   0   4   8  543.85   29.10
   0   4   8  535.95   36.40
   0   4   8  558.14   34.30
   0   4  -8  572.84   30.00
   1  -4   8  383.06   19.50
  -1  -4  -8  416.86   29.70
   1  -4   8  418.66   20.60
   1  -4   8  373.76   42.50
   1   4   8  399.66   33.70
   1   4   8  395.46   29.60
   1   4   8  377.46   24.20
  -1   4  -8  349.57   20.60
   2  -4   8  600.84   53.79
   2  -4   8  583.64   24.20
   2  -4   8  581.54   23.80
   2  -4   8  597.84   33.90
  -2  -4  -8  622.54   37.60
   2   4   8  577.34   36.90
   2   4   8  584.44   32.00
  -2   4  -8  570.74   23.20
   2   4   8  546.05   43.80
  -3  -4  -8  558.54   37.10
   3  -4   8  561.04   23.10
   3  -4   8  572.84   35.20
   3  -4   8  480.45   20.00
   3  -4   8  570.74   52.79
   3   4   8  553.14   32.50
   3   4   8  628.34   50.69
   3   4   8  601.74   39.60
  -4  -4  -8  230.78   23.70
   4  -4   8  245.78   14.20
   4  -4   8  227.78   23.60
   4  -4   8  156.28   32.30
  -4  -4  -8  285.07   34.20
   4   4   8  250.47   21.20
   4   4   8  211.68   39.30
   4   4   8  206.78   20.80
   5  -4   8  238.28   25.80
   5  -4   8  175.68   35.90
  -5  -4  -8  271.17   40.20
  -5  -4  -8  296.87   29.80
   5  -4   8  286.27   16.20
   5   4   8  304.97   40.60
   5   4   8  270.47   23.70
   5   4   8  231.28   23.30
   6  -4   8  180.58   14.10
   6  -4   8   89.79   28.70
  -6  -4  -8  157.48   34.00
  -6  -4  -8  128.69   24.20
   6   4   8  157.78   21.70
   7  -4   8   45.50   22.30
   7  -4   8   41.70    9.30
   7  -4   8   37.00   10.10
  -8  -4  -8   30.60   24.20
   8  -4   8    9.00   10.60
  -8  -5   8   30.60   22.40
   8   5  -8    8.90   23.60
   7  -5  -8    2.80    9.60
  -7  -5   8    3.10   15.00
   7  -5  -8   -7.80    8.90
  -7  -5   8    6.80    8.50
  -7  -5   8  -21.40   13.90
   7   5  -8   22.00   18.60
   6  -5  -8  -14.70    6.60
  -6  -5   8  -23.60   10.40
  -6  -5   8  -15.90    5.40
  -6  -5   8    8.90   13.80
   6   5  -8   -6.10    6.90
  -6   5   8    4.90    6.40
  -6   5   8   -1.60    2.30
   6   5  -8   11.40   13.70
  -5  -5   8    6.80   14.80
  -5  -5   8    5.70    9.70
   5  -5  -8    0.00    6.20
  -5  -5   8   -3.80    5.00
   5  -5  -8   10.10    8.00
  -5   5   8    4.10    3.40
  -5   5   8   14.60    8.50
   5   5  -8   16.40   19.50
  -5   5   8    1.90    5.90
   5   5  -8    9.70   12.30
   4  -5  -8   12.50    7.30
  -4  -5   8   17.00    7.20
   4  -5  -8   19.30    8.30
  -4  -5   8    5.30    7.20
  -4  -5   8   10.50   11.10
   4   5  -8   12.20    5.70
  -4   5   8    7.00    4.50
  -4   5   8    7.80    5.80
   4   5  -8    6.90    9.90
  -4   5   8   12.70    7.50
   4   5  -8   14.30   14.20
   3  -5  -8   59.39   14.00
  -3  -5   8   50.69   10.60
   3  -5  -8   35.60    9.60
  -3  -5   8   46.30   11.80
  -3   5   8   58.49    9.80
  -3   5   8   54.19   12.70
   3   5  -8   77.39   25.20
   3   5  -8   42.60   13.50
  -2  -5   8   92.69    8.20
   2  -5  -8   71.79   13.70
   2  -5  -8   83.39   15.90
  -2  -5   8   98.59   29.60
  -2  -5   8  102.19   11.70
  -2  -5   8  100.39   16.40
  -2   5   8  106.79   17.60
   2   5  -8   53.29   14.80
  -2   5   8  121.49   12.10
   2   5  -8   87.59    8.20
   2   5  -8  105.39    8.70
   1  -5  -8   26.40    8.80
   1  -5  -8   22.70    9.10
  -1  -5   8   43.80   10.40
  -1  -5   8   26.20    6.50
  -1  -5   8   33.00    7.00
  -1  -5   8   25.40   11.50
   1   5  -8   26.90   19.60
   1   5  -8   39.90   11.30
  -1   5   8   16.50    8.00
  -1   5   8   31.60    8.20
  -1   5   8   25.10    8.50
   0  -5   8   99.29   14.10
   0  -5  -8   78.99   15.70
   0  -5   8   81.79   11.50
   0  -5   8   84.69   12.60
   0  -5   8   73.09   22.00
   0  -5  -8  104.19   16.10
   0   5   8   67.29   18.30
   0   5  -8   85.29   13.50
   0   5   8   77.69   15.60
   0   5   8   78.39   13.00
   1  -5   8   71.49   23.20
   1  -5   8   56.79    8.60
   1  -5   8   58.29    8.70
  -1  -5  -8   39.90   11.70
  -1  -5  -8   90.19   15.60
   1  -5   8   58.09   13.50
   1   5   8   80.09   15.90
   1   5   8   42.60   15.20
   1   5   8   58.69   11.30
   2  -5   8  130.79   31.80
  -2  -5  -8   99.39   19.40
  -2  -5  -8   75.59   13.90
   2  -5   8  132.69   18.90
   2  -5   8   91.79    7.30
   2  -5   8  108.59    9.60
   2   5   8  102.39   16.00
   2   5   8  106.49   26.00
   2   5   8  160.88   24.30
   3  -5   8  155.88   22.40
   3  -5   8  133.59   32.70
  -3  -5  -8  194.08   33.40
   3  -5   8  116.89   10.00
  -3  -5  -8  150.08   23.70
   3   5   8  102.19   22.70
   3   5   8  175.08   17.50
   3   5   8  116.29   17.60
  -4  -5  -8   81.89   18.80
   4  -5   8  137.99   22.00
   4  -5   8   90.29    8.40
  -4  -5  -8   31.40   21.70
   4  -5   8   70.79   23.60
   4   5   8   63.49   13.70
   4   5   8   70.29   13.80
   4   5   8   84.89   35.50
  -5  -5  -8   58.39   28.40
   5  -5   8   85.29    9.20
   5  -5   8   86.29   30.20
   5  -5   8   78.39   15.40
  -5  -5  -8  103.39   20.80
   5   5   8   96.19   17.20
   6  -5   8   15.00   21.90
   6  -5   8   29.00    6.90
  -6  -5  -8   22.10   22.90
  -6  -5  -8   16.80   15.80
   7  -5   8   39.10    9.50
  -7  -5  -8   25.00   21.60
   7  -5   8   34.70   25.60
   8   6  -8  115.99   41.40
  -7  -6   8  119.39   31.60
   7   6  -8  112.99   35.30
  -6  -6   8   98.89   25.00
   6  -6  -8  120.19   30.70
   6  -6  -8   88.79   17.30
  -6  -6   8  100.69   18.00
   6   6  -8   92.19   17.70
   6   6  -8   81.29   26.30
  -5  -6   8  274.87   47.60
  -5  -6   8  317.57   36.20
  -5  -6   8  255.87   31.70
   5  -6  -8  279.77   26.70
   5   6  -8  223.18   36.30
  -5   6   8  315.47   29.30
   5   6  -8  259.17   21.70
   5   6  -8  241.68   22.50
   4  -6  -8  169.98   22.40
  -4  -6   8  197.68   18.60
  -4  -6   8  131.19   33.20
   4  -6  -8  178.18   24.50
  -4  -6   8  155.28   23.60
  -4   6   8  185.38   11.20
   4   6  -8  167.28   29.70
  -4   6   8  176.28   10.80
  -4   6   8  160.48   21.90
  -4   6   8  192.18   22.40
   4   6  -8  149.99   14.90
   4   6  -8  184.78   16.10
   3  -6  -8  286.07   26.00
  -3  -6   8  256.37   25.80
  -3  -6   8  268.37   47.20
   3  -6  -8  254.27   24.10
  -3  -6   8  274.37   21.40
  -3   6   8  251.27   24.30
   3   6  -8  279.67   16.70
  -3   6   8  298.27   17.30
  -3   6   8  254.17   15.80
   3   6  -8  266.97   16.10
   3   6  -8  226.68   28.00
  -3   6   8  268.27   25.00
  -2  -6   8  329.57   26.50
  -2  -6   8  366.26   23.30
  -2  -6   8  297.97   46.80
   2  -6  -8  336.97   27.80
   2  -6  -8  276.37   24.70
  -2   6   8  332.37   21.20
  -2   6   8  377.96   29.40
  -2   6   8  337.07   20.90
   2   6  -8  340.17   30.80
  -1  -6   8  251.97   16.30
  -1  -6   8  174.98   34.60
  -1  -6   8  303.87   22.40
   1  -6  -8  307.47   26.50
   1  -6  -8  236.98   22.20
  -1  -6   8  270.47   18.80
  -1   6   8  238.88   18.60
   1   6  -8  264.57   49.40
   1   6  -8  260.77   24.40
  -1   6   8  241.08   24.90
  -1   6   8  254.97   18.20
   0  -6   8  273.27   50.59
   0  -6   8  255.37   17.70
   0  -6  -8  303.67   25.30
   0  -6   8  248.38   18.50
   0  -6  -8  255.27   24.80
   0  -6   8  252.77   18.80
   0   6  -8  266.97   20.70
   0   6   8  276.47   29.60
   0   6   8  257.97   20.60
   0   6   8  221.88   28.00
   1  -6   8  185.58   13.90
  -1  -6  -8  198.98   22.60
  -1  -6  -8  215.68   24.30
   1  -6   8  221.58   19.00
   1  -6   8  166.68   34.70
   1  -6   8  204.88   13.00
   1   6   8  185.28   18.20
   1   6   8  197.88   36.60
   1   6   8  195.28   31.10
   1   6   8  191.58   18.10
   2  -6   8  215.78   20.90
  -2  -6  -8  221.68   34.80
   2  -6   8  241.68   14.90
  -2  -6  -8  242.38   25.80
   2  -6   8  173.28   37.00
   2   6   8  230.78   22.10
   2   6   8  240.38   21.40
   3  -6   8   72.49   16.80
  -3  -6  -8   99.09   25.00
  -3  -6  -8  102.19   20.80
   3  -6   8   81.19   30.20
   3  -6   8  121.69    9.70
   3   6   8   78.59   15.00
   3   6   8  102.29   32.90
   3   6   8  108.69   18.20
  -4  -6  -8   77.69   19.10
   4  -6   8  124.99   23.30
  -4  -6  -8  103.49   29.60
   4  -6   8   46.30   23.40
   4  -6   8  108.29    9.10
   4   6   8   93.39   26.90
   4   6   8  101.09   17.90
  -5  -6  -8   58.69   18.50
   5  -6   8   88.59   28.00
   6  -6   8   46.80   28.00
  -6  -6  -8   29.40   21.20
  -7  -6  -8   39.00   42.00
   6   7  -8    5.40   14.50
   6   7  -8   95.39   35.60
   6   7  -8   35.40   11.80
  -5  -7   8   13.10   17.70
   5   7  -8   36.90   36.50
   5   7  -8   16.80   14.90
   5   7  -8   16.40   10.30
  -4  -7   8    3.50   12.00
  -4  -7   8    8.00    8.50
  -4  -7   8   -2.40   26.20
   4  -7  -8    2.20   11.00
  -4   7   8   22.70   12.00
   4   7  -8   22.40    8.40
   4   7  -8    7.60    7.10
   4   7  -8   19.10   17.70
   3  -7  -8    8.40    8.60
   3  -7  -8   22.30   12.10
  -3  -7   8   17.80    7.90
  -3  -7   8   31.40   12.30
  -3  -7   8   11.50   20.10
  -3   7   8   29.00   11.40
  -3   7   8   18.60    4.70
   3   7  -8   14.90   14.90
  -2  -7   8   11.90   29.00
  -2  -7   8    0.80    5.80
   2  -7  -8   24.80   10.70
  -2  -7   8   20.00   10.40
  -2   7   8   14.50    8.50
   2   7  -8   11.20   13.30
  -2   7   8   21.40    6.90
  -1  -7   8   27.90   18.60
   1  -7  -8   23.50   11.50
   1  -7  -8   33.60   14.10
  -1  -7   8   27.80   10.00
   1   7  -8   21.70   16.90
  -1   7   8   11.10    7.50
  -1   7   8   15.00    6.60
  -1   7   8   21.10    9.60
  -1   7   8   23.30   13.50
   0  -7   8   21.00    7.00
   0  -7   8   15.60    6.80
   0  -7  -8   22.00   10.10
   0  -7   8   -4.60   15.20
   0  -7   8    9.30    5.60
   0   7   8   12.40    7.30
   1  -7   8   36.00    7.70
   1  -7   8   53.79   28.10
   1  -7   8   30.00    5.70
  -1  -7  -8   25.60   19.60
   1  -7   8   28.30    7.40
   1  -7   8   47.90   10.90
  -1  -7  -8   28.60   13.00
   1   7   8   43.40   10.20
   1   7   8   44.00   11.20
  -2  -7  -8   30.70   13.60
   2  -7   8   27.30    6.70
  -2  -7  -8    9.70   18.80
   2  -7   8   22.80   20.00
   2  -7   8   20.10    9.60
   2   7   8   30.90   10.20
   2   7   8   40.20   20.40
   2   7   8   28.50   10.90
  -3  -7  -8    7.50   20.60
   3  -7   8   19.90   10.30
  -3  -7  -8   31.10   15.00
   3  -7   8   29.80   24.00
   3  -7   8    5.80    5.50
   3   7   8   35.10   11.40
   3   7   8   10.70   24.00
   4  -7   8   22.20   23.50
   4  -7   8   19.20    8.10
  -4  -7  -8   60.69   27.00
  -4  -7  -8   21.60   14.40
   5  -7   8   37.60   30.90
  -5  -7  -8    8.50   35.80
  -3  -8   8   43.20   19.20
  -3  -8   8   95.99   16.70
  -2  -8   8   55.29   14.90
  -2  -8   8   67.59   17.90
   1  -8  -8   10.60   23.70
  -1  -8   8   32.70   10.30
  -1  -8   8   46.90   12.90
  -1   8   8   25.90   12.00
  -1   8   8   33.40    8.50
  -1   8   8   53.19   17.20
   0  -8   8   30.70   11.20
   0  -8   8   33.20   27.10
   0  -8   8   21.00    9.40
   0  -8   8   42.00   10.00
   0  -8  -8   15.50   25.00
   0   8   8   17.80   11.60
   0   8   8   15.60   20.40
   0   8   8   38.80   11.50
   1  -8   8   92.09   30.90
  -1  -8  -8   50.49   23.80
   1  -8   8   80.69   12.40
   1   8   8   77.19   22.00
   1   8   8  131.09   37.50
   1   8   8  112.19   18.00
   2  -8   8   48.70   36.50
   2  -8   8   64.99   10.40
  -2  -8  -8   -1.80   36.20
   2   8   8   54.59   33.30
  -1  -9   8  -25.40   10.40
   0  -9   8  -12.60   16.70
  10   0  -9  -15.50   18.50
 -10   0   9   -4.20    9.10
   9   0  -9   11.10   13.80
   9   0  -9    8.00   15.50
  -9   0   9   -8.00    7.20
  -9   0   9   -0.10    6.70
  -8   0   9    2.60    9.80
   8   0  -9   15.50   10.20
   8   0  -9    9.20    8.30
  -8   0   9   -2.30    5.60
   8   0  -9   10.60   10.50
  -8   0   9   -2.60    5.50
  -8   0   9    2.00   11.00
  -7   0   9    5.90    4.90
   7   0  -9  -15.20    7.00
   7   0  -9    2.80    5.10
  -7   0   9    2.20    6.80
  -7   0   9    5.20    4.90
  -7   0   9    8.60    9.70
   6   0  -9    3.20    7.30
  -6   0   9   -8.30    6.90
  -6   0   9   -0.70    5.90
   6   0  -9    6.10    7.50
  -6   0   9   -4.90    3.50
  -6   0   9    0.00    3.10
   5   0  -9    0.90    5.60
  -5   0   9    6.20    3.50
  -5   0   9   -5.10    5.50
  -5   0   9  -10.40    4.80
   5   0  -9    0.00    5.30
  -4   0   9    0.40    2.70
   4   0  -9    0.00    3.20
  -4   0   9   -3.10    4.00
  -4   0   9    3.60    4.70
   4   0  -9    2.10    6.90
   4   0  -9   -0.50    4.40
  -3   0   9   -1.80    3.60
  -3   0   9   -5.30    5.70
   3   0  -9   -6.00    3.80
  -3   0   9   -0.90    2.50
   3   0  -9    4.10    4.10
  -2   0   9    1.70    3.80
   2   0  -9    2.80    2.60
  -2   0   9    1.10    2.30
   2   0  -9    5.10    4.40
  -2   0   9    3.70    6.10
   1   0  -9    2.50    2.30
  -1   0   9    2.30    3.80
  -1   0   9    3.80    2.60
   0   0   9    1.50    2.60
   0   0   9   -1.70    4.00
   0   0   9    3.40    3.00
   0   0  -9   -1.10    2.20
   0   0  -9    3.60    3.40
  -1   0  -9   -2.10    2.40
   1   0   9   -0.30    2.60
  -1   0  -9   -4.60    2.70
   2   0   9    2.40    3.10
  -2   0  -9    2.70    4.40
   2   0   9    1.20    2.80
  -2   0  -9    4.00    3.30
   3   0   9   -5.40    2.60
  -3   0  -9    5.10    3.90
   3   0   9   -6.60    3.50
   4   0   9   -0.40    4.60
   4   0   9   -0.40    3.30
  -4   0  -9    0.90    3.90
  -5   0  -9    2.50    5.40
  -5   0  -9    1.90    7.80
   5   0   9   -3.00    4.80
  -6   0  -9   -1.60    8.90
  -6   0  -9   -1.10   10.60
   6   0   9    2.10    5.80
   7   0   9    1.20    6.90
  -7   0  -9   -2.00    9.20
   7   0   9  -17.90    7.10
   8   0   9   -5.80    9.20
  -8   0  -9    2.70   11.60
 -10  -1   9   15.50   15.90
  10  -1  -9   12.50   17.40
  10   1  -9   14.70   25.30
 -10   1   9    2.30   12.10
 -10   1   9    2.50    9.20
  -9  -1   9    7.00    7.60
   9  -1  -9   12.20   13.10
  -9   1   9    4.10    8.40
  -9   1   9    9.80    7.40
   9   1  -9   26.80   20.00
  -8  -1   9   14.10   23.40
   8  -1  -9   -1.20    8.00
   8  -1  -9  -13.50    8.30
  -8  -1   9   -0.30    5.90
  -8  -1   9    1.50   10.90
   8  -1  -9   22.70   11.40
  -8  -1   9   -5.30    5.60
  -8   1   9   -2.60    5.10
   8   1  -9    8.60    7.70
  -8   1   9   -1.00   11.30
   8   1  -9   -2.10   12.60
   8   1  -9   -1.10   11.60
  -8   1   9    7.80    6.10
   7  -1  -9   16.30    8.10
  -7  -1   9   28.50    7.10
   7  -1  -9   53.59   15.40
   7  -1  -9   10.60   10.80
  -7  -1   9   20.40   10.60
  -7  -1   9   37.10    9.50
  -7   1   9   36.10    9.30
   7   1  -9   26.40   13.90
   7   1  -9   47.60   12.90
  -7   1   9   38.20   13.00
  -7   1   9   20.30    8.30
  -7   1   9   25.50   10.00
   7   1  -9   16.80   12.40
  -6  -1   9   16.00    6.10
   6  -1  -9   -2.70    5.60
   6  -1  -9    7.00    7.80
  -6  -1   9   15.10    5.40
   6  -1  -9    4.00    5.00
  -6  -1   9    4.30    8.20
  -6  -1   9  -11.50    7.30
  -6   1   9   19.40    7.90
  -6   1   9    3.60    4.10
   6   1  -9    1.60    8.00
  -6   1   9    2.90    7.10
  -6   1   9    2.20    4.50
   6   1  -9   10.10    7.80
  -5  -1   9    6.60    7.80
   5  -1  -9   26.20    7.10
  -5  -1   9   12.40    8.30
   5   1  -9   21.40   10.00
   5   1  -9   24.20   12.10
   5   1  -9   27.20    8.20
  -5   1   9   29.00    9.60
  -5   1   9   18.00    6.30
  -5   1   9   30.90   11.60
  -4  -1   9    8.90    4.30
  -4  -1   9    0.90    6.60
  -4  -1   9    1.20    5.10
   4  -1  -9    6.80    4.80
   4  -1  -9    5.70    5.10
  -4   1   9    6.80    4.00
   4   1  -9    8.50    6.70
   4   1  -9   12.50    5.50
   4   1  -9   -2.40    6.50
  -4   1   9    7.60    5.30
  -4   1   9    1.90    4.70
   3  -1  -9   57.29   12.80
  -3  -1   9   31.60   10.00
  -3  -1   9   42.70    9.20
  -3  -1   9   51.99   12.00
   3   1  -9   57.59   10.40
  -3   1   9   49.80   13.90
  -3   1   9   53.79   11.90
  -3   1   9   35.80    8.70
   3   1  -9   48.90   12.80
   3   1  -9   45.90   11.40
  -2  -1   9   -7.00    4.50
  -2  -1   9    4.50    4.50
   2  -1  -9    1.50    3.80
  -2  -1   9   -2.70    2.20
   2  -1  -9    2.10    2.80
  -2   1   9   -1.50    4.70
  -2   1   9    6.70    4.10
   2   1  -9    6.60    4.70
  -2   1   9    0.50    2.40
   2   1  -9    1.40    2.70
  -1  -1   9   51.29    8.90
   1  -1  -9   53.39    9.60
  -1  -1   9   28.70   10.40
  -1  -1   9   41.40    9.70
   1  -1  -9   43.90   11.10
   1   1  -9   34.30    7.00
   1   1  -9   36.80    9.70
  -1   1   9   44.40    8.80
  -1   1   9   39.20   10.10
  -1   1   9   33.20   10.80
   0  -1  -9    0.30    2.60
   0  -1   9    0.60    5.40
   0  -1  -9   -2.80    3.20
   0  -1   9    0.40    2.70
   0  -1   9   -1.80    1.90
   0   1   9    1.60    3.10
   0   1  -9   -1.70    3.10
   0   1   9   -2.60    3.00
   0   1  -9   -0.40    2.00
  -1  -1  -9    0.90    2.70
   1  -1   9    2.30    3.60
   1  -1   9    2.50    2.30
  -1  -1  -9   -0.90    3.00
   1  -1   9    1.30    5.30
  -1   1  -9   -0.50    2.20
  -1   1  -9    3.60    4.20
   1   1   9    0.10    2.70
   1   1   9   -1.00    3.10
  -2  -1  -9   24.00    8.40
   2  -1   9   20.30    5.70
   2  -1   9   15.10    5.40
  -2  -1  -9   22.60    6.70
  -2   1  -9   17.70   10.40
   2   1   9   22.80    7.80
   2   1   9   17.40    6.20
   3  -1   9   11.30    4.80
  -3  -1  -9   17.10    7.60
   3  -1   9   13.00    5.80
   3   1   9    6.20    4.30
   3   1   9   25.50    9.60
   4  -1   9   33.10    8.90
   4  -1   9   24.70    7.60
  -4  -1  -9   24.30    9.10
   4   1   9   20.90    8.40
   4   1   9   23.60    7.10
  -4   1  -9   14.50    6.70
  -5  -1  -9   23.20   12.10
   5  -1   9   19.00    7.20
  -5  -1  -9   14.10    7.90
   5   1   9   12.40    7.20
  -5   1  -9   15.70    6.50
  -5   1  -9   10.20    9.00
  -6  -1  -9    8.40    8.10
   6  -1   9    3.90    5.90
  -6  -1  -9   14.40   10.70
  -6   1  -9   11.00    9.50
  -6   1  -9    1.90    6.40
   6   1   9   22.50    8.70
  -7  -1  -9    8.90   10.60
   7  -1   9    9.90    7.50
   7   1   9   -3.30    8.80
  -7   1  -9   -9.00    7.80
   7   1   9   25.30   15.20
  -8  -1  -9  -11.80   14.00
   8  -1   9   22.20   17.00
  -8   1  -9   17.20   12.80
 -10   2   9   -9.90    9.50
  -9  -2   9   36.10   17.50
  -9  -2   9   35.80   11.50
  -9   2   9   17.00   11.30
   9   2  -9   10.80   19.00
  -9   2   9   27.90    8.60
   9   2  -9   25.30   20.60
  -8  -2   9    7.20    6.40
  -8  -2   9   19.80   13.10
  -8  -2   9   -6.20   12.50
   8  -2  -9  -10.60    9.70
  -8  -2   9   -2.80    5.20
  -8   2   9   12.50   10.60
  -8   2   9    6.30    6.40
   8   2  -9    6.80   11.80
   8   2  -9    7.10   18.50
   7  -2  -9    3.90    6.30
  -7  -2   9    1.60    5.40
   7  -2  -9   19.30    9.60
  -7  -2   9    9.50   10.10
  -7  -2   9    4.70    4.50
  -7  -2   9   11.20   12.50
   7   2  -9    9.90    7.00
  -7   2   9   26.50    8.10
   7   2  -9    3.40   10.10
   7   2  -9   13.90   15.40
  -7   2   9   10.50    5.80
  -6  -2   9   45.20   13.10
   6  -2  -9   28.70   12.10
  -6  -2   9   24.80    7.00
   6  -2  -9   21.60    8.80
  -6  -2   9   38.70   17.10
  -6  -2   9   16.60    6.60
   6   2  -9   26.40   13.10
   6   2  -9   28.20   14.40
  -6   2   9    8.40    7.70
   6   2  -9   11.20    5.90
  -6   2   9    5.60    4.90
  -6   2   9   18.30    8.10
   5  -2  -9   11.50    6.40
   5  -2  -9   13.60    8.10
  -5  -2   9   25.30    7.50
  -5  -2   9   13.10   13.30
  -5  -2   9   18.90    9.70
  -5   2   9   20.30    6.00
   5   2  -9   17.00    8.50
   5   2  -9    9.50    6.60
  -5   2   9   37.00   11.50
  -5   2   9   22.10    7.50
   5   2  -9   18.80    6.80
  -4  -2   9   58.29   10.50
   4  -2  -9   69.49   13.80
  -4  -2   9   96.29   18.20
  -4  -2   9   48.70   16.40
   4  -2  -9   88.59   13.70
   4   2  -9   77.69   17.60
  -4   2   9   83.09   12.80
   4   2  -9  121.59   28.30
  -4   2   9   78.99   14.50
   4   2  -9   62.79   11.40
  -4   2   9   85.19   14.70
  -3  -2   9  103.79   14.20
   3  -2  -9   74.99   12.30
   3  -2  -9   98.29   16.60
  -3  -2   9  152.08   33.00
  -3  -2   9   83.29   14.40
   3   2  -9   88.29   16.90
  -3   2   9   91.09   10.70
  -3   2   9   83.99   15.40
  -3   2   9   90.89   16.70
   3   2  -9   88.59   12.80
   2  -2  -9  144.49   16.00
  -2  -2   9  161.68   32.10
   2  -2  -9  149.29   16.60
  -2  -2   9  126.19   15.00
  -2  -2   9  114.19   12.10
  -2   2   9  124.89   12.60
  -2   2   9  142.29   16.20
   2   2  -9  175.58   18.40
  -2   2   9  137.89   17.30
   2   2  -9  149.59   12.40
  -1  -2   9   20.60    6.00
  -1  -2   9   11.90    5.50
   1  -2  -9    5.90    5.00
  -1  -2   9   20.70   11.30
   1  -2  -9   14.10    6.00
  -1   2   9   16.20    5.70
  -1   2   9    9.10    5.60
   1   2  -9   16.60    6.50
   1   2  -9   12.00    4.00
   0  -2   9   27.40    7.40
   0  -2   9   35.10   11.60
   0  -2  -9   27.50    8.60
   0  -2   9   53.99    9.40
   0  -2  -9   34.30    9.50
   0   2  -9   38.00    6.60
   0   2   9   19.60    6.50
   0   2  -9   34.60    8.80
   0   2   9   31.10    8.90
  -1  -2  -9   12.70    6.20
  -1  -2  -9   19.80    7.40
   1  -2   9   16.40    5.20
   1  -2   9   22.00    5.70
   1  -2   9    8.90    8.50
   1   2   9   22.20    7.70
   1   2   9   13.50    5.60
  -1   2  -9   12.20    3.30
  -1   2  -9   17.20    5.50
  -2  -2  -9  175.38   18.30
   2  -2   9  175.58   13.60
   2  -2   9  180.28   29.20
  -2  -2  -9  151.68   15.00
   2  -2   9  193.18   15.50
   2   2   9  155.08   15.10
   2   2   9  178.58   18.70
  -2   2  -9  183.08   15.50
   3  -2   9  135.49   12.30
   3  -2   9  109.79   12.70
  -3  -2  -9  113.09   18.10
  -3   2  -9  156.08   13.70
   3   2   9  121.19   18.60
   3   2   9  151.48   15.80
  -4  -2  -9   -0.10    5.40
   4  -2   9    0.90    3.70
   4  -2   9    5.60    4.50
  -4   2  -9    5.70    4.90
  -4   2  -9   -1.90    8.40
   4   2   9   11.30    8.20
   4   2   9   10.60    5.60
  -5  -2  -9  -18.20   10.30
   5  -2   9   12.60    5.90
  -5  -2  -9    7.60    8.30
  -5   2  -9    9.50    5.60
   5   2   9   17.20    8.10
  -5   2  -9   12.50    7.70
  -6  -2  -9    2.40    9.40
  -6  -2  -9   -4.90   13.90
   6  -2   9   -1.90    8.20
   6  -2   9    4.10    6.60
   6   2   9   -1.40   13.60
   6   2   9   10.30    8.70
  -6   2  -9   14.40    7.20
  -6   2  -9    8.90    9.30
  -7  -2  -9   25.90   14.00
   7  -2   9   19.70    8.20
   7   2   9  -10.80    8.60
  -7   2  -9    9.10    8.80
   8  -2   9   17.60   11.00
  -8  -2  -9   27.20   20.10
   8  -2   9   11.50   10.60
  -8   2  -9    9.50   12.20
  -9  -3   9    1.70   18.20
   9   3  -9   -1.70   18.20
  -9   3   9   -2.90    6.40
  -8  -3   9   43.60   11.60
   8  -3  -9   11.30   11.50
  -8  -3   9   45.80   21.20
  -8  -3   9   25.50   15.90
   8   3  -9   60.39   28.90
  -8   3   9   35.10    8.30
  -8   3   9   20.80    9.70
   8   3  -9   39.00   20.30
  -7  -3   9   22.80    7.80
   7  -3  -9   22.90   13.40
  -7  -3   9    9.90   15.70
  -7  -3   9   29.50   14.30
   7  -3  -9   11.80    9.50
  -7   3   9   13.00    7.70
  -7   3   9   31.90    8.00
  -7   3   9   25.60   12.60
   7   3  -9   31.00   10.00
   6  -3  -9   28.90    9.40
   6  -3  -9   34.90   12.40
  -6  -3   9   39.90    6.50
  -6  -3   9   21.50   17.20
  -6  -3   9   22.30    8.60
  -6  -3   9   23.90   15.10
  -6   3   9   23.30    8.20
   6   3  -9    6.00   10.50
   6   3  -9   64.09   17.80
  -6   3   9   34.30   11.60
   6   3  -9   22.80    8.70
  -6   3   9   42.40    8.30
   5  -3  -9   -7.50    4.70
   5  -3  -9   -9.40    5.90
  -5  -3   9    7.20    5.10
  -5  -3   9    0.50   10.20
  -5  -3   9    3.40    2.70
  -5  -3   9    9.20    6.80
   5   3  -9    3.80    7.20
  -5   3   9    0.20    3.50
   5   3  -9    6.70   10.40
  -5   3   9   -1.00    6.00
  -5   3   9   10.60    5.30
   4  -3  -9   54.89   11.30
  -4  -3   9   46.20   10.30
  -4  -3   9   40.60   11.40
   4  -3  -9   20.70   10.20
  -4  -3   9   41.20   14.60
  -4   3   9   35.30   11.10
   4   3  -9   38.80   16.60
  -4   3   9   68.19   11.30
   4   3  -9   49.90   10.30
   4   3  -9   49.80   15.30
  -3  -3   9   38.50    9.00
   3  -3  -9   43.80   10.30
  -3  -3   9   44.00   10.50
  -3  -3   9   51.99   19.60
   3  -3  -9   44.40   10.40
  -3   3   9   37.40   10.20
   3   3  -9   50.39   18.10
  -3   3   9   47.60    9.50
   3   3  -9   43.70   12.50
   3   3  -9   49.20    9.00
  -3   3   9   44.90   10.50
  -2  -3   9   26.80    7.10
  -2  -3   9   38.90   10.40
   2  -3  -9   33.00   10.20
  -2  -3   9   13.70   11.20
   2  -3  -9   34.30    8.60
   2   3  -9   28.80   15.20
  -2   3   9   43.50   11.00
   2   3  -9   25.60    9.40
  -2   3   9   25.40    6.70
  -2   3   9   33.20   10.50
   2   3  -9   36.10    7.50
   1  -3  -9    2.60    3.50
  -1  -3   9   -4.70    7.90
  -1  -3   9    0.10    2.50
   1  -3  -9   -0.10    3.50
  -1  -3   9    4.40    4.70
  -1   3   9    1.70    2.90
   1   3  -9    4.30    2.80
  -1   3   9   -2.30    3.40
   1   3  -9    4.20    5.10
   0  -3   9  122.49   11.60
   0  -3   9  121.59   12.90
   0  -3  -9  105.19   16.60
   0  -3  -9  118.99   13.60
   0  -3   9   90.69   24.30
   0   3  -9  133.09   14.90
   0   3   9   93.79   15.70
   0   3   9  117.69   12.50
   0   3  -9  133.59    8.20
  -1  -3  -9    4.10    4.60
   1  -3   9    7.40    9.00
  -1  -3  -9   11.00    5.80
   1  -3   9   12.10    4.30
   1   3   9   -0.30    3.60
  -1   3  -9   11.10    5.40
   1   3   9    8.80    6.40
   2  -3   9   15.70    5.60
  -2  -3  -9   14.70    6.10
   2  -3   9   10.50    4.50
  -2  -3  -9   -0.40    6.40
   2  -3   9   17.70   12.70
   2   3   9   12.10    7.50
   2   3   9    7.50    5.00
  -2   3  -9   23.90    6.20
   3  -3   9  101.39   29.50
   3  -3   9   84.59    9.60
  -3  -3  -9   73.79   16.20
   3   3   9   99.19   15.60
   3   3   9   98.59   18.30
  -3   3  -9   86.79   11.40
  -4  -3  -9    4.70    9.70
   4  -3   9   -3.70    4.00
  -4  -3  -9    0.40    6.40
   4  -3   9    2.30    3.40
   4  -3   9   -4.60   10.50
  -4   3  -9    5.00    4.00
   4   3   9    4.40    5.50
   4   3   9    5.80    7.50
  -4   3  -9    4.00    5.30
   4   3   9   -0.80    6.90
   5  -3   9   22.20   16.60
   5  -3   9   18.30    6.40
  -5  -3  -9   -3.00   11.50
  -5  -3  -9    5.50    9.00
   5   3   9    4.40    6.70
   5   3   9    8.30   12.90
  -5   3  -9    1.80    4.20
  -5   3  -9    3.50    6.10
  -6  -3  -9   13.10   10.40
  -6  -3  -9  -41.70   14.70
   6  -3   9  -11.40    5.60
   6   3   9   16.40   10.70
  -6   3  -9   13.80    5.30
   7  -3   9   10.10    7.40
  -7  -3  -9  -35.50   12.80
  -7   3  -9    5.60    4.00
  -8  -3  -9   15.60   22.90
   8  -3   9   16.40   10.20
   8  -3   9  -33.70   16.10
   9   4  -9  -44.50   41.50
  -8  -4   9   18.10   19.80
  -8  -4   9   14.20   17.80
  -8   4   9   19.10    5.80
   8   4  -9   36.10   21.40
  -7  -4   9   40.30   23.90
  -7  -4   9   53.99   18.40
   7  -4  -9   37.80   14.10
  -7  -4   9   13.20    7.90
   7  -4  -9   46.50   13.00
   7   4  -9   17.10   10.80
   7   4  -9   32.30   20.80
  -7   4   9   33.10    7.50
  -7   4   9   48.90   13.60
  -6  -4   9   43.00   10.90
   6  -4  -9   52.99   12.40
  -6  -4   9   23.60   19.40
   6  -4  -9   43.50   14.40
  -6  -4   9   37.80   16.20
   6   4  -9   21.60   14.10
  -6   4   9   45.60   13.30
  -6   4   9   35.40    7.40
   6   4  -9   55.89   23.10
  -6   4   9   54.29   14.80
   6   4  -9   39.90   11.50
  -5  -4   9   88.89   25.90
  -5  -4   9   79.59   13.70
   5  -4  -9   86.69   14.20
  -5  -4   9   63.09   16.00
   5  -4  -9   59.69   14.90
  -5   4   9  125.89   19.70
  -5   4   9   78.19   11.50
   5   4  -9   52.09   17.80
   5   4  -9   77.79   19.20
  -5   4   9   65.39   13.80
  -4  -4   9   65.29   21.70
  -4  -4   9  141.09   18.80
  -4  -4   9  104.49   19.30
   4  -4  -9  104.79   15.90
   4  -4  -9  125.69   20.20
  -4   4   9  124.99   12.90
  -4   4   9  144.39   20.90
   4   4  -9  123.09   16.10
   4   4  -9  141.29   35.30
   4   4  -9   92.79   20.00
   3  -4  -9  121.19   19.60
  -3  -4   9  121.29   13.20
   3  -4  -9  133.59   14.60
  -3  -4   9  138.09   32.10
  -3  -4   9   99.69   18.60
  -3   4   9  109.99   12.20
   3   4  -9   94.39   18.20
   3   4  -9  142.29   12.90
  -3   4   9  114.79   18.10
   2  -4  -9  153.88   18.10
  -2  -4   9  164.88   14.70
   2  -4  -9  139.79   15.50
  -2  -4   9  134.39   15.90
  -2  -4   9  196.68   41.50
  -2   4   9  120.69   13.30
   2   4  -9  154.08   11.50
   2   4  -9  105.09   18.40
  -2   4   9  124.79   18.90
  -2   4   9  128.49   13.40
   1  -4  -9  109.59   18.20
   1  -4  -9  128.59   14.80
  -1  -4   9  100.69   27.30
  -1  -4   9  120.49   12.40
  -1  -4   9  112.99   13.60
  -1   4   9  128.29   13.60
  -1   4   9  123.69   20.00
   1   4  -9  104.19   17.00
   1   4  -9  121.39    8.40
  -1   4   9  127.09   19.50
   0  -4   9  208.88   15.70
   0  -4   9  260.27   18.60
   0  -4  -9  269.27   23.90
   0  -4   9  264.07   43.60
   0   4  -9  261.37   20.30
   0   4   9  322.47   26.10
   0   4   9  261.47   25.80
   1  -4   9   46.30    8.60
   1  -4   9   52.29    8.40
   1  -4   9   56.09   20.80
  -1  -4  -9   32.10   10.50
  -1   4  -9   39.10    9.40
   1   4   9   47.30   16.10
   1   4   9   31.50    8.10
   1   4   9   31.40   10.20
  -2  -4  -9  251.27   24.10
   2  -4   9  265.37   46.40
   2  -4   9  236.38   15.30
   2  -4   9  235.18   15.10
  -2  -4  -9  176.18   22.90
  -2   4  -9  226.18   14.90
   2   4   9  195.48   18.40
   2   4   9  222.08   24.30
   2   4   9  224.38   28.70
   3  -4   9  115.39   10.50
   3  -4   9   95.29    9.40
  -3  -4  -9   92.59   18.70
   3  -4   9   54.29   18.00
   3  -4   9   83.59   16.10
  -3   4  -9   93.59    7.40
   3   4   9  146.79   38.60
   3   4   9   97.29   19.30
   3   4   9  107.99   16.80
  -3   4  -9   84.49    7.40
   4  -4   9   32.50    7.30
  -4  -4  -9   36.00   11.10
   4  -4   9   35.10   15.40
  -4  -4  -9   35.80   18.20
   4  -4   9   42.80   13.20
   4   4   9   23.10   17.00
   4   4   9   49.80   12.00
   5  -4   9   80.99   16.00
  -5  -4  -9   85.39   25.90
  -5  -4  -9   92.59   20.00
   5  -4   9  106.99   11.00
   5  -4   9   70.99   22.80
   5   4   9   59.89   19.80
  -6  -4  -9   47.40   18.90
   6  -4   9   18.60    8.50
   6   4   9   31.60   12.50
   7  -4   9    8.40   11.90
   7  -4   9    4.20   24.20
  -7  -4  -9   17.40   18.10
   9   5  -9   87.29   48.90
  -8  -5   9   24.00   24.20
   8   5  -9   40.20   29.70
  -7  -5   9   32.60   24.70
  -7  -5   9   -2.90   15.70
   7   5  -9   -4.60   19.00
   6  -5  -9   40.90   13.80
   6  -5  -9   58.69   13.40
  -6  -5   9   56.79   24.40
  -6  -5   9   25.20   10.30
  -6  -5   9   37.20   16.00
  -6   5   9   65.29   15.10
   6   5  -9   71.19   23.90
  -6   5   9   57.39    7.90
   6   5  -9   84.69   15.70
  -5  -5   9   54.59   21.90
   5  -5  -9   36.70   12.00
  -5  -5   9   47.00   16.30
   5  -5  -9   39.50   12.40
  -5  -5   9   42.60   10.90
   5   5  -9   36.50   14.60
  -5   5   9   36.10   11.20
  -5   5   9   37.50    7.70
   5   5  -9   19.80   17.20
  -5   5   9   36.90   13.00
   5   5  -9   40.10    9.90
  -4  -5   9   52.59   22.30
   4  -5  -9   41.40   13.00
  -4  -5   9   30.50    8.90
   4  -5  -9   30.10   10.70
  -4  -5   9   28.90   13.10
   4   5  -9   33.20   15.10
  -4   5   9   34.80    8.20
  -4   5   9   39.50   11.50
   4   5  -9   24.10   18.80
   4   5  -9   37.90    9.70
  -4   5   9   50.49   12.60
  -3  -5   9   34.70    8.80
  -3  -5   9   27.10    4.50
   3  -5  -9   31.70   10.10
   3  -5  -9   11.90    7.00
  -3  -5   9   38.30   19.00
  -3  -5   9   20.30   10.20
   3   5  -9   46.40   23.10
   3   5  -9   29.50    7.20
  -3   5   9   27.10    7.10
   3   5  -9   17.90   10.30
  -3   5   9   17.80    9.00
  -2  -5   9   10.20    5.10
   2  -5  -9   15.80    8.10
  -2  -5   9   10.20    7.50
  -2  -5   9   19.40   14.30
   2  -5  -9   12.50    7.90
  -2  -5   9   15.90    5.20
   2   5  -9   -1.60    6.00
   2   5  -9    6.30    3.80
   2   5  -9   14.60    4.40
  -2   5   9   16.30    6.90
   2   5  -9    8.00   13.10
  -2   5   9    5.80    7.40
  -2   5   9   20.30    6.60
  -1  -5   9   36.50    7.90
   1  -5  -9   16.00    8.80
  -1  -5   9   20.30    8.50
  -1  -5   9   39.60    9.00
  -1  -5   9   19.60   13.40
   1  -5  -9   32.20    9.40
  -1   5   9   36.90   12.60
   1   5  -9   23.80    9.60
  -1   5   9   24.60    9.30
   0  -5  -9    4.40    6.60
   0  -5   9    7.50    4.80
   0  -5   9    9.30    6.00
   0  -5  -9    4.10    6.20
   0  -5   9    7.00    4.70
   0  -5   9    8.60   14.90
   0   5   9   10.20    6.30
   0   5   9   11.30    8.60
   0   5   9   14.70    8.30
   0   5  -9   12.30    8.00
   1  -5   9   45.40    8.50
   1  -5   9   48.80   20.80
   1  -5   9   49.80    8.90
  -1  -5  -9   57.89   12.30
  -1  -5  -9   45.10   13.80
   1  -5   9   55.69   12.70
   1   5   9   45.40   15.10
   1   5   9   51.19   11.40
   1   5   9   30.00   11.40
  -1   5  -9   57.29    9.80
   2  -5   9   -7.80    3.10
   2  -5   9   -3.90   11.10
   2  -5   9    8.00    3.50
   2  -5   9   -2.80    4.50
  -2  -5  -9   -6.70    6.60
   2   5   9    0.30    5.10
   2   5   9   -5.60    7.70
   3  -5   9   10.10    6.90
   3  -5   9   26.10   19.10
  -3  -5  -9   13.80   15.20
   3  -5   9   19.40    4.70
   3   5   9   -1.60   10.10
   3   5   9   11.60   10.60
   3   5   9   11.60    7.00
   3   5   9   -1.50    6.20
  -4  -5  -9  -19.80    8.40
   4  -5   9   -3.60    3.70
  -4  -5  -9  -14.00   13.40
   4  -5   9  -10.30   12.20
   4  -5   9   -7.60    7.10
   4   5   9   -9.20    7.60
   4   5   9   20.60   13.50
   5  -5   9   -1.00   15.40
  -5  -5  -9   16.40   19.20
   5  -5   9    4.20    4.70
  -5  -5  -9   -8.60    9.90
   5   5   9   10.60    8.40
  -6  -5  -9    6.90   15.10
   6  -5   9   22.40   23.90
   6  -5   9   18.10    6.10
  -7  -5  -9   -6.60   23.10
  -7  -6   9   53.99   24.90
   7   6  -9   43.00   28.80
  -6  -6   9   26.40   19.60
   6   6  -9   28.20   21.90
   6   6  -9   30.70   13.80
  -5  -6   9   48.70   17.70
   5  -6  -9   49.80   15.00
  -5  -6   9   75.29   14.50
   5  -6  -9   45.10   13.50
  -5  -6   9   67.39   23.00
   5   6  -9   69.39   13.80
  -5   6   9   44.70   13.80
  -5   6   9   56.99    6.60
   5   6  -9   48.10   22.10
  -4  -6   9   52.79   25.10
  -4  -6   9   87.49   15.90
  -4  -6   9  105.59   21.20
   4  -6  -9  102.29   17.90
   4  -6  -9  124.99   20.60
   4   6  -9  120.19   14.80
  -4   6   9  111.89   20.60
   4   6  -9   78.29   12.90
   4   6  -9   94.69   22.10
  -4   6   9   99.29   10.90
  -3  -6   9   34.80   20.40
   3  -6  -9   55.09   14.10
  -3  -6   9   71.69   15.80
   3  -6  -9   43.40   14.30
  -3  -6   9   58.69   12.20
   3   6  -9   56.49    8.70
  -3   6   9   44.30   12.10
  -3   6   9   46.50   13.90
  -3   6   9   31.60    7.50
   3   6  -9   59.59    8.50
   3   6  -9   57.89   29.80
  -2  -6   9  112.49   30.70
  -2  -6   9  137.19   15.10
  -2  -6   9  156.58   22.40
   2  -6  -9  113.09   22.70
   2  -6  -9  129.19   20.70
  -2  -6   9  129.29   10.10
  -2   6   9  121.79   20.20
   2   6  -9  155.08   24.30
  -2   6   9  111.49   14.60
  -1  -6   9  143.49   12.90
  -1  -6   9  101.49   15.90
   1  -6  -9  103.79   19.60
  -1  -6   9   85.49   30.30
   1  -6  -9  118.59   19.70
  -1  -6   9   96.59   14.10
  -1   6   9  133.19   15.10
   1   6  -9  129.89   19.70
  -1   6   9  103.19   20.40
  -1   6   9  103.69   21.30
   0  -6  -9  203.48   24.20
   0  -6   9  254.67   49.60
   0  -6   9  240.18   19.70
   0  -6   9  243.08   18.00
   0  -6  -9  286.47   25.30
   0  -6   9  251.97   19.20
   0   6  -9  263.67   21.50
   0   6   9  267.37   28.00
   0   6   9  273.77   22.30
   0   6   9  300.77   21.10
   0   6   9  207.28   26.90
  -1  -6  -9   71.69   15.50
   1  -6   9   69.89   10.20
  -1  -6  -9   64.59   16.10
   1  -6   9   84.69   14.50
   1  -6   9   74.79   10.90
   1  -6   9  116.69   35.90
   1   6   9   61.99   20.30
   1   6   9   81.29   18.60
   1   6   9   97.69   15.60
   1   6   9   82.49   14.50
   2  -6   9   55.69   26.10
   2  -6   9   57.49    9.10
  -2  -6  -9   48.20   15.50
   2  -6   9  109.99   18.30
  -2  -6  -9   36.10   18.20
   2   6   9   64.99   14.10
   2   6   9   78.99   15.80
   2   6   9   80.29   22.30
   2   6   9   76.99   21.80
   3  -6   9  153.58   37.80
   3  -6   9  128.59   31.20
   3  -6   9   91.59   10.90
  -3  -6  -9   84.79   20.40
  -3  -6  -9   99.19   26.10
   3   6   9  111.39   24.80
   3   6   9  110.69   34.90
  -4  -6  -9    1.90   19.30
   4   6   9   -1.90   10.60
  -5  -6  -9  100.79   35.10
   5  -6   9   92.49   31.10
   5  -6   9   75.39   10.30
  -6  -6  -9   74.79   25.20
   6   7  -9   51.89   15.10
   6   7  -9   65.09   19.00
  -5  -7   9   29.80   17.90
   5   7  -9   26.10   27.50
   5   7  -9    1.40    9.50
  -4  -7   9    7.20    8.70
  -4  -7   9   -2.90   14.30
   4   7  -9    8.40    7.40
   4   7  -9   16.80    7.60
   4   7  -9    8.20   21.80
  -3  -7   9    2.40    8.20
  -3  -7   9   22.70   12.50
  -3  -7   9   -2.60   18.80
  -3   7   9   17.30   10.10
   3   7  -9    3.90   16.40
  -3   7   9   15.00    5.90
  -3   7   9    5.90    6.00
  -2  -7   9   48.40   22.60
  -2  -7   9   43.10   13.40
   2  -7  -9    8.90   10.50
  -2  -7   9   42.20   10.90
  -2   7   9   29.70   12.30
  -2   7   9   34.60    9.10
  -2   7   9   25.60    8.20
   2   7  -9   19.20   15.80
   1  -7  -9   -7.00    8.60
  -1  -7   9   10.80    7.40
  -1  -7   9   13.70    8.70
  -1   7   9    1.20    7.10
  -1   7   9   -2.10   11.10
   0  -7   9   10.50    6.10
   0  -7   9   14.30   17.90
   0  -7   9   13.30    7.10
   0  -7   9    5.70    6.50
   0  -7  -9   -6.00    9.20
   0   7   9   10.90    8.30
   0   7   9    3.30    7.60
   0   7   9   16.60   15.10
   1  -7   9   42.30   26.10
   1  -7   9   12.40    4.80
  -1  -7  -9    3.90   10.70
  -1  -7  -9   13.30   20.70
   1  -7   9   24.00   10.10
   1  -7   9   21.30    7.20
   1   7   9    1.60    8.50
   1   7   9   29.30    9.90
   2  -7   9    8.20    6.10
   2  -7   9   31.10   25.00
  -2  -7  -9  -10.60   20.70
   2  -7   9    2.40    8.20
  -2  -7  -9   17.50   14.00
   2   7   9  -14.40   21.90
   2   7   9    7.90   10.30
  -3  -7  -9   -4.60   23.10
  -3  -7  -9  -12.10   13.80
   3  -7   9    1.80    5.50
   3  -7   9   12.50   14.60
   3  -7   9    3.10   21.70
   3   7   9   20.70   11.30
  -2  -8   9   67.79   19.10
  -2  -8   9   44.10   13.40
  -2   8   9   62.99   10.00
  -1  -8   9   37.70   10.90
  -1  -8   9   15.20   12.00
  -1   8   9   11.80   19.00
  -1   8   9   56.69   13.00
   0  -8   9   75.19   12.20
   0  -8   9   79.79   14.60
   0   8   9   66.49   15.20
   0   8   9   73.99   26.80
   0   8   9   85.79   27.90
   0   8   9   71.19   14.90
   1  -8   9   41.80   10.40
   1   8   9   27.30   14.00
   1   8   9   63.29   28.20
   1   8   9   44.80   14.80
   2  -8   9   38.10   14.30
   2   8   9   25.30   15.30
 -10   0  10   15.80   11.70
 -10   0  10    6.50   10.70
  10   0 -10    3.60   21.10
   9   0 -10   21.40   15.80
   9   0 -10   26.80   16.70
  -8   0  10   11.40    7.20
   8   0 -10    3.10   11.00
   8   0 -10   22.00   12.20
  -8   0  10   15.80    6.70
  -8   0  10   14.20   12.30
  -8   0  10   39.40   14.70
   7   0 -10   43.20   11.80
  -7   0  10   33.10   12.20
  -7   0  10   27.30    8.50
   7   0 -10    4.60   12.10
  -7   0  10   28.70   12.80
   7   0 -10   36.70   14.00
  -7   0  10   26.30    9.00
   6   0 -10   38.00   14.60
  -6   0  10   59.09   14.00
   6   0 -10   32.00   17.50
  -6   0  10   39.00    9.60
  -6   0  10   54.69   16.30
  -6   0  10   52.19   16.90
   6   0 -10   63.89   17.90
   5   0 -10    2.70    6.70
  -5   0  10    5.30    4.20
   5   0 -10    0.70    5.80
  -5   0  10    8.00    7.40
  -5   0  10    4.50    6.60
  -4   0  10  128.09   13.90
  -4   0  10  123.79   18.90
  -4   0  10  110.19   25.00
   4   0 -10  106.69   15.10
   4   0 -10  101.99   18.90
  -3   0  10  491.45   31.40
   3   0 -10  490.65   27.70
  -3   0  10  489.65   41.00
  -3   0  10  517.15   28.10
   3   0 -10  509.85   34.20
  -2   0  10   81.39   18.80
   2   0 -10  106.69   15.30
  -2   0  10  121.29   18.50
  -2   0  10   95.59   13.90
   2   0 -10  144.09   17.30
  -1   0  10  461.85   25.80
   1   0 -10  471.85   30.40
  -1   0  10  444.16   28.70
  -1   0  10  438.36   37.90
   1   0 -10  522.05   26.30
   0   0 -10  275.17   22.20
   0   0  10  273.77   21.50
   0   0  10  236.78   28.20
   0   0 -10  242.28   17.40
   0   0  10  271.77   18.90
  -1   0 -10  342.47   20.60
   1   0  10  355.86   24.70
   1   0  10  351.06   21.80
  -1   0 -10  349.96   25.00
  -2   0 -10  146.19   13.00
   2   0  10  128.89   13.50
  -2   0 -10  160.58   16.80
  -3   0 -10  485.65   30.40
   3   0  10  506.15   28.20
   3   0  10  495.95   31.00
   4   0  10  662.83   33.90
   4   0  10  603.34   36.00
  -4   0 -10  606.44   35.60
   5   0  10   57.09   12.40
   5   0  10   70.69   16.00
  -5   0 -10   58.39   13.80
   6   0  10  184.28   19.80
   7   0  10   55.29   14.50
  -7   0 -10    8.00   11.90
  -9  -1  10  209.08   36.30
   9  -1 -10  236.38   41.80
  -9  -1  10  250.77   23.80
  -9  -1  10  292.77   25.80
   9   1 -10  275.87   41.10
  -9   1  10  278.37   23.00
  -9   1  10  297.47   49.80
   8  -1 -10  392.16   34.50
  -8  -1  10  418.76   27.70
  -8  -1  10  488.35   45.00
  -8  -1  10  381.16   38.40
  -8  -1  10  408.26   29.40
   8  -1 -10  431.66   40.40
  -8   1  10  440.36   27.90
  -8   1  10  392.86   42.00
   8   1 -10  403.86   42.40
   8   1 -10  416.86   46.70
  -8   1  10  482.35   33.20
   7  -1 -10  492.35   40.40
  -7  -1  10  500.45   38.60
   7  -1 -10  474.95   32.50
  -7  -1  10  526.55   45.80
  -7  -1  10  458.85   29.90
  -7  -1  10  457.45   27.60
   7   1 -10  447.56   44.80
  -7   1  10  451.15   33.90
   7   1 -10  481.05   43.00
  -7   1  10  480.95   31.60
  -7   1  10  467.45   28.70
   7   1 -10  477.95   32.90
  -7   1  10  456.95   35.80
  -6  -1  10  731.43   37.20
  -6  -1  10  644.14   43.20
   6  -1 -10  653.13   44.30
  -6  -1  10  686.83   33.10
   6  -1 -10  658.63   37.10
  -6  -1  10  695.13   52.99
   6   1 -10  703.73   52.99
  -6   1  10  686.63   37.00
   6   1 -10  707.73   48.10
   6   1 -10  699.63   38.20
  -6   1  10  592.04   39.80
  -6   1  10  665.53   34.50
  -6   1  10  647.04   40.90
   5  -1 -10 1532.75   69.49
  -5  -1  10 1440.86   57.29
  -5  -1  10 1542.45   66.59
  -5  -1  10 1521.15   80.39
  -5   1  10 1447.46   64.09
   5   1 -10 1401.86   77.59
  -5   1  10 1406.26   55.19
   5   1 -10 1513.25   71.09
  -5   1  10 1398.66   66.49
  -4  -1  10  707.03   53.49
  -4  -1  10  644.44   36.80
  -4  -1  10  613.94   38.20
   4  -1 -10  686.93   42.00
   4   1 -10  755.32   64.19
   4   1 -10  690.73   34.40
   4   1 -10  683.83   42.90
  -4   1  10  683.53   44.30
  -4   1  10  684.93   34.00
  -3  -1  10  805.72   57.39
  -3  -1  10  843.12   43.30
   3  -1 -10  859.81   39.30
   3  -1 -10  923.41   46.80
  -3  -1  10  891.21   39.30
   3   1 -10  904.81   38.80
  -3   1  10  857.21   38.50
  -3   1  10  828.72   43.30
   3   1 -10  762.12   44.50
  -3   1  10  818.02   50.49
   2  -1 -10 2121.59   70.39
  -2  -1  10 1982.00   74.09
  -2  -1  10 2060.79   97.19
  -2  -1  10 2072.69   69.49
   2  -1 -10 1996.20   77.19
   2   1 -10 2121.19   68.19
  -2   1  10 2149.08   89.59
  -2   1  10 2170.68   70.69
   2   1 -10 2026.30   77.89
  -2   1  10 2089.99   76.09
  -1  -1  10 1135.09   49.20
   1  -1 -10 1149.69   51.99
  -1  -1  10 1134.29   68.59
  -1  -1  10 1226.88   46.20
  -1   1  10 1194.48   46.90
  -1   1  10 1127.09   50.69
   1   1 -10 1136.99   51.29
   1   1 -10 1178.98   43.50
  -1   1  10 1172.98   62.99
   0  -1  10 1356.86   49.70
   0  -1 -10 1214.28   54.69
   0  -1 -10 1288.67   50.79
   0  -1  10 1329.17   74.69
   0  -1  10 1322.17   53.39
   0   1 -10 1375.86   47.30
   0   1  10 1350.76   55.69
   0   1 -10 1414.66   55.89
  -1  -1 -10  686.63   33.20
   1  -1  10  682.13   34.90
  -1  -1 -10  732.73   38.60
   1  -1  10  679.73   32.10
   1  -1  10  723.53   53.69
  -1   1 -10  724.63   36.70
   1   1  10  709.03   37.80
  -1   1 -10  715.83   29.30
   1   1  10  644.34   32.70
   2  -1  10  772.32   37.60
   2  -1  10  802.32   35.30
  -2  -1 -10  780.82   41.60
   2   1  10  812.22   37.50
   2   1  10  763.22   41.00
  -2   1 -10  801.72   38.90
   3  -1  10  500.95   29.70
  -3  -1 -10  460.85   31.30
   3  -1  10  502.25   27.40
   3   1  10  523.95   29.80
   3   1  10  516.55   33.20
   4  -1  10  348.77   23.10
  -4  -1 -10  375.06   28.80
   4  -1  10  379.46   26.10
  -4   1 -10  307.97   23.60
   4   1  10  361.56   28.70
   4   1  10  342.27   25.00
  -5  -1 -10  275.27   26.20
   5  -1  10  243.78   20.30
   5   1  10  282.67   27.30
  -5   1 -10  238.68   29.40
  -5   1 -10  220.98   21.40
   5   1  10  255.47   22.30
   6  -1  10  178.38   19.10
  -6  -1 -10  222.18   25.60
  -6   1 -10  167.18   34.40
   6   1  10  159.88   22.20
   7  -1  10   33.00   11.00
  -7  -1 -10   30.70   15.20
   7   1  10   52.39   16.20
  -7   1 -10   59.39   14.90
   8  -1  10   25.90   13.20
 -10   2  10   24.40   11.50
  -9   2  10    5.50   11.60
   9   2 -10   13.00   21.50
  -9   2  10    1.10    8.00
  -8  -2  10  -26.80   11.60
  -8  -2  10   -0.40    6.20
   8  -2 -10   15.40   11.10
  -8  -2  10    3.00    6.90
   8   2 -10  -21.60   12.50
   8   2 -10   -9.30   16.80
  -8   2  10   -6.20    8.00
  -8   2  10   -4.40    6.20
  -7  -2  10   54.49   12.60
  -7  -2  10   41.80   16.70
  -7  -2  10   63.89   23.40
  -7  -2  10   64.89   11.10
   7  -2 -10   71.99   17.20
   7  -2 -10   55.99   13.60
   7   2 -10   26.00   14.00
  -7   2  10   45.10   12.30
  -7   2  10   41.20    9.30
   7   2 -10   30.60   16.20
  -7   2  10   74.49   18.40
   7   2 -10   47.10   12.50
  -6  -2  10   10.40   12.30
   6  -2 -10   15.40    8.30
  -6  -2  10    1.70    8.80
  -6  -2  10    3.60    3.80
  -6  -2  10    0.80    4.90
   6  -2 -10   -3.90    5.30
   6   2 -10    9.80   12.80
  -6   2  10    4.20    9.40
   6   2 -10    3.50    8.90
   6   2 -10    6.20    6.40
  -6   2  10   -5.70    4.40
  -6   2  10    1.80    4.70
  -5  -2  10  160.28   24.90
   5  -2 -10  147.99   24.10
   5  -2 -10  148.79   16.80
  -5  -2  10  209.98   38.60
  -5  -2  10  126.79   14.70
  -5   2  10  131.69   19.40
   5   2 -10  126.69   28.30
  -5   2  10  117.59   14.90
  -5   2  10  164.68   23.50
   5   2 -10  139.99   25.50
  -4  -2  10    4.70    7.60
   4  -2 -10   12.50    7.40
   4  -2 -10   19.60    7.20
  -4  -2  10   18.20    7.40
  -4  -2  10   26.50   16.70
  -4   2  10    0.90    5.10
  -4   2  10    8.30    7.10
   4   2 -10    7.30    7.40
  -4   2  10   11.90    5.60
   4   2 -10   -1.40    5.70
   4   2 -10   11.00    5.20
   3  -2 -10  259.17   23.90
  -3  -2  10  242.78   18.70
  -3  -2  10  235.88   22.10
  -3  -2  10  185.98   33.30
   3   2 -10  228.28   17.70
  -3   2  10  197.48   21.90
  -3   2  10  193.88   16.80
   3   2 -10  168.48   29.60
  -3   2  10  241.88   25.00
   3   2 -10  225.38   22.60
   2  -2 -10  242.18   22.70
  -2  -2  10  285.47   22.50
  -2  -2  10  296.47   35.20
  -2  -2  10  281.97   19.80
   2  -2 -10  319.87   25.50
  -2   2  10  238.28   18.70
   2   2 -10  255.77   17.60
  -2   2  10  223.38   23.70
   2   2 -10  261.17   24.30
  -2   2  10  286.87   23.70
  -1  -2  10   85.99   14.60
  -1  -2  10   71.89   11.30
   1  -2 -10   66.39   14.20
   1  -2 -10   98.99   14.70
  -1  -2  10  100.79   25.40
  -1   2  10   97.49   16.30
   1   2 -10   98.49   10.00
   1   2 -10   99.19   16.80
  -1   2  10  102.69   11.80
   0  -2  10  399.96   25.40
   0  -2 -10  393.26   28.20
   0  -2  10  437.36   23.80
   0  -2 -10  413.26   25.30
   0  -2  10  373.06   39.80
   0   2 -10  392.16   19.60
   0   2  10  406.76   25.00
   0   2  10  404.46   28.40
   0   2 -10  371.16   25.80
   1  -2  10  209.48   16.10
   1  -2  10  207.68   37.90
  -1  -2 -10  200.98   20.30
   1  -2  10  222.38   18.20
  -1  -2 -10  176.78   17.00
  -1   2 -10  229.08   12.70
   1   2  10  249.18   20.90
   1   2  10  233.28   21.80
  -2  -2 -10  292.37   24.50
   2  -2  10  257.37   18.00
   2  -2  10  344.47   38.10
  -2  -2 -10  319.37   22.60
   2  -2  10  252.07   19.30
  -2   2 -10  282.87   20.90
   2   2  10  265.47   23.80
   2   2  10  295.17   21.80
   3  -2  10  195.28   38.30
   3  -2  10  228.98   17.20
  -3  -2 -10  235.38   23.00
   3  -2  10  221.78   18.40
   3   2  10  273.57   24.90
   3   2  10  206.78   19.10
  -3   2 -10  247.98   19.20
   4  -2  10  257.37   18.60
  -4  -2 -10  229.98   24.00
   4  -2  10  216.58   18.40
  -4   2 -10  253.57   19.30
   4   2  10  216.08   20.60
   4   2  10  231.08   25.30
  -5  -2 -10  146.19   23.30
  -5  -2 -10  115.69   25.20
   5   2  10  131.69   19.90
  -5   2 -10  116.39   18.60
  -5   2 -10  101.49   15.30
   6  -2  10  138.79   18.60
  -6  -2 -10  181.08   27.10
  -6   2 -10  165.08   17.60
   7  -2  10   51.19   12.80
  -7  -2 -10   35.30   16.50
  -7   2 -10   48.00   13.10
   8  -2  10   53.69   15.40
  -9   3  10  173.48   17.20
   9   3 -10  298.37   71.99
  -8  -3  10  148.89   20.60
  -8  -3  10  222.78   54.49
   8  -3 -10  185.78   29.30
  -8  -3  10  161.98   49.20
   8   3 -10  245.68   40.80
  -8   3  10  181.98   26.60
  -8   3  10  223.98   18.50
  -7  -3  10  415.56   48.30
  -7  -3  10  420.26   37.90
   7  -3 -10  369.16   29.60
   7  -3 -10  390.66   36.60
  -7  -3  10  418.46   19.90
  -7   3  10  448.16   39.80
   7   3 -10  257.67   49.99
   7   3 -10  373.76   30.40
   7   3 -10  470.05   45.70
  -7   3  10  400.76   24.40
  -6  -3  10  429.56   47.90
  -6  -3  10  400.96   34.50
  -6  -3  10  408.46   28.20
  -6  -3  10  404.36   19.40
   6  -3 -10  388.56   33.30
   6  -3 -10  337.67   29.20
  -6   3  10  352.06   30.90
   6   3 -10  472.75   42.00
  -6   3  10  376.66   29.40
  -6   3  10  384.96   24.30
   6   3 -10  364.86   47.00
   6   3 -10  371.56   28.20
  -5  -3  10  542.55   32.40
  -5  -3  10  559.84   39.20
   5  -3 -10  585.74   33.90
  -5  -3  10  443.76   48.20
   5  -3 -10  529.85   37.70
   5   3 -10  602.34   33.80
   5   3 -10  524.65   42.20
  -5   3  10  577.74   38.00
   5   3 -10  652.73   56.39
  -4  -3  10  756.32   61.89
  -4  -3  10  743.43   43.30
  -4  -3  10  742.83   37.40
   4  -3 -10  735.63   37.80
   4  -3 -10  700.83   43.00
  -4   3  10  776.32   35.80
   4   3 -10  662.23   57.19
  -4   3  10  717.43   42.00
   4   3 -10  762.82   36.40
  -4   3  10  700.93   30.30
   4   3 -10  737.33   47.30
  -3  -3  10  917.21   46.90
  -3  -3  10  941.71   41.80
   3  -3 -10  927.31   55.19
  -3  -3  10 1078.89   73.89
   3  -3 -10  894.51   42.70
   3   3 -10  914.81   50.69
  -3   3  10  905.81   52.69
  -3   3  10  988.10   48.70
   3   3 -10 1004.40   68.59
  -3   3  10  916.21   41.10
  -2  -3  10 1069.79   74.09
  -2  -3  10  944.61   46.30
   2  -3 -10 1043.50   51.29
  -2  -3  10 1009.50   42.80
  -2   3  10 1008.90   50.69
  -2   3  10 1026.50   49.60
   2   3 -10 1015.80   50.89
   2   3 -10  946.31   38.10
  -2   3  10 1045.00   43.90
   1  -3 -10  313.37   26.00
  -1  -3  10  300.97   37.80
  -1  -3  10  263.67   19.10
  -1  -3  10  256.97   20.90
  -1   3  10  329.97   22.40
  -1   3  10  305.07   25.70
   1   3 -10  266.47   15.80
   1   3 -10  306.77   24.60
   0  -3  10  844.52   65.79
   0  -3  10  966.40   39.20
   0  -3 -10  956.00   49.00
   0  -3  10  990.10   42.50
   0   3  10  944.31   48.30
   0   3 -10 1045.40   31.70
   0   3  10  969.80   43.60
   0   3 -10  913.61   44.10
  -1  -3 -10  769.42   43.20
   1  -3  10  735.63   34.60
   1  -3  10  709.43   60.19
   1  -3  10  741.63   32.70
   1   3  10  788.72   43.70
  -1   3 -10  724.23   36.50
   1   3  10  747.73   37.40
   2  -3  10  433.06   45.00
   2  -3  10  393.96   23.20
  -2  -3 -10  378.56   29.70
   2  -3  10  414.96   22.50
  -2   3 -10  369.96   24.00
   2   3  10  376.56   30.50
   2   3  10  408.76   27.20
  -3  -3 -10  338.47   29.90
   3  -3  10  354.66   20.80
   3  -3  10  341.77   42.50
   3   3  10  379.26   26.80
  -3   3 -10  341.77   21.40
   3   3  10  346.77   30.20
   4  -3  10  191.48   38.00
  -4  -3 -10  295.77   28.70
   4  -3  10  234.48   18.40
   4  -3  10  236.28   17.60
   4   3  10  255.77   23.20
  -4   3 -10  250.27   17.80
   4   3  10  264.97   27.50
  -4   3 -10  269.17   20.50
   5  -3  10   82.49   17.50
   5  -3  10  123.69   15.70
   5  -3  10  166.98   40.00
  -5  -3 -10  157.28   33.00
  -5  -3 -10  127.19   24.10
   5   3  10   76.59   16.70
  -5   3 -10   93.59   15.00
   5   3  10  112.59   28.90
  -5   3 -10  103.19   12.10
  -6  -3 -10   66.09   19.30
   6  -3  10   39.60   25.60
   6  -3  10   52.29   11.50
   6   3  10   69.59   16.20
  -6   3 -10   51.39    9.80
  -6   3 -10   61.99   15.80
   7  -3  10   58.39   13.40
  -7  -3 -10   58.49   21.90
   8  -3  10   28.90   13.80
   9   4 -10  -20.20   28.70
   8   4 -10  -17.10   22.40
  -8   4  10    7.50    6.40
  -7  -4  10    5.30    6.90
  -7  -4  10   -1.80   17.40
  -7  -4  10   -4.30   12.60
   7  -4 -10    0.20   10.70
  -7   4  10   -4.90    7.90
  -7   4  10   -5.80    5.80
   6  -4 -10   26.20   12.10
  -6  -4  10   14.60    8.70
   6  -4 -10   17.90   10.70
  -6  -4  10   35.10   21.90
   6   4 -10   11.20   11.80
  -6   4  10   43.80   17.10
  -6   4  10   35.90   19.50
   6   4 -10   34.90   18.60
   6   4 -10   -3.70    8.40
  -6   4  10   15.30    6.70
  -5  -4  10   48.00   11.30
  -5  -4  10   35.50    4.30
  -5  -4  10   58.49   22.80
   5  -4 -10   30.90   12.30
  -5  -4  10   25.30   11.80
   5  -4 -10   47.80   11.00
   5   4 -10   46.50   15.40
  -5   4  10   40.70   15.20
   5   4 -10   47.30   11.10
  -5   4  10   28.70   10.50
  -5   4  10   38.00    8.60
   5   4 -10   46.80   17.60
   4  -4 -10   46.50   13.10
  -4  -4  10   69.29   15.70
   4  -4 -10   58.79   12.10
  -4  -4  10   57.09   12.50
  -4  -4  10   64.39   22.70
   4   4 -10  117.39   33.20
   4   4 -10   42.60   15.50
  -4   4  10   47.70   14.00
  -4   4  10   61.09   11.20
   4   4 -10   69.19   11.60
   3  -4 -10   22.20    8.60
  -3  -4  10   16.70    8.20
  -3  -4  10   38.40   19.40
   3  -4 -10   16.60    7.40
  -3  -4  10   26.70    8.70
  -3   4  10   12.20    8.40
  -3   4  10   16.40    7.50
   3   4 -10   30.50   11.10
  -3   4  10   25.60    6.40
   3   4 -10   14.70    5.40
   3   4 -10   49.30   22.20
  -3   4  10   29.50    7.50
   2  -4 -10   78.49   16.60
  -2  -4  10   30.80   17.60
  -2  -4  10   75.59   14.80
   2  -4 -10   69.69   14.10
  -2   4  10   91.19   16.40
   2   4 -10   54.39    8.50
  -2   4  10   48.20   12.50
  -2   4  10   83.89   15.60
  -2   4  10   60.99   12.90
  -1  -4  10  259.87   45.20
   1  -4 -10  211.48   22.60
  -1  -4  10  177.48   16.20
   1  -4 -10  167.68   18.60
  -1  -4  10  214.18   19.00
  -1   4  10  181.98   17.40
   1   4 -10  208.18   20.80
  -1   4  10  202.28   21.20
   1   4 -10  182.28   11.10
  -1   4  10  204.58   21.10
   0  -4 -10   45.00   13.90
   0  -4  10   25.50    7.50
   0  -4  10   52.59   20.40
   0  -4  10   38.90    9.40
   0   4 -10   47.00   11.00
   0   4  10   74.19   15.90
   0   4  10   49.50   15.30
   0   4  10   45.80   10.30
  -1  -4 -10  284.57   25.70
   1  -4  10  318.17   20.40
   1  -4  10  278.47   47.20
   1  -4  10  300.67   19.00
   1   4  10  307.57   28.70
   1   4  10  260.77   29.60
   1   4  10  297.37   22.70
  -1   4 -10  294.77   21.20
   2  -4  10  174.78   13.90
  -2  -4 -10  226.58   24.00
   2  -4  10  120.99   29.40
   2  -4  10  164.58   13.80
  -2  -4 -10  163.58   22.00
  -2   4 -10  145.29   14.20
   2   4  10  178.18   18.30
   2   4  10  149.59   25.20
  -3  -4 -10   79.29   17.30
   3  -4  10   49.00    8.40
   3  -4  10   73.49   10.90
   3  -4  10   75.19   15.30
   3  -4  10   26.70   15.10
   3   4  10   32.50   10.60
  -3   4 -10   49.00    8.10
   3   4  10   52.99   20.70
   3   4  10   60.79   16.20
   4  -4  10   74.19   11.30
   4  -4  10   97.59   19.90
   4  -4  10   77.69   25.60
  -4  -4 -10  104.69   26.80
  -4  -4 -10   88.49   20.80
   4   4  10  106.89   18.60
   4   4  10  121.69   33.20
   4   4  10   85.19   19.80
  -5  -4 -10   38.30   24.80
  -5  -4 -10   81.49   19.90
   5  -4  10   42.90   10.30
   5   4  10   52.79   13.60
   6  -4  10   68.69   28.70
  -6  -4 -10  117.09   25.60
   6  -4  10  147.69   19.10
  -7  -4 -10   15.20   21.30
   7  -4  10   24.10   11.90
   9   5 -10  -11.20   50.39
  -8  -5  10   92.89   35.40
   8   5 -10  144.29   38.80
  -7  -5  10  140.99   26.70
   7   5 -10   75.09   28.80
  -7   5  10  105.59   10.40
  -6  -5  10  176.18   30.10
   6  -5 -10  174.48   27.10
  -6  -5  10  181.68   24.10
  -6  -5  10  115.19   36.30
  -6   5  10  152.18   13.60
   6   5 -10  156.38   33.20
   6   5 -10  193.98   22.30
  -5  -5  10  228.38   31.60
   5  -5 -10  237.48   23.90
  -5  -5  10  207.38   22.00
   5   5 -10  254.67   22.10
  -5   5  10  251.27   26.10
   5   5 -10  223.28   35.30
  -5   5  10  218.98   16.80
   4  -5 -10  357.66   33.40
   4  -5 -10  315.47   29.20
  -4  -5  10  225.78   43.30
  -4  -5  10  347.67   30.60
  -4  -5  10  281.37   23.40
  -4   5  10  380.46   30.70
   4   5 -10  263.37   20.70
   4   5 -10  329.47   34.90
   4   5 -10  261.57   48.70
  -4   5  10  307.77   20.80
   3  -5 -10  408.26   30.70
  -3  -5  10  422.16   19.00
  -3  -5  10  440.26   28.30
  -3  -5  10  420.56   51.49
  -3  -5  10  406.86   32.10
   3  -5 -10  411.86   32.80
  -3   5  10  488.45   35.40
   3   5 -10  426.16   36.70
   3   5 -10  497.65   24.00
   3   5 -10  375.06   48.10
  -2  -5  10  234.58   19.40
   2  -5 -10  243.58   23.30
  -2  -5  10  204.58   21.70
   2  -5 -10  227.48   24.90
  -2   5  10  262.67   26.10
  -2   5  10  263.97   27.80
  -2   5  10  242.68   20.10
   2   5 -10  251.37   13.60
  -2   5  10  238.88   19.80
  -1  -5  10  244.48   49.60
   1  -5 -10  243.18   25.00
   1  -5 -10  212.08   22.10
  -1  -5  10  254.47   21.30
  -1  -5  10  216.58   17.80
  -1   5  10  265.37   25.30
  -1   5  10  254.97   26.70
   1   5 -10  227.28   22.90
  -1   5  10  251.17   20.60
   0  -5  10  322.57   22.70
   0  -5  10  276.77   51.19
   0  -5  10  375.56   22.20
   0  -5 -10  327.27   29.40
   0  -5  10  368.56   24.90
   0  -5 -10  382.96   42.10
   0   5 -10  357.36   25.70
   0   5  10  324.47   31.70
   0   5  10  360.46   31.20
   0   5  10  334.67   24.70
  -1  -5 -10  192.08   22.60
   1  -5  10  252.37   17.70
   1  -5  10  251.37   17.60
   1  -5  10  188.88   42.60
  -1  -5 -10  193.88   21.60
   1  -5  10  251.27   22.20
   1   5  10  209.18   25.00
  -1   5 -10  197.48   17.80
   1   5  10  241.28   29.30
   1   5  10  218.28   20.70
   2  -5  10  159.28   14.20
   2  -5  10  195.88   13.50
   2  -5  10  184.58   20.90
   2  -5  10  149.09   34.90
  -2  -5 -10  171.58   26.50
  -2  -5 -10  189.08   22.00
  -2   5 -10  178.88   11.30
   2   5  10  236.38   22.10
   2   5  10  221.38   32.30
   2   5  10  177.08   35.10
   3  -5  10  187.98   27.00
  -3  -5 -10  162.18   26.80
   3  -5  10  195.48   14.60
   3  -5  10  139.29   37.40
   3   5  10  138.49   34.80
   3   5  10  156.28   27.20
   3   5  10  173.98   22.70
   4  -5  10   66.99   10.00
   4  -5  10   68.69   16.30
  -4  -5 -10   76.79   27.10
   4  -5  10   46.10   28.00
  -4  -5 -10  100.09   21.40
   4   5  10   50.89   22.10
   4   5  10   71.99   16.40
  -5  -5 -10   31.60   45.50
   5  -5  10   34.80    8.70
   5  -5  10   25.10   23.10
  -5  -5 -10   20.40   16.00
   6  -5  10   29.00    9.50
  -6  -5 -10   23.40   19.60
  -7  -5 -10   24.30   49.60
   7   6 -10    1.60   32.70
  -6  -6  10   -5.90   17.00
   6   6 -10   -7.70   12.80
   6   6 -10  -19.50   22.00
  -5  -6  10   11.70    9.70
  -5  -6  10    4.00   13.00
   5   6 -10   31.70   21.90
  -5   6  10   27.30    6.70
   5   6 -10   25.60   11.00
  -4  -6  10   61.69   26.80
  -4  -6  10   19.70   11.50
   4  -6 -10    1.30   11.00
  -4  -6  10   27.80   13.80
  -4   6  10   27.40    8.30
   4   6 -10   26.10    8.80
  -4   6  10   47.60   15.10
   4   6 -10   39.20   10.00
   4   6 -10   29.10   17.10
   3  -6 -10   -3.20    9.10
  -3  -6  10    7.50    6.60
   3  -6 -10    3.60    9.30
  -3  -6  10   -4.90    8.60
  -3  -6  10   -3.20   15.70
   3   6 -10   -2.20    4.70
   3   6 -10    1.80    4.30
  -2  -6  10   20.30    8.60
  -2  -6  10   62.09   26.30
  -2  -6  10   34.70    6.60
   2  -6 -10   36.60   12.50
  -2  -6  10   47.20   14.10
   2  -6 -10   27.50   11.60
   2   6 -10   55.89   16.80
  -2   6  10   23.60    7.70
   1  -6 -10   28.50   11.70
   1  -6 -10   11.70   10.40
  -1  -6  10   33.30    9.60
  -1  -6  10   24.30    8.10
  -1  -6  10   35.90   11.00
  -1  -6  10   34.40   24.70
   1   6 -10   39.70   12.30
  -1   6  10   28.40    9.30
  -1   6  10   18.70   11.70
  -1   6  10   20.60   12.40
   0  -6  10   65.29   12.80
   0  -6  10   70.99   12.60
   0  -6 -10   53.79   16.70
   0  -6  10   79.09   13.40
   0  -6  10   56.59   31.20
   0   6  10   50.29   12.70
   0   6  10   38.00   14.90
   0   6  10  150.88   33.00
   0   6 -10   58.19   12.70
   1  -6  10    8.50    6.90
   1  -6  10   35.90   10.50
  -1  -6 -10    7.40   10.60
   1  -6  10   14.70    6.10
   1  -6  10   48.20   25.00
   1   6  10   14.20    8.30
   1   6  10   24.20   14.20
   1   6  10   19.60   10.20
  -2  -6 -10   28.60   14.90
   2  -6  10   39.10   12.00
   2  -6  10   39.00    9.10
   2   6  10   26.70   10.70
   2   6  10   63.29   25.40
   2   6  10   31.80   14.30
  -3  -6 -10   72.39   24.90
   3  -6  10   70.69   30.70
  -3  -6 -10   68.99   20.20
   3  -6  10   67.39   10.90
   3  -6  10   46.70   15.20
   3   6  10   70.49   15.60
   3   6  10   62.49   23.70
   4  -6  10   26.20   26.80
   4  -6  10   26.50    7.60
  -4  -6 -10    3.30   26.40
  -5  -6 -10   13.10   18.30
   6   7 -10   54.79   16.90
   5   7 -10   47.70   12.90
  -4  -7  10   76.99   20.40
   4   7 -10   95.79   11.90
   4   7 -10   78.99   11.40
  -4   7  10   79.69    9.40
   4   7 -10   87.99   29.10
  -3  -7  10   13.20    9.70
  -3  -7  10    6.10   13.10
  -3   7  10   40.50   10.20
  -3   7  10   45.50   10.00
   3   7 -10   47.00   22.20
  -2  -7  10   91.29   16.10
  -2  -7  10   88.49   18.20
  -2   7  10   99.79   15.10
  -2   7  10   44.60   17.10
   2   7 -10   65.79   22.90
  -1  -7  10  117.49   16.20
  -1  -7  10  126.09   18.50
  -1  -7  10  103.59   36.00
  -1  -7  10  114.59   14.20
   1   7 -10  115.69   21.30
  -1   7  10  116.19   16.70
  -1   7  10  139.69   25.00
  -1   7  10  114.39   16.80
   0  -7  10   86.09   13.80
   0  -7  10   64.89   29.50
   0  -7  10   71.69   11.90
   0  -7  10   83.79   13.40
   0  -7 -10   64.09   18.40
   0   7  10   70.09   21.90
   0   7  10   86.59   15.80
   0   7  10   76.39   14.90
   1  -7  10   25.90    6.20
  -1  -7 -10   -3.90   13.00
   1  -7  10   34.50   10.40
   1  -7  10   73.89   33.10
   1  -7  10   19.20   10.10
   1  -7  10   25.70    7.00
   1   7  10    2.90   19.60
   1   7  10    3.90   11.40
   2  -7  10   19.30   11.90
  -2  -7 -10   37.20   28.10
   2  -7  10   29.90    9.50
   2   7  10   58.89   14.40
   2   7  10   44.00   25.30
  -3  -7 -10   58.49   36.50
   3  -7  10   84.09   12.40
  -2  -8  10    4.10   10.60
  -1  -8  10   17.50   15.60
  -1   8  10   18.80   19.40
  -1   8  10   -9.40   10.70
   0  -8  10   15.40    9.00
   0   8  10    8.60   12.10
   0   8  10   19.70   15.00
   1  -8  10   29.80   10.40
   1   8  10    6.40   14.10
 -10   0  11    2.20   13.80
   9   0 -11  -21.40   16.10
  -9   0  11   -6.80    8.30
  -9   0  11    3.90    9.50
   9   0 -11   25.90   18.40
   8   0 -11    1.30   12.30
  -8   0  11    2.80    7.70
  -8   0  11    7.20    6.60
   8   0 -11   11.50   12.40
  -8   0  11  -20.40   11.80
  -8   0  11   -1.20   15.60
  -7   0  11   -8.00    9.90
  -7   0  11   12.40   11.20
   7   0 -11    2.90    9.20
  -7   0  11   -0.30    5.40
   7   0 -11    1.00    6.60
   7   0 -11   14.40    9.60
  -7   0  11    5.30    5.70
  -6   0  11    0.90    4.40
  -6   0  11   -3.10    4.50
   6   0 -11    1.90    5.90
  -6   0  11    1.50    9.60
   6   0 -11    6.20    7.20
  -6   0  11   15.30    9.20
   5   0 -11    9.20    8.40
  -5   0  11   -1.20    3.60
  -5   0  11   -5.40    5.70
   5   0 -11   -5.90    4.60
  -5   0  11    8.90    8.60
   4   0 -11  -14.00    5.60
  -4   0  11   -8.00    6.70
  -4   0  11    1.60    4.00
  -4   0  11   -3.60    5.10
  -3   0  11    2.10    5.90
   3   0 -11   -3.40    3.80
   3   0 -11    5.10    5.50
  -3   0  11    0.20    3.60
  -3   0  11   -0.20    6.80
  -2   0  11    0.30    3.70
  -2   0  11    4.40    5.00
  -2   0  11    2.20    7.50
   2   0 -11    0.00    4.00
   2   0 -11    6.70    5.50
  -1   0  11    5.80    6.40
   1   0 -11    1.80    3.40
   1   0 -11   -3.70    4.70
  -1   0  11   -8.90    4.00
  -1   0  11   -4.40    2.60
   0   0 -11   -4.00    4.90
   0   0  11    6.80    4.70
   0   0  11    1.60    3.10
   0   0  11   -4.80    5.00
   0   0 -11    5.00    3.80
   1   0  11   -4.50    3.40
  -1   0 -11   -0.40    4.80
   1   0  11    0.70    3.80
  -1   0 -11   -0.90    3.60
  -2   0 -11    8.70    4.10
   2   0  11   -1.10    4.10
  -2   0 -11    8.00    5.10
   3   0  11   12.20    6.50
  -3   0 -11   -2.50    5.30
   3   0  11    5.80    4.80
   4   0  11   10.60    5.70
   4   0  11    5.30    6.30
  -4   0 -11    7.10    7.40
  -5   0 -11   -6.90    7.20
   5   0  11   -0.80    7.80
  -5   0 -11    0.30   11.50
   5   0  11   -0.10    5.90
   6   0  11   -9.10    7.20
  -7   0 -11   14.40   14.00
   7   0  11   -1.90    9.40
 -10   1  11   23.70   12.50
  -9  -1  11  -10.90   14.60
  -9  -1  11    4.70   10.40
   9   1 -11  -35.40   17.80
   9   1 -11  -39.10   17.40
  -9   1  11   -0.80    9.40
  -8  -1  11   22.90    7.30
  -8  -1  11   15.20   16.20
  -8  -1  11    2.60   13.70
  -8   1  11   26.80    9.20
   8   1 -11   23.50   17.00
  -8   1  11    8.90    8.60
   8   1 -11   28.60   20.90
  -7  -1  11   12.40    6.70
   7  -1 -11   24.00   12.10
  -7  -1  11   12.20   10.30
  -7  -1  11    9.90    8.70
   7  -1 -11    4.70    8.70
  -7  -1  11   16.40   13.80
   7   1 -11   43.80   12.80
   7   1 -11    2.60   14.90
  -7   1  11   16.60   11.60
   7   1 -11   -4.90   13.20
  -7   1  11   19.50    8.00
  -7   1  11   14.10   11.70
  -7   1  11    6.90    7.20
   6  -1 -11   -4.40   11.60
   6  -1 -11    5.50   10.10
  -6  -1  11   14.80    9.50
  -6  -1  11   11.40   12.20
  -6  -1  11    0.00    4.40
  -6  -1  11   -0.50    5.20
  -6   1  11    8.10    8.30
  -6   1  11    8.90   10.30
   6   1 -11    8.50    9.30
   6   1 -11    8.00    6.70
  -6   1  11   10.80    5.70
  -6   1  11    7.20    6.70
   5  -1 -11   72.79   19.60
  -5  -1  11   65.69   19.50
  -5  -1  11   77.29   18.10
  -5  -1  11   48.70   11.10
   5   1 -11   32.40   13.10
  -5   1  11   45.70   14.80
   5   1 -11   64.89   13.70
  -5   1  11   41.00    9.80
   5   1 -11   53.59   14.60
  -5   1  11   55.99   14.50
  -4  -1  11    6.20    6.60
  -4  -1  11   32.00   17.30
  -4  -1  11    9.00    6.50
   4  -1 -11   23.90    9.50
  -4   1  11   12.50    5.80
   4   1 -11   32.90   12.60
  -4   1  11   17.80    9.90
  -4   1  11   35.40   10.30
  -3  -1  11    3.10    4.40
  -3  -1  11    3.30    8.50
   3  -1 -11   -3.80    5.10
  -3  -1  11    4.20    6.20
   3   1 -11    9.60    7.20
  -3   1  11   -1.40    3.10
   3   1 -11   -1.60    3.80
  -3   1  11    0.40    6.60
  -3   1  11   -4.20    4.80
  -2  -1  11    2.30    3.50
   2  -1 -11    7.00    6.20
  -2  -1  11   -0.50    7.20
  -2  -1  11   11.30    6.10
   2  -1 -11    9.90    4.80
   2   1 -11   13.80    7.90
  -2   1  11    1.80    8.10
  -2   1  11   10.20    6.50
   2   1 -11    9.90    4.60
   1  -1 -11   84.79   14.00
  -1  -1  11   89.79   13.80
   1  -1 -11   66.59   14.20
  -1  -1  11   68.99   19.70
  -1  -1  11   96.69   15.50
  -1   1  11   52.09   15.10
  -1   1  11   99.19   16.90
   1   1 -11  132.99   20.00
   1   1 -11   95.49   13.30
  -1   1  11  112.19   15.30
   0  -1  11   29.30    7.90
   0  -1 -11    9.80    8.20
   0  -1  11   42.80   16.50
   0  -1 -11   25.60    7.50
   0  -1  11   18.30    7.30
   0   1 -11   14.40    7.70
   0   1  11   30.20    9.20
   0   1  11   51.19   11.70
   0   1 -11   39.90    8.30
   1  -1  11   16.90    6.40
   1  -1  11    4.10    7.50
  -1  -1 -11   16.10    8.30
  -1  -1 -11    0.40    5.00
   1  -1  11    2.70    5.20
   1   1  11    7.70    6.10
   1   1  11   19.30    6.60
  -1   1 -11   13.10    6.00
  -1   1 -11   13.00    4.80
   2  -1  11    4.40    3.80
  -2  -1 -11    7.30    5.40
   2  -1  11    6.60    4.60
  -2  -1 -11    5.70    5.50
   2   1  11    5.10    5.70
  -2   1 -11   -0.30    4.60
   2   1  11    3.60    4.80
   3  -1  11   10.90    9.20
   3  -1  11    9.50    6.80
  -3  -1 -11    4.80    7.10
   3   1  11   11.40    6.70
   3   1  11   -2.50    5.60
  -4  -1 -11   13.50    9.20
   4  -1  11   17.00    7.70
   4  -1  11   23.40    9.20
   4   1  11   12.10    6.40
   4   1  11    2.90    8.10
  -4   1 -11    9.50    6.70
   5  -1  11   -3.70    6.90
   5  -1  11    2.10    5.80
  -5  -1 -11    6.80   13.10
  -5  -1 -11   20.20    9.80
  -5   1 -11  -18.30   10.00
   5   1  11    5.50   10.90
   5   1  11   19.10    8.20
  -5   1 -11    1.10    7.20
   6  -1  11   16.20    9.30
  -6  -1 -11   42.20   15.60
  -7  -1 -11    8.80   14.60
  -7   1 -11  -10.70   12.50
 -10   2  11   22.00   14.50
  -9  -2  11   44.80   23.80
  -9   2  11   32.70   10.70
   9   2 -11  -15.70   21.60
   8  -2 -11   18.90   15.40
  -8  -2  11   11.80    8.50
  -8  -2  11   -0.50   16.60
  -8  -2  11   10.90   15.50
  -8  -2  11   10.60    6.90
   8   2 -11   43.90   26.50
  -8   2  11    4.50    7.80
  -8   2  11    8.50    9.30
   8   2 -11  -18.00   16.10
  -7  -2  11  -16.90    9.20
   7  -2 -11   -0.10   10.70
   7  -2 -11    0.30   10.00
  -7  -2  11    3.90    4.70
  -7  -2  11    1.40    8.20
  -7  -2  11   -8.20   11.90
  -7   2  11    4.90    5.70
  -7   2  11   -6.70   11.50
   7   2 -11   -8.90   11.90
   7   2 -11    2.40   13.50
  -7   2  11    1.80    6.90
   7   2 -11  -11.80   13.60
  -6  -2  11   29.00   17.00
   6  -2 -11   16.40    7.70
  -6  -2  11   15.00    7.50
  -6  -2  11    4.60    4.20
   6  -2 -11   23.60   11.70
  -6  -2  11   29.60   13.80
  -6   2  11   -0.50    8.80
   6   2 -11   16.40   13.50
  -6   2  11    9.40    6.40
  -6   2  11   11.80    7.40
   6   2 -11   21.50   12.10
  -6   2  11    6.40    6.60
  -5  -2  11   43.40   12.50
  -5  -2  11   64.69   20.50
  -5  -2  11   56.29   11.90
   5  -2 -11   38.90   12.50
   5  -2 -11   48.00   12.00
   5   2 -11   49.40   14.10
  -5   2  11   54.39   11.00
  -5   2  11   60.79   13.90
   5   2 -11   32.70   13.50
   5   2 -11   47.90   11.30
  -5   2  11   42.50   13.20
  -4  -2  11    4.20    6.90
  -4  -2  11    7.30    4.50
  -4  -2  11   14.70   10.90
  -4   2  11    4.40    6.70
   4   2 -11   12.70    8.30
  -4   2  11    0.20    4.20
  -4   2  11   12.30    6.90
   4   2 -11    1.80    7.80
   4   2 -11   -8.00    4.40
  -3  -2  11    6.70    8.90
   3  -2 -11   -3.10    5.00
  -3  -2  11    7.90    6.40
  -3  -2  11    8.60    5.40
  -3   2  11    5.20    6.00
   3   2 -11   12.40    7.50
   3   2 -11    6.90    5.50
  -3   2  11    3.50    7.60
  -3   2  11    8.00    4.80
   2  -2 -11   33.50   11.50
  -2  -2  11   45.50   11.00
  -2  -2  11   23.30    8.40
  -2   2  11   32.60   11.00
   2   2 -11   34.20   10.30
  -2   2  11   24.70    7.40
  -2   2  11   74.09   19.50
   1  -2 -11    7.60    5.00
   1  -2 -11   11.40    6.90
  -1  -2  11    7.80    8.70
  -1  -2  11    9.50    4.80
  -1  -2  11    9.10    5.10
  -1   2  11    8.40    6.50
   1   2 -11   13.50    5.20
   1   2 -11   -2.60    4.80
  -1   2  11   15.40    8.30
   0  -2  11    1.30    3.90
   0  -2 -11   -1.60    3.70
   0  -2  11    9.50    8.50
   0  -2  11    7.40    4.90
   0  -2 -11   -0.80    6.30
   0   2  11   13.70    5.50
   0   2  11   16.80    7.90
   0   2 -11   16.60    6.80
   0   2 -11    8.40    3.50
   1  -2  11   48.80   10.40
   1  -2  11   39.50   15.20
  -1  -2 -11   25.60    9.80
   1  -2  11   28.10    8.20
  -1  -2 -11   30.10    8.50
  -1   2 -11   26.30    5.50
   1   2  11   43.60    9.90
   1   2  11   27.70    9.80
   2  -2  11   51.49   10.30
  -2  -2 -11   51.29   13.20
   2  -2  11   44.50   10.00
   2  -2  11   26.20   13.00
  -2   2 -11   48.00   10.70
   2   2  11   87.39   17.10
   2   2  11   58.09   12.50
   3  -2  11   46.20   18.60
   3  -2  11   32.20    8.10
  -3   2 -11   28.60    8.70
   3   2  11   18.80    7.80
   3   2  11   28.10   10.90
   4  -2  11   -1.50    6.20
  -4  -2 -11    0.90    7.40
   4  -2  11    4.00    7.80
   4   2  11    4.60    6.00
   4   2  11    5.70    7.70
  -4   2 -11    1.70    6.30
  -5  -2 -11  -10.10    9.40
  -5  -2 -11    0.80   14.20
   5  -2  11   -1.70    5.00
  -5   2 -11   -1.90    7.00
   5   2  11    7.20    6.30
  -5   2 -11   -6.50    9.80
  -6  -2 -11   -6.50   11.50
   6  -2  11  -19.00    7.10
  -6   2 -11    1.30    9.60
   6   2  11   -5.70    8.20
  -7  -2 -11   33.60   18.60
   7  -2  11    6.30    9.60
   9   3 -11    9.80   26.00
  -9   3  11    1.70    9.20
  -8  -3  11   43.50   24.60
  -8  -3  11   55.59   22.20
   8   3 -11   62.49   25.30
  -7  -3  11   50.39   16.50
   7  -3 -11    4.30   12.50
  -7  -3  11   19.70   17.40
  -7  -3  11   32.70    7.10
  -7  -3  11   20.90   11.00
  -7   3  11    3.40    7.20
  -7   3  11   12.50    7.30
   7   3 -11   40.70   17.00
   7   3 -11   -5.70   14.60
   6  -3 -11   27.70   11.10
  -6  -3  11   25.10    6.10
   6  -3 -11   18.80   13.40
  -6  -3  11   17.90   12.50
  -6  -3  11   35.90   10.40
  -6  -3  11   25.50   18.20
   6   3 -11   20.40    9.10
  -6   3  11   24.30    8.40
  -6   3  11   27.20   10.20
   6   3 -11   12.40   17.00
  -6   3  11    6.10   10.80
   6   3 -11   31.30   19.10
  -5  -3  11   72.29   24.80
  -5  -3  11   79.49   14.20
   5  -3 -11   80.69   17.80
  -5  -3  11  101.19   19.70
   5  -3 -11   81.19   18.20
   5   3 -11   50.39   21.10
   5   3 -11   88.79   22.00
  -5   3  11   90.99   18.10
  -5   3  11   51.79   11.00
   5   3 -11   51.89   13.30
   4  -3 -11   77.79   17.20
   4  -3 -11   87.39   15.20
  -4  -3  11   81.69   15.00
  -4  -3  11   54.39   18.60
  -4  -3  11   65.29   16.00
   4   3 -11   92.89   20.10
  -4   3  11   79.79   13.90
   4   3 -11   74.19   15.80
   4   3 -11  107.39   30.30
  -4   3  11  102.79   19.50
  -4   3  11  107.79   16.00
  -3  -3  11   37.30   17.30
   3  -3 -11   46.20   11.50
  -3  -3  11   48.20   13.40
  -3  -3  11   39.50    9.50
   3  -3 -11   40.60   12.40
   3   3 -11   37.70    9.10
  -3   3  11   21.90   10.20
  -3   3  11   29.70    8.00
   3   3 -11   28.90   12.00
  -3   3  11   21.10    9.00
  -2  -3  11   26.10   16.10
   2  -3 -11   31.80   10.50
  -2  -3  11   25.60    8.30
   2   3 -11   22.00    9.90
  -2   3  11   14.30    6.30
  -2   3  11   24.50   11.20
  -2   3  11   42.60   11.90
   2   3 -11   34.50    8.00
  -1  -3  11  181.18   16.20
   1  -3 -11  183.38   21.20
  -1  -3  11  146.59   30.90
  -1  -3  11  190.58   18.60
  -1   3  11  171.88   16.80
   1   3 -11  181.48   13.30
   1   3 -11  181.78   19.90
  -1   3  11  153.58   22.80
   0  -3  11  120.19   12.70
   0  -3  11   96.29   15.10
   0  -3 -11  116.39   20.40
   0  -3 -11  123.29   17.90
   0  -3  11  126.69   29.60
   0   3 -11   80.79   15.50
   0   3 -11  118.49    8.90
   0   3  11  104.09   18.20
   0   3  11  109.59   15.90
   1  -3  11   58.89   10.30
   1  -3  11   97.79   14.80
  -1  -3 -11   84.59   15.10
  -1  -3 -11   87.59   17.20
   1  -3  11   89.69   29.10
   1   3  11   90.99   15.20
   1   3  11   46.70   14.40
  -1   3 -11   66.09   12.80
   2  -3  11   20.20    6.90
   2  -3  11   49.30    9.70
  -2  -3 -11   30.60   10.20
   2  -3  11   30.70   13.90
  -2  -3 -11   51.29   12.30
   2   3  11   23.90    8.20
  -2   3 -11   24.80    7.90
  -3  -3 -11   56.79   15.40
   3  -3  11   46.10   19.60
   3  -3  11   70.59   17.70
   3  -3  11   55.59   10.80
   3   3  11   42.30   10.60
  -3   3 -11   60.69   11.20
   4  -3  11   66.99   24.70
  -4  -3 -11   27.30   12.70
   4  -3  11   27.30    7.80
   4  -3  11   20.20    8.20
   4   3  11   27.70   10.50
  -4   3 -11   41.90   11.80
  -4   3 -11   37.00    9.30
   4   3  11   50.59   26.40
  -5  -3 -11   -1.80   12.70
   5  -3  11   13.60    7.40
   5  -3  11    9.40   17.70
   5   3  11    2.20    8.10
  -5   3 -11    6.70    9.50
  -6  -3 -11   15.50   16.80
   6  -3  11   31.90   11.10
   7  -3  11   27.60   10.80
  -7  -3 -11   38.40   25.10
   9   4 -11  -27.40   33.20
  -8  -4  11    6.60   20.40
   8   4 -11  -15.80   24.40
  -7  -4  11   36.30   19.60
  -7  -4  11    6.30   20.00
   7   4 -11    6.10   19.40
  -7   4  11   21.20    8.50
   6  -4 -11    5.40   10.40
  -6  -4  11    7.80   12.60
  -6  -4  11   -3.50    7.40
   6   4 -11  -10.10    8.00
  -6   4  11    2.10    7.60
   6   4 -11  -13.80   13.50
  -6   4  11   -5.90    5.70
  -5  -4  11   13.00    7.70
   5  -4 -11   11.40    8.90
  -5  -4  11   11.90   19.30
   5  -4 -11   -2.30    9.80
  -5  -4  11   -6.60    9.50
   5   4 -11   31.30   10.00
  -5   4  11   14.70    7.80
   5   4 -11    0.90   13.70
   5   4 -11   19.90   20.90
  -5   4  11   10.40    8.60
  -4  -4  11   13.60    9.00
  -4  -4  11   32.70   17.20
  -4  -4  11    9.90    6.60
   4  -4 -11   16.20    8.80
   4   4 -11    7.40    7.90
   4   4 -11   10.30   10.20
  -4   4  11   11.50    6.40
   4   4 -11   23.80   11.00
   3  -4 -11    4.80    8.90
  -3  -4  11    7.50    7.90
  -3  -4  11    6.50    5.90
   3  -4 -11   13.90    8.00
  -3  -4  11   13.20   14.10
  -3   4  11   13.10    7.40
   3   4 -11   13.60   15.20
   3   4 -11    3.10    8.50
   3   4 -11   10.00    5.90
  -3   4  11    6.10    8.20
  -3   4  11    8.30    6.20
  -3   4  11   25.00    6.70
  -2  -4  11   18.70   13.80
   2  -4 -11   10.10    8.20
   2  -4 -11   16.60    8.20
  -2  -4  11   19.80    7.80
  -2  -4  11   13.80    6.70
  -2   4  11   15.30    8.00
   2   4 -11   16.60   10.50
  -2   4  11   29.80   11.40
  -2   4  11   11.20    6.20
  -2   4  11   15.30    8.10
   2   4 -11   23.10    6.30
   1  -4 -11   -0.90    6.00
   1  -4 -11   -3.90    5.50
  -1  -4  11   -2.70   11.10
  -1  -4  11    8.10    6.50
  -1  -4  11   -1.80    4.50
  -1   4  11    1.50    4.70
  -1   4  11   -5.50    6.40
   1   4 -11    4.80    2.80
   1   4 -11   14.30    7.00
   0  -4  11   19.00   15.60
   0  -4  11   12.40    5.90
   0  -4 -11   23.90    9.10
   0  -4 -11    5.70    7.70
   0  -4  11    4.80    5.40
   0   4  11   13.90    5.50
   0   4  11   13.00    9.50
   0   4 -11   20.50    9.10
   1  -4  11   10.80    5.60
   1  -4  11   -6.10   13.70
  -1  -4 -11   -7.30    6.40
  -1  -4 -11   10.00    7.70
   1  -4  11    4.00    5.80
   1   4  11    2.10    8.00
   1   4  11   16.10    6.40
   1   4  11    3.20    9.30
  -1   4 -11   11.40    6.50
   2  -4  11   -3.80    4.50
   2  -4  11    2.00   11.20
  -2  -4 -11    1.30    7.10
   2  -4  11   16.70    6.00
  -2  -4 -11    0.60    7.90
   2   4  11   11.90   12.80
   2   4  11   -2.00    5.80
  -2   4 -11   11.30    6.20
   2   4  11  -17.00    8.20
  -3  -4 -11   11.00   11.20
   3  -4  11    6.80    5.10
   3  -4  11   -4.10    5.00
   3  -4  11    2.00   12.30
   3   4  11   21.20   14.50
   3   4  11   17.00   11.00
   3   4  11   14.10    7.00
  -3   4 -11    7.70    5.60
   4  -4  11   18.50    6.00
   4  -4  11  -12.80    8.50
  -4  -4 -11   26.70   12.90
  -4  -4 -11    9.40   17.50
  -4   4 -11    5.60    3.60
   4   4  11   14.50    8.00
   4   4  11    5.30   12.70
   4   4  11   -4.80   15.30
   5  -4  11  -13.90   17.70
  -5  -4 -11   11.90   14.10
   6  -4  11   -7.50    8.40
  -6  -4 -11   -1.30   18.20
   8   5 -11  118.39   40.50
  -7  -5  11   77.89   24.70
   7   5 -11   88.79   35.80
  -7   5  11   50.19    9.90
  -6   5  11   28.40    8.50
   6   5 -11   24.20   13.50
   6   5 -11   17.90   21.00
  -5  -5  11   82.09   20.60
  -5  -5  11   54.99   14.00
   5  -5 -11   39.90   16.10
  -5   5  11   57.39   11.70
   5   5 -11  104.79   26.90
   5   5 -11   76.19   15.00
  -5   5  11   58.09   15.10
   4  -5 -11   15.40   11.40
  -4  -5  11   31.40   10.30
  -4  -5  11   47.90   15.30
   4  -5 -11   31.70   11.80
   4   5 -11   37.00   16.20
  -4   5  11   36.90    9.50
   4   5 -11   37.70    9.70
   3  -5 -11  192.28   21.40
  -3  -5  11  152.58   39.60
  -3  -5  11  158.48   13.20
   3  -5 -11  134.59   22.80
  -3  -5  11  206.88   23.50
  -3  -5  11  186.58   19.80
  -3   5  11  150.38   16.60
   3   5 -11  185.08   15.00
   3   5 -11  134.99   33.60
   3   5 -11  167.88   28.00
  -3   5  11  192.58   28.10
   2  -5 -11   82.89   17.20
  -2  -5  11  104.19   30.80
  -2  -5  11  133.39   13.50
  -2  -5  11  139.79   16.00
   2  -5 -11  107.49   20.10
  -2  -5  11  146.59   21.40
  -2   5  11   83.39   18.70
  -2   5  11  127.99   16.60
  -2   5  11  120.59   16.70
   2   5 -11  111.59    9.40
  -2   5  11  162.38   23.40
  -1  -5  11   90.49   14.10
   1  -5 -11  112.89   19.20
  -1  -5  11   55.09   23.50
  -1  -5  11   73.89   14.20
   1  -5 -11   64.89   17.60
  -1  -5  11   74.99   12.70
  -1   5  11   72.49   14.10
  -1   5  11   92.49   19.40
   1   5 -11   83.29   17.10
   0  -5  11   42.80   12.10
   0  -5 -11   50.79   14.30
   0  -5  11   44.90   23.00
   0  -5 -11   20.70   13.20
   0  -5  11   39.70   10.90
   0  -5  11   39.10   10.40
   0   5  11   44.50   15.70
   0   5  11   50.99   11.80
   0   5  11   42.40   14.40
   0   5 -11   59.59   13.60
  -1  -5 -11  137.09   21.00
   1  -5  11  201.68   16.70
  -1  -5 -11  147.99   24.50
   1  -5  11  164.38   22.30
   1  -5  11  149.29   38.20
   1  -5  11  173.28   16.10
  -1   5 -11  141.79   17.30
   1   5  11  234.38   28.60
   1   5  11  144.19   19.80
   2  -5  11   70.29   15.10
   2  -5  11   59.99    9.70
   2  -5  11   57.19   10.20
   2  -5  11   66.89   28.30
  -2  -5 -11   48.20   14.90
   2   5  11   99.69   20.80
   2   5  11   64.79   23.40
  -2   5 -11   61.59    9.30
   2   5  11   55.79   12.90
  -3  -5 -11   23.80   13.50
   3  -5  11  100.49   30.60
   3  -5  11   30.70   11.70
   3  -5  11   42.10    8.80
   3   5  11   10.50   15.20
   3   5  11   28.50   11.70
  -4  -5 -11  101.39   24.10
  -4  -5 -11   86.89   31.50
   4  -5  11  105.89   14.00
   4  -5  11   90.69   35.20
  -5  -5 -11    2.00   17.20
   5  -5  11    6.80    7.50
  -6  -5 -11  -23.70   25.10
  -6   6  11   11.30    7.30
   6   6 -11   10.40   15.40
   6   6 -11   23.40   29.50
  -5  -6  11    5.50   14.70
   5   6 -11   -0.50    9.90
   5   6 -11   41.60   22.80
  -5   6  11    2.70    7.30
  -4  -6  11   49.50   15.60
  -4  -6  11   22.30   11.20
   4   6 -11   22.80    9.10
   4   6 -11   36.60   19.70
   4   6 -11   26.90    9.30
  -4   6  11   13.40    7.50
   3  -6 -11    8.70   11.40
  -3  -6  11  -10.00   18.80
  -3  -6  11   12.30   10.50
  -3  -6  11   -6.00    7.10
   3   6 -11   10.40    5.20
   3   6 -11   13.90    5.40
  -3   6  11   15.50    7.90
  -2  -6  11    5.90    7.40
  -2  -6  11    8.90    5.40
  -2  -6  11    8.60   18.10
   2  -6 -11   31.40   12.40
  -2  -6  11   29.50   11.50
   2   6 -11   14.50   14.40
  -2   6  11    1.30    7.40
  -2   6  11   -0.80    6.30
  -1  -6  11   14.40   20.80
  -1  -6  11   15.50    7.30
  -1  -6  11   -4.00    6.90
  -1  -6  11    8.70    8.20
  -1   6  11    6.40   11.10
   1   6 -11   18.40   12.30
  -1   6  11   24.40    9.80
   0  -6  11   30.10    9.70
   0  -6  11   42.60   10.30
   0  -6  11   -1.00   15.90
   0  -6 -11   13.30   13.30
   0  -6  11    8.80    8.70
   0   6  11   31.50   11.20
   0   6  11   -0.20   12.80
   0   6 -11   31.30   13.40
   1  -6  11    6.30    6.10
   1  -6  11    0.30   20.40
  -1  -6 -11   -4.60   10.80
   1  -6  11    4.20    8.10
   1  -6  11    0.40    6.00
   1   6  11   -9.90   14.10
   1   6  11    4.80    8.30
   2  -6  11  -10.00    5.90
   2  -6  11    2.80   22.70
   2  -6  11   -6.70    3.90
   2  -6  11   10.70    8.90
   2   6  11   -1.80   18.10
   2   6  11    3.80    8.80
  -3  -6 -11   13.90   15.40
   3  -6  11   -2.00    6.70
  -3  -6 -11   -8.70   42.40
   4  -6  11   22.50    8.70
  -4  -6 -11  -17.50   16.50
  -4   7  11   50.09   11.00
  -3  -7  11   57.29   19.70
  -3  -7  11   91.29   16.80
   3   7 -11   46.50   26.70
  -3   7  11   73.09   13.80
  -2  -7  11   94.29   17.50
   2   7 -11   73.89   22.40
  -2   7  11   63.99   13.30
  -2   7  11   84.99   15.20
  -1  -7  11   39.40   12.90
  -1  -7  11   65.19   11.80
  -1  -7  11   68.49   15.60
  -1   7  11   71.99   19.80
  -1   7  11   53.89   14.00
  -1   7  11   49.50   14.40
   1   7 -11   30.60   19.20
   0  -7  11   -0.10    8.10
   0  -7  11   18.00   10.70
   0  -7  11   27.10    9.90
   0   7  11   28.70   15.30
   0   7  11   -8.10   17.90
   1  -7  11   83.39   15.00
   1  -7  11  102.99   10.70
   1  -7  11   78.79   17.30
   1  -7  11   72.89    9.90
   1   7  11   67.29   29.20
   1   7  11   85.59   17.60
  -2  -7 -11   60.79   38.10
   2  -7  11   72.79   12.70
   2   7  11   80.29   40.70
  -1  -8  11    1.10   10.90
  -1   8  11   23.00   15.20
   0  -8  11   22.60   11.20
   0   8  11   -2.90   14.70
  -9   0  12  166.38   31.40
   9   0 -12  206.78   39.70
  -8   0  12  295.97   36.90
  -8   0  12  249.88   24.70
  -8   0  12  322.57   27.60
  -7   0  12  413.46   29.50
  -7   0  12  420.56   48.80
   7   0 -12  394.46   40.00
  -7   0  12  466.55   31.60
  -7   0  12  433.26   43.60
   6   0 -12  276.97   31.20
  -6   0  12  282.87   33.50
  -6   0  12  269.67   28.60
   6   0 -12  234.68   23.80
  -6   0  12  260.87   22.80
  -5   0  12  645.44   49.90
   5   0 -12  645.94   45.60
  -5   0  12  633.14   42.30
  -5   0  12  631.84   35.50
   5   0 -12  640.44   36.80
   4   0 -12  869.01   51.99
  -4   0  12  883.01   54.89
   4   0 -12  951.80   44.10
  -4   0  12  880.61   43.20
  -4   0  12  820.92   59.39
  -3   0  12  758.22   57.59
   3   0 -12  760.92   46.40
  -3   0  12  761.22   38.80
  -3   0  12  775.02   44.20
  -2   0  12  542.25   48.30
   2   0 -12  613.34   32.90
   2   0 -12  634.44   39.90
  -2   0  12  613.64   37.70
  -2   0  12  604.94   33.40
  -1   0  12  875.41   40.80
  -1   0  12  788.72   43.50
   1   0 -12  800.92   38.10
   1   0 -12  862.01   46.10
  -1   0  12  802.42   58.59
   0   0 -12  442.26   26.20
   0   0  12  427.76   27.40
   0   0  12  442.76   55.69
   0   0  12  464.85   31.40
   0   0 -12  444.06   31.90
  -1   0 -12  416.76   24.40
  -1   0 -12  408.06   30.50
   1   0  12  368.36   27.80
   1   0  12  375.16   25.50
   1   0  12  380.56   40.90
   2   0  12  591.34   36.20
   2   0  12  598.44   32.80
  -2   0 -12  538.15   35.60
  -2   0 -12  577.54   33.20
   3   0  12  305.97   26.70
  -3   0 -12  340.07   27.80
   3   0  12  314.17   24.20
  -4   0 -12  177.88   20.50
   4   0  12  125.89   18.30
   4   0  12  158.88   23.20
   5   0  12   84.09   16.20
  -5   0 -12   91.99   18.10
   5   0  12   90.79   19.20
   6   0  12   41.80   12.70
  -9  -1  12   -4.40   17.00
  -9  -1  12   -5.00   10.20
   9   1 -12  -21.80   34.30
  -9   1  12    4.00   12.50
  -9   1  12   16.70   10.50
   9   1 -12   -4.80   23.10
  -8  -1  12   20.00   11.60
  -8  -1  12   23.50   12.00
   8  -1 -12   26.80   17.20
  -8  -1  12   34.90   27.40
  -8  -1  12   11.10   16.50
   8   1 -12   22.90   22.90
  -8   1  12   56.29   15.50
   8   1 -12   39.90   19.00
  -7  -1  12    5.90   14.10
   7  -1 -12   11.60   12.20
  -7  -1  12   -2.50    5.70
  -7  -1  12    6.50   12.80
  -7   1  12   -5.80   11.20
  -7   1  12    3.20    6.50
   7   1 -12   15.30   12.70
  -7   1  12   -7.40    6.60
   7   1 -12   11.40   12.40
  -7   1  12    2.50   10.20
   6  -1 -12   42.00   15.80
  -6  -1  12   71.09   21.90
  -6  -1  12   68.19   13.40
  -6  -1  12   77.19   19.30
   6  -1 -12   54.89   13.30
   6   1 -12   51.29   13.60
  -6   1  12   87.09   15.10
  -6   1  12   80.59   20.30
   6   1 -12   62.39   20.90
  -6   1  12   83.89   20.10
   6   1 -12   37.50   14.80
  -5  -1  12  137.49   32.00
  -5  -1  12  110.99   21.60
  -5  -1  12   87.69   15.70
   5  -1 -12   96.79   17.00
   5  -1 -12   59.99   16.30
  -5   1  12  108.39   16.30
  -5   1  12  130.79   25.60
   5   1 -12  131.69   25.20
   5   1 -12   71.49   15.10
  -5   1  12   99.89   20.40
  -4  -1  12  149.39   19.90
   4  -1 -12  103.89   21.00
   4  -1 -12  174.48   18.50
  -4  -1  12  172.08   25.30
  -4  -1  12  163.88   34.30
   4   1 -12  147.79   23.90
  -4   1  12  150.58   16.50
  -4   1  12  133.79   21.60
  -4   1  12  256.97   40.00
   4   1 -12  160.48   17.50
  -3  -1  12  121.89   20.20
   3  -1 -12   96.19   15.90
   3  -1 -12   86.59   18.30
  -3  -1  12   78.59   14.30
  -3  -1  12   51.89   28.10
  -3   1  12   83.79   13.90
   3   1 -12   62.99   15.60
  -3   1  12   51.59   15.50
   3   1 -12   59.09   12.40
  -3   1  12   69.39   19.10
  -2  -1  12  182.58   17.20
  -2  -1  12  198.18   20.10
   2  -1 -12  164.58   20.20
  -2   1  12  197.98   21.10
   2   1 -12  193.68   17.20
   2   1 -12  166.08   24.80
  -2   1  12  203.88   18.20
  -2   1  12  163.98   27.70
  -1  -1  12  295.67   24.50
   1  -1 -12  289.77   26.60
  -1  -1  12  299.77   22.10
  -1  -1  12  244.58   41.70
   1  -1 -12  262.47   21.40
   1   1 -12  282.47   20.10
  -1   1  12  257.87   31.40
  -1   1  12  280.57   25.20
  -1   1  12  289.57   22.20
   0  -1  12  122.79   18.60
   0  -1  12  110.69   24.90
   0  -1  12  129.79   14.40
   0  -1 -12  193.68   20.50
   0  -1 -12  124.79   14.50
   0   1 -12  133.89   13.40
   0   1  12  162.48   16.70
   0   1  12  125.69   25.00
   0   1  12  129.39   21.00
   1  -1  12  437.26   29.30
   1  -1  12  465.75   47.10
   1  -1  12  397.26   25.80
  -1  -1 -12  446.76   32.00
  -1  -1 -12  438.66   27.10
   1   1  12  402.36   30.50
  -1   1 -12  408.56   29.80
   1   1  12  415.96   27.40
  -1   1 -12  386.76   22.10
   2  -1  12  356.96   41.80
   2  -1  12  317.87   23.40
   2  -1  12  295.77   24.70
  -2  -1 -12  278.07   22.00
  -2  -1 -12  321.57   28.00
   2   1  12  315.87   23.60
  -2   1 -12  294.77   25.10
   2   1  12  294.07   26.70
  -3  -1 -12  126.99   22.10
   3  -1  12  148.29   16.00
   3  -1  12  132.09   20.00
   3   1  12  121.69   21.20
   3   1  12  143.99   19.60
   4  -1  12  119.89   17.20
   4  -1  12   82.49   16.90
  -4  -1 -12  103.59   20.50
  -4   1 -12  103.29   18.50
   4   1  12  131.69   23.90
   4   1  12   72.39   15.00
   5  -1  12  171.88   24.20
   5  -1  12  180.78   20.90
  -5  -1 -12  245.08   28.70
   5   1  12  131.49   20.50
   5   1  12  153.28   25.50
  -5   1 -12  207.28   23.10
  -6  -1 -12   82.89   20.40
   6  -1  12   57.59   14.30
  -6   1 -12   61.09   15.80
   6   1  12   79.09   17.00
   7  -1  12   50.79   16.40
  -9  -2  12  139.59   20.50
  -9  -2  12  102.19   34.30
  -9   2  12  146.89   19.90
   9   2 -12  137.89   35.30
  -8  -2  12  205.68   34.60
  -8  -2  12  230.68   42.70
  -8   2  12  188.18   19.80
  -8   2  12  160.18   24.20
   8   2 -12  196.18   39.20
  -7  -2  12  263.97   20.20
  -7  -2  12  275.97   25.90
  -7  -2  12  227.98   40.80
  -7  -2  12  276.67   37.70
   7   2 -12  191.98   36.50
  -7   2  12  291.77   23.10
   7   2 -12  237.68   38.40
  -7   2  12  264.37   37.00
  -6  -2  12  470.55   32.00
   6  -2 -12  432.56   39.00
  -6  -2  12  450.65   49.50
  -6  -2  12  454.55   25.80
  -6  -2  12  410.96   37.00
   6  -2 -12  413.46   31.00
  -6   2  12  428.16   29.50
   6   2 -12  493.85   50.49
   6   2 -12  451.45   41.30
  -6   2  12  343.47   28.10
  -6   2  12  435.76   36.60
  -6   2  12  369.16   27.00
   6   2 -12  401.66   30.60
  -5  -2  12  352.96   44.40
   5  -2 -12  358.16   28.30
  -5  -2  12  410.96   28.90
   5  -2 -12  338.57   33.30
  -5  -2  12  386.96   39.10
  -5   2  12  386.46   32.50
   5   2 -12  310.97   39.30
   5   2 -12  386.96   28.30
  -5   2  12  375.16   26.10
   5   2 -12  324.17   33.80
  -5   2  12  367.96   30.00
  -4  -2  12  728.83   38.30
  -4  -2  12  650.83   59.59
  -4  -2  12  758.52   44.70
   4  -2 -12  668.23   44.60
   4  -2 -12  711.13   38.90
  -4   2  12  693.23   45.20
   4   2 -12  715.33   48.20
  -4   2  12  694.43   37.30
   4   2 -12  646.54   36.70
  -4   2  12  610.44   41.30
  -3  -2  12  593.54   55.99
  -3  -2  12  528.65   35.90
   3  -2 -12  545.25   38.70
  -3  -2  12  500.55   31.30
   3   2 -12  573.44   31.30
  -3   2  12  567.54   38.00
   3   2 -12  565.94   40.30
  -3   2  12  581.34   33.00
  -3   2  12  544.05   41.30
   2  -2 -12  359.66   26.10
  -2  -2  12  360.56   24.80
   2  -2 -12  364.26   30.80
  -2  -2  12  336.27   26.90
  -2  -2  12  317.87   41.90
   2   2 -12  319.77   29.10
   2   2 -12  328.27   21.80
  -2   2  12  388.46   30.30
  -2   2  12  377.96   35.30
  -2   2  12  300.87   23.50
  -1  -2  12 1094.69   50.39
   1  -2 -12 1086.09   49.90
   1  -2 -12 1081.79   55.39
  -1  -2  12 1027.80   74.19
  -1  -2  12 1029.40   45.60
   1   2 -12 1051.79   52.99
  -1   2  12 1071.99   47.80
   1   2 -12  992.50   41.00
  -1   2  12 1078.29   63.69
  -1   2  12 1046.50   59.39
   0  -2  12  215.98   44.70
   0  -2  12  190.48   18.90
   0  -2  12  165.68   18.00
   0  -2 -12  187.28   21.60
   0  -2 -12  166.28   26.10
   0   2  12  174.38   20.50
   0   2 -12  151.88   21.80
   0   2  12  161.58   16.70
   0   2 -12  174.38   13.50
   1  -2  12  510.65   51.39
   1  -2  12  473.25   30.40
  -1  -2 -12  544.75   32.60
  -1  -2 -12  543.35   37.20
  -1   2 -12  466.25   21.90
   1   2  12  446.66   34.10
   1   2  12  561.04   33.10
  -2  -2 -12  287.67   24.20
  -2  -2 -12  301.27   29.30
   2  -2  12  323.27   24.50
   2  -2  12  239.48   43.70
   2  -2  12  293.57   22.00
   2   2  12  361.96   30.70
  -2   2 -12  320.87   25.00
   2   2  12  313.77   24.60
   3  -2  12  158.78   21.10
   3  -2  12   91.89   25.00
  -3  -2 -12  150.18   23.60
   3  -2  12  157.28   16.40
  -3   2 -12  181.38   19.40
   3   2  12  153.08   21.00
   3   2  12  137.89   24.00
  -4  -2 -12  197.88   24.20
   4  -2  12  193.98   20.60
   4  -2  12  202.38   19.00
   4  -2  12  180.88   40.20
  -4   2 -12  205.18   21.30
   4   2  12  184.78   28.60
   4   2  12  147.79   22.00
   5  -2  12   38.00   11.40
  -5  -2 -12   49.50   16.00
  -5   2 -12   64.09   14.60
   5   2  12   67.89   18.50
   5   2  12   61.79   15.50
  -6  -2 -12   38.70   20.40
   6  -2  12   56.19   15.10
  -6   2 -12   32.00   15.30
   7  -2  12   -2.90   12.00
   9   3 -12   11.00   25.70
  -9   3  12   22.30   12.90
  -8  -3  12  -30.90   18.80
  -8  -3  12   -8.50   20.70
  -8   3  12    3.60    9.40
   8   3 -12    4.60   26.20
  -7  -3  12  -23.00   15.90
   7  -3 -12    9.30   12.70
  -7  -3  12    4.50   20.70
  -7  -3  12   10.00    6.00
  -7  -3  12   19.20   15.30
  -7   3  12   -6.50    9.70
   7   3 -12   36.10   19.90
  -7   3  12   -5.10    6.80
   6  -3 -12   50.39   17.40
  -6  -3  12   39.10   12.10
  -6  -3  12   28.70   15.00
  -6  -3  12   45.60   22.10
  -6  -3  12   48.40    8.70
  -6   3  12   43.90   12.70
   6   3 -12   41.30   12.60
  -6   3  12   50.09   11.20
   6   3 -12   51.69   21.70
   6   3 -12   22.10   16.60
   5  -3 -12   12.80    9.20
  -5  -3  12   17.30   10.80
  -5  -3  12   15.90   14.70
   5  -3 -12   29.70   12.90
  -5  -3  12    7.10    7.50
   5   3 -12   24.40   10.10
  -5   3  12    9.30    6.10
   5   3 -12   -0.20   11.90
   5   3 -12   -3.10   11.60
  -5   3  12   15.60   11.20
  -4  -3  12   43.70   14.50
  -4  -3  12   58.69   12.50
   4  -3 -12   79.69   17.70
   4  -3 -12   84.29   19.00
  -4  -3  12   53.99   24.60
  -4   3  12  101.59   19.20
  -4   3  12   87.39   16.00
  -4   3  12   68.79   13.20
   4   3 -12  101.89   21.30
  -3  -3  12   87.49   15.00
  -3  -3  12   65.19   19.40
   3  -3 -12  111.09   21.40
  -3  -3  12  104.39   19.30
   3  -3 -12   92.19   16.60
  -3   3  12   99.59   19.30
  -3   3  12  132.39   23.50
   3   3 -12   90.09   22.50
  -3   3  12   80.69   14.10
   3   3 -12   76.89   13.00
   2  -3 -12  138.89   20.00
   2  -3 -12  157.58   23.50
  -2  -3  12  103.29   17.20
  -2  -3  12  129.59   33.80
  -2  -3  12  146.49   16.50
  -2   3  12  127.79   18.40
   2   3 -12  138.09   13.40
  -2   3  12  186.28   26.50
  -2   3  12  168.48   27.00
   2   3 -12   95.89   19.00
   1  -3 -12  191.08   23.10
   1  -3 -12  185.88   24.10
  -1  -3  12  191.58   36.30
  -1  -3  12  171.18   18.60
  -1  -3  12  195.78   18.10
  -1   3  12  205.88   23.20
   1   3 -12  154.48   22.70
  -1   3  12  202.98   26.10
  -1   3  12  172.88   17.60
   1   3 -12  183.68   14.00
   0  -3 -12  138.69   19.70
   0  -3 -12  143.09   22.40
   0  -3  12  138.69   30.30
   0  -3  12  136.89   14.50
   0  -3  12  119.99   18.10
   0   3 -12  119.59   10.00
   0   3  12  108.49   19.70
   0   3  12  134.59   18.50
  -1  -3 -12  144.99   22.50
   1  -3  12  107.79   26.60
  -1  -3 -12  158.18   21.70
   1  -3  12  134.89   15.60
   1   3  12  107.19   20.10
   1   3  12  107.39   17.30
  -1   3 -12  117.99   18.40
  -2  -3 -12  104.99   19.40
  -2  -3 -12  104.29   17.20
   2  -3  12  110.99   17.30
   2  -3  12  114.29   29.20
  -2   3 -12  112.59   17.80
   2   3  12   81.19   14.70
   2   3  12  107.79   21.00
  -3  -3 -12  176.38   27.80
   3  -3  12  129.29   28.10
   3  -3  12  183.68   17.10
   3  -3  12  151.18   23.50
   3   3  12  207.38   30.50
   3   3  12  177.18   20.60
  -3   3 -12  178.78   18.80
  -4  -3 -12   96.99   20.80
   4  -3  12  126.99   14.90
   4  -3  12   93.79   15.60
   4  -3  12  113.49   37.20
  -4   3 -12  113.09   16.30
   4   3  12  115.69   24.00
   4   3  12  105.29   18.30
  -5  -3 -12   70.09   21.60
   5  -3  12   75.19   32.40
   5  -3  12  127.29   17.70
  -5   3 -12   92.69   17.80
   6  -3  12   36.80   11.90
  -6  -3 -12  -24.00   18.30
  -6   3 -12   11.80   11.90
   7  -3  12   40.10   16.10
   9   4 -12   36.40   47.80
  -8  -4  12    5.50   27.60
   8   4 -12   89.19   34.20
  -8   4  12   53.19   13.70
  -7  -4  12  206.78   37.10
  -7   4  12  265.97   21.80
   7   4 -12  210.68   39.70
  -6  -4  12  248.78   49.30
   6  -4 -12  170.18   28.80
  -6  -4  12  201.18   10.30
  -6  -4  12  177.98   31.00
  -6  -4  12  250.37   24.70
   6   4 -12  189.28   24.40
   6   4 -12  190.78   35.10
  -6   4  12  192.78   19.50
  -5  -4  12  151.88   48.50
  -5  -4  12  250.37   29.70
   5  -4 -12  283.17   34.70
  -5  -4  12  234.38   41.50
  -5   4  12  254.07   21.50
   5   4 -12  240.08   23.60
   5   4 -12  302.17   41.20
  -4  -4  12  187.58   19.60
  -4  -4  12  146.89   34.50
  -4  -4  12  211.38   25.60
   4  -4 -12  240.68   28.10
   4  -4 -12  183.48   23.90
  -4   4  12  196.78   27.60
  -4   4  12  206.58   20.30
   4   4 -12  193.78   31.50
   3  -4 -12  238.98   23.80
  -3  -4  12  279.37   27.70
  -3  -4  12  290.77   23.60
   3  -4 -12  253.97   29.00
  -3  -4  12  270.27   46.50
   3   4 -12  270.97   30.20
  -3   4  12  237.08   22.90
  -3   4  12  243.08   19.60
   3   4 -12  255.67   19.40
  -3   4  12  236.48   21.50
  -2  -4  12  300.87   23.40
  -2  -4  12  320.77   27.20
   2  -4 -12  290.37   30.30
   2  -4 -12  317.07   27.30
  -2  -4  12  313.17   56.99
   2   4 -12  303.17   30.00
  -2   4  12  318.87   25.00
  -2   4  12  337.97   30.00
  -2   4  12  340.87   31.30
   2   4 -12  270.97   17.70
   1  -4 -12  310.47   26.00
  -1  -4  12  309.27   52.09
  -1  -4  12  273.97   24.10
   1  -4 -12  252.97   27.70
  -1  -4  12  232.18   20.70
   1   4 -12  227.48   24.80
   1   4 -12  265.67   13.80
  -1   4  12  280.07   23.50
  -1   4  12  262.47   27.20
   0  -4  12  315.87   22.80
   0  -4  12  290.77   50.99
   0  -4  12  290.47   23.70
   0  -4 -12  331.07   30.60
   0  -4 -12  297.97   27.00
   0   4  12  318.87   25.60
   0   4 -12  276.67   26.40
   0   4  12  300.47   31.10
   1  -4  12  205.28   43.80
   1  -4  12  170.98   16.60
   1  -4  12  174.88   18.00
  -1  -4 -12  163.28   26.80
  -1  -4 -12  192.18   21.70
  -1   4 -12  210.98   20.40
   1   4  12  125.89   19.10
   1   4  12  203.78   29.10
   2  -4  12  116.79   30.40
   2  -4  12  176.38   25.80
  -2  -4 -12  100.69   17.90
   2  -4  12  136.99   17.60
  -2  -4 -12   99.19   21.10
  -2   4 -12  121.29   17.80
   2   4  12  162.58   28.30
   2   4  12  112.59   17.80
   2   4  12  145.99   32.00
   3  -4  12   67.29   34.70
   3  -4  12   60.29   11.70
  -3  -4 -12   71.29   18.10
   3  -4  12   50.99   10.90
   3   4  12   75.99   21.10
   3   4  12   54.59   14.00
   3   4  12   39.90   24.60
   4  -4  12   33.00   18.00
  -4  -4 -12   57.59   18.60
  -4   4 -12   48.10    9.00
   4   4  12   46.30   22.40
  -5  -4 -12   69.89   22.10
   5  -4  12   90.49   14.30
  -6  -4 -12   66.19   26.50
  -7  -5  12   -7.30   30.50
  -7   5  12   26.80   12.30
   7   5 -12   -6.90   28.10
  -6  -5  12   49.00   18.40
   6   5 -12   76.09   25.60
  -5  -5  12    1.80    8.80
   5  -5 -12   17.60   13.20
  -5  -5  12  -41.30   33.90
  -5  -5  12  -22.00   13.40
   5   5 -12   17.10   10.00
  -5   5  12    2.10    7.30
   5   5 -12   -2.20   17.40
   4  -5 -12   46.80   15.10
  -4  -5  12   12.30   21.00
  -4  -5  12   14.30    5.10
  -4  -5  12   10.90   11.90
  -4  -5  12    3.20   11.30
   4   5 -12   -2.80   15.80
  -4   5  12    5.90    7.90
  -3  -5  12   82.89   15.10
   3  -5 -12   98.69   21.50
  -3  -5  12   79.79   32.40
  -3  -5  12  102.49   13.20
  -3  -5  12  107.29   21.30
   3   5 -12   92.29   12.70
  -3   5  12  119.89   17.90
   3   5 -12  122.49   24.50
  -2  -5  12   45.00   12.30
   2  -5 -12   32.50   11.00
  -2  -5  12   70.29   36.60
  -2  -5  12   22.20   10.60
  -2   5  12   11.50    9.60
  -2   5  12   25.90   13.40
  -2   5  12   19.40    9.50
   2   5 -12  -11.50    9.80
  -2   5  12   10.60    9.10
   2   5 -12   17.10    4.90
   1  -5 -12   66.59   17.40
  -1  -5  12   77.39   13.80
  -1  -5  12   83.29   15.90
   1   5 -12   71.39   21.40
  -1   5  12   92.79   19.70
  -1   5  12   45.60   16.00
  -1   5  12   72.99   14.70
   0  -5  12   76.69   13.00
   0  -5  12   73.89   16.10
   0  -5 -12   65.09   17.50
   0  -5  12   78.99   15.10
   0   5 -12   81.29   16.70
   0   5  12   93.29   23.80
   0   5  12   59.79   13.20
   0   5  12   67.99   19.30
   1  -5  12   34.20   12.70
  -1  -5 -12   32.80   12.50
   1  -5  12   40.00    9.30
   1  -5  12   41.60   11.00
   1  -5  12   31.50   20.80
   1   5  12   27.90   16.90
   1   5  12   21.30   10.50
   1   5  12   35.70   14.70
  -1   5 -12   50.89   12.10
   2  -5  12   40.50   21.70
   2  -5  12   48.70   10.60
  -2  -5 -12   51.39   16.80
   2  -5  12   42.10   13.30
   2  -5  12   56.99   10.60
  -2   5 -12   53.19   10.60
   2   5  12   51.89   13.90
   2   5  12   52.49   17.80
   3  -5  12   36.50    7.60
  -3  -5 -12   58.39   19.00
   3  -5  12   38.80   26.00
   3  -5  12   69.69   11.80
   3   5  12   94.69   23.60
  -4  -5 -12   75.09   22.30
   4  -5  12   49.90   11.60
   5  -5  12   31.40   10.50
  -5  -5 -12   26.40   25.90
   5   6 -12   32.90   28.80
  -5   6  12   48.70   12.00
   5   6 -12   28.20   13.60
  -4  -6  12   69.79   22.20
  -4  -6  12  129.89   35.30
   4   6 -12   98.79   13.60
   4   6 -12   81.89   13.70
   4   6 -12   43.40   26.10
  -4   6  12   79.19   13.80
  -3  -6  12  106.29   19.80
  -3  -6  12  128.99   23.20
  -3  -6  12  127.89    9.70
   3   6 -12   97.09   11.20
  -3   6  12  132.39   18.10
  -2  -6  12   85.59   17.70
   2  -6 -12   42.10   16.10
  -2  -6  12   81.99   12.60
  -2  -6  12   80.89   15.10
  -2   6  12   69.79   14.40
  -2   6  12   73.19   14.30
  -1  -6  12   87.19   41.30
  -1  -6  12   99.49   16.00
  -1  -6  12   93.39   24.20
   1  -6 -12   90.39   21.70
  -1  -6  12   80.69   15.30
  -1   6  12   74.19   16.00
   1   6 -12   79.29   19.50
  -1   6  12   51.29   20.10
   0  -6  12   66.29   14.20
   0  -6 -12   46.40   17.70
   0  -6  12   66.69   12.90
   0  -6  12   78.09   14.40
   0   6  12   42.70   22.00
   0   6  12   65.99   17.60
   0   6 -12   60.29   16.10
  -1  -6 -12  164.88   27.30
   1  -6  12  124.29   15.50
   1  -6  12   90.69   18.60
   1  -6  12  129.39   17.40
   1   6  12   58.59   24.30
   1   6  12  129.29   19.80
   2  -6  12    3.60    6.00
   2  -6  12   47.20   10.50
  -2  -6 -12   23.30   16.10
   2  -6  12   10.70   11.10
   2   6  12   23.70   26.00
  -3  -6 -12   26.70   34.30
   3  -6  12   38.40    9.60
  -3  -6 -12   49.20   20.50
  -3   7  12   20.70   11.60
  -3   7  12   11.50   13.40
  -2  -7  12   -2.60   10.70
  -2   7  12    3.40   10.80
  -2   7  12   -0.80   12.80
   1   7 -12   38.70   28.20
  -1   7  12   40.70   13.90
   0  -7  12    8.60   11.00
   0  -7  12   27.80   12.00
   0   7  12   42.70   14.70
   1  -7  12   -6.80    9.40
   1  -7  12   21.50   13.20
   1   7  12  -14.90   29.90
   2  -7  12   20.00   15.00
  -9   0  13   15.60   12.80
  -9   0  13   -0.30   19.20
   8   0 -13  -27.70   18.00
  -8   0  13   27.70   16.50
  -8   0  13   -1.10   14.90
  -8   0  13   -0.80    9.00
  -7   0  13  -20.40    7.10
  -7   0  13    1.30   16.10
  -7   0  13   -3.90   11.50
   7   0 -13   -3.00   12.10
  -7   0  13   -5.10    6.30
   6   0 -13    5.60   12.50
  -6   0  13   19.70   12.30
  -6   0  13   -2.10    6.60
  -6   0  13  -20.80   11.30
  -5   0  13   -9.20    8.20
  -5   0  13    0.20    6.40
   5   0 -13    8.30    7.20
   5   0 -13    5.30   10.90
  -4   0  13    1.80    4.70
   4   0 -13    9.50    6.70
   4   0 -13   17.20    9.60
  -4   0  13  -11.30    9.30
  -4   0  13  -11.00    7.20
   3   0 -13   -0.50    6.10
   3   0 -13    2.00    6.40
  -3   0  13  -14.90    8.90
  -3   0  13    4.20    6.50
  -3   0  13    0.70    4.70
  -2   0  13  -10.50    4.70
   2   0 -13    0.80    6.70
  -2   0  13  -14.00    9.60
  -2   0  13   -1.90    4.70
  -1   0  13   -5.70    4.40
  -1   0  13    8.80    9.50
   1   0 -13   -5.70    7.90
   1   0 -13   -7.90    6.10
  -1   0  13    3.10    5.90
   0   0  13    1.20   10.80
   0   0  13    1.00    5.90
   0   0  13   11.60    5.10
   0   0 -13   -5.40    5.90
   0   0 -13   -9.20    4.40
   1   0  13    0.90    5.30
   1   0  13    9.50    6.00
  -1   0 -13   -0.60    4.70
   1   0  13   -8.70    8.50
  -1   0 -13   -2.20    8.10
  -2   0 -13   -3.80    5.00
   2   0  13   -8.60    5.10
  -2   0 -13   -0.20    6.60
   2   0  13    1.50    7.00
   3   0  13  -13.50    8.30
   3   0  13   -6.40    5.10
  -3   0 -13   -5.50    8.40
  -4   0 -13  -12.90    8.50
   4   0  13   -3.50    6.60
   5   0  13   -1.90    9.20
   5   0  13    4.10   11.00
  -5   0 -13  -12.50   10.70
  -9  -1  13   -2.80   12.20
  -8  -1  13    0.90   20.00
   8  -1 -13  -29.30   17.20
  -8  -1  13   14.80    9.10
  -8   1  13   22.50   15.50
   8   1 -13   19.50   25.80
  -8   1  13    9.10    9.00
  -8   1  13   -5.20    9.30
  -7  -1  13   -0.50    6.50
  -7  -1  13   -6.30   12.90
   7  -1 -13   10.60   13.20
  -7  -1  13    7.20    8.50
  -7  -1  13  -11.60   15.30
  -7   1  13   -7.20    6.90
   7   1 -13  -10.80   13.80
  -7   1  13   25.90   13.60
   6  -1 -13   -3.80    8.60
  -6  -1  13    5.80    9.70
  -6  -1  13   20.50   16.00
  -6  -1  13   -7.20   11.30
   6   1 -13   35.70   15.90
   6   1 -13   14.40   11.20
  -6   1  13    5.50    8.20
  -6   1  13    7.50   11.30
   5  -1 -13    3.90    8.20
   5  -1 -13   16.50   10.70
  -5  -1  13   21.40   14.50
  -5  -1  13    7.20    6.00
   5   1 -13    9.00    8.20
  -5   1  13   13.50    7.90
  -5   1  13   -0.80    8.00
  -5   1  13   21.30   11.20
   4  -1 -13   -8.70    7.10
  -4  -1  13  -10.70    9.30
  -4  -1  13    0.70    8.60
  -4  -1  13   12.50    5.70
   4  -1 -13   13.90    9.80
   4   1 -13   -0.40    8.60
   4   1 -13   12.30    7.40
  -4   1  13   -2.70    7.50
  -4   1  13  -18.20    7.60
  -4   1  13    7.20    5.80
  -3  -1  13    1.00    4.70
   3  -1 -13   -9.90    6.90
   3  -1 -13   -1.40    5.40
  -3  -1  13   -9.30   10.50
  -3  -1  13    8.90    7.10
  -3   1  13   -2.90    6.30
   3   1 -13   -0.50    6.60
  -3   1  13   -0.90    8.70
  -3   1  13   -6.10    4.00
   3   1 -13   -5.90    5.40
  -2  -1  13    3.20   10.70
   2  -1 -13    8.60    6.80
   2  -1 -13    1.80    7.70
  -2  -1  13   -5.30    6.00
  -2  -1  13    3.00    4.70
  -2   1  13  -13.10    9.00
   2   1 -13   10.30    7.00
  -2   1  13   14.80    6.70
  -2   1  13    0.50    8.00
   2   1 -13   -1.00    7.30
  -1  -1  13   23.90    8.30
   1  -1 -13   27.20    9.10
  -1  -1  13   19.80   13.70
  -1  -1  13   30.70   10.60
   1  -1 -13   24.70    9.90
   1   1 -13   24.80    8.00
   1   1 -13   38.20   13.30
  -1   1  13   19.80    7.20
  -1   1  13    6.20    9.10
   0  -1  13    5.00    9.40
   0  -1  13   -2.70    4.50
   0  -1 -13   -5.10    6.60
   0  -1  13   -6.70    5.80
   0   1 -13    4.10    6.20
   0   1  13    3.10    5.70
   0   1 -13   10.80    5.10
   0   1  13   -2.60    6.80
   0   1  13   -7.10    8.10
   1  -1  13   -8.00    4.30
   1  -1  13   -0.10    7.00
   1  -1  13   12.80    7.20
  -1  -1 -13   -3.00    6.20
   1   1  13    1.50    7.50
   1   1  13   -1.80    5.40
  -1   1 -13   -9.40    6.30
  -1   1 -13    9.70    4.70
  -2  -1 -13   17.10   10.30
   2  -1  13    9.80    8.10
   2  -1  13   13.80    6.70
   2  -1  13   12.70   15.20
   2   1  13    4.20    5.80
  -2   1 -13   -4.40    6.50
   2   1  13    2.90    8.70
   3  -1  13    5.00   13.40
   3  -1  13   -4.60    7.20
  -3  -1 -13    4.90    8.40
  -3   1 -13    0.60    8.20
   3   1  13   -8.40    8.30
   3   1  13   12.40    7.20
  -4  -1 -13   10.50   10.40
   4  -1  13   -4.40    7.30
   4  -1  13   -3.50    8.50
  -4   1 -13    6.70    9.80
   4   1  13   -7.00    6.90
   4   1  13   -7.80   10.60
   5  -1  13    3.60    8.30
   5  -1  13   -9.50   10.10
  -5  -1 -13   -1.90   12.50
   5   1  13   18.10   13.90
   5   1  13   -0.40   10.00
  -5   1 -13   16.40   11.70
  -6  -1 -13   22.00   18.10
   6  -1  13    8.10   11.20
  -6   1 -13  -33.50   15.80
  -9   2  13   -3.70   13.90
  -8  -2  13  -14.80   18.50
  -8  -2  13   -4.00    7.90
   8   2 -13   33.70   23.80
  -8   2  13   -6.10    9.00
  -7  -2  13   30.20   18.20
  -7  -2  13   12.70    7.90
   7  -2 -13    2.20   14.00
  -7  -2  13  -10.70   19.70
  -7   2  13   14.20   10.20
   7   2 -13   -1.40   22.90
  -7   2  13   28.70   11.60
  -7   2  13    1.30    9.60
   7   2 -13   25.70   18.60
   6  -2 -13   44.50   16.70
  -6  -2  13   99.79   28.90
  -6  -2  13   59.49   17.60
  -6  -2  13   49.60   12.80
  -6   2  13   34.60   10.40
   6   2 -13   53.29   24.60
   6   2 -13   49.50   18.70
  -6   2  13   73.09   16.60
   5  -2 -13    0.30    7.10
  -5  -2  13   -8.10   11.10
  -5  -2  13    4.20   17.10
   5  -2 -13    0.10    8.50
  -5  -2  13    1.10    6.00
  -5   2  13    3.50   10.00
   5   2 -13   -0.50    8.00
   5   2 -13   14.20   12.10
  -5   2  13   -9.20    5.20
  -5   2  13   -3.50    9.20
   4  -2 -13    8.60    8.90
   4  -2 -13    9.20    8.60
  -4  -2  13   12.60    8.70
  -4  -2  13   11.00   12.20
  -4  -2  13   14.70    7.20
   4   2 -13    4.00    8.80
   4   2 -13   -5.00    6.70
  -4   2  13   -6.80   10.80
  -4   2  13   21.90   12.80
  -4   2  13   15.40    6.60
  -3  -2  13   87.39   15.60
  -3  -2  13  208.18   47.20
  -3  -2  13  103.69   20.10
   3  -2 -13   87.79   18.40
   3  -2 -13   67.29   18.90
  -3   2  13  128.99   24.90
   3   2 -13  108.99   22.90
  -3   2  13  108.79   17.00
  -3   2  13   95.39   18.60
   2  -2 -13  107.59   20.20
   2  -2 -13   74.59   14.80
  -2  -2  13   49.10   20.70
  -2  -2  13   56.49   13.30
  -2  -2  13   72.59   13.00
   2   2 -13   73.49   12.10
   2   2 -13   53.49   15.10
  -2   2  13   60.29   12.00
  -2   2  13   75.19   20.50
  -2   2  13   73.99   16.70
   1  -2 -13    2.60    6.00
  -1  -2  13   -2.60    5.50
  -1  -2  13    2.00   11.30
   1  -2 -13   -5.80    6.10
  -1  -2  13    8.30    4.90
   1   2 -13    0.10    4.10
   1   2 -13    4.30    7.50
  -1   2  13   12.30    6.90
  -1   2  13   -3.60    5.00
  -1   2  13   12.50    9.00
   0  -2  13   30.40    8.40
   0  -2  13   28.00   14.00
   0  -2  13    8.70    7.40
   0  -2 -13   32.30   12.40
   0  -2 -13   11.40    7.40
   0   2  13   13.50    6.90
   0   2 -13   20.50    6.30
   0   2 -13   27.30   10.70
   1  -2  13   19.60    9.80
   1  -2  13   30.30    9.20
   1  -2  13   28.50   14.00
  -1  -2 -13   41.10   11.70
  -1  -2 -13   25.40   11.90
   1   2  13   22.90    9.70
  -1   2 -13   29.60   11.00
   1   2  13   22.60    9.30
  -1   2 -13   31.90    6.60
  -2  -2 -13   15.30    8.60
  -2  -2 -13   16.80   10.50
   2  -2  13   13.20    7.10
   2  -2  13   -4.60   12.80
   2  -2  13   11.30    9.00
   2   2  13   -0.90    6.50
  -2   2 -13   24.40    9.80
   2   2  13    3.70   10.10
   3  -2  13   23.20   20.30
  -3  -2 -13   14.50   12.30
   3  -2  13   14.10    7.60
   3  -2  13   23.50    8.60
  -3   2 -13    8.60    9.10
   3   2  13    1.00   10.10
   3   2  13   16.00    9.40
   4  -2  13   28.70    9.10
   4  -2  13   28.80   11.10
  -4  -2 -13   43.90   14.90
   4  -2  13   38.50   24.30
   4   2  13   14.10   10.30
  -4   2 -13   33.90   12.00
   4   2  13    1.00   14.00
  -5  -2 -13    0.60   16.30
   5  -2  13   24.10   11.10
  -5   2 -13   14.60   12.70
   5   2  13    8.10   16.40
  -6  -2 -13   -9.40   18.20
   6  -2  13   30.30   11.70
  -9   3  13   17.70   15.90
   8   3 -13  -24.80   26.80
  -7  -3  13   -2.50   16.90
  -7  -3  13    1.20    6.70
  -7  -3  13   14.70   20.50
  -7   3  13   -1.20    8.60
   7   3 -13    1.90   18.30
  -6  -3  13    0.50    5.20
   6  -3 -13   -7.40   11.70
  -6  -3  13   -3.00   12.00
  -6  -3  13  -22.40    7.80
   6   3 -13    1.90   16.40
  -6   3  13   11.00    7.50
  -6   3  13    2.40    8.30
   5  -3 -13   11.10   13.10
  -5  -3  13   39.00   16.10
  -5  -3  13   20.10   18.50
  -5  -3  13    4.80    7.80
   5   3 -13   -5.00   16.70
  -5   3  13    1.00   11.80
   5   3 -13   35.30   11.00
  -5   3  13   16.50    7.40
   5   3 -13   16.10   14.60
  -5   3  13   13.00    8.80
   4  -3 -13   -1.40    8.10
  -4  -3  13  -17.10    7.90
  -4  -3  13   12.60   15.20
  -4  -3  13    6.20    6.60
   4   3 -13   15.00    7.40
   4   3 -13   11.50   12.70
  -4   3  13    6.20    5.70
  -4   3  13    7.50    8.70
  -3  -3  13    8.10    6.80
  -3  -3  13   -4.00    9.50
   3  -3 -13   -2.90    7.40
  -3  -3  13    5.30    8.40
   3  -3 -13   15.00    8.70
  -3   3  13  -16.00    8.60
   3   3 -13    0.50    6.20
  -3   3  13    0.80    5.50
  -3   3  13   12.80   10.60
  -2  -3  13   -7.80   13.60
   2  -3 -13    2.20    8.00
   2  -3 -13    0.60    8.40
  -2  -3  13    1.70    7.40
  -2  -3  13   -0.10    6.20
  -2   3  13   -4.30    6.80
  -2   3  13   -5.00    4.60
  -2   3  13    7.10    9.50
   2   3 -13   11.60    5.30
   2   3 -13   15.10    9.50
  -1  -3  13   16.30   16.30
  -1  -3  13   12.50    6.80
   1  -3 -13    1.70    7.60
   1  -3 -13   -3.20    9.30
  -1  -3  13    9.30    7.60
  -1   3  13    9.70   12.10
  -1   3  13   32.50   12.40
   1   3 -13    3.30    4.60
   1   3 -13    1.00    9.30
  -1   3  13   -8.20    5.40
   0  -3 -13   -6.60    7.40
   0  -3  13    3.40    5.20
   0  -3  13    5.30   10.60
   0  -3  13   14.50    7.20
   0   3  13   -1.90    8.40
   0   3 -13   -0.20    3.50
   0   3  13    6.30    6.10
  -1  -3 -13    4.90    7.40
   1  -3  13    8.50    6.40
   1  -3  13    4.80   12.60
  -1  -3 -13  -15.50    8.20
   1  -3  13   -4.30    4.90
  -1   3 -13    2.30    7.70
   1   3  13    4.70    8.90
   1   3  13    1.00    6.00
  -2  -3 -13  -19.20   10.70
   2  -3  13    9.60   16.20
  -2  -3 -13   -2.00    8.60
   2  -3  13    4.10    5.80
   2  -3  13   16.60    9.30
   2   3  13    5.30    6.20
  -2   3 -13   15.10    9.00
   2   3  13  -11.20    9.80
   3  -3  13   -0.90    5.80
  -3  -3 -13  -18.30    8.70
   3  -3  13    9.70   14.80
   3   3  13   -1.30    6.90
   3   3  13    4.80   13.20
  -3   3 -13    7.30    9.60
   4  -3  13    0.60   20.50
   4  -3  13   -3.20    7.00
  -4  -3 -13   -5.40   13.90
   4  -3  13   -4.50    7.80
  -4   3 -13    3.90   10.20
   4   3  13    4.70   13.40
  -5  -3 -13  -14.00   13.80
   5  -3  13   -1.00    8.10
  -5   3 -13   -1.80   11.70
  -8   4  13   29.80   14.00
   8   4 -13   43.30   36.00
  -7  -4  13   20.20   21.80
  -7   4  13   13.70   10.70
   7   4 -13    6.60   23.80
  -6  -4  13   96.99   24.50
  -6  -4  13   74.89    8.90
   6   4 -13   62.09   26.30
  -6   4  13   74.49   14.80
  -5  -4  13   28.50   10.80
   5  -4 -13   -1.00   12.20
  -5  -4  13   45.40   25.40
  -5  -4  13   14.20   13.70
  -5   4  13   15.90    9.10
   5   4 -13    1.90    9.90
   5   4 -13   26.30   17.40
  -4  -4  13   58.29   17.40
  -4  -4  13  101.39   30.40
   4  -4 -13   46.60   15.70
  -4   4  13   28.70   10.70
   4   4 -13   69.59   13.60
   4   4 -13   21.10   18.30
  -3  -4  13   74.39   16.60
  -3  -4  13   67.39   26.80
  -3  -4  13   66.09   14.00
   3  -4 -13   50.59   16.30
  -3   4  13   27.60   10.10
   3   4 -13   44.50   10.30
  -3   4  13   31.80   10.70
  -3   4  13   60.09   16.20
  -3   4  13   83.79   18.50
   3   4 -13   40.40   17.90
  -2  -4  13    3.00   16.50
  -2  -4  13   70.59   16.40
   2  -4 -13   48.50   15.30
   2  -4 -13   44.20   15.10
  -2  -4  13   54.69   13.30
  -2   4  13   67.79   18.60
   2   4 -13   25.70    7.80
  -2   4  13   30.10   10.70
   2   4 -13   53.49   17.10
   1  -4 -13   45.10   13.30
   1  -4 -13   58.89   16.20
  -1  -4  13   68.09   27.50
  -1  -4  13   84.09   16.80
  -1  -4  13   73.79   14.00
  -1   4  13   77.69   20.10
  -1   4  13   85.69   16.10
   1   4 -13   63.99    7.90
  -1   4  13   72.99   18.00
   0  -4 -13   56.79   15.80
   0  -4  13   52.79   13.10
   0  -4  13   93.79   32.50
   0  -4 -13   15.20   19.50
   0  -4  13   49.70   11.90
   0   4 -13   61.99   14.30
   0   4  13   41.80   11.70
   0   4  13   56.39   17.10
   1  -4  13   47.60   12.90
  -1  -4 -13   36.60   16.20
   1  -4  13   46.20   10.20
   1  -4  13   37.40   23.00
   1   4  13   48.10   17.00
  -1   4 -13   36.80   12.50
   2  -4  13   50.59   29.70
   2  -4  13   21.70   10.00
   2  -4  13   67.09   12.60
  -2  -4 -13   49.10   17.20
   2   4  13   30.40   11.00
  -2   4 -13   41.40   12.40
   2   4  13   33.40   21.00
   2   4  13   63.99   20.40
   3  -4  13   14.40    9.50
   3  -4  13   36.80   10.60
   3  -4  13   78.89   33.60
  -3  -4 -13   69.79   19.00
  -3   4 -13   43.50   19.80
   3   4  13   41.30   20.10
   4  -4  13   13.70    8.10
  -4  -4 -13   12.00   15.70
   4  -4  13   -0.30    8.60
   4   4  13    8.60   16.70
  -4   4 -13    5.60    8.60
   5  -4  13   37.10   11.70
  -5  -4 -13   -7.40   21.40
  -6  -5  13   67.59   35.20
  -6   5  13   50.89   13.40
   6   5 -13   83.49   32.50
  -5  -5  13   13.40   16.00
  -5   5  13  -15.60    8.50
   5   5 -13   -5.90   12.50
   5   5 -13  -42.10   19.50
  -4  -5  13    7.20    5.70
  -4  -5  13    9.80   14.20
  -4  -5  13  -12.00    8.10
   4  -5 -13  -13.10   11.60
  -4   5  13    7.40    8.20
   4   5 -13   20.90   19.60
  -3  -5  13   27.50   14.70
   3  -5 -13   31.40   14.70
  -3  -5  13   15.30   15.40
  -3  -5  13   12.60   20.50
   3   5 -13   47.90   18.80
   3   5 -13   10.40    7.70
  -3   5  13   30.20   11.90
  -2  -5  13   -4.00    7.60
  -2  -5  13    6.00   10.10
  -2  -5  13   23.60   22.20
  -2   5  13    6.10    7.50
  -2   5  13   -7.40   11.40
   2   5 -13   26.50   14.30
  -2   5  13   15.40   10.60
   1  -5 -13   -8.40   11.30
  -1  -5  13  -12.50    8.50
  -1  -5  13  -24.40   17.70
  -1  -5  13    1.10    7.00
  -1   5  13   -0.70    7.80
  -1   5  13  -13.70   11.00
   0  -5  13   25.10   11.60
   0  -5 -13   13.90   11.80
   0  -5  13   13.60    7.60
   0  -5  13   -4.50   20.10
   0   5  13    2.40   14.40
   0   5  13    2.60    7.90
   0   5 -13   14.50   11.70
   1  -5  13   10.00   10.60
   1  -5  13    2.70    8.20
   1  -5  13   20.70   26.60
   1  -5  13   12.60    8.50
  -1  -5 -13   -1.40   12.50
   1   5  13  -24.80   12.10
   1   5  13  -13.80    8.20
   1   5  13    4.50   15.60
  -1   5 -13    6.10   11.60
   2  -5  13   12.70    7.20
   2  -5  13    3.00   11.10
  -2  -5 -13   -9.70   13.00
   2  -5  13    1.00    8.20
   2   5  13   -7.30   16.30
   2   5  13  -27.30   15.90
   3  -5  13    7.30    8.50
  -3  -5 -13    8.10   13.20
   3  -5  13   -1.20    6.90
  -4  -5 -13   29.00   32.40
  -5  -5 -13   54.19   28.90
  -5   6  13   44.60   13.70
  -4   6  13   80.79   14.90
   4   6 -13   65.39   12.50
  -3  -6  13    1.70   14.50
  -3  -6  13   20.80    6.80
  -3  -6  13   18.80   15.10
   3   6 -13   -7.00   20.50
  -3   6  13   11.40   10.60
  -2  -6  13   30.30   11.50
  -2  -6  13   40.30   15.30
  -2   6  13   61.69   17.10
  -2   6  13   24.60   12.40
   2   6 -13   47.10   21.80
  -1  -6  13   57.59   15.70
  -1  -6  13   72.99   15.10
  -1   6  13   49.90   19.70
  -1   6  13   67.79   15.70
   1   6 -13   94.89   22.60
   0  -6  13   64.89   14.20
   0  -6  13   57.59   15.40
   0  -6 -13   98.89   35.00
   0  -6  13   45.80   14.80
   0   6  13   59.29   14.80
   1  -6  13   16.40   10.70
  -1  -6 -13   66.69   29.80
   1  -6  13   20.20    9.90
   1  -6  13   18.80   12.40
   1   6  13   21.90   23.60
  -1   6 -13    2.00   13.00
   2  -6  13   55.69    9.50
   2  -6  13   90.19   15.00
   3  -6  13   60.39   13.20
  -3   7  13   25.50   15.30
  -2   7  13    0.10   13.30
  -1  -7  13    6.80   12.40
   0  -7  13    3.30   11.60
   1  -7  13   21.20   13.90
  -9   0  14   13.00   33.80
  -8   0  14   11.10   20.00
  -8   0  14   -2.70    9.50
   8   0 -14  -12.80   22.90
  -7   0  14   49.80   16.80
   7   0 -14   58.39   21.50
  -7   0  14   70.69   15.40
  -7   0  14   32.20   21.80
  -6   0  14   34.60   19.80
  -6   0  14   19.00    9.70
   6   0 -14   53.19   18.10
   5   0 -14   59.89   15.20
   5   0 -14   42.80   17.40
  -5   0  14   47.30   23.20
  -5   0  14   73.49   14.10
  -5   0  14   46.30   18.10
   4   0 -14   33.60   15.90
  -4   0  14   65.89   24.00
  -4   0  14   70.59   18.00
   4   0 -14   45.10   12.60
  -4   0  14   41.90   12.30
   3   0 -14  125.99   19.20
   3   0 -14  119.89   23.80
  -3   0  14  101.09   20.00
  -3   0  14  195.78   40.10
  -3   0  14  147.29   20.70
  -2   0  14  234.58   27.10
   2   0 -14  244.88   27.80
  -2   0  14  233.28   21.80
  -2   0  14  301.47   46.50
   2   0 -14  265.67   22.80
   1   0 -14  108.69   20.90
  -1   0  14  141.59   20.40
   1   0 -14   89.59   15.70
  -1   0  14   73.39   23.90
  -1   0  14   96.39   17.60
   0   0  14  410.76   45.90
   0   0 -14  382.86   32.70
   0   0  14  337.17   26.10
   0   0  14  269.87   27.30
   1   0  14   52.99   14.10
   1   0  14   47.90   19.20
  -1   0 -14   31.80   12.10
   1   0  14   32.40   11.40
  -2   0 -14  147.19   16.30
   2   0  14  188.68   20.20
   2   0  14  206.98   24.40
   2   0  14  153.58   37.00
  -3   0 -14  211.28   29.60
   3   0  14  187.68   23.80
   3   0  14  116.39   21.20
   4   0  14   91.99   17.30
   4   0  14   96.09   18.70
  -4   0 -14   77.59   19.40
  -5   0 -14  122.19   25.70
  -9  -1  14   66.29   22.70
  -9  -1  14   36.20   31.50
  -8  -1  14  120.09   20.00
  -8  -1  14  143.69   37.80
   8   1 -14  114.99   34.10
  -8   1  14  180.38   30.10
  -7  -1  14  172.28   20.30
  -7  -1  14  239.98   44.10
  -7  -1  14  166.88   33.70
   7  -1 -14  195.58   31.90
  -7   1  14  231.78   34.60
  -7   1  14  206.38   23.10
  -7   1  14  174.48   25.50
   7   1 -14  196.98   37.20
  -6  -1  14  291.27   38.50
   6  -1 -14  276.27   39.70
  -6  -1  14  380.06   47.30
  -6  -1  14  353.76   28.90
  -6   1  14  299.57   36.30
  -6   1  14  294.87   36.50
  -6   1  14  252.37   26.10
   6   1 -14  298.07   43.10
   5  -1 -14  170.28   30.00
  -5  -1  14  203.98   38.40
  -5  -1  14  183.78   29.20
  -5   1  14  238.88   22.80
   5   1 -14  216.08   24.30
  -5   1  14  175.08   31.90
  -5   1  14  235.28   32.40
   4  -1 -14  329.97   34.10
   4  -1 -14  307.07   27.80
  -4  -1  14  296.47   26.20
  -4  -1  14  336.07   32.30
  -4  -1  14  350.36   55.99
  -4   1  14  355.26   34.40
   4   1 -14  318.87   35.80
  -4   1  14  335.97   39.70
   4   1 -14  335.57   48.90
  -4   1  14  289.37   25.20
   3  -1 -14  356.26   28.30
  -3  -1  14  381.96   28.40
   3  -1 -14  362.26   33.70
  -3  -1  14  394.16   33.00
  -3  -1  14  418.96   50.39
   3   1 -14  354.46   34.80
  -3   1  14  372.76   28.10
  -3   1  14  339.07   31.60
   3   1 -14  376.66   27.70
  -2  -1  14  293.57   24.60
   2  -1 -14  306.47   26.50
  -2  -1  14  343.37   52.39
  -2  -1  14  288.07   28.20
   2  -1 -14  248.08   27.40
  -2   1  14  249.58   26.60
  -2   1  14  230.98   39.40
   2   1 -14  298.67   31.10
   2   1 -14  283.87   23.30
  -2   1  14  276.07   23.70
  -1  -1  14  204.88   19.90
   1  -1 -14  236.58   27.00
   1  -1 -14  209.08   21.50
  -1  -1  14  152.28   23.40
  -1  -1  14  191.58   39.70
  -1   1  14  168.08   25.00
  -1   1  14  204.98   41.40
  -1   1  14  154.78   18.40
   1   1 -14  169.38   25.90
   0  -1  14  498.35   52.99
   0  -1 -14  530.55   33.20
   0  -1  14  473.05   31.40
   0  -1  14  496.95   35.90
   0  -1 -14  458.95   37.00
   0   1 -14  530.05   40.70
   0   1  14  540.75   33.90
   0   1  14  548.95   38.50
   0   1 -14  503.35   28.60
   0   1  14  477.15   50.29
  -1  -1 -14  173.38   26.20
   1  -1  14  223.28   47.60
   1  -1  14  182.18   19.40
   1  -1  14  148.79   22.70
  -1  -1 -14  194.88   19.90
   1   1  14  171.28   34.40
  -1   1 -14  234.28   24.70
   1   1  14  214.18   24.50
   1   1  14  197.58   20.80
  -1   1 -14  199.88   17.20
   2  -1  14   67.49   16.10
  -2  -1 -14   65.69   18.30
   2  -1  14   65.89   14.30
   2  -1  14  122.39   36.50
  -2  -1 -14   65.39   13.90
   2   1  14   47.80   13.40
  -2   1 -14   86.09   18.60
   2   1  14   38.20   12.90
   3  -1  14  155.88   21.70
   3  -1  14  145.59   22.90
  -3  -1 -14  129.19   22.90
   3  -1  14  143.69   34.30
   3   1  14  161.28   26.20
  -3   1 -14  150.78   22.90
   4  -1  14   47.90   14.80
   4  -1  14   58.79   15.80
  -4  -1 -14   51.19   17.20
   4   1  14   26.40   15.00
   4   1  14   49.90   13.60
  -4   1 -14   29.50   13.90
  -5  -1 -14   -4.60   17.60
   5  -1  14   23.20   13.50
   5  -1  14   28.50   17.10
  -5   1 -14   54.19   19.80
   5   1  14   68.99   21.90
  -8  -2  14   -2.50   25.10
  -8  -2  14   14.60   10.60
   8   2 -14   42.30   28.90
  -7  -2  14   54.89   11.90
  -7  -2  14   -9.80   20.30
  -7  -2  14   23.10   20.60
   7  -2 -14   27.50   17.40
  -7   2  14   22.30   13.20
  -7   2  14   30.90   13.60
   7   2 -14   10.40   22.30
  -6  -2  14   15.10   14.90
  -6  -2  14   23.50   10.90
  -6  -2  14   37.20   20.00
  -6   2  14   18.80   15.60
  -6   2  14   25.20    9.90
   6   2 -14   -5.90   17.60
  -5  -2  14   60.39   21.70
   5  -2 -14  115.69   25.50
  -5  -2  14   41.40   11.80
  -5  -2  14   73.29   18.90
   5   2 -14   35.50   12.90
  -5   2  14   61.69   17.80
   5   2 -14   48.60   19.30
  -5   2  14   41.90   16.70
  -5   2  14   57.19   14.40
  -4  -2  14  102.59   17.10
   4  -2 -14   85.69   20.70
  -4  -2  14   77.19   18.20
   4  -2 -14   54.09   23.70
  -4  -2  14   45.50   24.50
  -4   2  14   63.69   19.40
  -4   2  14   74.19   19.40
   4   2 -14   87.99   22.70
  -4   2  14   80.19   15.10
   4   2 -14   73.19   15.00
  -3  -2  14   72.09   14.20
   3  -2 -14   91.09   17.50
   3  -2 -14   75.29   20.00
  -3  -2  14  100.39   30.30
  -3  -2  14   85.79   19.00
  -3   2  14   98.29   17.30
  -3   2  14   63.29   15.70
  -3   2  14  105.79   25.70
   3   2 -14   84.49   20.40
   3   2 -14   67.49   13.60
   2  -2 -14  141.99   25.50
   2  -2 -14  132.09   20.10
  -2  -2  14   75.89   30.50
  -2  -2  14  136.89   19.80
  -2  -2  14  125.99   21.80
   2   2 -14  114.89   23.30
  -2   2  14   95.59   28.80
  -2   2  14  163.78   18.10
  -2   2  14  119.59   24.00
  -1  -2  14  175.08   21.20
  -1  -2  14  113.99   32.30
  -1  -2  14  122.39   18.60
   1  -2 -14  192.38   25.10
   1  -2 -14  158.68   25.10
  -1   2  14  121.89   22.30
   1   2 -14  136.89   14.50
  -1   2  14  143.29   28.60
   1   2 -14  140.79   23.20
  -1   2  14  174.68   19.10
   0  -2  14  158.48   37.40
   0  -2 -14  164.28   26.80
   0  -2  14  171.78   18.50
   0  -2 -14  146.09   25.10
   0   2  14  107.49   21.10
   0   2 -14  140.99   23.00
   0   2  14  156.58   33.10
   0   2  14  151.08   21.10
   0   2 -14  182.88   15.10
  -1  -2 -14  158.48   25.00
   1  -2  14  154.78   21.80
  -1  -2 -14   98.69   21.70
   1  -2  14  125.49   18.90
   1   2  14  144.39   21.70
  -1   2 -14  132.29   22.10
  -1   2 -14  123.89   11.50
   1   2  14  167.78   25.90
  -2  -2 -14  131.59   24.90
   2  -2  14  123.99   18.70
  -2  -2 -14  122.99   18.90
   2  -2  14  108.19   19.60
  -2   2 -14   93.99   19.90
   3  -2  14  110.89   17.60
   3  -2  14   84.69   17.40
  -3  -2 -14  103.29   23.90
   3  -2  14   90.39   34.80
   3   2  14   92.39   17.80
   3   2  14  137.69   38.70
  -3   2 -14  110.49   20.20
   4  -2  14  113.59   19.50
   4  -2  14  107.39   18.40
  -4  -2 -14  120.29   26.90
   4   2  14   98.49   28.40
  -4   2 -14   58.39   17.70
  -5  -2 -14   32.70   21.90
   5  -2  14   56.59   14.70
  -5   2 -14   44.00   20.50
   8   3 -14   37.70   62.09
  -7  -3  14   46.20   11.20
  -7  -3  14   25.30   44.40
   7   3 -14   63.29   30.50
  -7   3  14   67.09   14.30
  -6  -3  14  225.08   44.50
  -6  -3  14  200.98   17.80
   6  -3 -14  172.88   31.00
  -6  -3  14  265.07   39.10
  -6   3  14  174.08   23.90
   6   3 -14  186.98   35.90
  -5  -3  14  232.98   32.60
  -5  -3  14  177.18   42.40
  -5  -3  14  210.68   23.90
   5   3 -14  192.98   24.60
  -5   3  14  185.58   21.20
   5   3 -14  179.08   32.60
  -5   3  14  197.68   22.10
  -4  -3  14  146.99   21.20
   4  -3 -14  132.99   25.20
  -4  -3  14  201.48   46.50
  -4  -3  14  165.68   26.90
  -4   3  14  146.59   25.60
   4   3 -14  167.38   22.00
   4   3 -14  158.58   30.40
  -4   3  14  177.28   20.60
  -4   3  14  143.89   24.80
  -3  -3  14  249.38   23.80
  -3  -3  14  272.57   55.99
  -3  -3  14  249.18   27.80
   3  -3 -14  207.38   31.50
   3   3 -14  183.08   30.40
  -3   3  14  229.88   23.10
  -3   3  14  242.28   48.30
   3   3 -14  241.68   24.70
  -3   3  14  224.58   34.20
   2  -3 -14  190.08   28.20
  -2  -3  14  278.47   24.50
   2  -3 -14  298.97   32.10
  -2  -3  14  262.77   25.90
  -2  -3  14  371.06   60.19
  -2   3  14  284.67   34.30
   2   3 -14  273.27   32.20
  -2   3  14  262.27   30.40
   2   3 -14  275.77   20.30
  -1  -3  14  127.19   21.80
   1  -3 -14  166.38   28.50
  -1  -3  14  179.78   19.70
  -1  -3  14  153.88   36.50
   1  -3 -14  126.99   19.20
  -1   3  14  176.98   34.70
   1   3 -14  161.18   27.20
  -1   3  14  190.98   28.60
  -1   3  14  127.19   18.70
   1   3 -14  159.18   14.20
   0  -3 -14  176.78   23.90
   0  -3  14   72.99   32.80
   0  -3  14  163.38   21.30
   0  -3 -14  186.08   29.00
   0  -3  14  209.78   22.50
   0   3 -14  144.69   11.70
   0   3  14  164.48   26.20
   0   3  14  118.99   18.80
   1  -3  14  104.69   30.80
  -1  -3 -14   60.99   17.00
   1  -3  14   86.09   17.40
  -1  -3 -14   86.59   20.80
   1  -3  14   89.79   16.50
   1   3  14  104.59   18.20
   1   3  14   90.39   20.80
  -1   3 -14  107.59   20.00
   2  -3  14  105.59   16.30
   2  -3  14  107.39   33.00
  -2  -3 -14   96.89   22.80
   2  -3  14  128.09   19.90
   2   3  14  144.79   21.60
  -2   3 -14  103.79   21.20
   2   3  14  118.99   25.60
   3  -3  14   93.19   17.10
  -3  -3 -14   73.39   26.40
   3   3  14  114.79   25.10
  -3   3 -14  100.19   18.50
   4  -3  14   18.30   10.60
   4  -3  14   20.70   12.70
  -4  -3 -14   -1.90   20.30
  -4   3 -14   16.50   15.00
   4   3  14   20.50   20.70
  -5  -3 -14   77.89   25.20
   5  -3  14   33.70   13.90
  -7   4  14   31.90   12.40
   7   4 -14   37.30   34.50
  -6  -4  14    6.10    6.10
  -6  -4  14   27.80   20.80
   6   4 -14  -33.60   23.30
  -6   4  14   22.50   12.50
   5  -4 -14   46.40   22.20
  -5  -4  14   71.49   19.90
   5   4 -14   82.39   17.20
   5   4 -14   49.30   23.00
  -4  -4  14   44.30   17.50
  -4  -4  14   38.80   13.60
   4  -4 -14   41.00   17.50
  -4  -4  14   39.20   27.20
   4   4 -14   42.90   12.80
  -4   4  14   21.80   12.00
   4   4 -14   73.89   23.60
  -3  -4  14   24.00   11.10
   3  -4 -14   39.80   15.80
  -3  -4  14   18.10   13.20
  -3  -4  14   30.20   22.40
   3   4 -14   30.70   17.50
  -3   4  14   32.20   11.20
   3   4 -14   48.20   10.80
  -3   4  14   13.70   14.30
   2  -4 -14   49.80   18.10
  -2  -4  14   94.09   16.60
  -2  -4  14   32.20   22.90
  -2  -4  14   88.29   17.80
  -2   4  14   78.29   24.90
   2   4 -14   72.89   21.80
  -2   4  14   69.39   23.40
   2   4 -14   68.69   11.70
  -2   4  14   84.39   20.60
   1  -4 -14   28.70   14.20
  -1  -4  14    3.40   20.80
  -1  -4  14   31.70   11.20
  -1  -4  14   32.10   10.40
   1   4 -14   27.90    5.50
  -1   4  14   29.30   12.70
   1   4 -14   -0.70   12.40
  -1   4  14   38.40   18.80
  -1   4  14   20.80   16.00
   0  -4  14  153.08   22.30
   0  -4 -14  146.19   26.60
   0  -4  14  179.98   39.90
   0  -4  14  105.99   16.90
   0   4 -14   95.39   22.30
   0   4  14   96.09   17.70
   0   4  14   82.19   34.60
  -1  -4 -14   77.99   19.10
   1  -4  14   61.69   13.40
   1  -4  14   30.70   25.30
   1  -4  14   49.50   13.30
  -1   4 -14   43.50   16.60
   1   4  14   41.30   13.90
  -2  -4 -14  105.59   23.60
   2  -4  14   63.79   15.00
   2  -4  14  104.99   17.00
  -2   4 -14   80.19   17.30
  -3  -4 -14   79.19   23.20
   3  -4  14   86.19   15.70
   3  -4  14   79.19   15.40
   3   4  14   66.69   32.10
  -3   4 -14   69.89   16.70
  -4  -4 -14  -32.50   18.60
   4  -4  14   -2.70   10.20
   4   4  14   17.30   24.30
   5  -4  14   35.30   18.10
   5   5 -14   81.69   18.90
   5   5 -14  130.99   38.90
  -4  -5  14   77.59   21.40
   4   5 -14   76.39   16.10
  -4   5  14   71.59   16.20
  -3  -5  14   69.09   16.30
   3  -5 -14   68.19   22.40
  -3   5  14   68.49   15.60
   3   5 -14   53.69   15.00
   3   5 -14  124.09   27.40
  -2  -5  14  127.09   19.40
   2  -5 -14   88.79   21.20
  -2  -5  14   91.39   19.90
  -2   5  14  103.99   20.40
  -2   5  14  102.79   17.20
   2   5 -14  111.99   25.60
  -2   5  14  120.19   26.40
   1  -5 -14   60.99   20.90
  -1  -5  14   49.99   13.70
  -1  -5  14  107.69   19.80
   1   5 -14   75.69   20.60
  -1   5  14   60.29   22.80
  -1   5  14   83.39   17.70
   0  -5 -14   63.69   20.00
   0  -5  14   36.30   10.60
   0   5  14   46.10   21.70
   0   5  14   10.60   19.30
   0   5 -14   16.50   16.90
   1  -5  14   40.60   15.10
   1  -5  14   41.40   13.40
   1  -5  14   33.00   12.20
  -1   5 -14    9.60   16.60
   1   5  14   32.00   24.30
  -2  -5 -14  111.69   39.90
   2  -5  14   60.99   14.10
   2  -5  14   37.80   12.80
  -3  -5 -14   47.00   24.10
   3  -5  14   35.00   10.30
   3  -5  14   51.39   13.20
  -4  -5 -14   12.40   23.60
  -4   6  14   20.20   13.20
  -3   6  14    7.80   12.50
  -2  -6  14   47.70   13.30
  -2   6  14    8.70   13.30
  -1  -6  14   28.10   12.70
  -1  -6  14   12.30   12.40
  -1   6  14   58.79   22.80
  -1   6  14  -10.20   22.80
   0  -6  14   15.60   12.50
   0  -6  14   20.80   11.90
   0   6  14   -7.20   25.40
   1   6  14   38.90   30.30
   2  -6  14   17.00   13.00
   2  -6  14   17.90    9.70
  -8   0  15  -23.60   25.10
  -7   0  15    4.60    9.70
   7   0 -15  -24.30   18.60
  -7   0  15   -5.00   22.40
   6   0 -15  -20.70   15.60
  -6   0  15    5.20   19.30
  -6   0  15   -2.30   15.90
  -5   0  15    4.70   13.40
  -5   0  15   12.70    8.20
  -5   0  15   -2.20   16.70
   5   0 -15    0.90   14.50
  -4   0  15   10.80    8.20
  -4   0  15    9.50   11.60
   4   0 -15    1.40   10.50
  -4   0  15    4.80   14.10
   4   0 -15   -9.40   10.40
   3   0 -15   17.30   11.00
  -3   0  15    7.40    6.60
  -3   0  15   -1.10   10.50
  -3   0  15   25.50   15.30
   3   0 -15    4.10    8.70
  -2   0  15   -1.30    5.50
   2   0 -15    6.00    9.30
  -2   0  15   -3.40   14.20
   1   0 -15  -10.00    9.40
  -1   0  15  -11.60   14.00
  -1   0  15   -4.80    6.40
   1   0 -15   -4.00    7.20
  -1   0  15   -5.50    8.30
   0   0 -15  -14.00    7.10
   0   0  15    2.00    9.40
   0   0  15    2.20   15.10
   0   0 -15    0.60    9.70
   0   0  15    0.60    7.10
  -1   0 -15    4.70    7.80
  -1   0 -15  -17.30    9.00
   1   0  15    7.20    9.70
   1   0  15   17.80    7.10
   1   0  15   -4.00   17.50
   2   0  15   10.30   17.90
  -2   0 -15    9.50   11.80
   2   0  15   17.80   11.60
   3   0  15   -0.30   12.10
   3   0  15  -13.20   17.00
   3   0  15   -6.90    9.30
  -3   0 -15    5.60   13.40
  -4   0 -15   34.30   17.40
   4   0  15   14.60   13.90
  -8  -1  15  -20.20   11.40
  -8  -1  15  -31.80   28.40
  -7  -1  15   22.50   24.30
   7  -1 -15    0.40   18.30
   7   1 -15   33.50   21.30
  -7   1  15   26.30   17.90
  -6  -1  15   27.40   20.40
   6  -1 -15   64.89   21.60
   6   1 -15   -9.10   17.10
  -6   1  15  -12.50   10.50
  -6   1  15   15.20   17.60
  -5  -1  15   27.70   16.40
  -5  -1  15  -18.10   17.20
   5  -1 -15   21.80   16.20
  -5  -1  15    3.10    8.20
  -5   1  15   -7.70   11.90
   5   1 -15  -19.70   14.30
  -5   1  15    8.10    8.90
  -5   1  15    7.50   14.60
  -4  -1  15    1.00    7.10
  -4  -1  15  -10.40   10.00
  -4  -1  15    7.50   19.30
   4  -1 -15   25.20   12.70
   4   1 -15    7.70   14.40
  -4   1  15   10.60   13.70
  -4   1  15    0.00   13.10
   4   1 -15    0.00    9.70
  -4   1  15    4.70    8.20
  -3  -1  15   -8.00   14.90
  -3  -1  15  -22.40    9.50
   3  -1 -15    7.20   11.60
   3  -1 -15  -10.30    8.00
  -3  -1  15   -0.90    7.80
  -3   1  15   -1.20    6.80
   3   1 -15    1.60    9.20
  -3   1  15    4.70   11.00
  -3   1  15  -25.10   14.00
   3   1 -15    0.90   12.00
   2  -1 -15    5.80    9.10
  -2  -1  15   -2.40    6.50
  -2  -1  15   -7.20    8.90
   2  -1 -15   -4.80    9.20
  -2  -1  15   10.20   16.20
  -2   1  15  -24.10    9.30
   2   1 -15   -5.00    6.90
   2   1 -15   -8.80   11.00
  -2   1  15   14.30   13.00
  -2   1  15    6.40    6.00
  -1  -1  15    9.30    7.50
  -1  -1  15   30.50   19.90
   1  -1 -15   22.30   11.20
  -1  -1  15   35.80   13.10
   1  -1 -15   32.20   15.40
  -1   1  15   25.20    9.00
  -1   1  15   27.80   16.50
   1   1 -15   25.30   13.70
  -1   1  15   23.30   10.40
   0  -1  15   10.10   13.90
   0  -1  15   -3.00    8.60
   0  -1  15    2.40    6.60
   0  -1 -15  -17.80    9.80
   0   1  15   -2.30    9.20
   0   1  15  -21.50   10.30
   0   1 -15   -8.80    9.00
   0   1  15  -18.10    6.20
  -1  -1 -15    5.80   12.00
  -1  -1 -15   27.30   14.50
   1  -1  15   -4.30    9.20
   1  -1  15    3.30    8.40
   1  -1  15   -8.00   28.90
   1   1  15   16.00   17.90
  -1   1 -15   13.70   13.10
   1   1  15   14.10   11.50
   1   1  15   12.00   12.50
  -1   1 -15    8.40    7.80
   2  -1  15   -7.70   17.50
  -2  -1 -15    2.20   13.70
   2  -1  15   11.10   10.70
  -2  -1 -15   -6.70    9.70
   2  -1  15   13.20    9.20
  -2   1 -15   16.90   12.40
   2   1  15    6.20    8.40
   2   1  15  -21.50   12.10
   3  -1  15    5.30   10.90
   3  -1  15   -3.80    8.00
  -3  -1 -15    3.80   14.20
  -3   1 -15  -10.20   11.30
   3   1  15   33.50   15.10
   3   1  15    0.80    8.80
   4  -1  15    2.00    9.70
  -4  -1 -15  -13.00   17.10
   4  -1  15    0.30   12.10
  -4   1 -15   11.20   15.70
   4   1  15  -14.00   14.50
   8   2 -15   47.20   36.60
  -7  -2  15   12.50   10.00
  -7  -2  15  -25.20   23.90
  -7  -2  15  -34.50   21.60
   7   2 -15  -60.19   22.60
  -7   2  15   -4.10   15.40
   6  -2 -15   -4.70   17.00
  -6  -2  15    1.60   18.10
  -6  -2  15   28.20   25.30
   6   2 -15   47.50   24.10
  -6   2  15   11.80   14.60
  -6   2  15    5.00   10.60
  -5  -2  15   -1.70   13.40
   5  -2 -15  -10.90   13.30
   5   2 -15    1.90   17.80
  -5   2  15  -19.20   13.00
  -5   2  15    2.60    9.30
  -5   2  15   13.10   22.80
  -4  -2  15    8.10   13.90
  -4  -2  15   21.60   20.40
   4  -2 -15    3.40   12.60
  -4  -2  15    5.20    7.90
  -4   2  15   30.10   17.70
  -4   2  15   23.30   13.60
   4   2 -15    1.80   15.00
   4   2 -15   -2.60    9.00
  -4   2  15   18.40   10.20
  -3  -2  15    3.90   21.20
  -3  -2  15   12.20   13.70
  -3  -2  15    6.80   11.30
   3  -2 -15  -27.70   11.80
   3   2 -15    1.00    8.10
  -3   2  15   11.90    8.60
   3   2 -15   12.40   12.70
  -3   2  15   -0.50   12.70
  -3   2  15  -16.50    9.20
  -2  -2  15   11.20   10.40
  -2  -2  15   17.40    8.40
   2  -2 -15    9.50   10.60
  -2  -2  15   14.40   17.70
  -2   2  15   17.30   14.60
  -2   2  15   -7.20   10.80
   2   2 -15   -4.30    7.70
   2   2 -15   -5.40   12.50
  -1  -2  15   -3.90   13.90
   1  -2 -15   10.70   12.00
  -1  -2  15   22.90   10.90
  -1  -2  15   -0.30    6.80
   1  -2 -15   -0.40    8.50
  -1   2  15   11.50   15.20
   1   2 -15    2.90    6.30
  -1   2  15  -11.40    9.60
   1   2 -15   20.10   12.60
   0  -2  15   10.10    7.20
   0  -2 -15  -18.80    9.90
   0  -2 -15   -3.30    9.10
   0  -2  15    6.80    9.40
   0   2  15    8.20   10.50
   0   2  15  -10.80   11.90
   0   2 -15   10.10   11.80
   0   2 -15   15.10    6.90
   0   2  15    2.40    7.30
   1  -2  15   19.80   16.10
  -1  -2 -15   13.40   13.30
   1  -2  15    1.20    7.20
   1  -2  15    1.60    8.80
  -1  -2 -15   21.80   11.20
   1   2  15   21.30   13.20
  -1   2 -15   14.40   11.10
   1   2  15   15.30    9.30
  -2  -2 -15   -4.30   11.20
   2  -2  15   -3.80    8.80
   2  -2  15   -0.60    8.30
   2  -2  15   14.50   21.30
  -2  -2 -15   -2.90   14.20
   2   2  15  -10.60   12.70
   2   2  15   -1.80    8.60
  -2   2 -15  -21.00   10.80
  -3  -2 -15   12.40   14.40
   3  -2  15  -20.20   10.50
  -3   2 -15    0.90   13.60
   3   2  15    0.20   14.40
  -4  -2 -15   -8.40   18.70
   4  -2  15    9.00   10.90
   4  -2  15   13.00   15.20
   4   2  15  -32.20   18.60
  -4   2 -15    6.10   21.80
  -7  -3  15    2.50   29.00
   7   3 -15   -4.90   31.90
  -6  -3  15    3.10   17.20
  -6   3  15   33.40   14.30
   6   3 -15   30.80   24.00
  -5  -3  15   98.29   30.60
  -5  -3  15   84.59   22.90
   5  -3 -15   87.19   21.40
   5   3 -15   84.99   28.00
  -5   3  15   47.80   17.00
  -5   3  15   87.19   18.90
   4  -3 -15    2.50   14.50
  -4  -3  15   38.20   25.90
  -4  -3  15   11.60    9.90
  -4  -3  15    3.70   14.00
   4   3 -15   24.90   18.20
  -4   3  15   20.50   15.80
   4   3 -15    5.50   10.70
  -4   3  15   -5.20    9.20
  -3  -3  15   17.90   13.90
  -3  -3  15   11.90   22.90
  -3  -3  15   -4.50    8.10
   3  -3 -15    1.90   12.70
   3   3 -15    1.60    9.40
  -3   3  15   -8.50   13.70
  -3   3  15   20.00   15.80
   3   3 -15   23.20   15.50
  -3   3  15    8.60    9.50
  -2  -3  15   37.30   14.20
   2  -3 -15   37.90   18.40
  -2  -3  15   38.80   26.70
   2   3 -15   57.79   13.20
  -2   3  15   48.70   13.90
  -2   3  15   27.50   28.90
  -2   3  15   31.30   19.70
   2   3 -15   47.90   18.00
   1  -3 -15   -7.00   10.00
  -1  -3  15    5.60    8.70
  -1  -3  15   -3.40   19.30
   1   3 -15    1.40   12.40
  -1   3  15    8.90   13.20
  -1   3  15    8.00    9.40
  -1   3  15    3.30   13.10
   0  -3  15   46.60   14.70
   0  -3  15   15.40   10.40
   0  -3 -15   29.30   16.30
   0  -3  15   66.49   26.50
   0   3  15   30.80   16.20
   0   3 -15   38.20    7.10
   0   3  15   26.80   11.40
   0   3  15   47.80   21.50
  -1  -3 -15    5.90   14.80
   1  -3  15   10.30   17.30
   1  -3  15   19.80    9.80
   1  -3  15    3.00    9.40
   1   3  15   30.50   13.00
   1   3  15   24.40   15.90
  -1   3 -15    9.60   13.00
  -2  -3 -15    6.70   14.20
   2  -3  15   28.10   11.50
   2  -3  15   31.70   12.10
   2   3  15   47.70   18.30
  -2   3 -15    4.10   16.40
  -3  -3 -15  -12.80   17.70
   3   3  15    7.30   19.70
  -3   3 -15    9.30   16.00
  -4  -3 -15    6.60   23.30
   4  -3  15    8.40   11.50
   6   4 -15   54.19   32.70
  -5  -4  15   29.40   17.90
  -5   4  15   11.90   11.30
   5   4 -15   31.80   26.80
   4  -4 -15  -27.10   15.20
  -4  -4  15    5.00   16.30
   4   4 -15    0.80   20.00
  -4   4  15   29.70   11.60
  -4   4  15   37.10   13.20
  -3  -4  15    1.40    9.70
  -3  -4  15   17.00   13.60
   3  -4 -15  -24.20   11.80
  -3   4  15   10.30   16.40
   3   4 -15    7.10   16.60
  -3   4  15   20.50    9.90
  -2  -4  15   -7.20    8.40
   2  -4 -15   -2.50   21.50
   2   4 -15  -16.10   16.20
   2   4 -15    0.70    7.80
  -2   4  15    3.30    9.60
  -2   4  15    8.50   15.90
  -1  -4  15  -13.20    9.70
  -1  -4  15   -5.60    9.30
   1  -4 -15  -17.40   11.40
  -1   4  15   13.60   25.80
   1   4 -15    7.00   15.50
  -1   4  15   10.00    9.80
  -1   4  15    5.90   16.60
   0  -4  15    7.00   10.90
   0  -4  15  -11.30   10.70
   0  -4 -15    1.90   14.60
   0   4  15   15.10   17.30
   0   4  15   14.10   16.70
   1  -4  15    3.80   10.10
  -1  -4 -15   -0.70   13.50
   1  -4  15   13.00    9.80
  -1   4 -15   25.60   16.90
   1   4  15   25.00   20.70
   2  -4  15  -14.50   11.50
   2  -4  15    5.50   11.10
  -2  -4 -15  -39.80   16.90
   2   4  15    5.00   22.40
  -2   4 -15   23.30   17.70
  -3  -4 -15  -16.30   19.40
   3  -4  15    7.80   12.00
   3   4  15  -20.80   25.00
  -4  -4 -15   52.49   32.30
   4   5 -15   -5.40   19.30
   2   5 -15  -13.10   22.60
  -2   5  15   46.20   21.50
  -1  -5  15   39.00   13.30
   1  -5 -15   33.40   23.00
  -1  -5  15   14.40   16.10
  -1   5  15   33.20   22.70
   1   5 -15  -24.50   21.00
   0  -5 -15   12.90   18.60
   0  -5  15   33.20   12.40
  -1  -5 -15   16.50   20.10
   1  -5  15   32.40   12.90
   2  -5  15   22.70   12.40
   3  -5  15    4.30   13.00
  -7   0  16  104.69   33.50
   7   0 -16  140.09   34.40
   6   0 -16   92.19   26.60
  -6   0  16   71.79   28.60
  -5   0  16  214.78   36.10
  -5   0  16  166.78   37.00
   5   0 -16  140.79   31.00
   4   0 -16   97.39   23.80
  -4   0  16   73.59   16.30
  -4   0  16   81.99   22.50
  -4   0  16   81.09   29.10
   3   0 -16  144.09   40.80
  -3   0  16  180.08   37.10
  -3   0  16  132.69   19.80
  -3   0  16  155.68   26.90
  -2   0  16  257.77   30.40
   2   0 -16  285.87   34.10
  -2   0  16  214.88   40.80
  -2   0  16  226.28   25.10
   2   0 -16  217.98   24.10
  -1   0  16  200.68   29.00
  -1   0  16  104.99   18.80
   1   0 -16  158.38   21.50
  -1   0  16  182.48   38.30
   1   0 -16  144.59   26.90
   0   0 -16   17.10   14.10
   0   0  16   15.10   14.40
   0   0  16   43.30   12.60
   1   0  16  121.79   23.40
  -1   0 -16   81.29   21.90
   1   0  16  103.69   30.00
   1   0  16  113.99   20.60
  -1   0 -16  135.99   20.10
   2   0  16  107.69   24.00
  -2   0 -16  118.09   23.60
   2   0  16   82.79   18.50
   3   0  16   10.80   16.70
  -7  -1  16   24.40   28.20
  -7  -1  16   16.90   12.90
  -7   1  16   40.10   24.80
   7   1 -16  -19.00   25.60
   6  -1 -16   58.09   22.50
  -6  -1  16   11.10   25.90
  -6  -1  16   35.00   23.70
  -6   1  16   26.90   22.40
   6   1 -16   43.20   24.30
   5  -1 -16   29.60   21.30
  -5  -1  16   77.59   25.10
  -5  -1  16   -5.80   20.90
  -5   1  16   56.59   22.10
  -5   1  16   20.30   21.80
   5   1 -16   62.39   24.00
   4  -1 -16  144.59   30.10
  -4  -1  16   83.29   28.00
  -4  -1  16  106.09   22.60
  -4   1  16   85.29   19.70
  -4   1  16   71.29   29.00
  -3  -1  16   87.79   23.00
   3  -1 -16   89.09   23.00
  -3  -1  16  106.79   19.10
  -3  -1  16  101.49   34.10
  -3   1  16   71.89   25.10
   3   1 -16   75.39   15.60
  -3   1  16   77.89   21.50
   3   1 -16   98.39   25.20
  -3   1  16   84.89   17.90
   2  -1 -16   33.40   16.50
  -2  -1  16   48.80   23.10
  -2  -1  16   78.49   16.20
  -2  -1  16   55.39   18.30
  -2   1  16   60.59   13.20
  -2   1  16   56.99   24.60
  -2   1  16   63.39   19.90
   2   1 -16   81.99   22.00
   2   1 -16   72.29   15.10
   1  -1 -16  122.59   22.70
   1  -1 -16  133.59   26.70
  -1  -1  16  133.39   20.40
  -1  -1  16  127.19   22.50
  -1   1  16  150.98   26.40
  -1   1  16  209.58   44.70
   1   1 -16  157.78   20.90
  -1   1  16  139.09   21.50
   1   1 -16  134.79   26.20
   0  -1  16   35.10   25.30
   0  -1 -16   35.60   13.80
   0  -1  16   64.59   17.20
   0  -1 -16   89.09   20.80
   0  -1  16   81.89   16.20
   0   1  16   40.00   17.80
   0   1  16   71.59   28.00
   0   1  16   67.89   15.60
   0   1 -16   46.60   13.00
   0   1 -16   61.59   20.20
  -1  -1 -16  151.28   29.80
  -1  -1 -16  136.69   21.40
   1  -1  16  118.69   23.30
   1  -1  16  116.69   35.20
   1  -1  16  125.49   21.70
   1   1  16  123.39   26.80
  -1   1 -16  133.29   24.40
   1   1  16  187.68   45.90
   1   1  16  137.89   21.90
   2  -1  16   69.59   16.40
  -2  -1 -16   77.19   22.50
  -2  -1 -16   38.70   14.50
   2  -1  16   64.99   18.60
   2   1  16  104.29   21.10
   2   1  16   13.00   24.20
  -2   1 -16   44.20   19.80
  -3  -1 -16   54.39   23.10
   3  -1  16   49.70   20.90
   3   1  16   93.19   25.20
  -3   1 -16   87.69   24.20
  -7  -2  16  112.79   19.30
  -6  -2  16  100.79   30.30
  -6   2  16   98.09   25.20
   6   2 -16   75.79   30.90
  -5  -2  16   50.99   31.70
  -5  -2  16  149.79   29.10
   5  -2 -16  138.19   29.70
   5   2 -16   70.49   26.10
  -4  -2  16   89.89   31.80
   4  -2 -16  100.29   24.70
  -4  -2  16  127.99   23.90
  -4   2  16  115.89   29.40
   4   2 -16  120.29   30.10
  -4   2  16  107.19   27.20
  -3  -2  16  119.49   23.20
   3  -2 -16   79.69   23.30
  -3  -2  16   97.79   38.00
  -3  -2  16   99.59   18.40
   3   2 -16  158.18   31.90
   3   2 -16  106.79   18.10
  -3   2  16  109.89   25.70
  -3   2  16  113.99   31.70
  -3   2  16   99.89   17.10
  -2  -2  16  121.49   35.70
  -2  -2  16  123.89   19.90
  -2  -2  16  112.99   23.50
   2  -2 -16   90.59   23.40
   2   2 -16  109.59   26.30
   2   2 -16  122.49   19.80
  -2   2  16  160.18   28.20
  -2   2  16  149.09   32.40
  -2   2  16  121.99   20.60
  -1  -2  16  114.39   23.50
   1  -2 -16  121.19   26.90
  -1  -2  16  112.19   39.40
  -1  -2  16  112.19   19.90
   1   2 -16  111.39   25.80
  -1   2  16  101.39   23.00
  -1   2  16  109.89   19.60
  -1   2  16   72.49   27.10
   0  -2  16   59.09   31.90
   0  -2  16   62.69   17.90
   0  -2  16   86.29   16.80
   0  -2 -16   90.69   22.50
   0   2  16   96.89   35.50
   0   2  16   85.49   22.00
   0   2 -16  112.79   14.80
   0   2  16  103.99   28.80
   0   2 -16   61.59   19.30
   1  -2  16   51.39   13.30
   1  -2  16   87.29   19.70
  -1   2 -16   41.90   17.90
   1   2  16   53.49   26.00
   1   2  16   73.49   20.70
   2  -2  16   57.19   16.40
   2  -2  16   75.39   16.30
  -2  -2 -16   50.79   23.70
   2   2  16   74.39   22.90
  -2   2 -16   75.49   21.10
  -3  -2 -16   34.10   22.50
   3   2  16   25.30   20.40
   6   3 -16   84.99   35.60
  -5  -3  16   30.10   21.60
   5   3 -16   17.10   22.70
  -5   3  16   23.70   18.30
   4  -3 -16    4.10   19.00
   4   3 -16    4.50   22.40
   4   3 -16   38.20   16.20
  -4   3  16   32.10   19.30
  -3  -3  16   75.39   21.60
   3  -3 -16   11.50   20.70
  -3   3  16   59.59   23.70
   3   3 -16    7.00   20.40
   3   3 -16   64.69   15.80
  -2  -3  16   55.29   17.50
   2  -3 -16   34.70   19.60
  -2  -3  16   49.70   14.50
   2   3 -16   21.80   29.80
  -2   3  16   47.70   19.10
  -2   3  16    9.80   19.20
   1  -3 -16   60.49   24.30
  -1  -3  16   59.99   15.40
  -1  -3  16  123.39   23.50
  -1   3  16  120.99   29.10
  -1   3  16   66.39   21.50
   1   3 -16   79.99   15.10
   1   3 -16   76.89   22.20
   0  -3  16   49.40   13.70
   0  -3 -16   46.60   20.70
   0  -3  16   34.20   15.70
   0   3  16   34.10   37.30
   0   3  16   39.10   24.20
   1  -3  16   54.89   18.00
  -1  -3 -16   87.09   24.80
   1  -3  16   54.69   14.40
   1   3  16   45.50   25.20
  -1   3 -16   83.49   23.00
   1   3  16  154.98   45.60
   2  -3  16   45.00   15.10
  -2  -3 -16   35.00   20.10
   2   3  16   49.00   30.50
  -3  -3 -16   47.40   25.00
   4   4 -16   98.99   21.00
  -3   4  16   58.59   25.40
   3   4 -16   88.29   17.90
  -2  -4  16   26.80   19.00
   2  -4 -16   40.90   21.30
  -2   4  16   76.99   25.80
   2   4 -16   50.89   24.70
  -1  -4  16   56.39   21.00
   1  -4 -16   65.29   24.40
   1   4 -16   12.50   20.90
  -1   4  16   63.99   25.10
   0  -4  16   47.90   16.20
   0   4  16   30.20   25.70
  -1  -4 -16   96.89   38.60
  -2  -4 -16   11.60   33.20
  -1   5  16   77.49   29.30
   0   5  16    0.20   29.40
  -7   0  17   32.50   35.40
   6   0 -17  -24.10   24.80
   5   0 -17   -1.40   22.50
  -5   0  17   48.40   28.10
  -5   0  17    2.40   20.50
   4   0 -17   -3.90   16.50
  -4   0  17   33.80   22.50
  -4   0  17    2.10   20.40
   3   0 -17   -1.10   16.70
  -3   0  17    9.50   17.30
  -3   0  17   -0.20   25.50
  -2   0  17   -4.80   14.60
   2   0 -17   15.00   16.50
  -2   0  17   -7.60   21.10
   1   0 -17  -18.00   15.80
  -1   0  17  -16.00   22.60
  -1   0  17  -13.10   13.20
   0   0  17    2.20   14.00
   0   0 -17    9.50   18.20
   0   0  17   12.90   21.30
   0   0 -17   10.40   13.00
  -1   0 -17    6.50   12.50
  -1   0 -17   53.89   19.90
   1   0  17    3.80   15.10
  -2   0 -17   14.80   21.40
  -6  -1  17  -27.60   31.20
  -6   1  17   59.39   27.50
   6   1 -17  -11.30   26.20
  -5  -1  17   -8.20   18.00
  -5  -1  17   14.30   24.40
   5  -1 -17   34.30   25.60
   5   1 -17  -10.80   23.40
  -5   1  17  -13.40   21.40
   4  -1 -17   -6.20   18.10
  -4  -1  17   -1.70   18.60
  -4  -1  17  -25.00   19.80
  -4   1  17  -27.80   15.80
   4   1 -17   -8.40   16.10
  -4   1  17   28.80   22.00
  -3  -1  17   20.50   17.50
  -3  -1  17  -22.60   23.40
   3  -1 -17  -15.60   14.90
   3   1 -17   -5.20   16.80
  -3   1  17   35.60   25.30
  -2  -1  17    4.60   22.70
   2  -1 -17   17.40   17.90
  -2  -1  17    6.20   14.70
   2   1 -17   13.70   12.80
  -2   1  17   28.90   22.10
   2   1 -17  -31.20   16.30
  -2   1  17    6.00   15.10
  -1  -1  17   19.00   15.10
  -1  -1  17    2.70   24.70
   1  -1 -17   25.80   16.20
  -1   1  17   -4.40   13.80
   1   1 -17   12.60   11.50
  -1   1  17   21.90   24.80
   1   1 -17   -1.00   17.40
   0  -1  17  -13.30   12.50
   0  -1 -17   -9.00   16.10
   0   1 -17  -11.60   16.90
   0   1  17   -8.10   15.30
   0   1  17   14.30   19.70
   0   1 -17   16.90   12.50
   1  -1  17   21.60   17.10
  -1  -1 -17  -30.60   15.90
   1   1  17   -3.20   16.60
  -1   1 -17    7.30   10.90
  -2  -1 -17   37.30   23.80
   6   2 -17   53.19   37.50
   5  -2 -17   37.60   36.00
  -5  -2  17   19.30   20.10
  -5   2  17  -11.20   23.60
   5   2 -17   10.40   27.10
   4  -2 -17   23.00   21.30
  -4  -2  17   21.10   17.80
  -4   2  17    9.50   22.80
   4   2 -17  -25.20   22.30
  -3  -2  17  -24.00   15.70
   3  -2 -17    6.70   17.90
  -3   2  17  -17.60   20.90
   3   2 -17  -19.90   18.50
  -3   2  17   12.30   27.90
   2  -2 -17   11.90   16.50
  -2  -2  17    9.20   14.00
   2   2 -17  -11.10   11.80
  -2   2  17  -39.70   17.80
   2   2 -17  -15.00   18.00
  -2   2  17  -14.40   19.70
   1  -2 -17   34.60   21.10
  -1  -2  17   26.80   16.50
  -1   2  17   45.10   23.70
   1   2 -17   26.90   13.10
   1   2 -17   33.70   21.20
  -1   2  17    5.90   22.90
   0  -2  17    0.90   14.60
   0  -2 -17   -3.90   17.90
   0   2 -17   37.40   20.60
   0   2 -17   -8.50    9.80
   0   2  17   21.60   18.20
   0   2  17    4.90   19.20
  -1  -2 -17   -6.20   18.50
   1   2  17   -0.60   19.50
  -1   2 -17    2.20   22.70
  -2  -2 -17  -15.00   24.80
  -4   3  17   18.50   25.10
   3  -3 -17  -13.20   20.30
  -3   3  17    1.40   23.40
   3   3 -17    5.80   25.60
   3   3 -17  -17.10   14.20
   2  -3 -17   51.49   38.70
   2   3 -17   33.20   25.60
   2   3 -17   -1.20   12.80
  -2   3  17   10.70   24.00
   1  -3 -17  -22.00   19.40
   1   3 -17   -9.50   29.20
   1   3 -17    4.90   11.20
  -1   3  17    3.50   22.20
   0  -3 -17  -45.50   18.70
   0   3  17    1.40   22.60
   0   3  17  -21.20   23.30
  -1  -3 -17  -15.40   21.60
   1   3  17   -4.30   23.80
  -2  -3 -17   17.70   28.60
  -2   4  17   54.79   29.80
  -1   4  17  -35.70   24.20
   0  -4 -17   48.00   27.00
   0   4  17   16.20   28.10
  -6   0  18   99.29   43.30
  -5   0  18   93.69   33.30
   5   0 -18  -66.69   45.90
  -4   0  18   74.29   34.40
   4   0 -18   27.70   25.60
  -4   0  18   23.10   24.50
  -3   0  18   49.70   25.10
  -3   0  18   36.20   34.00
   3   0 -18   14.90   24.30
   2   0 -18    8.10   23.20
  -2   0  18   79.49   26.50
   1   0 -18   84.89   25.90
  -1   0  18   23.20   21.60
   0   0 -18  114.79   33.70
   5  -1 -18   16.20   32.30
   5   1 -18   89.29   37.90
  -5   1  18   55.49   37.00
   4   1 -18   75.59   35.00
  -3  -1  18   51.39   24.50
   3  -1 -18   63.89   25.10
  -3   1  18   60.69   27.20
  -3   1  18   66.79   32.40
   3   1 -18  155.58   35.40
  -2  -1  18   55.19   24.70
   2  -1 -18   27.70   23.30
   2   1 -18   39.60   24.00
  -2   1  18   71.49   40.00
  -2   1  18   64.19   32.50
   1  -1 -18    4.90   22.00
   1   1 -18   40.90   29.60
  -1   1  18   56.79   20.60
   0  -1 -18   56.79   26.60
   0   1 -18   54.19   18.00
   0   1  18   51.09   33.20
  -4   2  18   32.00   32.10
   3  -2 -18    6.20   21.20
  -3   2  18   65.09   28.80
   2  -2 -18   35.10   26.10
   2   2 -18   33.70   17.10
  -2   2  18   79.49   35.70
   1  -2 -18   64.09   25.30
  -1   2  18   56.89   28.40
   1   2 -18   36.90   22.90
  -1   2  18   42.10   27.90
   0  -2 -18   77.29   29.50
   0   2  18   92.09   32.60
  -1  -2 -18    6.80   49.40
  -3   3  18   20.80   42.20
   2  -3 -18   52.49   29.80
  -2   3  18   22.70   35.40
   1  -3 -18  -68.39   24.30
  -1   3  18   54.99   30.30
   0  -3 -18   54.69   31.30
   4  -1 -19   -9.60   37.60
   2  -1 -19  -32.50   37.50
  -3   2  19    4.10   41.40
   2  -2 -19   -2.50   35.70
   0   0   0    0.00    0.00

_computing_structure_solution     'SHELXT 2018/2 (Sheldrick, 2018)'
;
_shelx_hkl_checksum              12819
loop_
_space_group_symop_operation_xyz
'x, y, z'
'-x, y+1/2, -z+1/2'
'-x, -y, -z'
'x, -y-1/2, z-1/2'
loop_
_atom_site_label
_atom_site_type_symbol
_atom_site_fract_x
_atom_site_fract_y
_atom_site_fract_z
_atom_site_U_iso_or_equiv
_atom_site_adp_type
_atom_site_occupancy
_atom_site_site_symmetry_order
_atom_site_calc_flag
_atom_site_refinement_flags_posn
_atom_site_refinement_flags_adp
_atom_site_refinement_flags_occupancy
_atom_site_disorder_assembly
_atom_site_disorder_group
Cs1 Cs 0.00790(3) 1.26698(4) 0.13280(2) 0.03342(12) Uani 1 1 d . . . . .
B1 B 0.3411(5) 0.8036(6) 0.1524(3) 0.0231(7) Uani 1 1 d . . . . .
B2 B 0.3883(6) 0.5120(6) 0.2896(3) 0.0250(8) Uani 1 1 d . . . . .
B3 B 0.3731(6) 0.2320(6) 0.4137(3) 0.0253(8) Uani 1 1 d . . . . .
O1 O 0.1766(3) 0.8714(4) 0.0901(2) 0.0225(5) Uani 1 1 d D . . . .
H1 H 0.217(5) 0.979(4) 0.095(4) 0.027 Uiso 1 1 d D U . . .
O2 O 0.2890(3) 0.6565(4) 0.2292(2) 0.0294(6) Uani 1 1 d . . . . .
O3 O 0.5672(3) 0.4843(4) 0.2945(2) 0.0296(6) Uani 1 1 d . . . . .
O4 O 0.2880(3) 0.3842(4) 0.3482(2) 0.0301(6) Uani 1 1 d . . . . .
O5 O 0.5534(3) 0.2049(4) 0.4232(2) 0.0269(5) Uani 1 1 d . . . . .
O6 O 0.2695(4) 0.1099(5) 0.4686(3) 0.0365(7) Uani 1 1 d D . . . .
H2 H 0.334(6) 0.016(6) 0.505(4) 0.044 Uiso 1 1 d D U . . .
loop_
_atom_site_aniso_label
_atom_site_aniso_U_11
_atom_site_aniso_U_22
_atom_site_aniso_U_33
_atom_site_aniso_U_23
_atom_site_aniso_U_13
_atom_site_aniso_U_12
Cs1 0.03033(17) 0.03437(16) 0.03637(17) 0.00047(10) 0.00769(10) -0.00072(9)
B1 0.0191(17) 0.0244(17) 0.0254(19) 0.0003(14) 0.0026(14) 0.0032(14)
B2 0.0249(19) 0.0242(17) 0.027(2) -0.0008(14) 0.0071(16) -0.0004(14)
B3 0.0242(19) 0.0254(17) 0.0271(19) 0.0028(14) 0.0064(15) -0.0024(14)
O1 0.0147(11) 0.0242(11) 0.0264(12) 0.0007(9) -0.0042(9) 0.0061(9)
O2 0.0232(13) 0.0303(13) 0.0361(15) 0.0066(11) 0.0094(11) 0.0034(10)
O3 0.0228(13) 0.0265(12) 0.0404(16) 0.0082(11) 0.0079(12) -0.0001(10)
O4 0.0205(12) 0.0328(13) 0.0387(15) 0.0078(11) 0.0096(11) 0.0000(10)
O5 0.0215(12) 0.0298(12) 0.0298(13) 0.0062(10) 0.0053(10) -0.0004(10)
O6 0.0264(14) 0.0382(15) 0.0478(18) 0.0156(13) 0.0148(13) 0.0009(11)
loop_
_atom_type_symbol
_atom_type_description
_atom_type_scat_dispersion_real
_atom_type_scat_dispersion_imag
_atom_type_scat_source
B B 0.0013 0.0007 'International Tables Vol C Tables 4.2.6.8 and 6.1.1.4'
Cs Cs -0.3680 2.1192 'International Tables Vol C Tables 4.2.6.8 and 6.1.1.4'
O O 0.0106 0.0060 'International Tables Vol C Tables 4.2.6.8 and 6.1.1.4'
H H 0.0000 0.0000 'International Tables Vol C Tables 4.2.6.8 and 6.1.1.4'
loop_
_geom_angle_atom_site_label_1
_geom_angle_atom_site_label_2
_geom_angle_atom_site_label_3
_geom_angle
_geom_angle_site_symmetry_1
_geom_angle_site_symmetry_3
_geom_angle_publ_flag
O1 Cs1 O1 74.31(7) . 3_575 ?
O1 Cs1 O2 105.59(7) . 2 ?
O1 Cs1 O2 99.96(7) 3_575 2 ?
O1 Cs1 O6 76.76(7) . 4_575 ?
O1 Cs1 O6 73.91(7) 3_575 4_575 ?
O2 Cs1 O6 172.76(8) 2 4_575 ?
O1 Cs1 O6 144.19(7) . 2_565 ?
O1 Cs1 O6 70.04(7) 3_575 2_565 ?
O2 Cs1 O6 84.04(7) 2 2_565 ?
O6 Cs1 O6 90.16(7) 4_575 2_565 ?
O1 Cs1 O4 96.23(7) . 1_565 ?
O1 Cs1 O4 166.74(7) 3_575 1_565 ?
O2 Cs1 O4 91.45(7) 2 1_565 ?
O6 Cs1 O4 95.11(7) 4_575 1_565 ?
O6 Cs1 O4 118.30(7) 2_565 1_565 ?
O1 Cs1 O4 71.53(6) . 2 ?
O1 Cs1 O4 68.53(7) 3_575 2 ?
O2 Cs1 O4 41.50(6) 2 2 ?
O6 Cs1 O4 135.86(7) 4_575 2 ?
O6 Cs1 O4 97.91(7) 2_565 2 ?
O4 Cs1 O4 117.87(6) 1_565 2 ?
O1 Cs1 O2 116.46(6) . 1_565 ?
O1 Cs1 O2 135.66(7) 3_575 1_565 ?
O2 Cs1 O2 115.88(5) 2 1_565 ?
O6 Cs1 O2 68.05(7) 4_575 1_565 ?
O6 Cs1 O2 87.83(7) 2_565 1_565 ?
O4 Cs1 O2 40.54(6) 1_565 1_565 ?
O4 Cs1 O2 154.96(7) 2 1_565 ?
O1 Cs1 B2 98.68(8) . 1_565 ?
O1 Cs1 B2 147.53(8) 3_575 1_565 ?
O2 Cs1 B2 112.39(8) 2 1_565 ?
O6 Cs1 B2 73.62(9) 4_575 1_565 ?
O6 Cs1 B2 109.49(8) 2_565 1_565 ?
O4 Cs1 B2 22.94(8) 1_565 1_565 ?
O4 Cs1 B2 140.33(8) 2 1_565 ?
O2 Cs1 B2 22.13(8) 1_565 1_565 ?
O1 Cs1 B2 92.84(8) . 2 ?
O1 Cs1 B2 80.42(8) 3_575 2 ?
O2 Cs1 B2 21.03(8) 2 2 ?
O6 Cs1 B2 154.05(9) 4_575 2 ?
O6 Cs1 B2 84.59(8) 2_565 2 ?
O4 Cs1 B2 109.77(8) 1_565 2 ?
O4 Cs1 B2 22.43(7) 2 2 ?
O2 Cs1 B2 136.81(8) 1_565 2 ?
B2 Cs1 B2 132.00(5) 1_565 2 ?
O1 Cs1 O3 39.54(6) . 2_655 ?
O1 Cs1 O3 109.82(6) 3_575 2_655 ?
O2 Cs1 O3 114.94(7) 2 2_655 ?
O6 Cs1 O3 71.32(7) 4_575 2_655 ?
O6 Cs1 O3 160.18(7) 2_565 2_655 ?
O4 Cs1 O3 58.61(6) 1_565 2_655 ?
O4 Cs1 O3 100.33(6) 2 2_655 ?
O2 Cs1 O3 78.88(6) 1_565 2_655 ?
B2 Cs1 O3 59.36(7) 1_565 2_655 ?
B2 Cs1 O3 115.14(8) 2 2_655 ?
O1 Cs1 B1 18.13(8) . . ?
O1 Cs1 B1 91.86(8) 3_575 . ?
O2 Cs1 B1 107.49(8) 2 . ?
O6 Cs1 B1 76.94(8) 4_575 . ?
O6 Cs1 B1 160.29(8) 2_565 . ?
O4 Cs1 B1 78.18(8) 1_565 . ?
O4 Cs1 B1 81.86(7) 2 . ?
O2 Cs1 B1 100.72(7) 1_565 . ?
B2 Cs1 B1 81.39(9) 1_565 . ?
B2 Cs1 B1 100.46(9) 2 . ?
O3 Cs1 B1 22.06(7) 2_655 . ?
O1 B1 O2 105.2(3) . . ?
O1 B1 O3 108.3(3) . 2_655 ?
O2 B1 O3 112.3(3) . 2_655 ?
O1 B1 O5 107.0(3) . 2_655 ?
O2 B1 O5 111.7(3) . 2_655 ?
O3 B1 O5 111.9(3) 2_655 2_655 ?
O1 B1 Cs1 39.79(15) . . ?
O2 B1 Cs1 108.0(2) . . ?
O3 B1 Cs1 70.79(17) 2_655 . ?
O5 B1 Cs1 134.5(2) 2_655 . ?
O3 B2 O2 125.5(3) . . ?
O3 B2 O4 120.8(3) . . ?
O2 B2 O4 113.7(3) . . ?
O3 B2 Cs1 132.4(2) . 1_545 ?
O2 B2 Cs1 70.8(2) . 1_545 ?
O4 B2 Cs1 64.9(2) . 1_545 ?
O3 B2 Cs1 153.4(3) . 2_545 ?
O2 B2 Cs1 55.52(18) . 2_545 ?
O4 B2 Cs1 66.44(19) . 2_545 ?
Cs1 B2 Cs1 74.18(8) 1_545 2_545 ?
O5 B3 O6 121.5(3) . . ?
O5 B3 O4 121.0(3) . . ?
O6 B3 O4 117.5(3) . . ?
B1 O1 Cs1 122.1(2) . . ?
B1 O1 Cs1 130.2(2) . 3_575 ?
Cs1 O1 Cs1 105.69(7) . 3_575 ?
B2 O2 B1 129.8(3) . . ?
B2 O2 Cs1 103.4(2) . 2_545 ?
B1 O2 Cs1 120.5(2) . 2_545 ?
B2 O2 Cs1 87.1(2) . 1_545 ?
B1 O2 Cs1 118.0(2) . 1_545 ?
Cs1 O2 Cs1 84.50(6) 2_545 1_545 ?
B2 O3 B1 121.7(3) . 2_645 ?
B2 O3 Cs1 140.3(2) . 2_645 ?
B1 O3 Cs1 87.15(19) 2_645 2_645 ?
B3 O4 B2 119.6(3) . . ?
B3 O4 Cs1 120.8(2) . 1_545 ?
B2 O4 Cs1 92.2(2) . 1_545 ?
B3 O4 Cs1 137.6(2) . 2_545 ?
B2 O4 Cs1 91.1(2) . 2_545 ?
Cs1 O4 Cs1 82.84(6) 1_545 2_545 ?
B3 O5 B1 121.4(3) . 2_645 ?
B3 O6 Cs1 130.0(2) . 4_576 ?
B3 O6 Cs1 126.4(3) . 2_535 ?
Cs1 O6 Cs1 89.84(7) 4_576 2_535 ?
loop_
_geom_bond_atom_site_label_1
_geom_bond_atom_site_label_2
_geom_bond_distance
_geom_bond_site_symmetry_2
_geom_bond_publ_flag
Cs1 O1 2.936(2) . ?
Cs1 O1 3.051(2) 3_575 ?
Cs1 O2 3.105(3) 2 ?
Cs1 O6 3.153(3) 4_575 ?
Cs1 O6 3.172(3) 2_565 ?
Cs1 O4 3.247(3) 1_565 ?
Cs1 O4 3.359(3) 2 ?
Cs1 O2 3.388(3) 1_565 ?
Cs1 B2 3.583(4) 1_565 ?
Cs1 B2 3.664(4) 2 ?
Cs1 O3 3.675(3) 2_655 ?
Cs1 B1 3.887(4) . ?
B1 O1 1.427(4) . ?
B1 O2 1.446(5) . ?
B1 O3 1.462(5) 2_655 ?
B1 O5 1.468(5) 2_655 ?
B2 O3 1.351(5) . ?
B2 O2 1.352(5) . ?
B2 O4 1.398(5) . ?
B3 O5 1.356(5) . ?
B3 O6 1.364(5) . ?
B3 O4 1.373(5) . ?
loop_
_geom_hbond_atom_site_label_D
_geom_hbond_atom_site_label_H
_geom_hbond_atom_site_label_A
_geom_hbond_distance_DH
_geom_hbond_distance_HA
_geom_hbond_distance_DA
_geom_hbond_angle_DHA
_geom_hbond_site_symmetry_A
_geom_hbond_publ_flag
O6 H2 O5 0.866(19) 1.82(2) 2.681(4) 173(5) 3_656 yes
loop_
_geom_torsion_atom_site_label_1
_geom_torsion_atom_site_label_2
_geom_torsion_atom_site_label_3
_geom_torsion_atom_site_label_4
_geom_torsion
_geom_torsion_site_symmetry_1
_geom_torsion_site_symmetry_2
_geom_torsion_site_symmetry_3
_geom_torsion_site_symmetry_4
_geom_torsion_publ_flag
O2 B1 O1 Cs1 100.1(3) . . . . ?
O3 B1 O1 Cs1 -20.2(4) 2_655 . . . ?
O5 B1 O1 Cs1 -141.0(2) 2_655 . . . ?
O2 B1 O1 Cs1 -98.8(3) . . . 3_575 ?
O3 B1 O1 Cs1 141.0(2) 2_655 . . 3_575 ?
O5 B1 O1 Cs1 20.1(4) 2_655 . . 3_575 ?
Cs1 B1 O1 Cs1 161.2(4) . . . 3_575 ?
O3 B2 O2 B1 4.3(6) . . . . ?
O4 B2 O2 B1 -174.6(3) . . . . ?
Cs1 B2 O2 B1 -124.7(4) 1_545 . . . ?
Cs1 B2 O2 B1 151.6(4) 2_545 . . . ?
O3 B2 O2 Cs1 -147.4(3) . . . 2_545 ?
O4 B2 O2 Cs1 33.8(3) . . . 2_545 ?
Cs1 B2 O2 Cs1 83.64(9) 1_545 . . 2_545 ?
O3 B2 O2 Cs1 129.0(4) . . . 1_545 ?
O4 B2 O2 Cs1 -49.9(3) . . . 1_545 ?
Cs1 B2 O2 Cs1 -83.64(9) 2_545 . . 1_545 ?
O1 B1 O2 B2 162.9(3) . . . . ?
O3 B1 O2 B2 -79.5(5) 2_655 . . . ?
O5 B1 O2 B2 47.2(5) 2_655 . . . ?
Cs1 B1 O2 B2 -155.6(3) . . . . ?
O1 B1 O2 Cs1 -49.5(3) . . . 2_545 ?
O3 B1 O2 Cs1 68.1(3) 2_655 . . 2_545 ?
O5 B1 O2 Cs1 -165.3(2) 2_655 . . 2_545 ?
Cs1 B1 O2 Cs1 -8.0(3) . . . 2_545 ?
O1 B1 O2 Cs1 51.3(3) . . . 1_545 ?
O3 B1 O2 Cs1 168.88(19) 2_655 . . 1_545 ?
O5 B1 O2 Cs1 -64.5(3) 2_655 . . 1_545 ?
Cs1 B1 O2 Cs1 92.79(18) . . . 1_545 ?
O2 B2 O3 B1 -169.8(4) . . . 2_645 ?
O4 B2 O3 B1 9.0(5) . . . 2_645 ?
Cs1 B2 O3 B1 -73.8(4) 1_545 . . 2_645 ?
Cs1 B2 O3 B1 107.7(5) 2_545 . . 2_645 ?
O2 B2 O3 Cs1 59.5(6) . . . 2_645 ?
O4 B2 O3 Cs1 -121.7(3) . . . 2_645 ?
Cs1 B2 O3 Cs1 155.42(16) 1_545 . . 2_645 ?
Cs1 B2 O3 Cs1 -23.0(8) 2_545 . . 2_645 ?
O5 B3 O4 B2 0.6(5) . . . . ?
O6 B3 O4 B2 -179.5(3) . . . . ?
O5 B3 O4 Cs1 113.6(3) . . . 1_545 ?
O6 B3 O4 Cs1 -66.5(4) . . . 1_545 ?
O5 B3 O4 Cs1 -130.4(3) . . . 2_545 ?
O6 B3 O4 Cs1 49.5(5) . . . 2_545 ?
O3 B2 O4 B3 1.7(5) . . . . ?
O2 B2 O4 B3 -179.4(3) . . . . ?
Cs1 B2 O4 B3 127.7(3) 1_545 . . . ?
Cs1 B2 O4 B3 -149.4(3) 2_545 . . . ?
O3 B2 O4 Cs1 -126.0(3) . . . 1_545 ?
O2 B2 O4 Cs1 52.9(3) . . . 1_545 ?
Cs1 B2 O4 Cs1 82.87(7) 2_545 . . 1_545 ?
O3 B2 O4 Cs1 151.1(3) . . . 2_545 ?
O2 B2 O4 Cs1 -30.0(3) . . . 2_545 ?
Cs1 B2 O4 Cs1 -82.87(7) 1_545 . . 2_545 ?
O6 B3 O5 B1 166.6(4) . . . 2_645 ?
O4 B3 O5 B1 -13.5(5) . . . 2_645 ?
O5 B3 O6 Cs1 123.0(3) . . . 4_576 ?
O4 B3 O6 Cs1 -57.0(5) . . . 4_576 ?
O5 B3 O6 Cs1 -109.1(4) . . . 2_535 ?
O4 B3 O6 Cs1 71.0(4) . . . 2_535 ?
