#------------------------------------------------------------------------------
#$Date: 2022-09-06 01:52:16 +0300 (Tue, 06 Sep 2022) $
#$Revision: 277637 $
#$URL: file:///home/coder/svn-repositories/cod/cif/7/71/11/7711154.cif $
#------------------------------------------------------------------------------
#
# This file is available in the Crystallography Open Database (COD),
# http://www.crystallography.net/
#
# All data on this site have been placed in the public domain by the
# contributors.
#
data_7711154
loop_
_publ_author_name
'Svensson Grape, Erik'
'Rooth, Victoria'
'Smolders, Simon'
'Thiriez, Ambre'
'Takki, Sofia'
'De Vos, Dirk'
'Willhammar, Tom'
'Inge, A. Ken'
_publ_section_title
;
 Bismuth gallate coordination networks inspired by an active
 pharmaceutical ingredient
;
_journal_name_full               'Dalton Transactions'
_journal_paper_doi               10.1039/D2DT02260E
_journal_year                    2022
_chemical_formula_sum            'C7 H3 Bi O5'
_chemical_formula_weight         376.08
_space_group_crystal_system      monoclinic
_space_group_IT_number           14
_space_group_name_Hall           '-P 2ybc'
_space_group_name_H-M_alt        'P 1 21/c 1'
_atom_sites_solution_hydrogens   geom
_audit_creation_method           SHELXL-2018/1
_audit_update_record
;
2022-08-16 deposited with the CCDC.	2022-08-29 downloaded from the CCDC.
;
_cell_angle_alpha                90
_cell_angle_beta                 104.8(2)
_cell_angle_gamma                90
_cell_formula_units_Z            4
_cell_length_a                   11.75(6)
_cell_length_b                   7.64(4)
_cell_length_c                   10.11(5)
_cell_measurement_reflns_used    7034
_cell_measurement_temperature    293(2)
_cell_measurement_theta_max      0.897
_cell_measurement_theta_min      0.113
_cell_volume                     877(8)
_computing_cell_refinement
;
Kabsch, W. (2010). XDS. Acta Crystallographica Section D:
Biological Crystallography, 66(2), 125-132.
;
_computing_data_collection
;
Stef Smeets, Bin Wang, Magdalena O. Cichocka, Jonas Angstrom, Wei Wan.
(2018, April 11). Instamatic (Version 0.6). Zenodo.
http://doi.org/10.5281/zenodo.1217026
;
_computing_data_reduction
;
Kabsch, W. (2010). XDS. Acta Crystallographica Section D:
Biological Crystallography, 66(2), 125-132.
;
_computing_structure_refinement  'SHELXL-2018/1 (Sheldrick, 2018)'
_computing_structure_solution    'SHELXT 2014/5 (Sheldrick, 2014)'
_diffrn_ambient_temperature      293(2)
_diffrn_measured_fraction_theta_full 0.905
_diffrn_measured_fraction_theta_max 0.888
_diffrn_measurement_device_type  'JOEL JEM-2100 LaB6'
_diffrn_measurement_method       'continuous rotation'
_diffrn_radiation_type           electron
_diffrn_radiation_wavelength     0.0251
_diffrn_reflns_av_R_equivalents  0.2322
_diffrn_reflns_av_unetI/netI     0.2051
_diffrn_reflns_Laue_measured_fraction_full 0.905
_diffrn_reflns_Laue_measured_fraction_max 0.888
_diffrn_reflns_limit_h_max       14
_diffrn_reflns_limit_h_min       -14
_diffrn_reflns_limit_k_max       9
_diffrn_reflns_limit_k_min       -9
_diffrn_reflns_limit_l_max       12
_diffrn_reflns_limit_l_min       -12
_diffrn_reflns_number            7034
_diffrn_reflns_point_group_measured_fraction_full 0.905
_diffrn_reflns_point_group_measured_fraction_max 0.888
_diffrn_reflns_theta_full        0.863
_diffrn_reflns_theta_max         0.897
_diffrn_reflns_theta_min         0.113
_exptl_absorpt_coefficient_mu    0.000
_exptl_crystal_colour            yellow
_exptl_crystal_density_diffrn    2.846
_exptl_crystal_description       plate
_exptl_crystal_F_000             169
_refine_diff_density_max         0.332
_refine_diff_density_min         -0.604
_refine_diff_density_rms         0.139
_refine_ls_extinction_method     none
_refine_ls_goodness_of_fit_ref   1.138
_refine_ls_hydrogen_treatment    constr
_refine_ls_matrix_type           full
_refine_ls_number_parameters     119
_refine_ls_number_reflns         1590
_refine_ls_number_restraints     176
_refine_ls_restrained_S_all      1.080
_refine_ls_R_factor_all          0.2390
_refine_ls_R_factor_gt           0.2043
_refine_ls_shift/su_max          0.000
_refine_ls_shift/su_mean         0.000
_refine_ls_structure_factor_coef Fsqd
_refine_ls_weighting_details
'w=1/[\s^2^(Fo^2^)+(0.2298P)^2^+2.1700P] where P=(Fo^2^+2Fc^2^)/3'
_refine_ls_weighting_scheme      calc
_refine_ls_wR_factor_gt          0.4858
_refine_ls_wR_factor_ref         0.5092
_reflns_Friedel_coverage         0.000
_reflns_number_gt                1240
_reflns_number_total             1590
_reflns_threshold_expression     'I > 2\s(I)'
_cod_data_source_file            d2dt02260e2.cif
_cod_data_source_block           2
_cod_original_cell_volume        878(8)
_cod_original_sg_symbol_H-M      'P 21/c'
_cod_database_code               7711154
_shelx_shelxl_version_number     2018/1
_shelx_space_group_comment
;
The symmetry employed for this shelxl refinement is uniquely defined
by the following loop, which should always be used as a source of
symmetry information in preference to the above space-group names.
They are only intended as comments.
;
_shelx_res_file
;
TITL 2
    P21c_#11.res
    created by SHELXL-2018/1 at 15:45:29 on 16-Aug-2022
CELL  0.0251  11.7500   7.6400  10.1100   90.000  104.758   90.000
ZERR    4.000   0.0575   0.0382   0.0505    0.000    0.20    0.000
LATT  1
SYMM -X, 1/2+Y, 1/2-Z
SFAC C  0.600 40.938 0.136 0.374 0.547 3.278 1.225 13.013 0 0 0 0 0.77 12.011
SFAC H  0.129 37.737 0.036 0.553 0.127 3.772 0.236 13.518 0 0 0 0 0.32 1.008
SFAC O  0.392 25.675 0.144 0.306 0.511 2.272 0.937 8.270 0 0 0 0 0.73 15.999
SFAC BI 3.192 56.775 1.465 0.340 3.644 2.982 4.784 14.850 0 0 0 0 1.46 208.980
UNIT 28 12 20 4
L.S. 40
BOND $H
LIST 6
FMAP 2
PLAN 10
ACTA
SIMU 0.01 0.02 3 C4 O3 C5 O4 C6 O5 C2 C7 C3
SIMU 0.01 0.02 3 O2 C1 O1
DFIX 1.34 C1 C2
DANG 2.2 H1 O2
WGHT    0.229800    2.170000
FVAR       1.35039
BI1   4    0.536074    0.972872    0.705580    11.00000    0.07743    0.02521 =
         0.03610   -0.00194    0.02658   -0.00699
O1    3    0.131688    0.475984    0.728461    11.00000    0.24929    0.09893 =
         0.06130   -0.02307    0.07416   -0.03731
AFIX 147
H1    2    0.102407    0.402858    0.769207    11.00000   -1.50000
AFIX   0
O2    3    0.075886    0.270930    0.570443    11.00000    0.25008    0.09588 =
         0.06320   -0.00893    0.08114   -0.03843
O3    3    0.404202    0.376165    0.295463    11.00000    0.11590    0.01923 =
         0.04398   -0.00852    0.04679   -0.00354
O4    3    0.467266    0.724730    0.340672    11.00000    0.11814    0.01958 =
         0.04332   -0.00949    0.04856   -0.00473
O5    3    0.390054    0.920996    0.530847    11.00000    0.11859    0.02259 =
         0.04445   -0.00765    0.05054   -0.00470
C1    1    0.145707    0.406509    0.611815    11.00000    0.24776    0.07539 =
         0.04829   -0.02027    0.07700   -0.04227
C2    1    0.216745    0.484731    0.540956    11.00000    0.11725    0.02420 =
         0.04542   -0.00766    0.04807   -0.00513
C3    1    0.271771    0.384948    0.452904    11.00000    0.11684    0.01990 =
         0.04371   -0.01140    0.04631   -0.00514
AFIX  43
H3    2    0.252115    0.267524    0.437096    11.00000   -1.20000
AFIX   0
C4    1    0.358098    0.463447    0.387335    11.00000    0.11469    0.01670 =
         0.04380   -0.00799    0.05007   -0.00937
C5    1    0.379866    0.653055    0.398367    11.00000    0.11543    0.01976 =
         0.04226   -0.01086    0.05072   -0.00548
C6    1    0.346431    0.750248    0.507813    11.00000    0.11647    0.02026 =
         0.04363   -0.01050    0.05177   -0.00537
C7    1    0.256233    0.672348    0.565852    11.00000    0.11537    0.02243 =
         0.04293   -0.00996    0.05044   -0.00544
AFIX  43
H7    2    0.221689    0.741605    0.620551    11.00000   -1.20000
AFIX   0
HKLF 4




REM  2
REM R1 =  0.2043 for    1240 Fo > 4sig(Fo)  and  0.2390 for all    1590 data
REM    119 parameters refined using    176 restraints

END

WGHT      0.2000      0.0000

REM Highest difference peak  0.332,  deepest hole -0.604,  1-sigma level  0.139
Q1    1  -0.0376  0.1616  0.5872  11.00000  0.05    0.33
Q2    1   0.4212  0.5159  0.5636  11.00000  0.05    0.33
Q3    1   0.4612  0.8703  0.5151  11.00000  0.05    0.31
Q4    1   0.5257  0.9650  0.5523  11.00000  0.05    0.31
Q5    1   0.4613  0.9658  0.5981  11.00000  0.05    0.31
Q6    1   0.5424  0.8124  0.5094  11.00000  0.05    0.30
Q7    1  -0.0691  0.3827  0.5952  11.00000  0.05    0.30
Q8    1   0.0545  0.4538  0.8084  11.00000  0.05    0.30
Q9    1   0.3359  0.6419  0.6964  11.00000  0.05    0.30
Q10   1   0.0984  0.6427  0.3616  11.00000  0.05    0.29
;
_shelx_res_checksum              62327
_shelx_hkl_file
;
   0   0  -2  645.81  204.62
   0   0  -2  688.46  151.51
   0   0   2  560.46  177.62
   0   0  -4  122.48   38.92
   0   0  -4  170.30   39.66
   0   0   4  135.67   43.11
   0   0   4  184.45   42.69
   0   0  -6   37.59   12.04
   0   0  -6   21.96    9.33
   0   0   6   39.80   12.78
   0   0   6   33.43   11.79
   0   0  -8  139.61   44.34
   0   0  -8  175.41   43.61
   0   0   8  117.83   37.41
   0   0   8  188.64   47.58
   0   0 -10   66.24   21.08
   0   0 -10  101.46   29.49
   0   0  10   55.50   17.67
   0   0  10   96.68   31.36
   0   0 -12   39.31   15.84
   0   1   1  377.98   83.55
   0   1  -1  244.49   54.09
   0  -1   1  297.25   94.25
   0  -1   1  357.47   78.83
   0  -1  -2  168.97   53.64
   0  -1  -2   27.13    7.60
   0   1  -2   26.57    7.88
   0  -1   2  191.14   60.64
   0  -1   2   23.65    7.39
   0   1   3  548.82  121.84
   0  -1  -3  664.92  210.81
   0  -1  -3  538.75  119.55
   0   1  -3  623.95  138.45
   0   1   4   17.95    7.78
   0  -1  -4   61.45   19.57
   0   1  -4   45.08   14.43
   0  -1   4   74.12   23.62
   0  -1   4   12.92    6.58
   0   1   5  929.19  294.61
   0   1   5 1429.79  315.83
   0  -1  -5  909.45  288.20
   0  -1  -5 1532.98  338.39
   0   1  -5  829.84  263.11
   0  -1   5  952.77  302.00
   0  -1   5 1338.71  295.63
   0   1   6  232.91   73.87
   0   1   6  223.31   53.39
   0  -1  -6  217.64   69.05
   0  -1  -6  281.24   65.28
   0   1  -6  223.24   70.81
   0  -1   6  264.31   83.87
   0  -1   6  305.94   71.97
   0   1   7   81.83   26.01
   0   1   7  124.76   32.34
   0  -1  -7  100.94   32.10
   0  -1  -7  186.60   44.63
   0   1  -7  125.01   39.73
   0   1  -7  213.73   55.32
   0  -1   7  151.05   47.97
   0  -1   7  188.01   48.53
   0   1   8   11.02    3.66
   0  -1  -8   13.16    4.36
   0  -1  -8   15.27    7.85
   0   1  -8   20.91    6.79
   0   1  -8   11.16   10.91
   0  -1   8   33.75   10.84
   0  -1   8   15.70   10.70
   0   1   9   22.88    7.36
   0  -1  -9   25.73    8.31
   0  -1  -9   72.36   20.62
   0   1  -9   22.74    7.39
   0   1  -9   63.38   22.10
   0  -1   9   35.12   11.26
   0  -1   9   80.31   25.48
   0   1  10    5.95    2.01
   0  -1 -10    6.90    2.43
   0  -1 -10    4.22    5.60
   0   1 -10    5.14    1.94
   0   1 -10    4.65    8.24
   0  -1  10   12.49    4.12
   0  -1  10    2.71    6.86
   0   1  11    5.42    1.83
   0  -1 -11    2.82    1.23
   0  -1 -11    4.15    5.53
   0   1 -11    3.84    8.69
   0   1 -11    2.85    1.23
   0  -1  11    9.96    3.27
   0  -1  11   -3.20    6.23
   0  -1 -12    2.78    5.53
   0  -1  12    1.79    6.79
   0   2   0  609.31  193.11
   0  -2   0  516.37  163.69
   0   2   1  359.89  114.20
   0   2   1  282.01   62.61
   0  -2  -1  319.21  101.25
   0  -2  -1  307.88   68.03
   0   2  -1  359.72  114.06
   0   2  -1  377.35   83.16
   0  -2   1  353.98   77.95
   0   2   2 1200.50  263.74
   0   2  -2  892.27  282.85
   0   2  -2 1499.23  328.82
   0  -2   2  839.41  266.03
   0  -2   2 1328.54  291.76
   0   2   3   99.21   31.57
   0   2   3   11.90    6.26
   0  -2  -3  152.39   48.43
   0  -2  -3   10.00    5.35
   0   2  -3   81.79   26.01
   0   2  -3    6.05    5.46
   0  -2   3    8.55    5.21
   0   2   4  298.45   94.64
   0  -2  -4  287.99   91.40
   0  -2  -4  422.01   94.53
   0   2  -4  258.96   82.11
   0   2  -4  334.10   75.98
   0  -2   4  307.42   97.45
   0   2   5   15.66    5.17
   0   2   5    4.58    4.82
   0  -2  -5   14.68    4.89
   0  -2  -5    1.65    4.08
   0   2  -5   10.21    3.48
   0   2  -5    1.37    5.77
   0   2   6   32.27   10.35
   0   2   6   47.62   14.11
   0  -2  -6   40.97   13.09
   0   2  -6   42.97   13.76
   0   2  -6   45.96   18.30
   0  -2   6   29.53    9.50
   0  -2   6   49.59   20.06
   0   2   7   12.11    3.98
   0   2   7   14.68    6.97
   0  -2  -7   24.71    7.95
   0  -2  -7   20.45    9.43
   0   2  -7   15.77   15.38
   0  -2   7   15.66    5.10
   0  -2   7   20.03   13.55
   0   2   8   55.25   17.60
   0   2   8   88.97   23.62
   0  -2  -8   39.80   12.71
   0  -2  -8   89.11   24.25
   0   2  -8  165.27   48.81
   0  -2   8   65.28   20.76
   0  -2   8   93.83   30.69
   0   2   9   26.61    8.52
   0   2   9    5.88    4.75
   0  -2  -9    9.22    6.09
   0   2  -9   19.39    6.30
   0  -2   9   15.91    5.21
   0  -2   9    0.00    7.43
   0   2  10   35.12   11.19
   0   2  10   60.08   18.05
   0  -2 -10   49.41   15.73
   0  -2 -10   58.49   17.00
   0   2 -10   50.15   15.98
   0  -2  10   53.07   16.93
   0  -2  10   22.52   17.21
   0   2  11    6.83    2.25
   0   2  11    3.84    5.07
   0  -2 -11   10.42    3.41
   0  -2 -11    2.71    4.72
   0   2 -11   12.42    4.05
   0  -2  11   13.13    4.33
   0  -2  11   -7.39   11.68
   0   3   1  314.11   99.60
   0  -3  -1  282.26   62.47
   0   3  -1  398.99  126.49
   0   3  -1  369.50   81.51
   0  -3   1  328.96   72.46
   0   3   2  299.64   95.16
   0  -3  -2  386.08  122.62
   0  -3  -2  393.64   87.46
   0   3  -2  408.11  129.34
   0   3  -2  351.17   78.41
   0  -3   2  434.36  137.68
   0  -3   2  344.23   76.69
   0   3   3  778.91  172.73
   0  -3  -3  884.64  195.08
   0   3  -3  636.80  201.91
   0   3  -3  872.53  193.18
   0  -3   3  778.91  246.85
   0  -3   3  846.42  188.18
   0   3   4  202.86   64.65
   0   3   4  160.80   38.43
   0  -3  -4  165.80   52.72
   0   3  -4  196.28   48.78
   0   3  -4  154.33   48.99
   0  -3   4  181.88   45.01
   0   3   5  376.22  119.34
   0  -3  -5  369.26  117.20
   0  -3  -5  300.10   68.10
   0   3  -5  345.39   82.81
   0  -3   5  320.69  101.64
   0   3   6  254.00   80.56
   0   3   6  246.22   57.96
   0  -3  -6  286.27   90.84
   0  -3  -6  289.54   65.99
   0   3  -6  223.73   70.95
   0   3  -6  279.79   69.68
   0  -3   6  248.33   78.73
   0  -3   6  519.57  124.45
   0   3   7  295.70   93.83
   0   3   7  304.29   70.39
   0  -3  -7  211.30   67.08
   0  -3  -7  316.29   72.75
   0   3  -7  195.15   61.91
   0   3  -7  323.86   80.81
   0  -3   7  228.06   72.36
   0   3   8   13.09    4.29
   0   3   8    7.46    5.17
   0  -3  -8   14.39    4.72
   0   3  -8   12.35    4.05
   0   3  -8   -0.53   11.58
   0   3   9   16.40    5.31
   0   3   9   13.48    6.62
   0  -3  -9    8.94    2.99
   0   3  -9   10.84   16.19
   0   3  -9    8.52    2.82
   0  -3   9    9.57    3.13
   0  -3   9    0.07   15.59
   0   3  10    4.01    1.44
   0   3  10    5.84    4.79
   0  -3 -10    5.14    1.79
   0  -3 -10    7.36    5.67
   0   3 -10    3.70    1.37
   0   3 -10   -1.58   14.29
   0  -3  10    3.06    1.13
   0  -3  10   -3.98   15.94
   0   3  11    3.20    1.13
   0   3  11    1.48    3.80
   0  -3 -11    5.56    1.87
   0  -3 -11    3.80    4.40
   0   3 -11   -0.95   13.87
   0  -3  11    5.38    1.83
   0  -3  11   -3.70    9.92
   0  -4   0  260.44   82.60
   0   4   1  455.06  144.26
   0  -4  -1  472.51  149.79
   0  -4  -1  342.40   75.84
   0   4  -1  335.33  106.36
   0  -4   1  332.51   73.45
   0   4   2  266.49   84.50
   0  -4  -2  341.42   76.05
   0  -4  -2  320.72  101.78
   0   4  -2  253.61   80.45
   0   4  -2  363.27   81.97
   0  -4   2  317.94  100.83
   0  -4   2  482.19  107.38
   0   4   3  114.45   36.57
   0  -4  -3  121.63   38.78
   0  -4  -3  152.78   35.30
   0   4  -3  206.66   65.53
   0   4  -3  160.41   40.09
   0  -4   3  245.27   57.89
   0  -4  -4  124.31   29.35
   0   4  -4   84.71   25.34
   0  -4   4   82.11   26.11
   0   4   5  100.76   32.55
   0  -4  -5  136.80   43.92
   0   4  -5  100.69   31.96
   0   4  -5   79.12   26.40
   0  -4   5   85.80   27.28
   0  -4   5   75.42   26.75
   0   4   6   61.73   19.71
   0   4   6   25.76   10.24
   0  -4  -6   77.95   24.85
   0  -4  -6   19.22    7.18
   0   4  -6   50.43   16.05
   0   4  -6    7.39   15.80
   0  -4   6   52.26   16.65
   0   4   7   27.13    8.73
   0  -4  -7    9.33    4.96
   0  -4  -7   37.69   12.04
   0   4  -7   -5.46   11.90
   0  -4   7   18.48    5.95
   0  -4   7   -3.52   17.32
   0   4   8   40.12   12.81
   0   4   8    6.37    4.86
   0  -4  -8   10.38    3.41
   0  -4  -8    9.47    4.75
   0   4  -8   14.04    4.54
   0   4  -8   -2.29   15.91
   0  -4   8   13.41    4.33
   0  -4   8   -2.36   28.19
   0   4   9   11.97    3.94
   0   4   9   18.83    8.02
   0  -4  -9   27.42    8.76
   0  -4  -9   13.58    6.69
   0   4  -9   18.44    5.91
   0   4  -9   -1.09   22.03
   0  -4   9   17.77    5.74
   0   4  10   18.44    5.95
   0   4  10   14.36    6.90
   0  -4 -10   15.56    5.03
   0   4 -10  -16.93   20.27
   0   4 -10   20.80    6.65
   0  -4  10   -0.77   36.36
   0   4 -11   -1.02   21.12
   0  -4  11    4.29   25.97
   0   5   1   50.26   16.01
   0  -5  -1   64.58   20.52
   0  -5  -1   41.53   10.21
   0  -5   1   40.83    9.92
   0  -5  -2   77.15   18.41
   0   5  -2  105.97   33.65
   0  -5   2  128.46   30.55
   0   5   3  129.73   41.21
   0  -5  -3  133.42   42.41
   0  -5  -3  116.49   27.42
   0   5  -3  146.79   46.60
   0   5  -3   64.19   22.03
   0  -5   3  145.46   46.14
   0  -5   3  145.07   37.06
   0  -5  -4   66.48   16.54
   0   5  -4   22.56   15.49
   0  -5   4   75.84   24.11
   0  -5  -5   68.21   17.53
   0   5  -5   46.60   23.44
   0  -5   5   49.20   15.66
   0  -5   5   97.14   35.41
   0   5   6   22.14    8.45
   0  -5  -6   43.92   14.89
   0  -5  -6   89.36   21.96
   0   5  -6   21.19    6.79
   0   5  -6  132.79   43.92
   0  -5   6   27.28    8.73
   0  -5   6  134.76   45.37
   0   5   7   55.40   17.74
   0  -5  -7   62.72   19.99
   0   5  -7   72.15   22.91
   0   5  -7   42.34   33.79
   0   5   8   32.17   10.28
   0  -5  -8   28.61    9.15
   0  -5  -8   33.75    9.75
   0   5  -8   25.80    8.27
   0  -5   8   28.33    9.04
   0  -5   8   -9.29   40.54
   0   5   9   11.90    3.87
   0  -5  -9   10.87    3.55
   0  -5  -9   15.56    6.09
   0   5  -9   -9.82   29.00
   0  -5   9   10.14    3.31
   0  -5   9  -16.96   45.44
   0   5  10    5.91    5.21
   0  -5 -10    8.62    2.85
   0  -5 -10    7.64    4.89
   0   5 -10    4.12    1.44
   0   5 -10   -0.84   19.00
   0  -5  10    4.12    1.41
   0  -6   0   23.23    7.50
   0   6   1  269.73   85.52
   0  -6  -1  437.11  138.59
   0   6  -1  374.36  118.64
   0   6   2  118.96   37.73
   0  -6  -2  145.35   46.10
   0  -6  -2  111.25   25.73
   0   6  -2   99.67   31.64
   0  -6   2   93.62   29.74
   0  -6   2  155.52   36.64
   0   6   3   85.59   27.17
   0  -6  -3  111.46   35.37
   0  -6  -3   81.02   19.50
   0   6  -3   99.67   31.67
   0  -6   3   93.62   29.74
   0  -6   3   45.08   16.08
   0   6   4    7.21    2.46
   0  -6  -4   10.56    3.66
   0  -6  -4   14.75    5.53
   0   6  -4   10.87    3.55
   0   6  -4   -8.62    9.82
   0  -6   4    7.99    2.67
   0  -6   4   -1.27    9.43
   0  -6  -5   22.66    6.93
   0   6  -5   30.65    9.78
   0  -6   5   24.92    7.95
   0  -6   5    0.99   12.63
   0  -6  -6   13.69    5.88
   0   6  -6   -5.10   24.74
   0  -6   6    7.21    2.39
   0  -6   6  -17.49   24.92
   0  -6  -7   41.21   13.76
   0  -6  -7   54.97   14.54
   0   6  -7   30.06    9.57
   0   6  -7   15.66   33.54
   0  -6   7   36.57   11.65
   0  -6   7    5.38   29.46
   0   6   8   36.43   12.35
   0  -6  -8   15.56    5.14
   0   6  -8   12.95    4.19
   0   6  -8  -16.61   25.37
   0   6   9   10.07    3.41
   0  -6  -9   13.83    4.50
   0  -6  -9   12.78    5.42
   0   6  -9   13.06    4.19
   0   6  -9   -4.29   23.16
   0  -6   9   15.94    5.10
   0  -6   9   -7.04   28.23
   0   7   1   27.06    8.62
   0  -7  -1   15.56    5.03
   0  -7  -1    8.20    3.27
   0   7  -1   13.69    4.40
   0  -7   1    7.11    4.29
   0   7   2   79.75   25.30
   0  -7  -2   67.75   21.54
   0  -7   2   50.40   16.01
   0   7   3   26.08    8.31
   0  -7  -3   20.31    6.51
   0   7  -3   31.29    9.96
   0  -7   3   45.96   14.61
   0   7   4   32.80   10.45
   0  -7  -4   46.07   14.68
   0  -7   4   59.94   19.04
   0   7   5   17.84    5.81
   0  -7  -5    8.52    2.99
   0  -7  -5    8.62    4.15
   0   7  -5   18.44    5.91
   0   7  -5   -4.82    7.57
   0  -7   5   -6.93  434.47
   0  -7  -6   30.51    9.19
   0   7  -6   32.03   10.21
   0  -7   6   32.45   10.31
   0  -7   6   -4.22  319.91
   0  -7  -7    4.72    3.98
   0   7  -7   -6.51   21.47
   0  -7   7    5.17    1.72
   0  -7   7  -11.09   17.67
   0  -7  -8   15.31    6.83
   0  -7  -8   13.41    6.19
   0   7  -8   15.94    5.10
   0   7  -8   -3.17   22.14
   0  -7   8   17.67    5.67
   0  -7   8    0.14   45.51
   0  -8   0   30.37    9.71
   0   8   1   70.78   22.45
   0  -8  -1   77.78   24.67
   0   8   2   11.19    3.59
   0  -8  -2    6.65    2.22
   0  -8  -2   10.00    4.12
   0   8  -2   10.91    3.52
   0  -8   2    5.74    1.94
   0  -8   2   -3.59   13.20
   0   8   3   25.34    8.06
   0  -8  -3   48.15   15.31
   0   8  -3   58.53   18.58
   0   8   4    5.88    1.90
   0  -8  -4    5.70    1.90
   0  -8  -4    7.36    3.98
   0   8  -4    2.60    0.99
   0  -8   4    4.43    1.55
   0  -8   4   -7.29 1112.62
   0   8   5    8.59    2.78
   0  -8  -5    6.41    2.15
   0  -8  -5   19.18    6.48
   0  -8   5   12.67    4.08
   0  -8   5   -5.91   58.56
   0   8   6    1.94    1.06
   0  -8  -6    1.94    0.95
   0  -8  -6    3.31    2.78
   0   8  -6    4.89    1.62
   0   8  -6   -1.44  114.45
   0  -8   6    2.57    0.95
   0  -8   6   -2.85  584.08
   0   9   1    8.73    2.82
   0  -9  -1    6.33    2.11
   0  -9  -1    1.30    2.36
   0   9  -1    3.94    1.34
   0  -9   1   -2.43    2.71
   0   9   2   18.05    5.74
   0  -9  -2   23.09    7.67
   0   9  -2   17.39    5.56
   0  -9   2   19.22    6.12
   0  -9   2   -3.38  358.31
   0   9   3    5.60    1.79
   0  -9  -3    3.77    1.27
   0  -9  -3    4.43    3.77
   0  -9   3   -5.14   54.55
   0  -9   4    0.84   21.54
  -1   0  12   15.41    4.96
  -1   0  12   10.77    9.75
   1   0 -12   25.76    8.27
   1   0 -12   16.54   11.12
  -1   0  10   80.49   25.59
  -1   0  10   68.42   24.00
   1   0 -10   99.81   31.74
   1   0 -10   82.35   25.66
  -1   0   8  335.33  106.29
  -1   0   8  172.80   43.82
   1   0  -8  268.81   85.28
   1   0  -8  183.92   45.01
  -1   0   6  166.85   53.00
  -1   0   6  121.38   31.43
   1   0  -6  125.33   39.80
   1   0  -6  116.03   28.93
  -1   0   4   23.65    7.67
  -1   0   4   21.36    7.00
   1   0  -4   28.12    8.80
  -1   0   2  611.35  193.74
   1   0  -2  680.19  215.60
   1   0  -2  782.71  171.82
  -1   0  -2 1310.69  287.89
   1   0   2 1329.80  421.62
  -1   0  -4 1076.34  341.24
  -1   0  -4  741.33  164.46
   1   0   4 1060.39  336.07
   1   0   4  664.25  147.64
  -1   0  -6  132.29   42.06
  -1   0  -6   89.50   24.04
   1   0   6  161.33   51.28
   1   0   6   89.36   23.76
  -1   0  -8   34.88   13.20
   1   0   8   27.73    8.90
   1   0   8   42.09   15.27
   1   0  10   83.48   26.54
   1   0  10   70.63   23.69
   1   1 -12   10.24   10.95
  -1  -1  12    6.97    2.32
  -1  -1  12    0.81    8.38
  -1   1  12    7.04    7.88
   1   1 -11    9.26    9.47
  -1  -1  11    6.55    2.22
  -1  -1  11    4.96    9.12
  -1   1  11    9.78    3.17
  -1   1  11    6.48    7.00
   1  -1 -11    9.64    3.20
   1   1 -10   10.35    3.45
   1   1 -10    2.04    6.86
  -1  -1  10   14.32    4.68
  -1   1  10    9.68    3.17
  -1   1  10    2.08    4.82
   1  -1 -10    9.01    2.99
   1  -1 -10    3.06    5.98
   1   1  -9   37.27   11.93
   1   1  -9   52.76   18.09
  -1  -1   9   65.78   22.84
  -1   1   9   37.94   13.80
   1  -1  -9   27.38    8.80
   1  -1  -9   36.21   13.09
  -1  -1   8   18.05    5.84
  -1  -1   8   14.54   11.33
  -1   1   8   22.70    7.32
   1  -1  -8   10.84    3.66
   1  -1  -8    8.73    6.30
   1   1  -7  260.37   82.60
   1   1  -7  313.23   74.19
  -1  -1   7  232.60   73.80
  -1  -1   7  251.43   63.28
  -1   1   7  237.31   75.28
  -1   1   7  239.67   56.59
   1  -1  -7  244.07   77.46
   1  -1  -7  209.93   49.27
   1   1  -6  327.94  104.00
   1   1  -6  181.39   44.24
  -1  -1   6  283.87   90.06
  -1  -1   6  165.59   40.51
  -1   1   6  132.29   32.48
   1  -1  -6  257.06   81.51
   1   1  -5 1229.19  389.60
   1   1  -5 1129.83  249.45
  -1  -1   5 1297.32  286.80
  -1   1   5 1078.24  238.26
   1  -1  -5 1192.23  377.81
   1  -1  -5 1050.86  232.03
   1   1  -4   80.49   19.64
  -1  -1   4   66.31   17.17
  -1   1   4   76.44   19.74
   1  -1  -4   64.02   16.05
  -1  -1   3  972.52  308.12
  -1   1   3  866.79  191.07
   1  -1  -3 1090.98  345.89
   1  -1  -3  732.42  161.19
   1   1  -2  555.50  122.23
  -1  -1   2  787.18  249.53
  -1  -1   2  515.42  113.68
   1  -1  -2  752.80  238.58
   1  -1  -2  382.14   84.25
   1   1  -1  761.07  166.85
  -1  -1   1  741.33  162.60
   1   1   0   69.68   22.38
  -1   1   0   54.13   17.32
   1  -1   1   24.25    7.92
   1  -1   1    2.08    2.36
   1   1   2   35.83   12.74
  -1  -1  -2   47.34   16.26
  -1  -1  -2  118.32   27.28
  -1   1  -2   94.25   22.38
   1  -1   2   23.12    7.67
   1  -1   2  105.09   24.60
   1   1   3   96.99   30.97
   1   1   3  116.42   27.52
  -1  -1  -3   65.67   21.15
  -1  -1  -3  101.46   24.21
   1  -1   3  109.66   34.91
   1  -1   3   68.03   17.32
   1   1   4   55.18   17.67
   1   1   4   24.57    9.57
  -1  -1  -4   59.37   19.04
  -1  -1  -4   24.46    9.92
  -1   1  -4   51.38   16.44
  -1   1  -4   19.99    8.97
   1  -1   4   47.55   15.20
   1  -1   4   22.91    8.69
   1   1   5  526.01  166.78
   1   1   5  472.94  106.67
  -1  -1  -5  594.53  188.53
  -1   1  -5  524.36  166.22
  -1   1  -5  483.39  109.03
   1  -1   5  622.79  197.44
   1  -1   5  493.63  111.46
   1   1   6   41.78   13.44
   1   1   6   54.48   15.94
  -1  -1  -6   41.67   13.34
  -1  -1  -6   58.88   16.51
  -1   1  -6   43.57   13.94
  -1   1  -6   91.50   26.61
   1  -1   6   51.63   16.51
   1  -1   6   58.91   18.37
   1   1   7  230.56   73.17
   1   1   7  188.25   44.80
  -1  -1  -7  232.84   73.87
  -1   1  -7  174.81   55.50
  -1   1  -7  244.88   60.46
   1  -1   7  206.10   65.36
   1  -1   7  247.41   62.54
   1   1   8   21.96    7.11
  -1  -1  -8   20.52    6.69
  -1  -1  -8   24.25    9.54
  -1   1  -8   42.23   16.75
   1  -1   8   19.71    6.37
   1  -1   8   38.64   15.73
   1   1   9   40.86   13.06
   1   1   9   57.47   18.30
  -1  -1  -9   22.88    7.36
  -1  -1  -9   57.58   17.28
  -1   1  -9   37.80   12.11
   1  -1   9   44.84   14.29
   1  -1   9   69.86   23.02
   1   1  10    2.71    1.27
   1   1  10    5.49    5.53
  -1  -1 -10    4.96    1.83
  -1  -1 -10    5.91    5.70
  -1   1 -10    8.62    9.40
   1  -1  10   10.59    3.48
   1  -1  10    1.65    6.51
   1   1  11    2.57    1.02
   1   1  11    7.78    7.07
  -1  -1 -11    3.70    1.41
  -1   1 -11    8.76   10.77
  -1   1 -11    5.98    2.08
   1  -1  11    4.68    1.69
   1  -1  11    3.94    8.20
   1   2 -12   26.61   21.01
  -1  -2  12    2.15   15.52
  -1   2  12   45.19   19.88
   1  -2 -12   32.48   13.51
   1   2 -11    8.02    2.67
   1   2 -11    0.07    9.75
  -1  -2  11    6.44    2.18
  -1   2  11   15.13    4.86
  -1   2  11    6.97    6.05
   1  -2 -11   11.86    3.84
   1  -2 -11   10.42    7.78
   1   2 -10   44.70   14.25
   1   2 -10   39.73   16.96
  -1  -2  10   32.20   17.84
  -1   2  10   79.36   25.20
  -1   2  10   47.05   15.73
   1  -2 -10   65.85   20.94
  -1  -2   9   15.10    4.89
  -1  -2   9    5.31   10.03
  -1   2   9    6.62    5.35
   1  -2  -9    8.59    2.96
   1  -2  -9    8.66    7.21
   1   2  -8  180.05   57.16
   1   2  -8  204.13   53.85
  -1  -2   8  204.30   64.83
  -1  -2   8  130.89   38.36
  -1   2   8  184.94   58.67
  -1   2   8  161.08   40.16
   1  -2  -8  214.30   67.96
   1  -2  -8  171.08   42.27
   1   2  -7  129.48   41.11
   1   2  -7   46.53   18.41
  -1  -2   7   59.90   22.84
  -1   2   7   43.61   13.87
   1  -2  -7   53.25   16.96
   1  -2  -7   19.78    8.66
   1   2  -6   37.24   15.52
  -1  -2   6   16.96    5.60
  -1  -2   6   27.31   12.99
  -1   2   6   40.61   12.95
  -1   2   6   61.48   17.46
   1  -2  -6   20.73    6.72
   1  -2  -6   63.10   16.96
   1   2  -5   41.42   13.27
   1   2  -5   17.91    9.54
  -1  -2   5   30.09    9.75
  -1  -2   5   42.09   13.83
  -1   2   5   30.44    9.71
  -1   2   5   50.26   14.99
   1  -2  -5   86.30   27.42
   1  -2  -5   42.94   12.99
   1   2  -4   32.34   10.38
   1   2  -4   54.27   15.03
  -1  -2   4   46.63   14.92
  -1   2   4   66.38   21.08
   1  -2  -4   67.82   21.57
   1  -2  -4   52.12   14.08
   1   2  -3   34.17   10.98
   1   2  -3   31.50    9.12
  -1  -2   3   29.35    9.47
  -1  -2   3   19.11    6.41
  -1   2   3   89.74   28.51
  -1   2   3   27.56    8.20
   1  -2  -3   64.51   20.52
   1  -2  -3   26.01    7.99
   1   2  -2  572.25  181.39
   1   2  -2  526.19  116.03
  -1  -2   2  564.02  178.79
  -1  -2   2  384.81   85.28
  -1   2   2  348.88   77.39
   1   2  -1  517.99  164.18
   1   2  -1  394.28   86.93
  -1  -2   1  548.60  173.86
  -1  -2   1  429.75   94.57
  -1   2   1  535.44  169.81
  -1   2   1  404.63   89.11
   1  -2  -1  517.70  164.18
   1  -2  -1  370.98   81.65
   1   2   0  908.18  287.89
  -1  -2   0 1155.95  366.48
  -1   2   0  973.78  308.62
   1  -2   0 1036.85  328.57
  -1   2  -1   71.90   22.88
  -1   2  -1   27.73    7.71
   1  -2   1  106.88   33.96
   1  -2   1   24.25    6.44
   1   2   2  870.63  191.77
  -1   2  -2  795.45  252.13
  -1   2  -2  791.02  174.39
   1  -2   2  722.22  228.83
   1  -2   2  936.86  206.24
   1   2   3   20.94    8.38
  -1  -2  -3   36.32   12.74
  -1  -2  -3   54.94   14.36
  -1   2  -3   48.95   13.83
   1  -2   3   72.46   23.05
   1  -2   3   37.09   11.93
   1   2   4  224.89   71.51
   1   2   4  191.21   44.91
  -1  -2  -4  209.62   66.62
  -1  -2  -4  184.38   43.15
  -1   2  -4  281.38   89.22
  -1   2  -4  201.31   47.62
   1   2   5   47.16   15.24
   1   2   5   45.15   13.76
  -1  -2  -5   34.35   11.23
  -1  -2  -5   32.59   10.10
  -1   2  -5   73.38   23.37
   1  -2   5   17.42    9.61
   1   2   6   17.25    8.38
  -1  -2  -6   10.59    3.62
  -1  -2  -6   19.78    7.92
  -1   2  -6   23.86    7.71
  -1   2  -6   51.45   18.90
   1  -2   6   25.30    8.20
   1  -2   6   42.44   17.70
   1   2   7   16.33    5.42
   1   2   7   12.88    6.44
  -1  -2  -7   10.87    3.66
  -1  -2  -7   16.01    7.07
  -1   2  -7   19.46    6.33
  -1   2  -7   25.87   15.06
   1  -2   7   13.90    4.54
   1  -2   7   40.44   17.28
   1   2   8   30.34   10.35
  -1  -2  -8   28.47    9.15
  -1  -2  -8   10.21    6.65
  -1   2  -8   35.26   11.33
   1  -2   8   27.52    8.83
   1  -2   8   23.26   13.55
   1   2   9    4.72    1.83
  -1  -2  -9    6.44    2.29
  -1  -2  -9    8.38    5.35
  -1   2  -9    7.85    2.78
  -1   2  -9    0.60    9.26
   1  -2   9    7.00    2.39
   1  -2   9   -0.39    6.90
   1   2  10   35.90   13.58
  -1  -2 -10   40.12   12.81
  -1  -2 -10   35.16   11.65
  -1   2 -10   42.69   13.66
  -1   2 -10   32.03   19.50
   1  -2  10   32.55   10.38
   1   2  11    4.96    5.35
  -1  -2 -11    6.02    2.08
  -1  -2 -11    7.92    6.16
  -1   2 -11    6.37    2.25
  -1   2 -11    3.98   13.02
   1  -2  11    5.63    1.94
   1   3 -11    8.13    2.67
   1   3 -11   -1.65   11.12
  -1  -3  11   -5.60   15.03
  -1   3  11    9.68    3.13
   1  -3 -11    4.12    1.51
   1  -3 -11    3.55    4.26
  -1  -3  10    3.70    1.34
  -1  -3  10   -0.77   12.56
  -1   3  10    7.00    2.32
  -1   3  10    7.21    5.70
   1  -3 -10    5.49    1.97
   1  -3 -10    4.40    4.72
   1   3  -9   23.23    7.50
   1   3  -9   41.53   22.03
  -1  -3   9   17.14   20.24
  -1   3   9   13.66    4.40
  -1   3   9   17.56    8.17
   1  -3  -9   10.42    3.48
   1   3  -8   43.46   13.87
   1   3  -8   10.77   11.51
  -1  -3   8   10.14   15.06
  -1   3   8   26.01    8.31
  -1   3   8    8.80    6.19
   1  -3  -8   31.71   10.14
   1  -3  -8   12.07    7.85
   1   3  -7   91.01   28.93
  -1  -3   7   78.27   24.88
  -1  -3   7  114.27   35.05
  -1   3   7  100.06   31.74
  -1   3   7  112.48   29.14
   1  -3  -7  112.55   35.72
   1  -3  -7  141.66   35.26
   1   3  -6  102.56   32.59
   1   3  -6   70.11   23.40
  -1  -3   6   97.87   31.92
  -1   3   6   98.97   31.43
   1  -3  -6  131.98   41.88
   1  -3  -6   35.37   11.09
   1   3  -5 1008.84  225.38
  -1  -3   5  724.12  229.54
  -1   3   5  678.93  215.28
  -1   3   5  660.45  147.89
   1  -3  -5  745.16  236.36
   1  -3  -5  570.32  127.30
   1   3  -4  527.14  167.14
   1   3  -4  235.06   54.73
  -1  -3   4  577.96  183.18
  -1  -3   4  241.75   57.37
  -1   3   4  428.31  136.17
  -1   3   4  171.82   40.75
   1  -3  -4  389.70  123.88
   1   3  -3  886.54  280.99
   1   3  -3 1271.84  279.58
  -1  -3   3 1150.21  253.61
  -1  -3   3  920.29  291.62
  -1   3   3 1173.12  258.64
   1  -3  -3 1047.02  230.24
   1   3  -2  568.56  180.23
   1   3  -2  361.76   80.95
  -1  -3   2  496.38  157.32
  -1  -3   2  565.67  125.61
  -1   3   2  594.22  188.71
   1  -3  -2  660.45  209.65
   1  -3  -2  447.28   98.58
   1   3  -1  606.43  192.19
  -1  -3   1  616.25  135.46
  -1   3   1  607.77  192.72
   1  -3  -1  568.88  180.37
   1   3   0  687.20  217.82
  -1  -3   0  984.62  312.07
  -1   3   0  590.52  187.20
   1  -3   0  655.35  207.75
  -1  -3  -1   59.41   19.00
  -1   3  -1   80.56   25.66
   1  -3   1   14.96    4.68
   1   3   2  193.43   44.38
  -1  -3  -2  225.38   50.71
  -1   3  -2  236.47   75.03
  -1   3  -2  253.54   57.68
   1  -3   2  271.45   86.05
   1  -3   2  302.00   68.21
   1   3   3  256.04   58.35
  -1   3  -3  294.68   93.44
  -1   3  -3  193.60   46.77
   1  -3   3  189.59   45.44
   1   3   4  207.75   48.67
  -1  -3  -4  124.90   40.26
  -1  -3  -4  167.14   38.75
  -1   3  -4  217.64   69.05
  -1   3  -4  179.42   46.46
   1  -3   4  215.92   68.45
   1  -3   4  160.31   40.93
   1   3   5  713.95  226.68
  -1  -3  -5  261.95   83.37
  -1  -3  -5  207.68   47.93
  -1   3  -5  173.54   55.04
  -1   3  -5  322.52   77.81
   1  -3   5  184.52   58.53
   1   3   6   87.14   27.80
   1   3   6   80.45   21.05
  -1  -3  -6   87.95   28.12
  -1  -3  -6   57.68   16.37
  -1   3  -6   95.27   30.27
  -1   3  -6   35.16   18.93
   1  -3   6   91.72   29.14
   1  -3   6   45.72   19.53
   1   3   7  161.72   51.38
   1   3   7  187.62   45.96
  -1  -3  -7  191.00   60.64
  -1  -3  -7  195.22   45.75
  -1   3  -7  191.56   60.78
  -1   3  -7  195.08   57.05
   1  -3   7  170.48   54.09
   1  -3   7  172.73   47.97
   1   3   8   18.20    5.95
   1   3   8    7.36    4.89
  -1  -3  -8   28.58    9.19
  -1   3  -8   13.41    4.40
  -1   3  -8   -2.89   13.20
   1  -3   8   11.90    3.94
   1  -3   8   -4.08   10.28
   1   3   9   16.22    5.28
   1   3   9   35.62   11.68
  -1  -3  -9   33.22   10.77
  -1   3  -9   28.93    9.26
  -1   3  -9   24.99   23.69
   1  -3   9   15.87    5.14
   1  -3   9   -0.81   22.14
   1   3  10   11.75    3.84
  -1  -3 -10   23.02    7.39
  -1  -3 -10    5.07    4.43
  -1   3 -10   10.14    3.34
  -1   3 -10   -2.53   17.74
   1  -3  10   10.28    3.38
   1   3  11    4.43    1.62
  -1  -3 -11    2.82    1.13
  -1  -3 -11    7.32    4.93
  -1   3 -11    2.29    0.95
  -1   3 -11    2.25   15.34
   1  -3  11    2.78    1.09
  -1  -4  11    9.12    2.96
  -1  -4  11   -5.91   26.99
  -1   4  11   11.19    3.59
   1  -4 -11   15.20    4.93
   1  -4 -11   12.88    7.25
   1   4 -10   39.35   12.53
   1   4 -10   10.52   23.58
  -1  -4  10   37.66   12.00
  -1  -4  10  -18.69   33.43
  -1   4  10   22.84    7.29
   1  -4 -10   24.18    7.74
   1  -4 -10   15.63    7.25
   1   4  -9   25.37    8.13
   1   4  -9   -0.07   19.32
  -1  -4   9   26.33    8.41
  -1  -4   9  -22.35   36.00
  -1   4   9   34.28   10.91
   1  -4  -9   32.77   10.45
   1  -4  -9   18.16    7.36
   1   4  -8   25.80    8.27
   1   4  -8   -4.01   15.27
  -1  -4   8   28.08    8.97
  -1  -4   8    3.91   23.26
  -1   4   8   19.39    8.24
   1  -4  -8   14.43    4.68
   1  -4  -8   12.60    6.26
   1   4  -7   45.22   20.91
  -1  -4   7   54.83   17.46
  -1  -4   7   13.34   20.38
  -1   4   7   83.94   26.64
   1  -4  -7   71.27   22.63
   1  -4  -7   49.03   14.57
   1   4  -6   48.18   15.34
  -1  -4   6   63.74   20.31
  -1   4   6   46.17   14.71
   1  -4  -6   59.20   18.83
   1  -4  -6   33.22   11.09
   1   4  -5   17.74    5.81
   1   4  -5    6.44   10.28
  -1  -4   5   11.72    3.87
  -1  -4   5    1.79   10.00
  -1   4   5   39.52   12.60
   1   4  -4   43.78   13.97
   1   4  -4   47.48   16.65
  -1  -4   4   32.62   10.45
  -1  -4   4   37.83   14.08
   1  -4  -4   42.62   11.86
   1   4  -3  107.13   34.03
   1   4  -3   91.26   23.69
  -1  -4   3   80.00   25.45
  -1  -4   3   91.01   23.54
  -1   4   3   77.95   24.85
   1  -4  -3  119.87   38.19
   1  -4  -3   64.76   15.94
   1   4  -2  209.55   66.48
  -1  -4   2  283.87   89.99
  -1  -4   2  332.90   75.53
  -1   4   2  251.00   79.61
   1  -4  -2  283.98   90.13
   1  -4  -2  348.77   77.39
   1   4  -1  719.05  227.88
  -1  -4   1  427.22   94.53
  -1   4   1  379.85  120.43
   1  -4  -1  483.21  153.16
   1  -4  -1  430.84   94.78
   1   4   0  444.68  140.95
  -1  -4   0  294.05   93.23
  -1   4   0  416.70  132.08
   1  -4   0  401.42  127.26
   1   4   1  139.61   44.34
  -1  -4  -1  231.68   73.56
  -1   4  -1  148.91   47.23
   1  -4   1  125.61   28.72
   1   4   2  318.75  101.15
  -1  -4  -2  226.16   71.83
  -1   4  -2  251.50   79.75
  -1   4  -2  200.57   47.76
   1  -4   2  249.21   79.05
   1  -4   2  284.23   65.07
  -1  -4  -3  163.79   37.80
  -1   4  -3  208.77   66.24
  -1   4  -3  149.08   38.82
   1  -4   3  205.78   65.28
   1  -4   3  154.71   39.59
  -1  -4  -4   86.51   21.22
  -1   4  -4   56.49   18.02
  -1   4  -4   70.00   23.97
   1  -4   4   61.03   19.43
   1  -4   4   70.18   25.27
  -1   4  -5   97.77   33.72
   1  -4   5  171.32   46.70
   1   4   6   91.26   30.02
   1   4   6   76.16   21.12
  -1  -4  -6   83.13   26.89
  -1  -4  -6   74.58   19.32
   1  -4   6   75.35   23.93
   1   4   7   24.53    8.13
   1   4   7   17.70    8.06
  -1  -4  -7   28.26    9.22
  -1  -4  -7   19.85    7.07
  -1   4  -7    0.39   17.35
   1  -4   7   23.26    7.46
   1  -4   7   -3.24   16.65
   1   4   8    5.00    4.54
  -1  -4  -8   10.98    3.80
  -1  -4  -8    8.41    4.58
  -1   4  -8    1.44   18.12
   1  -4   8    6.48    2.22
   1   4   9   13.87    4.61
   1   4   9    7.88    5.24
  -1  -4  -9   14.46    4.75
  -1  -4  -9    6.23    5.00
  -1   4  -9   13.55    4.43
  -1   4  -9   -9.61   20.06
   1  -4   9   12.07    3.91
   1   4  10   10.91    3.59
   1   4  10    9.54    5.63
  -1  -4 -10    8.62    2.89
  -1  -4 -10    8.38    5.21
  -1   4 -10    8.24    2.75
  -1   4 -10    4.82   27.52
   1  -4  10    8.73    2.85
   1  -4  10  -12.56   24.85
   1   5 -10    6.69    2.22
   1   5 -10   -1.62   16.79
  -1  -5  10    6.58    2.18
  -1  -5  10  -13.66   29.28
  -1   5  10    6.65    5.46
  -1   5  10    4.68    1.58
   1  -5 -10    4.61    1.58
   1  -5 -10    6.58    4.61
   1   5  -9    5.38    1.83
   1   5  -9   -6.30   20.27
  -1  -5   9  -18.12   37.90
  -1   5   9    5.56    1.87
   1  -5  -9    6.65    2.18
   1  -5  -9    7.00    4.36
   1   5  -8    3.94   25.69
  -1  -5   8   22.70    7.29
  -1  -5   8  -40.23   31.60
  -1   5   8   25.37    8.09
   1  -5  -8   18.20    5.81
   1  -5  -8   21.86    7.36
   1   5  -7   26.33    8.41
   1   5  -7   12.42   22.38
  -1  -5   7   34.07   10.87
  -1   5   7   32.10   10.21
   1  -5  -7   36.32   11.58
   1   5  -6  176.15   55.89
   1   5  -6  103.05   35.48
  -1  -5   6  229.08   72.61
  -1  -5   6  136.10   45.26
  -1   5   6  203.49   64.76
   1  -5  -6  236.61   75.35
   1  -5  -6  143.87   34.63
   1   5  -5  366.33  116.18
   1   5  -5  551.42  127.75
  -1  -5   5  410.93  130.32
  -1  -5   5  335.40   82.74
   1  -5  -5  456.15  102.41
   1   5  -4   42.23   16.86
  -1  -5   4  103.05   32.73
  -1  -5   4   63.31   22.38
  -1   5   4   67.43   21.57
   1  -5  -4   60.82   19.46
   1  -5  -4   52.44   13.55
   1   5  -3  321.64  101.96
   1   5  -3   70.32   19.92
  -1  -5   3  128.63   40.83
  -1  -5   3   47.69   15.24
  -1   5   3  110.19   34.98
   1  -5  -3   71.02   17.28
   1   5  -2  231.01   73.24
  -1  -5   2  244.95   77.71
  -1  -5   2  247.55   58.42
  -1   5   2  237.31   75.28
   1  -5  -2  216.23   68.59
   1  -5  -2  227.35   51.10
   1   5  -1   49.98   15.91
  -1  -5   1   83.06   20.31
  -1   5   1   82.21   26.11
   1  -5  -1   57.89   18.41
   1  -5  -1   96.75   21.82
   1   5   0   73.49   23.33
  -1  -5   0   98.02   31.11
   1  -5   0   85.10   26.99
   1   5   1  121.21   38.50
  -1  -5  -1   66.38   21.12
  -1   5  -1   44.91   14.29
   1  -5   1   64.65   15.98
   1   5   2   44.80   14.32
  -1  -5  -2   54.27   17.35
  -1  -5  -2   26.04    7.67
  -1   5  -2   51.24   16.33
   1  -5   2   39.42   12.56
   1  -5   2   56.91   16.68
   1   5   3   76.48   24.60
  -1  -5  -3   56.91   14.54
  -1  -5  -3   87.56   27.98
  -1   5  -3   50.12   19.85
   1  -5   3   60.36   19.18
   1  -5   3   63.81   19.85
  -1   5  -4   62.19   19.78
  -1   5  -4   -1.62   13.87
   1  -5   4  122.65   38.92
   1  -5   4   22.84   13.76
  -1  -5  -5   17.07    6.76
  -1   5  -5   46.39   14.75
  -1   5  -5   -2.39   13.37
   1  -5   5   54.52   17.35
   1  -5   5   -2.25   11.68
  -1   5  -6   24.95    7.99
  -1   5  -6   -6.58   18.51
   1  -5   6   28.93    9.26
   1  -5   6   -2.82   18.44
   1   5   7  102.03   33.40
   1   5   7  155.14   37.38
  -1  -5  -7  187.55   59.90
  -1  -5  -7  151.26   35.55
  -1   5  -7  114.20   36.25
  -1   5  -7   66.09   43.82
   1   5   8   48.85   15.84
  -1  -5  -8   29.88    9.68
  -1  -5  -8   32.70    9.64
  -1   5  -8   37.20   11.86
  -1   5  -8  -15.17   27.49
   1  -5   8   48.07   15.31
   1  -5   8  -22.14   32.41
   1   5   9   10.38    3.59
   1   5   9   10.45    6.12
  -1  -5  -9   14.15    4.75
  -1  -5  -9   16.37    6.83
  -1   5  -9    7.00    2.32
   1  -5   9   11.44    3.73
   1  -5   9   -9.50   25.83
   1   5  10    3.34    4.05
  -1  -5 -10    9.15    5.74
   1  -5  10    9.43   27.80
   1   6  -9   11.40    3.70
   1   6  -9  -10.28   22.49
  -1  -6   9   16.89    5.42
  -1  -6   9  -16.37   28.08
   1  -6  -9   19.53    6.23
   1  -6  -9    8.06    4.72
   1   6  -8   19.36    6.23
   1   6  -8  -11.72   20.20
  -1  -6   8   17.67    5.67
  -1   6   8   22.84    7.32
   1  -6  -8   16.68    5.35
   1   6  -7   41.60   13.23
   1   6  -7    4.54   36.04
  -1  -6   7  -20.17   28.47
  -1   6   7   78.20   25.16
   1  -6  -7   51.49   16.44
   1   6  -6   -8.13   23.97
  -1  -6   6   23.19    7.43
  -1  -6   6  -14.75   27.84
   1  -6  -6   27.80    8.80
   1   6  -5   29.00    9.26
  -1   6   5   40.09   12.88
   1  -6  -5   29.56    9.50
   1  -6  -5   30.65    9.57
   1   6  -4   30.06   13.20
  -1  -6   4   13.80    4.47
  -1  -6   4   11.72   12.18
  -1   6   4   45.01   14.32
   1  -6  -4   19.11    6.12
   1  -6  -4   35.16   10.21
   1   6  -3   57.68   18.37
  -1  -6   3   78.41   24.88
  -1   6   3   64.44   20.45
   1  -6  -3   70.25   22.31
   1   6  -2   55.40   17.60
  -1  -6   2   57.33   18.27
  -1  -6   2   33.22   13.27
  -1   6   2   54.20   17.21
   1  -6  -2   92.17   29.25
   1  -6  -2   75.98   18.09
   1   6  -1  300.59   95.27
  -1  -6   1  314.42   71.51
  -1   6   1  216.09   68.52
   1  -6  -1  285.14   90.45
   1  -6  -1  321.04   71.02
  -1  -6   0   84.50   26.85
   1  -6   0   64.65   20.55
   1   6   1  266.52   84.50
  -1  -6  -1  312.45   99.11
  -1   6  -1  256.53   81.33
   1  -6   1  400.33   89.22
   1   6   2   93.12   29.56
  -1  -6  -2  129.16   41.04
  -1  -6  -2   57.05   14.36
   1  -6   2   90.38   28.68
   1  -6   2   82.92   22.28
   1   6   3   96.61   30.69
  -1  -6  -3  158.20   50.26
  -1  -6  -3  137.75   32.27
  -1   6  -3  130.64   41.46
   1  -6   3   90.24   26.15
   1   6   4    7.14    2.85
  -1  -6  -4    7.99    3.27
  -1  -6  -4    8.62    4.01
  -1   6  -4   -4.79    8.17
  -1   6  -4    8.02    2.64
   1  -6   4    2.57    8.48
  -1  -6  -5   25.66    7.85
  -1   6  -5   15.73    5.07
  -1   6  -5   -3.03   15.63
   1  -6   5   14.08    4.54
   1  -6   5   -4.40   12.63
  -1  -6  -6    7.39    4.05
  -1   6  -6    5.91    2.01
  -1   6  -6   12.60   25.16
   1  -6   6    4.36    1.48
   1  -6   6   -5.07   15.45
  -1  -6  -7    8.17    5.00
  -1   6  -7   -6.51   25.69
   1  -6   7    7.67    2.50
   1  -6   7   -4.79   16.47
   1   6   8   10.31    7.32
  -1  -6  -8   10.28    6.37
  -1   6  -8   -4.43   22.00
   1  -6   8    6.26    2.08
  -1  -6  -9    7.46    4.75
  -1   6  -9    0.77   23.79
   1  -6   9    4.61   28.12
   1   7  -8   17.00    5.46
   1   7  -8  -18.30  116.74
  -1  -7   8   24.21    7.71
  -1  -7   8   -8.62  882.07
  -1   7   8   22.31    8.87
   1  -7  -8   21.33    6.86
   1  -7  -8   28.30    9.78
   1   7  -7    7.11    2.32
   1   7  -7   -7.50   17.74
  -1  -7   7  -21.05   16.96
   1  -7  -7    3.13    3.55
   1   7  -6   17.28    5.56
  -1  -7   6   14.82    4.75
  -1  -7   6   -8.20   15.10
   1  -7  -6   15.49    5.03
   1  -7  -6   18.51    6.69
   1   7  -5   15.73    5.07
   1   7  -5    1.65    8.31
  -1  -7   5  -16.29   14.50
  -1   7   5   14.32    4.58
   1  -7  -5   20.10    6.41
   1   7  -4   66.41   21.08
  -1  -7   4   91.79   29.14
  -1   7   4  115.40   36.64
   1  -7  -4  121.31   38.54
   1   7  -3   37.45   11.93
  -1  -7   3   27.24    8.69
  -1   7   3   28.86    9.19
   1  -7  -3   20.45    6.55
   1   7  -2   71.65   22.77
  -1  -7   2   70.11   22.31
  -1   7   2   66.80   21.22
   1  -7  -2   74.12   23.54
   1   7  -1   13.87    4.47
  -1   7   1   14.43    4.65
   1  -7  -1   11.44    3.73
  -1  -7   0   35.90   11.47
   1  -7   0   63.31   20.13
   1   7   1   20.59    6.58
  -1  -7  -1   12.92    4.22
  -1   7  -1   13.13    4.22
   1  -7   1    4.72    3.03
   1   7   2   28.12    8.97
  -1  -7  -2   15.70    5.10
  -1  -7  -2    5.60    3.34
  -1   7  -2   13.44    4.33
   1  -7   2   16.75    5.38
   1  -7   2    2.57    5.35
   1   7   3   20.06    6.44
  -1  -7  -3   21.89    7.04
  -1  -7  -3   14.29    5.60
  -1   7  -3   15.52    5.00
   1  -7   3   19.88    6.37
   1  -7   3   -9.08    9.40
   1   7   4   30.90    9.85
  -1  -7  -4   31.29   10.10
   1  -7   4   43.82   13.94
  -1  -7  -5   12.18    4.15
  -1  -7  -5    9.22    4.29
  -1   7  -5    9.26    2.99
  -1   7  -5   -8.24    7.64
   1  -7   5  -11.86   13.44
  -1   7  -6   40.19   12.78
  -1  -7  -7   16.15    6.62
  -1   7  -7    3.31    1.16
  -1   7  -7  -16.68   18.79
   1  -7   7    3.66    1.27
   1  -7   7   -7.04  496.69
   1  -7   8    0.49   10.49
   1   8  -6    4.40    1.48
   1   8  -6   -3.20    6.55
  -1  -8   6    4.12    1.37
  -1  -8   6   -3.73  268.14
  -1   8   6    5.74    1.87
   1  -8  -6    3.80    1.27
   1  -8  -6    2.64    2.96
   1   8  -5    2.89    1.02
  -1  -8   5   -5.49    7.99
  -1   8   5    4.54    1.48
   1  -8  -5    8.66    2.78
   1  -8  -5    5.21    3.55
   1   8  -4    1.97    0.77
  -1  -8   4    6.05    2.04
  -1  -8   4   -8.09   93.12
   1  -8  -4    1.20    0.63
   1  -8  -4    3.59    3.31
   1   8  -3   19.78    6.33
  -1  -8   3   19.67    6.30
  -1   8   3   19.71    6.26
   1  -8  -3   19.11    6.12
   1   8  -2    6.83    2.22
  -1  -8   2   -7.74  494.16
  -1   8   2    4.65    1.55
   1  -8  -2    5.31    1.79
   1  -8  -2    8.31    3.52
   1   8  -1   35.33   11.23
  -1  -8   1   -2.08  424.93
  -1   8   1   45.75   14.54
   1  -8  -1   44.31   14.08
   1  -8  -1   34.35    8.59
  -1  -8   0   18.23    5.88
   1  -8   0   25.20    8.06
   1   8   1   45.19   14.36
  -1  -8  -1   62.01   19.71
  -1   8  -1   74.72   23.72
   1  -8   1   32.10    8.80
   1   8   2   13.13    4.22
  -1  -8  -2   22.91    7.32
  -1  -8  -2   15.80    5.84
  -1   8  -2   11.86    3.84
   1  -8   2   15.13    4.89
   1  -8   2   -2.92    5.49
  -1  -8  -3   25.34    8.09
  -1   8  -3   31.08    9.89
   1   8   4    4.08    1.44
  -1  -8  -4    1.97    0.99
  -1  -8  -4    3.24    2.89
  -1   8  -4    4.58    1.55
   1  -8   4    4.47    1.51
   1  -8   4   -2.29   58.14
   1   8   5    8.09    2.78
  -1  -8  -5    5.31    1.97
  -1  -8  -5   14.08    5.56
  -1   8  -5    8.97    2.92
   1  -8   5    7.18    2.36
   1  -8   5   -5.53 1506.87
  -1  -8  -6    0.84    2.43
  -1   8  -6   -0.14   11.37
   1  -8   6    2.18    0.81
   1  -8   6   -1.79   13.66
   1   9  -4   56.73   18.02
  -1  -9   4   30.65    9.78
  -1  -9   3   -4.58  155.42
   1  -9  -3    6.65    4.68
   1   9  -2   29.67    9.43
  -1  -9   2   32.31   10.28
  -1  -9   2   -5.35  187.76
  -1   9   2   43.68   13.87
   1  -9  -2   27.98    8.90
   1  -9  -2   31.60    9.04
   1   9  -1    8.20    2.64
  -1  -9   1   -2.75    3.91
  -1   9   1   10.49    3.38
   1  -9  -1    4.47    1.51
   1  -9  -1    0.21    1.69
  -1  -9   0   12.35    3.98
   1  -9   0    9.26    2.99
   1   9   1    7.88    2.53
  -1  -9  -1    9.01    2.92
  -1   9  -1    6.09    1.97
   1  -9   1   -0.49    1.65
   1   9   2   15.87    5.07
  -1  -9  -2    9.54    3.10
  -1  -9  -2    4.33    3.70
  -1   9  -2   13.13    4.19
   1  -9   2   11.86    3.84
   1  -9   2   -2.32   57.33
   1   9   3    6.65    2.15
  -1  -9  -3    2.50    0.99
  -1  -9  -3    4.29    4.54
   1  -9   3    2.82    1.02
   1  -9   3   -0.84  152.99
  -2   0  12   18.48    5.91
   2   0 -12   28.86    9.22
   2   0 -12   21.19   10.38
  -2   0  10   85.52   27.17
  -2   0  10  106.29   31.11
   2   0 -10  132.08   41.95
   2   0 -10  126.80   36.36
  -2   0   8  498.98  158.20
  -2   0   8  457.35  105.34
   2   0  -8  668.09  211.83
  -2   0   6  452.31  143.42
  -2   0   6  246.46   57.86
   2   0  -6  528.47  167.56
   2   0  -6  228.97   52.83
  -2   0   4  451.47  143.10
  -2   0   4  211.13   48.25
   2   0  -4  465.55  147.64
   2   0  -4  227.56   51.38
  -2   0   2  259.73   82.49
  -2   0   2  504.86  111.71
   2   0  -2  253.68   80.56
  -2   0  -2   -0.04    2.22
   2   0   2 3519.40 1115.83
  -2   0  -4  228.90   53.25
   2   0   4  164.78   52.44
  -2   0  -6   15.49    7.88
   2   0   6   28.23    9.22
   2   0   6   19.46    9.12
  -2   0  -8   21.43   10.73
   2   0   8   18.37    6.05
   2   0   8   18.23   10.07
  -2   0 -10   31.92   14.46
   2   0  10   25.59    8.27
   2   1 -12   19.11    6.12
   2   1 -12   12.53   10.63
  -2  -1  12   13.09   13.66
  -2   1  12   12.60    4.05
  -2   1  12    8.90    7.81
   2  -1 -12   13.09    4.22
   2  -1 -12   14.39    8.27
  -2  -1  11   10.17    3.34
  -2  -1  11   14.43   11.19
  -2   1  11   14.50    4.68
   2  -1 -11   23.44    7.50
   2  -1 -11   31.78   11.93
   2   1 -10    4.15    1.65
   2   1 -10   16.51   10.42
  -2  -1  10    5.53    1.97
  -2  -1  10    6.37    8.69
  -2   1  10   10.59    3.48
  -2   1  10    7.36    6.55
   2  -1 -10    3.91    1.58
   2   1  -9   11.09    3.70
   2   1  -9   10.91    9.01
  -2  -1   9   18.16    5.88
  -2  -1   9    6.79    8.27
  -2   1   9    8.90    2.96
  -2   1   9    9.26    6.93
   2  -1  -9   17.74    5.74
   2  -1  -9   11.97    7.29
   2   1  -8    4.89    2.08
   2   1  -8   21.15   11.40
  -2  -1   8   21.93   12.99
  -2   1   8   18.34    5.98
  -2   1   8   12.35    7.07
   2  -1  -8   11.93    4.08
   2  -1  -8   12.95    7.36
   2   1  -7  253.12   61.59
  -2  -1   7  189.48   60.15
  -2  -1   7  246.85   59.76
   2  -1  -7  166.75   52.93
   2  -1  -7  219.61   51.21
   2   1  -6   18.30    8.13
  -2  -1   6   17.63    5.84
  -2  -1   6   16.15    7.46
  -2   1   6   12.49    6.26
   2  -1  -6   21.40    6.97
   2   1  -5  507.53  160.87
  -2  -1   5  499.51  158.34
  -2  -1   5  413.14   92.84
  -2   1   5  485.36  109.24
   2  -1  -5  526.96  167.07
   2  -1  -5  555.75  124.31
   2   1  -4  345.11   77.18
  -2  -1   4  404.87  128.32
  -2  -1   4  323.36   72.29
  -2   1   4  349.44   78.10
   2  -1  -4  326.92  103.68
   2  -1  -4  347.05   77.64
   2   1  -3 1097.98  348.00
   2   1  -3 1936.76  424.72
  -2  -1   3 1151.48  364.93
  -2  -1   3 1711.31  375.77
  -2   1   3 1931.02  423.28
   2  -1  -3 1164.85  369.26
   2  -1  -3 2169.22  474.98
   2   1  -2   45.33   14.71
   2   1  -2   66.24   15.91
  -2   1   2   33.15   11.68
   2  -1  -2   50.22   16.89
   2  -1  -2   47.93   11.83
   2   1  -1  984.62  312.07
   2   1  -1  961.04  211.94
  -2  -1   1  984.62  312.07
  -2  -1   1  685.93  152.14
  -2   1   1  815.83  179.74
   2  -1  -1  880.80  193.99
  -2   1   0  263.60   83.94
  -2   1  -1  759.17  240.73
   2  -1   1 1136.84  360.53
  -2   1  -2  641.97  203.60
  -2   1  -2  337.48   75.21
   2   1   3  121.95   39.73
   2   1   3   58.07   15.10
  -2  -1  -3   81.16   27.56
  -2   1  -3   75.53   24.18
  -2   1  -3   50.89   13.44
   2  -1   3   71.13   22.74
   2  -1   3   55.78   14.32
   2   1   4  117.83   37.73
   2   1   4  141.13   33.36
  -2  -1  -4  104.39   33.54
  -2  -1  -4  143.49   34.91
  -2   1  -4   87.39   27.87
  -2   1  -4  123.88   30.27
   2  -1   4  100.20   31.92
   2  -1   4  121.45   29.56
   2   1   5  255.09   81.02
   2   1   5  432.43   98.33
  -2  -1  -5  578.59  129.80
  -2   1  -5  341.42  108.40
  -2   1  -5  420.67   95.97
   2  -1   5  388.44  123.25
   2  -1   5  515.94  116.42
   2   1   6   37.48   12.21
   2   1   6   22.42    8.76
  -2  -1  -6   21.57    9.12
  -2   1  -6   11.90    4.19
  -2   1  -6   16.01   10.31
   2  -1   6   15.38    5.17
   2  -1   6    8.52    8.06
   2   1   7  208.63   66.24
   2   1   7  235.76   55.29
  -2  -1  -7  216.09   68.59
  -2  -1  -7  184.13   45.08
  -2   1  -7  194.13   61.66
  -2   1  -7  268.81   66.69
   2   1   8   44.27   14.18
  -2  -1  -8   32.84   10.56
  -2  -1  -8   37.24   12.88
  -2   1  -8   40.93   13.16
  -2   1  -8   23.19   15.17
   2  -1   8   29.74    9.57
   2  -1   8   30.13   14.61
   2   1   9   50.40   16.08
   2   1   9   74.47   22.24
  -2  -1  -9   31.82   10.28
  -2   1  -9   43.53   13.94
  -2   1  -9   62.19   21.75
   2  -1   9   43.92   14.04
   2  -1   9   36.04   15.56
   2   1  10    4.12    1.76
   2   1  10    1.62    4.47
  -2  -1 -10    5.00    1.87
  -2  -1 -10    2.67    5.17
  -2   1 -10    7.99    2.75
  -2   1 -10    2.53    8.80
   2  -1  10    4.05    1.65
  -2  -1 -11    5.31    1.87
  -2  -1 -11    6.23    6.09
  -2   1 -11    2.25    1.06
   2  -1  11    3.13    1.27
   2  -1  11    3.59    7.74
  -2  -2  12    2.11   48.85
  -2   2  12   12.53    8.45
   2  -2 -12   18.76    9.15
   2   2 -11    9.50    3.20
   2   2 -11   -0.84    9.82
  -2  -2  11   10.24    3.38
  -2  -2  11    0.39    9.22
  -2   2  11    9.19    2.99
  -2   2  11    8.87    6.79
   2  -2 -11   10.31    3.38
   2  -2 -11    7.36    5.38
   2   2 -10  162.74   51.66
   2   2 -10  117.69   34.45
  -2  -2  10  152.21   48.32
  -2   2  10   90.17   28.61
  -2   2  10  156.47   40.30
   2  -2 -10  131.84   41.85
   2  -2 -10  131.52   32.73
  -2  -2   9   31.89   10.21
  -2  -2   9   19.92   13.80
  -2   2   9   24.21    7.74
  -2   2   9   16.44    8.17
   2  -2  -9   35.62   11.37
   2   2  -8  307.42   97.52
   2   2  -8  269.34   67.01
  -2   2   8  246.15   78.03
   2  -2  -8  205.08   65.07
   2  -2  -8  245.72   57.82
   2   2  -7   86.82   27.63
   2   2  -7   71.13   23.37
  -2  -2   7   74.58   23.72
  -2  -2   7   59.79   22.35
  -2   2   7   55.85   17.77
  -2   2   7   60.15   17.39
   2  -2  -7   51.45   16.44
   2   2  -6   59.79   19.71
  -2  -2   6   85.10   27.06
  -2  -2   6   64.02   20.34
  -2   2   6   93.19   29.60
  -2   2   6   39.17   12.11
   2  -2  -6   99.11   31.50
   2  -2  -6   31.18    9.64
   2   2  -5  477.09  107.06
  -2  -2   5  432.25  137.05
  -2  -2   5  555.85  125.71
  -2   2   5  513.45  162.77
  -2   2   5  522.81  116.67
   2  -2  -5  437.04  138.59
   2  -2  -5  463.47  103.51
   2   2  -4  169.53   53.78
   2   2  -4   36.46   10.21
  -2  -2   4  140.88   44.73
  -2   2   4  127.37   40.44
   2  -2  -4  109.49   34.84
   2  -2  -4   39.03   10.31
   2   2  -3  255.19   57.79
  -2  -2   3  219.72   69.68
  -2  -2   3  193.74   44.70
  -2   2   3  137.43   43.75
  -2   2   3  236.61   53.04
   2  -2  -3  109.35   34.95
   2  -2  -3  272.96   61.06
   2   2  -2  778.28  246.78
   2   2  -2  889.07  195.40
  -2  -2   2  751.53  165.41
  -2   2   2  744.53  164.11
  -2  -2   1  330.47   74.82
  -2   2   1  210.88   47.34
   2  -2  -1  246.04   54.83
   2   2   0 1140.64  361.69
  -2   2   0  838.78  265.96
  -2   2  -1  371.30  117.76
   2  -2   1  283.80   90.06
  -2   2  -2  873.80  276.98
   2  -2   2  997.36  316.08
  -2  -2  -3   19.99    7.14
  -2   2  -3   19.46    6.55
  -2   2  -3    8.90    6.76
   2  -2   3   21.54    7.11
   2   2   4  650.24  144.89
  -2  -2  -4  471.60  149.93
  -2  -2  -4  600.76  133.56
  -2   2  -4  629.80  142.71
   2  -2   4  575.67  182.52
   2  -2   4  620.26  139.02
   2   2   5   15.03    6.72
  -2  -2  -5   34.91   11.83
  -2   2  -5   17.17    5.70
  -2   2  -5   13.51   10.59
   2  -2   5   14.71    4.93
   2  -2   5   10.52    8.73
   2   2   6   38.47   11.61
  -2  -2  -6   16.15    5.67
   2  -2   6   21.82    7.07
   2  -2   6   65.60   21.50
   2   2   7    4.33    4.08
  -2  -2  -7    5.46    4.93
  -2   2  -7    9.57    3.27
  -2   2  -7    7.43   10.95
   2  -2   7    6.41    9.96
   2   2   8    6.19    4.68
  -2  -2  -8    4.43    4.61
  -2   2  -8   29.88    9.64
  -2   2  -8    7.04   13.58
   2  -2   8   19.85    6.44
   2  -2   8    4.43    7.99
   2   2   9    4.58    4.50
  -2  -2  -9    5.77    2.15
  -2  -2  -9    1.97    3.77
  -2   2  -9   -4.01    9.50
   2  -2   9    6.02    2.15
   2   2  10   13.55    7.64
  -2  -2 -10   20.27    6.55
  -2  -2 -10   14.64    7.60
  -2   2 -10   18.48    5.98
  -2   2 -10    7.64   14.43
   2  -2  10   15.77    5.10
   2  -2  10   -2.22    9.92
   2   2  11    0.60    3.66
  -2  -2 -11    4.93    1.76
  -2  -2 -11    3.80    4.72
  -2   2 -11    4.47    1.58
  -2   2 -11    3.98   15.84
   2  -2  11    3.73    1.41
   2  -2  11    2.67  218.13
   2   3 -11    7.29    2.43
   2   3 -11   -2.99   10.00
  -2  -3  11    5.07    1.72
  -2  -3  11   -0.99   11.47
  -2   3  11   16.75    5.35
  -2   3  11    5.07    4.86
   2  -3 -11    7.92    2.60
   2  -3 -11    8.06    5.42
   2   3 -10    5.24    1.83
   2   3 -10   -1.34   11.16
  -2  -3  10   -1.90   15.70
  -2   3  10    5.60    1.87
   2  -3 -10    5.03    1.76
   2  -3 -10    5.67    4.79
   2   3  -9    6.26   11.02
  -2  -3   9    8.41    2.78
  -2  -3   9   -4.22   12.39
  -2   3   9   12.39    4.01
  -2   3   9   11.16    6.51
   2  -3  -9    5.60    1.97
   2  -3  -9    7.64    5.70
   2   3  -8    2.22    1.09
   2   3  -8    5.03    9.78
  -2  -3   8    3.34   10.17
  -2   3   8    4.86    1.65
  -2   3   8    9.61    6.30
   2  -3  -8    6.44    2.18
   2  -3  -8   12.07    7.18
   2   3  -7   58.14   18.51
   2   3  -7   57.01   19.39
  -2  -3   7   51.98   16.58
  -2  -3   7   49.66   21.89
  -2   3   7   31.85   10.17
  -2   3   7   67.64   19.36
   2  -3  -7   53.42   17.00
   2  -3  -7   68.77   18.55
   2   3  -6   14.68   10.00
  -2  -3   6   46.35   14.78
  -2  -3   6    7.00   11.54
  -2   3   6   43.15   13.76
   2  -3  -6   51.45   16.37
   2  -3  -6   28.33    8.94
   2   3  -5  485.36  153.87
   2   3  -5  642.61  145.67
  -2  -3   5  500.78  158.72
  -2   3   5  539.70  121.63
  -2   3   5  330.23  104.77
   2  -3  -5  404.10  128.21
   2  -3  -5  491.87  109.28
   2   3  -4  374.18  118.64
   2   3  -4  484.41  109.66
  -2  -3   4  417.22  132.29
  -2  -3   4  505.35  113.75
  -2   3   4  258.89   82.21
  -2   3   4  422.75   94.64
   2  -3  -4  273.49   86.86
   2   3  -3  455.30  144.33
   2   3  -3  596.01  133.42
  -2  -3   3  450.80  142.92
  -2  -3   3  791.65  176.15
  -2   3   3  692.30  153.16
   2  -3  -3  649.61  143.03
   2   3  -2  498.80  158.13
   2   3  -2  557.65  123.50
  -2  -3   2  366.97  116.35
  -2  -3   2  569.37  126.24
  -2   3   2  552.19  175.34
   2  -3  -2  423.28  134.44
   2  -3  -2  592.00  130.50
   2   3  -1  814.56  258.25
   2   3  -1  641.34  144.05
  -2  -3   1  635.36  201.45
  -2  -3   1  518.62  116.28
   2  -3  -1  557.40  176.81
   2  -3  -1  644.51  141.76
   2   3   0  303.02   96.19
  -2   3   0  182.80   58.03
   2  -3   0  251.39   79.75
  -2  -3  -1  167.00   53.25
  -2   3  -1   82.81   26.40
   2  -3   1   72.68   23.19
  -2   3  -2   71.90   22.91
  -2   3  -2   25.76    9.01
   2  -3   2   59.79   19.11
   2  -3   2   42.55   12.42
   2   3   3  151.19   36.29
  -2   3  -3  160.38   50.96
  -2   3  -3  164.50   40.26
   2  -3   3  140.49   44.59
   2  -3   3  241.64   57.93
  -2  -3  -4   95.34   23.37
  -2   3  -4  100.51   31.96
  -2   3  -4   76.16   24.46
   2   3   5  219.72   70.56
   2   3   5  227.11   52.90
  -2  -3  -5  221.12   70.78
  -2  -3  -5  225.21   51.77
  -2   3  -5  212.96   67.57
  -2   3  -5  200.25   51.98
   2  -3   5  198.56   63.00
   2  -3   5  404.41   97.45
   2   3   6  126.24   40.86
   2   3   6   64.12   17.28
  -2  -3  -6   68.14   17.74
  -2  -3  -6  104.39   33.61
  -2   3  -6   29.81   19.71
   2  -3   6   59.76   19.00
   2  -3   6   73.38   27.45
   2   3   7  108.57   34.63
  -2  -3  -7   94.78   23.86
  -2  -3  -7   65.07   20.87
  -2   3  -7   85.49   27.13
  -2   3  -7   46.67   27.73
   2  -3   7  109.42   34.74
   2  -3   7   61.34   26.08
   2   3   8   18.09    6.02
   2   3   8   20.55    8.20
  -2  -3  -8   15.94    5.35
  -2  -3  -8   18.90    8.62
  -2   3  -8    4.93   18.79
  -2   3  -8   16.08    5.21
   2  -3   8    5.98   17.25
   2   3   9   23.26    7.53
  -2  -3  -9   49.94   15.94
  -2  -3  -9   57.86   16.08
  -2   3  -9   35.02   11.19
  -2   3  -9   40.37   32.38
   2  -3   9   37.20   11.86
   2  -3   9   21.79   34.24
   2   3  10    6.69    2.32
   2   3  10    6.69    5.07
  -2  -3 -10   10.91    3.59
  -2   3 -10    7.11    2.39
   2  -3  10    8.48    2.78
   2  -3  10   -4.01   13.37
  -2  -3 -11    5.14    5.31
   2   4 -11   17.70    5.67
   2   4 -11   -1.62   18.41
  -2  -4  11   19.50    6.23
  -2   4  11   22.88    7.29
  -2   4  11   19.11    8.94
   2  -4 -11   24.53    7.81
   2  -4 -11   15.59    8.52
   2   4 -10   20.94    6.72
  -2  -4  10   45.37   14.43
  -2  -4  10  -39.73   47.23
  -2   4  10   33.96   10.80
  -2   4  10   33.29   11.65
   2  -4 -10   27.13    8.66
   2  -4 -10   41.28   12.42
   2   4  -9   38.75   12.35
   2   4  -9   -0.92   19.18
  -2  -4   9   38.89   12.39
  -2  -4   9  -23.26   37.83
   2  -4  -9   47.55   15.10
   2  -4  -9   21.82    7.99
   2   4  -8   40.72   12.99
  -2  -4   8   48.57   15.45
  -2  -4   8   10.70   23.93
  -2   4   8   98.54   31.25
  -2   4   8   85.59   22.74
   2  -4  -8   36.21   11.51
   2  -4  -8   71.76   19.11
   2   4  -7   61.55   19.57
   2   4  -7   23.44   16.96
  -2  -4   7   62.43   19.85
  -2  -4   7   -0.53   12.88
  -2   4   7   43.29   13.76
   2  -4  -7   53.46   17.00
   2  -4  -7   32.13   10.03
  -2   4   6   85.91   27.28
   2  -4  -6   62.33   19.85
   2   4  -5   64.02   20.38
   2   4  -5   28.93   13.16
  -2  -4   5   83.87   26.64
  -2  -4   5   11.51   12.35
  -2   4   5   74.12   23.58
   2  -4  -5   38.12   10.98
   2   4  -4   46.88   14.96
   2   4  -4   19.50    9.04
  -2  -4   4   31.96   10.21
  -2  -4   4   20.98   11.79
   2  -4  -4   23.19    6.97
   2   4  -3   38.99   12.46
   2   4  -3   70.39   20.27
  -2  -4   3   46.21   14.71
  -2  -4   3   88.90   25.30
  -2   4   3   63.28   20.24
   2  -4  -3   67.33   21.61
   2  -4  -3   60.57   14.36
   2   4  -2  269.09   85.35
  -2  -4   2  193.50   61.38
  -2  -4   2  272.96   62.36
  -2   4   2  247.17   78.41
   2  -4  -2  266.49   84.57
   2  -4  -2  204.05   45.89
   2   4  -1  369.85  117.30
  -2  -4   1  447.03  141.69
  -2  -4   1  559.06  127.30
  -2   4   1  510.35  161.82
   2  -4  -1  406.84  128.99
   2  -4  -1  423.07   93.44
   2   4   0  329.20  104.46
  -2  -4   0  358.70  113.82
  -2   4   0  370.35  117.44
   2  -4   0  263.99   83.76
  -2  -4  -1  155.66   49.52
  -2   4  -1   79.61   25.34
   2   4   2  294.68   93.62
  -2  -4  -2  289.72   92.03
  -2   4  -2  278.00   88.20
   2  -4   2  256.46   81.33
   2  -4   2  310.09   71.51
  -2  -4  -3  198.56   46.14
  -2   4  -3  207.75   65.92
  -2   4  -3  190.54   47.79
   2  -4   3  241.96   76.76
   2  -4   3  431.76  100.20
  -2   4  -4   48.50   15.45
  -2   4  -4   41.42   18.02
   2  -4   4   28.72    9.19
   2  -4   4   58.32   21.36
  -2  -4  -5   38.57   10.95
  -2   4  -5   35.93   11.47
  -2   4  -5   13.06   15.20
   2  -4   5   23.23    7.43
   2  -4   5   22.98   15.84
   2   4   6    4.82    5.81
  -2  -4  -6   16.51    7.39
  -2  -4  -6   12.00    5.49
  -2   4  -6   12.99    4.22
  -2   4  -6    3.13   13.62
   2  -4   6   16.12    5.21
   2   4   7   28.86   12.99
   2   4   7    6.30    4.47
  -2  -4  -7   29.60   10.52
  -2  -4  -7    3.59    3.45
  -2   4  -7   -0.84   20.17
   2  -4   7    6.86    2.32
   2  -4   7    1.90   19.29
   2   4   8   27.66    9.22
   2   4   8    9.89    5.77
  -2  -4  -8   35.30   11.51
  -2  -4  -8    5.53    5.10
  -2   4  -8   24.00    7.67
  -2   4  -8   16.65   28.16
   2  -4   8   23.33    7.46
   2   4   9    5.21    2.18
   2   4   9    1.30    2.89
  -2  -4  -9    7.21    2.85
  -2  -4  -9    2.53    3.87
  -2   4  -9    6.69    2.22
   2  -4   9    8.31    2.75
   2  -4   9  -11.05   25.13
   2   4  10    8.69    3.03
   2   4  10    3.59    4.43
  -2  -4 -10    7.11    5.46
  -2   4 -10    4.50    1.55
  -2   4 -10   -7.04   21.89
   2  -4  10    4.54    1.58
   2  -4  10  -10.98  239.60
   2   5 -10   -4.82   16.01
  -2  -5  10    4.08    1.44
  -2  -5  10   -5.88   30.37
  -2   5  10    5.98    1.97
  -2   5  10    5.42    4.82
   2  -5 -10    7.92    2.57
   2  -5 -10    4.01    4.05
   2   5  -9    1.41    0.70
   2   5  -9   -1.13   19.43
  -2  -5   9    1.90    0.81
  -2  -5   9   -4.54   40.47
  -2   5   9    4.65    1.55
   2  -5  -9    4.12    1.41
   2  -5  -9    5.14    3.62
   2   5  -8   10.42    3.41
   2   5  -8    1.76   17.81
  -2  -5   8   11.65    3.80
  -2  -5   8  -11.75   28.93
  -2   5   8   15.91    5.07
   2  -5  -8   14.15    4.54
   2  -5  -8   13.20    5.53
   2   5  -7   13.83    4.47
   2   5  -7   38.01   26.82
  -2  -5   7   12.60    4.08
  -2   5   7   20.03    6.37
   2  -5  -7   16.26    5.17
   2   5  -6  324.81   79.61
  -2  -5   6  159.15   50.50
  -2  -5   6  285.95   75.42
  -2   5   6  158.83   50.68
   2  -5  -6  128.70   41.07
   2  -5  -6  206.48   47.76
   2   5  -5  145.28   46.10
   2   5  -5  161.33   42.73
  -2  -5   5  129.87   41.21
  -2  -5   5  150.38   43.32
   2  -5  -5  124.27   29.21
   2   5  -4   47.58   15.17
  -2  -5   4   62.29   20.80
  -2   5   4   97.24   30.97
   2  -5  -4   67.08   21.43
   2  -5  -4   66.55   16.37
   2   5  -3  100.76   31.99
  -2  -5   3  218.20   69.16
  -2  -5   3   70.78   24.25
  -2   5   3  157.00   49.83
   2  -5  -3   92.53   29.39
   2  -5  -3  118.32   27.13
   2   5  -2  157.88   50.08
   2   5  -2  147.39   36.60
  -2  -5   2  168.09   53.32
  -2  -5   2  245.06   57.23
  -2   5   2  241.01   76.44
   2  -5  -2  290.81   92.21
   2  -5  -2  248.43   55.75
   2   5  -1  126.73   40.26
  -2  -5   1   65.99   23.40
  -2   5   1  106.88   33.93
   2  -5  -1  125.01   39.66
   2  -5  -1   81.90   18.79
   2   5   0   33.75   10.80
  -2  -5   0   35.51   11.40
   2  -5   0   68.45   21.79
  -2  -5  -1   54.37   17.42
  -2   5  -1   39.07   12.46
   2  -5   1   83.87   26.64
  -2   5  -2   14.04    4.58
   2  -5   2    6.86    2.32
   2  -5   2    8.41    6.41
  -2  -5  -3   45.72   14.89
  -2  -5  -3    8.45    4.36
  -2   5  -3   18.30    5.88
   2  -5   3   31.85   10.17
   2  -5   3   14.89    9.75
  -2  -5  -4  106.50   26.01
  -2   5  -4   71.58   22.74
  -2   5  -4   55.85   22.77
   2  -5   4   71.83   24.11
  -2  -5  -5   36.29   10.56
  -2   5  -5   22.84    7.32
  -2   5  -5    3.10   18.05
   2  -5   5   24.64    7.92
   2  -5   5    1.62   14.22
  -2   5  -6   23.09    7.39
  -2   5  -6   -0.35   27.28
   2  -5   6   23.90    7.64
   2  -5   6   -5.21   18.83
   2   5   7    4.58    9.47
   2   5   7   56.87   15.94
  -2  -5  -7   45.12   15.34
  -2  -5  -7   57.16   15.03
  -2   5  -7   34.91   11.16
  -2   5  -7   29.04   38.50
   2  -5   7   33.08   10.52
   2   5   8   27.24   12.71
   2   5   8   44.20   13.69
  -2  -5  -8   24.04    9.26
  -2  -5  -8   37.73   11.09
  -2   5  -8   19.11    6.16
  -2   5  -8  -10.17   38.54
   2  -5   8   16.54    5.31
   2  -5   8  -10.49   42.90
   2   5   9   20.41    7.92
   2   5   9   21.57    8.59
  -2  -5  -9   16.61    5.74
  -2  -5  -9   20.10    7.85
  -2   5  -9   11.83    3.87
  -2   5  -9  -10.80   29.95
   2  -5   9   10.73    3.48
   2  -5   9  -23.93   30.20
   2   6  -9   23.72    7.57
   2   6  -9   -8.69   24.60
  -2  -6   9   25.48    8.13
  -2  -6   9  -13.80   28.01
  -2   6   9   17.88    5.70
   2  -6  -9   35.41   11.26
   2   6  -8    6.90    2.29
   2   6  -8  -24.53   26.96
  -2  -6   8    6.83    2.29
   2  -6  -8   10.17    3.27
   2  -6  -8   10.73    5.07
   2   6  -7   40.23   12.81
   2   6  -7    6.51   28.33
  -2  -6   7   40.40   12.85
  -2  -6   7  -19.71   25.41
  -2   6   7   62.57   20.03
   2  -6  -7   42.69   13.66
   2   6  -6    7.43   21.82
  -2  -6   6   23.90    7.64
  -2  -6   6  -22.00   25.73
   2  -6  -6   25.73    8.06
   2   6  -5  123.88   39.31
   2   6  -5    8.06   13.76
  -2  -6   5   -8.20   17.46
  -2   6   5  134.90   43.15
   2  -6  -5  134.37   43.01
   2   6  -4   11.16    3.66
  -2  -6   4    9.47    3.17
  -2  -6   4   -2.85   12.25
   2  -6  -4   12.46    4.01
   2  -6  -4   11.86    4.40
   2   6  -3   29.21    9.33
  -2  -6   3   26.68    8.55
  -2  -6   3   -7.11   10.14
   2  -6  -3   17.25    5.53
   2  -6  -3   17.49    5.28
   2   6  -2   59.86   19.00
  -2  -6   2   46.21   14.71
  -2   6   2   93.05   29.53
   2  -6  -2   44.17   14.04
   2   6  -1  166.43   52.79
  -2   6   1  269.48   85.49
   2  -6  -1  180.93   57.40
   2   6   0   80.56   25.59
  -2  -6   0   38.68   12.35
   2  -6   0   32.20   10.28
   2   6   1  265.33   84.15
  -2  -6  -1  233.86   74.19
  -2   6  -1  175.34   55.64
   2   6   2  104.95   33.36
  -2  -6  -2   75.03   23.97
  -2   6  -2   73.56   23.37
   2  -6   2   64.83   20.59
   2  -6   2   38.78   13.58
   2   6   3   89.11   28.47
  -2  -6  -3   95.97   30.62
  -2  -6  -3   93.55   22.49
  -2   6  -3  118.32   37.55
   2  -6   3  137.96   43.75
   2  -6   3   48.53   19.11
  -2  -6  -4    6.93    4.12
  -2   6  -4   17.25    5.56
   2  -6   4    8.27    2.75
   2  -6   4   -1.58   11.79
  -2   6  -5   44.41   14.15
  -2   6  -5   -7.25   17.07
   2  -6   5   44.03   14.01
   2  -6   5   -5.98   19.04
  -2  -6  -6   12.78    5.42
  -2   6  -6    8.20    2.67
  -2   6  -6   -6.19   27.73
   2  -6   6    5.28    1.79
   2  -6   6   -3.70   18.69
  -2   6  -7   15.73    5.03
  -2   6  -7   -5.70   25.20
   2  -6   7   13.48    4.33
   2  -6   7   -3.48   20.62
  -2  -6  -8    3.70    5.77
  -2  -6  -8    3.38    2.99
  -2   6  -8    3.98    1.41
  -2   6  -8   -5.56   23.86
   2  -6   8    2.92    1.13
   2   7  -8   -7.43   31.96
  -2  -7   8    9.36    3.03
  -2  -7   8   -6.33 2994.62
  -2   7   8   12.18    3.91
   2  -7  -8   13.27    4.26
   2  -7  -8   19.60    7.07
   2   7  -7    6.48    2.11
   2   7  -7   -8.17   18.51
  -2  -7   7    4.50    1.51
  -2  -7   7  -16.65   16.68
   2  -7  -7    2.39    2.99
  -2  -7   6   49.62   15.77
  -2  -7   6  -13.34   21.89
  -2   7   6   24.25    7.85
   2  -7  -6   35.58   11.51
   2  -7  -6   40.47   11.44
   2   7  -5   10.87    3.52
   2   7  -5   -3.52    8.24
  -2  -7   5    8.27    2.75
  -2  -7   5  -16.61   15.59
  -2   7   5   22.17    7.07
   2  -7  -5   10.59    3.41
   2   7  -4   82.04   26.04
  -2  -7   4   94.39   29.95
  -2   7   4   55.64   17.67
   2  -7  -4   73.17   23.23
   2   7  -3   31.74   10.14
  -2  -7   3   16.82    5.42
  -2   7   3   31.71   10.10
   2  -7  -3   18.30    5.88
   2   7  -2   45.82   14.57
  -2  -7   2   47.30   15.06
  -2   7   2   48.39   15.38
   2  -7  -2   50.86   16.19
   2   7  -1   23.90    7.64
  -2  -7   1  -24.53 2327.80
  -2   7   1   41.74   13.27
   2  -7  -1   27.70    8.87
   2  -7  -1   21.96    6.12
   2   7   0   69.93   22.21
  -2  -7   0   53.99   17.17
   2  -7   0   62.61   19.88
   2   7   1   31.22    9.96
  -2  -7  -1   20.69    6.65
  -2   7  -1   19.08    6.12
   2   7   2   22.21    7.14
  -2  -7  -2   19.99    6.55
  -2   7  -2   18.90    6.09
   2  -7   2   27.28    8.69
   2  -7   2   -2.64    6.02
   2   7   3   19.64    6.33
  -2  -7  -3    8.13    3.17
  -2  -7  -3    5.49    3.20
  -2   7  -3    8.13    2.71
   2  -7   3    5.35    1.83
   2  -7   3   -3.17    9.68
   2   7   4   24.92    8.17
  -2  -7  -4   26.25    8.66
  -2  -7  -4   27.52    8.41
  -2   7  -4   24.57    7.85
   2  -7   4   24.71    7.88
   2  -7   4   -8.02   13.20
  -2  -7  -5   11.33    5.53
  -2   7  -5    5.38    1.83
  -2   7  -5   -3.94   10.17
   2  -7   5    3.52    1.23
   2  -7   5  -10.66   16.44
  -2   7  -6   36.74   11.68
  -2   7  -6  -18.55   23.16
   2  -7   6   29.67    9.43
   2  -7   6  -10.73   14.99
  -2  -7  -7    7.95    4.79
  -2   7  -7    3.80    1.34
  -2   7  -7  -16.44   23.16
   2  -7   7    2.67    0.99
   2  -7   7   -4.12   29.77
   2   8  -6   -2.53    6.02
  -2  -8   6    4.79    1.58
  -2  -8   6   -7.21   26.57
  -2   8   6    3.27    1.06
   2  -8  -6    4.54    1.48
   2  -8  -6    6.44    4.15
   2   8  -5   10.17    3.27
  -2  -8   5   13.20    4.26
  -2  -8   5   -8.90 1176.96
  -2   8   5   10.63    3.38
   2  -8  -5   10.35    3.31
   2  -8  -5   10.98    5.03
   2   8  -4    8.73    2.85
  -2  -8   4    4.79    1.65
  -2  -8   4   -9.12  251.81
  -2   8   4    4.86    1.58
   2  -8  -4    5.07    1.65
   2  -8  -4    6.37    3.62
   2   8  -3   19.11    6.12
  -2  -8   3   14.78    4.75
  -2  -8   3   -9.57   17.53
  -2   8   3   32.45   10.31
   2  -8  -3   17.10    5.46
   2  -8  -3   32.70    9.08
   2   8  -2   12.35    3.98
  -2  -8   2    5.95    2.04
  -2  -8   2  -13.48 2827.10
  -2   8   2    5.67    1.87
   2  -8  -2    8.80    2.89
   2  -8  -2    8.69    3.55
   2   8  -1   35.72   11.37
  -2  -8   1  -23.09   61.27
  -2   8   1   25.52    8.13
   2  -8  -1   21.43    6.86
   2  -8  -1    5.07    3.52
  -2  -8   0   38.47   12.25
   2   8   1   45.54   14.46
  -2  -8  -1   56.06   17.84
  -2   8  -1   53.92   17.14
   2   8   2   27.06    8.62
  -2  -8  -2   26.08    8.34
  -2   8  -2   21.89    7.00
   2  -8   2   29.14    9.29
   2  -8   2   -1.83    6.23
   2   8   3   22.56    7.21
  -2  -8  -3   23.26    7.53
  -2  -8  -3   11.47    4.93
  -2   8  -3   30.27    9.64
   2  -8   3   27.98    8.94
   2  -8   3   -0.39   10.56
   2   8   4    5.56    1.94
  -2  -8  -4    3.62    1.65
  -2  -8  -4    1.90    2.67
  -2   8  -4    7.04    2.29
   2  -8   4    7.32    2.43
   2  -8   4   -6.33  116.18
   2   8   5    9.68    3.27
  -2  -8  -5   13.02    4.43
  -2   8  -5   11.68    3.77
   2  -8   5   17.35    5.56
  -2  -9   4    1.37   13.27
   2   9  -3    8.76    2.85
  -2  -9   3    7.25    2.39
  -2  -9   3   -6.48  154.01
  -2   9   3    8.76    2.82
   2  -9  -3    8.09    2.64
   2  -9  -3    7.57    4.22
   2   9  -2   32.03   10.17
  -2  -9   2   -8.09   24.07
  -2   9   2   35.37   11.23
   2  -9  -2   45.15   14.36
   2  -9  -2   23.54    6.79
   2   9  -1   16.19    5.17
  -2  -9   1   -3.31    9.61
  -2   9   1   11.86    3.80
   2  -9  -1   -2.15    1.90
  -2  -9   0   17.88    5.74
   2  -9   0   23.37    7.46
   2   9   1    9.71    3.13
  -2  -9  -1    5.17    1.72
   2   9   2   10.14    3.27
  -2  -9  -2    7.18    2.39
  -2   9  -2    4.19    1.41
   2  -9   2    5.70    1.90
   2  -9   2   -0.84   33.22
  -2  -9  -3    3.77    1.37
  -2  -9  -3    1.34    4.12
   2  -9   3    1.30    5.46
  -3   0  12   11.40    3.70
  -3   0  12   26.96   13.73
   3   0 -12    6.37    2.15
  -3   0  10   20.87    6.72
  -3   0  10   39.56   15.94
   3   0 -10   37.48   11.97
  -3   0   8  452.77  143.56
  -3   0   8  231.96   55.68
   3   0  -8  473.78  150.24
   3   0  -8  299.32   70.07
  -3   0   6  215.60   68.42
   3   0  -6  298.59   94.71
   3   0  -6  227.49   52.54
  -3   0   4  564.65  179.03
  -3   0   4  609.70  135.29
   3   0  -4  393.64  124.90
   3   0  -4  473.46  105.58
  -3   0   2  361.23  115.01
  -3   0   2  304.11   68.28
   3   0  -2  401.25  127.75
   3   0  -2  311.68   69.23
  -3   0  -4  661.72  147.74
   3   0   4  572.99  128.07
  -3   0  -6   51.63   15.91
   3   0   6   31.43   10.21
   3   0   6   25.73   10.56
  -3   0  -8    1.62    7.14
   3   0   8    2.78    1.44
   3   0   8    9.04    7.32
   3   0  10   12.11    3.98
   3   0  10    0.28    5.00
   3   1 -12    6.16    2.11
   3   1 -12    4.08    8.13
  -3  -1  12    8.66    2.82
  -3  -1  12   -0.18    7.25
  -3   1  12    4.93    1.69
  -3   1  12    2.92    5.91
   3  -1 -12    5.28    1.79
   3   1 -11   12.46    9.01
  -3  -1  11   19.25    6.19
  -3   1  11   20.87   11.23
   3  -1 -11   12.63    4.12
   3  -1 -11   18.41    8.94
   3   1 -10   12.53    4.15
   3   1 -10   10.31    9.22
  -3  -1  10   10.84    3.62
  -3  -1  10   11.72    9.15
  -3   1  10    7.32    2.46
  -3   1  10    8.24    6.93
   3  -1 -10   13.73    4.47
   3  -1 -10    8.80    6.58
   3   1  -9   56.06   17.91
   3   1  -9   14.43    8.97
  -3  -1   9   12.67    8.87
  -3  -1   9   25.83    8.31
  -3   1   9   25.97    8.34
  -3   1   9    7.00    5.49
   3  -1  -9   29.84    9.57
   3  -1  -9   11.51    6.37
   3   1  -8    3.73    6.26
  -3  -1   8   23.23    7.50
  -3   1   8    8.87    5.49
   3  -1  -8    8.94    3.20
   3   1  -7  172.42   41.99
  -3  -1   7  269.90   85.59
  -3   1   7  175.51   41.85
   3  -1  -7  222.92   70.78
   3  -1  -7  177.76   42.13
   3   1  -6   69.16   22.03
   3   1  -6   43.32   12.92
  -3  -1   6   51.35   16.40
  -3  -1   6   56.10   16.29
  -3   1   6   66.38   17.39
   3  -1  -6   65.21   20.76
   3   1  -5  262.20   59.86
  -3  -1   5  197.37   62.61
  -3  -1   5  247.38   56.70
  -3   1   5  201.13   46.24
   3  -1  -5  251.00   79.68
   3  -1  -5  241.01   54.66
   3   1  -4   77.39   24.74
  -3  -1   4  118.96   37.87
  -3  -1   4   38.22   10.84
  -3   1   4   72.53   23.30
  -3   1   4   46.35   13.02
   3  -1  -4   59.41   19.36
   3   1  -3 1133.00  359.19
   3   1  -3 2436.06  533.51
  -3  -1   3 2194.70  481.03
  -3   1   3 1380.77  437.74
  -3   1   3 2248.19  492.65
   3  -1  -3 1373.13  435.38
   3  -1  -3 2425.89  531.29
   3   1  -2  162.53   51.74
   3   1  -2   49.69   12.56
  -3  -1   2  140.00   44.63
  -3  -1   2   48.99   12.85
   3  -1  -2   36.74    9.43
   3   1  -1  853.42  270.61
   3   1  -1  855.95  190.22
  -3  -1   1  793.55  251.74
   3  -1  -1  950.87  210.28
  -3   1  -1   83.23   27.17
   3  -1   1   79.47   25.83
  -3   1  -2  127.97   41.07
   3  -1   2  128.77   41.21
   3   1   3    4.08    7.21
  -3  -1  -3    5.49    7.07
  -3   1  -3   -0.07    3.31
   3  -1   3    9.22    3.87
   3  -1   3    1.02    4.08
   3   1   4   41.81   16.61
  -3  -1  -4   32.73   12.60
  -3  -1  -4    5.56    5.21
  -3   1  -4   23.90    8.17
  -3   1  -4    7.11    6.12
   3  -1   4   28.96    9.57
   3  -1   4    9.64    6.12
   3   1   5  115.23   37.06
   3   1   5   93.83   23.51
  -3  -1  -5  131.77   42.20
  -3  -1  -5   62.68   17.77
  -3   1  -5   96.19   30.65
  -3   1  -5   80.14   23.02
   3  -1   5  113.04   36.00
   3   1   6   10.66    4.15
   3   1   6    9.75    5.38
  -3  -1  -6    4.40    2.85
  -3   1  -6   11.86    4.12
  -3   1  -6   14.01   10.17
   3  -1   6   13.48    4.58
   3  -1   6   24.35   12.71
   3   1   7   79.22   21.01
  -3  -1  -7   92.21   29.49
  -3   1  -7   86.44   27.56
  -3   1  -7   71.13   23.62
   3  -1   7   97.70   31.11
   3   1   8   33.75   12.14
  -3  -1  -8   28.96    9.43
  -3  -1  -8   29.39   11.09
  -3   1  -8   20.87   13.55
   3  -1   8   19.74    6.41
   3  -1   8   29.07   14.08
   3   1   9   49.76   15.94
   3   1   9   48.71   16.47
  -3  -1  -9   53.21   17.03
  -3  -1  -9   51.77   16.68
  -3   1  -9   56.24   18.02
  -3   1  -9   35.51   16.82
   3  -1   9   57.65   18.44
   3  -1   9   28.72   16.15
   3   1  10    4.43    1.72
   3   1  10    5.24    5.63
  -3  -1 -10    1.30    5.07
  -3   1 -10    2.04    1.27
  -3   1 -10    0.32   10.17
   3  -1  10    2.50    1.23
   3  -1  10   -1.72    5.60
   3   1  11    5.63    9.33
  -3  -1 -11    7.92    7.04
  -3   1 -11    6.44   10.84
   3  -1  11    8.83    2.96
   3   2 -12    4.33    1.55
   3   2 -12    4.29   11.47
  -3  -2  12    4.08    1.44
  -3  -2  12   -0.95    9.96
  -3   2  12    4.89    1.65
  -3   2  12    8.97    8.73
   3  -2 -12    7.57    5.98
   3   2 -11   -0.39    7.88
  -3  -2  11    6.37    2.18
  -3  -2  11    9.64   11.40
  -3   2  11    4.75    1.65
  -3   2  11    8.02    5.95
   3  -2 -11    3.59    1.30
   3   2 -10   72.75   23.12
   3   2 -10  104.24   29.95
  -3  -2  10   47.69   15.20
  -3  -2  10  115.47   35.62
  -3   2  10   65.21   20.69
   3  -2 -10   85.03   26.99
   3  -2 -10  116.81   29.21
   3   2  -9    5.28    2.08
  -3  -2   9    9.54    3.20
  -3  -2   9   12.42   10.17
  -3   2   9    9.85    3.24
  -3   2   9   14.25    7.11
   3  -2  -9    8.62    2.92
   3   2  -8  203.49   64.58
   3   2  -8  233.23   58.39
  -3  -2   8  274.94   87.18
  -3  -2   8  230.56   60.29
  -3   2   8  201.45   63.88
  -3   2   8  195.15   46.67
   3  -2  -8  220.81   70.07
   3  -2  -8  158.90   38.04
   3   2  -7   23.05    7.46
   3   2  -7   49.45   17.28
  -3  -2   7   23.69    7.64
  -3  -2   7   29.88   13.80
  -3   2   7   40.09   12.81
  -3   2   7   31.74   11.26
   3  -2  -7   30.37    9.78
   3  -2  -7   24.67    8.69
   3   2  -6  262.79   83.37
  -3  -2   6  309.92   98.26
  -3  -2   6  174.49   43.08
  -3   2   6  281.24   89.22
  -3   2   6  173.15   40.68
   3  -2  -6  283.56   89.92
   3  -2  -6  191.21   43.96
   3   2  -5   26.47    8.52
   3   2  -5   10.59    7.25
  -3  -2   5   18.12    8.17
  -3   2   5   19.22    6.44
   3  -2  -5   20.45    6.97
   3   2  -4  137.75   33.12
  -3  -2   4  196.35   62.33
  -3  -2   4  163.44   39.84
  -3   2   4  326.78  103.68
   3  -2  -4  228.83   72.75
   3  -2  -4  142.04   33.47
   3   2  -3  101.46   32.31
   3   2  -3   22.74    7.78
  -3  -2   3  119.73   38.08
  -3   2   3   27.24    8.02
   3   2  -2  128.77   40.97
   3   2  -2   69.44   17.35
  -3  -2   2  129.48   41.18
  -3  -2   2   73.77   18.72
   3   2  -1  586.19  185.89
   3   2  -1  246.39   57.12
  -3  -2   1  647.08  205.08
  -3  -2   1  259.27   60.08
   3   2   0 1037.48  329.03
  -3  -2   0 1039.38  329.59
  -3   2   0  836.21  265.26
   3  -2   0  803.76  255.02
  -3   2  -1  351.87  111.78
   3  -2   1  336.67  106.88
  -3   2  -2  353.81  112.34
   3  -2   2  258.11   81.90
  -3   2  -3   56.38   18.16
  -3   2  -3    4.75    6.33
   3  -2   3   76.16   24.39
   3   2   4  503.66  112.66
   3  -2   4  515.10  117.13
   3   2   5   26.78   12.95
   3   2   5   13.27    6.12
  -3  -2  -5   14.71    6.48
  -3   2  -5   10.91    3.80
  -3   2  -5    9.01    9.57
   3  -2   5   11.83    4.08
   3  -2   5   10.21   10.31
   3   2   6   82.53   20.98
  -3  -2  -6   63.00   20.59
  -3  -2  -6   69.75   18.55
  -3   2  -6   75.14   24.04
  -3   2  -6   71.65   24.67
   3  -2   6   62.89   20.03
   3  -2   6   89.22   27.59
   3   2   7    8.38    4.89
  -3  -2  -7    5.03    2.60
  -3  -2  -7   10.52    5.84
  -3   2  -7    6.48    2.50
  -3   2  -7    0.11    9.78
   3  -2   7    4.33    8.94
   3   2   8    5.07    2.46
  -3  -2  -8    8.94    3.59
  -3  -2  -8    3.73    4.22
  -3   2  -8   -0.53    9.22
   3  -2   8    0.04  180.86
   3   2   9    4.50    1.94
   3   2   9    2.46    3.77
  -3  -2  -9    2.39    1.58
  -3  -2  -9    2.46    4.15
  -3   2  -9    2.43    1.27
  -3   2  -9   -4.26   11.19
   3  -2   9    2.25    1.30
   3  -2   9    0.46    8.45
   3   2  10   11.23    3.87
   3   2  10    8.38    6.41
  -3  -2 -10    9.57    3.27
  -3  -2 -10    8.20    5.56
  -3   2 -10    8.45    2.85
  -3   2 -10   -2.53   12.25
   3  -2  10   12.25    4.08
   3  -2  10   -2.64    8.31
  -3  -3  11    7.29    2.43
  -3  -3  11   -4.40   12.56
  -3   3  11   25.52    8.13
  -3   3  11    9.04    6.26
   3  -3 -11    7.74    2.53
   3   3 -10   28.72    9.19
   3   3 -10   16.33   16.01
  -3  -3  10   24.28    7.78
  -3   3  10   26.18    8.34
  -3   3  10   26.50   10.73
   3  -3 -10   40.58   12.92
   3  -3 -10   15.91    7.21
   3   3  -9   14.25   15.10
  -3  -3   9   39.24   12.49
  -3  -3   9    3.91   14.82
  -3   3   9   25.41    8.13
  -3   3   9   15.10    7.25
   3  -3  -9   17.03    5.53
   3  -3  -9   23.33    8.80
   3   3  -8   21.75    7.00
  -3  -3   8   17.17    5.56
  -3  -3   8    0.35    9.15
  -3   3   8   27.63    8.83
   3  -3  -8   27.24    8.76
   3  -3  -8    7.21    4.68
   3   3  -7   21.29    6.86
   3   3  -7   75.03   24.81
  -3  -3   7   23.33    7.53
  -3  -3   7   15.45   12.28
  -3   3   7   29.28   10.31
   3  -3  -7   36.78   11.75
   3  -3  -7   27.70    9.01
   3   3  -6   25.37    8.13
   3   3  -6    8.55    7.67
  -3  -3   6   21.33    6.90
  -3   3   6   35.58   11.37
   3  -3  -6   17.46    5.84
   3  -3  -6   10.38    4.58
   3   3  -5  139.93   44.38
  -3  -3   5  155.66   49.38
  -3   3   5  127.44   40.54
  -3   3   5  198.92   46.03
   3  -3  -5  133.24   42.44
   3  -3  -5  174.88   40.40
   3   3  -4  218.38   69.30
  -3  -3   4  198.95   50.43
  -3   3   4  114.20   36.53
  -3   3   4  142.78   33.68
   3   3  -3  847.68  268.71
   3   3  -3 1180.12  260.29
  -3  -3   3 1009.47  319.84
  -3  -3   3  721.58  160.31
   3  -3  -3  910.12  200.18
   3   3  -2  703.11  222.99
   3   3  -2  576.90  129.48
  -3  -3   2  576.69  182.83
  -3  -3   2  710.11  157.95
   3   3  -1 1083.34  343.46
   3   3  -1  711.41  159.04
  -3  -3   1 1168.05  370.21
  -3  -3   1  706.94  158.65
  -3   3   1  883.37  280.36
   3  -3  -1 1216.45  385.69
   3  -3  -1 1138.10  250.86
   3   3   0  194.55   61.98
  -3   3   0  139.30   44.38
  -3   3  -1  394.81  125.29
   3  -3   1  306.79   97.31
  -3   3  -2  268.71   85.35
   3  -3   2  292.15   92.67
  -3   3  -3   45.29   14.61
  -3   3  -3   13.97    9.40
   3  -3   3   55.61   17.77
   3  -3   3   12.42    8.52
  -3  -3  -4   76.55   19.29
  -3   3  -4   82.67   26.36
  -3   3  -4   49.55   19.67
   3  -3   4   66.87   21.29
   3   3   5   12.92   18.02
  -3  -3  -5   21.50    9.43
  -3  -3  -5   54.55   14.50
  -3   3  -5   49.20   15.73
  -3   3  -5   33.40   17.56
   3  -3   5   52.97   16.93
   3  -3   5   65.28   22.56
   3   3   6   28.23   12.32
   3   3   6   45.08   13.09
  -3  -3  -6   34.49   12.25
  -3  -3  -6   39.87   11.40
   3  -3   6   31.67   10.14
   3  -3   6   40.19   18.37
   3   3   7   50.08   15.13
  -3  -3  -7   34.21   11.61
  -3  -3  -7   40.93   12.32
  -3   3  -7   49.10   15.66
  -3   3  -7    5.81   15.70
   3  -3   7   21.61   17.32
   3   3   8   10.38    3.94
   3   3   8    2.43    3.70
  -3  -3  -8   10.73    4.15
  -3  -3  -8    3.80    4.26
  -3   3  -8   10.95    3.66
  -3   3  -8    1.23   19.46
   3  -3   8   12.11    3.98
   3   3   9   30.97   10.03
   3   3   9   62.89   17.98
  -3  -3  -9   33.61   10.91
  -3  -3  -9   48.29   14.78
  -3   3  -9   30.51    9.78
  -3   3  -9    6.30   35.51
   3  -3   9   36.18   11.54
   3  -3   9    7.60   27.28
   3   3  10    7.36    2.64
  -3  -3 -10    3.10    1.48
  -3  -3 -10    5.00    4.43
  -3   3 -10    3.77    1.37
  -3   3 -10   -0.04   16.96
   3  -3  10    3.87    1.44
   3  -3  10   -8.59   12.00
   3   4 -11   -3.13   14.89
  -3  -4  11   14.68    4.72
  -3  -4  11  -17.67   23.37
  -3   4  11   14.01    4.50
   3  -4 -11    8.80    2.85
   3  -4 -11   27.73   10.21
   3   4 -10   29.32    9.36
   3   4 -10   -2.15   20.06
  -3  -4  10   20.10    6.44
  -3  -4  10  -14.68   39.80
  -3   4  10   23.23    7.43
  -3   4  10   27.56   10.52
   3  -4 -10   18.93    6.09
   3  -4 -10   41.49   13.37
   3   4  -9   10.10   18.93
  -3  -4   9   22.59    7.25
  -3  -4   9    6.16   36.29
  -3   4   9   23.33    7.46
   3  -4  -9   31.67   10.10
   3  -4  -9   23.69    7.99
   3   4  -8   50.68   16.12
   3   4  -8   25.80   18.37
  -3  -4   8   53.64   34.56
  -3  -4   8   52.16   16.61
  -3   4   8   70.42   22.35
  -3   4   8   46.91   13.90
   3  -4  -8   40.09   11.51
   3   4  -7   42.87   13.66
   3   4  -7   64.05   23.12
  -3  -4   7   46.10   23.76
  -3  -4   7   25.94    8.31
  -3   4   7   42.48   13.51
  -3   4   7   55.61   16.05
   3  -4  -7   55.54   17.67
   3  -4  -7   53.35   14.61
   3   4  -6   31.96   10.21
   3   4  -6   43.08   17.03
  -3  -4   6   39.07   12.49
  -3   4   6  102.20   32.48
   3  -4  -6   62.54   19.99
   3   4  -5   35.09   11.19
   3   4  -5   86.05   26.75
  -3  -4   5   47.62   15.17
  -3  -4   5   58.35   25.13
  -3   4   5   27.45    9.26
   3  -4  -5   27.66    9.61
   3  -4  -5   37.94    9.92
   3   4  -4   16.29    5.28
   3   4  -4   25.87   11.68
  -3  -4   4   22.03    7.07
  -3  -4   4   12.35   14.08
   3   4  -3   37.80   12.11
   3   4  -3   51.95   16.01
  -3  -4   3   39.03   12.49
  -3  -4   3   41.78   14.85
  -3   4   3   49.73   16.89
   3  -4  -3   46.60   12.28
   3   4  -2  137.89   43.82
   3   4  -2  183.61   45.33
  -3  -4   2  118.78   37.73
  -3  -4   2  184.84   46.67
  -3   4   2  171.57   54.69
   3  -4  -2  127.89   40.97
   3  -4  -2  170.06   38.36
   3   4  -1  227.04   72.11
  -3  -4   1  273.74   86.82
  -3  -4   1   72.61   23.72
   3  -4  -1  232.39   73.80
   3  -4  -1  138.07   32.91
   3   4   0  624.45  198.00
  -3   4   0  411.63  130.57
   3   4   1  385.20  122.40
  -3  -4  -1  291.30   92.60
  -3   4  -1  188.96   60.01
   3  -4   1  177.62   56.38
  -3   4  -2  238.83   75.81
   3  -4   2  204.69   64.97
  -3   4  -3   73.56   23.44
  -3   4  -3   22.38   12.25
   3  -4   3   62.43   19.88
   3  -4   3   28.75   14.75
  -3  -4  -4   67.11   17.35
  -3   4  -4   50.61   16.15
  -3   4  -4   33.36   16.54
   3  -4   4   89.50   28.47
   3  -4   4   26.25   15.70
  -3   4  -5   34.17   10.95
   3  -4   5   35.33   11.30
  -3  -4  -6    5.53    8.52
  -3  -4  -6   35.41   10.35
  -3   4  -6   10.35   21.05
   3  -4   6   15.94    5.17
   3  -4   6   11.51   18.58
   3   4   7   24.99   12.04
   3   4   7   40.05   12.95
  -3  -4  -7   33.61   12.67
  -3  -4  -7   30.23    9.54
  -3   4  -7   28.86    9.26
  -3   4  -7   21.57   37.27
   3  -4   7   32.77   10.49
   3  -4   7   16.58   32.84
   3   4   8   32.59   13.06
   3   4   8   27.70    9.61
  -3  -4  -8   36.50   12.35
  -3  -4  -8   19.85    7.46
  -3   4  -8   19.67    6.33
  -3   4  -8  -14.64   27.35
   3  -4   8  -18.79   39.52
   3   4   9    8.55    3.87
   3   4   9    5.56    4.33
  -3  -4  -9    4.50    2.18
  -3  -4  -9    3.27    4.33
  -3   4  -9    4.43    1.58
  -3   4  -9  -17.95   26.29
   3  -4   9    4.54    1.62
   3  -4   9  -11.33   28.40
  -3  -4 -10    2.89    4.05
  -3   4 -10   -4.75   18.76
   3   5 -10    8.73    2.85
   3   5 -10  -10.77   18.37
  -3  -5  10    6.62    2.22
  -3  -5  10   -8.27   24.18
  -3   5  10    6.44    2.08
  -3   5  10    8.45    6.23
   3  -5 -10   12.35    3.98
   3   5  -9    5.42   18.58
  -3  -5   9    5.60    1.90
  -3  -5   9   -3.24   34.91
  -3   5   9    7.07    2.29
   3  -5  -9    5.17    1.76
   3  -5  -9    4.96    3.48
   3   5  -8   25.06    8.02
   3   5  -8   27.28   23.05
  -3  -5   8  -24.71   39.07
  -3   5   8   30.27    9.64
   3  -5  -8   12.46    4.01
   3  -5  -8   14.01    5.60
   3   5  -7   14.89   18.62
  -3  -5   7   29.11    9.29
  -3   5   7   12.25    3.94
   3  -5  -7    8.80    2.96
   3   5  -6  307.56   77.57
  -3  -5   6  193.36   61.31
  -3   5   6   81.16   25.83
   3  -5  -6   91.40   29.18
   3  -5  -6  178.64   41.00
   3   5  -5   19.71   13.90
  -3  -5   5   41.78   13.34
  -3  -5   5    7.39   18.62
   3  -5  -5   40.51   10.73
   3   5  -4   66.55   23.40
  -3  -5   4   95.87   30.41
  -3   5   4   78.41   25.45
   3  -5  -4   40.05   13.87
   3  -5  -4  115.86   26.96
   3   5  -3  190.54   60.43
   3   5  -3  321.50   75.46
  -3  -5   3  352.82   84.18
  -3   5   3  280.21   88.97
   3  -5  -3  283.35   89.99
   3  -5  -3  318.33   71.41
  -3  -5   2  207.57   65.78
  -3  -5   2   52.93   20.59
  -3   5   2   96.75   30.79
   3  -5  -2   73.70   23.47
   3  -5  -2   47.83   11.86
   3   5  -1  137.05   43.53
  -3  -5   1  163.48   51.91
   3  -5  -1  124.52   39.52
   3   5   0  155.84   49.52
  -3   5   0   73.10   23.33
   3  -5   0   78.27   24.92
  -3  -5  -1   40.37   13.09
  -3   5  -1   28.93    9.36
   3  -5   1   25.23    8.13
  -3  -5  -2   55.71   18.23
  -3   5  -2   42.37   13.55
   3  -5   2   67.19   21.40
  -3   5  -3   62.68   19.99
   3  -5   3   25.23    8.09
   3  -5   3    4.33    6.51
  -3  -5  -4   37.31   10.42
  -3   5  -4   45.33   14.46
  -3   5  -4    8.09   15.06
   3  -5   4   37.31   11.93
   3  -5   4    4.22   12.88
  -3   5  -5   17.56    5.67
  -3   5  -5  -15.13   16.37
   3  -5   5   11.26    3.70
   3  -5   5  -12.99   16.61
   3   5   6   23.37    7.99
  -3  -5  -6   12.74    5.42
  -3   5  -6   17.10    5.56
  -3   5  -6  -24.74   26.64
   3  -5   6   19.36    6.23
  -3  -5  -7    0.04    8.97
  -3  -5  -7   15.80    6.09
  -3   5  -7   -5.67   37.09
   3  -5   7   21.50    6.90
   3  -5   7  -24.21   29.56
   3   5   8    6.16    7.78
   3   5   8   12.18    6.16
  -3  -5  -8   18.27    9.12
  -3  -5  -8   17.25    6.97
  -3   5  -8   15.03    4.86
  -3   5  -8   -9.19   35.65
   3  -5   8   14.64    4.72
   3  -5   8  -18.05   32.52
   3   5   9   20.03   12.85
  -3  -5  -9   26.36    9.15
  -3  -5  -9   34.74   12.42
  -3   5  -9   11.09    3.59
  -3   5  -9  -10.42   28.61
   3  -5   9   10.17    3.34
   3  -5   9  -22.21   30.20
   3   6  -9   -7.29   28.54
  -3  -6   9   13.41    4.33
  -3  -6   9  -10.84   33.15
  -3   6   9   12.95    4.12
   3  -6  -9   16.08    5.14
   3   6  -8   13.48    4.33
   3   6  -8   -9.71   24.28
  -3   6   8   11.16    3.55
   3  -6  -8    9.78    3.17
   3  -6  -8    9.26    4.61
   3   6  -7   48.95   15.56
   3   6  -7   11.54   26.96
  -3  -6   7  -31.64   23.83
  -3   6   7   25.02    7.99
   3  -6  -7   24.74    7.95
   3  -6  -7   20.34    6.51
   3   6  -6   80.00   25.41
   3   6  -6   16.93   25.62
  -3  -6   6   70.49   22.38
  -3  -6   6  -13.16   25.90
   3   6  -5   80.49   25.55
   3   6  -5   90.94 2236.72
  -3  -6   5   97.84   31.08
  -3   6   5  102.20   32.70
   3  -6  -5   98.02   31.57
   3  -6  -5  146.06   33.61
   3   6  -4  176.99   56.13
  -3  -6   4  253.29   80.31
  -3   6   4  195.08   61.94
   3  -6  -4  157.56   50.08
   3   6  -3   30.37   12.63
  -3  -6   3   33.75   10.77
  -3  -6   3   32.41   16.89
   3  -6  -3   52.23   16.65
   3  -6  -3   72.36   17.84
   3   6  -2   74.12   23.54
  -3  -6   2   75.46   24.00
  -3   6   2   55.57   17.70
   3  -6  -2   57.68   18.37
   3   6  -1  104.24   33.12
  -3  -6   1  185.09   58.74
   3  -6  -1  177.38   56.28
   3   6   0   41.53   13.27
  -3   6   0   29.28    9.40
   3  -6   0   26.04    8.41
  -3  -6  -1  188.96   60.04
  -3   6  -1  119.80   38.04
   3  -6   1  130.32   41.35
   3   6   2   51.59   16.58
  -3  -6  -2   83.16   26.54
  -3   6  -2   41.00   13.06
   3   6   3   85.84   27.42
  -3  -6  -3  167.38   53.28
  -3   6  -3   31.82   16.54
  -3   6  -3  114.06   36.25
   3  -6   3  107.59   34.14
   3  -6   3   41.70   18.76
  -3  -6  -4   13.66    5.67
  -3   6  -4   17.60    5.67
   3  -6   4   21.71    6.93
   3  -6   4   -5.21  464.67
  -3   6  -5   53.32   16.96
   3  -6   5   59.58   18.93
  -3  -6  -6    3.77    3.34
  -3   6  -6    4.47    1.51
  -3   6  -6  -13.76   26.08
   3  -6   6   -1.87   17.17
  -3   6  -7    6.76    2.25
  -3   6  -7  -10.52   26.68
   3  -6   7    2.71    1.02
   3  -6   7  -24.18   21.29
  -3   6  -8    1.34    0.67
  -3   6  -8   -3.45   20.27
   3  -6   8    2.92    1.06
   3  -6   8   -6.26   20.13
   3   7  -8    2.64    0.92
   3   7  -8   -8.31   14.96
  -3  -7   8    7.39    2.43
  -3  -7   8   -8.24   17.03
  -3   7   8    1.90    0.63
   3  -7  -8    1.90    0.77
   3  -7  -8    4.29    3.34
   3   7  -7    7.25    2.39
   3   7  -7   -2.89   16.08
  -3  -7   7    6.33    2.11
  -3  -7   7   -7.00   13.23
   3  -7  -7   10.00    4.50
   3   7  -6   32.20   10.24
   3   7  -6  -10.70   19.22
  -3  -7   6   25.87    8.27
  -3  -7   6  -19.08 9999.00
  -3   7   6   36.14   11.58
   3  -7  -6   56.63   18.62
   3   7  -5    9.68    3.13
  -3  -7   5   12.49    4.05
  -3  -7   5   -8.59   22.74
  -3   7   5   16.22    5.21
   3  -7  -5    8.34    2.78
   3  -7  -5    6.51    3.06
   3   7  -4   54.62   17.35
   3   7  -4   -1.41    9.43
  -3  -7   4   77.50   24.60
  -3  -7   4  -16.01   21.54
  -3   7   4   97.94   31.11
   3  -7  -4   81.83   26.01
   3   7  -3   32.38   10.31
  -3  -7   3   23.44    7.50
  -3   7   3   32.70   10.42
   3  -7  -3   32.55   10.38
   3   7  -2  118.46   37.59
  -3  -7   2  -12.04  170.62
  -3   7   2   55.78   17.74
   3  -7  -2   73.63   23.40
   3  -7  -2   70.07   16.96
   3   7  -1   41.74   13.27
  -3  -7   1   34.53   11.05
  -3  -7   1  -18.05   19.71
  -3   7   1   28.58    9.12
   3  -7  -1   30.62    9.78
   3  -7  -1    3.34   11.51
   3   7   0   62.82   19.99
  -3  -7   0   90.06   28.61
  -3   7   0   68.42   21.75
   3  -7   0   72.36   22.98
  -3  -7  -1   18.97    6.19
  -3   7  -1   27.66    8.83
   3   7   2   18.69    6.09
  -3  -7  -2    9.22    3.55
  -3   7  -2   10.03    3.24
   3  -7   2   13.58    4.40
   3   7   3    6.09    2.64
  -3  -7  -3    8.97    3.45
  -3   7  -3    3.41    1.23
   3  -7   3    6.97    2.29
   3  -7   3   -3.13    7.25
  -3  -7  -4    6.65    2.75
  -3  -7  -4    3.91    3.17
  -3   7  -4   -5.21    5.91
   3  -7   4    9.68    3.13
   3  -7   4   -4.93   38.96
  -3  -7  -5    8.69    5.03
  -3   7  -5    4.19    1.44
   3  -7   5    5.70    1.90
   3  -7   5  -15.49   16.26
  -3  -7  -6   20.10    8.38
  -3   7  -6   15.38    4.93
  -3   7  -6  -15.49   20.10
   3  -7   6   15.38    4.93
   3  -7   6  -11.09 1125.36
  -3  -7  -7    6.58    5.21
  -3   7  -7    4.40    1.48
  -3   7  -7  -16.08  188.96
   3  -7   7    2.64    0.99
   3  -7   7   -5.56 5296.27
   3   8  -6    3.13    1.06
   3   8  -6   -2.71   69.86
  -3  -8   6    5.42    1.83
  -3  -8   6   -5.31  251.88
  -3   8   6    4.72    1.51
   3  -8  -6    9.29    2.99
   3  -8  -6    7.88    4.26
   3   8  -5    6.41    2.08
   3   8  -5   -1.76    6.02
  -3  -8   5    8.59    2.78
  -3  -8   5   -3.98   91.50
  -3   8   5   15.03    4.79
   3  -8  -5   15.45    4.96
   3  -8  -5   10.10    4.33
   3   8  -4    9.71    3.17
  -3  -8   4   14.08    4.54
  -3  -8   4   -9.68   14.25
  -3   8   4    9.36    2.99
   3  -8  -4   14.99    4.82
   3  -8  -4   15.84    5.46
  -3  -8   3    9.12    2.96
  -3  -8   3   -8.90  199.41
  -3   8   3   22.59    7.18
   3  -8  -3    7.81    2.57
   3  -8  -3   16.54    6.48
   3   8  -2   12.63    4.05
  -3  -8   2    7.07    2.36
  -3  -8   2   -6.93   17.28
  -3   8   2    3.70    1.27
   3  -8  -2    3.91    1.41
   3  -8  -2    1.06    3.20
   3   8  -1   29.21    9.29
  -3  -8   1   -8.06   18.02
  -3   8   1   11.05    3.55
   3  -8  -1   15.70    5.07
   3  -8  -1   -3.31  197.19
   3   8   0    8.20    2.67
  -3  -8   0    6.16    2.11
  -3   8   0    2.11    0.81
   3  -8   0    4.50    1.58
  -3  -8  -1   54.94   17.49
  -3   8  -1   39.31   12.49
   3   8   2   11.23    3.66
  -3  -8  -2    7.50    2.71
  -3   8  -2    9.33    3.03
   3  -8   2    4.12    1.44
   3   8   3   24.28    7.78
  -3  -8  -3   33.58   10.80
  -3   8  -3   24.35    7.78
   3  -8   3   29.81    9.50
   3  -8   3   -5.42   89.22
   3   8   4    5.28    2.11
  -3  -8  -4    3.77    1.94
  -3  -8  -4    1.02    3.13
  -3   8  -4    5.07    1.69
   3  -8   4    0.49   12.74
  -3  -8  -5    5.17    2.11
  -3  -8  -5   29.81   10.38
  -3   8  -5   15.03    4.82
  -3   8  -5   -2.75   52.51
   3  -8   5   -4.58   41.28
   3   9  -3    9.15    2.96
  -3  -9   3    8.97    2.92
  -3  -9   3   -2.67   22.14
  -3   9   3    8.52    2.75
   3  -9  -3    8.62    2.82
   3  -9  -3   12.46    6.83
   3   9  -2   34.53   10.98
  -3  -9   2   30.62    9.75
  -3  -9   2  -12.11  108.40
  -3   9   2   28.05    8.94
   3  -9  -2   33.36   10.63
   3  -9  -2   16.58   27.10
   3   9  -1    5.81    1.90
  -3  -9   1   -3.80    8.52
  -3   9   1   15.49    4.96
   3  -9  -1    5.42    1.83
   3  -9  -1   -0.32   22.00
   3   9   0   21.15    6.72
  -3  -9   0   27.38    8.73
   3  -9   0   24.64    7.85
   3   9   1    3.70    1.27
  -3  -9  -1    4.26    1.55
  -3   9  -1   12.95    4.15
  -3  -9  -2    2.89    1.20
  -3   9  -2   11.33    3.66
   3  -9   2    2.71    1.02
  -4   0  12    7.07    2.32
   4   0 -12    7.18    2.39
   4   0 -12   18.09    9.15
  -4   0  10   46.95   14.96
  -4   0  10   48.22   18.69
   4   0 -10   37.48   12.00
   4   0 -10   54.52   17.98
  -4   0   8  335.89  106.50
   4   0  -8  456.25  103.22
  -4   0   6  313.72   99.53
  -4   0   6  470.40  107.45
   4   0  -6  456.40  144.75
   4   0  -6  342.72   79.43
  -4   0   4  547.58  173.68
  -4   0   4  712.68  157.88
   4   0  -4  538.75  170.94
  -4   0   2   31.67   10.59
   4   0  -2   28.82   10.17
  -4   0  -2   76.79   29.60
   4   0   2    8.20   14.25
  -4   0  -4    0.11    1.97
   4   0   4 1425.32  452.31
  -4   0  -6   53.78   17.77
  -4   0  -6   88.72   23.90
   4   0   6   67.57   21.71
  -4   0  -8    1.48    7.25
   4   0   8    6.86    2.60
   4   0   8    3.94    6.72
  -4   0 -10    1.16    0.92
  -4   0 -10    1.44    6.79
   4   0  10    1.27    1.06
   4   1 -12    0.63    0.56
   4   1 -12    1.44    6.12
  -4  -1  12    1.44    0.70
  -4  -1  12    1.69    6.97
  -4   1  12    3.55    5.67
  -4   1  12    1.37    0.70
   4  -1 -12    1.37    0.70
   4  -1 -12    4.86    5.03
   4   1 -11   32.38   10.38
   4   1 -11   21.82   12.85
  -4  -1  11   51.91   16.54
  -4  -1  11   31.11   14.82
  -4   1  11   69.30   22.03
  -4   1  11   55.29   18.16
   4  -1 -11   51.63   16.44
   4  -1 -11   55.08   18.30
   4   1 -10   53.28   16.96
  -4  -1  10   32.45   15.70
  -4   1  10   53.81   17.10
   4  -1 -10   58.39   18.62
   4  -1 -10   45.12   14.68
   4   1  -9   64.51   20.55
   4   1  -9   91.15   25.20
  -4  -1   9   51.21   16.37
  -4  -1   9  116.18   32.59
  -4   1   9   66.62   21.19
  -4   1   9   64.76   18.90
   4  -1  -9   53.49   17.07
   4  -1  -9   65.85   18.23
   4   1  -8   77.18   24.57
   4   1  -8   51.52   16.58
  -4  -1   8   50.01   17.88
  -4   1   8   41.25   12.67
   4  -1  -8   57.40   18.30
   4  -1  -8   47.69   14.43
   4   1  -7   56.20   17.91
  -4  -1   7   54.83   17.46
  -4  -1   7  167.88   41.60
  -4   1   7   66.80   21.29
   4  -1  -7   78.13   24.92
   4  -1  -7  115.72   27.80
   4   1  -6   38.43   12.35
   4   1  -6   18.02    8.45
  -4  -1   6   27.91    9.08
  -4  -1   6   10.45    7.50
  -4   1   6   31.25   10.17
  -4   1   6    6.30    4.50
   4  -1  -6   34.84   11.33
   4  -1  -6   10.98    6.16
   4   1  -5  132.93   42.27
   4   1  -5  187.13   44.17
  -4  -1   5  230.70   53.71
  -4   1   5  209.62   66.62
  -4   1   5  219.54   51.03
   4  -1  -5  239.04   75.91
   4   1  -4   51.17   16.51
   4   1  -4   19.04    7.04
  -4  -1   4   48.95   15.80
  -4  -1   4   23.12    8.17
  -4   1   4  103.89   33.19
  -4   1   4   28.16    9.08
   4  -1  -4   61.24   19.78
   4  -1  -4   23.47    8.02
   4   1  -3 1220.91  387.10
   4   1  -3 2006.80  439.82
  -4  -1   3 1520.87  482.12
  -4   1   3 1227.92  389.46
  -4   1   3 1793.45  393.86
   4  -1  -3 1141.31  361.93
   4  -1  -3 2020.80  442.71
   4   1  -2  261.32   83.13
  -4  -1   2  397.23   90.38
  -4  -1   2  247.55   78.80
  -4   1   2  332.37   77.18
   4  -1  -2  264.17   61.06
  -4   1  -1  120.68   39.24
   4  -1   1   97.21   31.82
  -4   1  -2   32.94   12.21
   4  -1   2   25.55   10.07
  -4   1  -3  284.54   90.77
   4  -1   3  325.12  103.51
   4   1   4   71.83   24.67
  -4  -1  -4  152.14   49.27
  -4  -1  -4    0.07    1.02
  -4   1  -4  192.48   61.34
  -4   1  -4    0.49    4.89
   4  -1   4  158.72   50.64
   4  -1   4   -0.46    5.03
   4   1   5   36.71   15.10
   4   1   5   12.35    5.74
  -4  -1  -5   25.09   10.42
  -4  -1  -5    8.87    5.84
  -4   1  -5   17.14    6.33
  -4   1  -5   16.12   10.59
   4  -1   5   14.50    5.31
   4  -1   5    4.26    6.65
   4   1   6   19.57    7.95
   4   1   6   20.66    7.71
  -4  -1  -6   11.75    5.35
  -4  -1  -6   17.95    7.53
  -4   1  -6    8.27    3.59
  -4   1  -6   13.06   10.14
   4  -1   6    7.67    3.17
   4  -1   6   11.93    8.90
   4   1   7   65.78   21.29
   4   1   7   55.32   16.54
  -4  -1  -7   53.64   17.46
  -4  -1  -7   72.92   20.10
  -4   1  -7   56.49   18.16
  -4   1  -7   67.26   22.10
   4  -1   7   96.29   29.18
   4   1   8    6.02    2.64
   4   1   8   10.03    6.65
  -4  -1  -8    8.87    3.77
  -4  -1  -8    9.40    8.20
  -4   1  -8   14.18    4.82
  -4   1  -8    3.06    8.55
   4  -1   8    9.54    3.38
   4   1   9   52.79   17.74
  -4  -1  -9   33.15   10.84
  -4  -1  -9   53.74   18.37
  -4   1  -9   52.44   16.82
  -4   1  -9   32.62   17.67
   4  -1   9   42.62   13.66
   4  -1   9   34.81   16.54
   4   1  10    5.21    2.11
   4   1  10    0.39    4.89
  -4  -1 -10    5.70    2.18
  -4  -1 -10    1.48    4.50
  -4   1 -10   -0.88    8.27
  -4   1 -10    1.37    0.88
   4  -1  10    4.40    1.69
   4  -1  10    0.77    6.72
  -4  -2  12    5.17    1.76
  -4  -2  12   -0.63    8.55
  -4   2  12    5.31    1.76
  -4   2  12    6.93    6.23
   4  -2 -12    3.06    1.13
   4  -2 -12   11.30    6.44
   4   2 -11    5.53    1.90
   4   2 -11   10.63   10.63
  -4  -2  11    4.15    9.85
  -4   2  11    9.47    3.10
  -4   2  11   12.74    7.74
   4  -2 -11    4.75    1.69
   4  -2 -11   11.86    6.16
   4   2 -10   41.46   13.23
   4   2 -10   55.54   20.83
  -4  -2  10   36.67   11.68
  -4  -2  10   39.21   18.12
  -4   2  10   30.90   11.23
  -4   2  10   58.00   18.41
   4  -2 -10   52.30   16.65
   4  -2 -10   41.28   13.06
   4   2  -9   35.02   11.23
  -4  -2   9   33.40   10.70
  -4  -2   9    9.04    9.75
  -4   2   9   13.23    4.36
  -4   2   9   10.98    6.33
   4  -2  -9   16.29    5.31
  -4  -2   8  307.98   97.63
  -4  -2   8  329.91   80.38
  -4   2   8  190.51   60.39
  -4   2   8  241.43   56.17
   4  -2  -8  303.27   96.22
   4  -2  -8  248.43   58.03
   4   2  -7   55.18   17.60
   4   2  -7   77.71   23.86
  -4  -2   7   32.87   10.52
  -4  -2   7   34.84   15.34
  -4   2   7   47.79   15.27
  -4   2   7   46.35   13.27
   4  -2  -7   47.20   15.13
   4   2  -6  205.25   65.14
  -4  -2   6  181.39   57.58
  -4  -2   6  206.98   53.28
  -4   2   6  226.40   52.83
  -4   2   6  182.52   57.96
   4  -2  -6  251.07   79.75
   4  -2  -6  139.40   33.01
   4   2  -5  123.35   39.24
  -4  -2   5  130.68   41.56
  -4  -2   5   91.65   24.78
  -4   2   5   87.07   27.87
  -4   2   5   81.83   21.54
   4  -2  -5   96.29   30.87
   4  -2  -5   60.99   15.73
   4   2  -4   90.94   29.00
   4   2  -4  121.84   30.02
  -4  -2   4   91.89   23.12
  -4   2   4   83.69   27.28
   4  -2  -4  145.03   46.46
   4  -2  -4  114.84   27.28
   4   2  -3  468.54  148.66
   4   2  -3  588.41  130.43
  -4  -2   3  665.55  210.99
  -4  -2   3  565.67  125.64
  -4   2   3  470.02  105.09
   4   2  -2  364.22  115.61
   4   2  -2  241.50   57.37
  -4  -2   2  258.08   81.90
  -4   2   2  336.35   76.44
   4   2  -1   68.14   22.07
  -4  -2   1  111.64   35.76
  -4   2   1    5.81    6.16
  -4   2   0   43.29   15.17
   4  -2   0   34.63   12.21
  -4   2  -1   17.14    9.04
   4  -2   1   17.00    8.13
  -4   2  -2  207.29   66.09
   4  -2   2  186.92   59.62
   4  -2   3  221.44   70.39
  -4   2  -4  311.82   99.04
   4  -2   4  349.83  111.07
   4   2   5   14.08    9.29
   4   2   5   49.69   13.51
  -4  -2  -5   21.33    9.78
  -4  -2  -5   45.01   12.85
  -4   2  -5   17.42   12.14
  -4   2  -5   19.60    6.62
   4  -2   5   21.22   13.87
   4   2   6   64.76   22.66
   4   2   6   37.09   11.16
  -4  -2  -6   60.08   20.55
  -4   2  -6   25.97   15.06
   4  -2   6   34.88   11.23
   4  -2   6   31.74   15.06
   4   2   7   19.29    8.76
   4   2   7    2.78    3.34
  -4  -2  -7   10.52    4.89
  -4  -2  -7    2.39    3.94
  -4   2  -7    4.47    1.79
  -4   2  -7   -0.84   10.00
   4  -2   7    4.26    1.72
   4  -2   7   -5.42    8.02
   4   2   8   10.07    3.87
   4   2   8   11.26    5.88
  -4  -2  -8   10.77    4.15
  -4   2  -8    2.11    1.23
  -4   2  -8    5.14   11.51
   4  -2   8    5.17    2.01
   4  -2   8    2.89   10.77
   4   2   9    2.92    1.87
   4   2   9    3.03    4.33
  -4  -2  -9    1.69    1.62
  -4  -2  -9    3.13    3.91
  -4   2  -9    4.43    1.76
  -4   2  -9    0.11   10.84
   4  -2   9    3.91    1.55
   4  -2   9   -1.37    7.57
   4   2  10    8.20    2.99
   4   2  10    3.34    4.96
  -4  -2 -10    5.10    2.08
  -4  -2 -10    3.73    4.82
  -4   2 -10    7.74    2.64
   4  -2  10    4.19    1.51
   4  -2  10   -2.15  162.14
   4   3 -11   13.02    4.19
   4   3 -11    5.35   12.99
  -4   3  11   30.58    9.75
  -4   3  11    8.62    6.72
   4  -3 -11   15.52    5.00
   4  -3 -11    5.46    4.47
   4   3 -10   22.00    7.04
   4   3 -10    3.87   11.51
  -4  -3  10   29.32    9.36
  -4  -3  10   -5.07   13.27
  -4   3  10   13.06    4.22
  -4   3  10    6.23    4.61
   4  -3 -10   11.97    7.21
   4   3  -9   13.20   14.32
  -4  -3   9   35.62   11.33
  -4  -3   9    1.23   12.35
  -4   3   9   27.91    8.90
  -4   3   9    5.00    4.65
   4  -3  -9   20.10    6.48
   4  -3  -9    3.03    4.43
   4   3  -8   16.37    5.31
   4   3  -8    7.36    9.68
  -4  -3   8    0.21   10.07
  -4  -3   8   29.18    9.33
  -4   3   8   28.05   10.49
   4  -3  -8   19.32    6.37
   4  -3  -8   18.97    7.00
   4   3  -7   32.13   10.28
   4   3  -7    6.79    8.20
  -4  -3   7   40.61   12.95
  -4   3   7   71.02   22.59
  -4   3   7   23.83    8.66
   4  -3  -7   23.65    7.78
   4   3  -6    9.64    8.66
  -4  -3   6   26.85    8.59
  -4  -3   6    0.42   12.11
  -4   3   6   32.66   10.59
   4  -3  -6   31.36    9.19
   4   3  -5  212.96   67.57
   4   3  -5  319.35   75.81
  -4   3   5  205.15   65.46
  -4   3   5  198.39   47.30
   4  -3  -5  173.05   55.36
   4   3  -4  213.56   67.82
   4   3  -4   66.69   18.72
  -4  -3   4  128.21   40.72
  -4   3   4   38.36   11.19
   4   3  -3  361.23  114.59
  -4  -3   3  581.16  130.99
   4   3  -2  559.76  177.48
   4   3  -2  525.62  121.95
  -4  -3   2  629.13  199.48
  -4  -3   2  910.75  204.76
   4  -3  -2  610.26  135.60
   4   3  -1  884.00  280.21
  -4  -3   1  713.95  226.30
  -4   3   1  366.72  116.95
   4   3   0  295.52   93.86
  -4  -3   0  314.18   99.81
  -4   3   0  184.84   59.37
   4  -3   0  199.09   63.60
  -4   3  -1  261.70   83.23
   4  -3   1  234.25   74.40
  -4   3  -2   67.82   21.86
   4  -3   2   65.53   21.01
   4  -3   3   31.46   10.24
  -4   3  -4   18.20    6.05
   4  -3   4   19.71    6.48
   4  -3   4    6.55    9.36
   4   3   5   10.45    5.28
  -4  -3  -5   12.39    5.42
  -4   3  -5   15.91    5.24
  -4   3  -5    0.39    8.38
   4  -3   5   10.28    3.52
   4  -3   5    3.80    8.13
   4   3   6    6.93    4.36
  -4  -3  -6   11.26    6.93
  -4  -3  -6    4.15    4.50
  -4   3  -6   14.96    4.93
   4  -3   6   10.14    3.41
   4  -3   6   -1.09    9.01
   4   3   7   55.11   20.48
   4   3   7   36.32   11.54
  -4   3  -7   37.90   12.14
   4  -3   7   38.01   12.14
   4  -3   7    7.71   21.86
   4   3   8   30.37   11.75
   4   3   8   29.99   10.07
  -4  -3  -8   26.92    9.22
  -4  -3  -8   14.25    6.79
  -4   3  -8   15.94    5.24
  -4   3  -8   -4.29   22.81
   4  -3   8   14.39    4.72
   4  -3   8  -12.21   23.69
   4   3   9   13.27    5.17
  -4  -3  -9   21.12    8.06
  -4  -3  -9   10.14    3.80
  -4   3  -9   13.34    4.40
  -4   3  -9   -1.02   22.84
   4  -3   9   -2.67   21.33
  -4  -3 -10    3.03    4.79
  -4   3 -10   -7.21   15.20
   4  -3  10    3.73    1.41
   4  -3  10   -1.41   25.90
   4   4 -11    3.10    1.09
   4   4 -11    2.75   15.80
  -4  -4  11    1.55   19.99
  -4   4  11    5.77    1.90
  -4   4  11    4.47    4.05
   4  -4 -11    6.26    2.11
   4  -4 -11    4.89    4.15
   4   4 -10   22.31    7.14
   4   4 -10   24.60   23.09
  -4  -4  10   25.97    8.27
  -4   4  10   22.10    7.07
  -4   4  10   17.07    7.57
   4  -4 -10   17.46    5.63
   4  -4 -10   25.37    9.61
   4   4  -9   55.89   17.77
   4   4  -9   43.01   27.56
  -4  -4   9   52.33   16.61
  -4  -4   9   34.81   46.21
  -4   4   9   39.77   12.63
   4  -4  -9   56.66   18.02
   4  -4  -9   87.88   21.93
   4   4  -8   45.93   14.61
   4   4  -8   77.25   28.54
  -4   4   8   46.00   14.64
  -4   4   8   63.14   18.23
   4  -4  -8   48.36   15.41
   4  -4  -8   68.10   16.93
   4   4  -7   37.69   12.00
   4   4  -7   -2.89    9.92
  -4  -4   7   -5.84   14.01
  -4   4   7   25.16    8.09
   4  -4  -7   35.51   11.47
   4   4  -6   79.61   25.27
   4   4  -6   64.05   22.70
  -4   4   6  120.61   38.36
   4  -4  -6  142.61   45.44
   4   4  -5  119.87   38.04
   4   4  -5   50.22   19.53
  -4  -4   5   64.65   20.55
   4   4  -4   75.98   24.18
   4   4  -4   39.07   13.94
  -4  -4   4   39.24   12.56
  -4  -4   4   62.47   23.12
   4  -4  -4   24.95    7.57
  -4  -4   3   69.47   22.10
  -4  -4   3   65.85   22.07
   4  -4  -3   36.74    9.78
   4   4  -2   49.31   15.84
   4   4  -2   36.71   17.95
  -4  -4   2   43.82   14.04
  -4  -4   2   57.75   24.14
   4  -4  -2   26.57   10.49
   4  -4  -2   39.52   10.95
   4   4  -1   88.09   28.08
  -4  -4   1   76.30   24.35
  -4   4   1   93.93   30.48
   4  -4  -1   62.96   20.91
   4   4   0  267.47   84.96
  -4  -4   0  195.57   62.19
  -4   4   0  180.76   57.54
   4  -4   0  149.54   47.62
  -4   4  -1  151.97   48.36
   4  -4   1  204.13   64.83
  -4   4  -2  199.97   63.49
  -4   4  -3   74.40   23.72
  -4   4  -4   48.57   15.56
  -4   4  -4    0.11   10.35
   4  -4   4   39.84   12.74
   4  -4   4    6.83    9.68
  -4  -4  -5   24.88    7.81
  -4   4  -5   18.51    6.02
  -4   4  -5    0.28   17.63
   4  -4   5   16.61    5.38
   4   4   6   16.89    7.25
  -4  -4  -6   13.97    5.88
  -4   4  -6   11.26    3.77
  -4   4  -6   -5.21   19.53
   4  -4   6   11.40    3.80
   4  -4   6   -9.08   20.73
   4   4   7    4.54    6.65
   4   4   7   21.54    7.99
  -4  -4  -7    8.27    5.74
  -4  -4  -7   16.75    6.69
  -4   4  -7   13.51    4.47
  -4   4  -7   -1.79   22.88
   4  -4   7   11.86    3.94
   4  -4   7  -15.80   26.96
   4   4   8    8.13   10.10
   4   4   8    4.50    3.94
  -4  -4  -8    9.82    6.86
  -4  -4  -8    3.24    3.38
  -4   4  -8    6.62    2.36
  -4   4  -8  -14.75   29.70
   4  -4   8    6.23    2.18
   4  -4   8  -12.71   26.89
   4   4   9   11.09    9.36
   4   4   9   11.05    6.37
  -4  -4  -9    9.04    4.65
  -4  -4  -9   11.12    6.05
  -4   4  -9    2.04    0.92
  -4   4  -9   -4.01   21.15
   4  -4   9    1.51    0.88
   4  -4   9  -19.25   30.76
   4   5 -10   23.16    7.39
   4   5 -10  -10.10   19.43
  -4  -5  10  -16.15   32.59
  -4   5  10    9.57    3.10
   4  -5 -10    7.74    2.53
   4  -5 -10   14.57    6.09
   4   5  -9    8.59    2.82
   4   5  -9   -7.57   14.39
  -4  -5   9    9.12    2.99
  -4  -5   9    0.42   39.98
  -4   5   9    6.23    2.04
   4  -5  -9    6.02    2.08
   4  -5  -9    6.05    3.77
   4   5  -8    7.60    2.50
   4   5  -8    2.53   17.77
  -4  -5   8   11.12    3.62
  -4  -5   8  -37.31   31.22
  -4   5   8    5.77    1.94
   4  -5  -8    9.08    3.06
   4  -5  -8    9.08    4.29
   4   5  -7   12.92    4.19
   4   5  -7   -4.47    9.43
  -4  -5   7   14.61    4.72
  -4  -5   7  -21.75   24.57
  -4   5   7   16.96    5.53
   4  -5  -7   14.50    4.86
   4   5  -6    7.92   15.87
  -4  -5   6   34.84   11.09
  -4  -5   6  -14.96   30.09
   4  -5  -6   28.79    7.99
   4   5  -5   46.42   14.78
   4   5  -5   51.17   22.17
  -4  -5   5   47.09   14.99
  -4  -5   5   24.46   23.47
   4  -5  -5   60.92   15.70
   4   5  -4  351.06  111.25
   4   5  -4  462.94  108.01
  -4  -5   4  361.76   87.95
   4  -5  -4  450.20  100.55
   4   5  -3   98.54   31.32
   4   5  -3  146.41   39.17
  -4  -5   3   85.98   27.31
  -4  -5   3   69.16   25.30
  -4   5   3  130.64   41.95
   4  -5  -3   85.17   27.77
   4  -5  -3  128.14   29.88
   4   5  -2   36.57   19.46
  -4  -5   2  163.05   51.74
  -4  -5   2   77.39   33.43
  -4   5   2  101.39   32.38
   4  -5  -2   88.27   21.82
   4   5  -1  143.49   45.61
  -4  -5   1  134.51   42.73
  -4   5   1  118.29   37.69
   4  -5  -1  111.85   35.65
   4   5   0  115.47   36.71
   4   5   1   48.53   15.73
  -4   5  -1   53.32   17.03
   4  -5   1   60.67   19.32
  -4  -5  -2   48.25   15.63
   4  -5   2   37.06   11.83
  -4   5  -3   21.05    6.83
   4  -5   3   20.45    6.62
  -4   5  -4   13.90    4.61
  -4   5  -4   -5.00   11.90
   4  -5   4   16.86    5.49
   4  -5   4    4.89   13.48
  -4  -5  -5    4.54    3.34
  -4   5  -5    6.26    2.22
  -4   5  -5   -9.92   20.83
   4  -5   5    6.48    2.25
   4  -5   5   -6.05   14.15
  -4  -5  -6    8.94    4.47
  -4   5  -6   18.58    6.02
  -4   5  -6   -3.80   23.05
   4  -5   6   17.53    5.67
  -4  -5  -7   14.54    5.56
  -4   5  -7   10.07    3.34
  -4   5  -7  -24.04   27.94
   4  -5   7  -32.84   32.59
   4   5   8    1.27    8.76
  -4  -5  -8    6.86    6.30
  -4  -5  -8   15.20    6.41
  -4   5  -8    8.45    2.85
  -4   5  -8  -13.83   28.79
   4  -5   8    9.22    3.06
   4  -5   8  -15.24   30.27
   4   6  -9   14.08    4.50
  -4  -6   9  -20.66   32.70
   4  -6  -9    9.33    3.06
   4   6  -8   13.90    4.47
   4   6  -8   -9.33   26.29
  -4  -6   8   15.45    4.96
  -4   6   8   13.23    4.26
   4  -6  -8   12.74    4.19
   4  -6  -8   25.62    8.31
   4   6  -7  -15.59   19.29
  -4  -6   7   40.09   12.74
  -4  -6   7  -31.46   25.87
  -4   6   7   24.53    8.02
   4   6  -6   26.04    8.31
   4   6  -6   -5.14   17.63
  -4  -6   6   28.54    9.12
  -4  -6   6  -32.31   31.15
   4   6  -5   59.97   19.04
   4   6  -5   36.95   24.57
  -4  -6   5   39.35   12.53
  -4  -6   5  -27.38   28.79
   4  -6  -5   51.88   13.94
   4   6  -4   16.08    5.21
   4   6  -4   -2.46   10.77
  -4  -6   4   22.52    7.21
  -4  -6   4  -12.78   14.82
  -4   6   4   61.06   19.92
   4  -6  -4   13.87    7.11
   4  -6  -4    9.19    4.65
   4   6  -3  185.58   58.88
  -4  -6   3  160.94   51.07
  -4  -6   3  130.32   39.28
  -4   6   3  196.42   62.40
   4  -6  -3  196.03   62.29
   4  -6  -3  103.51   24.35
   4   6  -2   24.67    7.92
  -4  -6   2   51.45   16.37
  -4  -6   2  -10.14   23.12
  -4   6   2   68.84   21.96
   4  -6  -2   33.47   10.84
   4  -6  -2   13.69    5.91
   4   6  -1   37.83   12.07
  -4  -6   1   43.96   14.08
   4  -6  -1   48.22   15.45
   4  -6  -1    6.65    8.27
   4   6   0   82.60   26.29
  -4   6   0   97.56   31.04
   4   6   1  167.31   53.11
  -4  -6  -1  204.83   65.07
  -4   6  -1  127.19   40.40
   4  -6   1  101.64   32.27
  -4   6  -3   52.62   16.82
   4  -6   3   40.12   12.78
  -4   6  -4   28.19    9.04
   4  -6   4   32.24   10.31
   4  -6   4   -4.08   19.00
  -4  -6  -5   10.35    4.96
  -4   6  -5   16.08    5.21
  -4   6  -5   -4.29   25.37
   4  -6   5   18.97    6.09
   4  -6   5   -0.42   17.10
  -4   6  -6  -13.90   21.79
   4  -6   6    3.17    1.16
   4  -6   6   -9.75   20.98
  -4  -6  -7   13.51    5.63
  -4   6  -7    7.29    2.43
  -4   6  -7    0.28   27.03
   4  -6   7    6.16    2.08
   4  -6   8   10.80   27.06
   4   7  -8   -1.97  275.15
  -4  -7   8    8.06    2.64
  -4  -7   8   -4.40  320.48
  -4   7   8    2.75    1.02
   4  -7  -8    8.38    4.65
   4   7  -7    9.26    2.99
   4   7  -7   -1.41   14.01
  -4  -7   7    9.26    3.03
  -4  -7   7   -1.90   24.00
   4  -7  -7    9.68    4.47
   4   7  -6   32.38   10.31
   4   7  -6    0.32   22.28
  -4  -7   6   46.28   14.71
  -4  -7   6  -29.39   26.22
  -4   7   6   28.44   10.10
   4   7  -5   10.80    3.48
  -4  -7   5    7.11    2.32
  -4  -7   5  -13.69   23.12
  -4   7   5   10.77    3.73
   4  -7  -5   19.78    7.67
   4  -7  -5   17.63    6.48
   4   7  -4   70.78   22.45
  -4  -7   4   60.64   19.25
  -4   7   4   63.21   20.13
   4  -7  -4   76.69   24.42
   4   7  -3   24.71    7.88
   4   7  -3    0.56    7.88
  -4  -7   3   28.01    8.97
  -4  -7   3  -14.96   16.05
  -4   7   3   20.62    6.65
   4  -7  -3   18.34    5.98
   4  -7  -3   14.25    5.17
   4   7  -2   55.64   17.70
  -4  -7   2   56.80   18.05
  -4  -7   2  -10.84   34.67
  -4   7   2   44.13   14.08
   4  -7  -2   66.09   21.05
   4  -7  -2   46.28   13.16
   4   7  -1   31.32   10.00
  -4  -7   1   44.52   14.22
   4  -7  -1   28.23    9.08
   4  -7  -1   -0.11    8.13
   4   7   0   56.45   17.95
  -4   7   0   57.16   18.20
  -4  -7  -1    4.82    2.39
   4  -7   1    6.51    2.29
   4   7   2   17.00    5.60
  -4  -7  -2   21.40    7.04
  -4   7  -2   17.46    5.63
   4  -7   2   21.89    7.07
   4   7   3   10.21    3.62
  -4  -7  -3   13.90    5.00
  -4   7  -3   10.98    3.66
   4  -7   3   13.87    4.50
  -4   7  -4   13.23    4.29
  -4   7  -4   -2.22    7.29
   4  -7   4    5.49    1.87
   4  -7   4   -1.20    7.53
  -4  -7  -5    5.00    4.19
  -4   7  -5    3.45    1.20
   4  -7   5    6.26    2.11
   4  -7   5   -3.17  123.74
  -4  -7  -6   11.75    6.02
  -4   7  -6   12.56    4.05
  -4   7  -6  -13.13   22.03
   4  -7   6   13.90    4.50
   4  -7   6  -11.33   23.72
   4   8  -6    4.36    1.44
  -4  -8   6    4.12    1.41
  -4  -8   6   -4.86  427.54
  -4   8   6    6.48    2.22
   4  -8  -6    6.19    3.52
   4   8  -5   -2.46    7.18
  -4  -8   5   11.16    3.59
  -4  -8   5   -8.41   15.31
  -4   8   5   11.16    3.62
   4  -8  -5   14.96    4.89
   4  -8  -5   13.13    5.24
   4   8  -4    5.63    1.87
  -4  -8   4    5.42    1.79
  -4  -8   4   -9.85 6149.06
  -4   8   4    7.18    2.36
   4  -8  -4    9.01    2.99
   4  -8  -4   10.35    5.63
  -4  -8   3    7.67    2.50
  -4  -8   3   -4.96   51.42
  -4   8   3    6.72    2.25
   4  -8  -3   17.17    5.53
   4  -8  -3    6.90    4.50
  -4  -8   2    9.89    3.24
  -4  -8   2   -1.90   22.24
  -4   8   2    3.31    1.23
   4  -8  -2    3.84    1.41
   4  -8  -2    1.20    4.75
   4   8  -1   19.43    6.23
  -4  -8   1   10.45    3.45
   4  -8  -1   21.26    6.83
   4   8   0    7.14    2.36
  -4   8   0    7.39    2.46
   4  -8   0    5.42    1.97
  -4  -8  -1   40.79   13.02
  -4   8  -1   46.00   14.64
   4  -8   1   52.79   16.79
  -4  -8  -2    7.64    2.82
  -4   8  -2    4.15    1.44
   4  -8   2    4.47    1.58
   4   8   3   17.98    5.95
  -4  -8  -3   30.09    9.75
  -4   8  -3   24.81    7.95
   4   8   4    1.90    1.23
  -4  -8  -4    2.96    1.83
   4  -8   4    3.73    1.30
   4  -8   4   -5.74   18.12
   4  -9  -3   -2.29   11.86
   4   9  -2   28.12    8.97
  -4  -9   2   25.34    8.09
  -4  -9   2    0.00   31.15
  -4   9   2   28.01    8.94
   4  -9  -2   21.68    6.93
   4  -9  -2    2.50   10.21
   4   9  -1    5.28    1.76
  -4   9   1    6.55    2.15
   4  -9  -1    3.03    1.13
   4   9   0   27.13    8.62
  -4  -9   0   23.23    7.46
  -4   9   0   22.17    7.07
   4  -9   0   24.42    7.81
  -5   0  12    8.83    2.89
  -5   0  12    0.88    4.86
   5   0 -12    5.63    1.94
  -5   0  10   18.02    5.81
   5   0 -10   35.93   13.90
  -5   0   8   99.53   27.59
   5   0  -8  172.66   54.83
   5   0  -8  113.18   28.79
  -5   0   6  432.89   98.26
   5   0  -6  323.68  102.73
   5   0  -6  394.67   89.82
  -5   0   4  664.25  210.67
  -5   0   4  887.17  195.89
  -5   0   2   56.77   16.26
   5   0  -2   75.21   23.09
  -5   0  -4  255.44   81.65
   5   0   4  208.07   67.08
  -5   0  -6   70.95   23.12
  -5   0  -6  148.20   37.41
   5   0   6  101.32   32.70
   5   0   6  132.54   33.79
  -5   0  -8    3.10    2.15
  -5   0  -8    5.49    9.36
   5   0   8    7.43    7.18
  -5   0 -10    2.01    1.41
  -5   0 -10    0.88    5.84
   5   0  10    1.37    1.06
   5   0  10   -0.28    4.12
   5   1 -12    0.99    6.16
  -5  -1  12    7.32    2.39
  -5  -1  12   -1.23    5.60
  -5   1  12    5.60    1.87
  -5   1  12    2.32    5.70
   5  -1 -12    5.56    1.87
   5  -1 -12    4.72    5.88
   5   1 -11   45.15   14.39
   5   1 -11   77.00   25.02
  -5  -1  11   68.77   21.86
  -5  -1  11   50.08   19.64
  -5   1  11   62.50   19.85
   5  -1 -11   53.85   17.14
   5  -1 -11   67.11   19.04
   5   1 -10   16.72    5.42
   5   1 -10   22.88   11.44
  -5  -1  10   22.59   14.22
  -5   1  10   13.69    4.43
  -5   1  10   22.24    9.78
   5  -1 -10   21.29    6.86
   5  -1 -10   25.55   10.24
   5   1  -9   27.17    8.73
   5   1  -9   15.49    9.12
  -5  -1   9   20.76    6.72
  -5  -1   9   19.67   11.68
  -5   1   9   55.75   17.77
  -5   1   9   18.83    8.52
   5  -1  -9   30.55    9.89
   5  -1  -9   23.86    9.40
   5   1  -8    2.82    5.67
  -5  -1   8   21.36    6.93
  -5  -1   8    1.55    5.14
  -5   1   8   46.35   14.89
  -5   1   8    4.72    4.43
   5  -1  -8   24.14    7.92
   5  -1  -8    6.86    4.89
   5   1  -7   32.03   10.35
   5   1  -7   15.03    8.20
  -5  -1   7   14.11   10.10
  -5   1   7   20.76    6.97
  -5   1   7    6.65    5.24
   5  -1  -7   10.17    3.84
   5  -1  -7   22.84    8.52
   5   1  -6   18.20    6.19
  -5  -1   6   22.31    9.92
  -5  -1   6   30.30    9.82
  -5   1   6   18.16    8.34
   5  -1  -6   49.98   16.29
   5  -1  -6   24.21    8.55
   5   1  -5  184.31   58.60
   5   1  -5  266.35   61.31
  -5  -1   5  183.29   58.28
  -5   1   5  221.12   50.96
  -5   1   5  240.06   76.23
   5  -1  -5  240.41   55.36
   5   1  -4   83.37   26.71
   5   1  -4   98.16   23.44
  -5  -1   4  113.43   36.21
  -5   1   4  102.17   33.15
  -5   1   4  109.59   26.36
   5  -1  -4   81.58   26.50
   5  -1  -4  124.13   29.14
   5   1  -3  362.57  115.15
  -5  -1   3  366.65  116.42
  -5  -1   3  396.78   89.36
   5  -1  -3  430.74   96.54
   5   1  -2   89.43   25.73
  -5  -1   2   46.46   15.41
  -5   1   2  111.60   29.49
   5  -1  -2   73.77   20.83
   5  -1   2   10.87    7.14
   5  -1   3   22.66    9.92
  -5   1  -4   83.83   27.45
   5  -1   4   91.01   29.91
   5   1   5   15.56    9.61
  -5  -1  -5   -0.32    1.06
  -5   1  -5   25.87    9.33
  -5   1  -5   -1.27    4.01
   5  -1   5   22.49    7.85
   5  -1   5   -0.42    6.02
   5   1   6   11.61    8.59
   5   1   6    8.87    5.07
  -5  -1  -6    3.34    4.58
   5  -1   6    4.22    2.64
   5  -1   6    3.20    6.51
   5   1   7   54.23   18.09
   5   1   7   45.08   15.06
  -5  -1  -7   43.29   14.99
  -5   1  -7   40.79   20.03
   5  -1   7   35.02   11.37
   5  -1   7   32.31   15.63
   5   1   8    6.69    2.99
   5   1   8    4.40    5.74
  -5  -1  -8    6.51    6.23
   5  -1   8    2.82    1.65
   5  -1   8    2.67    6.86
   5   1   9   23.58    7.81
  -5  -1  -9   14.71    8.45
  -5   1  -9   26.43    8.62
  -5   1  -9    5.88   12.00
   5  -1   9    6.55   10.24
   5   1  10    2.22    1.51
   5   1  10    1.65    4.54
  -5  -1 -10    4.15    5.46
  -5   1 -10    1.97    9.40
   5  -1  10    1.30    0.99
   5  -1  10   -1.09   16.29
   5   2 -12   16.44   12.63
  -5  -2  12   -1.58   14.46
   5  -2 -12    9.08    6.19
   5   2 -11    7.32    2.46
   5   2 -11    5.88   10.80
  -5  -2  11    5.42    1.90
  -5  -2  11    3.06    8.94
  -5   2  11    1.41    3.20
   5  -2 -11    4.82    1.72
   5  -2 -11    2.43    3.41
   5   2 -10   36.71   11.72
   5   2 -10   62.54   22.63
  -5  -2  10   39.10   12.46
  -5  -2  10   60.57   23.23
  -5   2  10   33.26   10.59
  -5   2  10   66.06   18.69
   5  -2 -10   33.40   10.70
   5   2  -9   31.64   10.14
   5   2  -9   37.45   15.84
  -5  -2   9   19.67    6.33
  -5  -2   9   38.43   16.29
  -5   2   9   36.95   11.83
  -5   2   9   55.15   16.40
   5  -2  -9   48.57   15.56
   5   2  -8  193.50   61.41
  -5  -2   8  115.65   36.71
  -5  -2   8  323.71   79.75
  -5   2   8  123.74   39.31
  -5   2   8  259.10   59.86
   5  -2  -8  164.50   52.26
   5   2  -7   24.99    8.13
   5   2  -7   13.02    9.54
  -5  -2   7   22.74   16.29
  -5   2   7   13.34    4.61
   5  -2  -7   10.49    5.91
   5   2  -6  336.52  106.74
   5   2  -6  314.95   75.28
  -5  -2   6  315.83  100.20
  -5   2   6  407.30  129.23
  -5   2   6  471.11  106.74
   5  -2  -6  299.64   95.20
   5  -2  -6  323.36   73.94
   5   2  -5  185.01   44.98
  -5  -2   5  103.22   32.87
  -5  -2   5  157.70   39.21
  -5   2   5  150.74   36.85
   5  -2  -5  120.89   38.99
   5  -2  -5  168.83   39.24
   5   2  -4  228.76   52.72
  -5  -2   4  303.62   96.36
  -5  -2   4  345.32   78.41
   5  -2  -4  229.92   52.05
   5   2  -3   21.26    7.25
   5   2  -3    9.75    6.79
  -5  -2   3   15.98    5.60
   5   2  -2  108.54   34.74
   5   2  -2   47.72   16.68
  -5  -2   2  107.38   34.42
  -5  -2   2   66.55   21.54
   5  -2  -2   58.25   16.82
   5   2  -1   38.99   12.81
  -5  -2   1   32.98   10.87
  -5   2  -1   75.14   24.85
  -5   2  -2  216.48   69.37
   5  -2   3  175.83   56.17
  -5   2  -4   71.97   23.19
   5   2   5    2.11    7.99
  -5  -2  -5    8.20    6.76
  -5   2  -5    3.62    2.43
  -5   2  -5   -2.18    7.78
   5  -2   5   -1.09    6.72
   5   2   6   60.67   22.00
  -5  -2  -6   71.51   24.35
  -5  -2  -6  114.13   28.23
  -5   2  -6  134.05   42.06
  -5   2  -6   68.28   21.93
   5  -2   6   59.58   23.19
   5   2   7   11.65   10.77
   5   2   7    1.48    2.99
  -5  -2  -7    4.75    4.58
  -5  -2  -7   10.52    6.33
  -5   2  -7    4.33    2.08
  -5   2  -7   -1.51    9.54
   5  -2   7    2.96    1.55
   5  -2   7   -3.17    5.74
   5   2   8   30.87   11.40
   5   2   8   15.70    8.17
  -5  -2  -8   16.44    7.14
  -5  -2  -8   21.75    7.64
  -5   2  -8   10.52    3.66
  -5   2  -8    1.09   13.41
   5  -2   8    8.45    2.96
   5  -2   8    1.41    8.97
   5   2   9    3.80    2.75
   5   2   9    1.97    3.66
  -5  -2  -9    2.46    2.15
  -5  -2  -9    1.41    3.87
  -5   2  -9    0.88    0.81
   5  -2   9    1.16    0.95
   5  -2   9   -2.53    6.83
   5   2  10   -0.28    3.91
  -5   2 -10    0.63   13.13
   5   3 -11   16.75    5.35
   5   3 -11   23.37   19.11
  -5  -3  11   14.82    4.75
  -5  -3  11   -6.12   13.73
  -5   3  11   13.48    7.88
  -5   3  11   15.17    4.86
   5  -3 -11   14.11    4.54
   5  -3 -11   22.28    9.08
   5   3 -10    2.85   13.48
  -5  -3  10   12.00    3.87
  -5  -3  10   -4.40   10.95
  -5   3  10   12.49    4.05
  -5   3  10   11.79    6.51
   5  -3 -10   10.10    3.45
   5  -3 -10   11.05    6.44
   5   3  -9   24.32    7.78
   5   3  -9   16.79   15.34
  -5  -3   9   34.10   10.84
  -5  -3   9   -1.65   14.68
  -5   3   9   24.85    7.99
  -5   3   9   26.11   10.28
   5  -3  -9   28.51    9.26
   5  -3  -9   19.78    7.36
   5   3  -8   35.33   11.26
  -5  -3   8   38.29   12.21
  -5  -3   8    8.45   15.80
  -5   3   8   26.96    8.73
  -5   3   8   38.96   12.07
   5  -3  -8   22.45    7.50
   5  -3  -8   56.59   15.38
   5   3  -7   24.39   15.17
  -5  -3   7   29.07    9.29
  -5  -3   7    3.94   14.22
  -5   3   7   53.25   17.03
  -5   3   7   29.63   10.10
   5  -3  -7   32.03   10.59
   5  -3  -7   20.24    8.13
   5   3  -6   18.41    5.95
   5   3  -6    7.39    8.52
  -5  -3   6   17.67    5.77
  -5  -3   6    5.38   11.23
  -5   3   6   28.61    9.54
  -5   3   6   24.99   10.24
   5  -3  -6   31.43   10.80
   5   3  -5   21.36    6.93
  -5  -3   5   37.94   12.14
  -5  -3   5   14.57   10.73
  -5   3   5   28.08    9.78
   5  -3  -5   25.66    8.34
   5   3  -4   69.37   22.14
  -5  -3   4   68.10   21.71
  -5  -3   4   36.88   13.58
  -5   3   4   34.14    9.96
   5  -3  -4   52.83   14.11
   5   3  -3  177.62   56.49
   5   3  -3  296.93   70.88
  -5  -3   3  168.65   53.57
  -5   3   3  177.31   41.99
   5   3  -2  228.66   72.61
   5   3  -2  370.21   90.69
   5   3  -1  689.10  218.59
  -5  -3   1  650.24  206.24
  -5   3   0   55.01   18.83
   5  -3   0   48.32   16.40
   5  -3   1  232.70   74.26
  -5   3  -2   29.07    9.92
   5  -3   2   33.36   11.23
   5  -3   3   19.43    6.72
   5  -3   4   23.26    7.71
  -5   3  -5   -0.92   11.05
   5  -3   5   12.53    4.29
   5  -3   5   -1.90    7.00
   5   3   6    4.43    3.59
  -5  -3  -6    3.38    6.44
  -5  -3  -6    8.38    5.07
  -5   3  -6    6.90    2.53
  -5   3  -6   -1.72   13.48
   5  -3   6    7.85    2.82
   5  -3   6    3.27   10.95
  -5  -3  -7   23.90   10.17
  -5  -3  -7   16.22    6.93
  -5   3  -7   13.02    4.36
  -5   3  -7  -11.90   18.51
   5  -3   7   11.97    4.01
  -5  -3  -8    8.41    5.03
  -5   3  -8   -5.14   19.15
   5  -3   8   10.95    3.62
   5  -3   8  -18.97   17.84
   5   3   9    7.07    5.38
  -5  -3  -9    9.85    4.40
  -5  -3  -9    6.44    4.96
  -5   3  -9    8.62    2.89
  -5   3  -9   -7.78   18.51
   5  -3   9    5.42    1.90
   5  -3   9   -4.36   13.94
   5   4 -11    0.21   12.81
  -5  -4  11    6.26    2.08
  -5  -4  11   -0.49  141.27
  -5   4  11    3.62    1.23
  -5   4  11    5.07    4.47
   5   4 -10   13.13    4.22
   5   4 -10   33.47   23.83
  -5  -4  10   17.88    5.74
  -5  -4  10  -21.82   29.21
  -5   4  10    8.76    2.85
   5  -4 -10   13.87    4.61
   5  -4 -10   34.60   10.52
   5   4  -9   81.97   26.01
   5   4  -9   88.27   39.17
  -5  -4   9   33.40   43.29
  -5   4   9   81.83   26.01
  -5   4   9   89.82   24.39
   5  -4  -9   55.50   17.70
   5  -4  -9   90.55   22.21
   5   4  -8   50.05   15.91
   5   4  -8    7.21  839.41
  -5  -4   8   43.32   13.80
  -5   4   8   46.32   14.78
   5  -4  -8   58.28   18.65
   5  -4  -8   81.65   19.81
   5   4  -7   55.40   17.63
   5   4  -7   -2.50   10.38
  -5  -4   7  -20.20   23.40
  -5   4   7   23.83    7.81
   5  -4  -7   28.16    9.29
   5   4  -6   88.16   28.01
  -5  -4   6   77.15   24.53
  -5  -4   6   28.82   24.42
  -5   4   6  107.52   34.38
   5  -4  -6  124.69   39.77
   5  -4  -6   89.18   21.79
   5   4  -5   99.21   27.52
  -5  -4   5   76.48   24.32
   5   4  -4  156.68   49.76
   5   4  -4  190.12   46.14
  -5  -4   4  163.44   51.91
   5  -4  -4  206.24   47.05
   5   4  -3   55.40   17.70
   5   4  -3   75.84   26.33
  -5  -4   3   44.41   14.29
  -5  -4   3   74.19   27.03
   5  -4  -3   44.13   11.68
   5   4  -2   29.99    9.71
   5   4  -2   43.64   22.14
  -5  -4   2   35.51   11.51
  -5  -4   2   13.37   16.05
  -5   4   2   68.84   23.62
   5  -4  -2    0.95   10.42
   5  -4  -2    7.21    5.56
   5   4  -1   26.64    8.87
  -5  -4   1   28.33    9.29
  -5   4   1   14.01    7.53
   5   4   0  225.07   71.65
  -5  -4   0  219.54   69.79
  -5   4   0  149.15   47.83
   5  -4   0  152.21   48.85
   5  -4   1   39.35   12.81
  -5   4  -2   80.14   25.73
  -5   4  -3   43.85   14.18
  -5   4  -4   85.66   27.31
   5  -4   4   85.80   27.38
  -5   4  -5   -5.63   16.29
   5  -4   5   15.73    5.14
   5  -4   5   -0.32   15.06
   5   4   6    1.44    2.08
  -5  -4  -6   10.14    5.07
  -5   4  -6   11.12    3.73
  -5   4  -6  -12.60   25.34
   5  -4   6   18.51    6.02
   5  -4   6  -22.52   28.96
   5   4   7   22.63    8.24
  -5  -4  -7    4.01    7.07
  -5  -4  -7   20.83    7.46
  -5   4  -7   13.13    4.36
  -5   4  -7   -7.39   23.05
   5  -4   7   10.70    3.55
   5   4   8    2.96    7.85
   5   4   8    3.52    3.62
  -5  -4  -8    3.91    6.83
  -5  -4  -8    4.22    3.87
  -5   4  -8    2.67    1.13
  -5   4  -8   -1.41   21.57
   5  -4   8    3.06    1.27
  -5  -4  -9    0.92    3.41
  -5   4  -9   -5.21   18.62
   5  -4   9    7.78   23.79
   5   5 -10    9.26    2.99
   5   5 -10   -4.75   16.96
  -5  -5  10   10.56    3.41
  -5  -5  10   -9.61   31.32
  -5   5  10    8.55    2.78
  -5   5  10   11.30    6.72
   5  -5 -10    9.04    3.06
   5  -5 -10   11.51    5.28
   5   5  -9   21.68    6.93
   5   5  -9   -6.93   18.41
  -5  -5   9   33.96   10.80
  -5   5   9   13.30    4.29
   5  -5  -9   12.78    4.26
   5  -5  -9   17.70    6.26
  -5  -5   8   11.09    3.59
  -5  -5   8  -24.67   42.09
  -5   5   8   17.70    5.70
   5  -5  -8   14.15    4.75
   5  -5  -8   10.49    4.29
   5   5  -7   -2.96   11.09
  -5  -5   7    8.02    2.64
  -5  -5   7  -24.53   33.43
  -5   5   7    8.73    3.52
   5  -5  -7   15.52    5.42
   5   5  -6    2.89   11.33
  -5  -5   6   11.51    3.77
   5  -5  -6   19.85    6.51
   5   5  -5   47.51   15.13
   5   5  -5   63.38   23.33
  -5  -5   5   37.80   12.07
  -5  -5   5    0.99   19.36
   5  -5  -5   45.61   12.18
   5   5  -4  265.89   84.32
   5   5  -4  366.97   87.25
  -5  -5   4  267.69   84.89
  -5  -5   4  271.38   71.13
   5  -5  -4  393.47   87.70
   5   5  -3   39.66   23.76
  -5  -5   3   51.66   28.40
  -5   5   3   14.11    6.72
   5  -5  -3    7.00    5.53
   5  -5  -3   53.85   14.15
   5   5  -2   37.87   12.14
   5   5  -2   48.67   27.56
  -5  -5   2   34.63   11.12
  -5  -5   2    0.39   24.39
   5  -5  -2   94.64   30.69
   5  -5  -2   -2.57    9.22
   5   5  -1  166.43   52.83
  -5  -5   1  235.66   74.82
  -5   5   1  152.21   48.64
   5   5   0   98.19   31.32
  -5  -5   0   76.30   24.39
  -5   5   0  102.56   32.77
   5  -5   0   69.05   22.14
   5   5   1   63.00   20.20
   5  -5   1   40.97   13.20
   5  -5   2   26.89    8.73
  -5   5  -3   10.03    3.55
   5  -5   3   12.04    4.05
  -5   5  -4    3.10    1.34
   5  -5   4    6.83    2.46
  -5   5  -5    4.01    1.55
  -5   5  -5   -7.99   18.02
   5  -5   5    2.92    1.23
   5   5   6    0.11    1.58
  -5  -5  -6    5.88    3.84
  -5   5  -6   13.76    4.50
  -5   5  -6   -9.68   23.05
   5  -5   6   13.06    4.29
   5  -5   6  -15.49   25.66
   5   5   7    4.40    3.84
  -5  -5  -7    6.58    4.12
  -5   5  -7    4.86    1.83
  -5   5  -7  -13.48   25.45
   5  -5   7   10.49    3.45
   5  -5   7  -18.37   31.99
   5   5   8    8.48    5.60
  -5  -5  -8    1.44    9.54
  -5  -5  -8   15.03    6.65
  -5   5  -8    7.85    2.64
  -5   5  -8   -9.29   25.13
   5  -5   8    8.87    2.99
  -5  -6   9   11.86    3.80
  -5  -6   9  -27.13   31.36
  -5   6   9    6.19    2.04
   5  -6  -9    7.14    2.53
   5   6  -8   10.07    3.24
   5   6  -8   -7.00 2096.61
  -5  -6   8   11.47    3.73
  -5  -6   8  -25.69   40.37
  -5   6   8   20.59    6.65
   5  -6  -8   13.41    4.61
   5  -6  -8   23.16    7.43
   5   6  -7   34.38   10.95
   5   6  -7    0.92   27.70
   5  -6  -7   36.78   10.35
   5   6  -6   48.43   15.38
   5   6  -6   -5.74   23.40
  -5  -6   6  -20.48   31.60
   5  -6  -6   35.62   10.84
   5   6  -5   65.14   20.69
   5   6  -5  122.48   45.22
  -5  -6   5   56.80   18.05
   5  -6  -5   86.75   21.19
  -5  -6   4   26.08    8.34
  -5   6   4   27.31   10.66
   5  -6  -4   17.70    8.17
   5   6  -3  110.61   35.12
   5   6  -3  117.83   48.99
  -5  -6   3  120.82   38.36
  -5  -6   3  186.18   67.26
  -5   6   3   88.20   28.61
   5  -6  -3  240.06   76.86
   5  -6  -3  124.06   29.74
   5   6  -2   31.71   28.65
  -5  -6   2   21.05    6.79
  -5  -6   2   -4.50  252.41
   5  -6  -2   48.92   16.01
   5  -6  -2   -1.55    4.96
   5   6  -1   20.91    6.79
  -5  -6   1   13.16    4.47
  -5   6   1   12.49    4.47
   5  -6  -1    6.65    2.99
   5   6   0   18.34    5.98
  -5  -6   0    9.47    3.52
  -5   6   0   23.05    7.60
   5   6   1   72.36   23.12
  -5   6  -1   62.75   20.03
   5   6   2   10.80    3.84
  -5  -6  -2    8.20    3.45
  -5   6  -2   13.87    4.58
   5  -6   2   10.07    3.38
  -5   6  -3   24.32    7.88
   5  -6   3   33.19   10.59
  -5   6  -4   26.08    8.38
   5  -6   4   38.78   12.39
  -5   6  -5   14.68    4.82
  -5   6  -5  -17.88   22.52
   5  -6   5   16.93    5.46
   5  -6   5   -4.65   15.06
  -5   6  -6    1.58    0.81
   5  -6   6   -7.92   17.49
  -5  -6  -7    6.86    4.65
  -5   6  -7  -20.17 3062.76
   5  -6   7    5.81    2.01
   5  -6   7   -1.79   26.22
   5   7  -8    1.16   66.55
  -5  -7   8   -2.01   45.40
   5  -7  -8    6.86    4.54
   5   7  -7    2.75    0.95
   5   7  -7   -4.79   14.78
  -5  -7   7    2.36    0.84
  -5  -7   7  -14.18   28.37
   5  -7  -7   18.12    6.51
   5   7  -6    7.11    2.32
   5   7  -6   -6.16   17.91
  -5  -7   6    9.85    3.20
  -5  -7   6   -9.57   21.50
   5   7  -5    5.60    1.87
   5   7  -5   -6.72   13.37
  -5  -7   5    6.79    2.25
  -5  -7   5  -18.23   17.14
  -5   7   5    5.88    5.42
   5  -7  -5    7.60    5.84
   5  -7  -5   12.39    5.81
   5   7  -4   28.68    9.15
  -5  -7   4   54.09   17.21
  -5  -7   4    1.20   20.03
  -5   7   4   26.54    8.76
   5  -7  -4   55.89   18.76
   5  -7  -4   24.39    8.13
   5   7  -3   11.47    3.73
  -5  -7   3   19.04    6.16
  -5  -7   3  -15.45  584.15
  -5   7   3   20.03    6.58
   5  -7  -3   16.37    5.60
   5  -7  -3    3.80    3.52
   5   7  -2   99.74   31.67
  -5  -7   2  121.84   38.68
  -5  -7   2  -19.29   59.44
  -5   7   2  118.22   37.59
   5  -7  -2  159.60   50.71
   5   7  -1   71.58   22.77
  -5  -7   1   59.55   19.00
  -5   7   1   50.43   16.08
   5  -7  -1   57.30   18.30
   5   7   0   24.53    7.88
  -5   7   0   25.83    8.31
   5   7   1   13.69    4.54
   5  -7   1    5.42    1.94
  -5  -7  -2   26.25    8.73
  -5   7  -2   17.14    5.60
  -5  -7  -3    2.08    1.79
  -5   7  -3    4.47    1.69
   5  -7   3    5.56    1.94
  -5   7  -4    4.89    1.72
  -5   7  -5   -2.85   17.70
   5  -7   5    2.39    0.99
   5  -7   5   -2.04  243.08
  -5   7  -6    6.58   75.81
   5  -7   6    1.06   26.04
   5   8  -6   -3.98   14.36
  -5  -8   6   -4.47   84.64
   5  -8  -6    5.81    4.29
   5   8  -5   27.13    8.66
  -5  -8   5   -7.88   13.06
  -5   8   5   15.38    5.07
   5  -8  -5   29.11   10.03
   5  -8  -5   13.73    6.55
   5   8  -4    6.90    2.29
   5   8  -4    1.41    5.10
  -5  -8   4   -4.40  625.75
  -5   8   4    6.12    2.22
   5  -8  -4   10.80    3.77
   5  -8  -4    0.00    2.75
   5   8  -3    7.00    2.32
   5   8  -3    0.21    3.20
  -5  -8   3    9.08    2.99
  -5  -8   3   -1.79  561.20
  -5   8   3    8.83    2.99
   5  -8  -3    6.30    2.36
   5  -8  -3   -2.39    4.50
   5   8  -2   11.23    3.66
   5   8  -2    1.27    4.72
  -5  -8   2   22.21    7.11
  -5  -8   2   -4.89   22.14
  -5   8   2    9.89    3.27
   5  -8  -2    9.22    3.17
   5  -8  -2    1.69   15.87
   5   8  -1   14.22    4.58
  -5  -8   1   10.80    3.59
   5  -8  -1    6.83    2.39
   5   8   0    4.19    1.48
  -5   8   0    6.79    2.29
   5   8   1   21.12    6.76
  -5  -8  -1   17.81    5.84
  -5   8  -1   15.63    5.07
   5  -8   1    9.47    3.10
  -5  -8  -2    8.73    3.06
  -5   8  -2    1.41    0.77
   5  -8   2    3.20    1.30
   5   8   3   21.57    7.07
  -5  -8  -3   25.80    8.48
  -5   8  -3   17.70    5.74
   5  -8   3   25.27    8.09
  -5   8  -4    1.87   10.63
  -6   0  12    5.24    1.76
  -6   0  12    0.56    4.79
   6   0 -12    0.70    3.73
  -6   0  10   23.02    7.39
  -6   0  10   56.42   19.11
   6   0 -10   56.59   18.41
  -6   0   8  151.33   48.07
  -6   0   8  265.15   65.28
   6   0  -8  146.09   36.39
  -6   0   6  490.71  155.59
  -6   0   6  767.44  171.01
   6   0  -6  943.23  209.97
  -6   0   4  401.28  127.58
   6   0  -4  262.09   83.55
   6   0  -4  355.78   80.00
  -6   0   2   19.50    9.50
   6   0  -2   19.88   10.91
  -6   0  -4  184.52   59.41
   6   0   4  141.44   46.14
  -6   0  -6  215.95   69.54
  -6   0  -6   -0.42   51.49
   6   0   6  359.89  114.84
  -6   0  -8   13.76    5.14
  -6   0  -8    6.65    8.41
   6   0   8   10.49    4.08
   6   0   8    4.75    7.64
   6   1 -12    4.12    1.44
   6   1 -12    5.38    6.58
  -6   1  12    3.17    5.14
   6  -1 -12    6.09    2.08
   6  -1 -12    5.42    5.67
   6   1 -11   50.43   16.05
   6   1 -11   83.87   25.06
  -6  -1  11   79.93   27.84
  -6   1  11   54.66   17.35
  -6   1  11   68.77   21.86
   6  -1 -11   46.14   14.71
   6   1 -10   37.20   11.90
   6   1 -10    6.05    8.02
  -6  -1  10   10.28   10.45
  -6   1  10   20.59    6.69
  -6   1  10    6.62    6.19
   6  -1 -10   14.61    4.86
   6   1  -9  102.80   32.70
  -6  -1   9  102.98   32.73
  -6   1   9   94.64   30.09
   6  -1  -9   87.07   27.73
   6   1  -8    7.88    7.00
  -6  -1   8    6.41    7.88
  -6   1   8   12.71    4.33
  -6   1   8    4.36    5.46
   6  -1  -8    6.41    2.96
   6  -1  -8    2.85    3.87
   6   1  -7   31.89   10.35
   6   1  -7  102.80   28.01
  -6  -1   7   56.38   18.09
  -6   1   7  106.29   33.82
  -6   1   7   70.63   19.25
   6  -1  -7   59.90   19.39
   6   1  -6   23.79    7.95
   6   1  -6    3.38    5.17
  -6   1   6    9.15    3.91
  -6   1   6    2.67    3.52
   6  -1  -6   15.66    5.95
   6  -1  -6    3.98    4.26
   6   1  -5   52.90   17.10
   6   1  -5  110.69   27.24
  -6  -1   5   63.81   20.52
  -6  -1   5   87.77   22.74
  -6   1   5   71.13   23.23
  -6   1   5   71.65   18.83
   6  -1  -5   58.63   19.36
   6  -1  -5   84.47   20.91
   6   1  -4   12.21    6.02
  -6  -1   4   16.40    5.84
  -6  -1   4    7.85    5.07
  -6   1   4   21.22    8.13
  -6   1   4   17.81    6.90
   6  -1  -4   17.28    6.72
   6   1  -3  144.75   46.42
  -6  -1   3  283.80   66.55
  -6  -1   3  231.68   73.80
  -6   1   3  227.35   55.25
   6  -1  -3  230.87   56.73
   6   1  -2  107.20   29.35
  -6  -1   2   82.92   22.63
   6  -1  -2  126.17   32.84
  -6   1  -2    3.17    6.62
   6  -1   2    1.44    6.76
  -6   1  -3   26.64   10.56
   6  -1   3   18.97    9.01
  -6  -1  -4   -0.95   16.75
  -6   1  -4   17.42    9.26
   6  -1   4   15.20    8.24
   6   1   5    2.99    6.51
  -6  -1  -5    4.15    6.97
  -6   1  -5   39.59   13.73
   6   1   6    9.26   10.10
  -6  -1  -6    5.91    6.93
  -6  -1  -6    0.21    1.79
  -6   1  -6   11.19    4.75
  -6   1  -6    0.53    5.24
   6  -1   6    6.19    3.52
   6   1   7   19.88   10.31
  -6  -1  -7    5.74    6.58
  -6   1  -7   12.49    4.65
  -6   1  -7   -0.25    7.39
   6  -1   7   13.27    4.93
   6  -1   7   -0.88    5.24
   6   1   8    5.56    4.58
  -6  -1  -8    3.13    4.82
  -6   1  -8    1.69    1.87
  -6   1  -8    0.32    7.29
   6  -1   8   -0.95    4.26
   6   1   9    9.15    3.70
   6   1   9    5.63    6.51
  -6  -1  -9    3.91    6.30
  -6   1  -9   10.98    3.94
  -6   1  -9    0.25   11.19
   6  -1   9    8.48    3.10
   6   2 -12    0.53    8.73
  -6  -2  12    0.07   82.11
   6  -2 -12    4.36    5.56
   6   2 -11    4.40    1.55
   6   2 -11    2.85    7.60
  -6  -2  11    3.03    1.09
  -6   2  11    1.94    0.84
  -6   2  11    6.62    5.14
   6  -2 -11    5.53    2.08
   6   2 -10   12.74    4.19
   6   2 -10    3.91    7.43
  -6  -2  10    8.76    2.89
  -6   2  10   12.88    4.22
  -6   2  10   10.59    6.02
   6  -2 -10    6.16    2.29
   6  -2 -10   22.24    8.31
   6   2  -9   13.62    4.54
   6   2  -9    0.00   36.04
  -6  -2   9    9.68    3.24
  -6  -2   9   -0.56    7.00
  -6   2   9    7.71    2.75
  -6   2   9    4.43    4.12
   6  -2  -9   11.86    4.19
   6  -2  -9    6.33    5.00
   6   2  -8   84.89   27.03
  -6  -2   8   71.58   25.94
  -6  -2   8   72.15   22.98
  -6   2   8   63.21   20.17
  -6   2   8   99.92   26.78
   6  -2  -8  101.22   32.31
   6  -2  -8   74.51   21.22
   6   2  -7   28.12    9.15
   6   2  -7    9.04    8.83
  -6  -2   7   36.71   11.79
  -6  -2   7   13.69   11.61
  -6   2   7   21.64    8.66
   6  -2  -7   72.36   23.30
   6  -2  -7   22.81    8.69
   6   2  -6  169.60   53.92
   6   2  -6  156.05   40.37
  -6  -2   6  271.70   66.76
  -6   2   6  232.77   54.62
   6  -2  -6  202.96   64.72
   6   2  -5   70.95   22.77
  -6  -2   5   54.48   17.49
  -6  -2   5   98.65   26.99
  -6   2   5   46.17   12.92
   6  -2  -5   49.24   16.58
   6   2  -4  184.31   58.56
   6   2  -4  266.42   63.31
  -6   2   4  156.75   37.06
   6  -2  -4  155.91   36.36
   6   2  -3   35.62   11.79
   6   2  -3   12.53    9.85
  -6  -2   3   37.27   12.21
  -6  -2   3   30.55   15.80
  -6   2   3   13.62    9.08
   6  -2  -3   38.54   13.34
   6   2  -2   66.24   21.40
  -6  -2   2   54.48   17.77
  -6  -2   2   64.65   20.59
   6  -2  -2   57.01   17.39
   6  -2   1   14.50    7.25
   6  -2   2   51.28   17.74
  -6   2  -3   11.47    5.91
   6  -2   3   14.68    8.24
  -6   2  -4   15.20    5.98
   6  -2   4   28.86   10.17
   6  -2   5   39.07   12.74
   6   2   6   24.92   11.83
  -6  -2  -6    0.00    1.23
  -6  -2  -6   41.00   15.27
  -6   2  -6    9.64   13.09
   6  -2   6   84.15   26.85
   6  -2   6   -0.04   15.38
   6   2   7    2.29    8.38
   6   2   7    1.44    2.43
  -6  -2  -7    5.28    4.72
  -6  -2  -7    3.03    5.84
  -6   2  -7   -3.06    8.13
   6  -2   7    1.69    1.41
   6  -2   7   -0.14    6.26
   6   2   8    2.36    3.98
  -6  -2  -8    8.87    5.60
  -6  -2  -8    5.42    4.82
  -6   2  -8    6.26    2.46
  -6   2  -8   -6.51   13.09
   6  -2   8    0.28    9.68
   6   2   9    7.00    6.16
   6   2   9    0.39    3.94
  -6  -2  -9    2.60    2.60
  -6  -2  -9    2.04    4.29
  -6   2  -9    0.53    0.92
  -6   2  -9   -1.48   12.04
   6  -2   9    0.63    0.81
   6  -2   9   -2.50    8.27
   6   3 -11    3.77   14.29
  -6  -3  11   14.32    4.58
  -6  -3  11   -1.62   12.32
  -6   3  11   10.66    3.45
   6  -3 -11   15.20    5.00
   6  -3 -11   24.78    8.80
   6   3 -10    6.48    2.15
   6   3 -10   -2.99    9.96
  -6  -3  10   -5.88   12.39
  -6   3  10   13.37    4.36
   6  -3 -10    8.45    2.96
   6  -3 -10    5.46    4.26
   6   3  -9   21.05    6.76
  -6  -3   9  -11.79   17.49
  -6   3   9   28.86    9.26
   6  -3  -9   20.52    6.76
   6  -3  -9   10.66    5.74
   6   3  -8   30.94    9.92
   6   3  -8    0.07    8.97
  -6  -3   8   28.01    8.97
  -6  -3   8   -5.10   15.38
  -6   3   8   27.06    8.80
  -6   3   8   12.04    7.07
   6  -3  -8   14.46    5.28
   6  -3  -8    9.26    5.53
  -6  -3   7   45.15   14.39
  -6  -3   7    9.19   16.19
  -6   3   7   82.67   26.36
   6  -3  -7   64.58   20.83
   6  -3  -7   41.07   12.11
   6   3  -6   19.50    6.33
  -6  -3   6   22.77   14.64
  -6   3   6   22.31    8.20
  -6   3   6   31.39   10.80
   6  -3  -6   19.22    7.18
   6  -3  -6   59.97   15.77
   6   3  -5   30.09   11.44
  -6  -3   5   22.70    7.36
  -6  -3   5   57.19   21.29
   6  -3  -5   43.64   11.83
   6   3  -4   71.97   23.02
   6   3  -4   46.07   16.47
  -6  -3   4   62.72   20.06
  -6  -3   4   75.46   23.37
   6  -3  -4   40.44   10.87
   6   3  -3  179.35   50.54
  -6  -3   3  159.46   50.68
  -6   3   3  184.06   44.59
   6  -3  -3  202.47   49.31
   6   3  -2   51.03   16.61
   6   3  -2   70.95   26.71
  -6  -3   2  142.08   45.44
  -6  -3   2   47.97   20.83
  -6   3   2   21.57   10.45
   6  -3  -2   62.96   18.97
   6   3  -1  140.74   44.98
  -6  -3   1  104.91   33.54
  -6   3   0   75.91   25.20
  -6   3  -1  168.40   54.02
  -6   3  -2   60.53   20.38
   6  -3   2   65.21   21.64
  -6   3  -3   70.63   22.88
   6  -3   3   79.82   25.76
  -6   3  -4    7.18    3.17
  -6   3  -5    8.13    3.38
  -6   3  -6   36.88   12.00
  -6   3  -6  -10.28   14.89
   6  -3   6   17.28    5.77
   6  -3   6    0.35 3376.72
   6   3   7    4.47    8.41
   6   3   7    0.28    1.23
  -6  -3  -7    3.34    5.84
  -6  -3  -7    0.81    2.57
   6  -3   7    3.55    1.58
   6  -3   7    2.85   14.11
   6   3   8    1.48   11.09
   6   3   8    2.08    3.24
  -6  -3  -8    8.27    8.31
  -6  -3  -8    2.39    3.62
  -6   3  -8    3.77    1.58
   6  -3   8   -1.16   16.22
  -6  -3  -9    3.10    5.03
   6  -3   9    1.37   10.14
  -6  -4  11    0.74  201.45
  -6   4  11    4.68    5.31
   6  -4 -11    3.24    3.98
   6   4 -10   11.90    3.84
  -6  -4  10   11.33    3.66
  -6  -4  10  -15.24   30.94
  -6   4  10    6.72    2.29
  -6   4  10   19.04    8.20
   6  -4 -10    4.65    1.97
   6  -4 -10   13.27    5.95
   6   4  -9   19.81    6.33
   6   4  -9   -3.87  277.93
  -6  -4   9   17.42    5.60
  -6  -4   9   11.86   44.70
  -6   4   9   43.99   13.62
  -6   4   9   19.57    6.33
   6  -4  -9   21.36    7.07
   6  -4  -9   23.90    8.41
   6   4  -8   44.13   14.08
   6   4  -8   -8.27   17.14
  -6  -4   8   35.72   11.40
  -6   4   8   30.87    9.92
   6  -4  -8   33.01   10.70
   6  -4  -8   25.66    8.41
   6   4  -7   23.51    7.57
   6   4  -7    0.77   12.71
  -6  -4   7   18.44    5.95
  -6  -4   7    1.83   25.94
  -6   4   7   24.14    8.45
   6  -4  -7   24.46    8.76
   6  -4  -7   13.97    5.70
   6   4  -6   86.44   27.49
   6   4  -6   95.34   29.63
  -6  -4   6  115.08   36.57
  -6  -4   6   45.75   25.06
  -6   4   6  109.73   27.17
   6  -4  -6   97.94   24.18
  -6  -4   5   63.88   20.34
   6   4  -4   75.84   24.14
   6   4  -4   63.74   21.19
  -6  -4   4   67.75   21.61
   6  -4  -4   36.64   10.77
   6   4  -3   11.51    3.98
   6   4  -3   82.04   32.48
  -6  -4   3   14.22    5.00
   6  -4  -3   69.44   20.34
   6   4  -2   64.40   20.59
   6   4  -2   63.21   27.06
  -6  -4   2   60.85   19.46
   6  -4  -2   83.44   23.97
   6   4  -1   16.08    5.95
  -6  -4   1   16.86    6.12
  -6   4   1    9.92    6.09
   6  -4  -1   16.79    7.39
   6   4   0   60.99   19.57
  -6  -4   0   39.21   12.85
  -6   4   0   58.07   19.53
   6  -4   0   46.91   15.77
  -6   4  -1   31.78   11.09
   6  -4   1   37.31   13.06
  -6   4  -2   64.02   20.69
   6  -4   2   82.85   26.57
  -6   4  -3   41.92   13.76
   6  -4   3   46.21   14.89
  -6   4  -4   40.79   13.34
   6  -4   4   28.12    9.19
  -6   4  -5   11.58    4.01
   6  -4   5   10.87    3.77
  -6   4  -6   20.66    6.79
   6  -4   6   -1.65   25.30
   6   4   7    0.11    0.88
  -6  -4  -7    8.94    5.28
  -6   4  -7   -7.53   24.39
   6  -4   7    8.24    2.85
   6  -4   7   -1.30   24.85
   6   4   8   -1.51    8.34
  -6  -4  -8    5.88    5.03
  -6  -4  -8    5.10    6.86
  -6   4  -8    3.87    1.48
  -6   4  -8   -9.75   26.40
   6  -4   8    3.98    1.58
   6  -4   8  -14.39   24.74
   6   5 -10    4.50  125.47
  -6  -5  10    9.47    3.06
  -6  -5  10   -2.50  605.41
  -6   5  10    7.11    2.43
  -6   5  10   16.12    7.88
   6  -5 -10   14.89    6.16
   6   5  -9   26.75    8.52
   6   5  -9   -2.82  150.24
  -6  -5   9   23.30    7.43
  -6  -5   9  -19.43   43.15
  -6   5   9   25.73    8.24
   6  -5  -9   21.33    6.97
   6  -5  -9   40.72   11.37
   6   5  -8   11.83    3.84
   6   5  -8   -8.52   18.37
  -6  -5   8    8.38    2.75
  -6  -5   8  -13.41   60.43
  -6   5   8   10.63    3.73
   6  -5  -8   13.51    4.89
   6  -5  -8    6.30    3.73
   6   5  -7    5.24    1.83
   6   5  -7   13.27   20.59
  -6  -5   7    5.42    1.87
  -6  -5   7  -32.20   36.88
  -6   5   7    6.41    3.06
   6   5  -6   -3.45   11.05
  -6  -5   6    8.87    2.96
  -6  -5   6   -9.15   23.97
   6  -5  -6    2.57    2.82
   6   5  -5   16.08    5.24
   6   5  -5   -3.41    9.54
  -6  -5   5   19.32    6.23
   6  -5  -5   12.85    5.38
   6   5  -4   61.38   19.53
   6   5  -4   73.70   29.25
  -6  -5   4   51.00   16.29
  -6  -5   4   13.94   28.19
   6  -5  -4   79.43   19.78
   6   5  -3   46.49   14.85
   6   5  -3   76.76   38.50
  -6  -5   3   41.78   13.41
  -6  -5   3   47.48   36.14
   6  -5  -3   65.14   18.48
   6   5  -2  113.61   36.11
  -6  -5   2  168.51   53.53
  -6  -5   2   11.68   28.26
  -6   5   2   80.17   26.29
   6  -5  -2   73.45   24.25
   6  -5  -2   35.23   16.15
   6   5  -1   55.71   17.81
  -6  -5   1   46.35   14.89
  -6   5   1   69.37   23.02
   6   5   0   82.60   26.36
  -6  -5   0   69.93   22.52
  -6   5   0   63.70   20.76
   6  -5   0   54.06   17.67
  -6  -5  -1   11.40    4.08
  -6   5  -1   21.57    7.36
   6  -5   1   20.17    6.83
  -6   5  -2    8.80    3.55
   6  -5   2   10.42    3.80
  -6   5  -3   46.10   14.85
   6  -5   3   26.11    8.52
   6  -5   4    8.13    2.85
  -6   5  -5    4.58    1.76
   6  -5   5    3.55    1.51
  -6   5  -6   14.08    4.61
  -6   5  -6   -8.31   21.61
   6  -5   6   14.22    4.65
   6  -5   6   15.38   33.68
   6   5   7    0.25    1.34
  -6   5  -7    1.62    0.84
  -6   5  -7   -2.89   22.74
   6  -5   7    1.55    0.84
   6  -5   7   -5.31   24.53
   6   6  -9    9.85    3.17
   6   6  -9   -0.63   41.18
   6  -6  -9    4.72    2.22
   6   6  -8   15.41    4.93
   6   6  -8   -7.71   24.25
  -6  -6   8   10.28    3.31
  -6  -6   8  -23.90   44.13
  -6   6   8   21.61    7.14
   6  -6  -8   16.33    6.86
   6   6  -7   17.49    5.60
   6   6  -7  -16.22   29.00
  -6  -6   7   17.81    5.70
   6  -6  -7   22.03    7.95
   6   6  -6   12.85    4.15
   6   6  -6   -7.92   20.06
  -6  -6   6    8.45    2.78
   6  -6  -6    5.17    3.84
   6   6  -5   25.87    8.27
   6   6  -5   99.28   38.50
  -6  -6   5   29.60    9.47
   6  -6  -5   63.38   16.58
   6   6  -4   48.07   15.31
   6   6  -4  134.51   54.76
  -6  -6   4   40.23   12.85
  -6  -6   4   12.81   32.87
  -6   6   4    7.60   10.84
   6  -6  -4   28.30    9.19
   6   6  -3   25.97    8.34
   6   6  -3    8.45   19.57
  -6  -6   3   27.80    8.94
  -6  -6   3    7.36   42.06
  -6   6   3   22.56    9.47
   6  -6  -3   30.23   12.21
   6  -6  -3   68.21   18.76
   6   6  -2   22.38    7.29
   6   6  -2  109.49   56.52
  -6  -6   2   23.72    7.71
  -6  -6   2  -23.09   32.70
   6  -6  -2   -3.27    7.14
   6   6  -1   48.74   15.56
  -6  -6   1   44.80   14.36
  -6   6   1   40.44   13.20
   6   6   0   14.08    4.89
  -6  -6   0    6.86    2.75
  -6   6   0    9.78    3.70
   6  -6   0   10.35    4.01
   6   6   1   21.79    7.14
  -6  -6  -1   40.54   13.23
  -6   6  -1   19.53    6.62
   6  -6   1   25.37    8.31
   6  -6   2    9.26    3.24
  -6   6  -3   30.41    9.78
   6  -6   3   24.74    8.06
  -6   6  -4    8.27    2.82
   6  -6   4    8.55    2.89
  -6   6  -5    6.12    2.11
   6  -6   5    8.83    2.96
  -6   6  -6    2.67    1.06
  -6   6  -6   -7.25   22.98
   6  -6   6    2.22    0.95
   6   7  -7    2.67    0.99
   6   7  -7   -7.85   15.94
  -6  -7   7    2.01    0.77
  -6  -7   7   -3.94   25.59
   6  -7  -7   11.05    5.00
   6   7  -6   10.31    3.34
   6   7  -6   -8.80   19.81
  -6  -7   6    7.00    2.32
  -6  -7   6   -9.71   19.25
   6  -7  -6    1.62    2.89
   6   7  -5    4.05    1.41
   6   7  -5    0.84   19.08
  -6  -7   5    2.67    0.99
  -6  -7   5  -17.28   17.91
  -6   7   5    1.97    5.14
   6  -7  -5    0.74    2.50
   6   7  -4   26.11    8.38
   6   7  -4   24.18   29.14
  -6  -7   4   22.42    7.18
  -6  -7   4   -6.90   22.28
  -6   7   4   42.58   14.89
   6  -7  -4   34.91   13.90
   6  -7  -4   17.81    7.21
   6   7  -3   11.65    3.80
   6   7  -3    0.21    5.95
  -6  -7   3   13.83    4.50
  -6  -7   3   -7.81 1379.50
  -6   7   3    8.97    3.70
   6  -7  -3   18.58    7.95
   6  -7  -3    8.06    5.95
   6   7  -2  108.26   34.38
  -6  -7   2   86.23   27.42
  -6  -7   2   -3.98   36.81
   6  -7  -2  109.03   34.84
   6  -7  -2    0.14    9.15
   6   7  -1   34.35   10.98
  -6   7   1   29.91    9.68
   6  -7  -1   40.79   13.20
   6   7   0   26.75    8.59
  -6  -7   0   28.93    9.40
  -6   7   0   20.41    6.69
   6  -7   0   17.81    5.91
   6   7   1   20.17    6.62
  -6   7  -1   14.46    4.82
   6  -7   1   12.67    4.22
   6  -7   2   25.34    8.17
  -6   7  -3    1.44    0.81
  -6   7  -4    2.08    0.92
   6  -7   4    1.44    0.77
  -6   7  -5    1.72   15.80
   6   8  -5    8.80    2.85
  -6  -8   5    7.88    2.57
  -6  -8   5    1.62  273.35
   6  -8  -5   15.45    9.29
   6  -8  -5    3.38    3.94
   6   8  -4    6.79    2.22
  -6  -8   4    4.72    1.58
  -6  -8   4   -2.82   41.21
  -6   8   4    5.35    2.36
   6  -8  -4    4.79    4.40
   6  -8  -4    4.29    4.08
   6   8  -3   10.24    3.31
  -6  -8   3   18.69    6.02
  -6  -8   3   -1.90   16.37
   6  -8  -3   21.26    7.07
   6  -8  -3   -1.30    4.68
  -6  -8   2    3.10    1.20
  -6  -8   2    2.50   15.27
   6  -8  -2    8.38    3.24
   6  -8  -2   -3.41   16.86
   6   8  -1    9.12    2.99
  -6  -8   1    5.81    2.08
  -6   8   1    4.22    1.76
   6  -8  -1    3.94    1.83
   6   8   0    6.51    2.22
  -6  -8   0    4.15    1.76
  -6   8   0    3.98    1.55
   6   8   1   11.54    3.84
  -6   8  -1    2.99    1.16
   6  -8   1    5.31    1.90
   6   8   2    2.32    1.37
  -6  -8  -2    1.23    1.76
  -6   8  -2    4.29    1.58
   6  -8   2    4.08    1.48
  -7   0  12    0.84    4.33
  -7   0  10   10.95    3.62
  -7   0  10   17.32   12.88
   7   0 -10    2.50    4.93
  -7   0   8   22.38    7.39
   7   0  -8   78.20   21.86
  -7   0   6  273.21   86.75
  -7   0   6  377.03   85.80
   7   0  -6  415.11   94.07
  -7   0   4  141.13   45.15
  -7   0   4  315.06   73.70
   7   0  -4  273.67   63.60
  -7   0   2  330.05   76.30
   7   0  -2  542.30  123.50
  -7   0  -4   16.05    8.02
   7   0   4   11.61    7.71
   7   0   6   25.69   11.83
  -7   0  -8   10.07    4.29
  -7   0  -8    9.29    9.61
   7   0   8   14.46    6.09
   7   0   8   -1.58    4.61
   7   1 -12    8.06    8.55
  -7  -1  12    1.06    6.19
  -7   1  12    2.82    5.70
   7  -1 -12    4.08    5.07
   7   1 -11   35.16   11.23
  -7  -1  11   33.96   10.80
  -7   1  11   23.65    7.57
   7  -1 -11   42.97   13.73
   7   1 -10    5.56    2.11
  -7  -1  10   11.75    3.87
  -7  -1  10   -0.07    6.12
  -7   1  10   11.90    3.98
   7  -1 -10   13.20    4.54
   7  -1 -10    1.83    3.84
   7   1  -9   42.69   13.69
  -7  -1   9   56.42   18.02
  -7  -1   9   63.17   22.45
  -7   1   9   38.04   12.21
  -7   1   9   45.96   15.63
   7  -1  -9   71.90   22.98
   7  -1  -9   60.57   17.98
   7   1  -8    6.33    2.71
   7   1  -8    1.76    4.79
  -7  -1   8   14.89    4.96
  -7  -1   8    4.15    7.99
  -7   1   8    6.26    5.00
  -7   1   8   23.72    7.81
   7  -1  -8    9.89    3.98
   7  -1  -8    6.41    4.72
   7   1  -7   21.36    7.21
   7   1  -7   65.14   19.46
  -7  -1   7   20.06    6.69
  -7   1   7   33.36   10.95
  -7   1   7   35.48   11.30
   7  -1  -7   22.88    7.81
   7  -1  -7   82.35   22.52
   7   1  -6    3.41    2.99
   7   1  -6   23.86    9.54
  -7  -1   6    6.65    3.45
  -7   1   6   16.58    6.37
  -7   1   6    1.97    3.27
   7  -1  -6   12.04    5.38
   7  -1  -6   10.07    5.88
   7   1  -5   58.03   18.72
   7   1  -5   56.17   15.98
  -7  -1   5   49.03   15.84
  -7  -1   5   80.00   21.68
  -7   1   5   62.36   17.21
   7  -1  -5   61.66   20.34
   7  -1  -5   75.81   18.76
   7   1  -4   26.57   11.47
  -7  -1   4   26.08    9.33
  -7  -1   4   33.29   13.69
  -7   1   4   16.61    7.39
   7   1  -3  232.39   73.94
   7   1  -3  183.92   48.46
  -7  -1   3  274.55   66.31
  -7   1   3  205.46   50.64
  -7  -1   2    5.77    6.97
  -7   1   2   12.95    8.55
   7  -1  -2   15.52    9.33
  -7   1  -3   10.80    6.19
   7  -1   3    8.17    6.44
  -7   1  -4    3.98    5.31
   7  -1   4    3.55    5.60
   7   1   5    0.81    7.46
  -7   1  -5    6.76    5.88
   7   1   6   13.62   11.19
  -7  -1  -6   36.64   14.39
  -7   1  -6   14.18    5.91
   7  -1   6   33.79   12.56
   7   1   7   12.14    9.68
  -7  -1  -7   -0.07    0.63
  -7   1  -7   14.01    5.17
  -7   1  -7   -0.21    3.94
   7  -1   7    8.48    3.98
   7   1   8    6.05    8.13
   7   1   8    3.24    4.29
  -7  -1  -8    2.50    4.58
  -7  -1  -8    1.30    5.81
  -7   1  -8    4.93    2.46
  -7   1  -8    0.14    8.31
   7  -1   8    2.18    1.83
   7   1   9    0.95    4.79
  -7  -1  -9   -0.35    5.70
  -7   1  -9    1.62   11.30
   7  -1   9   -0.53   17.74
   7   2 -11   -0.95    4.29
  -7  -2  11    3.03    1.16
  -7  -2  11    0.95    8.45
  -7   2  11    8.52    2.85
  -7   2  11   -1.13    2.36
   7  -2 -11    5.77    2.15
   7  -2 -11    2.53    3.41
   7   2 -10    9.22    3.13
   7   2 -10   -0.53  915.82
  -7  -2  10    7.74    2.64
  -7  -2  10   -3.20   10.45
  -7   2  10   15.59    9.15
   7  -2 -10    2.08    3.52
   7   2  -9    3.45    6.41
  -7  -2   9   10.91    3.66
   7  -2  -9    8.13    3.13
   7  -2  -9    6.48    4.15
   7   2  -8   42.02   13.51
   7   2  -8   51.17   20.38
  -7  -2   8   53.21   17.00
  -7  -2   8   98.33   31.67
  -7   2   8  115.40   29.35
   7  -2  -8   71.58   23.05
   7   2  -7   25.27    8.27
   7   2  -7  108.08   30.37
  -7  -2   7   29.07    9.47
  -7  -2   7   44.66   21.12
  -7   2   7   68.35   18.62
   7  -2  -7   36.43   12.21
   7  -2  -7   89.92   23.05
   7   2  -6  174.32   55.40
   7   2  -6  439.78  101.64
  -7  -2   6  213.94   67.96
  -7  -2   6  402.76   95.97
  -7   2   6  173.22   55.43
  -7   2   6  350.22   79.54
   7  -2  -6  310.41   70.42
   7   2  -5   96.22   30.72
  -7  -2   5   63.38   20.31
  -7  -2   5  111.25   30.76
  -7   2   5   72.36   19.15
   7   2  -4  187.62   59.69
   7   2  -4  470.40  110.58
  -7  -2   4  188.25   59.86
  -7   2   4  236.08   55.85
   7  -2  -4  265.71   61.45
   7   2  -3   68.66   22.21
   7   2  -3   65.14   25.37
  -7  -2   3   89.60   28.93
  -7  -2   3   81.33   27.73
  -7   2   3   90.55   25.34
  -7  -2   2   56.24   18.12
  -7  -2   2   31.25   14.29
  -7   2   2   44.17   16.01
   7  -2  -2   72.04   20.24
  -7   2  -2    5.24    5.00
   7  -2   2    8.83    6.09
  -7   2  -3    3.91    4.29
  -7   2  -4   22.03    8.48
   7  -2   4   48.64   16.96
  -7   2  -5   29.95   10.24
   7  -2   5   51.45   17.07
   7   2   6    3.24    6.86
  -7   2  -6   22.42    7.67
   7  -2   6   19.53    6.69
   7   2   7   -0.07    8.09
  -7  -2  -7   -0.04    1.20
  -7   2  -7    2.04    1.69
  -7   2  -7   -2.75    7.11
   7  -2   7    3.17    2.22
   7   2   8   10.00   14.29
   7   2   8    2.64    3.52
  -7  -2  -8    6.44    6.05
  -7   2  -8    2.78    1.69
  -7   2  -8   -2.25   15.87
   7  -2   8    3.55    1.69
   7   3 -11   25.20    8.02
   7   3 -11   -1.83    5.63
  -7  -3  11   18.44    5.88
  -7  -3  11   -6.51   13.27
  -7   3  11   15.59    5.03
   7   3 -10   12.78    4.15
   7   3 -10   -2.08    4.75
  -7  -3  10    7.11    2.36
  -7  -3  10   -0.81   13.58
  -7   3  10    7.14    5.53
  -7   3  10    5.42    1.97
   7  -3 -10    0.70    2.60
   7   3  -9   29.56    9.47
   7   3  -9    7.81   15.20
  -7  -3   9   26.47    8.45
  -7   3   9   38.47   12.32
  -7   3   9   25.94   11.05
   7  -3  -9   20.48    6.90
   7  -3  -9    8.97    5.28
   7   3  -8   16.15    5.28
   7   3  -8   -1.02    6.90
  -7  -3   8   -5.60   11.05
  -7   3   8    8.87    3.24
  -7   3   8    4.47    4.05
   7  -3  -8   11.97    4.36
   7  -3  -8   14.11    6.37
   7   3  -7   19.22    6.26
   7   3  -7   26.50   16.44
  -7  -3   7   30.79    9.89
  -7  -3   7   16.37   16.47
  -7   3   7   46.49   15.27
   7  -3  -7   40.12   13.41
   7  -3  -7   29.14    9.19
   7   3  -6   32.80   10.56
   7   3  -6  115.15   32.48
  -7  -3   6   28.23    9.08
  -7  -3   6   79.05   26.99
  -7   3   6   23.44    8.13
   7  -3  -6   71.41   18.02
   7   3  -5   29.56    9.61
   7   3  -5   16.44    9.61
  -7  -3   5   44.38   14.22
  -7  -3   5    7.04    8.90
  -7   3   5    8.73    5.49
   7  -3  -5    8.87    4.86
   7   3  -4   10.95    3.87
   7   3  -4    8.41   12.88
  -7  -3   4   12.95    4.50
  -7  -3   4   38.82   19.74
   7  -3  -4    9.68    5.60
   7   3  -3   92.84   29.70
  -7  -3   3   95.73   30.55
  -7  -3   2   45.29   14.85
  -7  -3   2   10.17   12.60
  -7   3   2   10.17    8.52
   7  -3  -2   23.30   10.42
  -7   3   0    8.27   14.01
   7  -3   1   62.72   21.01
  -7   3  -2    9.04    5.56
   7  -3   2    5.42    5.07
   7  -3   3   98.86   32.10
  -7   3  -4   19.32    7.11
   7  -3   4   45.12   14.89
  -7   3  -5    6.90    3.24
   7  -3   5   10.63    3.91
   7  -3   6    0.49    1.41
  -7  -3  -7    1.02    6.37
  -7   3  -7    1.34    1.37
  -7   3  -7    6.58   13.69
   7  -3   7    1.90    1.44
   7  -3   7    1.94   10.70
   7   3   8    0.53    9.26
   7   3   8   -0.04    0.67
  -7  -3  -8    4.26    4.68
  -7   3  -8    5.81    2.25
  -7   3  -8   -2.75   14.68
   7  -3   8    5.00    2.11
   7  -3   8   -3.20    8.06
   7   4 -10   -2.50    6.19
  -7  -4  10    5.88    1.94
  -7   4  10    6.09    2.11
  -7   4  10    1.37    2.75
   7  -4 -10    3.20    1.69
   7  -4 -10    6.12    5.46
   7   4  -9   10.80    3.55
  -7  -4   9    8.66    2.85
  -7  -4   9  -24.07   33.47
  -7   4   9    8.55    2.96
  -7   4   9    2.25    3.87
   7  -4  -9   13.48    4.75
   7  -4  -9    4.05    3.66
   7   4  -8   26.57    8.55
   7   4  -8    8.83   22.77
  -7  -4   8   17.67    5.70
  -7  -4   8  -10.98   51.14
  -7   4   8   23.79    7.81
   7  -4  -8   24.64    8.62
   7  -4  -8   28.82    9.19
   7   4  -7  100.55   39.56
  -7  -4   7   84.32   26.78
  -7   4   7   54.06   17.53
   7  -4  -7   66.62   21.54
   7  -4  -7   83.23   20.45
   7   4  -6   65.14   20.76
   7   4  -6   75.98   26.82
  -7  -4   6   44.63   14.29
  -7  -4   6  128.53   44.80
  -7   4   6  111.71   27.59
   7  -4  -6  128.70   30.16
   7   4  -5   33.93   10.95
   7   4  -5   48.11   17.74
  -7  -4   5   43.57   13.94
   7  -4  -5   91.72   22.24
   7   4  -4  101.15   32.17
   7   4  -3   33.93   10.95
   7   4  -3   17.53   20.06
  -7  -4   3   -3.41   21.29
   7  -4  -3    0.07    4.61
   7   4  -2  186.81   59.41
  -7  -4   2  226.72   72.11
  -7  -4   2   77.81   35.09
   7  -4  -2  165.10   42.37
   7   4  -1   78.83   25.20
  -7  -4   1  120.89   38.64
  -7   4   0   32.62   11.75
   7  -4   1    3.94    4.33
  -7   4  -2   29.88   10.52
   7  -4   2   72.78   23.90
  -7   4  -3   11.02    4.36
  -7   4  -4   24.07    8.06
  -7   4  -5    7.11    2.82
   7  -4   5    9.47    3.41
  -7   4  -6    9.29    3.48
   7  -4   6   16.86    5.63
   7  -4   7    3.80    1.65
   7  -4   7   -0.74   21.64
  -7  -5  10   -7.39   58.91
  -7   5  10    7.11    6.33
   7   5  -9   23.19    7.43
   7   5  -9  -13.69   19.36
  -7  -5   9   17.88    5.74
  -7  -5   9  -20.87   41.42
  -7   5   9   23.02    7.46
   7  -5  -9   18.44    7.71
   7   5  -8    8.69    2.85
   7   5  -8  -16.40   19.74
  -7  -5   8    6.72    2.25
  -7   5   8   11.83    7.14
   7  -5  -8    6.44    2.82
   7  -5  -8   16.65    6.65
   7   5  -7   15.66    5.07
   7   5  -7    7.74   17.17
  -7  -5   7    8.76    2.92
  -7  -5   7  -16.61   37.34
   7   5  -6    9.92    3.27
   7   5  -6   23.72   17.84
  -7  -5   6  -15.06   28.96
   7   5  -5    6.65   11.19
  -7  -5   5    7.46    2.57
   7  -5  -5   15.06    5.74
   7   5  -4   31.36   10.07
   7   5  -4   47.51   32.34
   7  -5  -4   39.31   12.21
   7   5  -3   67.08   21.40
   7   5  -3   20.41   24.42
  -7  -5   3   73.06   23.30
   7  -5  -3    0.63    6.33
  -7  -5   2  116.49   37.02
   7  -5  -2   84.57   24.50
  -7  -5   1   33.43   10.95
   7  -5  -1   20.13    8.80
   7   5   0   20.55    6.83
  -7  -5   0   23.26    7.67
  -7   5   0   39.95   13.94
  -7   5  -1   25.55    8.87
   7  -5   1   59.69   19.53
  -7   5  -2   35.23   11.65
   7  -5   2   16.44    5.74
  -7   5  -3   18.20    6.26
   7  -5   3   10.80    3.80
  -7   5  -4    7.74    2.89
   7  -5   4    7.14    2.67
  -7   5  -5    8.20    2.96
   7  -5   6    2.92    1.34
   7  -5   7   -3.98   21.68
   7   6  -9    1.72   14.54
   7   6  -8    8.06    2.67
   7   6  -8  -12.71   18.44
  -7  -6   8    5.21    1.76
  -7  -6   8  -25.94   45.79
   7  -6  -8    7.21    5.07
   7   6  -7   10.35    3.38
   7   6  -7   -9.61   23.23
  -7  -6   7   19.53    6.26
  -7  -6   7  -11.09   37.06
   7  -6  -7   14.71    6.69
   7   6  -6   13.69   22.66
  -7  -6   6    9.78    3.20
   7  -6  -6   15.06    6.69
   7   6  -5   27.38    8.76
   7   6  -5   58.53   37.09
  -7  -6   5   29.99    9.57
   7  -6  -5   48.50   13.44
   7   6  -4   23.69    7.60
   7   6  -4   12.71   24.78
  -7  -6   4   24.71    7.95
  -7  -6   4  -28.82   54.69
   7  -6  -4   55.89   16.75
   7   6  -3   36.00   11.54
   7   6  -3   57.05   46.60
  -7  -6   3   40.05   12.81
  -7  -6   3  -54.16   51.17
   7  -6  -3   15.73    8.06
   7  -6  -3   -1.34    9.50
   7   6  -2    6.26    2.22
  -7  -6   2   11.26    3.98
  -7   6   2   26.64   10.07
   7  -6  -2    7.43    7.92
   7   6  -1   20.13    6.58
  -7  -6   1   23.51    7.71
  -7   6   1   37.59   13.06
   7  -6  -1   35.19   13.55
   7   6   0    4.54    2.04
  -7  -6   0    8.24    3.41
  -7   6   0   22.49    7.67
   7   6   1    8.02    2.85
  -7   6  -1    7.18    2.96
   7  -6   1    7.81    3.13
  -7   6  -2    3.41    1.79
   7  -6   2    4.79    2.08
  -7   6  -3   16.40    5.49
   7  -6   3   18.30    6.05
   7  -6   4    2.82    1.37
  -7   6  -5    7.39    2.57
   7   7  -7   -0.84   78.34
   7  -7  -7    0.95    2.89
   7   7  -6    2.78    0.99
  -7  -7   6    2.29    0.88
  -7  -7   6   -7.25   16.54
   7  -7  -6    0.77    2.50
   7   7  -5    5.60    1.87
   7   7  -5    0.46   12.99
  -7  -7   5    7.60    2.53
  -7  -7   5  -12.95   15.70
   7  -7  -5    7.64    5.28
   7   7  -4   11.26    3.66
   7   7  -4    0.67   16.08
  -7  -7   4  -28.40 6407.00
  -7   7   4    6.41    6.58
   7  -7  -4    3.77    6.33
   7  -7  -4    7.85    6.72
   7   7  -3   11.09    3.66
   7   7  -3    0.81 1634.23
  -7  -7   3    6.09    2.15
  -7  -7   3  -14.22   30.87
   7  -7  -3   14.71    9.54
   7  -7  -3   -0.07  117.58
   7   7  -2   25.59    8.20
  -7  -7   2   38.96   12.49
  -7   7   2   32.77   10.95
   7  -7  -2   46.84   16.29
   7  -7  -2    6.79    8.06
   7   7  -1   12.42    4.08
  -7  -7   1   11.90    4.01
  -7   7   1   10.87    3.98
   7   7   0   47.41   15.24
  -7  -7   0   48.60   15.56
   7  -7   0   51.10   16.51
   7   7   1   10.17    3.59
  -7  -7  -1   18.62    6.41
  -7   7  -1   10.14    3.70
  -7   7  -2    9.68    3.38
  -7   7  -3    3.10    1.37
   7  -7   3    2.53    1.23
   7  -7   4    4.19    1.65
   7   8  -4   -0.56    7.21
  -7  -8   4    3.03    1.16
  -7  -8   4   -1.37   34.31
   7  -8  -4   -0.28   51.21
   7   8  -3   12.46    4.05
   7   8  -3    1.41   12.56
  -7  -8   3   17.95    5.77
  -7  -8   3   -4.50  373.90
  -7   8   3    9.54    3.66
   7  -8  -3   20.48    8.17
   7  -8  -3    0.60   18.44
   7   8  -2    2.25    0.95
  -7  -8   2    7.25    2.50
   7  -8  -2    7.85    3.34
   7  -8  -2   -2.85    4.29
   7   8  -1    2.67    1.13
  -7  -8   1    4.82    1.83
  -7   8   1    2.82    1.48
   7   8   0    8.41    2.82
  -7  -8   0    3.70    1.65
   7  -8   0    4.89    2.08
   7   8   1    6.72    2.43
   7  -8   1    3.13    1.48
  -8   0  10    7.14    2.53
  -8   0  10    9.01    9.57
   8   0 -10    1.62    4.08
  -8   0   8   35.37   11.47
  -8   0   8   33.08   12.35
   8   0  -8   33.43   11.12
   8   0  -8    9.50    6.79
  -8   0   6   96.50   30.87
  -8   0   6   35.05   11.37
   8   0  -6   94.85   30.48
   8   0  -6   50.93   15.03
  -8   0   4  609.03  139.72
   8   0  -4  376.08   88.90
  -8   0  -4    5.67   10.73
  -8   0  -6   10.35    7.92
   8   0   6    8.09    8.80
  -8   0  -8   -0.39    1.69
   8   0   8   76.76   25.87
   8   1 -11   -1.30   21.22
  -8  -1  11   26.18    8.38
  -8  -1  11    9.89   13.97
  -8   1  11   24.25    7.78
  -8   1  11   13.16   11.05
   8  -1 -11   15.59    5.14
   8  -1 -11   -0.42  365.56
   8   1 -10    4.15    1.76
   8   1 -10    3.03    7.07
  -8  -1  10   11.44    3.80
  -8   1  10    6.44    2.39
  -8   1  10    7.11    6.97
   8  -1 -10    3.27    1.79
   8  -1 -10    1.79    8.20
   8   1  -9   60.22   19.25
   8   1  -9   77.18   26.11
  -8  -1   9   30.79    9.92
  -8  -1   9  117.13   34.77
  -8   1   9   63.35   20.20
   8  -1  -9   54.62   17.53
   8  -1  -9   62.43   17.98
   8   1  -8   28.37   11.68
  -8  -1   8   36.32   11.72
  -8  -1   8    8.41   10.28
  -8   1   8   34.63   11.26
  -8   1   8   20.41    8.45
   8  -1  -8   29.28    9.78
   8   1  -7  189.48   60.29
  -8  -1   7  329.06   78.03
  -8  -1   7  159.60   50.82
  -8   1   7  162.74   51.74
  -8   1   7  174.46   41.78
   8  -1  -7  167.56   53.46
   8  -1  -7  266.14   61.20
   8   1  -6   62.68   20.17
   8   1  -6   76.48   21.61
  -8  -1   6   48.85   15.84
  -8  -1   6  105.48   28.61
  -8   1   6  126.49   31.04
   8  -1  -6   50.68   16.93
   8  -1  -6  103.89   25.45
   8   1  -5   45.12   15.03
   8   1  -5   58.42   18.16
  -8  -1   5   56.38   18.41
  -8   1   5   27.66    9.54
  -8   1   5   76.55   20.52
   8   1  -4   22.45    8.02
  -8  -1   4   46.84   19.29
  -8   1   4   19.67   11.47
   8  -1  -4   25.97   12.78
   8   1  -3   17.63   12.49
  -8  -1   3   14.08   11.54
  -8   1   3   18.09   10.70
   8  -1  -3   12.14    8.87
  -8   1  -3    9.33    6.44
   8  -1   3    3.24    5.28
   8  -1   4    2.43    6.09
  -8  -1  -5   -0.60   15.10
  -8   1  -5   16.68    7.74
   8  -1   5    9.96    8.69
   8   1   6   -0.88    8.69
  -8  -1  -6    1.09    5.91
  -8   1  -6   -0.21    3.80
   8   1   7    7.04   10.49
  -8  -1  -7    6.76    9.08
  -8   1  -7    6.79    3.55
   8  -1   7   20.31    8.59
  -8  -1  -8   -0.42    1.65
  -8   1  -8    0.35    5.24
   8   2 -11    7.11    2.43
   8   2 -11   -1.55   11.65
  -8  -2  11    6.23    2.11
  -8   2  11    0.35    3.41
   8  -2 -11    5.10    1.97
   8   2 -10    9.47    3.17
   8   2 -10    0.88    6.12
  -8  -2  10    3.27    1.34
  -8  -2  10   -2.22   10.17
  -8   2  10    3.70    4.58
   8  -2 -10    4.86    2.18
   8   2  -9    1.62    1.06
  -8  -2   9   -3.80    5.38
  -8   2   9    0.00    2.29
   8  -2  -9    3.52    2.08
   8  -2  -9    5.28    4.43
   8   2  -8   29.84   13.02
  -8  -2   8   24.78    8.02
  -8   2   8   64.90   17.95
   8  -2  -8   41.49   13.48
   8  -2  -8   33.96   10.87
   8   2  -7   16.40    5.70
   8   2  -7    5.98    7.11
  -8  -2   7   18.09    6.16
  -8  -2   7    4.86    8.55
  -8   2   7   15.24    6.12
   8  -2  -7   15.73    6.62
   8   2  -6  213.56   67.89
   8   2  -6   78.52   22.66
  -8  -2   6  110.93   35.30
  -8   2   6  112.97   36.32
   8  -2  -6  130.75   41.81
   8  -2  -6   60.89   16.22
   8   2  -5   73.70   23.58
   8   2  -5  100.87   30.30
  -8  -2   5  142.04   41.00
  -8  -2   5   71.20   22.70
  -8   2   5   97.56   25.23
   8  -2  -5  105.34   26.47
   8   2  -4   49.59   16.22
  -8  -2   4   78.83   25.34
  -8  -2   4  379.85   96.61
   8  -2  -4  215.32   55.25
  -8  -2   3   19.99    6.90
  -8  -2   3   27.59   18.12
  -8   2   3   38.33   17.39
   8  -2  -3   32.52   14.71
   8  -2   2    2.96    4.93
  -8   2  -3   21.47    9.12
  -8   2  -4   29.53   11.09
   8  -2   4   26.25   10.80
  -8   2  -5    4.15    4.08
   8  -2   5    6.44    6.41
  -8  -2  -6   -3.10   16.15
  -8   2  -6    9.43    4.05
   8  -2   6   13.90    6.26
   8   2   7    1.23    9.47
  -8  -2  -7    1.13    6.76
  -8   2  -7    2.78    1.97
  -8  -2  -8   -0.07    0.42
  -8   2  -8    2.75   13.69
   8   3 -11   -1.09   14.43
  -8  -3  11    4.93   26.64
   8  -3 -11    1.76    6.90
  -8  -3  10   11.16    3.62
  -8  -3  10   -6.90   13.87
  -8   3  10    8.34    2.85
  -8   3  10    2.85    4.12
   8  -3 -10    7.67    2.99
   8  -3 -10    3.73    4.22
   8   3  -9    2.22   13.76
  -8  -3   9   22.63    7.25
  -8  -3   9   -6.41   17.03
  -8   3   9   37.62   12.07
  -8   3   9   38.96   13.55
   8  -3  -9   33.26   10.80
   8   3  -8   11.65    3.91
   8   3  -8   -1.58    9.22
  -8  -3   8   20.83    6.72
  -8  -3   8   -6.48   14.32
  -8   3   8    8.69    3.45
   8  -3  -8    8.31    3.77
   8  -3  -8    7.67    4.50
   8   3  -7   31.46   10.14
   8   3  -7   71.02   23.86
  -8   3   7   39.35   13.13
  -8   3   7   62.22   17.14
   8  -3  -7   27.06    9.40
   8  -3  -7   54.59   14.46
   8   3  -6   37.59   12.18
   8   3  -6  111.00   31.29
  -8  -3   6   39.87   12.81
   8  -3  -6  105.65   25.34
   8   3  -5   22.03    7.21
   8   3  -5   12.60   11.30
  -8  -3   5   18.76   13.76
  -8  -3   5   14.89    5.10
  -8   3   5   11.97    7.04
   8  -3  -5    9.82    4.89
   8   3  -4    6.79    2.78
   8   3  -4    7.29   11.75
  -8  -3   4   17.49   18.72
  -8   3   4    4.43    7.50
   8  -3  -4    6.51    6.65
   8   3  -3   28.79    9.57
   8   3  -3   18.34   21.22
  -8  -3   3   41.07   13.62
  -8  -3   3    0.18   18.34
   8  -3  -3    9.15    9.68
   8   3  -2   11.90    4.40
  -8   3  -1    4.75    5.35
   8  -3   1    5.17    5.00
  -8   3  -2    9.54    6.41
   8  -3   2    5.63    6.41
   8  -3   3   14.78    7.46
   8  -3   4   17.10    7.92
   8  -3   5   13.09    5.46
  -8   3  -6    3.06    2.32
   8  -3   6    2.50    2.11
  -8   3  -7    2.85    1.72
   8   4 -10    8.45    2.78
   8   4 -10    0.67   32.91
  -8  -4  10    2.43    0.95
  -8  -4  10   -3.94   19.99
  -8   4  10    3.24    1.34
   8  -4 -10    2.75    1.58
   8  -4 -10    1.41    2.67
   8   4  -9    2.36    0.95
   8   4  -9   -2.25   12.99
  -8  -4   9    3.70    1.34
  -8  -4   9   -9.71   24.11
  -8   4   9    4.15    1.79
  -8   4   9   10.17    6.41
   8  -4  -9    3.24    1.97
   8   4  -8    8.41    2.85
  -8  -4   8  -19.60   31.22
  -8  -4   8   15.13    4.96
  -8   4   8   10.73    4.12
  -8   4   8   32.38   11.19
   8  -4  -8   10.31    4.01
   8  -4  -8   11.83    5.53
   8   4  -7   26.96    8.69
   8   4  -7  121.38   41.18
  -8  -4   7   21.33   35.90
  -8   4   7   79.86   21.01
   8  -4  -7   66.41   17.21
   8   4  -6   75.60   28.58
  -8  -4   6   50.96   16.29
  -8  -4   6   17.77   26.22
   8  -4  -6   50.96   13.55
   8   4  -5   26.82    8.69
  -8  -4   5   33.72   10.95
  -8  -4   5   28.96   26.71
  -8   4   5   16.01    8.17
   8  -4  -5   25.52    8.27
   8   4  -4   53.53   29.99
  -8  -4   4   72.29   23.05
  -8   4   4  140.18   37.20
   8  -4  -4   78.80   23.90
   8   4  -3   39.59   12.85
   8   4  -3   29.21   25.41
  -8  -4   3   39.84   12.85
  -8  -4   3    9.96   25.83
   8   4  -2   21.54    7.32
  -8  -4   2   44.77   14.57
   8   4  -1   12.95    4.54
  -8  -4   1   11.72    4.22
  -8   4   0    6.05    5.88
   8  -4   1    0.88    5.42
  -8   4  -2   13.73    6.97
   8  -4   2   14.18    7.43
  -8   4  -3    6.05    3.62
   8  -4   3   16.68    7.18
  -8   4  -4    9.12    3.59
   8  -4   4   16.22    6.02
  -8   4  -5    7.67    3.10
   8  -4   5    7.81    3.13
   8  -4   6   12.00    4.22
   8   5  -9    6.86    2.29
   8   5  -9   -7.81  181.85
  -8  -5   9    9.61    3.13
  -8   5   9   13.76    5.00
   8  -5  -9   13.62    5.03
   8  -5  -9   25.13    9.08
   8   5  -8   14.61    4.75
   8   5  -8    0.11   28.79
  -8  -5   8   24.25    7.78
  -8  -5   8  -47.16   49.91
  -8   5   8   10.24    3.70
   8  -5  -8   48.18   13.41
   8   5  -7   14.29   26.75
  -8  -5   7    7.36    2.50
  -8  -5   7  -48.78   42.34
  -8  -5   6    7.71    2.60
  -8  -5   6  -14.54   34.21
   8   5  -5    6.83    2.39
   8   5  -5   15.13   23.19
  -8  -5   5  -29.70   38.19
   8  -5  -5    3.98    3.94
   8   5  -4    3.38   14.18
  -8  -5   4    8.83    3.13
   8  -5  -4    6.12    6.65
   8   5  -3   29.67    9.54
   8   5  -3   32.98   35.23
  -8  -5   3   -2.43   44.06
   8   5  -2   40.40   13.02
  -8  -5   2   33.54   10.87
   8   5  -1   16.37    5.46
  -8  -5   1   18.65    6.33
  -8   5   1    2.25    5.24
   8  -5  -1    0.77    4.89
  -8  -5   0   22.38    7.36
  -8   5   0   26.75   10.42
   8  -5   0   12.14    6.72
  -8   5  -1   18.51    7.64
  -8   5  -2   14.82    5.42
   8  -5   2   21.82    8.13
  -8   5  -3    4.29    2.18
   8  -5   3   10.38    4.22
  -8   5  -4    5.17    2.25
   8  -5   4    5.84    2.64
  -8   5  -5    1.51    1.44
   8  -5   5    2.15    1.48
   8   6  -8    4.22    1.48
   8   6  -8   -8.69   18.97
  -8  -6   8    4.43    1.55
  -8  -6   8   -1.97  347.54
   8   6  -7   14.46    4.68
   8   6  -7   -4.93   17.25
  -8  -6   7   14.01    4.54
  -8  -6   7   -7.11   30.79
   8  -6  -7   12.49    6.19
   8   6  -6   11.93    3.87
   8   6  -6    0.56   16.96
  -8  -6   6    9.85    3.24
  -8  -6   6  -11.51   28.54
   8  -6  -6    6.37    5.00
   8   6  -5   20.45    6.55
   8   6  -5   60.53   40.40
  -8  -6   5  -33.82   53.11
   8  -6  -5   29.14   10.77
   8   6  -4   23.97    7.74
   8   6  -4    6.05   20.17
  -8  -6   4   17.17    5.56
   8  -6  -4   14.18    9.26
   8   6  -3   30.69    9.82
   8   6  -3   15.84   36.18
  -8  -6   3   29.77    9.61
  -8   6   3   -0.74    9.61
   8  -6  -3   -0.60    6.23
   8   6  -2   13.87    4.65
  -8  -6   2    6.76    2.43
   8  -6  -2    5.31    7.11
   8   6  -1   15.45    5.28
  -8  -6   1   16.19    5.63
  -8   6   1   11.86    6.48
   8  -6  -1   14.18    8.59
   8   6   0    4.05    1.79
  -8  -6   0    3.06    2.08
  -8   6   0   15.49    6.90
   8  -6   0   18.30    8.06
   8  -6   1   10.59    4.86
   8  -6   2    4.65    2.46
   8  -6   3    6.76    2.67
  -8   6  -4    2.46    1.37
   8   7  -6    9.22    3.03
   8   7  -6    1.02  106.57
   8  -7  -6    9.54    5.56
   8   7  -5    2.82   13.41
  -8  -7   5    3.66    1.34
  -8  -7   5   -9.50   26.85
   8  -7  -5    3.13    4.65
   8   7  -4    5.38    1.87
   8   7  -4   -1.41    5.67
  -8  -7   4    2.82    1.16
  -8  -7   4   -1.16   22.84
  -8   7   4    2.60    6.19
   8  -7  -4    1.87    4.58
   8   7  -3    3.38    1.27
   8   7  -3    1.41   20.03
  -8  -7   3    3.98    1.58
  -8  -7   3   -8.52   23.40
   8  -7  -3    5.49    7.74
   8  -7  -3   -1.09   17.56
  -8  -7   2    8.27    2.89
   8   7  -1    7.36    2.53
  -8  -7   1    9.36    3.27
  -8   7   1    9.82    4.29
   8  -7  -1    9.64    6.41
   8   7   0   51.28   16.44
  -8  -7   0   40.09   12.92
  -8   7   0   30.90   10.21
   8  -7   0   39.73   13.23
   8   7   1   13.30    4.47
  -8  -7  -1   12.11    4.15
  -8   7  -1   13.87    4.89
   8  -7   1   14.57    5.14
  -8   7  -2    7.46    2.85
   8  -7   2    7.85    2.96
  -9   0  10    7.57    2.67
  -9   0  10    2.67 3378.02
   9   0 -10    6.72    2.57
   9   0 -10   14.01    9.19
  -9   0   8   10.63    3.91
  -9   0   8   60.01   19.29
   9   0  -8   12.42    4.54
   9   0  -8   51.56   16.12
  -9   0   6   31.92   10.87
   9   0  -6   25.02    9.04
   9   0  -6   19.15    8.20
  -9   0   4  231.96   59.79
  -9   0  -6   23.58   10.49
   9   0   6   11.37    9.40
   9   1 -11   -0.53  129.02
  -9  -1  11   -1.09    9.78
  -9   1  11   10.14    3.38
  -9   1  11   26.11   15.03
   9  -1 -11    6.33    6.30
   9   1 -10    7.04    2.57
  -9  -1  10   -2.25    7.46
  -9   1  10    7.57    2.67
   9  -1 -10    4.15    1.90
   9  -1 -10    3.98    4.29
   9   1  -9   52.40   16.89
   9   1  -9  185.01   48.15
  -9  -1   9   54.59   17.46
  -9  -1   9   83.87   30.27
  -9   1   9   52.65   16.86
  -9   1   9  127.65   33.61
   9  -1  -9   70.95   22.77
   9   1  -8    4.65    2.60
   9   1  -8   17.63   10.73
  -9  -1   8    8.38    3.34
  -9  -1   8    7.67    8.17
  -9   1   8   13.58    4.72
   9  -1  -8    6.79    3.48
   9  -1  -8   12.56    6.30
   9   1  -7   77.07   21.89
  -9  -1   7   72.11   23.05
  -9  -1   7   74.08   23.97
  -9   1   7   61.80   20.13
  -9   1   7  113.61   29.88
   9   1  -6   16.47    6.30
   9   1  -6   14.54    8.45
  -9  -1   6   11.09    9.01
  -9  -1   6   15.27    5.53
  -9   1   6    9.57    4.22
  -9   1   6   11.47    6.97
   9  -1  -6   10.84    5.91
   9   1  -5   11.61    4.96
   9   1  -5   19.60   12.39
  -9  -1   5   19.74    7.39
  -9  -1   5   21.54   12.99
   9  -1  -5    7.39    6.51
   9   1  -4    7.99    3.77
   9   1  -4    0.14    3.52
  -9  -1   4    4.50    2.67
  -9  -1   4   12.95   13.34
  -9   1   4    4.01    6.48
   9  -1  -4    0.46    2.82
   9   1  -3   49.83   23.16
  -9  -1   3   41.04   19.11
  -9   1   3   21.89  243.30
   9  -1  -3   44.41   19.15
  -9   1  -4    4.82    5.38
   9  -1   4    5.14    6.72
  -9   1  -5    9.12    6.44
   9   1   6   -1.55    6.58
  -9   1  -6    3.41    5.17
   9  -1   6   -0.92    8.69
   9   1   7    5.88   10.52
  -9   1  -7    0.53    3.66
  -9  -2  11   -1.79   19.85
   9  -2 -11    0.88    2.50
   9   2 -10   -1.02    5.95
  -9  -2  10    3.10    1.23
  -9  -2  10   -3.03    7.64
  -9   2  10    8.45    6.62
   9  -2 -10    5.70    2.36
   9  -2 -10    1.23    2.67
   9   2  -9    9.54    3.41
   9   2  -9    2.99    7.21
  -9  -2   9    5.00    1.87
  -9   2   9    7.32    2.71
  -9   2   9    3.66    4.19
   9  -2  -9    7.92    3.06
   9  -2  -9   10.35    6.12
   9   2  -8    8.87    3.27
  -9  -2   8    1.62    7.88
  -9   2   8   11.58    4.33
  -9   2   8   10.14    5.74
   9  -2  -8    9.15    3.98
   9  -2  -8   14.32    6.37
   9   2  -7   30.62   10.14
   9   2  -7   13.62    8.76
  -9  -2   7   15.27    5.17
  -9  -2   7   13.80   10.03
  -9   2   7   38.22   12.67
   9  -2  -7    6.05    3.66
   9  -2  -7   18.48    7.71
   9   2  -6   50.89   16.37
   9   2  -6  148.27   39.17
  -9  -2   6  134.83   38.68
  -9   2   6  127.75   32.73
   9   2  -5   27.80    9.33
  -9  -2   5   19.67    6.65
  -9  -2   5  130.68   40.79
  -9   2   5   31.92   12.85
   9  -2  -5   42.16   13.97
   9   2  -4   13.58   13.34
  -9  -2   4   53.71   17.39
   9  -2  -4   14.57    9.75
  -9  -2   3   16.65    5.74
  -9  -2   3   96.82   36.60
  -9   2   3   66.16   24.46
   9  -2  -3   96.82   30.41
  -9   2  -2    3.98   15.77
  -9   2  -3    1.13    5.14
  -9   2  -4    7.11    6.19
   9  -2   4    5.21    6.83
   9  -2   5    2.96    7.53
  -9   2  -6    7.85    4.79
   9  -2   6   15.52    9.04
   9   3 -10    1.94    0.88
   9   3 -10   -0.60    9.40
  -9  -3  10    2.89    1.13
  -9  -3  10   -8.31   11.54
  -9   3  10    3.03    1.41
   9  -3 -10    6.62    4.96
   9   3  -9   17.53    5.70
   9   3  -9   12.35   14.68
  -9  -3   9   16.82    5.46
  -9  -3   9   -2.36   18.51
  -9   3   9   19.60    6.51
   9  -3  -9   17.03    5.91
   9  -3  -9   21.93    8.55
   9   3  -8   10.52    3.55
   9   3  -8   18.93   14.68
  -9  -3   8   -1.13   15.87
  -9   3   8    6.33    3.31
  -9   3   8   22.70    8.97
   9  -3  -8   25.30    8.94
   9   3  -7   43.39   14.01
  -9  -3   7   46.91   14.99
  -9  -3   7    0.53   10.21
  -9   3   7   30.06   10.80
   9   3  -6    7.99    3.03
  -9  -3   6    6.62    2.75
  -9  -3   6    1.34   10.17
  -9   3   6    9.96    6.05
   9   3  -5   20.38   19.15
  -9  -3   5   38.54   12.39
  -9  -3   5  129.30   43.89
  -9   3   5   11.23    7.36
   9  -3  -5   24.78    9.82
   9   3  -4   15.94    5.60
   9   3  -4    9.47   15.13
  -9  -3   4   15.94    5.70
  -9   3   4   45.12   19.57
   9  -3  -4   -0.49    3.31
   9   3  -3    9.92    3.73
   9   3  -3   12.32   23.83
  -9  -3   3   11.23   17.28
  -9   3   3    8.94    8.17
   9  -3  -3   12.85    9.71
  -9   3  -1    2.25   11.79
  -9   3  -2    3.55    5.28
   9  -3   2    0.74    5.42
   9  -3   3    9.92    7.53
   9  -3   4    3.48    6.37
   9  -3   5   27.06   10.73
   9  -3   6    9.64    4.96
   9   4 -10    1.58    7.78
  -9   4  10    3.38    4.43
   9  -4 -10    4.19    4.75
   9   4  -9    1.55    0.74
  -9  -4   9    2.04    1.02
  -9  -4   9   -2.18   20.27
  -9   4   9    3.84    2.08
  -9   4   9    1.37    3.13
   9  -4  -9    4.86    2.50
   9  -4  -9    2.85    3.20
   9   4  -8    4.75    1.83
   9   4  -8    1.87   13.41
  -9  -4   8    3.34    1.34
  -9  -4   8   -4.96  128.53
  -9   4   8    6.16    2.71
  -9   4   8    6.44    4.68
   9   4  -7   12.60   16.65
  -9  -4   7   13.23    4.36
  -9  -4   7   -9.19   29.70
  -9   4   7   20.24    9.26
   9  -4  -7   20.13    7.39
   9   4  -6   17.88    5.88
   9   4  -6   31.64   23.40
  -9  -4   6   22.10    7.25
  -9  -4   6   28.79   34.42
   9  -4  -6   30.37    9.50
   9   4  -5   13.83   21.33
  -9  -4   5   30.76    9.92
  -9  -4   5  114.27   60.18
   9   4  -4   74.26   23.72
   9   4  -4   44.06   32.62
   9  -4  -4    1.87   18.37
   9   4  -3   30.44   10.00
   9   4  -3   21.15   28.08
  -9  -4   3   32.24   10.56
  -9  -4   3   -7.00   24.00
  -9   4   3    3.31    5.21
   9  -4  -3   17.98   10.21
  -9  -4   2   26.54    8.73
  -9   4   0    8.55    7.78
   9  -4   1    4.15    5.46
  -9   4  -2   17.21    7.67
   9  -4   2    9.82    6.58
  -9   4  -3    0.99    4.01
   9  -4   3    3.38    7.07
  -9   4  -4   10.80    4.68
   9  -4   4   27.45   10.35
  -9   4  -5    4.01    2.36
   9  -4   5    6.02    3.66
   9   5  -9   11.54   23.72
  -9  -5   9  -18.97   35.51
  -9   5   9   14.22    8.02
   9  -5  -9   33.89   10.87
   9   5  -8   15.06    4.89
   9   5  -8   -6.37   21.93
  -9  -5   8   15.24    4.93
   9  -5  -8   30.34   10.35
   9   5  -7   12.07    3.98
   9   5  -7   -3.73   15.10
  -9  -5   7   12.39    4.05
  -9  -5   7  -24.25   44.10
   9  -5  -7   14.71    5.98
   9   5  -6    6.05    2.15
   9   5  -6   32.41   25.45
  -9  -5   6  -18.05   37.24
   9  -5  -6    5.28    4.19
   9   5  -5    4.08    1.69
   9   5  -5    5.03   15.27
  -9  -5   5    6.44    2.36
  -9  -5   5  -11.65 2779.97
   9   5  -4   11.51    3.80
   9   5  -4    7.60   21.89
  -9  -5   4   13.73    4.58
  -9  -5   4   -6.12   53.07
   9  -5  -4    0.42    1.90
   9   5  -3    9.61    3.38
   9   5  -3   13.58   30.09
  -9  -5   3   10.03    3.48
  -9  -5   3   -1.02   40.16
   9  -5  -3    9.12    7.32
   9   5  -2   12.53    4.26
  -9  -5   2   15.24    5.38
   9   5  -1    5.88    2.22
  -9  -5   1   10.73    3.80
  -9   5   1    1.90    5.91
   9  -5  -1   -1.20    4.01
  -9   5   0   26.22   10.63
   9  -5   0   11.90    6.76
  -9   5  -1   19.78    8.52
  -9   5  -2   11.44    5.42
   9  -5   2   17.84    9.43
  -9   5  -3    5.38    2.78
   9  -5   3   17.74    7.39
  -9   5  -4    5.98    2.60
   9  -5   4    9.43    4.15
   9   6  -7    9.71    3.20
   9   6  -7   49.13   29.21
  -9  -6   7  -10.21   33.05
   9  -6  -7   19.92    8.27
   9   6  -6    2.99    1.16
   9   6  -6    1.23   11.51
  -9  -6   6    2.39    1.16
  -9  -6   6   -0.63   34.95
   9  -6  -6    3.59    3.73
   9   6  -5   12.78    4.19
   9   6  -5   -0.63    7.78
  -9  -6   5    9.89    3.31
  -9  -6   5  -14.08   62.82
   9  -6  -5   14.46    7.92
   9   6  -4   22.28    7.14
   9   6  -4    0.53   22.03
  -9  -6   4   19.29    6.26
  -9  -6   4  -11.40   43.53
   9  -6  -4   -0.74  256.78
   9   6  -3   18.30    5.91
   9   6  -3   11.16   33.58
  -9  -6   3   28.58    9.19
  -9  -6   3    3.62   35.16
   9  -6  -3    4.61    6.37
   9   6  -2    6.72    2.43
  -9  -6   2    6.51    2.43
  -9   6   2    4.79    6.16
   9  -6  -2    0.00    5.67
  -9  -6   1   13.16    4.61
  -9   6   1    7.00    6.90
   9  -6  -1    4.22    8.17
   9   6   0    4.54    1.87
   9  -6   0    4.15    6.90
   9  -6   1    6.79    6.12
   9  -6   2    6.62    4.01
   9  -6   3    2.04    2.11
   9   7  -5   -0.74    9.75
   9  -7  -5    0.11  193.81
   9   7  -4    2.08    0.88
   9   7  -4   -1.23   10.28
  -9  -7   4    2.53    1.16
   9  -7  -4   -0.60   16.12
   9   7  -3    5.53   18.23
  -9  -7   3    0.84    0.99
  -9   7   3    1.55    5.67
   9  -7  -3   -0.42    3.41
   9   7  -2    7.36    2.50
  -9  -7   2    5.74    2.04
  -9   7   2    6.44    8.34
   9   7  -1    3.41    1.55
  -9   7   1    5.84    5.77
   9  -7  -1    5.95    7.74
   9   7   0   18.65    6.09
  -9  -7   0   13.06    4.50
  -9   7   0   11.97    5.10
   9  -7   0   18.51    8.13
 -10   0  10   16.61    5.42
 -10   0  10    1.20    6.55
  10   0 -10   15.70    5.35
  10   0 -10    5.53    5.60
 -10   0   8   24.42    7.95
 -10   0   8   41.46   16.54
  10   0  -8   23.93   11.23
 -10   0   6   17.53   10.24
  10   0  -6   12.74    5.24
  10   0  -6   13.48    8.48
 -10   0   4   74.19   27.66
  10   0  -4   26.18   16.51
 -10   0  -6   -1.44    5.70
  10   1 -10    2.75    1.55
  10   1 -10    2.75    5.74
 -10  -1  10    5.14    1.94
 -10  -1  10    2.25    7.21
 -10   1  10    5.84    2.22
 -10   1  10    3.38    5.14
  10  -1 -10    6.72    2.82
  10   1  -9   43.36   13.97
  10   1  -9   43.89   17.07
 -10  -1   9   42.73   13.73
 -10  -1   9   88.34   29.42
 -10   1   9   68.77   22.24
  10  -1  -9   82.49   22.28
  10   1  -8   26.04   11.54
 -10  -1   8    9.33    3.38
 -10  -1   8    5.31    8.09
 -10   1   8    5.21    2.53
 -10   1   8   12.92    7.85
  10   1  -7   47.09   15.31
 -10  -1   7   42.55   17.88
 -10  -1   7   60.64   19.50
 -10   1   7   28.79    9.75
 -10   1   7   59.30   19.08
  10  -1  -7   61.62   17.25
  10   1  -6    7.57    4.05
  10   1  -6   11.02   10.28
 -10  -1   6    9.29    4.12
 -10  -1   6    8.66    9.68
 -10   1   6    2.67    2.50
  10  -1  -6    3.66    4.89
  10   1  -5   39.70   13.20
 -10  -1   5   36.36   11.93
 -10  -1   5  319.21   84.64
 -10   1   5  212.54   57.68
  10   1  -4    6.58   11.72
 -10  -1   4   31.67   21.08
 -10   1   4   26.50   14.92
  10   1  -3   21.50   15.31
 -10  -1   3    4.05    9.01
  10  -1  -3   53.18   20.13
 -10   1  -4   -0.04    5.88
  10  -1   4   -0.74    5.49
 -10   1  -5    5.46    6.37
  10  -1   5    3.66    8.06
 -10  -1  -6   -1.72   11.79
  10  -1   6    0.21    9.57
  10   2 -10    4.33    1.69
  10   2 -10    1.55    7.99
 -10  -2  10    3.66    1.41
 -10   2  10    9.68    3.34
 -10   2  10    4.33    4.93
  10   2  -9    3.13    1.55
 -10  -2   9    1.16    7.67
 -10   2   9    2.01    1.65
 -10   2   9    1.87    2.89
  10  -2  -9    1.69    2.04
  10  -2  -9    5.14    4.22
  10   2  -8    6.02    7.57
 -10  -2   8   12.21    4.12
 -10  -2   8    1.83    8.97
 -10   2   8    7.43    5.63
  10  -2  -8    6.86    3.31
  10  -2  -8   17.98    7.60
  10   2  -7   14.61    4.93
  10   2  -7    7.18    7.07
 -10  -2   7   11.54    3.94
 -10  -2   7    5.31    9.01
  10  -2  -7    5.00    2.92
  10  -2  -7   10.45    5.67
  10   2  -6   58.67   18.93
 -10  -2   6   44.34   14.29
 -10  -2   6  114.77   37.69
 -10   2   6  104.53   30.27
  10  -2  -6   85.98   23.26
  10   2  -5    6.76    3.17
 -10  -2   5   13.76   16.15
  10  -2  -5    2.04   68.14
  10   2  -4   19.60    6.72
  10   2  -4    5.56   10.59
 -10  -2   4   15.17    5.31
 -10  -2   4    6.65   18.30
 -10   2   4   21.12   12.35
  10  -2  -4    0.46    6.76
 -10  -2   3   17.28   15.80
 -10   2   3   11.58    9.04
 -10   2  -3   -0.63    5.70
  10  -2   3    2.29    5.17
  10  -2   4    1.23    7.53
  10  -2   5    0.63   10.03
  10   3 -10   -2.53    9.82
  10  -3 -10    4.19    4.40
  10   3  -9    7.21    2.53
 -10  -3   9    6.33    2.25
 -10  -3   9   -5.84  347.36
 -10   3   9   28.68   10.84
  10  -3  -9    7.99    3.34
  10  -3  -9   25.20    9.75
  10   3  -8    5.88    9.78
 -10  -3   8   19.32    6.26
  10  -3  -8    6.48    2.99
  10  -3  -8   14.32    6.62
  10   3  -7   34.28   11.05
  10   3  -7   35.79   17.35
 -10  -3   7   36.88   11.83
 -10  -3   7    6.41   15.17
 -10   3   7   16.86    8.69
  10  -3  -7   29.91    9.85
  10   3  -6   10.00    3.52
  10   3  -6   10.42   11.40
 -10  -3   6    8.97    3.20
 -10  -3   6   -1.41   11.02
 -10   3   6    0.74    3.20
  10  -3  -6    4.47    4.40
  10   3  -5   58.77   18.97
  10   3  -5    4.72    9.61
 -10  -3   5   25.90    8.52
 -10  -3   5   47.76   30.02
 -10   3   5   48.43   19.64
  10  -3  -5   14.54   10.00
  10   3  -4    3.84   11.58
 -10  -3   4   11.44    4.40
 -10   3   4   20.83   12.88
  10  -3  -4    0.81    4.22
  10   3  -3   21.82    7.21
  10   3  -3  115.01   44.56
 -10  -3   3   -0.32    7.25
 -10   3   3    6.16    8.06
  10  -3  -3    8.83    8.55
  10  -3   2    0.92    5.00
 -10   3  -3   21.36    9.85
  10  -3   3   11.40    8.41
 -10   3  -4    5.53    6.44
  10  -3   4    3.87    8.41
 -10   3  -5   -0.35    4.29
  10  -3   5    5.17    8.02
  10   4  -9   -3.27   27.63
 -10  -4   9   -3.41   62.86
 -10   4   9    2.89    3.48
  10   4  -8    3.91    1.62
  10   4  -8    2.29   11.30
 -10  -4   8    0.14  136.62
 -10  -4   8    4.82    1.79
 -10   4   8    0.95    2.75
  10  -4  -8    5.46    4.19
  10   4  -7    5.07    1.94
  10   4  -7    7.32   14.25
 -10  -4   7    3.84    1.62
 -10  -4   7  -13.34   22.52
 -10   4   7    7.81    5.63
  10  -4  -7    9.82    5.03
  10   4  -6    7.25    2.60
  10   4  -6    8.34   17.28
 -10  -4   6    8.80    3.17
 -10  -4   6   -6.90   39.56
 -10   4   6   15.66    8.24
  10  -4  -6   19.18    8.20
  10   4  -5   18.37    6.12
  10   4  -5    1.23    8.17
 -10  -4   5   12.25    4.12
 -10  -4   5   19.78   46.67
 -10   4   5   15.06   10.17
  10  -4  -5    9.04    6.93
  10   4  -4   35.23   11.44
  10   4  -4   31.82   34.14
 -10  -4   4   48.32   15.66
 -10  -4   4    0.74   57.30
  10  -4  -4    2.64    5.42
  10   4  -3   25.55    8.34
 -10  -4   3   19.64    6.58
 -10  -4   3   -4.33 2841.11
  10  -4  -3   19.85   11.44
 -10  -4   2   11.65    4.01
 -10   4  -1    1.23    4.89
  10  -4   1    2.08    5.17
 -10   4  -2    7.04    6.55
  10  -4   2    2.64    7.32
 -10   4  -3    1.90    5.14
 -10   4  -4    2.01    3.94
 -10  -5   8   -7.18   29.32
 -10   5   8   14.71    8.31
  10  -5  -8   18.83    7.78
  10   5  -7   18.90    6.12
  10   5  -7    0.53  125.33
  10  -5  -7    7.39    4.89
  10   5  -6    6.41    2.32
  10   5  -6    1.48   15.17
 -10  -5   6    5.84    2.18
  10  -5  -6   12.46    6.93
  10   5  -5    5.17    1.90
  10   5  -5   -0.88   14.36
 -10  -5   5    3.24    1.44
  10  -5  -5   -0.11    2.50
  10   5  -4    9.78    3.31
  10   5  -4    3.45   21.22
 -10  -5   4   -1.69   42.66
  10   5  -3    1.79    1.37
 -10  -5   3    2.89    1.65
 -10  -5   3   -0.92   18.97
  10   5  -2    4.54    1.83
 -10  -5   1    3.06    1.51
 -10   5   1    0.56   16.89
 -10   5   0    2.60    5.98
  10  -5   0    1.83    6.33
 -10   5  -1    4.82    6.09
 -10   5  -2    6.51    6.83
  10  -5   2    1.83    7.85
 -10   5  -3    4.79    3.87
  10  -5   3    6.02    8.17
  10   6  -6    4.75   13.76
  10   6  -5   16.61    5.38
  10   6  -5   -0.46    9.12
 -10  -6   5   12.67    4.19
  10  -6  -5    2.71    4.93
  10   6  -4    8.59    2.85
  10   6  -4    2.64   16.58
 -10  -6   4   16.51   46.67
  10  -6  -4   -0.07    1.55
  10   6  -3   10.63    3.59
 -10  -6   3   11.12    3.73
 -10  -6   3    9.22   54.87
  10   6  -2    5.35    2.01
 -10  -6   2    4.65    2.15
 -10   6   2   -0.39   11.58
  10   6  -1   10.17    3.52
 -10  -6   1    7.88    2.85
 -10   6   1    7.25    7.92
  10  -6   0   -0.60    8.13
  10  -6   1    1.69    6.65
 -11   0  10    1.37    6.69
  11   0 -10   18.30    9.15
 -11   0   8    6.51    2.67
 -11   0   8    1.58    6.09
  11   0  -8    6.58    3.10
  11   0  -8    4.05    5.07
 -11   0   6   14.15    5.35
 -11   0   6   16.79   12.85
  11   0  -6   20.52    7.14
  11   0  -6    2.89   77.00
 -11   0   4   15.70   14.15
  11   1 -10    5.31    6.69
 -11   1  10    0.92    4.89
  11  -1 -10    9.29    6.23
  11   1  -9   22.28    7.32
 -11  -1   9   21.61    7.11
 -11  -1   9   18.44   12.63
 -11   1   9   25.09    8.24
  11  -1  -9   52.83   15.91
  11   1  -8    3.24    2.08
  11   1  -8    4.89    6.55
 -11  -1   8    8.73    3.10
 -11   1   8    6.86    6.93
  11  -1  -8    2.96    2.36
  11  -1  -8    8.97    5.84
  11   1  -7   18.79    6.55
  11   1  -7   37.09   16.68
 -11  -1   7   33.05   10.98
 -11  -1   7   39.31   19.32
 -11   1   7   45.61   17.14
 -11   1   7   40.16   13.09
  11  -1  -7   25.13    8.62
  11  -1  -7   32.87   13.09
  11   1  -6    5.56    2.96
 -11  -1   6    6.23    3.17
 -11  -1   6   21.36   16.26
 -11   1   6   19.00   12.07
  11  -1  -6    5.00    6.02
  11   1  -5   17.63    6.30
 -11  -1   5   16.08    5.60
 -11  -1   5  126.73   44.80
 -11   1   5   93.83   31.78
  11   1  -4   11.93   17.03
 -11  -1   4   22.24   17.91
 -11   1   4   15.34   11.26
  11  -1  -4    8.62   10.77
 -11  -1   3    0.63    5.67
 -11   1   3    1.90    5.42
 -11   1  -4    0.04   16.51
  11   2  -9    7.36    9.29
 -11  -2   9    2.04    1.27
 -11  -2   9   -1.62    7.32
 -11   2   9    3.10    1.97
  11  -2  -9    2.04    2.08
  11  -2  -9    3.77    4.08
  11   2  -8   10.80    3.73
  11   2  -8    7.11    8.59
 -11  -2   8    7.04    2.50
 -11   2   8    2.46    3.66
  11  -2  -8    5.88    3.06
  11  -2  -8    9.47    5.88
  11   2  -7    2.71    1.69
  11   2  -7    0.81    5.10
 -11  -2   7    2.75    1.65
 -11  -2   7    0.18    5.91
 -11   2   7    2.89   11.40
  11  -2  -7    5.31    4.75
  11   2  -6    0.49   20.45
 -11  -2   6    5.67    2.75
 -11  -2   6   17.91   16.29
  11  -2  -6    4.22    5.07
  11   2  -5    3.91    2.25
 -11  -2   5   18.51   18.12
  11  -2  -5   -0.14    0.84
  11   2  -4   20.69   18.41
 -11  -2   4    9.47    3.59
 -11  -2   4    1.94   17.98
 -11   2   4   37.87   18.23
  11  -2  -4    8.09    9.75
 -11  -2   3   -2.18    5.00
 -11   2   3    0.92    5.17
 -11   2  -3   -1.44   13.09
 -11   2  -4    0.00    5.88
  11  -2   4    0.14    8.38
  11   3  -9   29.88   18.69
 -11  -3   9   -1.79   72.04
  11  -3  -9   23.83    9.08
  11   3  -8   11.05    3.77
  11   3  -8   31.85   18.83
 -11  -3   8    9.19    3.13
 -11  -3   8   -5.28   10.63
 -11   3   8    6.12    2.64
 -11   3   8    4.82    4.50
  11   3  -7   19.15    6.26
  11   3  -7   12.53   12.63
 -11  -3   7   12.95   21.89
  11  -3  -7   35.76   11.79
  11   3  -6    6.79    2.82
  11   3  -6    1.13    6.55
 -11  -3   6    7.39    2.82
 -11  -3   6   -4.65   17.81
 -11   3   6   11.47    9.36
  11  -3  -6    4.79    4.86
  11   3  -5   24.28    8.09
  11   3  -5   -1.58    4.47
 -11  -3   5   18.02    6.26
 -11  -3   5    7.25 2085.14
  11  -3  -5    0.00    1.65
  11   3  -4    3.70    2.32
  11   3  -4    3.87   12.67
 -11  -3   4    3.03    1.90
 -11  -3   4   -1.41   10.59
 -11   3   4    1.06    4.58
  11  -3  -4    2.60    4.86
 -11   3   3    1.27    4.86
 -11   3  -2    3.70    9.04
 -11   3  -3    1.83    6.48
 -11   3  -4    2.04    7.00
 -11  -4   8   -4.61  445.70
 -11   4   8    2.32    3.48
  11  -4  -8    7.71    5.31
  11   4  -7    1.94    1.09
  11   4  -7    0.81    7.60
 -11   4   7    4.12    4.75
  11  -4  -7    2.46    3.45
  11   4  -6    8.31    3.03
  11   4  -6   -0.84    7.67
 -11  -4   6    5.67    2.08
 -11  -4   6   -1.62  886.54
 -11   4   6    2.57    4.01
  11  -4  -6    3.91    3.77
  11   4  -5   11.09    3.91
  11   4  -5    1.09   10.38
 -11  -4   5    8.73    3.13
 -11  -4   5  -12.21  150.42
 -11   4   5    4.61    6.02
  11  -4  -5    0.04    1.79
  11   4  -4   10.24    3.66
  11   4  -4    9.82   37.13
 -11  -4   4   -4.19   25.73
 -11  -4   4   14.15    5.03
 -11   4   4    5.56    7.29
  11  -4  -4    1.83    4.50
  11   4  -3   10.56    3.66
 -11  -4   3    6.58    2.57
 -11   4   3    0.14    4.68
 -11   4  -1    0.70    5.63
 -11   4  -2    0.88    6.48
  11  -4   2   -0.32    7.78
  11  -5  -7    8.06    5.56
  11   5  -6    0.28    8.52
 -11  -5   6    6.30    2.25
 -11  -5   6  -32.52   43.50
  11  -5  -6    2.36    3.06
  11   5  -5   10.77    3.62
  11   5  -5   -0.35   10.21
 -11  -5   5    8.34    2.85
 -11  -5   5   -0.53   24.95
 -11   5   5    0.53    3.34
  11  -5  -5    0.04    1.16
  11   5  -4    7.04    2.57
  11   5  -4   -1.83   20.62
 -11  -5   4    6.93    2.67
 -11  -5   4   -7.78  153.69
  11  -5  -4    0.92    2.78
 -11  -5   3    3.77    1.83
  11   5  -2    2.11    1.13
 -11  -5   2    0.46    1.13
 -11   5   0    1.58    6.44
  11  -5   0    0.56    5.49
  11  -5   1    0.04    6.93
  11   6  -4    4.47   15.56
 -11  -6   4   -2.82   29.70
  11  -6  -4    0.07    1.87
 -12   0   8    5.81    2.64
 -12   0   8    0.67   89.85
  12   0  -8    5.67    2.75
  12   0  -8    2.39    3.98
 -12   0   6    1.44    1.76
 -12   0   6    2.60    7.78
  12   0  -6   -0.14    3.38
  12   1  -9    3.73    5.91
 -12  -1   9    0.28    4.61
 -12   1   9    0.18    2.99
  12  -1  -9    6.05    5.88
  12   1  -8    3.17    1.94
  12   1  -8    3.24    5.56
 -12  -1   8    4.40    1.97
 -12   1   8    3.73    5.28
  12  -1  -8    1.62    1.87
  12  -1  -8    2.25    3.48
  12   1  -7   10.59    3.94
  12   1  -7   12.56    9.96
 -12  -1   7   15.94    5.81
 -12  -1   7    9.82   13.94
 -12   1   7   10.07    3.73
 -12   1   7   15.41   11.16
  12   1  -6    2.08    1.90
 -12  -1   6    2.22    1.69
 -12  -1   6    4.01   12.99
 -12   1   6    8.59   10.21
  12  -1  -6    0.18    2.53
  12   1  -5    0.81    6.62
 -12  -1   5   45.08   25.16
  12  -1  -5    0.46    2.46
  12   1  -4    0.74   11.86
 -12  -1   4    2.67    9.36
 -12   1   4   -0.77    5.56
  12  -1  -4    3.52    7.53
  12   2  -9   21.05   15.10
 -12  -2   9   -0.28    9.36
  12  -2  -9   11.86    7.53
  12   2  -8   10.42    3.62
  12   2  -8    8.69    9.43
 -12  -2   8   13.69    4.50
 -12  -2   8   -2.92    7.64
 -12   2   8    1.79    3.41
  12  -2  -8    9.19    5.46
  12   2  -7    2.01    1.58
  12   2  -7    0.56    5.31
 -12  -2   7    3.38    1.97
 -12  -2   7   -2.08    6.12
 -12   2   7    0.63    2.82
  12  -2  -7    1.76   27.94
 -12  -2   6    3.73    2.18
 -12  -2   6    3.13   12.71
  12  -2  -6    1.06    3.45
  12   2  -5    1.06    1.51
 -12  -2   5    1.02    1.72
 -12  -2   5    0.35    9.04
  12  -2  -5   -0.04    2.04
 -12  -2   4   -2.50   10.28
  12  -2  -4   27.91   14.11
 -12  -3   8   -0.21  154.89
  12  -3  -8    1.09    3.87
  12   3  -7   11.93    4.08
  12   3  -7    3.55    8.55
  12  -3  -7   14.71    7.57
  12   3  -6   -0.32    2.99
 -12  -3   6    3.55    2.01
 -12  -3   6   -0.99   12.35
 -12   3   6    3.24    6.79
  12  -3  -6    0.63    3.10
  12   3  -5    9.47    3.45
  12   3  -5   -1.69    8.87
 -12  -3   5    7.85    3.13
 -12  -3   5   -2.71   87.95
 -12   3   5   11.12    9.71
  12  -3  -5   -0.18    0.81
  12   3  -4    3.87    1.83
 -12  -3   4    1.97    1.72
 -12  -3   4   -1.55    7.46
 -12   3   4    0.92    3.48
  12  -3  -4    7.88    7.81
  12   4  -7    0.63    7.50
  12  -4  -7    0.25    2.75
  12   4  -6    0.56    4.79
 -12  -4   6    3.27    1.58
 -12  -4   6    1.90  189.17
 -12   4   6    3.94    5.03
  12  -4  -6    0.14    1.94
  12   4  -5    2.99    1.62
  12   4  -5   -0.14   10.17
 -12  -4   5    2.46    1.62
 -12  -4   5   -7.92   13.83
 -12   4   5    3.55    4.50
  12  -4  -5    0.11    1.20
  12   4  -4    3.13    1.55
  12   4  -4    1.97   16.19
 -12  -4   4   -1.44    6.86
 -12   4   4    1.44    3.62
  12  -4  -4    5.56    8.06
 -12  -4   3    2.15    1.30
 -12   4   3    0.25    3.59
  12   5  -5    0.63    7.64
 -12  -5   5    2.53   36.53
  12  -5  -5   -0.07    1.13
  12   5  -4    0.67   98.54
 -12  -5   4   -0.32   11.65
  12  -5  -4    3.59   38.01
 -13   0   8    0.70    5.63
  13   0  -8    1.48    9.19
 -13   0   6    1.27    8.31
  13   0  -6   -0.21    2.39
 -13   0   4    0.56    4.26
  13   0  -4    6.86    9.36
  13   1  -8    0.99    4.72
 -13   1   8    0.11    3.06
  13  -1  -8    0.14    2.39
  13   1  -7   -0.14    3.73
 -13  -1   7    9.19   12.18
 -13   1   7   15.70   12.00
  13   1  -6    0.67    4.01
 -13  -1   6    1.23    1.30
 -13  -1   6    0.11    6.51
  13  -1  -6   -0.11    1.23
  13   1  -5    0.14    4.05
 -13   1   5   11.86   10.77
  13  -1  -5   -0.21    1.02
  13   1  -4    8.06   11.05
 -13  -1   4   -0.39    3.91
 -13   1   4   -0.67    2.99
  13  -1  -4    3.27    6.86
  13   2  -7   -0.14    4.15
 -13  -2   7    0.63    9.54
  13  -2  -7    0.18    2.29
  13   2  -6    2.08    1.58
 -13  -2   6    2.67  206.87
 -13   2   6    1.48    5.03
  13  -2  -6   -0.18    1.27
  13   2  -5    1.44    6.16
 -13  -2   5    0.46    1.16
 -13  -2   5   -0.92    7.46
 -13   2   5   -0.25    2.60
  13  -2  -5   -0.42    1.69
  13   2  -4    7.74   12.99
 -13   2   4    0.18  107.20
  13  -2  -4    7.46    7.78
 -13  -3   6    6.26   16.01
  13  -3  -6    0.35    2.04
  13   3  -5    0.56    5.60
 -13  -3   5   -2.29   77.57
 -13   3   5    6.48    6.86
  13  -3  -5   -0.39    1.30
  13   3  -4    3.80   12.42
 -13   3   4   -0.04  121.63
  13  -3  -4    2.75    5.53
  13   4  -4    4.29   12.39
 -13  -4   4   -0.46    5.10
 -13   4   4    0.95   35.76
  13  -4  -4    1.48    4.89
 -14   0   6    0.18  349.41
  14   0  -6   -0.70    2.29
 -14   0   4    0.53    7.25
  14   1  -6    0.67    3.13
 -14   1   6    0.07    4.12
  14  -1  -6   -0.14    1.65
  14   1  -5    0.39    7.36
 -14  -1   5    0.21   58.28
 -14   1   5    1.34    6.62
  14  -1  -5    0.14    2.36
 -14  -1   4   -0.56    3.06
 -14   1   4   -0.42    2.50
  14  -1  -4    2.89    5.31
  14   2  -5    1.65    6.62
 -14  -2   5   -0.77    5.31
 -14  -2   4    0.95    4.40
  14  -2  -4    3.20    5.31
   0   0   0    0.00    0.00

_computing_structure_solution     'SHELXT 2014/5 (Sheldrick, 2014)'
;
_shelx_hkl_checksum              41926
loop_
_space_group_symop_operation_xyz
'x, y, z'
'-x, y+1/2, -z+1/2'
'-x, -y, -z'
'x, -y-1/2, z-1/2'
loop_
_atom_site_label
_atom_site_type_symbol
_atom_site_fract_x
_atom_site_fract_y
_atom_site_fract_z
_atom_site_U_iso_or_equiv
_atom_site_adp_type
_atom_site_occupancy
_atom_site_site_symmetry_order
_atom_site_calc_flag
_atom_site_refinement_flags_posn
_atom_site_refinement_flags_adp
_atom_site_refinement_flags_occupancy
_atom_site_disorder_assembly
_atom_site_disorder_group
Bi1 Bi 0.5361(3) 0.9729(3) 0.7056(3) 0.0440(12) Uani 1 1 d . . . . .
O1 O 0.132(5) 0.476(4) 0.728(3) 0.130(10) Uani 1 1 d . U . . .
H1 H 0.102407 0.402858 0.769207 0.195 Uiso 1 1 calc DR U . . .
O2 O 0.076(4) 0.271(4) 0.570(3) 0.129(10) Uani 1 1 d D U . . .
O3 O 0.404(2) 0.376(2) 0.2955(17) 0.055(3) Uani 1 1 d . U . . .
O4 O 0.467(2) 0.7247(19) 0.3407(17) 0.055(3) Uani 1 1 d . U . . .
O5 O 0.390(2) 0.921(2) 0.5308(17) 0.056(3) Uani 1 1 d . U . . .
C1 C 0.146(4) 0.407(4) 0.612(3) 0.117(10) Uani 1 1 d D U . . .
C2 C 0.217(2) 0.485(2) 0.541(2) 0.057(3) Uani 1 1 d D U . . .
C3 C 0.272(2) 0.385(2) 0.453(2) 0.055(3) Uani 1 1 d . U . . .
H3 H 0.252115 0.267524 0.437096 0.067 Uiso 1 1 calc R U . . .
C4 C 0.358(2) 0.463(2) 0.387(2) 0.053(3) Uani 1 1 d . U . . .
C5 C 0.380(3) 0.653(2) 0.398(2) 0.054(3) Uani 1 1 d . U . . .
C6 C 0.346(3) 0.750(2) 0.508(2) 0.054(3) Uani 1 1 d . U . . .
C7 C 0.256(3) 0.672(2) 0.566(2) 0.055(3) Uani 1 1 d . U . . .
H7 H 0.221689 0.741605 0.620551 0.066 Uiso 1 1 calc R U . . .
loop_
_atom_site_aniso_label
_atom_site_aniso_U_11
_atom_site_aniso_U_22
_atom_site_aniso_U_33
_atom_site_aniso_U_23
_atom_site_aniso_U_13
_atom_site_aniso_U_12
Bi1 0.077(3) 0.0252(15) 0.0361(16) -0.0019(10) 0.0266(14) -0.0070(13)
O1 0.25(3) 0.099(15) 0.061(11) -0.023(11) 0.074(15) -0.037(17)
O2 0.25(3) 0.096(15) 0.063(11) -0.009(11) 0.081(16) -0.038(17)
O3 0.116(8) 0.019(5) 0.044(5) -0.009(4) 0.047(6) -0.004(5)
O4 0.118(8) 0.020(4) 0.043(5) -0.009(4) 0.049(5) -0.005(5)
O5 0.119(8) 0.023(5) 0.044(5) -0.008(4) 0.051(5) -0.005(5)
C1 0.25(3) 0.075(15) 0.048(11) -0.020(11) 0.077(16) -0.042(17)
C2 0.117(8) 0.024(5) 0.045(5) -0.008(4) 0.048(6) -0.005(5)
C3 0.117(8) 0.020(5) 0.044(5) -0.011(4) 0.046(5) -0.005(5)
C4 0.115(8) 0.017(4) 0.044(5) -0.008(4) 0.050(5) -0.009(5)
C5 0.115(8) 0.020(4) 0.042(5) -0.011(4) 0.051(5) -0.005(5)
C6 0.116(8) 0.020(4) 0.044(5) -0.011(4) 0.052(5) -0.005(5)
C7 0.115(8) 0.022(5) 0.043(5) -0.010(4) 0.050(5) -0.005(5)
loop_
_atom_type_symbol
_atom_type_description
_atom_type_scat_dispersion_real
_atom_type_scat_dispersion_imag
_atom_type_scat_source
C C 0.0000 0.0000 'International Tables Vol C Tables 4.2.6.8 and 6.1.1.4'
H H 0.0000 0.0000 'International Tables Vol C Tables 4.2.6.8 and 6.1.1.4'
O O 0.0000 0.0000 'International Tables Vol C Tables 4.2.6.8 and 6.1.1.4'
Bi Bi 0.0000 0.0000 'International Tables Vol C Tables 4.2.6.8 and 6.1.1.4'
loop_
_geom_angle_atom_site_label_1
_geom_angle_atom_site_label_2
_geom_angle_atom_site_label_3
_geom_angle
_geom_angle_site_symmetry_1
_geom_angle_site_symmetry_3
_geom_angle_publ_flag
O5 Bi1 O3 86.6(8) . 4_576 ?
O5 Bi1 O4 92.2(8) . 4_576 ?
O3 Bi1 O4 73.9(7) 4_576 4_576 ?
O5 Bi1 O4 92.7(7) . 3_676 ?
O3 Bi1 O4 66.9(6) 4_576 3_676 ?
O4 Bi1 O4 140.0(4) 4_576 3_676 ?
C1 O1 H1 109.5 . . ?
C4 O3 Bi1 116.7(13) . 4_575 ?
C5 O4 Bi1 113.0(11) . 4_575 ?
C5 O4 Bi1 119.0(13) . 3_676 ?
Bi1 O4 Bi1 120.9(7) 4_575 3_676 ?
C6 O5 Bi1 119.2(16) . . ?
O2 C1 O1 113(3) . . ?
O2 C1 C2 126(2) . . ?
O1 C1 C2 121(3) . . ?
C1 C2 C3 121(2) . . ?
C1 C2 C7 122(2) . . ?
C3 C2 C7 116.0(18) . . ?
C2 C3 C4 122.0(17) . . ?
C2 C3 H3 119.0 . . ?
C4 C3 H3 119.0 . . ?
O3 C4 C5 116.2(17) . . ?
O3 C4 C3 123.1(16) . . ?
C5 C4 C3 119.6(17) . . ?
O4 C5 C6 118.5(17) . . ?
O4 C5 C4 118.7(17) . . ?
C6 C5 C4 118.8(16) . . ?
O5 C6 C7 125.8(16) . . ?
O5 C6 C5 116.1(17) . . ?
C7 C6 C5 117.2(18) . . ?
C6 C7 C2 122.9(16) . . ?
C6 C7 H7 118.5 . . ?
C2 C7 H7 118.5 . . ?
loop_
_geom_bond_atom_site_label_1
_geom_bond_atom_site_label_2
_geom_bond_distance
_geom_bond_site_symmetry_2
_geom_bond_publ_flag
Bi1 O5 2.16(2) . ?
Bi1 O3 2.30(2) 4_576 ?
Bi1 O4 2.315(17) 4_576 ?
Bi1 O4 2.356(19) 3_676 ?
O1 C1 1.34(3) . ?
O1 H1 0.8200 . ?
O2 C1 1.32(4) . ?
O3 C4 1.36(2) . ?
O4 C5 1.41(3) . ?
O5 C6 1.40(3) . ?
C1 C2 1.368(19) . ?
C2 C3 1.44(3) . ?
C2 C7 1.51(3) . ?
C3 C4 1.47(3) . ?
C3 H3 0.9300 . ?
C4 C5 1.47(3) . ?
C5 C6 1.47(2) . ?
C6 C7 1.46(3) . ?
C7 H7 0.9300 . ?
