#------------------------------------------------------------------------------
#$Date: 2022-09-07 01:54:13 +0300 (Wed, 07 Sep 2022) $
#$Revision: 277698 $
#$URL: file:///home/coder/svn-repositories/cod/cif/7/71/11/7711193.cif $
#------------------------------------------------------------------------------
#
# This file is available in the Crystallography Open Database (COD),
# http://www.crystallography.net/
#
# All data on this site have been placed in the public domain by the
# contributors.
#
data_7711193
loop_
_publ_author_name
'Shekhovtsov, Nikita'
'Nikolaenkova, Elena B.'
'Berezin, Alexey Sergeevich'
'Plyusnin, Victor F.'
'Vinogradova, Katerina A.'
'Naumov, Dmitry Y.'
'Pervukhina, Natalie V.'
'Tikhonov, Alexsei Ya.'
'Bushuev, Mark B.'
_publ_section_title
;
 Tuning ESIPT-coupled luminescence by expanding \p-conjugation of a proton
 acceptor moiety in ESIPT-capable zinc(II) complexes with
 1-hydroxy-1H-imidazole-based ligands
;
_journal_name_full               'Dalton Transactions'
_journal_paper_doi               10.1039/D2DT02460H
_journal_year                    2022
_chemical_formula_moiety         'C18 H14 Cl2 N4 O Zn'
_chemical_formula_sum            'C18 H14 Cl2 N4 O Zn'
_chemical_formula_weight         438.60
_space_group_crystal_system      triclinic
_space_group_IT_number           2
_space_group_name_Hall           '-P 1'
_space_group_name_H-M_alt        'P -1'
_atom_sites_solution_hydrogens   geom
_audit_creation_method           SHELXL-2017/1
_audit_update_record
;
2022-06-23 deposited with the CCDC.	2022-09-05 downloaded from the CCDC.
;
_cell_angle_alpha                73.2400(10)
_cell_angle_beta                 85.065(2)
_cell_angle_gamma                69.3580(10)
_cell_formula_units_Z            2
_cell_length_a                   7.7585(4)
_cell_length_b                   8.8124(3)
_cell_length_c                   14.2538(6)
_cell_measurement_reflns_used    3405
_cell_measurement_temperature    150(2)
_cell_measurement_theta_max      28.16
_cell_measurement_theta_min      2.81
_cell_volume                     873.11(7)
_computing_cell_refinement       'SAINT (Bruker, 2004)'
_computing_data_collection       'APEX2 (Bruker, 2004)'
_computing_data_reduction        'SAINT (Bruker, 2004)'
_computing_molecular_graphics    'SHELXTL (Bruker, 2004)'
_computing_publication_material  'SHELXTL (Bruker, 2004)'
_computing_structure_refinement  'SHELXL-2017/1 (Sheldrick, 2017)'
_computing_structure_solution    'SHELXTL (Bruker, 2004)'
_diffrn_ambient_temperature      150(2)
_diffrn_measured_fraction_theta_full 0.998
_diffrn_measured_fraction_theta_max 0.998
_diffrn_measurement_device_type  'Bruker Nonius X8Apex CCD area-detector'
_diffrn_measurement_method       '\f scans'
_diffrn_radiation_type           MoK\a
_diffrn_radiation_wavelength     0.71073
_diffrn_reflns_av_R_equivalents  0.0237
_diffrn_reflns_av_unetI/netI     0.0347
_diffrn_reflns_Laue_measured_fraction_full 0.998
_diffrn_reflns_Laue_measured_fraction_max 0.998
_diffrn_reflns_limit_h_max       9
_diffrn_reflns_limit_h_min       -9
_diffrn_reflns_limit_k_max       10
_diffrn_reflns_limit_k_min       -11
_diffrn_reflns_limit_l_max       17
_diffrn_reflns_limit_l_min       -17
_diffrn_reflns_number            6770
_diffrn_reflns_point_group_measured_fraction_full 0.998
_diffrn_reflns_point_group_measured_fraction_max 0.998
_diffrn_reflns_theta_full        25.500
_diffrn_reflns_theta_max         26.372
_diffrn_reflns_theta_min         2.570
_exptl_absorpt_coefficient_mu    1.728
_exptl_absorpt_correction_type   multi-scan
_exptl_absorpt_process_details   'SADABS (Bruker, 2004)'
_exptl_crystal_colour            yellow
_exptl_crystal_density_diffrn    1.668
_exptl_crystal_description       prism
_exptl_crystal_F_000             444
_exptl_crystal_size_max          0.250
_exptl_crystal_size_mid          0.120
_exptl_crystal_size_min          0.060
_exptl_transmission_factor_max   0.7457
_exptl_transmission_factor_min   0.6601
_refine_diff_density_max         0.594
_refine_diff_density_min         -0.244
_refine_diff_density_rms         0.072
_refine_ls_extinction_method     none
_refine_ls_goodness_of_fit_ref   1.087
_refine_ls_hydrogen_treatment    constr
_refine_ls_matrix_type           full
_refine_ls_number_parameters     236
_refine_ls_number_reflns         3561
_refine_ls_number_restraints     0
_refine_ls_restrained_S_all      1.087
_refine_ls_R_factor_all          0.0379
_refine_ls_R_factor_gt           0.0305
_refine_ls_shift/su_max          0.001
_refine_ls_shift/su_mean         0.000
_refine_ls_structure_factor_coef Fsqd
_refine_ls_weighting_details
'w=1/[\s^2^(Fo^2^)+(0.0427P)^2^+0.1438P] where P=(Fo^2^+2Fc^2^)/3'
_refine_ls_weighting_scheme      calc
_refine_ls_wR_factor_gt          0.0781
_refine_ls_wR_factor_ref         0.0808
_reflns_Friedel_coverage         0.000
_reflns_number_gt                3078
_reflns_number_total             3561
_reflns_threshold_expression     'I > 2\s(I)'
_cod_data_source_file            d2dt02460h2.cif
_cod_data_source_block           mbb_245
_cod_database_code               7711193
_shelx_shelxl_version_number     2017/1
_shelx_space_group_comment
;
The symmetry employed for this shelxl refinement is uniquely defined
by the following loop, which should always be used as a source of
symmetry information in preference to the above space-group names.
They are only intended as comments.
;
_shelx_estimated_absorpt_t_min   0.672
_shelx_estimated_absorpt_t_max   0.903
_shelx_res_file
;
TITL mbb_245 in P-1
    mbb_245.res
    created by SHELXL-2017/1 at 11:08:20 on 23-Jun-2022
CELL 0.71073 7.7585 8.8124 14.2538 73.240 85.065 69.358
ZERR 2.0000 0.0004 0.0003 0.0006 0.001 0.002 0.001
LATT 1
SFAC C H N O ZN CL
UNIT 36 28 8 2 2 4
MERG 2
OMIT 0 180
SHEL 99999.00 0.80
FMAP 2
GRID
PLAN -4 0 0
TEMP -123
SIZE 0.06 0.12 0.25
HTAB
BOND $H
CONF
L.S. 10
ACTA 51
WGHT    0.042700    0.143800
FVAR       0.14611
ZN1   5   -0.075858    0.818146    0.663365    11.00000    0.02524    0.01614 =
         0.02679   -0.00769   -0.00338   -0.00694
CL1   6    0.174581    0.871620    0.598279    11.00000    0.03239    0.02895 =
         0.03437   -0.00464   -0.00257   -0.01695
CL2   6   -0.293917    1.013754    0.716851    11.00000    0.03578    0.02199 =
         0.03859   -0.01373   -0.00295   -0.00196
N1    3    0.168573    0.324558    0.852945    11.00000    0.02046    0.01684 =
         0.02133   -0.00269   -0.00071   -0.00578
O1    4    0.269765    0.194633    0.928699    11.00000    0.03423    0.01880 =
         0.02679   -0.00246   -0.00742   -0.00666
AFIX  83
H1    2    0.296806    0.234434    0.969990    11.00000   -1.20000
AFIX   0
N2    3    0.018353    0.578195    0.762677    11.00000    0.01991    0.01900 =
         0.02127   -0.00741    0.00117   -0.00874
N3    3    0.260142    0.440308    0.995754    11.00000    0.01924    0.02610 =
         0.02001   -0.00637    0.00201   -0.00943
N4    3   -0.171724    0.690745    0.592316    11.00000    0.01905    0.01949 =
         0.02298   -0.00682    0.00148   -0.00831
C1    1    0.104537    0.299788    0.774726    11.00000    0.02302    0.02045 =
         0.02352   -0.00844    0.00349   -0.01017
C2    1    0.008025    0.460713    0.718805    11.00000    0.02020    0.01880 =
         0.02114   -0.00845    0.00302   -0.00914
C3    1    0.116042    0.492914    0.845210    11.00000    0.02131    0.01715 =
         0.02036   -0.00549    0.00296   -0.00853
C4    1    0.162978    0.556464    0.919401    11.00000    0.01783    0.02378 =
         0.02083   -0.00871    0.00415   -0.00834
C5    1    0.107172    0.732610    0.908780    11.00000    0.02662    0.02020 =
         0.02357   -0.00775    0.00070   -0.00586
AFIX  43
H5    2    0.033171    0.812551    0.854440    11.00000   -1.20000
AFIX   0
C6    1    0.163206    0.783210    0.979048    11.00000    0.03031    0.02412 =
         0.02978   -0.01404    0.00401   -0.00747
AFIX  43
H6    2    0.129805    0.900263    0.972961    11.00000   -1.20000
AFIX   0
C7    1    0.269793    0.664436    1.060421    11.00000    0.02078    0.03453 =
         0.02302   -0.01588    0.00606   -0.01000
C8    1    0.313595    0.490108    1.067917    11.00000    0.01621    0.03339 =
         0.02016   -0.00978    0.00495   -0.00924
C9    1    0.333781    0.710173    1.134909    11.00000    0.02791    0.04546 =
         0.02784   -0.02124    0.00645   -0.01530
AFIX  43
H9    2    0.307256    0.825781    1.130632    11.00000   -1.20000
AFIX   0
C10   1    0.434135    0.586828    1.213169    11.00000    0.02648    0.06224 =
         0.02465   -0.02186    0.00704   -0.02015
AFIX  43
H10   2    0.477215    0.617720    1.262813    11.00000   -1.20000
AFIX   0
C11   1    0.473768    0.415351    1.220576    11.00000    0.02087    0.05582 =
         0.02311   -0.00711    0.00013   -0.01233
AFIX  43
H11   2    0.541837    0.331753    1.275714    11.00000   -1.20000
AFIX   0
C12   1    0.415724    0.367119    1.149520    11.00000    0.02260    0.03593 =
         0.02581   -0.00581    0.00274   -0.00993
AFIX  43
H12   2    0.444311    0.250720    1.155236    11.00000   -1.20000
AFIX   0
C13   1   -0.105488    0.520042    0.630075    11.00000    0.02047    0.02012 =
         0.02223   -0.00885    0.00567   -0.00963
C14   1   -0.152755    0.415733    0.587089    11.00000    0.02497    0.02250 =
         0.02473   -0.01028    0.00518   -0.01244
AFIX  43
H14   2   -0.104476    0.296520    0.612837    11.00000   -1.20000
AFIX   0
C15   1   -0.271068    0.489001    0.506386    11.00000    0.02429    0.03205 =
         0.02687   -0.01538    0.00484   -0.01533
AFIX  43
H15   2   -0.303340    0.419984    0.475758    11.00000   -1.20000
AFIX   0
C16   1   -0.341861    0.662062    0.470605    11.00000    0.02215    0.03524 =
         0.02424   -0.00936   -0.00152   -0.01113
AFIX  43
H16   2   -0.425928    0.713821    0.416481    11.00000   -1.20000
AFIX   0
C17   1   -0.288014    0.759278    0.515138    11.00000    0.02130    0.02265 =
         0.02612   -0.00610    0.00028   -0.00765
AFIX  43
H17   2   -0.335279    0.878638    0.490012    11.00000   -1.20000
AFIX   0
C18   1    0.145334    0.127428    0.763292    11.00000    0.03999    0.01594 =
         0.03293   -0.00727   -0.00429   -0.00822
AFIX 137
H18C  2    0.245539    0.046344    0.808584    11.00000   -1.50000
H18B  2    0.182262    0.127227    0.695814    11.00000   -1.50000
H18A  2    0.034981    0.095570    0.777973    11.00000   -1.50000

AFIX   0
HKLF 4




REM  mbb_245 in P-1
REM R1 =  0.0305 for    3078 Fo > 4sig(Fo)  and  0.0379 for all    3561 data
REM    236 parameters refined using      0 restraints

END

WGHT      0.0427      0.1436

REM Instructions for potential hydrogen bonds
HTAB O1 N3
EQIV $1 -x-1, -y+2, -z+1
HTAB C16 Cl2_$1
EQIV $2 -x, -y+2, -z+1
HTAB C17 Cl1_$2
EQIV $3 x, y-1, z
HTAB C18 Cl1_$3

REM Highest difference peak  0.594,  deepest hole -0.244,  1-sigma level  0.072
Q1    1  -0.0070  0.7382  0.7213  11.00000  0.05    0.59
Q2    1   0.2559  0.2093  0.0764  11.00000  0.05    0.46
Q3    1  -0.0578  0.4827  0.6798  11.00000  0.05    0.45
Q4    1  -0.1914  0.8875  0.6761  11.00000  0.05    0.39
;
_shelx_res_checksum              70228
_shelx_hkl_file
;
  -1   0   0  195.55    5.07
  -1   0   0  205.54    5.04
   1   0   0  201.44    5.02
   1   0   0  203.32    5.08
  -2   0   0   56.45    1.52
  -2   0   0   58.60    1.52
   2   0   0   60.65    1.53
   2   0   0   56.70    1.52
  -3   0   0    3.09    0.19
   3   0   0    2.94    0.19
  -4   0   0    5.00    0.28
   4   0   0    5.18    0.28
  -5   0   0   36.51    1.12
   5   0   0   36.17    1.12
  -6   0   0    0.27    0.14
   6   0   0    0.09    0.12
  -7   0   0    3.94    0.38
   7   0   0    4.46    0.38
  -8   0   0    6.12    0.48
   8   0   0    5.98    0.47
  -9   0   0    4.59    0.48
   9   0   0    3.97    0.48
   9  -1   0    7.65    0.60
  -9   1   0    8.16    0.63
   8  -1   0   11.27    0.66
  -8   1   0   12.47    0.70
   7  -1   0    8.27    0.51
  -7   1   0    8.27    0.52
   6  -1   0    0.23    0.14
  -6   1   0    0.48    0.19
   5  -1   0    4.03    0.30
  -5   1   0    4.33    0.32
   4  -1   0   21.44    0.72
  -4   1   0   21.03    0.72
   3  -1   0   28.39    0.84
  -3   1   0   27.83    0.84
   2  -1   0    0.23    0.08
  -2   1   0    0.17    0.07
  -2   1   0    0.10    0.07
   1  -1   0   39.62    1.02
   1  -1   0   38.60    1.02
  -1   1   0   37.81    1.02
  -1   1   0   38.74    1.02
   0  -1   0   69.71    1.74
   0  -1   0   68.68    1.74
   0   1   0   70.74    1.74
   0   1   0   69.06    1.74
  -1  -1   0   13.01    0.38
  -1  -1   0   14.07    0.38
   1   1   0   14.64    0.38
   1   1   0   14.50    0.38
  -2  -1   0   42.89    1.15
   2   1   0   44.66    1.15
   2   1   0   43.26    1.15
  -3  -1   0   22.61    0.68
   3   1   0   24.44    0.69
   3   1   0   22.07    0.68
  -4  -1   0   41.87    1.19
   4   1   0   41.95    1.20
  -5  -1   0   32.89    0.99
   5   1   0   30.99    1.00
  -6  -1   0    1.24    0.20
   6   1   0    1.17    0.19
  -7  -1   0    0.06    0.15
   7   1   0    0.00    0.13
  -8  -1   0    0.58    0.22
   8   1   0    0.77    0.23
  -9  -1   0    0.05    0.22
   9   1   0    0.22    0.21
   8  -2   0    0.17    0.19
  -8   2   0    0.59    0.27
   7  -2   0    1.97    0.31
  -7   2   0    2.46    0.34
   6  -2   0    4.15    0.34
  -6   2   0    3.92    0.37
   5  -2   0   15.04    0.62
  -5   2   0   15.38    0.64
   4  -2   0   76.84    2.10
  -4   2   0   75.26    2.10
   3  -2   0   37.28    1.07
  -3   2   0   35.50    1.07
   2  -2   0    0.00    0.06
  -2   2   0   -0.10    0.06
  -2   2   0    0.02    0.07
   1  -2   0   22.78    0.64
  -1   2   0   23.66    0.65
  -1   2   0   21.71    0.64
   0  -2   0    3.13    0.12
   0  -2   0    3.17    0.12
   0  -2   0    3.19    0.12
   0   2   0    3.26    0.13
   0   2   0    2.84    0.12
  -1  -2   0   12.96    0.35
  -1  -2   0   13.43    0.35
   1   2   0   13.39    0.36
   1   2   0   13.14    0.36
  -2  -2   0   17.58    0.49
   2   2   0   16.74    0.50
   2   2   0   18.01    0.50
  -3  -2   0    2.65    0.15
   3   2   0    2.72    0.16
   3   2   0    2.38    0.16
  -4  -2   0    8.72    0.35
   4   2   0    9.63    0.37
   4   2   0    9.11    0.37
  -5  -2   0   15.42    0.55
   5   2   0   14.92    0.56
  -6  -2   0    5.73    0.34
   6   2   0    6.30    0.37
  -7  -2   0   33.19    1.10
   7   2   0   33.12    1.13
  -8  -2   0    6.64    0.45
   8   2   0    6.53    0.46
   9   2   0    1.10    0.29
  10   2   0    0.81    0.29
  -8   3   0   -0.21    0.24
   7  -3   0    0.91    0.24
  -7   3   0    0.68    0.26
   6  -3   0    4.35    0.41
  -6   3   0    3.69    0.39
   5  -3   0    1.21    0.21
  -5   3   0    0.92    0.22
   4  -3   0    0.99    0.17
  -4   3   0    0.76    0.18
   3  -3   0    1.92    0.20
  -3   3   0    1.70    0.19
   2  -3   0   37.21    1.08
  -2   3   0   40.00    1.10
  -2   3   0   37.16    1.09
   1  -3   0  185.56    4.76
  -1   3   0  188.75    4.56
  -1   3   0  195.33    4.78
  -1   3   0  186.44    4.77
   0  -3   0   58.92    1.46
   0  -3   0   58.47    1.51
   0   3   0   57.24    1.52
   0   3   0   60.50    1.53
  -1  -3   0   46.76    1.18
   1   3   0   47.86    1.22
   1   3   0   46.87    1.21
  -2  -3   0    0.25    0.04
   2   3   0    0.18    0.05
   2   3   0    0.25    0.06
  -3  -3   0    5.00    0.20
   3   3   0    5.04    0.21
   3   3   0    4.89    0.22
  -4  -3   0    0.85    0.11
   4   3   0    0.97    0.13
   4   3   0    0.73    0.11
  -5  -3   0    5.33    0.28
   5   3   0    5.50    0.30
   5   3   0    6.57    0.31
  -6  -3   0   11.45    0.47
   6   3   0   10.69    0.49
  -7  -3   0   18.33    0.69
   7   3   0   17.67    0.72
   8   3   0    8.51    0.52
   9   3   0    0.04    0.18
  10   3   0    1.06    0.29
  -7   4   0    8.32    0.62
  -6   4   0    0.31    0.23
   5  -4   0   59.50    1.76
  -5   4   0   57.26    1.78
   4  -4   0   25.36    0.88
  -4   4   0   26.62    0.92
   3  -4   0    3.36    0.24
  -3   4   0    2.67    0.25
  -3   4   0    3.19    0.16
   2  -4   0    9.78    0.40
  -2   4   0   10.35    0.43
  -2   4   0   10.77    0.31
  -2   4   0   10.81    0.43
   1  -4   0    9.48    0.34
  -1   4   0    9.18    0.36
  -1   4   0    9.45    0.36
   0  -4   0    1.80    0.11
   0  -4   0    1.90    0.12
   0   4   0    1.73    0.13
   0   4   0    1.66    0.12
   1   4   0    4.79    0.19
   1   4   0    4.54    0.18
   2   4   0    7.19    0.25
   2   4   0    7.39    0.25
  -3  -4   0   60.79    1.57
   3   4   0   63.23    1.61
   3   4   0   59.79    1.60
  -4  -4   0  126.18    3.23
   4   4   0  124.46    3.26
   4   4   0  129.56    3.26
  -5  -4   0    1.28    0.14
   5   4   0    1.49    0.17
   5   4   0    1.81    0.18
  -6  -4   0    6.01    0.31
   6   4   0    6.04    0.35
   6   4   0    6.75    0.35
  -7  -4   0    1.80    0.23
   7   4   0    1.80    0.25
   8   4   0    1.19    0.23
   9   4   0    0.25    0.20
  10   4   0    0.06    0.21
  -7   5   0    0.31    0.29
  -6   5   0    5.23    0.51
  -5   5   0    4.19    0.42
   4  -5   0    0.16    0.14
  -4   5   0    0.09    0.16
   3  -5   0    0.19    0.11
  -3   5   0    0.09    0.05
  -3   5   0    0.10    0.14
   2  -5   0    0.03    0.08
  -2   5   0    0.11    0.11
  -2   5   0   -0.03    0.09
   1  -5   0    1.47    0.15
  -1   5   0    1.34    0.16
  -1   5   0    1.33    0.16
   0  -5   0   10.70    0.35
   0  -5   0   10.33    0.34
   0   5   0   10.09    0.38
   0   5   0   11.27    0.38
   1   5   0    6.02    0.24
   2   5   0   31.94    0.87
   2   5   0   31.06    0.87
   3   5   0   78.85    1.99
   3   5   0   74.65    1.99
   4   5   0   30.86    0.87
   4   5   0   29.39    0.87
  -5  -5   0    7.61    0.30
   5   5   0    7.66    0.35
   5   5   0    8.57    0.36
  -6  -5   0   15.69    0.53
   6   5   0   14.49    0.57
   7   5   0    1.17    0.20
   8   5   0    3.75    0.36
   9   5   0    5.53    0.46
  10   5   0   -0.04    0.19
  -6   6   0    0.41    0.27
  -5   6   0    3.72    0.42
  -4   6   0    0.04    0.17
  -3   6   0    8.00    0.46
  -2   6   0    0.30    0.14
   1  -6   0   15.59    0.52
  -1   6   0   15.13    0.57
  -1   6   0   15.51    0.57
   0  -6   0   42.02    1.11
   0   6   0   41.01    1.19
   0   6   0   43.08    1.20
  -1  -6   0    3.19    0.19
   1   6   0    3.33    0.19
   1   6   0    3.29    0.19
   2   6   0    9.57    0.34
   2   6   0    9.26    0.34
   3   6   0   -0.02    0.06
   3   6   0    0.08    0.06
   4   6   0    4.93    0.24
   4   6   0    4.80    0.24
   5   6   0   30.97    0.91
   5   6   0   28.43    0.89
   6   6   0   19.51    0.69
   7   6   0    7.44    0.42
   8   6   0    2.92    0.32
   9   6   0    0.17    0.18
  10   6   0    3.43    0.42
  -5   7   0    0.59    0.28
  -4   7   0    2.09    0.33
  -3   7   0    8.67    0.52
  -2   7   0   12.79    0.58
  -1   7   0    9.56    0.45
   0   7   0    6.32    0.31
   0   7   0    6.17    0.32
  -1  -7   0    5.78    0.27
   1   7   0    5.65    0.27
   1   7   0    5.43    0.28
   2   7   0   49.58    1.36
   3   7   0   45.05    1.25
   3   7   0   45.20    1.24
   4   7   0    3.61    0.21
   4   7   0    3.32    0.20
   5   7   0    0.47    0.12
   5   7   0    0.33    0.11
   6   7   0    1.22    0.18
   7   7   0    0.59    0.16
   8   7   0    0.76    0.19
   9   7   0    0.75    0.22
  -4   8   0    0.23    0.24
  -3   8   0    0.02    0.19
  -2   8   0    1.86    0.28
  -1   8   0   15.35    0.63
   0   8   0    2.58    0.24
  -1  -8   0    2.69    0.20
   1   8   0    2.63    0.22
  -2  -8   0   17.28    0.59
   2   8   0   17.12    0.58
   2   8   0   17.58    0.58
   3   8   0    2.37    0.18
   3   8   0    2.40    0.19
   4   8   0    0.10    0.09
   4   8   0    0.12    0.08
   5   8   0    0.05    0.09
   6   8   0    2.99    0.25
   7   8   0   12.44    0.54
   8   8   0    1.10    0.21
   9   8   0    0.14    0.18
  -2   9   0   15.13    0.71
  -1   9   0   11.15    0.55
   0   9   0    0.16    0.14
   1   9   0    1.66    0.21
  -2  -9   0    0.39    0.13
   2   9   0    0.30    0.13
  -3  -9   0    0.04    0.11
   3   9   0    0.05    0.10
   4   9   0    7.80    0.34
   5   9   0   12.32    0.46
   6   9   0   13.27    0.52
   7   9   0    7.67    0.41
   8   9   0    0.04    0.13
  -1  10   0    0.73    0.22
   0  10   0    4.40    0.36
   1  10   0    8.33    0.44
   2  10   0    4.23    0.30
   3  10   0    4.80    0.29
  -4 -10   0    1.40    0.22
   4  10   0    1.22    0.16
   5  10   0    0.81    0.14
   6  10   0    0.37    0.13
   7  10   0    0.01    0.12
   2  11   0    0.21    0.14
   3  11   0    0.99    0.17
   4  11   0    0.21    0.11
   5  11   0    4.17    0.26
   4  11  -1    0.54    0.15
   3  11  -1   -0.01    0.13
   7  10  -1    2.32    0.27
   6  10  -1    7.66    0.40
   5  10  -1    7.96    0.38
   4  10  -1    3.21    0.26
   3  10  -1    1.18    0.18
   2  10  -1    4.32    0.32
   1  10  -1    2.37    0.27
   0  10  -1    6.82    0.44
   8   9  -1    0.62    0.19
   7   9  -1    2.12    0.26
   6   9  -1    9.04    0.43
   5   9  -1    0.64    0.14
   4   9  -1   -0.02    0.10
   3   9  -1   23.68    0.78
   2   9  -1   16.86    0.63
   1   9  -1    4.26    0.32
   0   9  -1    1.50    0.24
  -1   9  -1    0.36    0.18
  -2   9  -1    2.59    0.33
   9   8  -1    1.96    0.31
   8   8  -1    0.08    0.15
   7   8  -1   11.21    0.53
   6   8  -1    4.92    0.32
   5   8  -1    0.07    0.10
   4   8  -1    0.70    0.13
   3   8  -1    3.78    0.25
   2   8  -1    0.67    0.14
  -2  -8   1    0.70    0.13
   1   8  -1    2.10    0.22
  -1  -8   1    2.34    0.18
   0   8  -1    0.00    0.12
  -1   8  -1    9.11    0.48
  -2   8  -1   39.53    1.31
  -3   8  -1    4.51    0.44
  -4   8  -1    0.56    0.26
   9   7  -1    0.04    0.16
   8   7  -1    1.26    0.24
   7   7  -1    7.13    0.41
   6   7  -1   19.00    0.68
   5   7  -1    9.92    0.42
   4   7  -1    0.37    0.11
   4   7  -1    0.37    0.10
   3   7  -1    6.10    0.30
   3   7  -1    6.46    0.30
   2   7  -1   15.97    0.57
   2   7  -1   17.01    0.56
   1   7  -1   11.07    0.43
   1   7  -1   10.55    0.43
  -1  -7   1   11.40    0.39
   0   7  -1    0.16    0.11
  -1   7  -1    0.95    0.19
  -2   7  -1    7.15    0.44
  -3   7  -1    0.08    0.17
  -4   7  -1    3.36    0.39
  -5   7  -1    1.39    0.34
   9   6  -1    1.25    0.26
   8   6  -1    0.83    0.20
   7   6  -1    0.70    0.18
   6   6  -1    0.17    0.12
   5   6  -1    5.11    0.29
   5   6  -1    4.88    0.28
   4   6  -1   23.65    0.71
   4   6  -1   21.10    0.69
   3   6  -1   10.24    0.39
   3   6  -1   10.91    0.39
   2   6  -1   34.18    0.97
   2   6  -1   32.86    0.97
   1   6  -1   16.27    0.54
   1   6  -1   15.66    0.54
   0   6  -1    1.36    0.17
   0   6  -1    1.36    0.16
   0  -6   1    1.78    0.16
   0  -6   1    1.38    0.11
  -1   6  -1   10.47    0.46
  -1   6  -1   11.09    0.48
   1  -6   1   11.47    0.43
  -2   6  -1    1.77    0.23
  -3   6  -1    0.92    0.21
  -4   6  -1   13.10    0.67
  -5   6  -1    1.81    0.33
  -6   6  -1    0.39    0.29
  10   5  -1    4.34    0.47
   9   5  -1    5.02    0.48
   8   5  -1    8.03    0.48
   7   5  -1   11.53    0.53
   6   5  -1    1.93    0.22
  -6  -5   1    2.63    0.23
   5   5  -1    6.96    0.34
   5   5  -1    6.49    0.33
  -5  -5   1    6.87    0.29
   4   5  -1    0.13    0.07
   4   5  -1    0.19    0.08
  -4  -5   1    0.15    0.06
   3   5  -1    2.46    0.16
   3   5  -1    2.30    0.17
   2   5  -1    5.71    0.26
   2   5  -1    6.01    0.25
   1   5  -1    4.39    0.21
   1   5  -1    4.17    0.21
  -1  -5   1    4.02    0.17
   0   5  -1   10.55    0.39
   0   5  -1   10.05    0.39
   0  -5   1   10.12    0.36
   0  -5   1   10.25    0.31
  -1   5  -1   52.37    1.49
  -1   5  -1   54.72    1.50
   1  -5   1   52.12    1.46
  -2   5  -1   43.29    1.24
  -2   5  -1   38.95    1.22
   2  -5   1   39.95    1.19
  -3   5  -1   23.00    0.84
   3  -5   1   23.99    0.81
  -4   5  -1    1.21    0.24
  -5   5  -1    7.91    0.53
  -6   5  -1    7.69    0.59
  -7   5  -1    0.50    0.31
  10   4  -1    0.17    0.22
   9   4  -1    3.80    0.42
   8   4  -1    7.27    0.47
   7   4  -1   12.72    0.58
  -7  -4   1   13.80    0.56
   6   4  -1    9.20    0.43
  -6  -4   1    8.75    0.39
   5   4  -1    5.58    0.29
   5   4  -1    4.47    0.27
  -5  -4   1    4.90    0.25
   4   4  -1    2.48    0.18
   4   4  -1    2.50    0.19
  -4  -4   1    2.47    0.16
   3   4  -1  156.33    4.10
   3   4  -1  166.59    4.11
  -3  -4   1  162.42    4.07
   2   4  -1   58.48    1.52
   2   4  -1   57.54    1.52
  -2  -4   1   57.03    1.48
   1   4  -1    7.20    0.27
   1   4  -1    6.85    0.26
  -1  -4   1    6.62    0.23
   0   4  -1   26.74    0.79
   0   4  -1   27.78    0.80
   0  -4   1   27.24    0.71
   0  -4   1   27.94    0.78
  -1   4  -1   55.93    1.57
  -1   4  -1   59.86    1.58
   1  -4   1   57.35    1.56
  -2   4  -1    1.15    0.16
  -2   4  -1    0.93    0.15
   2  -4   1    0.95    0.14
  -3   4  -1   12.39    0.53
  -3   4  -1   12.40    0.35
   3  -4   1   12.40    0.50
  -4   4  -1    0.28    0.17
   4  -4   1    0.29    0.14
  -5   4  -1   22.75    0.88
   5  -4   1   21.11    0.83
  -6   4  -1   17.39    0.82
  -7   4  -1    0.10    0.24
  10   3  -1    4.84    0.54
   9   3  -1    0.44    0.23
   8   3  -1    2.98    0.35
   7   3  -1    0.38    0.16
  -7  -3   1    0.15    0.14
   6   3  -1    3.45    0.28
  -6  -3   1    3.81    0.26
   5   3  -1    2.25    0.21
   5   3  -1    1.88    0.20
  -5  -3   1    1.86    0.18
   4   3  -1   17.66    0.58
  -4  -3   1   17.64    0.56
   3   3  -1   85.63    2.20
   3   3  -1   82.81    2.20
  -3  -3   1   85.61    2.18
   2   3  -1   27.84    0.80
   2   3  -1   30.23    0.81
  -2  -3   1   29.93    0.79
   1   3  -1   -0.02    0.05
   1   3  -1    0.06    0.05
  -1  -3   1    0.08    0.04
   0   3  -1    5.88    0.24
   0   3  -1    6.30    0.24
   0  -3   1    5.97    0.23
  -1   3  -1   24.69    0.73
  -1   3  -1   25.31    0.73
   1  -3   1   23.90    0.72
  -2   3  -1   78.50    2.05
  -2   3  -1   73.21    2.03
  -2   3  -1   75.93    1.85
   2  -3   1   75.47    2.02
  -3   3  -1   16.23    0.60
   3  -3   1   16.72    0.59
  -4   3  -1    5.29    0.36
   4  -3   1    6.01    0.35
  -5   3  -1    4.74    0.38
   5  -3   1    4.91    0.36
  -6   3  -1    0.11    0.19
   6  -3   1    0.53    0.19
  -7   3  -1    3.56    0.43
   7  -3   1    3.98    0.44
  -8   3  -1    4.96    0.53
  10   2  -1   -0.27    0.19
   9   2  -1    1.21    0.29
   8   2  -1    9.19    0.54
  -8  -2   1    8.81    0.53
   7   2  -1   24.62    0.90
  -7  -2   1   23.31    0.86
   6   2  -1   28.20    0.96
  -6  -2   1   29.02    0.93
   5   2  -1    0.21    0.10
  -5  -2   1    0.00    0.08
   4   2  -1    3.66    0.23
   4   2  -1    3.79    0.23
  -4  -2   1    3.99    0.22
   3   2  -1    2.17    0.16
   3   2  -1    2.24    0.16
  -3  -2   1    2.24    0.15
   2   2  -1    0.35    0.06
   2   2  -1    0.26    0.07
  -2  -2   1    0.29    0.06
   1   2  -1   44.55    1.13
   1   2  -1   42.00    1.13
  -1  -2   1   43.36    1.12
  -1  -2   1   43.40    1.12
   0   2  -1   27.32    0.74
   0   2  -1   27.07    0.74
   0  -2   1   27.56    0.74
  -1   2  -1   28.45    0.81
  -1   2  -1   29.65    0.81
   1  -2   1   27.69    0.80
  -2   2  -1   30.49    0.89
  -2   2  -1   31.07    0.89
   2  -2   1   30.20    0.88
  -3   2  -1    0.03    0.10
   3  -2   1    0.29    0.10
  -4   2  -1   15.03    0.58
   4  -2   1   14.92    0.57
  -5   2  -1    5.79    0.39
   5  -2   1    5.53    0.36
  -6   2  -1    0.66    0.20
   6  -2   1    0.71    0.19
  -7   2  -1    3.18    0.38
   7  -2   1    3.35    0.38
  -8   2  -1    6.56    0.57
   8  -2   1    6.09    0.52
   9   1  -1    1.52    0.30
  -9  -1   1    2.36    0.37
   8   1  -1    1.81    0.28
  -8  -1   1    2.66    0.34
   7   1  -1    8.50    0.49
  -7  -1   1    9.56    0.51
   6   1  -1    4.83    0.34
  -6  -1   1    5.19    0.34
   5   1  -1    2.47    0.25
  -5  -1   1    2.35    0.23
   4   1  -1  107.02    2.81
  -4  -1   1  106.66    2.80
   3   1  -1   14.86    0.49
   3   1  -1   15.19    0.49
  -3  -1   1   14.36    0.48
   2   1  -1  103.91    2.73
   2   1  -1  108.86    2.73
  -2  -1   1  109.06    2.73
   1   1  -1   89.61    2.25
   1   1  -1   89.33    2.25
  -1  -1   1   88.96    2.25
   0   1  -1    4.06    0.16
   0   1  -1    4.11    0.15
   0  -1   1    3.93    0.15
  -1   1  -1    0.19    0.07
  -1   1  -1    0.19    0.06
   1  -1   1    0.18    0.06
   1  -1   1    0.25    0.06
  -2   1  -1   16.55    0.51
  -2   1  -1   15.64    0.50
   2  -1   1   15.63    0.50
  -3   1  -1   12.27    0.46
   3  -1   1   12.84    0.46
  -4   1  -1  100.83    2.75
   4  -1   1  105.97    2.77
  -5   1  -1    5.52    0.36
   5  -1   1    6.16    0.36
  -6   1  -1    3.59    0.35
   6  -1   1    3.01    0.31
  -7   1  -1    3.34    0.36
   7  -1   1    3.16    0.38
  -8   1  -1    0.29    0.23
   8  -1   1    0.07    0.17
  -9   1  -1    0.47    0.29
   9  -1   1    1.05    0.30
   9   0  -1    1.75    0.32
  -9   0   1    2.24    0.36
   8   0  -1    0.30    0.20
  -8   0   1    0.40    0.22
   7   0  -1    2.21    0.29
  -7   0   1    2.60    0.33
   6   0  -1    1.81    0.24
  -6   0   1    2.11    0.25
   5   0  -1   26.42    0.87
  -5   0   1   24.80    0.85
   4   0  -1   70.37    1.94
  -4   0   1   72.00    1.94
   3   0  -1   18.21    0.58
  -3   0   1   17.93    0.57
   2   0  -1   73.74    1.95
   2   0  -1   78.73    1.96
  -2   0   1   73.83    1.95
   1   0  -1    0.75    0.10
   1   0  -1    0.82    0.10
  -1   0   1    0.88    0.10
  -1   0   1    1.00    0.11
  -1   0  -1   89.70    2.24
   1   0   1   89.58    2.24
   1   0   1   86.74    2.24
  -2   0  -1   16.66    0.51
  -2   0  -1   17.12    0.51
   2   0   1   16.51    0.51
   2   0   1   17.41    0.51
  -3   0  -1    9.04    0.35
   3   0   1    9.43    0.36
  -4   0  -1   20.94    0.69
   4   0   1   20.65    0.69
  -5   0  -1   17.60    0.66
   5   0   1   18.73    0.67
  -6   0  -1    1.44    0.23
   6   0   1    1.52    0.23
  -7   0  -1    4.58    0.41
   7   0   1    5.77    0.42
  -8   0  -1   11.37    0.62
   8   0   1   10.06    0.61
  -9   0  -1   10.01    0.67
   9   0   1   10.90    0.67
   9  -1  -1    1.81    0.36
  -9   1   1    1.91    0.39
   8  -1  -1   16.36    0.80
  -8   1   1   17.71    0.83
   7  -1  -1    3.50    0.36
  -7   1   1    4.19    0.40
   6  -1  -1    3.96    0.33
  -6   1   1    3.70    0.35
   5  -1  -1    4.87    0.31
  -5   1   1    4.11    0.31
   4  -1  -1    5.73    0.31
  -4   1   1    5.79    0.31
   3  -1  -1    5.44    0.27
  -3   1   1    5.31    0.27
   2  -1  -1   18.00    0.55
  -2   1   1   19.09    0.56
  -2   1   1   17.69    0.55
   1  -1  -1   64.48    1.60
   1  -1  -1   61.40    1.60
  -1   1   1   62.76    1.60
  -1   1   1   60.96    1.60
   0  -1  -1  133.86    3.37
   0  -1  -1  139.30    3.36
   0  -1  -1  131.01    3.27
   0   1   1  138.71    3.36
   0   1   1  135.94    3.39
   0   1   1  132.41    3.27
  -1  -1  -1   23.62    0.62
  -1  -1  -1   24.32    0.62
   1   1   1   24.12    0.62
   1   1   1   24.04    0.62
  -2  -1  -1   16.58    0.49
   2   1   1   16.79    0.49
   2   1   1   16.98    0.49
  -3  -1  -1   39.81    1.10
   3   1   1   39.84    1.11
  -4  -1  -1    0.15    0.08
   4   1   1    0.23    0.09
  -5  -1  -1    0.32    0.11
   5   1   1    0.07    0.10
  -6  -1  -1    6.17    0.36
   6   1   1    5.49    0.36
  -7  -1  -1    7.04    0.43
   7   1   1    6.77    0.44
  -8  -1  -1    2.38    0.33
   8   1   1    3.18    0.38
  -9  -1  -1    3.06    0.43
   9   1   1    2.35    0.36
   8  -2  -1    3.05    0.39
  -8   2   1    4.52    0.48
   7  -2  -1    4.26    0.42
  -7   2   1    3.63    0.40
   6  -2  -1    2.45    0.29
  -6   2   1    2.19    0.30
   5  -2  -1    5.15    0.34
  -5   2   1    5.18    0.36
   4  -2  -1    2.15    0.22
  -4   2   1    2.83    0.26
   3  -2  -1   32.82    0.97
  -3   2   1   32.65    0.98
   2  -2  -1   16.28    0.52
  -2   2   1   15.99    0.53
  -2   2   1   17.04    0.53
   1  -2  -1    0.39    0.07
  -1   2   1    0.22    0.06
  -1   2   1    0.22    0.06
   0  -2  -1   26.17    0.66
   0  -2  -1   25.25    0.66
   0  -2  -1   26.43    0.67
   0   2   1   25.63    0.67
   0   2   1   25.06    0.67
   0   2   1   25.64    0.67
  -2  -2  -1   46.88    1.20
   2   2   1   45.85    1.21
   2   2   1   47.69    1.21
  -3  -2  -1  101.11    2.61
   3   2   1  100.55    2.61
   3   2   1  103.86    2.62
  -4  -2  -1   38.71    1.12
   4   2   1   39.79    1.14
   4   2   1   41.43    1.14
  -5  -2  -1   25.05    0.80
   5   2   1   25.21    0.82
  -6  -2  -1   21.26    0.73
   6   2   1   19.63    0.74
  -7  -2  -1    0.71    0.18
   7   2   1    0.76    0.18
  -8  -2  -1    0.78    0.22
   8   2   1    0.97    0.23
   9   2   1    0.23    0.20
  10   2   1   -0.08    0.21
  -8   3   1    2.71    0.42
   7  -3  -1    0.39    0.20
  -7   3   1    0.05    0.21
   6  -3  -1   23.15    0.90
  -6   3   1   23.30    0.93
   5  -3  -1   12.27    0.56
  -5   3   1   12.53    0.58
   4  -3  -1   16.68    0.62
  -4   3   1   15.88    0.64
   3  -3  -1   39.67    1.16
  -3   3   1   39.54    1.17
   2  -3  -1   -0.01    0.06
  -2   3   1   -0.08    0.07
  -2   3   1    0.13    0.08
   1  -3  -1  170.25    4.34
  -1   3   1  176.64    4.36
  -1   3   1  175.94    4.19
  -1   3   1  167.02    4.35
   0  -3  -1   16.04    0.44
   0  -3  -1   16.07    0.45
   0   3   1   15.76    0.45
   0   3   1   15.89    0.45
   1   3   1   16.79    0.44
   2   3   1   39.99    1.02
   2   3   1   38.76    1.02
  -3  -3  -1   43.08    1.13
   3   3   1   42.18    1.15
   3   3   1   43.93    1.15
  -4  -3  -1    6.75    0.28
   4   3   1    7.00    0.30
   4   3   1    7.30    0.30
  -5  -3  -1    2.64    0.19
   5   3   1    2.64    0.22
   5   3   1    2.86    0.21
  -6  -3  -1    2.86    0.23
   6   3   1    2.36    0.24
  -7  -3  -1   13.61    0.56
   7   3   1   12.75    0.59
   8   3   1   27.64    1.02
   9   3   1    2.34    0.34
  10   3   1    0.07    0.24
  -7   4   1    0.92    0.31
  -6   4   1    0.10    0.21
   5  -4  -1    7.04    0.44
  -5   4   1    7.82    0.50
   4  -4  -1    1.58    0.21
  -4   4   1    1.42    0.22
   3  -4  -1   -0.10    0.08
  -3   4   1   -0.07    0.10
   2  -4  -1   21.05    0.67
  -2   4   1   20.90    0.70
  -2   4   1   22.75    0.71
  -2   4   1   21.51    0.60
   1  -4  -1   76.15    2.03
  -1   4   1   77.53    2.05
  -1   4   1   79.06    1.94
  -1   4   1   79.15    2.05
   0  -4  -1  119.84    2.99
   0  -4  -1  119.03    2.94
   0   4   1  121.23    3.02
   0   4   1  116.27    3.02
   1   4   1   45.68    1.14
   1   4   1   43.14    1.14
   2   4   1    6.51    0.20
   2   4   1    6.46    0.21
  -3  -4  -1   14.81    0.39
   3   4   1   13.24    0.42
   3   4   1   14.17    0.43
  -4  -4  -1   43.28    1.14
   4   4   1   42.60    1.18
   4   4   1   42.43    1.18
  -5  -4  -1    3.92    0.21
   5   4   1    3.84    0.24
   5   4   1    4.29    0.24
  -6  -4  -1    0.20    0.10
   6   4   1    0.08    0.10
   6   4   1    0.17    0.11
  -7  -4  -1   38.21    1.17
   7   4   1   38.45    1.23
   8   4   1   10.81    0.56
   9   4   1    1.50    0.28
  10   4   1    1.21    0.29
  -7   5   1    0.36    0.29
  -6   5   1    0.90    0.29
  -5   5   1   14.39    0.70
   4  -5  -1   25.26    0.88
  -4   5   1   24.45    0.91
   3  -5  -1    5.53    0.32
  -3   5   1    6.06    0.37
  -3   5   1    5.79    0.24
   2  -5  -1    0.59    0.11
  -2   5   1    0.62    0.08
  -2   5   1    0.64    0.14
  -2   5   1    0.71    0.14
   1  -5  -1   18.08    0.55
  -1   5   1   16.24    0.57
  -1   5   1   18.11    0.58
   0  -5  -1    7.56    0.29
   0  -5  -1    7.60    0.26
   0   5   1    7.82    0.29
   0   5   1    7.64    0.29
  -1  -5  -1   28.76    0.82
   1   5   1   29.18    0.80
   1   5   1   30.10    0.80
   2   5   1   17.75    0.49
   2   5   1   17.58    0.50
   3   5   1   33.16    0.88
   3   5   1   31.65    0.87
   4   5   1   22.33    0.67
   4   5   1   22.88    0.67
  -5  -5  -1    2.53    0.15
   5   5   1    2.49    0.20
   5   5   1    2.72    0.19
  -6  -5  -1    2.34    0.18
   6   5   1    2.77    0.22
   6   5   1    1.95    0.21
   7   5   1    5.18    0.35
   8   5   1    0.65    0.19
   9   5   1   -0.02    0.16
  10   5   1    1.93    0.34
  -6   6   1    1.55    0.35
  -5   6   1    4.75    0.45
  -4   6   1   25.45    0.96
  -3   6   1    0.09    0.15
  -2   6   1   18.29    0.67
   1  -6  -1    6.01    0.26
  -1   6   1    5.96    0.30
  -1   6   1    5.60    0.31
   0  -6  -1   13.49    0.44
   0   6   1   13.05    0.46
   0   6   1   13.67    0.47
  -1  -6  -1   32.16    0.90
   1   6   1   31.21    0.88
   1   6   1   32.44    0.89
   2   6   1   20.38    0.59
   2   6   1   21.14    0.59
   3   6   1    5.87    0.23
   3   6   1    6.37    0.23
   4   6   1   13.19    0.44
   4   6   1   13.68    0.44
   5   6   1    0.34    0.10
   5   6   1    0.30    0.10
   6   6   1   13.40    0.52
   7   6   1   21.12    0.77
   8   6   1    0.92    0.22
   9   6   1    0.31    0.19
  10   6   1   -0.05    0.18
  -5   7   1    0.18    0.23
  -4   7   1    4.20    0.43
  -3   7   1    3.96    0.37
  -2   7   1   26.68    0.92
  -1   7   1    8.49    0.41
   0   7   1    4.23    0.26
   0   7   1    4.44    0.25
  -1  -7  -1    6.01    0.29
   1   7   1    6.17    0.26
   1   7   1    5.68    0.26
  -2  -7  -1   13.52    0.50
   2   7   1   13.79    0.45
   2   7   1   14.29    0.44
   3   7   1   49.07    1.32
   3   7   1   50.30    1.33
   4   7   1    3.91    0.20
   4   7   1    3.48    0.19
   5   7   1    0.05    0.08
   5   7   1    0.21    0.09
   6   7   1   17.88    0.63
   7   7   1    7.49    0.40
   8   7   1    3.68    0.36
   9   7   1    0.21    0.18
  -4   8   1    4.52    0.47
  -3   8   1    4.65    0.43
  -2   8   1    3.58    0.34
  -1   8   1    0.20    0.14
   0   8   1    0.51    0.13
  -1  -8  -1    0.12    0.10
   1   8   1    0.06    0.07
   1   8   1    0.09    0.09
  -2  -8  -1   29.47    0.90
   2   8   1   29.85    0.84
   2   8   1   28.52    0.85
   3   8   1   23.28    0.69
   3   8   1   23.99    0.69
   4   8   1    1.53    0.14
   4   8   1    1.86    0.16
   5   8   1    0.46    0.11
   6   8   1    0.06    0.10
   7   8   1    2.98    0.28
   8   8   1    7.54    0.45
   9   8   1   -0.04    0.16
  -3   9   1   -0.02    0.20
  -2   9   1    0.11    0.19
  -1   9   1    6.73    0.42
   0   9   1    6.25    0.36
   1   9   1    5.95    0.32
  -2  -9  -1    6.76    0.35
   2   9   1    6.27    0.31
  -3  -9  -1    6.03    0.36
   3   9   1    6.15    0.27
   4   9   1    2.89    0.18
   5   9   1    2.44    0.19
   6   9   1    4.63    0.28
   7   9   1    2.26    0.24
   8   9   1    0.41    0.16
  -1  10   1    4.20    0.38
   0  10   1    3.61    0.33
   1  10   1    2.96    0.27
   2  10   1    6.10    0.32
  -3 -10  -1    0.80    0.18
   3  10   1    0.87    0.13
  -4 -10  -1    4.43    0.35
   4  10   1    4.75    0.23
   5  10   1    8.22    0.34
   6  10   1    5.13    0.28
   7  10   1    4.53    0.30
   1  11   1    7.86    0.43
   2  11   1    7.51    0.38
   3  11   1    1.16    0.15
   4  11   1    1.97    0.17
   5  11   1    0.12    0.09
   6  11   1    1.47    0.16
   6  10  -2    1.77    0.23
   5  10  -2   10.27    0.48
   4  10  -2    9.43    0.45
   3  10  -2   -0.05    0.12
   2  10  -2    0.52    0.17
   1  10  -2    0.90    0.21
   0  10  -2    0.13    0.18
   8   9  -2    1.61    0.26
   7   9  -2    7.16    0.43
   6   9  -2    3.65    0.31
   5   9  -2    1.26    0.19
   4   9  -2    0.98    0.18
   3   9  -2    4.79    0.32
   2   9  -2    9.32    0.46
   1   9  -2    2.01    0.26
   0   9  -2    5.30    0.39
  -1   9  -2    1.49    0.26
  -2   9  -2    0.38    0.21
   8   8  -2    0.27    0.18
   7   8  -2    0.66    0.18
   6   8  -2    0.65    0.17
   5   8  -2    0.83    0.16
   4   8  -2    0.13    0.11
   3   8  -2    6.63    0.35
   2   8  -2   26.62    0.88
   1   8  -2   13.93    0.57
   0   8  -2    0.10    0.14
  -1   8  -2    0.30    0.16
  -2   8  -2    2.95    0.34
  -3   8  -2    4.96    0.47
   9   7  -2    0.54    0.21
   8   7  -2    0.39    0.18
   7   7  -2    0.07    0.14
   6   7  -2   15.67    0.62
   5   7  -2   30.28    0.95
   4   7  -2    1.96    0.21
   3   7  -2    0.94    0.15
   3   7  -2    0.64    0.13
   2   7  -2    3.02    0.24
   2   7  -2    3.11    0.23
   1   7  -2    6.64    0.34
  -1  -7   2    6.39    0.27
   0   7  -2   29.93    0.97
  -1   7  -2    4.95    0.35
  -2   7  -2    9.29    0.52
  -3   7  -2    9.35    0.56
  -4   7  -2    0.10    0.23
  -5   7  -2    1.43    0.35
   9   6  -2    2.47    0.33
   8   6  -2    0.66    0.19
   7   6  -2    4.07    0.33
   6   6  -2   30.57    1.00
   5   6  -2   11.87    0.48
   4   6  -2    3.47    0.25
   4   6  -2    4.38    0.25
   3   6  -2   18.32    0.64
   3   6  -2   20.94    0.66
   2   6  -2   23.03    0.72
   2   6  -2   22.10    0.72
   1   6  -2   41.41    1.24
   1   6  -2   45.00    1.25
   0   6  -2    4.11    0.26
   0   6  -2    3.14    0.25
   0  -6   2    4.16    0.23
   0  -6   2    4.02    0.15
  -1   6  -2    0.14    0.13
   1  -6   2    0.01    0.09
  -2   6  -2    1.46    0.24
  -3   6  -2    0.25    0.17
  -4   6  -2    3.16    0.36
  -5   6  -2   11.37    0.68
  -6   6  -2    1.75    0.39
  10   5  -2    2.69    0.40
   9   5  -2    0.64    0.23
   8   5  -2    0.55    0.20
   7   5  -2    0.70    0.18
   6   5  -2    1.48    0.20
   5   5  -2    4.32    0.28
   5   5  -2    4.23    0.27
  -5  -5   2    4.84    0.25
   4   5  -2   54.94    1.62
   4   5  -2   63.44    1.65
  -4  -5   2   60.25    1.59
   3   5  -2   24.16    0.73
   3   5  -2   23.51    0.73
  -3  -5   2   23.87    0.68
   2   5  -2    9.87    0.38
   2   5  -2    9.68    0.38
  -2  -5   2   10.12    0.33
   1   5  -2    3.01    0.20
   1   5  -2    2.60    0.19
  -1  -5   2    2.60    0.15
   0   5  -2    3.65    0.23
   0   5  -2    4.19    0.24
   0  -5   2    3.53    0.21
   0  -5   2    3.87    0.15
  -1   5  -2   77.81    2.18
  -1   5  -2   83.02    2.19
   1  -5   2   80.09    2.16
  -2   5  -2    0.73    0.17
   2  -5   2    0.92    0.16
  -3   5  -2    8.37    0.47
   3  -5   2    8.91    0.44
  -4   5  -2    6.95    0.47
  -5   5  -2    9.01    0.59
  -6   5  -2    0.46    0.27
  10   4  -2    2.73    0.41
   9   4  -2    1.53    0.29
   8   4  -2    0.66    0.20
   7   4  -2   15.56    0.66
   6   4  -2   32.69    1.07
  -6  -4   2   34.22    1.04
   5   4  -2    4.56    0.27
   5   4  -2    3.93    0.27
  -5  -4   2    3.59    0.23
   4   4  -2    0.38    0.10
   4   4  -2    0.46    0.11
  -4  -4   2    0.35    0.08
   3   4  -2    3.37    0.20
   3   4  -2    3.37    0.20
  -3  -4   2    3.27    0.17
   2   4  -2    0.19    0.07
   2   4  -2    0.25    0.08
  -2  -4   2    0.24    0.06
   1   4  -2    4.75    0.23
   1   4  -2    4.94    0.23
  -1  -4   2    4.70    0.20
   0   4  -2   10.58    0.40
   0   4  -2   11.35    0.41
   0  -4   2   11.02    0.39
  -1   4  -2   52.93    1.49
  -1   4  -2   55.46    1.49
   1  -4   2   51.61    1.47
  -2   4  -2   46.98    1.40
   2  -4   2   49.34    1.38
  -3   4  -2    7.64    0.41
   3  -4   2    8.29    0.40
  -4   4  -2    0.73    0.20
   4  -4   2    0.70    0.17
  -5   4  -2   11.59    0.61
   5  -4   2   10.37    0.55
  -6   4  -2   18.54    0.86
  -7   4  -2    1.96    0.37
  10   3  -2    2.82    0.43
   9   3  -2   -0.12    0.19
   8   3  -2    3.09    0.35
   7   3  -2   26.28    0.93
  -7  -3   2   24.69    0.88
   6   3  -2    1.79    0.22
  -6  -3   2    2.30    0.23
   5   3  -2    6.13    0.33
  -5  -3   2    6.84    0.32
   4   3  -2    8.24    0.34
   4   3  -2    7.48    0.34
  -4  -3   2    7.78    0.32
   3   3  -2   51.36    1.33
   3   3  -2   46.20    1.32
  -3  -3   2   48.17    1.31
   2   3  -2   74.76    1.90
   2   3  -2   71.82    1.91
  -2  -3   2   71.83    1.88
   1   3  -2   33.73    0.96
   1   3  -2   35.01    0.97
  -1  -3   2   35.37    0.94
   0   3  -2    0.57    0.10
   0   3  -2    0.74    0.10
   0  -3   2    0.84    0.10
  -1   3  -2    8.92    0.36
  -1   3  -2    9.48    0.36
   1  -3   2    8.76    0.34
  -2   3  -2   13.04    0.49
   2  -3   2   13.07    0.48
  -3   3  -2    8.78    0.42
   3  -3   2    9.14    0.41
  -4   3  -2   20.41    0.76
   4  -3   2   19.77    0.73
  -5   3  -2    5.48    0.41
   5  -3   2    5.31    0.37
  -6   3  -2    0.84    0.25
   6  -3   2    0.65    0.20
  -7   3  -2    0.11    0.23
   7  -3   2   -0.08    0.16
  -8   3  -2    1.12    0.33
  10   2  -2    3.29    0.46
   9   2  -2    0.21    0.21
   8   2  -2    0.23    0.18
  -8  -2   2    0.33    0.20
   7   2  -2   -0.11    0.13
  -7  -2   2   -0.02    0.13
   6   2  -2    3.18    0.30
  -6  -2   2    2.91    0.28
   5   2  -2    6.90    0.36
  -5  -2   2    7.58    0.35
   4   2  -2    3.35    0.22
  -4  -2   2    3.20    0.21
   3   2  -2   29.64    0.84
   3   2  -2   27.72    0.83
  -3  -2   2   28.66    0.82
   2   2  -2   45.13    1.17
   2   2  -2   41.48    1.16
  -2  -2   2   42.77    1.15
   1   2  -2   -0.05    0.05
   1   2  -2    0.00    0.06
  -1  -2   2   -0.07    0.05
   0   2  -2  184.76    4.51
   0   2  -2  177.31    4.50
   0  -2   2  174.71    4.50
  -1   2  -2   35.04    1.00
  -1   2  -2   36.46    1.01
   1  -2   2   36.74    1.00
  -2   2  -2   37.99    1.11
   2  -2   2   39.81    1.11
  -3   2  -2   32.77    1.00
   3  -2   2   32.82    0.99
  -4   2  -2    6.02    0.35
   4  -2   2    6.20    0.35
  -5   2  -2    1.19    0.21
   5  -2   2    1.36    0.22
  -6   2  -2    8.52    0.51
   6  -2   2    7.94    0.48
  -7   2  -2    2.07    0.34
   7  -2   2    1.87    0.30
  -8   2  -2    4.35    0.49
   8  -2   2    3.68    0.43
   9   1  -2   10.65    0.64
  -9  -1   2    9.98    0.63
   8   1  -2   10.89    0.61
  -8  -1   2   10.42    0.59
   7   1  -2    3.78    0.38
  -7  -1   2    3.03    0.33
   6   1  -2    8.26    0.44
  -6  -1   2    8.20    0.43
   5   1  -2    2.15    0.22
  -5  -1   2    2.68    0.24
   4   1  -2   23.03    0.76
  -4  -1   2   24.60    0.76
   3   1  -2   12.58    0.42
   3   1  -2   11.68    0.42
  -3  -1   2   11.19    0.41
   2   1  -2  925.22   23.97
   2   1  -2 1000.00   23.96
  -2  -1   2  942.16   23.96
   1   1  -2    9.14    0.31
   1   1  -2    9.15    0.30
  -1  -1   2    9.81    0.31
  -1  -1   2    9.05    0.30
   0   1  -2  292.00    7.44
   0   1  -2  290.54    7.44
   0  -1   2  300.24    7.63
   0  -1   2  312.18    7.53
  -1   1  -2   76.94    1.83
  -1   1  -2   74.51    1.96
   1  -1   2   75.30    1.96
  -2   1  -2   17.22    0.55
   2  -1   2   17.01    0.54
  -3   1  -2   35.28    1.02
   3  -1   2   34.18    1.02
  -4   1  -2   30.81    0.97
   4  -1   2   31.26    0.97
  -5   1  -2   85.51    2.35
   5  -1   2   83.39    2.35
  -6   1  -2    3.88    0.36
   6  -1   2    3.90    0.38
  -7   1  -2    1.62    0.29
   7  -1   2    1.50    0.26
  -8   1  -2    8.09    0.57
   8  -1   2    7.60    0.55
  -9   1  -2    5.44    0.56
   9  -1   2    5.30    0.55
   9   0  -2    0.00    0.20
  -9   0   2    0.20    0.25
   8   0  -2    1.69    0.29
  -8   0   2    2.35    0.34
   7   0  -2    7.44    0.47
  -7   0   2    8.31    0.50
   6   0  -2    5.99    0.39
  -6   0   2    6.14    0.39
   5   0  -2    0.32    0.12
  -5   0   2    0.26    0.13
   4   0  -2   29.08    0.91
  -4   0   2   29.53    0.90
   3   0  -2   57.50    1.56
  -3   0   2   57.61    1.56
   2   0  -2  748.67   19.68
   2   0  -2  810.34   19.66
  -2   0   2  826.62   19.67
  -2   0   2  746.83   19.62
   1   0  -2  128.70    3.28
   1   0  -2  130.34    3.28
  -1   0   2  127.84    3.27
  -1   0   2  133.85    3.28
   0   0  -2   11.57    0.34
   0   0   2   11.33    0.34
   0   0   2   12.20    0.35
  -1   0  -2    8.07    0.26
  -1   0  -2    7.61    0.26
   1   0   2    7.69    0.26
  -2   0  -2    1.68    0.13
   2   0   2    1.68    0.13
   2   0   2    1.88    0.14
  -3   0  -2   19.80    0.63
   3   0   2   19.65    0.63
  -4   0  -2   39.21    1.15
   4   0   2   39.23    1.16
  -5   0  -2   11.98    0.50
   5   0   2   11.11    0.50
  -6   0  -2    0.27    0.15
   6   0   2   -0.07    0.12
  -7   0  -2    1.43    0.26
   7   0   2    1.53    0.26
  -8   0  -2   -0.25    0.18
   8   0   2   -0.09    0.15
  -9   0  -2    4.72    0.50
   9   0   2    3.49    0.46
   9  -1  -2    1.71    0.36
  -9   1   2    1.82    0.38
   8  -1  -2    0.02    0.17
  -8   1   2    0.07    0.22
   7  -1  -2    2.42    0.32
  -7   1   2    2.61    0.35
   6  -1  -2    0.00    0.12
  -6   1   2   -0.04    0.14
   5  -1  -2    2.75    0.26
  -5   1   2    2.75    0.27
   4  -1  -2   30.65    0.96
  -4   1   2   30.67    0.96
   3  -1  -2   72.42    1.93
  -3   1   2   71.62    1.93
   2  -1  -2   33.66    0.97
  -2   1   2   33.99    0.97
  -2   1   2   37.05    0.98
   1  -1  -2   46.24    1.23
   1  -1  -2   46.96    1.23
  -1   1   2   49.09    1.24
  -1   1   2   46.31    1.24
   0  -1  -2   52.81    1.35
   0  -1  -2   55.14    1.37
   0   1   2   52.00    1.35
   0   1   2   54.44    1.38
   0   1   2   56.22    1.38
  -1  -1  -2   85.48    2.13
   1   1   2   83.59    2.13
   1   1   2   84.04    2.13
  -2  -1  -2   76.45    1.99
   2   1   2   78.79    1.99
   2   1   2   76.50    1.99
  -3  -1  -2    2.53    0.17
   3   1   2    2.81    0.17
   3   1   2    2.50    0.17
  -4  -1  -2   15.92    0.54
   4   1   2   15.65    0.55
  -5  -1  -2   34.77    1.07
   5   1   2   35.76    1.09
  -6  -1  -2    0.12    0.13
   6   1   2    0.10    0.11
  -7  -1  -2   10.28    0.53
   7   1   2   10.75    0.56
  -8  -1  -2    9.32    0.55
   8   1   2    9.26    0.57
   9   1   2    2.87    0.39
   8  -2  -2    3.12    0.41
  -8   2   2    2.71    0.40
   7  -2  -2   14.07    0.70
  -7   2   2   14.37    0.72
   6  -2  -2    8.25    0.47
  -6   2   2    8.00    0.48
   5  -2  -2    1.03    0.19
  -5   2   2    1.15    0.21
   4  -2  -2    5.89    0.32
  -4   2   2    5.22    0.33
   3  -2  -2    9.18    0.37
  -3   2   2    8.53    0.38
   2  -2  -2   23.70    0.71
  -2   2   2   22.88    0.71
  -2   2   2   24.97    0.72
   1  -2  -2   30.65    0.84
  -1   2   2   30.02    0.84
  -1   2   2   31.57    0.84
   0  -2  -2   22.03    0.58
   0  -2  -2   22.39    0.60
   0  -2  -2   22.11    0.58
   0   2   2   21.71    0.58
   0   2   2   21.85    0.59
   0   2   2   22.02    0.60
   1   2   2   91.46    2.28
   1   2   2   91.69    2.28
  -2  -2  -2    8.94    0.27
   2   2   2    8.64    0.28
   2   2   2    8.93    0.28
  -3  -2  -2   15.94    0.49
   3   2   2   16.81    0.51
   3   2   2   15.86    0.50
  -4  -2  -2   36.57    1.06
   4   2   2   36.96    1.08
   4   2   2   39.69    1.09
  -5  -2  -2   11.05    0.44
   5   2   2   10.77    0.45
  -6  -2  -2   10.32    0.46
   6   2   2   10.06    0.47
  -7  -2  -2   11.39    0.53
   7   2   2   11.28    0.56
  -8  -2  -2    2.48    0.32
   8   2   2    3.52    0.40
   9   2   2    0.08    0.19
  10   2   2   -0.02    0.22
  -8   3   2    1.86    0.38
   7  -3  -2   22.42    0.93
  -7   3   2   22.53    0.97
   6  -3  -2   -0.04    0.14
  -6   3   2    0.09    0.19
   5  -3  -2   34.72    1.11
  -5   3   2   32.31    1.11
   4  -3  -2   16.67    0.63
  -4   3   2   16.90    0.65
   3  -3  -2   22.70    0.72
  -3   3   2   21.31    0.73
   2  -3  -2   55.61    1.55
  -2   3   2   56.23    1.57
  -2   3   2   61.01    1.58
   1  -3  -2   20.92    0.60
  -1   3   2   21.57    0.62
  -1   3   2   20.73    0.59
  -1   3   2   20.02    0.61
   0  -3  -2   33.19    0.85
   0  -3  -2   33.47    0.88
   0   3   2   32.67    0.87
   0   3   2   33.16    0.88
   0   3   2   33.19    0.87
  -1  -3  -2   18.91    0.55
   2   3   2   33.88    0.89
   2   3   2   35.09    0.89
  -3  -3  -2  143.06    3.53
   3   3   2  135.76    3.55
   3   3   2  142.53    3.56
  -4  -3  -2  143.35    3.70
   4   3   2  142.81    3.72
   4   3   2  149.81    3.72
  -5  -3  -2   20.12    0.65
   5   3   2   21.34    0.68
   5   3   2   19.29    0.67
  -6  -3  -2    2.06    0.21
   6   3   2    1.94    0.23
  -7  -3  -2    2.21    0.25
   7   3   2    1.40    0.21
   8   3   2   10.11    0.56
   9   3   2    4.56    0.44
  10   3   2    0.25    0.26
  -7   4   2    7.70    0.60
  -6   4   2   18.32    0.83
   5  -4  -2    9.54    0.50
  -5   4   2   10.16    0.55
   4  -4  -2    5.56    0.34
  -4   4   2    4.86    0.36
   3  -4  -2    1.16    0.16
  -3   4   2    1.10    0.17
   2  -4  -2    2.35    0.17
  -2   4   2    2.12    0.19
  -2   4   2    1.66    0.13
  -2   4   2    2.39    0.19
   1  -4  -2   34.69    0.98
  -1   4   2   37.23    1.01
  -1   4   2   35.58    1.01
  -1   4   2   36.20    0.96
   0  -4  -2    6.72    0.21
   0  -4  -2    6.65    0.26
   0   4   2    7.09    0.24
   0   4   2    6.51    0.24
  -1  -4  -2    1.04    0.12
   1   4   2    1.03    0.06
   1   4   2    0.90    0.06
   3   4   2   60.88    1.55
   3   4   2   59.12    1.55
  -4  -4  -2    4.86    0.20
   4   4   2    5.12    0.23
   4   4   2    4.79    0.23
  -5  -4  -2   25.43    0.76
   5   4   2   26.77    0.80
   5   4   2   24.40    0.79
  -6  -4  -2   10.24    0.41
   6   4   2    9.82    0.45
   6   4   2   10.25    0.45
  -7  -4  -2    2.51    0.24
   7   4   2    1.97    0.24
   8   4   2   10.41    0.55
   9   4   2    0.36    0.20
  10   4   2    0.01    0.21
  -7   5   2    0.04    0.26
  -6   5   2    0.53    0.25
  -5   5   2    2.90    0.36
   4  -5  -2    3.94    0.31
  -4   5   2    4.18    0.26
  -4   5   2    4.70    0.38
   3  -5  -2    2.22    0.22
  -3   5   2    1.87    0.23
  -3   5   2    2.18    0.16
   2  -5  -2    0.29    0.09
  -2   5   2    0.26    0.11
  -2   5   2    0.27    0.11
   1  -5  -2   23.42    0.69
  -1   5   2   24.56    0.73
  -1   5   2   22.72    0.72
   0  -5  -2  119.49    3.01
   0   5   2  121.96    3.08
   0   5   2  120.28    3.08
  -1  -5  -2   10.49    0.38
   1   5   2   10.95    0.32
   1   5   2   10.33    0.32
   3   5   2    1.28    0.09
   3   5   2    1.17    0.09
   4   5   2    5.67    0.23
   4   5   2    5.21    0.23
  -5  -5  -2    4.59    0.20
   5   5   2    5.33    0.26
   5   5   2    4.34    0.25
  -6  -5  -2    2.61    0.19
   6   5   2    2.73    0.22
   6   5   2    3.04    0.25
   7   5   2    5.30    0.36
   8   5   2    6.45    0.43
   9   5   2    3.79    0.41
  10   5   2    0.87    0.27
  -6   6   2    1.88    0.36
  -5   6   2    2.18    0.34
  -4   6   2    0.63    0.22
  -3   6   2    3.06    0.30
  -2   6   2   -0.01    0.12
   1  -6  -2    1.69    0.15
  -1   6   2    1.37    0.17
  -1   6   2    1.77    0.18
   0  -6  -2   10.04    0.38
   0   6   2   10.01    0.36
   0   6   2    9.69    0.37
  -1  -6  -2    0.06    0.08
   1   6   2    0.02    0.05
   1   6   2    0.10    0.05
   2   6   2   51.66    1.33
   3   6   2   63.68    1.66
   3   6   2   66.75    1.67
   4   6   2   38.93    1.08
   4   6   2   40.67    1.08
   5   6   2   15.54    0.51
   5   6   2   14.08    0.50
   6   6   2    0.00    0.09
   7   6   2    4.84    0.34
   8   6   2    0.69    0.19
   9   6   2    0.25    0.18
  10   6   2    4.62    0.49
  -5   7   2    2.28    0.36
  -4   7   2    9.03    0.57
  -3   7   2    8.99    0.51
  -2   7   2    5.15    0.36
  -1   7   2   20.04    0.69
   0   7   2    2.39    0.20
   0   7   2    2.96    0.20
  -1  -7  -2   10.75    0.42
   1   7   2   10.38    0.37
   1   7   2   10.69    0.37
  -2  -7  -2   11.29    0.45
   2   7   2   12.32    0.37
   2   7   2   11.90    0.37
   3   7   2    0.35    0.06
   3   7   2    0.32    0.06
   4   7   2    0.88    0.10
   4   7   2    1.00    0.10
   5   7   2    0.33    0.09
   5   7   2    0.29    0.09
   6   7   2   16.74    0.59
   7   7   2   24.00    0.83
   8   7   2    0.57    0.18
   9   7   2    1.29    0.25
  -4   8   2    0.27    0.23
  -3   8   2    1.58    0.28
  -2   8   2   24.14    0.88
  -1   8   2   23.86    0.82
   0   8   2    0.45    0.13
  -1  -8  -2    1.63    0.19
   1   8   2    1.76    0.17
   1   8   2    1.88    0.15
  -2  -8  -2   -0.12    0.09
   2   8   2    0.14    0.07
   2   8   2   -0.03    0.06
  -3  -8  -2    0.68    0.15
   3   8   2    0.51    0.08
   3   8   2    0.60    0.08
   4   8   2    0.13    0.07
   4   8   2    0.14    0.07
   5   8   2    0.30    0.09
   5   8   2    0.19    0.08
   6   8   2    5.06    0.28
   7   8   2   24.28    0.82
   8   8   2   16.86    0.69
   9   8   2    4.32    0.41
  -3   9   2    0.20    0.21
  -2   9   2    2.62    0.31
  -1   9   2    1.13    0.21
   0   9   2    1.79    0.21
  -1  -9  -2    2.87    0.25
   1   9   2    2.24    0.20
  -2  -9  -2   10.21    0.46
   2   9   2   10.38    0.37
   2   9   2   10.00    0.38
  -3  -9  -2   33.46    1.06
   3   9   2   33.62    0.93
   3   9   2   34.59    0.92
   4   9   2   20.66    0.60
   4   9   2   21.18    0.60
   5   9   2    0.08    0.08
   6   9   2    3.78    0.24
   7   9   2    1.60    0.21
   8   9   2    8.39    0.45
  -1  10   2    2.37    0.29
   0  10   2    6.59    0.38
   1  10   2    1.17    0.17
   2  10   2    0.17    0.10
  -3 -10  -2    2.87    0.29
   3  10   2    2.86    0.17
  -4 -10  -2    1.37    0.23
   4  10   2    1.40    0.12
   5  10   2    8.63    0.31
   6  10   2   11.14    0.41
   7  10   2    6.07    0.33
   8  10   2    0.99    0.19
   1  11   2    1.74    0.22
   2  11   2    4.96    0.29
   3  11   2    0.09    0.08
  -5 -11  -2    3.99    0.39
   6  11   2    2.28    0.17
   6  10  -3    0.50    0.18
   5  10  -3    0.80    0.19
   4  10  -3    0.86    0.20
   3  10  -3    2.38    0.28
   2  10  -3    2.53    0.30
   1  10  -3    5.25    0.43
   7   9  -3    4.60    0.38
   6   9  -3    6.22    0.40
   5   9  -3    8.93    0.46
   4   9  -3   10.88    0.51
   3   9  -3    2.67    0.28
   2   9  -3    2.94    0.30
   1   9  -3    0.18    0.16
   0   9  -3    3.29    0.35
  -1   9  -3    0.30    0.20
  -2   9  -3    6.81    0.55
   8   8  -3    0.01    0.16
   7   8  -3   -0.08    0.14
   6   8  -3    1.71    0.24
   5   8  -3    2.61    0.26
   4   8  -3    0.31    0.14
   3   8  -3    3.39    0.29
   2   8  -3   22.41    0.80
   1   8  -3   19.07    0.73
   0   8  -3    3.82    0.34
  -1   8  -3    0.59    0.20
  -2   8  -3    0.67    0.22
  -3   8  -3    0.18    0.22
   9   7  -3    6.42    0.50
   8   7  -3    0.75    0.21
   7   7  -3    0.80    0.20
   6   7  -3   -0.05    0.12
   5   7  -3    8.64    0.43
   4   7  -3    2.32    0.23
   3   7  -3    1.19    0.18
   2   7  -3    8.11    0.41
   1   7  -3   10.62    0.48
  -1  -7   3   10.29    0.35
   0   7  -3    0.31    0.15
  -1   7  -3    4.89    0.36
  -2   7  -3    1.12    0.22
  -3   7  -3    6.56    0.50
  -4   7  -3    5.24    0.50
   9   6  -3    0.09    0.19
   8   6  -3    2.77    0.32
   7   6  -3    7.55    0.45
   6   6  -3   26.70    0.92
   5   6  -3   14.89    0.58
   4   6  -3    0.15    0.10
   4   6  -3    0.30    0.11
   3   6  -3   10.62    0.45
   3   6  -3   10.86    0.45
   2   6  -3    0.70    0.13
   2   6  -3    0.83    0.16
  -2  -6   3    0.81    0.11
   1   6  -3    0.36    0.12
  -1  -6   3    0.39    0.09
   0   6  -3    0.32    0.13
   0   6  -3    0.53    0.15
   0  -6   3    0.51    0.12
  -1   6  -3    0.58    0.16
  -2   6  -3   15.48    0.66
  -3   6  -3   15.74    0.71
  -4   6  -3    4.00    0.42
  -5   6  -3    4.20    0.47
   9   5  -3    1.53    0.30
   8   5  -3    1.42    0.26
   7   5  -3    0.87    0.20
   6   5  -3    1.51    0.22
   5   5  -3   28.62    0.91
   5   5  -3   24.28    0.86
  -5  -5   3   28.39    0.84
   4   5  -3   -0.08    0.09
   4   5  -3    0.01    0.08
  -4  -5   3   -0.01    0.07
   3   5  -3   47.06    1.35
   3   5  -3   47.79    1.36
  -3  -5   3   48.63    1.30
   2   5  -3    9.97    0.41
   2   5  -3   10.54    0.42
  -2  -5   3   10.20    0.36
   1   5  -3    0.33    0.11
   1   5  -3    0.18    0.09
  -1  -5   3    0.38    0.09
   0   5  -3   34.01    1.06
   0   5  -3   36.96    1.07
   0  -5   3   35.98    1.04
   0  -5   3   34.98    0.89
  -1   5  -3   24.74    0.84
  -1   5  -3   26.01    0.85
   1  -5   3   25.61    0.82
  -2   5  -3   12.59    0.55
   2  -5   3   12.55    0.52
  -3   5  -3   -0.12    0.14
   3  -5   3   -0.07    0.11
  -4   5  -3    0.67    0.23
  -5   5  -3   15.91    0.78
  -6   5  -3   10.49    0.68
  10   4  -3    1.26    0.31
   9   4  -3    2.42    0.34
   8   4  -3    1.07    0.23
   7   4  -3    2.52    0.29
   6   4  -3    4.46    0.33
  -6  -4   3    4.89    0.31
   5   4  -3    7.03    0.35
   5   4  -3    6.01    0.34
  -5  -4   3    6.54    0.32
   4   4  -3   13.57    0.52
   4   4  -3   15.05    0.53
  -4  -4   3   14.04    0.49
   3   4  -3   29.27    0.83
   3   4  -3   25.77    0.82
  -3  -4   3   25.91    0.79
   2   4  -3   25.10    0.75
   2   4  -3   23.48    0.74
  -2  -4   3   23.80    0.71
   1   4  -3   17.49    0.58
   1   4  -3   16.72    0.57
  -1  -4   3   17.93    0.55
   0   4  -3    3.01    0.21
   0   4  -3    2.80    0.21
   0  -4   3    2.98    0.20
  -1   4  -3   28.24    0.86
  -1   4  -3   26.50    0.85
   1  -4   3   26.74    0.84
  -2   4  -3   22.51    0.78
   2  -4   3   22.32    0.75
  -3   4  -3    8.81    0.46
   3  -4   3    8.87    0.44
  -4   4  -3    0.98    0.23
   4  -4   3    1.53    0.24
  -5   4  -3    4.21    0.41
   5  -4   3    4.10    0.39
  -6   4  -3    0.77    0.27
  -7   4  -3    0.49    0.29
  10   3  -3    1.10    0.32
   9   3  -3    0.28    0.21
   8   3  -3    0.50    0.20
   7   3  -3   22.23    0.84
  -7  -3   3   21.12    0.80
   6   3  -3   19.47    0.75
  -6  -3   3   20.79    0.72
   5   3  -3    1.04    0.17
  -5  -3   3    1.12    0.16
   4   3  -3    0.04    0.07
   4   3  -3    0.03    0.08
  -4  -3   3    0.02    0.07
   3   3  -3    4.77    0.25
   3   3  -3    4.45    0.25
  -3  -3   3    4.82    0.23
   2   3  -3    8.42    0.32
   2   3  -3    7.77    0.32
  -2  -3   3    7.78    0.30
   1   3  -3   34.47    1.01
   1   3  -3   35.88    1.01
  -1  -3   3   36.11    0.99
   0   3  -3   36.85    1.07
   0   3  -3   38.68    1.08
   0  -3   3   38.00    1.07
  -1   3  -3   51.06    1.46
  -1   3  -3   54.80    1.47
   1  -3   3   52.00    1.45
  -2   3  -3   76.86    2.11
   2  -3   3   77.77    2.09
  -3   3  -3    1.42    0.21
   3  -3   3    1.55    0.20
  -4   3  -3   20.52    0.79
   4  -3   3   21.65    0.78
  -5   3  -3    3.12    0.34
   5  -3   3    3.42    0.33
  -6   3  -3    0.45    0.24
   6  -3   3    0.66    0.22
  -7   3  -3    7.69    0.59
   7  -3   3    7.54    0.53
  -8   3  -3    0.51    0.30
   9   2  -3    2.07    0.36
   8   2  -3    1.54    0.27
  -8  -2   3    1.41    0.26
   7   2  -3    7.09    0.44
  -7  -2   3    6.46    0.42
   6   2  -3   28.67    0.94
  -6  -2   3   25.53    0.90
   5   2  -3    0.72    0.15
  -5  -2   3    0.88    0.15
   4   2  -3    3.65    0.25
  -4  -2   3    3.80    0.23
   3   2  -3   17.63    0.59
   3   2  -3   19.38    0.60
  -3  -2   3   18.55    0.59
   2   2  -3   64.21    1.63
   2   2  -3   60.75    1.62
  -2  -2   3   57.69    1.60
   1   2  -3   26.88    0.78
   1   2  -3   27.61    0.77
  -1  -2   3   25.92    0.76
   0   2  -3   21.01    0.62
   0   2  -3   19.60    0.61
   0  -2   3   19.76    0.61
  -1   2  -3    0.72    0.12
  -1   2  -3    0.73    0.12
   1  -2   3    0.81    0.12
  -2   2  -3   10.72    0.42
  -2   2  -3   10.47    0.29
   2  -2   3   10.90    0.41
  -3   2  -3   19.75    0.69
   3  -2   3   20.10    0.68
  -4   2  -3   15.88    0.64
   4  -2   3   16.80    0.63
  -5   2  -3    7.42    0.45
   5  -2   3    8.29    0.45
  -6   2  -3   14.10    0.67
   6  -2   3   12.97    0.63
  -7   2  -3    3.46    0.41
   7  -2   3    3.36    0.39
  -8   2  -3    0.08    0.25
   8  -2   3    0.49    0.25
   9   1  -3    0.84    0.27
  -9  -1   3    0.86    0.27
   8   1  -3    4.40    0.45
  -8  -1   3    4.96    0.45
   7   1  -3    0.10    0.16
  -7  -1   3   -0.09    0.13
   6   1  -3    0.59    0.16
  -6  -1   3    0.57    0.16
   5   1  -3   17.30    0.65
  -5  -1   3   17.41    0.64
   4   1  -3  176.48    4.53
  -4  -1   3  174.79    4.52
   3   1  -3   57.87    1.55
  -3  -1   3   55.82    1.54
   2   1  -3   10.52    0.38
   2   1  -3   11.82    0.39
  -2  -1   3   10.43    0.37
   1   1  -3    0.93    0.11
   1   1  -3    0.85    0.11
  -1  -1   3    0.93    0.11
   0   1  -3  162.68    4.07
   0   1  -3  159.77    4.07
   0  -1   3  160.38    4.07
  -1   1  -3  123.36    3.27
  -1   1  -3  134.90    3.28
   1  -1   3  126.15    3.27
  -2   1  -3   20.42    0.63
   2  -1   3   19.48    0.62
  -3   1  -3    6.97    0.33
   3  -1   3    6.88    0.33
  -4   1  -3    9.51    0.43
   4  -1   3    9.60    0.43
  -5   1  -3    4.18    0.33
   5  -1   3    4.06    0.32
  -6   1  -3    0.11    0.17
   6  -1   3    0.01    0.13
  -7   1  -3    0.07    0.19
   7  -1   3   -0.11    0.15
  -8   1  -3    7.02    0.60
   8  -1   3    7.00    0.53
  -9   1  -3    6.83    0.62
   9  -1   3    5.93    0.58
   9   0  -3    0.62    0.27
  -9   0   3    0.83    0.30
   8   0  -3    3.92    0.41
  -8   0   3    3.92    0.41
   7   0  -3   11.14    0.60
  -7   0   3   12.10    0.60
   6   0  -3    4.27    0.34
  -6   0   3    4.47    0.34
   5   0  -3    8.64    0.42
  -5   0   3    7.80    0.40
   4   0  -3    7.66    0.37
  -4   0   3    8.10    0.37
   3   0  -3    9.24    0.37
  -3   0   3    8.55    0.36
   2   0  -3    4.60    0.22
  -2   0   3    4.30    0.22
   1   0  -3   47.86    1.24
   1   0  -3   45.92    1.24
  -1   0   3   48.10    1.24
  -1   0   3   45.04    1.24
   0   0  -3   28.10    0.79
   0   0   3   28.34    0.79
   0   0   3   29.80    0.79
  -1   0  -3  199.07    5.17
  -1   0  -3  212.23    5.18
  -1   0  -3  205.81    4.99
   1   0   3  209.86    5.18
   1   0   3  202.74    5.17
   1   0   3  207.42    5.05
  -2   0  -3    0.42    0.09
   2   0   3    0.20    0.07
   2   0   3    0.22    0.09
  -3   0  -3    4.58    0.24
   3   0   3    4.01    0.24
  -4   0  -3    3.86    0.25
  -5   0  -3   12.34    0.52
   5   0   3   12.06    0.52
  -6   0  -3   15.71    0.66
   6   0   3   15.77    0.66
  -7   0  -3    1.33    0.25
   7   0   3    0.71    0.20
  -8   0  -3    1.85    0.32
   8   0   3    1.02    0.27
  -9   0  -3    5.00    0.51
   9   0   3    4.60    0.53
   9  -1  -3    0.68    0.29
  -9   1   3    0.56    0.29
   8  -1  -3   12.57    0.69
  -8   1   3   12.75    0.71
   7  -1  -3    5.43    0.43
  -7   1   3    5.21    0.44
   6  -1  -3    0.43    0.17
  -6   1   3    0.15    0.15
   5  -1  -3    1.45    0.20
  -5   1   3    1.81    0.23
   4  -1  -3   24.03    0.79
  -4   1   3   24.50    0.80
   3  -1  -3  141.76    3.65
  -3   1   3  141.09    3.66
   2  -1  -3    7.66    0.31
  -2   1   3    8.61    0.32
  -2   1   3    7.73    0.31
   1  -1  -3  165.32    4.24
  -1   1   3  165.64    4.25
  -1   1   3  175.23    4.25
   0  -1  -3   26.63    0.72
   0   1   3   27.10    0.72
   0   1   3   26.23    0.73
  -1  -1  -3   13.42    0.40
  -1  -1  -3   12.36    0.39
   1   1   3   13.57    0.40
   1   1   3   13.39    0.40
   1   1   3   12.85    0.39
  -2  -1  -3    8.52    0.30
   2   1   3    8.94    0.30
   2   1   3    8.33    0.30
  -3  -1  -3    5.60    0.26
   3   1   3    6.40    0.27
   3   1   3    5.67    0.26
  -4  -1  -3    2.96    0.21
   4   1   3    2.80    0.21
  -5  -1  -3   55.96    1.61
   5   1   3   57.69    1.64
  -6  -1  -3   14.39    0.60
  -7  -1  -3    2.74    0.31
   7   1   3    2.91    0.34
  -8  -1  -3    9.87    0.58
   8   1   3   10.48    0.60
   9   1   3   -0.08    0.18
   8  -2  -3    0.33    0.21
  -8   2   3    0.66    0.27
   7  -2  -3    0.63    0.22
  -7   2   3    0.73    0.25
   6  -2  -3    3.21    0.33
  -6   2   3    3.76    0.36
   5  -2  -3    2.98    0.30
  -5   2   3    2.62    0.28
   4  -2  -3   18.04    0.66
  -4   2   3   18.16    0.66
   3  -2  -3   97.82    2.58
  -3   2   3   97.42    2.59
   2  -2  -3    1.85    0.15
  -2   2   3    2.23    0.17
  -2   2   3    2.02    0.17
   1  -2  -3   59.33    1.55
  -1   2   3   62.13    1.56
  -1   2   3   56.93    1.56
   0  -2  -3   50.32    1.29
   0  -2  -3   49.56    1.28
   0   2   3   49.54    1.28
   0   2   3   48.51    1.28
   0   2   3   50.64    1.28
  -1  -2  -3   52.83    1.37
  -1  -2  -3   53.96    1.36
  -1  -2  -3   53.76    1.36
   1   2   3   52.92    1.37
   1   2   3   53.74    1.37
  -2  -2  -3   66.35    1.70
   2   2   3   67.62    1.71
   2   2   3   64.96    1.71
  -3  -2  -3    3.97    0.19
   3   2   3    4.28    0.21
   3   2   3    4.22    0.20
  -4  -2  -3    3.74    0.21
   4   2   3    4.04    0.23
   4   2   3    3.25    0.21
  -5  -2  -3    4.60    0.27
   5   2   3    4.89    0.29
  -6  -2  -3    3.60    0.27
   6   2   3    3.35    0.28
  -7  -2  -3   11.89    0.55
   7   2   3   11.25    0.57
  -8  -2  -3   10.41    0.57
   8   2   3   10.10    0.58
   9   2   3    6.33    0.52
  10   2   3    1.83    0.36
  -8   3   3   11.43    0.73
   7  -3  -3    3.00    0.39
  -7   3   3    2.95    0.40
   6  -3  -3    2.84    0.33
  -6   3   3    1.96    0.29
   5  -3  -3    0.30    0.15
  -5   3   3    0.23    0.16
   4  -3  -3    1.34    0.19
  -4   3   3    1.49    0.22
   3  -3  -3    2.47    0.20
  -3   3   3    2.39    0.22
   2  -3  -3    0.30    0.08
  -2   3   3    0.20    0.09
  -2   3   3    0.16    0.09
   1  -3  -3   14.46    0.45
  -1   3   3   14.87    0.47
  -1   3   3   14.10    0.46
  -1   3   3   14.73    0.46
   0  -3  -3  122.17    3.03
   0  -3  -3  120.75    3.05
   0   3   3  121.35    3.02
   0   3   3  124.96    3.07
   0   3   3  120.01    3.07
  -1  -3  -3   47.59    1.26
   1   3   3   48.13    1.22
   1   3   3   48.60    1.22
   2   3   3   22.68    0.61
   2   3   3   22.15    0.61
  -3  -3  -3   24.29    0.68
   3   3   3   25.10    0.70
   3   3   3   24.33    0.70
  -4  -3  -3  103.57    2.65
   4   3   3  106.00    2.68
   4   3   3   98.63    2.67
  -5  -3  -3    0.19    0.09
   5   3   3    0.21    0.09
   5   3   3    0.28    0.10
  -6  -3  -3    1.84    0.20
   6   3   3    1.40    0.21
  -7  -3  -3   10.73    0.50
   7   3   3   11.26    0.54
   8   3   3    3.46    0.37
   9   3   3   -0.07    0.16
  10   3   3    1.33    0.33
  -7   4   3    3.42    0.43
  -6   4   3    2.46    0.36
   5  -4  -3    6.20    0.41
  -5   4   3    6.00    0.43
   4  -4  -3   38.60    1.18
  -4   4   3   37.04    1.20
   3  -4  -3    4.37    0.27
  -3   4   3    4.98    0.31
   2  -4  -3    7.00    0.31
  -2   4   3    7.77    0.34
  -2   4   3    7.65    0.31
  -2   4   3    7.50    0.34
   1  -4  -3   68.41    1.76
  -1   4   3   68.67    1.79
  -1   4   3   65.13    1.78
   0  -4  -3    0.54    0.05
   0  -4  -3    0.53    0.11
   0   4   3    0.49    0.07
   0   4   3    0.51    0.08
  -1  -4  -3   13.67    0.45
   1   4   3   13.02    0.36
   1   4   3   13.59    0.36
   2   4   3   27.06    0.70
   2   4   3   27.89    0.71
   3   4   3   36.01    0.93
   3   4   3   33.68    0.93
  -4  -4  -3   56.95    1.50
   4   4   3   55.70    1.53
   4   4   3   58.99    1.54
  -5  -4  -3   59.64    1.58
   5   4   3   55.80    1.61
   5   4   3   60.82    1.62
  -6  -4  -3   -0.07    0.07
   6   4   3   -0.09    0.08
   6   4   3    0.01    0.09
  -7  -4  -3    7.48    0.39
   7   4   3    8.26    0.44
   8   4   3    1.31    0.23
   9   4   3    0.52    0.21
  10   4   3    1.91    0.34
  -7   5   3    2.53    0.41
  -6   5   3    0.75    0.28
  -5   5   3    9.17    0.56
   4  -5  -3   28.03    0.93
  -4   5   3   26.27    0.84
  -4   5   3   27.09    0.97
   3  -5  -3    1.84    0.20
  -3   5   3    1.37    0.16
  -3   5   3    1.01    0.19
   2  -5  -3    0.31    0.09
  -2   5   3    0.40    0.12
  -2   5   3    0.43    0.10
  -2   5   3    0.61    0.13
   1  -5  -3    3.58    0.18
  -1   5   3    4.01    0.22
  -1   5   3    3.65    0.20
  -1   5   3    3.60    0.22
   0  -5  -3   43.51    1.17
   0   5   3   41.34    1.15
   0   5   3   43.14    1.15
  -1  -5  -3   78.36    2.05
   1   5   3   81.49    2.01
   1   5   3   78.59    2.01
  -2  -5  -3    0.16    0.08
   3   5   3    1.07    0.08
   3   5   3    0.96    0.08
   4   5   3   11.10    0.38
   4   5   3   11.39    0.38
   5   5   3    0.36    0.11
   5   5   3    0.57    0.11
  -6  -5  -3   17.85    0.58
   6   5   3   17.38    0.63
   6   5   3   18.38    0.64
   7   5   3    9.84    0.47
   8   5   3    9.36    0.51
   9   5   3   12.31    0.65
  10   5   3    2.33    0.38
  -6   6   3   -0.37    0.22
  -5   6   3    0.75    0.26
  -4   6   3    0.53    0.21
  -3   6   3    6.23    0.40
  -3   6   3    6.51    0.32
  -2   6   3   21.42    0.75
  -2   6   3   21.15    0.65
  -1   6   3   14.82    0.52
  -1   6   3   14.43    0.52
   0   6   3   58.04    1.60
   0   6   3   62.03    1.60
  -1  -6  -3   45.17    1.25
   1   6   3   45.34    1.18
   1   6   3   43.95    1.17
  -2  -6  -3   10.51    0.42
   3   6   3   46.15    1.18
   4   6   3    2.45    0.14
   4   6   3    2.42    0.14
   5   6   3   11.32    0.41
   5   6   3   11.13    0.41
   6   6   3    4.23    0.27
   7   6   3    0.27    0.13
   8   6   3   -0.09    0.12
   9   6   3   -0.03    0.17
  10   6   3    4.70    0.48
  -5   7   3    2.98    0.40
  -4   7   3    5.74    0.47
  -3   7   3    9.53    0.52
  -2   7   3    1.01    0.19
  -1   7   3    1.49    0.19
   0   7   3    0.33    0.10
   0   7   3    0.42    0.10
  -1  -7  -3    3.53    0.25
   1   7   3    3.39    0.17
   1   7   3    3.10    0.17
  -2  -7  -3   53.14    1.49
   2   7   3   53.58    1.38
   2   7   3   55.21    1.38
   4   7   3   12.80    0.39
   4   7   3   13.12    0.39
   5   7   3    5.45    0.25
   5   7   3    5.87    0.26
   6   7   3    5.14    0.29
   7   7   3    8.54    0.42
   8   7   3    2.89    0.30
   9   7   3    0.74    0.22
  -4   8   3   -0.12    0.19
  -3   8   3    0.48    0.21
  -2   8   3    0.19    0.17
  -1   8   3    7.86    0.41
   0   8   3   13.36    0.49
  -1  -8  -3    1.67    0.20
   1   8   3    1.44    0.14
   1   8   3    1.56    0.15
  -2  -8  -3    0.01    0.11
   2   8   3    0.10    0.06
   2   8   3   -0.02    0.05
  -3  -8  -3    4.80    0.32
   4   8   3   -0.08    0.05
   5   8   3   10.05    0.36
   5   8   3   10.58    0.37
   6   8   3   25.38    0.79
   7   8   3    6.58    0.36
   8   8   3    3.66    0.33
   9   8   3    1.15    0.23
  -3   9   3    0.86    0.26
  -2   9   3    1.23    0.24
  -1   9   3   25.56    0.89
   0   9   3   10.24    0.44
  -1  -9  -3    1.82    0.23
   1   9   3    1.71    0.17
  -2  -9  -3    0.07    0.12
   2   9   3    0.06    0.07
   2   9   3    0.00    0.06
  -3  -9  -3    0.66    0.18
  -4  -9  -3    8.34    0.45
   5   9   3    1.67    0.14
   5   9   3    1.92    0.13
   6   9   3    0.06    0.09
   7   9   3    5.03    0.30
   8   9   3    2.75    0.27
   9   9   3    2.03    0.27
  -1  10   3    2.51    0.29
   0  10   3    0.13    0.13
   1  10   3   11.57    0.46
  -2 -10  -3    8.77    0.46
   2  10   3    8.98    0.34
  -3 -10  -3    6.76    0.41
  -4 -10  -3    9.89    0.51
  -5 -10  -3    0.80    0.21
   6  10   3    4.48    0.22
   7  10   3    1.83    0.19
   8  10   3    0.06    0.12
   1  11   3    6.09    0.34
   2  11   3    2.49    0.20
  -4 -11  -3    0.35    0.18
  -5 -11  -3    4.31    0.41
  -6 -11  -3   18.77    0.82
   5  10  -4    2.95    0.32
   4  10  -4    1.56    0.25
   3  10  -4    0.34    0.18
   2  10  -4    1.12    0.26
   7   9  -4    0.93    0.23
   6   9  -4    3.56    0.33
   5   9  -4    2.92    0.31
   4   9  -4    0.15    0.16
   3   9  -4    0.76    0.20
   2   9  -4    9.22    0.51
   1   9  -4    1.73    0.27
   0   9  -4   -0.15    0.16
  -1   9  -4    0.29    0.21
   8   8  -4    0.89    0.24
   7   8  -4    1.24    0.25
   6   8  -4    6.69    0.42
   5   8  -4    8.45    0.46
   4   8  -4    1.96    0.25
   3   8  -4    5.29    0.37
   2   8  -4    1.61    0.24
   1   8  -4    4.71    0.37
   0   8  -4    1.64    0.26
  -1   8  -4    0.40    0.20
  -2   8  -4    4.52    0.44
  -3   8  -4    8.63    0.62
   9   7  -4    1.29    0.28
   8   7  -4    0.24    0.19
   7   7  -4    1.84    0.27
   6   7  -4   10.39    0.51
   5   7  -4    4.18    0.32
   4   7  -4    0.16    0.13
   3   7  -4    0.46    0.15
   2   7  -4   27.06    0.92
   1   7  -4   30.68    1.02
   0   7  -4    8.76    0.47
  -1   7  -4    0.52    0.19
  -2   7  -4    0.39    0.18
  -3   7  -4    0.31    0.22
  -4   7  -4    1.58    0.34
   9   6  -4    3.81    0.42
   8   6  -4    0.01    0.16
   7   6  -4    0.23    0.15
   6   6  -4    0.04    0.13
   5   6  -4    3.51    0.29
   4   6  -4    7.63    0.39
   3   6  -4   11.12    0.49
   3   6  -4   12.09    0.54
   2   6  -4   14.13    0.56
   2   6  -4   13.73    0.56
  -2  -6   4   13.78    0.49
   1   6  -4   44.28    1.34
  -1  -6   4   45.41    1.29
   0   6  -4    2.66    0.26
  -1   6  -4   36.19    1.17
  -2   6  -4   10.48    0.54
  -3   6  -4    5.23    0.44
  -4   6  -4    5.66    0.50
  -5   6  -4   -0.14    0.24
   9   5  -4    1.64    0.32
   8   5  -4    0.34    0.18
   7   5  -4   12.64    0.60
   6   5  -4   28.87    0.99
   5   5  -4    8.78    0.43
  -5  -5   4    8.99    0.40
   4   5  -4    5.14    0.31
   4   5  -4    4.81    0.30
  -4  -5   4    4.75    0.26
   3   5  -4    7.64    0.37
   3   5  -4    8.15    0.37
  -3  -5   4    7.78    0.33
   2   5  -4   10.53    0.46
   2   5  -4   11.31    0.46
  -2  -5   4   11.06    0.41
   1   5  -4    7.08    0.36
   1   5  -4    7.61    0.36
  -1  -5   4    7.30    0.32
   0   5  -4    0.29    0.12
   0   5  -4    0.60    0.14
   0  -5   4    0.70    0.13
  -1   5  -4    3.80    0.29
   1  -5   4    3.86    0.27
  -2   5  -4   16.41    0.68
   2  -5   4   17.63    0.65
  -3   5  -4    9.85    0.54
   3  -5   4    9.85    0.49
  -4   5  -4    3.61    0.38
  -5   5  -4    1.34    0.32
  -6   5  -4    3.63    0.47
   9   4  -4    0.02    0.18
   8   4  -4    6.11    0.45
   7   4  -4    8.12    0.48
   6   4  -4    0.37    0.17
  -6  -4   4    0.43    0.14
   5   4  -4    3.58    0.28
  -5  -4   4    3.63    0.25
   4   4  -4    0.49    0.12
   4   4  -4    0.34    0.12
  -4  -4   4    0.49    0.11
   3   4  -4   15.14    0.52
   3   4  -4   12.86    0.51
  -3  -4   4   12.71    0.47
   2   4  -4   77.51    2.14
   2   4  -4   82.37    2.15
  -2  -4   4   77.86    2.10
   1   4  -4   19.21    0.64
   1   4  -4   18.11    0.63
  -1  -4   4   18.62    0.61
   0   4  -4    1.08    0.15
   0   4  -4    1.41    0.17
   0  -4   4    1.70    0.18
  -1   4  -4    6.44    0.34
   1  -4   4    6.26    0.32
  -2   4  -4   -0.03    0.11
   2  -4   4    0.10    0.09
  -3   4  -4   16.61    0.69
   3  -4   4   17.03    0.67
  -4   4  -4   16.58    0.73
   4  -4   4   17.09    0.71
  -5   4  -4    4.78    0.44
   5  -4   4    5.38    0.42
  -6   4  -4   11.93    0.71
  -7   4  -4    1.95    0.39
   9   3  -4    1.59    0.33
   8   3  -4    0.04    0.17
   7   3  -4    3.91    0.39
  -7  -3   4    4.61    0.35
   6   3  -4   14.75    0.62
  -6  -3   4   13.73    0.58
   5   3  -4    5.79    0.35
  -5  -3   4    6.16    0.33
   4   3  -4    0.38    0.11
  -4  -3   4    0.09    0.08
   3   3  -4   35.49    1.02
   3   3  -4   32.93    1.01
  -3  -3   4   34.08    0.99
   2   3  -4   98.82    2.54
   2   3  -4   95.16    2.54
  -2  -3   4   95.12    2.51
   1   3  -4    0.33    0.11
   1   3  -4    0.45    0.10
  -1  -3   4    0.53    0.10
   0   3  -4    3.76    0.23
   0   3  -4    3.61    0.23
   0  -3   4    3.81    0.23
  -1   3  -4    6.31    0.31
   1  -3   4    6.29    0.31
  -2   3  -4   45.06    1.33
   2  -3   4   44.91    1.31
  -3   3  -4   32.29    1.04
   3  -3   4   31.73    1.03
  -4   3  -4    3.91    0.15
  -4   3  -4    4.75    0.37
   4  -3   4    4.45    0.33
  -5   3  -4    5.76    0.23
  -5   3  -4    5.97    0.44
   5  -3   4    5.43    0.40
  -6   3  -4    0.85    0.25
   6  -3   4    0.69    0.22
  -7   3  -4   -0.12    0.22
   7  -3   4   -0.08    0.17
   9   2  -4    0.90    0.28
   8   2  -4    2.97    0.37
  -8  -2   4    4.50    0.42
   7   2  -4    9.70    0.53
  -7  -2   4    9.56    0.51
   6   2  -4   40.79    1.29
  -6  -2   4   40.50    1.26
   5   2  -4    4.29    0.30
  -5  -2   4    3.85    0.27
   4   2  -4   85.58    2.34
  -4  -2   4   87.56    2.32
   3   2  -4    3.02    0.22
  -3  -2   4    2.81    0.19
   2   2  -4    0.13    0.09
   2   2  -4    0.12    0.08
  -2  -2   4    0.10    0.07
   1   2  -4   25.06    0.77
   1   2  -4   26.91    0.77
  -1  -2   4   24.71    0.75
   0   2  -4   53.76    1.44
   0   2  -4   50.11    1.42
   0  -2   4   51.70    1.42
  -1   2  -4    2.77    0.20
   1  -2   4    3.00    0.20
   1  -2   4    3.00    0.12
  -2   2  -4   60.07    1.66
   2  -2   4   59.02    1.65
  -3   2  -4   49.94    1.25
  -3   2  -4   50.72    1.46
   3  -2   4   48.41    1.44
  -4   2  -4    3.58    0.32
   4  -2   4    3.62    0.29
  -5   2  -4    8.92    0.50
   5  -2   4    8.60    0.47
  -6   2  -4    0.90    0.24
   6  -2   4    0.79    0.22
  -7   2  -4    0.82    0.27
   7  -2   4    0.34    0.21
  -8   2  -4    0.41    0.28
   8  -2   4    0.25    0.22
   9   1  -4    0.66    0.27
   8   1  -4    0.02    0.18
  -8  -1   4    0.02    0.16
   7   1  -4    0.48    0.18
  -7  -1   4    0.88    0.21
   6   1  -4    0.57    0.17
  -6  -1   4    0.59    0.17
   5   1  -4    0.85    0.17
  -5  -1   4    0.97    0.17
   4   1  -4   70.12    1.92
  -4  -1   4   69.12    1.91
   3   1  -4   12.49    0.47
  -3  -1   4   13.36    0.47
   2   1  -4   50.83    1.41
  -2  -1   4   52.20    1.40
   1   1  -4   55.52    1.51
   1   1  -4   57.71    1.51
  -1  -1   4   55.16    1.50
   0   1  -4    2.52    0.18
   0   1  -4    2.94    0.18
   0  -1   4    2.79    0.18
  -1   1  -4    3.86    0.22
   1  -1   4    4.10    0.16
  -2   1  -4    3.82    0.16
  -2   1  -4    3.76    0.23
   2  -1   4    3.72    0.23
  -3   1  -4   31.99    0.97
   3  -1   4   31.04    0.97
  -4   1  -4   47.20    1.39
   4  -1   4   46.45    1.39
  -5   1  -4   45.81    1.40
   5  -1   4   44.45    1.39
  -6   1  -4    5.07    0.41
   6  -1   4    5.84    0.41
  -7   1  -4    4.01    0.41
   7  -1   4    4.06    0.42
  -8   1  -4    2.84    0.41
   8  -1   4    2.96    0.40
  -9   1  -4    4.81    0.54
   9  -1   4    3.64    0.47
   9   0  -4    2.06    0.36
  -9   0   4    2.26    0.38
   8   0  -4    0.64    0.25
  -8   0   4    1.44    0.31
   7   0  -4    7.14    0.48
  -7   0   4    7.25    0.48
   6   0  -4    1.23    0.22
  -6   0   4    0.81    0.18
   5   0  -4    0.52    0.15
  -5   0   4    0.57    0.15
   4   0  -4  182.67    4.70
  -4   0   4  180.63    4.69
   3   0  -4   75.85    2.04
  -3   0   4   76.12    2.04
   2   0  -4    3.71    0.21
  -2   0   4    3.42    0.20
   1   0  -4    2.39    0.16
  -1   0   4    2.51    0.17
  -1   0   4    2.24    0.16
   0   0  -4    2.11    0.15
   0   0   4    2.10    0.15
   0   0   4    2.11    0.15
  -1   0  -4  133.61    3.50
  -1   0  -4  134.93    3.37
   1   0   4  142.89    3.51
   1   0   4  138.72    3.37
  -2   0  -4   33.48    0.97
  -2   0  -4   34.74    0.91
   2   0   4   34.62    0.98
  -3   0  -4   10.94    0.43
   3   0   4   11.57    0.44
  -4   0  -4    0.18    0.11
   4   0   4    0.13    0.11
  -5   0  -4    3.10    0.28
   5   0   4    3.01    0.30
  -6   0  -4    0.08    0.15
   6   0   4    0.11    0.14
  -7   0  -4    6.27    0.47
   7   0   4    6.14    0.44
  -8   0  -4    9.38    0.61
   8   0   4    9.64    0.60
  -9   0  -4    5.88    0.56
   9   0   4    6.12    0.59
   9  -1  -4   -0.27    0.19
  -9   1   4    0.34    0.26
   8  -1  -4    2.24    0.35
  -8   1   4    2.34    0.36
   7  -1  -4   21.52    0.90
  -7   1   4   22.34    0.90
   6  -1  -4    1.25    0.22
  -6   1   4    1.35    0.23
   5  -1  -4    0.16    0.13
  -5   1   4    0.18    0.13
   4  -1  -4    0.20    0.11
  -4   1   4   -0.04    0.09
   3  -1  -4    6.19    0.31
  -3   1   4    6.19    0.31
   2  -1  -4   57.86    1.55
  -2   1   4   57.15    1.55
   1  -1  -4    0.54    0.09
  -1   1   4    0.30    0.08
  -1   1   4    0.39    0.09
   0  -1  -4   33.39    0.90
   0   1   4   34.90    0.90
   0   1   4   34.21    0.91
   0   1   4   28.62    0.88
  -1  -1  -4  183.83    4.71
  -1  -1  -4  185.31    4.57
   1   1   4  187.91    4.72
   1   1   4  192.37    4.72
   1   1   4  186.60    4.57
  -2  -1  -4   82.22    2.19
  -2  -1  -4   83.62    2.13
   2   1   4   87.16    2.20
   2   1   4   85.36    2.20
  -3  -1  -4   -0.10    0.07
   3   1   4   -0.13    0.06
   3   1   4   -0.08    0.07
  -4  -1  -4    4.30    0.26
   4   1   4    4.72    0.27
  -5  -1  -4   10.67    0.46
   5   1   4   10.44    0.47
  -6  -1  -4   19.80    0.75
  -7  -1  -4    6.17    0.43
   7   1   4    6.01    0.43
  -8  -1  -4   -0.01    0.19
   8   1   4    0.23    0.20
   9   1   4    0.11    0.20
   8  -2  -4    3.53    0.43
  -8   2   4    3.22    0.44
   7  -2  -4    7.60    0.51
  -7   2   4    8.07    0.55
   6  -2  -4    0.19    0.16
  -6   2   4   -0.06    0.17
   5  -2  -4    4.57    0.34
  -5   2   4    4.26    0.34
   4  -2  -4    5.34    0.32
  -4   2   4    5.68    0.33
   3  -2  -4   21.09    0.70
  -3   2   4   21.37    0.71
   2  -2  -4   67.87    1.84
  -2   2   4   67.74    1.85
  -2   2   4   71.07    1.85
   1  -2  -4    1.51    0.13
  -1   2   4    1.44    0.13
  -1   2   4    1.57    0.14
   0  -2  -4   52.64    1.38
   0   2   4   52.57    1.39
   0   2   4   56.12    1.40
   0   2   4   51.48    1.38
  -1  -2  -4   40.73    1.08
  -1  -2  -4   40.42    1.10
   1   2   4   42.38    1.10
   1   2   4   40.87    1.09
  -2  -2  -4    5.60    0.22
  -2  -2  -4    5.23    0.24
   2   2   4    5.35    0.22
   2   2   4    5.36    0.22
  -3  -2  -4   59.25    1.59
   3   2   4   60.91    1.60
   3   2   4   58.70    1.60
  -4  -2  -4   57.16    1.60
   4   2   4   63.05    1.64
   4   2   4   56.52    1.62
  -5  -2  -4   28.55    0.89
   5   2   4   27.50    0.90
  -6  -2  -4   18.86    0.70
   6   2   4   19.05    0.72
  -7  -2  -4    0.00    0.14
   7   2   4   -0.03    0.12
  -8  -2  -4   17.14    0.76
   8   2   4   17.03    0.78
   9   2   4    0.57    0.23
  10   2   4    2.98    0.43
  -8   3   4    0.43    0.29
   7  -3  -4    1.78    0.31
  -7   3   4    2.19    0.36
   6  -3  -4    7.87    0.48
  -6   3   4    8.29    0.53
   5  -3  -4   22.67    0.83
  -5   3   4   22.21    0.85
   4  -3  -4   19.40    0.69
  -4   3   4   17.73    0.69
   3  -3  -4   29.60    0.91
  -3   3   4   28.71    0.92
   2  -3  -4    0.48    0.10
  -2   3   4    0.58    0.11
  -2   3   4    0.58    0.12
   1  -3  -4   50.38    1.37
  -1   3   4   54.30    1.39
  -1   3   4   49.59    1.38
   0  -3  -4   56.67    1.49
   0  -3  -4   55.47    1.45
   0   3   4   55.68    1.47
   0   3   4   58.60    1.48
  -1  -3  -4   13.45    0.36
  -1  -3  -4   13.01    0.44
   1   3   4   13.20    0.39
   1   3   4   13.17    0.39
  -2  -3  -4   40.53    1.14
  -2  -3  -4   42.46    1.09
   2   3   4   41.74    1.11
   2   3   4   43.10    1.11
  -3  -3  -4  120.85    3.03
   3   3   4  121.46    3.05
   3   3   4  115.50    3.04
  -4  -3  -4    6.74    0.28
   4   3   4    6.92    0.30
   4   3   4    5.74    0.29
  -5  -3  -4    8.53    0.36
   5   3   4    7.61    0.37
   5   3   4    8.71    0.38
  -6  -3  -4    1.06    0.17
   6   3   4    1.36    0.21
  -7  -3  -4   17.73    0.68
   7   3   4   17.37    0.71
   8   3   4   18.61    0.80
   9   3   4    4.58    0.46
  10   3   4    4.11    0.47
  -7   4   4    0.40    0.27
  -6   4   4    3.92    0.41
   5  -4  -4   -0.18    0.12
  -5   4   4   -0.10    0.16
   4  -4  -4   15.36    0.61
  -4   4   4   15.31    0.65
   3  -4  -4    9.80    0.42
  -3   4   4    9.63    0.44
   2  -4  -4    9.68    0.38
  -2   4   4    9.33    0.40
  -2   4   4    9.50    0.39
  -2   4   4   10.44    0.41
   1  -4  -4   13.77    0.44
  -1   4   4   14.41    0.48
  -1   4   4   14.33    0.47
  -1   4   4   13.80    0.47
   0  -4  -4   62.52    1.57
   0  -4  -4   61.04    1.62
   0   4   4   61.11    1.60
   0   4   4   63.77    1.61
   0   4   4   59.12    1.60
  -1  -4  -4   17.15    0.56
   1   4   4   17.71    0.48
   1   4   4   17.38    0.48
   2   4   4    2.47    0.12
   2   4   4    2.64    0.11
   3   4   4   49.40    1.29
   3   4   4   48.41    1.29
  -4  -4  -4   57.46    1.50
   4   4   4   55.48    1.53
   4   4   4   58.12    1.54
  -5  -4  -4   15.82    0.52
   5   4   4   17.32    0.57
   5   4   4   14.37    0.55
  -6  -4  -4    1.77    0.19
   6   4   4    1.76    0.21
   6   4   4    1.75    0.21
   7   4   4    1.94    0.24
   8   4   4    3.27    0.35
   9   4   4    6.56    0.50
  10   4   4    2.47    0.41
  -7   5   4    0.09    0.26
  -6   5   4    3.60    0.44
  -5   5   4    4.21    0.41
  -4   5   4   24.52    0.89
  -4   5   4   23.53    0.79
   3  -5  -4   18.01    0.64
  -3   5   4   17.43    0.68
  -3   5   4   17.74    0.61
   2  -5  -4    1.92    0.18
  -2   5   4    1.75    0.17
  -2   5   4    1.69    0.19
  -2   5   4    1.57    0.19
   1  -5  -4    0.09    0.06
  -1   5   4    0.08    0.08
  -1   5   4   -0.02    0.07
  -1   5   4    0.06    0.08
   0  -5  -4    8.57    0.36
   0   5   4    8.23    0.31
   0   5   4    8.75    0.31
   0   5   4    8.92    0.35
  -1  -5  -4    0.03    0.08
   1   5   4    0.05    0.04
   1   5   4    0.04    0.04
  -2  -5  -4    4.85    0.26
   3   5   4    2.86    0.13
   3   5   4    2.75    0.13
   4   5   4   29.88    0.85
   4   5   4   30.33    0.85
   5   5   4   33.78    1.01
   5   5   4   35.61    1.01
  -6  -5  -4    0.77    0.13
   6   5   4    0.74    0.14
   6   5   4    0.69    0.14
   7   5   4    4.86    0.34
   8   5   4    1.36    0.24
   9   5   4    4.92    0.47
  10   5   4    5.12    0.53
  -6   6   4   -0.37    0.22
  -5   6   4   -0.23    0.18
  -4   6   4    9.75    0.55
  -3   6   4    7.52    0.44
  -3   6   4    8.04    0.37
  -2   6   4   11.53    0.43
  -2   6   4   10.52    0.47
  -1   6   4   19.93    0.65
  -1   6   4   19.19    0.65
  -1   6   4   19.37    0.63
   0   6   4   20.91    0.62
   0   6   4   19.85    0.62
  -1  -6  -4   54.86    1.52
   1   6   4   54.17    1.44
   1   6   4   57.62    1.44
  -2  -6  -4   27.75    0.85
   4   6   4    5.76    0.23
   4   6   4    6.48    0.24
   5   6   4    7.46    0.31
   5   6   4    7.52    0.31
   6   6   4    6.26    0.32
   7   6   4   13.30    0.56
   8   6   4   11.37    0.56
   9   6   4    2.92    0.36
  10   6   4    0.16    0.21
  -5   7   4    0.14    0.22
  -4   7   4    1.11    0.25
  -3   7   4    0.16    0.17
  -2   7   4   17.92    0.69
  -1   7   4   23.07    0.76
   0   7   4    2.25    0.18
   0   7   4    2.32    0.18
  -1  -7  -4   -0.15    0.09
   1   7   4    0.01    0.06
   1   7   4    0.03    0.06
  -2  -7  -4   12.16    0.49
  -3  -7  -4   36.11    1.10
   4   7   4   29.11    0.79
   4   7   4   29.50    0.79
   5   7   4    0.14    0.08
   5   7   4    0.06    0.07
   6   7   4    1.83    0.19
   7   7   4   16.14    0.62
   8   7   4    4.95    0.36
   9   7   4    0.54    0.20
  -4   8   4    5.58    0.49
  -3   8   4    1.95    0.29
  -2   8   4    2.76    0.29
  -1   8   4    0.77    0.17
   0   8   4    1.81    0.19
  -1  -8  -4    3.33    0.27
   1   8   4    3.40    0.19
   1   8   4    3.49    0.19
  -2  -8  -4    1.89    0.23
   2   8   4    1.66    0.10
   2   8   4    1.58    0.10
  -3  -8  -4   23.67    0.81
  -4  -8  -4   24.49    0.85
   5   8   4    4.24    0.20
   5   8   4    4.53    0.21
   6   8   4    6.41    0.30
   7   8   4    4.26    0.29
   8   8   4   13.04    0.58
   9   8   4    8.07    0.49
  -3   9   4    0.22    0.21
  -2   9   4    0.44    0.19
  -1   9   4    9.94    0.49
   0   9   4   27.92    0.88
   1   9   4    3.07    0.20
  -2  -9  -4    0.60    0.17
   2   9   4    0.54    0.07
   2   9   4    0.67    0.09
  -3  -9  -4    7.81    0.43
  -4  -9  -4    0.13    0.15
   6   9   4   10.84    0.39
   7   9   4    9.94    0.42
   8   9   4   10.09    0.48
   9   9   4    0.14    0.16
  -1  10   4    5.86    0.40
   0  10   4    5.12    0.32
   1  10   4    0.70    0.13
  -2 -10  -4    7.38    0.43
   2  10   4    7.63    0.28
  -3 -10  -4    6.73    0.43
  -4 -10  -4    4.52    0.36
  -5 -10  -4    7.61    0.47
   7  10   4    0.13    0.10
   8  10   4    0.29    0.13
   1  11   4    0.07    0.11
   2  11   4   12.22    0.41
  -4 -11  -4    0.60    0.20
  -5 -11  -4    0.34    0.19
  -6 -11  -4    2.08    0.32
   6   9  -5    1.50    0.26
   5   9  -5    1.07    0.24
   4   9  -5    1.55    0.26
   3   9  -5    0.12    0.17
   2   9  -5    1.26    0.25
   1   9  -5    4.51    0.42
   0   9  -5    1.41    0.29
   7   8  -5    2.21    0.31
   6   8  -5    1.85    0.27
   5   8  -5   12.58    0.60
   4   8  -5    5.10    0.39
   3   8  -5    2.14    0.27
   2   8  -5    9.00    0.50
   1   8  -5    3.07    0.34
   0   8  -5    0.00    0.16
  -1   8  -5    0.17    0.19
  -2   8  -5   -0.01    0.20
   8   7  -5    1.58    0.29
   7   7  -5    1.13    0.25
   6   7  -5   14.76    0.65
   5   7  -5   25.57    0.92
   4   7  -5    2.81    0.29
   3   7  -5    1.14    0.21
   2   7  -5    5.74    0.39
   1   7  -5    9.26    0.49
   0   7  -5    2.61    0.31
  -1   7  -5    0.01    0.16
  -2   7  -5    0.53    0.22
  -3   7  -5   12.21    0.70
  -4   7  -5    0.73    0.29
   9   6  -5    4.21    0.45
   8   6  -5    7.56    0.53
   7   6  -5    0.11    0.16
   6   6  -5    0.13    0.14
   5   6  -5    2.20    0.25
   4   6  -5    1.38    0.21
   3   6  -5   20.06    0.74
   2   6  -5    0.21    0.14
   1   6  -5    0.15    0.12
   0   6  -5   26.97    0.94
  -1   6  -5    0.89    0.21
  -2   6  -5    0.59    0.22
  -3   6  -5   -0.03    0.19
  -4   6  -5    0.10    0.21
  -5   6  -5    5.46    0.55
   9   5  -5    4.89    0.50
   8   5  -5    0.61    0.22
   7   5  -5   -0.03    0.14
   6   5  -5    3.13    0.31
   5   5  -5    3.33    0.31
   4   5  -5    3.51    0.29
  -4  -5   5    3.67    0.24
   3   5  -5    1.25    0.19
   3   5  -5    1.17    0.18
  -3  -5   5    1.42    0.17
   2   5  -5    5.74    0.33
   2   5  -5    5.11    0.33
  -2  -5   5    5.48    0.28
   1   5  -5   25.17    0.84
   1   5  -5   23.77    0.83
  -1  -5   5   24.59    0.79
   0   5  -5    0.08    0.10
   0   5  -5    0.03    0.11
   0  -5   5   -0.01    0.09
  -1   5  -5   11.09    0.53
   1  -5   5   11.52    0.50
  -2   5  -5   31.58    1.08
   2  -5   5   32.08    1.06
  -3   5  -5    7.73    0.49
  -4   5  -5    2.48    0.35
  -5   5  -5    1.92    0.34
  -6   5  -5   -0.25    0.23
   9   4  -5    0.75    0.26
   8   4  -5    0.32    0.19
   7   4  -5   18.31    0.77
   6   4  -5   20.80    0.80
  -6  -4   5   20.68    0.75
   5   4  -5    3.95    0.31
  -5  -4   5    3.69    0.27
   4   4  -5    5.17    0.32
  -4  -4   5    5.08    0.29
   3   4  -5    3.51    0.25
   3   4  -5    2.61    0.24
  -3  -4   5    3.30    0.22
   2   4  -5    2.88    0.26
   2   4  -5    2.67    0.22
  -2  -4   5    2.28    0.21
   1   4  -5    7.47    0.36
   1   4  -5    7.12    0.37
  -1  -4   5    7.71    0.35
   0   4  -5    0.97    0.16
   0   4  -5    0.95    0.16
   0  -4   5    0.98    0.15
  -1   4  -5   16.84    0.64
   1  -4   5   17.11    0.63
  -2   4  -5   36.15    1.18
   2  -4   5   37.84    1.16
  -3   4  -5    1.38    0.24
   3  -4   5    1.67    0.25
  -4   4  -5    1.86    0.28
   4  -4   5    2.17    0.29
  -5   4  -5    0.19    0.21
   5  -4   5    0.46    0.20
  -6   4  -5    6.13    0.54
  -7   4  -5    8.88    0.69
   9   3  -5    1.79    0.31
   8   3  -5    0.27    0.19
   7   3  -5    1.39    0.25
  -7  -3   5    1.55    0.24
   6   3  -5    2.10    0.27
  -6  -3   5    1.76    0.23
   5   3  -5    0.16    0.13
  -5  -3   5    0.20    0.12
   4   3  -5    2.31    0.22
  -4  -3   5    2.63    0.21
   3   3  -5   25.76    0.84
  -3  -3   5   26.40    0.81
   2   3  -5  137.31    3.71
   2   3  -5  147.60    3.71
  -2  -3   5  142.71    3.69
   1   3  -5   59.06    1.60
   1   3  -5   56.22    1.60
  -1  -3   5   55.76    1.58
   0   3  -5    0.14    0.09
   0  -3   5    0.07    0.08
  -1   3  -5    0.21    0.12
   1  -3   5    0.07    0.09
  -2   3  -5    3.18    0.27
   2  -3   5    3.45    0.26
  -3   3  -5    4.59    0.34
   3  -3   5    5.24    0.33
  -4   3  -5    0.17    0.16
   4  -3   5    0.11    0.14
  -5   3  -5    0.87    0.24
   5  -3   5    1.78    0.28
  -6   3  -5    7.26    0.54
   6  -3   5    6.33    0.48
  -7   3  -5    6.12    0.57
   9   2  -5   -0.05    0.19
   8   2  -5    0.13    0.18
  -8  -2   5    0.29    0.19
   7   2  -5    0.12    0.16
  -7  -2   5    0.28    0.16
   6   2  -5    5.52    0.39
  -6  -2   5    5.93    0.38
   5   2  -5    3.57    0.31
  -5  -2   5    3.49    0.28
   4   2  -5    9.77    0.43
  -4  -2   5    9.00    0.41
   3   2  -5    7.20    0.34
  -3  -2   5    7.08    0.33
   2   2  -5   29.20    0.91
  -2  -2   5   31.11    0.90
   1   2  -5   26.11    0.81
   1   2  -5   26.66    0.82
  -1  -2   5   24.90    0.79
   0   2  -5   20.45    0.68
   0  -2   5   21.01    0.68
  -1   2  -5  171.06    4.50
   1  -2   5  178.17    4.51
   1  -2   5  175.70    4.25
  -2   2  -5   19.89    0.69
   2  -2   5   19.85    0.68
  -3   2  -5    8.01    0.27
  -3   2  -5    8.29    0.42
   3  -2   5    9.15    0.42
  -4   2  -5    8.84    0.48
  -4   2  -5    9.49    0.32
   4  -2   5   10.01    0.48
  -5   2  -5    0.05    0.17
  -5   2  -5    0.08    0.08
   5  -2   5   -0.01    0.13
  -6   2  -5    0.11    0.20
   6  -2   5    0.47    0.20
  -7   2  -5   -0.05    0.21
   7  -2   5    0.12    0.19
  -8   2  -5    4.40    0.52
   8  -2   5    4.34    0.51
   9   1  -5    0.47    0.24
   8   1  -5    3.55    0.41
  -8  -1   5    3.50    0.41
   7   1  -5    7.50    0.48
  -7  -1   5    6.54    0.45
   6   1  -5   62.99    1.84
  -6  -1   5   60.87    1.82
   5   1  -5   33.19    1.08
  -5  -1   5   34.19    1.08
   4   1  -5   -0.03    0.10
  -4  -1   5    0.06    0.10
   3   1  -5   15.62    0.56
  -3  -1   5   15.23    0.54
   2   1  -5   21.97    0.70
  -2  -1   5   22.38    0.70
   1   1  -5    0.96    0.13
  -1  -1   5    1.08    0.14
   0   1  -5   81.88    2.17
   0  -1   5   81.42    2.17
  -1   1  -5    9.00    0.36
   1  -1   5    8.33    0.36
   1  -1   5    8.54    0.29
  -2   1  -5    1.95    0.13
  -2   1  -5    1.35    0.16
   2  -1   5    1.75    0.18
  -3   1  -5    4.38    0.20
  -3   1  -5    4.93    0.30
   3  -1   5    4.68    0.29
  -4   1  -5    0.17    0.13
   4  -1   5   -0.03    0.09
  -5   1  -5   30.73    1.04
   5  -1   5   30.24    1.04
  -6   1  -5   22.56    0.90
   6  -1   5   24.72    0.93
  -7   1  -5    0.04    0.21
   7  -1   5    0.12    0.18
  -8   1  -5    0.10    0.23
   8  -1   5    0.26    0.21
   9   0  -5    0.69    0.28
  -9   0   5    0.42    0.27
   8   0  -5    3.41    0.43
  -8   0   5    3.03    0.38
   7   0  -5    1.03    0.23
  -7   0   5    1.55    0.27
   6   0  -5    0.16    0.15
  -6   0   5    0.03    0.13
   5   0  -5    7.69    0.41
  -5   0   5    7.53    0.41
   4   0  -5   34.68    1.08
  -4   0   5   35.26    1.07
   3   0  -5  280.46    7.15
  -3   0   5  283.94    7.15
   2   0  -5   14.77    0.51
  -2   0   5   14.45    0.50
   1   0  -5    4.28    0.23
  -1   0   5    4.11    0.22
   0   0  -5    2.25    0.18
   0   0   5    2.33    0.17
  -1   0  -5   18.35    0.54
  -1   0  -5   17.59    0.58
   1   0   5   18.32    0.53
  -2   0  -5   46.39    1.20
  -2   0  -5   45.19    1.28
   2   0   5   45.80    1.29
  -3   0  -5    1.46    0.16
  -3   0  -5    1.65    0.14
   3   0   5    1.85    0.20
  -4   0  -5    4.07    0.29
   4   0   5    4.40    0.29
  -5   0  -5   44.54    1.37
   5   0   5   45.80    1.39
  -6   0  -5   20.10    0.78
   6   0   5   19.22    0.79
  -7   0  -5    0.52    0.21
   7   0   5    0.65    0.22
  -8   0  -5    1.34    0.29
   8   0   5    1.32    0.31
   9   0   5    1.42    0.32
   9  -1  -5    0.08    0.22
  -9   1   5    0.87    0.31
   8  -1  -5   -0.08    0.19
  -8   1   5   -0.05    0.22
   7  -1  -5    6.33    0.48
  -7   1   5    6.84    0.49
   6  -1  -5    6.07    0.41
  -6   1   5    6.12    0.42
   5  -1  -5    0.89    0.19
  -5   1   5    0.74    0.18
   4  -1  -5    5.57    0.32
  -4   1   5    5.34    0.32
   3  -1  -5    3.88    0.25
  -3   1   5    4.03    0.26
   2  -1  -5    6.90    0.31
  -2   1   5    7.37    0.32
   1  -1  -5    0.38    0.09
  -1   1   5    0.51    0.10
  -1   1   5    0.59    0.10
   0  -1  -5   13.40    0.45
   0   1   5   14.60    0.46
   0   1   5   13.60    0.46
   0   1   5   14.09    0.46
  -1  -1  -5   94.86    2.40
  -1  -1  -5   94.49    2.48
   1   1   5   96.00    2.40
   1   1   5   95.35    2.48
   1   1   5   97.16    2.48
  -2  -1  -5   56.35    1.49
  -2  -1  -5   56.24    1.55
   2   1   5   57.37    1.55
   2   1   5   59.34    1.56
  -3  -1  -5    8.18    0.34
   3   1   5    7.59    0.34
  -4  -1  -5    0.97    0.15
   4   1   5    1.08    0.16
  -5  -1  -5    0.44    0.14
   5   1   5    0.59    0.15
  -6  -1  -5    3.07    0.31
   6   1   5    2.45    0.30
  -7  -1  -5    2.00    0.28
   7   1   5    2.16    0.31
  -8  -1  -5    1.55    0.29
   8   1   5    1.42    0.28
   9   1   5    3.28    0.46
   8  -2  -5    2.28    0.37
  -8   2   5    1.79    0.36
   7  -2  -5   11.60    0.64
  -7   2   5   12.37    0.67
   6  -2  -5   14.17    0.66
  -6   2   5   13.79    0.66
   5  -2  -5    2.34    0.27
  -5   2   5    1.95    0.25
   4  -2  -5   10.14    0.45
  -4   2   5    9.67    0.46
   3  -2  -5    4.23    0.27
  -3   2   5    4.52    0.28
   2  -2  -5    1.37    0.15
  -2   2   5    1.41    0.17
  -2   2   5    1.10    0.14
   1  -2  -5   42.77    1.20
  -1   2   5   45.95    1.22
  -1   2   5   42.96    1.21
   0  -2  -5   38.13    1.04
   0   2   5   38.09    1.05
   0   2   5   38.52    1.05
  -1  -2  -5   58.14    1.53
  -1  -2  -5   58.24    1.54
   1   2   5   57.67    1.55
   1   2   5   60.51    1.56
  -2  -2  -5  106.33    2.74
  -2  -2  -5  106.46    2.69
   2   2   5  104.35    2.75
   2   2   5  109.95    2.75
  -3  -2  -5   15.74    0.52
   3   2   5   16.43    0.53
   3   2   5   15.58    0.53
  -4  -2  -5   49.83    1.41
   4   2   5   49.53    1.43
   4   2   5   52.51    1.49
  -5  -2  -5   22.33    0.75
   5   2   5   22.13    0.76
  -6  -2  -5    3.63    0.29
   6   2   5    2.80    0.27
  -7  -2  -5    6.90    0.43
   7   2   5    7.10    0.45
  -8  -2  -5    0.37    0.22
   8   2   5    0.25    0.19
   9   2   5    0.37    0.22
  -8   3   5   -0.06    0.25
   7  -3  -5    0.28    0.20
  -7   3   5   -0.04    0.22
   6  -3  -5    2.43    0.32
  -6   3   5    2.52    0.35
   5  -3  -5   16.36    0.67
  -5   3   5   14.81    0.67
   4  -3  -5   15.31    0.60
  -4   3   5   14.33    0.60
   3  -3  -5    0.14    0.09
  -3   3   5    0.17    0.11
   2  -3  -5   27.59    0.84
  -2   3   5   27.04    0.85
  -2   3   5   29.35    0.86
   1  -3  -5   33.65    0.93
  -1   3   5   32.59    0.95
  -1   3   5   34.51    0.95
  -1   3   5   31.25    0.94
   0  -3  -5    0.29    0.07
   0   3   5    0.37    0.08
   0   3   5    0.29    0.09
   0   3   5    0.40    0.08
  -1  -3  -5   32.37    0.85
  -1  -3  -5   31.71    0.91
   1   3   5   31.97    0.91
   1   3   5   30.96    0.88
   1   3   5   32.68    0.88
  -2  -3  -5   15.26    0.52
  -2  -3  -5   14.84    0.46
   2   3   5   16.91    0.49
   2   3   5   15.62    0.48
  -3  -3  -5    1.66    0.14
   3   3   5    1.64    0.15
   3   3   5    1.73    0.15
  -4  -3  -5   47.88    1.34
   4   3   5   49.48    1.36
   4   3   5   48.42    1.36
  -5  -3  -5   30.94    0.95
   5   3   5   32.97    0.98
   5   3   5   29.87    0.97
  -6  -3  -5    0.26    0.12
   6   3   5    0.33    0.12
  -7  -3  -5    1.50    0.23
   7   3   5    1.27    0.23
   8   3   5    0.16    0.17
   9   3   5    2.17    0.35
  10   3   5    9.90    0.67
  -7   4   5    0.22    0.26
  -6   4   5   -0.19    0.19
   5  -4  -5    6.67    0.42
  -5   4   5    7.23    0.49
   4  -4  -5    9.34    0.45
  -4   4   5    9.03    0.48
   3  -4  -5    4.41    0.27
  -3   4   5    3.93    0.29
   2  -4  -5    6.98    0.32
  -2   4   5    8.29    0.36
  -2   4   5    7.48    0.35
  -2   4   5    7.09    0.34
   1  -4  -5    0.58    0.09
  -1   4   5    0.38    0.10
  -1   4   5    0.42    0.09
  -1   4   5    0.36    0.10
   0  -4  -5  142.82    3.59
   0   4   5  144.50    3.58
   0   4   5  136.67    3.62
   0   4   5  147.08    3.63
  -1  -4  -5  132.68    3.36
   1   4   5  133.45    3.38
   1   4   5  134.81    3.37
  -2  -4  -5    0.47    0.12
   2   4   5    0.56    0.08
   2   4   5    0.47    0.07
  -3  -4  -5    6.16    0.21
   3   4   5    6.23    0.25
   3   4   5    6.20    0.24
  -4  -4  -5    9.84    0.35
   4   4   5   10.46    0.37
   4   4   5    9.48    0.37
  -5  -4  -5    4.34    0.23
   5   4   5    3.62    0.25
   5   4   5    4.19    0.25
  -6  -4  -5    4.41    0.27
   6   4   5    4.02    0.29
   7   4   5    0.13    0.13
   8   4   5    5.14    0.40
   9   4   5   17.44    0.81
  10   4   5    0.16    0.22
  -7   5   5    0.46    0.29
  -6   5   5   -0.48    0.18
  -5   5   5    0.44    0.22
  -4   5   5   -0.19    0.15
   3  -5  -5    5.90    0.32
  -3   5   5    5.92    0.37
  -3   5   5    5.47    0.32
   2  -5  -5    2.15    0.18
  -2   5   5    2.06    0.21
  -2   5   5    1.85    0.19
  -2   5   5    2.38    0.22
   1  -5  -5    7.83    0.30
  -1   5   5    8.06    0.35
  -1   5   5    8.10    0.34
  -1   5   5    7.49    0.33
   0   5   5   63.62    1.72
   0   5   5   66.44    1.72
   0   5   5   65.72    1.74
  -1  -5  -5   42.85    1.23
   1   5   5   44.86    1.15
   1   5   5   43.50    1.15
  -2  -5  -5    5.24    0.29
   2   5   5    5.20    0.19
   2   5   5    5.12    0.19
  -3  -5  -5    5.61    0.31
   3   5   5    5.59    0.21
   3   5   5    5.61    0.21
   4   5   5   19.31    0.58
   4   5   5   18.75    0.58
  -5  -5  -5   41.04    1.13
   5   5   5   41.09    1.17
   5   5   5   40.02    1.17
   6   5   5   14.63    0.56
   7   5   5    0.90    0.18
   8   5   5    6.81    0.44
   9   5   5    1.56    0.30
  10   5   5    0.13    0.21
  -6   6   5   -0.25    0.23
  -5   6   5    1.51    0.30
  -4   6   5   10.97    0.58
  -3   6   5   25.95    0.92
  -3   6   5   26.17    0.85
  -2   6   5    5.17    0.29
  -2   6   5    5.42    0.34
  -1   6   5   -0.01    0.08
  -1   6   5    0.02    0.09
  -1   6   5    0.00    0.09
   0   6   5    0.80    0.11
   0   6   5    0.49    0.10
  -1  -6  -5    2.76    0.23
   1   6   5    2.96    0.15
   1   6   5    3.28    0.15
  -2  -6  -5   17.14    0.61
   2   6   5   17.73    0.48
   2   6   5   17.89    0.48
  -3  -6  -5   28.19    0.90
   3   6   5   28.50    0.75
   3   6   5   28.21    0.75
   4   6   5    5.26    0.21
   4   6   5    4.93    0.22
   5   6   5   17.80    0.57
   5   6   5   16.75    0.56
   6   6   5    0.03    0.09
   7   6   5   21.50    0.78
   8   6   5   17.60    0.73
   9   6   5    0.85    0.23
  10   6   5    0.58    0.24
  -5   7   5    1.83    0.34
  -4   7   5    0.48    0.22
  -3   7   5    1.49    0.26
  -2   7   5   -0.05    0.12
  -1   7   5   28.22    0.89
   0   7   5   41.20    1.14
   0   7   5   38.98    1.13
  -1  -7  -5    3.71    0.27
   1   7   5    3.35    0.17
   1   7   5    2.92    0.17
  -2  -7  -5    7.26    0.38
  -3  -7  -5   12.49    0.52
  -4  -7  -5    9.84    0.47
   4   7   5   10.03    0.32
   4   7   5    9.96    0.31
   5   7   5    3.11    0.19
   5   7   5    3.02    0.18
   6   7   5    4.39    0.26
   7   7   5    9.31    0.44
   8   7   5   11.71    0.55
   9   7   5    0.56    0.20
  -4   8   5    3.47    0.39
  -3   8   5    0.71    0.22
  -2   8   5    2.07    0.26
  -1   8   5   26.32    0.87
   0   8   5    1.26    0.16
  -1  -8  -5    0.20    0.14
   1   8   5    0.11    0.07
   1   8   5    0.08    0.07
  -2  -8  -5    0.35    0.14
  -3  -8  -5   20.06    0.73
  -4  -8  -5   78.26    2.17
   5   8   5    2.54    0.16
   5   8   5    2.80    0.16
   6   8   5    0.39    0.11
   7   8   5    2.99    0.26
   8   8   5    0.75    0.19
   9   8   5   -0.22    0.13
  -3   9   5    0.11    0.20
  -2   9   5    0.20    0.18
  -1   9   5    1.65    0.23
   0   9   5   -0.15    0.10
   1   9   5    4.64    0.24
  -2  -9  -5    2.83    0.29
  -3  -9  -5   11.24    0.53
  -4  -9  -5   18.73    0.74
  -5  -9  -5    2.11    0.29
   6   9   5    9.26    0.35
   7   9   5   10.69    0.44
   8   9   5    1.98    0.24
   9   9   5    1.62    0.25
  -1  10   5    2.41    0.28
   0  10   5    5.06    0.32
   1  10   5    3.65    0.23
  -2 -10  -5    0.09    0.16
  -3 -10  -5    0.02    0.14
  -4 -10  -5    2.66    0.31
  -5 -10  -5    0.38    0.18
  -6 -10  -5   11.42    0.61
   7  10   5    4.53    0.25
   8  10   5    2.41    0.24
   0  11   5    3.77    0.30
   1  11   5   -0.01    0.10
  -3 -11  -5   10.65    0.56
  -4 -11  -5    2.71    0.33
  -5 -11  -5    0.72    0.23
  -6 -11  -5    0.13    0.19
   5   9  -6    1.15    0.25
   4   9  -6    4.10    0.41
   3   9  -6    3.95    0.40
   2   9  -6    0.85    0.24
   1   9  -6    4.59    0.44
   0   9  -6    0.71    0.25
   7   8  -6    0.52    0.22
   6   8  -6    0.36    0.19
   5   8  -6    0.24    0.18
   4   8  -6    2.85    0.33
   3   8  -6    0.70    0.20
   2   8  -6    4.33    0.41
   1   8  -6   21.04    0.87
   0   8  -6    3.71    0.41
  -1   8  -6    0.62    0.25
  -2   8  -6   -0.14    0.21
   8   7  -6    2.47    0.36
   7   7  -6    0.17    0.17
   6   7  -6    1.07    0.23
   5   7  -6    3.26    0.34
   4   7  -6    5.37    0.40
   3   7  -6    0.32    0.17
   2   7  -6    5.72    0.42
   1   7  -6   12.50    0.62
   0   7  -6    2.14    0.30
  -1   7  -6    0.48    0.21
  -2   7  -6    1.66    0.31
  -3   7  -6   11.76    0.71
   8   6  -6   -0.09    0.17
   7   6  -6    1.39    0.27
   6   6  -6    3.07    0.34
   5   6  -6   19.15    0.76
   4   6  -6   16.98    0.70
   3   6  -6    3.37    0.32
   2   6  -6   18.62    0.74
   1   6  -6   13.74    0.62
   0   6  -6    4.59    0.37
  -1   6  -6    6.66    0.45
  -2   6  -6    2.05    0.31
  -3   6  -6    0.62    0.25
  -4   6  -6   -0.14    0.20
   9   5  -6    2.19    0.36
   8   5  -6    8.38    0.56
   7   5  -6    0.07    0.17
   6   5  -6    0.30    0.17
   5   5  -6    0.35    0.16
   4   5  -6    3.41    0.32
  -4  -5   6    3.78    0.27
   3   5  -6   12.44    0.55
  -3  -5   6   13.24    0.51
   2   5  -6   16.77    0.66
  -2  -5   6   16.45    0.61
   1   5  -6    4.19    0.33
  -1  -5   6    4.63    0.29
   0   5  -6   10.20    0.51
   0  -5   6   11.07    0.48
   0  -5   6   10.69    0.32
  -1   5  -6   11.35    0.55
   1  -5   6   12.33    0.54
  -2   5  -6    0.13    0.15
   2  -5   6   -0.01    0.11
  -3   5  -6    6.19    0.46
  -4   5  -6   -0.06    0.18
  -5   5  -6    2.16    0.37
   9   4  -6    4.58    0.47
   8   4  -6    1.51    0.28
   7   4  -6    0.42    0.19
   6   4  -6   17.01    0.72
  -6  -4   6   17.05    0.69
   5   4  -6    2.93    0.30
  -5  -4   6    3.14    0.29
   4   4  -6    0.32    0.15
  -4  -4   6    0.21    0.11
   3   4  -6   17.53    0.67
  -3  -4   6   18.12    0.63
   2   4  -6   13.78    0.56
  -2  -4   6   13.60    0.52
   1   4  -6   -0.09    0.11
  -1  -4   6    0.04    0.08
   0   4  -6    0.81    0.18
   0  -4   6    0.68    0.15
  -1   4  -6    2.53    0.27
   1  -4   6    2.78    0.28
  -2   4  -6   76.50    2.22
   2  -4   6   79.23    2.21
  -3   4  -6   38.83    1.32
   3  -4   6   41.71    1.31
  -4   4  -6    0.37    0.20
   4  -4   6    0.83    0.22
  -5   4  -6    0.03    0.21
  -6   4  -6    0.17    0.26
   9   3  -6    0.14    0.23
   8   3  -6   -0.01    0.17
   7   3  -6    3.37    0.36
  -7  -3   6    4.05    0.37
   6   3  -6   36.67    1.25
  -6  -3   6   39.05    1.23
   5   3  -6   16.16    0.65
  -5  -3   6   15.89    0.62
   4   3  -6    2.03    0.24
  -4  -3   6    1.79    0.21
   3   3  -6    0.40    0.14
  -3  -3   6    0.53    0.13
   2   3  -6    5.57    0.32
  -2  -3   6    5.43    0.30
   1   3  -6   34.02    1.05
  -1  -3   6   32.97    1.02
   0   3  -6    4.01    0.28
   0  -3   6    3.58    0.25
  -1   3  -6    0.41    0.13
   1  -3   6    0.53    0.14
   1  -3   6    0.51    0.06
  -2   3  -6    9.16    0.46
   2  -3   6    8.80    0.43
  -3   3  -6    1.99    0.24
   3  -3   6    2.24    0.27
  -4   3  -6    2.76    0.31
   4  -3   6    3.05    0.31
  -5   3  -6    6.76    0.51
   5  -3   6    6.63    0.47
  -6   3  -6    7.53    0.58
   6  -3   6    7.49    0.54
  -7   3  -6    4.11    0.50
   9   2  -6    4.13    0.48
   8   2  -6    4.17    0.46
  -8  -2   6    5.00    0.46
   7   2  -6    0.25    0.18
  -7  -2   6    0.26    0.16
   6   2  -6   13.21    0.61
  -6  -2   6   13.65    0.60
   5   2  -6    0.58    0.18
  -5  -2   6    0.30    0.14
   4   2  -6    7.10    0.38
  -4  -2   6    7.69    0.38
   3   2  -6   17.91    0.64
  -3  -2   6   17.94    0.63
   2   2  -6   40.90    1.21
  -2  -2   6   41.23    1.20
   1   2  -6   10.15    0.43
  -1  -2   6   10.62    0.43
   0   2  -6    6.42    0.34
   0  -2   6    6.65    0.33
  -1   2  -6    1.13    0.17
   1  -2   6    1.13    0.11
   1  -2   6    1.25    0.18
  -2   2  -6    0.08    0.11
   2  -2   6    0.11    0.10
  -3   2  -6    0.91    0.17
   3  -2   6    1.04    0.18
  -4   2  -6    8.83    0.49
  -4   2  -6    8.78    0.31
   4  -2   6    8.66    0.48
  -5   2  -6    5.56    0.42
  -5   2  -6    3.96    0.22
   5  -2   6    4.42    0.37
  -6   2  -6   -0.07    0.18
   6  -2   6    0.13    0.16
  -7   2  -6    4.57    0.49
   7  -2   6    5.59    0.56
  -8   2  -6    0.47    0.30
   8  -2   6    0.08    0.23
   9   1  -6    2.50    0.38
   8   1  -6    2.60    0.35
  -8  -1   6    2.89    0.39
   7   1  -6    8.99    0.54
  -7  -1   6    9.55    0.54
   6   1  -6   16.36    0.70
  -6  -1   6   15.69    0.67
   5   1  -6    0.87    0.19
  -5  -1   6    1.00    0.20
   4   1  -6   22.96    0.80
  -4  -1   6   23.98    0.80
   3   1  -6   14.87    0.55
  -3  -1   6   14.18    0.54
   2   1  -6    0.05    0.09
  -2  -1   6    0.09    0.09
   1   1  -6   35.45    1.06
  -1  -1   6   35.90    1.05
   0   1  -6    6.30    0.32
   0  -1   6    6.38    0.31
  -1   1  -6  180.44    4.61
   1  -1   6  177.23    4.61
   1  -1   6  179.62    4.39
  -2   1  -6   70.49    1.96
   2  -1   6   71.44    1.96
  -3   1  -6   14.10    0.57
  -3   1  -6   14.39    0.45
   3  -1   6   15.04    0.58
  -4   1  -6    4.10    0.22
  -4   1  -6    4.32    0.33
   4  -1   6    3.90    0.31
  -5   1  -6    2.05    0.27
  -5   1  -6    2.42    0.20
   5  -1   6    2.28    0.27
  -6   1  -6    0.61    0.22
   6  -1   6    0.33    0.19
  -7   1  -6    0.61    0.24
   7  -1   6    0.78    0.23
  -8   1  -6    1.56    0.35
   8  -1   6    1.09    0.29
   9   0  -6    0.20    0.23
  -9   0   6    0.38    0.27
   8   0  -6    4.40    0.45
  -8   0   6    4.96    0.48
   7   0  -6   13.11    0.67
  -7   0   6   13.87    0.67
   6   0  -6   22.36    0.86
  -6   0   6   22.55    0.86
   5   0  -6    6.74    0.40
  -5   0   6    6.43    0.39
   4   0  -6    3.56    0.27
  -4   0   6    3.02    0.27
   3   0  -6   42.84    1.28
  -3   0   6   45.53    1.29
   2   0  -6   19.66    0.65
  -2   0   6   19.22    0.64
   1   0  -6    2.39    0.19
  -1   0   6    2.45    0.20
   0   0  -6    0.16    0.09
   0   0   6    0.12    0.08
   0   0   6    0.14    0.09
  -1   0  -6   20.90    0.67
   1   0   6   20.57    0.61
   1   0   6   20.60    0.67
  -2   0  -6    6.38    0.26
  -2   0  -6    6.07    0.31
   2   0   6    6.13    0.31
  -3   0  -6    0.05    0.07
  -3   0  -6    0.05    0.10
   3   0   6    0.15    0.10
  -4   0  -6    0.23    0.10
  -4   0  -6    0.06    0.11
   4   0   6    0.20    0.11
  -5   0  -6   14.27    0.61
   5   0   6   14.49    0.62
  -6   0  -6   35.76    1.22
   6   0   6   36.33    1.23
  -7   0  -6    8.33    0.54
   7   0   6    7.79    0.53
  -8   0  -6    1.22    0.29
   8   0   6    0.64    0.25
   9   0   6    0.43    0.24
   8  -1  -6    0.60    0.24
  -8   1   6    0.49    0.25
   7  -1  -6    1.47    0.29
  -7   1   6    1.56    0.29
   6  -1  -6    0.60    0.19
  -6   1   6    0.51    0.18
   5  -1  -6    1.48    0.23
  -5   1   6    1.69    0.23
   4  -1  -6    7.11    0.38
  -4   1   6    7.44    0.39
   3  -1  -6   44.67    1.31
  -3   1   6   45.54    1.32
   2  -1  -6   94.90    2.51
  -2   1   6   94.62    2.51
   1  -1  -6    0.00    0.07
  -1   1   6    0.11    0.08
   0  -1  -6    2.67    0.19
   0   1   6    2.68    0.20
   0   1   6    2.92    0.20
   0   1   6    2.69    0.19
  -1  -1  -6   11.73    0.43
  -1  -1  -6   11.26    0.41
   1   1   6   11.53    0.43
   1   1   6   11.51    0.40
   1   1   6   11.77    0.43
  -2  -1  -6    0.72    0.13
  -2  -1  -6    0.38    0.10
   2   1   6    0.46    0.10
  -3  -1  -6   17.57    0.60
  -3  -1  -6   17.19    0.56
   3   1   6   17.10    0.60
  -4  -1  -6    4.78    0.29
   4   1   6    4.78    0.30
  -5  -1  -6   16.14    0.63
   5   1   6   15.78    0.64
  -6  -1  -6   33.11    1.09
   6   1   6   31.39    1.10
  -7  -1  -6    0.52    0.20
   7   1   6    0.76    0.23
  -8  -1  -6    2.36    0.35
   8   1   6    1.72    0.30
   9   1   6    3.49    0.44
   8  -2  -6    0.00    0.19
  -8   2   6    0.33    0.27
   7  -2  -6    0.45    0.21
  -7   2   6    0.10    0.21
   6  -2  -6    4.23    0.40
  -6   2   6    3.61    0.38
   5  -2  -6    1.05    0.21
  -5   2   6    0.86    0.19
   4  -2  -6    5.42    0.33
  -4   2   6    5.64    0.36
   3  -2  -6   21.36    0.73
  -3   2   6   21.68    0.74
   2  -2  -6    7.24    0.33
  -2   2   6    7.34    0.34
   1  -2  -6    7.55    0.31
  -1   2   6    7.93    0.33
  -1   2   6    7.72    0.33
   0  -2  -6   27.96    0.83
   0   2   6   29.57    0.84
   0   2   6   29.08    0.85
  -1  -2  -6    4.17    0.21
  -1  -2  -6    4.07    0.23
   1   2   6    4.40    0.22
   1   2   6    4.40    0.23
   1   2   6    4.31    0.23
  -2  -2  -6   52.32    1.40
  -2  -2  -6   52.40    1.42
   2   2   6   50.39    1.42
   2   2   6   53.59    1.43
  -3  -2  -6   46.74    1.32
  -3  -2  -6   47.43    1.30
   3   2   6   49.34    1.33
   3   2   6   45.17    1.32
  -4  -2  -6    0.20    0.10
   4   2   6    0.19    0.10
  -5  -2  -6    0.07    0.11
   5   2   6    0.01    0.11
  -6  -2  -6    0.29    0.14
   6   2   6    0.07    0.13
  -7  -2  -6    0.09    0.16
   7   2   6    0.20    0.16
   8   2   6   37.80    1.34
   9   2   6    9.61    0.64
  -8   3   6    2.51    0.43
  -7   3   6    6.17    0.55
   6  -3  -6   21.32    0.87
  -6   3   6   21.93    0.90
   5  -3  -6    5.14    0.37
  -5   3   6    4.96    0.40
   4  -3  -6   35.02    1.10
  -4   3   6   33.56    1.11
   3  -3  -6   17.06    0.62
  -3   3   6   17.61    0.64
   2  -3  -6    1.19    0.15
  -2   3   6    1.13    0.16
  -2   3   6    1.19    0.16
   1  -3  -6   16.64    0.55
  -1   3   6   18.05    0.58
  -1   3   6   17.52    0.60
  -1   3   6   17.32    0.57
   0  -3  -6   60.72    1.59
   0   3   6   60.49    1.62
   0   3   6   61.49    1.61
   0   3   6   59.08    1.62
  -1  -3  -6  115.39    2.91
  -1  -3  -6  114.13    2.91
   1   3   6  111.20    2.94
   1   3   6  116.77    2.94
   1   3   6  114.08    2.90
  -2  -3  -6   37.07    1.06
  -2  -3  -6   36.52    1.02
   2   3   6   37.44    1.04
   2   3   6   37.40    1.04
  -3  -3  -6    4.32    0.22
  -3  -3  -6    3.98    0.26
   3   3   6    4.48    0.23
   3   3   6    4.21    0.23
  -4  -3  -6   47.66    1.35
   4   3   6   49.56    1.37
   4   3   6   48.04    1.38
  -5  -3  -6   83.24    2.26
   5   3   6   84.70    2.30
  -6  -3  -6    8.67    0.42
   6   3   6    7.79    0.43
  -7  -3  -6    0.25    0.15
   7   3   6    0.11    0.15
   8   3   6    5.21    0.43
   9   3   6    1.08    0.28
  -7   4   6   -0.11    0.22
  -6   4   6    0.22    0.24
   5  -4  -6    1.49    0.24
  -5   4   6    1.56    0.27
   4  -4  -6   14.67    0.60
  -4   4   6   14.66    0.63
   3  -4  -6   30.21    0.95
  -3   4   6   29.36    0.97
   2  -4  -6    1.83    0.18
  -2   4   6    2.66    0.25
  -2   4   6    1.93    0.20
  -2   4   6    2.29    0.21
   1  -4  -6    0.71    0.10
  -1   4   6    0.58    0.11
  -1   4   6    0.53    0.12
  -1   4   6    0.43    0.10
   0  -4  -6    5.82    0.22
   0   4   6    5.54    0.25
   0   4   6    5.81    0.25
   0   4   6    5.68    0.29
  -1  -4  -6   85.83    2.29
  -1  -4  -6   88.77    2.23
   1   4   6   90.44    2.29
   1   4   6   89.49    2.28
   1   4   6   86.05    2.28
  -2  -4  -6   19.39    0.52
  -2  -4  -6   18.43    0.63
   2   4   6   18.82    0.57
   2   4   6   18.51    0.57
  -3  -4  -6    0.43    0.13
  -3  -4  -6    0.31    0.07
   3   4   6    0.28    0.08
   3   4   6    0.47    0.09
  -4  -4  -6   43.54    1.18
   4   4   6   42.35    1.20
   4   4   6   41.64    1.20
  -5  -4  -6   19.79    0.66
   5   4   6   19.84    0.69
   5   4   6   21.53    0.70
  -6  -4  -6    1.33    0.18
   6   4   6    0.89    0.18
   7   4   6    0.63    0.18
   8   4   6    0.20    0.17
   9   4   6    5.30    0.50
  10   4   6    2.39    0.38
  -7   5   6    7.83    0.66
  -6   5   6    1.75    0.34
  -5   5   6    0.91    0.25
  -4   5   6   19.02    0.77
   3  -5  -6    4.69    0.30
  -3   5   6    4.70    0.34
   2  -5  -6    1.36    0.16
  -2   5   6    1.55    0.20
  -2   5   6    1.35    0.18
  -2   5   6    1.00    0.16
   1  -5  -6    1.06    0.12
  -1   5   6    1.27    0.15
  -1   5   6    0.91    0.14
  -1   5   6    1.21    0.18
   0   5   6   10.92    0.39
   0   5   6   10.11    0.38
   0   5   6   10.98    0.43
  -1  -5  -6   61.56    1.68
   1   5   6   62.94    1.61
   1   5   6   59.84    1.61
  -2  -5  -6    6.32    0.33
   2   5   6    5.61    0.23
   2   5   6    5.92    0.23
  -3  -5  -6    7.67    0.38
   3   5   6    7.21    0.28
   3   5   6    7.83    0.28
   4   5   6    2.73    0.19
   4   5   6    3.37    0.19
  -5  -5  -6    0.04    0.08
   5   5   6    0.13    0.09
   5   5   6    0.00    0.07
   6   5   6    1.52    0.19
   7   5   6   11.28    0.53
   8   5   6   11.12    0.57
   9   5   6   10.26    0.60
  10   5   6    1.48    0.32
  -6   6   6   -0.38    0.22
  -5   6   6    0.65    0.25
  -4   6   6    0.00    0.18
  -3   6   6    4.49    0.37
  -2   6   6   26.07    0.87
  -1   6   6   16.82    0.62
  -1   6   6   19.16    0.63
  -1   6   6   19.04    0.65
   0   6   6   24.70    0.81
   0   6   6   26.46    0.76
   0   6   6   24.57    0.75
  -1  -6  -6   31.57    1.00
   1   6   6   32.18    0.90
   1   6   6   34.23    0.91
  -2  -6  -6    8.50    0.40
   2   6   6    8.38    0.28
   2   6   6    8.32    0.28
  -3  -6  -6   31.50    0.99
   3   6   6   32.55    0.86
   3   6   6   31.26    0.86
  -4  -6  -6   42.99    1.30
   4   6   6   44.34    1.19
   4   6   6   43.31    1.19
   5   6   6    0.69    0.12
   5   6   6    0.51    0.11
   6   6   6    4.64    0.29
   7   6   6    0.72    0.17
   8   6   6    0.43    0.18
   9   6   6    1.06    0.26
  -5   7   6    3.98    0.46
  -4   7   6    4.36    0.42
  -3   7   6   14.43    0.65
  -2   7   6    4.62    0.35
  -1   7   6   15.26    0.57
   0   7   6   47.46    1.29
   0   7   6   44.67    1.28
  -1  -7  -6    3.25    0.29
   1   7   6    2.99    0.17
   1   7   6    2.98    0.17
  -2  -7  -6    8.09    0.42
   2   7   6    8.57    0.27
   2   7   6    8.47    0.27
  -3  -7  -6   12.88    0.54
   3   7   6   12.32    0.36
   3   7   6   12.41    0.36
  -4  -7  -6    0.40    0.16
   4   7   6    0.36    0.07
   5   7   6   10.61    0.38
   5   7   6   10.27    0.38
   6   7   6    9.18    0.39
   7   7   6    0.01    0.10
   8   7   6   10.49    0.52
   9   7   6    1.46    0.27
  -4   8   6    0.49    0.23
  -3   8   6    0.07    0.18
  -2   8   6    1.67    0.24
  -1   8   6    5.56    0.34
   0   8   6    9.73    0.40
  -1  -8  -6    1.08    0.20
   1   8   6    0.93    0.12
   1   8   6    1.05    0.13
  -2  -8  -6    1.50    0.22
   2   8   6    1.77    0.11
   2   8   6    1.87    0.11
  -3  -8  -6    4.78    0.34
  -4  -8  -6    1.42    0.24
  -5  -8  -6    4.14    0.39
   5   8   6    3.80    0.19
   5   8   6    3.73    0.19
   6   8   6    1.75    0.18
   7   8   6   16.74    0.62
   8   8   6   16.06    0.65
   9   8   6    3.22    0.35
  -3   9   6    2.99    0.36
  -2   9   6    2.27    0.30
  -1   9   6    7.09    0.40
   0   9   6   14.32    0.54
   1   9   6    2.27    0.18
  -2  -9  -6    5.54    0.38
  -3  -9  -6    5.88    0.39
  -4  -9  -6   12.41    0.58
  -5  -9  -6   11.60    0.58
  -6  -9  -6    1.30    0.26
   6   9   6    1.43    0.15
   7   9   6    0.25    0.11
   8   9   6    0.97    0.18
  -1  10   6    1.69    0.24
   0  10   6    0.07    0.12
   1  10   6    4.99    0.26
  -2 -10  -6   14.11    0.65
  -3 -10  -6    8.44    0.49
  -4 -10  -6    3.92    0.37
  -5 -10  -6    0.59    0.20
  -6 -10  -6    3.72    0.40
  -7 -10  -6   11.54    0.66
   7  10   6   11.29    0.42
   8  10   6    3.70    0.27
   1  11   6   12.63    0.46
  -3 -11  -6    2.82    0.34
  -4 -11  -6    0.66    0.22
  -5 -11  -6    0.15    0.18
  -6 -11  -6    6.40    0.49
   4   9  -7    0.93    0.25
   3   9  -7    1.34    0.28
   2   9  -7    1.44    0.30
   6   8  -7    3.83    0.40
   5   8  -7   12.09    0.65
   4   8  -7    9.37    0.57
   3   8  -7    1.75    0.29
   2   8  -7    0.16    0.19
   1   8  -7    6.09    0.49
   0   8  -7    4.35    0.45
  -1   8  -7    0.13    0.22
   7   7  -7    1.74    0.31
   6   7  -7    0.58    0.21
   5   7  -7    1.99    0.29
   4   7  -7    5.75    0.44
   3   7  -7   13.46    0.65
   2   7  -7    0.37    0.19
   1   7  -7    7.69    0.52
   0   7  -7    8.41    0.54
  -1   7  -7    0.02    0.18
  -2   7  -7    3.31    0.40
  -3   7  -7   -0.12    0.23
   8   6  -7    0.54    0.24
   7   6  -7    0.61    0.23
   6   6  -7    4.16    0.41
   5   6  -7   15.06    0.68
   4   6  -7    3.36    0.35
   3   6  -7    1.70    0.25
   2   6  -7    1.12    0.23
   1   6  -7    5.29    0.42
   0   6  -7    7.14    0.47
  -1   6  -7    1.26    0.26
  -2   6  -7    5.59    0.47
  -3   6  -7    2.83    0.39
  -4   6  -7    4.26    0.50
   8   5  -7    0.01    0.20
   7   5  -7    4.00    0.42
   6   5  -7    3.86    0.37
   5   5  -7    1.96    0.26
   4   5  -7    7.40    0.44
   3   5  -7    2.73    0.30
  -3  -5   7    2.79    0.27
   2   5  -7   28.26    0.98
  -2  -5   7   28.01    0.93
   1   5  -7   11.67    0.56
  -1  -5   7   11.06    0.50
   0   5  -7    2.49    0.30
   0  -5   7    2.71    0.14
   0  -5   7    2.67    0.27
  -1   5  -7    9.38    0.51
   1  -5   7    7.69    0.46
  -2   5  -7    7.73    0.51
  -3   5  -7    0.35    0.22
  -4   5  -7    1.20    0.31
  -5   5  -7    0.45    0.28
   9   4  -7    4.16    0.46
   8   4  -7    1.28    0.29
   7   4  -7    0.75    0.23
   6   4  -7    0.41    0.19
   5   4  -7    0.42    0.17
  -5  -4   7    1.22    0.21
   4   4  -7    8.55    0.46
  -4  -4   7    8.62    0.43
   3   4  -7    0.62    0.17
  -3  -4   7    0.73    0.16
   2   4  -7   27.18    0.93
  -2  -4   7   27.18    0.89
   1   4  -7   34.34    1.12
  -1  -4   7   34.51    1.09
   0   4  -7    7.57    0.43
   0  -4   7    7.61    0.29
   0  -4   7    7.80    0.41
  -1   4  -7    0.12    0.13
   1  -4   7    0.24    0.14
  -2   4  -7   14.21    0.65
   2  -4   7   14.43    0.63
  -3   4  -7   11.37    0.61
   3  -4   7   11.60    0.58
  -4   4  -7    2.00    0.32
   4  -4   7    1.78    0.29
  -5   4  -7    0.44    0.25
  -6   4  -7    3.34    0.46
   9   3  -7    0.03    0.21
   8   3  -7    2.39    0.35
   7   3  -7    1.04    0.24
   6   3  -7    7.98    0.49
  -6  -3   7    7.66    0.45
   5   3  -7   18.83    0.76
  -5  -3   7   20.29    0.75
   4   3  -7    9.85    0.49
  -4  -3   7   10.65    0.47
   3   3  -7    0.60    0.16
  -3  -3   7    0.51    0.13
   2   3  -7   13.85    0.58
  -2  -3   7   14.57    0.56
   1   3  -7   26.83    0.90
  -1  -3   7   26.44    0.88
   0   3  -7    7.60    0.41
   0  -3   7    7.78    0.39
  -1   3  -7   12.08    0.55
   1  -3   7   13.08    0.55
   1  -3   7   13.04    0.39
  -2   3  -7    1.69    0.24
   2  -3   7    1.63    0.23
  -3   3  -7   11.77    0.58
   3  -3   7   11.20    0.55
  -4   3  -7    2.55    0.32
   4  -3   7    3.91    0.37
  -5   3  -7    0.58    0.25
   5  -3   7    1.06    0.26
  -6   3  -7    0.12    0.22
   6  -3   7   -0.05    0.19
  -7   3  -7    0.69    0.29
   9   2  -7   -0.01    0.20
   8   2  -7    7.46    0.55
   7   2  -7   -0.10    0.15
  -7  -2   7    0.30    0.18
   6   2  -7   10.79    0.57
  -6  -2   7   11.69    0.56
   5   2  -7   26.33    0.93
  -5  -2   7   25.34    0.91
   4   2  -7    1.36    0.20
  -4  -2   7    1.77    0.21
   3   2  -7    5.96    0.35
  -3  -2   7    6.97    0.35
   2   2  -7    2.62    0.25
  -2  -2   7    2.91    0.24
   1   2  -7   73.54    2.03
  -1  -2   7   72.40    2.02
   0   2  -7   44.92    1.32
   0  -2   7   43.04    1.30
  -1   2  -7    1.40    0.19
   1  -2   7    1.80    0.22
   1  -2   7    1.67    0.14
  -2   2  -7    1.35    0.21
   2  -2   7    1.80    0.23
  -3   2  -7   28.26    0.99
   3  -2   7   28.72    0.98
  -4   2  -7    4.69    0.38
   4  -2   7    5.58    0.39
  -5   2  -7   18.29    0.56
  -5   2  -7   18.41    0.79
   5  -2   7   17.06    0.77
  -6   2  -7   18.42    0.85
   6  -2   7   18.11    0.84
  -7   2  -7    4.02    0.47
   7  -2   7    3.49    0.43
   9   1  -7    1.84    0.38
   8   1  -7    9.20    0.62
  -8  -1   7   11.08    0.63
   7   1  -7    0.27    0.20
  -7  -1   7    0.07    0.17
   6   1  -7    3.43    0.36
  -6  -1   7    3.67    0.35
   5   1  -7   20.29    0.78
  -5  -1   7   19.67    0.75
   4   1  -7   11.69    0.52
  -4  -1   7   12.32    0.52
   3   1  -7   34.21    1.06
  -3  -1   7   32.91    1.04
   2   1  -7   32.78    1.03
  -2  -1   7   33.86    1.03
   1   1  -7   23.56    0.79
  -1  -1   7   24.36    0.79
   0   1  -7   12.84    0.51
   0  -1   7   12.50    0.50
  -1   1  -7   29.33    0.94
   1  -1   7   29.50    0.84
   1  -1   7   31.15    0.96
  -2   1  -7   20.47    0.72
   2  -1   7   20.88    0.73
  -3   1  -7    1.35    0.14
  -3   1  -7    1.39    0.21
   3  -1   7    1.75    0.23
  -4   1  -7    8.59    0.34
  -4   1  -7    8.14    0.45
   4  -1   7    7.71    0.44
  -5   1  -7   16.12    0.69
  -5   1  -7   14.82    0.52
   5  -1   7   14.08    0.66
  -6   1  -7    2.24    0.22
  -6   1  -7    1.94    0.31
   6  -1   7    2.16    0.31
  -7   1  -7    0.12    0.22
   7  -1   7    0.21    0.18
  -8   1  -7    0.06    0.25
   8  -1   7    0.19    0.22
   9   0  -7    2.30    0.40
  -9   0   7    2.56    0.40
   8   0  -7    0.04    0.19
  -8   0   7    0.25    0.22
   7   0  -7    4.44    0.45
  -7   0   7    3.40    0.38
   6   0  -7   16.94    0.74
  -6   0   7   18.35    0.75
   5   0  -7   31.39    1.07
  -5   0   7   31.60    1.06
   4   0  -7    4.50    0.32
  -4   0   7    4.89    0.32
   3   0  -7    6.03    0.34
  -3   0   7    6.82    0.35
   2   0  -7    1.51    0.18
  -2   0   7    1.33    0.18
   1   0  -7    0.24    0.11
  -1   0   7    0.27    0.11
   0   0  -7    6.31    0.32
   0   0   7    6.31    0.29
   0   0   7    6.22    0.32
  -1   0  -7   24.35    0.78
   1   0   7   24.98    0.72
   1   0   7   23.32    0.78
  -2   0  -7   65.29    1.85
  -2   0  -7   69.06    1.75
   2   0   7   65.67    1.86
  -3   0  -7   20.45    0.64
  -3   0  -7   21.37    0.73
   3   0   7   19.95    0.72
  -4   0  -7    4.19    0.31
  -4   0  -7    3.55    0.23
  -5   0  -7    1.05    0.16
  -5   0  -7    1.06    0.20
   5   0   7    1.19    0.21
  -6   0  -7    6.00    0.45
  -6   0  -7    6.49    0.35
   6   0   7    6.72    0.45
  -7   0  -7    4.62    0.46
   7   0   7    5.02    0.49
  -8   0  -7    0.31    0.24
   8   0   7    0.01    0.18
   8  -1  -7   -0.11    0.19
  -8   1   7    0.32    0.24
   7  -1  -7    6.70    0.49
  -7   1   7    5.88    0.49
   6  -1  -7   14.55    0.67
  -6   1   7   14.12    0.67
   5  -1  -7    0.28    0.15
  -5   1   7    0.16    0.15
   4  -1  -7    2.81    0.27
  -4   1   7    3.05    0.30
   3  -1  -7    0.11    0.11
  -3   1   7    0.00    0.11
   2  -1  -7   15.91    0.58
  -2   1   7   16.32    0.58
   1  -1  -7   30.59    0.93
  -1   1   7   30.69    0.93
   0  -1  -7    0.20    0.10
   0   1   7    0.19    0.10
   0   1   7    0.14    0.09
  -1  -1  -7   34.30    1.01
   1   1   7   33.43    1.02
   1   1   7   34.02    0.97
  -2  -1  -7   54.01    1.46
  -2  -1  -7   54.88    1.52
   2   1   7   54.46    1.53
  -3  -1  -7    0.54    0.14
  -3  -1  -7    0.74    0.13
   3   1   7    0.59    0.13
  -4  -1  -7   41.01    1.17
  -4  -1  -7   40.80    1.24
  -5  -1  -7   10.11    0.49
  -5  -1  -7   10.51    0.45
   5   1   7   10.51    0.50
  -6  -1  -7   18.27    0.74
   6   1   7   17.50    0.75
  -7  -1  -7    6.77    0.48
   7   1   7    7.06    0.49
  -8  -1  -7    0.51    0.23
   8   1   7    0.38    0.23
   9   1   7   -0.08    0.21
   8  -2  -7    0.05    0.21
  -8   2   7    0.05    0.25
   7  -2  -7    5.85    0.48
  -7   2   7    6.23    0.53
   6  -2  -7    0.11    0.16
  -6   2   7    0.15    0.19
   5  -2  -7   15.67    0.66
  -5   2   7   14.70    0.66
   4  -2  -7    2.71    0.28
  -4   2   7    3.06    0.30
   3  -2  -7    9.36    0.43
  -3   2   7    9.21    0.43
   2  -2  -7   68.82    1.88
  -2   2   7   68.43    1.89
   1  -2  -7   57.67    1.62
  -1   2   7   56.98    1.63
  -1   2   7   63.35    1.69
   0  -2  -7    0.16    0.08
   0   2   7    0.12    0.08
   0   2   7    0.02    0.08
   0   2   7    0.02    0.08
  -1  -2  -7   68.89    1.79
  -1  -2  -7   66.31    1.80
   1   2   7   70.63    1.82
   1   2   7   64.52    1.82
   1   2   7   65.03    1.77
  -2  -2  -7    5.42    0.28
  -2  -2  -7    5.54    0.28
   2   2   7    5.80    0.28
   2   2   7    5.00    0.27
  -3  -2  -7   22.91    0.74
  -3  -2  -7   24.16    0.76
   3   2   7   25.58    0.83
   3   2   7   23.10    0.77
  -4  -2  -7   26.93    0.85
  -4  -2  -7   28.15    0.88
   4   2   7   26.52    0.88
  -5  -2  -7    9.16    0.43
   5   2   7    8.95    0.45
  -6  -2  -7    1.52    0.22
   6   2   7    1.24    0.21
  -7  -2  -7   -0.03    0.16
   7   2   7    0.01    0.15
   8   2   7    0.35    0.20
   9   2   7    7.06    0.58
  -8   3   7    2.41    0.42
  -7   3   7    3.67    0.44
   6  -3  -7    2.19    0.32
  -6   3   7    2.38    0.34
   5  -3  -7    2.54    0.29
  -5   3   7    1.76    0.28
   4  -3  -7    0.23    0.14
  -4   3   7    0.27    0.16
   3  -3  -7   -0.01    0.10
  -3   3   7    0.17    0.13
   2  -3  -7   27.16    0.85
  -2   3   7   27.29    0.86
   1  -3  -7    0.08    0.07
  -1   3   7    0.17    0.09
  -1   3   7    0.05    0.09
  -1   3   7   -0.08    0.07
   0  -3  -7  133.35    3.44
   0   3   7  130.64    3.40
   0   3   7  140.29    3.47
   0   3   7  132.43    3.46
  -1  -3  -7   26.63    0.79
   1   3   7   29.14    0.83
   1   3   7   26.14    0.81
  -2  -3  -7    9.74    0.40
  -2  -3  -7    9.13    0.35
   2   3   7    9.62    0.37
   2   3   7    9.13    0.37
  -3  -3  -7   22.55    0.74
  -3  -3  -7   22.88    0.71
   3   3   7   23.69    0.73
   3   3   7   22.31    0.72
  -4  -3  -7    0.12    0.09
  -4  -3  -7    0.14    0.12
   4   3   7    0.17    0.09
   4   3   7    0.09    0.09
  -5  -3  -7   26.82    0.86
   5   3   7   25.79    0.88
  -6  -3  -7    0.03    0.11
   6   3   7    0.21    0.13
  -7  -3  -7    3.52    0.36
   7   3   7    3.27    0.35
   8   3   7   17.07    0.79
   9   3   7   11.11    0.68
  -7   4   7    1.72    0.35
  -6   4   7    0.35    0.23
   5  -4  -7    1.04    0.22
  -5   4   7    1.03    0.23
   4  -4  -7    1.74    0.23
  -4   4   7    2.06    0.27
   3  -4  -7    8.36    0.40
  -3   4   7    8.72    0.44
   2  -4  -7    4.94    0.27
  -2   4   7    4.80    0.30
  -2   4   7    5.31    0.31
   1  -4  -7    5.68    0.27
  -1   4   7    5.70    0.32
  -1   4   7    6.90    0.31
  -1   4   7    5.73    0.30
   0  -4  -7   31.31    0.89
   0   4   7   31.12    0.93
   0   4   7   32.56    0.93
   0   4   7   32.02    0.96
  -1  -4  -7   11.35    0.46
  -1  -4  -7   11.49    0.37
   1   4   7   10.99    0.40
   1   4   7   11.65    0.45
   1   4   7   11.13    0.41
  -2  -4  -7    0.04    0.10
  -2  -4  -7    0.16    0.06
   2   4   7    0.13    0.07
   2   4   7    0.17    0.08
  -3  -4  -7   -0.04    0.06
  -3  -4  -7   -0.03    0.11
   3   4   7   -0.01    0.06
   3   4   7    0.01    0.07
  -4  -4  -7   12.95    0.45
  -4  -4  -7   12.30    0.52
   4   4   7   12.48    0.48
   4   4   7   12.79    0.47
  -5  -4  -7   29.78    0.90
   5   4   7   29.47    0.93
   5   4   7   28.39    0.93
  -6  -4  -7    3.21    0.25
   6   4   7    2.62    0.27
   7   4   7    0.41    0.17
   8   4   7   -0.10    0.14
   9   4   7    0.11    0.20
  -6   5   7   -0.09    0.23
  -5   5   7    0.12    0.19
  -4   5   7    7.59    0.47
   3  -5  -7   33.24    1.03
  -3   5   7   31.48    1.06
   2  -5  -7    9.48    0.40
  -2   5   7    9.02    0.43
  -2   5   7    9.41    0.43
   1  -5  -7    0.12    0.07
  -1   5   7    0.07    0.10
  -1   5   7    0.00    0.08
   0  -5  -7    0.73    0.09
   0   5   7    0.47    0.13
   0   5   7    0.75    0.12
   0   5   7    0.62    0.11
  -1  -5  -7    0.32    0.13
   1   5   7    0.14    0.09
   1   5   7    0.18    0.08
   1   5   7    0.25    0.07
  -2  -5  -7   19.23    0.69
   2   5   7   20.94    0.61
   2   5   7   19.44    0.61
  -3  -5  -7   10.23    0.47
   3   5   7   11.67    0.39
   3   5   7   10.37    0.38
  -4  -5  -7   16.84    0.65
   4   5   7   18.24    0.58
   4   5   7   17.69    0.59
  -5  -5  -7   45.34    1.24
   5   5   7   44.56    1.29
   5   5   7   44.19    1.30
   6   5   7   22.48    0.79
   7   5   7    4.22    0.35
   8   5   7   12.70    0.63
   9   5   7    2.63    0.36
  -6   6   7    4.86    0.52
  -5   6   7    0.64    0.25
  -4   6   7    0.37    0.21
  -3   6   7    8.98    0.48
  -2   6   7    0.08    0.13
  -1   6   7   33.84    1.02
  -1   6   7   32.53    1.01
   0   6   7   20.06    0.63
   0   6   7   18.70    0.62
  -1  -6  -7   12.75    0.53
   1   6   7   12.33    0.41
   1   6   7   11.86    0.41
  -2  -6  -7    2.93    0.26
   2   6   7    2.71    0.16
   2   6   7    2.75    0.17
  -3  -6  -7    2.52    0.26
   3   6   7    2.91    0.17
   3   6   7    2.71    0.16
  -4  -6  -7    4.82    0.34
   4   6   7    4.43    0.23
   4   6   7    4.56    0.22
  -5  -6  -7    2.16    0.26
   5   6   7    2.91    0.21
   5   6   7    2.68    0.20
   6   6   7    3.01    0.25
   7   6   7   10.34    0.50
   8   6   7   10.25    0.55
   9   6   7    9.09    0.56
  -5   7   7    5.68    0.53
  -4   7   7    2.80    0.35
  -3   7   7   -0.08    0.16
  -2   7   7   11.40    0.53
  -1   7   7    9.10    0.42
   0   7   7   -0.02    0.09
   0   7   7    0.02    0.10
  -1  -7  -7   14.40    0.60
   1   7   7   14.73    0.47
   1   7   7   13.57    0.47
  -2  -7  -7   59.82    1.70
   2   7   7   60.14    1.56
   2   7   7   58.72    1.56
  -3  -7  -7   18.55    0.72
   3   7   7   19.29    0.56
   3   7   7   19.81    0.56
  -4  -7  -7   68.31    1.98
   4   7   7   69.77    1.84
   4   7   7   72.40    1.84
  -5  -7  -7   11.80    0.57
   5   7   7   12.97    0.45
   5   7   7   12.90    0.45
   6   7   7    2.80    0.23
   7   7   7    0.40    0.14
   8   7   7    1.68    0.25
   9   7   7    7.92    0.51
  -4   8   7    6.55    0.53
  -3   8   7    1.72    0.28
  -2   8   7   -0.03    0.14
  -1   8   7   -0.12    0.12
   0   8   7    4.12    0.26
   1   8   7    5.65    0.26
   1   8   7    5.57    0.26
  -2  -8  -7    5.53    0.38
   2   8   7    5.83    0.22
   2   8   7    5.82    0.23
  -3  -8  -7    7.38    0.44
  -4  -8  -7   28.57    1.00
   4   8   7   29.16    0.79
   4   8   7   29.08    0.78
  -5  -8  -7    8.64    0.50
   5   8   7    8.49    0.32
   5   8   7    8.92    0.33
  -6  -8  -7    1.02    0.23
   6   8   7    1.64    0.18
   7   8   7    2.59    0.25
   8   8   7    7.05    0.42
   9   8   7    2.66    0.33
  -3   9   7    0.20    0.20
  -2   9   7    0.15    0.18
  -1   9   7    3.96    0.32
   0   9   7   21.04    0.71
   1   9   7   14.84    0.50
  -2  -9  -7    0.30    0.15
   2   9   7    0.33    0.07
   2   9   7    0.29    0.07
  -3  -9  -7    1.03    0.21
  -4  -9  -7    0.30    0.17
  -5  -9  -7    7.67    0.48
  -6  -9  -7    5.63    0.48
  -7  -9  -7    1.34    0.29
   7   9   7    1.55    0.19
   8   9   7    5.04    0.34
  -1  10   7    0.02    0.14
   0  10   7    4.12    0.29
   1  10   7    2.73    0.21
  -2 -10  -7    3.15    0.36
  -3 -10  -7    7.29    0.47
  -4 -10  -7   12.58    0.63
  -5 -10  -7    5.17    0.46
  -6 -10  -7    0.01    0.19
  -7 -10  -7    0.38    0.22
   8  10   7   -0.01    0.11
   1  11   7    0.68    0.13
  -3 -11  -7    2.45    0.32
  -4 -11  -7    1.48    0.27
  -5 -11  -7    0.43    0.20
  -6 -11  -7    0.79    0.26
   5   8  -8    5.58    0.52
   4   8  -8    4.97    0.47
   3   8  -8    0.93    0.27
   2   8  -8   -0.10    0.20
   1   8  -8    0.96    0.28
   0   8  -8    0.26    0.24
   7   7  -8   -0.19    0.16
   6   7  -8    0.05    0.18
   5   7  -8    0.50    0.21
   4   7  -8   13.55    0.69
   3   7  -8    2.16    0.31
   2   7  -8    0.07    0.18
   1   7  -8    0.12    0.19
   0   7  -8    4.26    0.45
  -1   7  -8    9.90    0.65
  -2   7  -8    2.77    0.41
   8   6  -8    3.84    0.45
   7   6  -8    0.75    0.25
   6   6  -8    0.41    0.21
   5   6  -8    2.97    0.36
   4   6  -8    0.83    0.23
   3   6  -8    6.82    0.47
   2   6  -8    3.46    0.36
   1   6  -8    2.62    0.32
   0   6  -8   10.78    0.60
  -1   6  -8    3.38    0.40
  -2   6  -8    7.13    0.55
  -3   6  -8    2.32    0.38
  -4   6  -8   -0.33    0.23
   8   5  -8    3.27    0.42
   7   5  -8    0.28    0.22
   6   5  -8    3.27    0.35
   5   5  -8    3.25    0.35
   4   5  -8    1.63    0.26
   3   5  -8    6.96    0.45
   2   5  -8    0.07    0.16
  -2  -5   8    0.50    0.16
   1   5  -8    0.42    0.18
  -1  -5   8    0.33    0.15
   0   5  -8   13.36    0.64
   0  -5   8   13.31    0.63
  -1   5  -8   -0.03    0.17
  -2   5  -8   14.37    0.71
  -3   5  -8   12.46    0.70
  -4   5  -8    2.89    0.41
  -5   5  -8    2.23    0.40
   8   4  -8   -0.09    0.19
   7   4  -8    0.35    0.22
   6   4  -8    7.35    0.49
   5   4  -8   10.70    0.57
  -5  -4   8   11.56    0.54
   4   4  -8    5.44    0.40
  -4  -4   8    6.00    0.37
   3   4  -8    0.66    0.19
  -3  -4   8    0.46    0.15
   2   4  -8    8.95    0.49
  -2  -4   8    8.86    0.44
   1   4  -8   24.15    0.88
  -1  -4   8   22.51    0.82
   0   4  -8   14.68    0.67
   0  -4   8   17.02    0.52
   0  -4   8   16.59    0.66
  -1   4  -8    6.94    0.46
   1  -4   8    7.22    0.43
  -2   4  -8    5.85    0.44
   2  -4   8    6.17    0.41
  -3   4  -8    1.93    0.31
   3  -4   8    2.29    0.30
  -4   4  -8   -0.05    0.21
  -5   4  -8   -0.02    0.25
  -6   4  -8    1.11    0.33
   8   3  -8    7.59    0.56
   7   3  -8    1.23    0.27
   6   3  -8    1.89    0.30
  -6  -3   8    1.91    0.27
   5   3  -8   -0.15    0.14
  -5  -3   8    0.04    0.13
   4   3  -8    1.79    0.25
  -4  -3   8    2.77    0.30
   3   3  -8   11.46    0.56
  -3  -3   8   13.53    0.55
   2   3  -8   14.70    0.62
  -2  -3   8   14.68    0.59
   1   3  -8   23.44    0.85
  -1  -3   8   23.61    0.82
   0   3  -8    1.94    0.26
   0  -3   8    1.93    0.18
   0  -3   8    1.84    0.24
  -1   3  -8   10.56    0.53
   1  -3   8   10.60    0.36
   1  -3   8   11.34    0.52
  -2   3  -8    2.01    0.26
   2  -3   8    2.55    0.29
  -3   3  -8    4.39    0.40
   3  -3   8    5.33    0.39
  -4   3  -8   19.70    0.86
   4  -3   8   19.75    0.84
  -5   3  -8    1.61    0.32
   5  -3   8    1.79    0.30
  -6   3  -8    1.40    0.35
   6  -3   8    1.12    0.29
   8   2  -8    8.73    0.59
   7   2  -8    3.26    0.38
  -7  -2   8    3.74    0.40
   6   2  -8    3.76    0.37
  -6  -2   8    3.41    0.35
   5   2  -8   12.58    0.60
  -5  -2   8   13.73    0.60
   4   2  -8   16.51    0.68
  -4  -2   8   17.20    0.67
   3   2  -8    7.16    0.41
  -3  -2   8    7.31    0.39
   2   2  -8    0.20    0.14
  -2  -2   8    0.25    0.11
   1   2  -8   35.50    1.11
  -1  -2   8   34.11    1.09
   0   2  -8    1.54    0.23
   0  -2   8    1.75    0.17
   0  -2   8    1.09    0.18
  -1   2  -8    8.77    0.44
   1  -2   8    8.61    0.32
   1  -2   8    7.71    0.42
  -2   2  -8   15.98    0.66
   2  -2   8   16.25    0.66
  -3   2  -8    9.14    0.50
   3  -2   8    8.81    0.48
  -4   2  -8    0.91    0.24
   4  -2   8    0.78    0.21
  -5   2  -8    0.02    0.19
   5  -2   8   -0.18    0.15
  -6   2  -8    3.66    0.44
   6  -2   8    2.20    0.36
  -7   2  -8    0.54    0.28
   7  -2   8    0.71    0.28
   8   1  -8    0.68    0.26
  -8  -1   8    0.66    0.25
   7   1  -8    3.13    0.37
  -7  -1   8    4.07    0.42
   6   1  -8    7.22    0.48
  -6  -1   8    6.16    0.43
   5   1  -8   28.89    1.04
  -5  -1   8   30.29    1.03
   4   1  -8    1.15    0.20
  -4  -1   8    1.44    0.21
   3   1  -8   20.06    0.73
  -3  -1   8   19.76    0.72
   2   1  -8   42.42    1.28
  -2  -1   8   41.50    1.27
   1   1  -8   19.43    0.70
  -1  -1   8   19.49    0.69
   0   1  -8   17.60    0.67
   0  -1   8   19.25    0.68
   0  -1   8   19.00    0.61
  -1   1  -8   21.03    0.76
   1  -1   8   22.16    0.77
   1  -1   8   21.78    0.67
  -2   1  -8    0.37    0.14
   2  -1   8    0.34    0.13
  -3   1  -8    2.54    0.28
   3  -1   8    2.58    0.29
  -4   1  -8    9.08    0.37
  -4   1  -8    9.33    0.51
   4  -1   8    8.84    0.49
  -5   1  -8    4.76    0.44
  -5   1  -8    5.28    0.29
   5  -1   8    5.31    0.41
  -6   1  -8   23.97    0.82
  -6   1  -8   26.97    1.03
   6  -1   8   26.80    1.04
  -7   1  -8    3.21    0.41
   7  -1   8    4.52    0.50
  -8   1  -8    0.18    0.26
   8  -1   8   -0.08    0.22
   8   0  -8    3.39    0.43
  -8   0   8    3.87    0.43
   7   0  -8    0.15    0.19
  -7   0   8   -0.05    0.19
   6   0  -8    0.45    0.20
  -6   0   8    0.44    0.20
   5   0  -8    1.74    0.26
  -5   0   8    2.10    0.27
   4   0  -8    0.06    0.13
  -4   0   8   -0.08    0.12
   3   0  -8   20.92    0.74
  -3   0   8   19.92    0.73
   2   0  -8   30.50    0.99
  -2   0   8   31.94    1.00
   1   0  -8    0.49    0.13
  -1   0   8    0.51    0.14
   0   0  -8    0.98    0.16
   0   0   8    1.42    0.17
   0   0   8    1.40    0.18
  -1   0  -8    0.67    0.14
   1   0   8    0.49    0.11
   1   0   8    0.66    0.15
  -2   0  -8   25.44    0.85
   2   0   8   25.53    0.86
  -3   0  -8   12.72    0.54
  -3   0  -8   12.65    0.46
   3   0   8   11.85    0.53
  -4   0  -8    0.01    0.10
  -4   0  -8    0.01    0.14
   4   0   8    0.08    0.12
  -5   0  -8   10.09    0.43
  -5   0  -8   10.32    0.54
   5   0   8   10.39    0.55
  -6   0  -8    8.61    0.52
  -6   0  -8    8.82    0.42
   6   0   8    8.03    0.52
  -7   0  -8    2.19    0.34
  -7   0  -8    1.88    0.24
   7   0   8    1.54    0.31
  -8   0  -8    0.20    0.22
   8   0   8    0.18    0.22
   8  -1  -8    0.13    0.21
  -8   1   8    0.00    0.23
   7  -1  -8    4.77    0.45
  -7   1   8    5.46    0.49
   6  -1  -8   15.01    0.70
  -6   1   8   14.65    0.70
   5  -1  -8    2.69    0.32
  -5   1   8    2.64    0.31
   4  -1  -8    1.10    0.21
  -4   1   8    0.63    0.17
   3  -1  -8    5.95    0.35
  -3   1   8    6.14    0.35
   2  -1  -8    4.34    0.29
  -2   1   8    4.78    0.30
   1  -1  -8    3.23    0.24
  -1   1   8    3.06    0.24
   0  -1  -8    0.09    0.10
   0   1   8    0.11    0.10
   0   1   8    0.28    0.10
  -1  -1  -8   11.02    0.45
   1   1   8   10.81    0.46
   1   1   8   10.46    0.42
  -2  -1  -8   64.66    1.72
  -2  -1  -8   62.20    1.78
   2   1   8   62.02    1.79
   2   1   8   66.28    1.71
  -3  -1  -8   25.59    0.78
  -3  -1  -8   25.16    0.84
   3   1   8   24.61    0.84
  -4  -1  -8    0.65    0.14
  -4  -1  -8    0.66    0.16
   4   1   8    0.38    0.14
  -5  -1  -8   10.67    0.46
  -5  -1  -8   10.65    0.52
   5   1   8   10.14    0.52
  -6  -1  -8    4.70    0.33
  -6  -1  -8    4.61    0.39
   6   1   8    3.71    0.38
  -7  -1  -8    0.91    0.26
  -7  -1  -8    1.15    0.21
   7   1   8    1.19    0.26
  -8  -1  -8    3.68    0.35
   8   1   8    4.37    0.48
   9   1   8    1.59    0.36
  -8   2   8    0.20    0.26
   7  -2  -8    0.57    0.22
  -7   2   8    0.16    0.23
   6  -2  -8   26.22    1.00
  -6   2   8   26.04    1.01
   5  -2  -8    7.34    0.45
  -5   2   8    7.08    0.46
   4  -2  -8    5.93    0.37
  -4   2   8    5.41    0.38
   3  -2  -8    8.97    0.43
  -3   2   8    9.20    0.44
   2  -2  -8    9.38    0.42
  -2   2   8    9.59    0.43
   1  -2  -8    0.81    0.14
  -1   2   8    0.78    0.14
   0  -2  -8    2.08    0.19
   0   2   8    2.20    0.21
   0   2   8    2.70    0.23
  -1  -2  -8    7.70    0.35
   1   2   8    8.79    0.39
   1   2   8    8.33    0.37
   1   2   8    8.55    0.37
  -2  -2  -8   17.74    0.62
  -2  -2  -8   18.45    0.63
   2   2   8   18.87    0.62
   2   2   8   17.44    0.63
  -3  -2  -8   16.16    0.58
  -3  -2  -8   15.18    0.58
   3   2   8   16.84    0.60
  -4  -2  -8    5.75    0.33
  -4  -2  -8    5.87    0.34
   4   2   8    5.81    0.35
  -5  -2  -8   16.21    0.62
  -5  -2  -8   15.99    0.64
   5   2   8   16.11    0.66
  -6  -2  -8   58.55    1.68
  -6  -2  -8   60.02    1.76
   6   2   8   58.00    1.78
  -7  -2  -8   17.51    0.75
   7   2   8   17.50    0.78
   8   2   8    0.97    0.27
   9   2   8    1.43    0.33
  -7   3   8   -0.30    0.21
   6  -3  -8    0.16    0.17
  -6   3   8    0.48    0.22
   5  -3  -8    0.75    0.20
  -5   3   8    0.57    0.20
   4  -3  -8   16.45    0.66
  -4   3   8   16.28    0.69
   3  -3  -8   18.90    0.69
  -3   3   8   19.22    0.72
   2  -3  -8   25.02    0.81
  -2   3   8   25.24    0.84
   1  -3  -8   87.78    2.37
  -1   3   8   85.84    2.39
  -1   3   8   93.05    2.38
  -1   3   8   89.47    2.39
   0  -3  -8    0.09    0.08
   0   3   8    0.19    0.10
   0   3   8    0.17    0.09
   0   3   8    0.21    0.10
  -1  -3  -8   84.50    2.31
  -1  -3  -8   86.46    2.31
   1   3   8   86.02    2.34
   1   3   8   88.78    2.31
   1   3   8   92.79    2.35
  -2  -3  -8    9.27    0.37
  -2  -3  -8    9.36    0.42
   2   3   8   10.37    0.40
   2   3   8    9.33    0.40
  -3  -3  -8   10.03    0.41
  -3  -3  -8   10.39    0.44
   3   3   8   10.22    0.42
   3   3   8    9.88    0.42
  -4  -3  -8   15.87    0.58
  -4  -3  -8   15.68    0.60
   4   3   8   17.26    0.66
   4   3   8   16.06    0.61
  -5  -3  -8    3.51    0.27
  -5  -3  -8    3.64    0.30
   5   3   8    2.78    0.27
  -6  -3  -8    4.89    0.36
  -6  -3  -8    5.06    0.35
   6   3   8    5.19    0.37
   7   3   8   -0.07    0.14
   8   3   8    1.25    0.28
   9   3   8    5.28    0.52
  -7   4   8    4.03    0.49
  -6   4   8    0.14    0.22
  -5   4   8    2.92    0.35
   4  -4  -8    8.03    0.44
  -4   4   8    7.34    0.47
   3  -4  -8    0.05    0.11
  -3   4   8   -0.01    0.13
   2  -4  -8    4.04    0.26
  -2   4   8    3.52    0.28
   1  -4  -8    2.62    0.19
  -1   4   8    2.88    0.25
  -1   4   8    2.56    0.23
   0  -4  -8   31.73    0.91
   0   4   8   33.18    0.96
   0   4   8   31.39    0.98
   0   4   8   31.00    0.95
  -1  -4  -8   83.00    2.28
  -1  -4  -8   87.05    2.24
   1   4   8   86.39    2.28
   1   4   8   89.34    2.28
   1   4   8   82.64    2.27
  -2  -4  -8   55.55    1.48
   2   4   8   55.94    1.53
   2   4   8   53.82    1.53
  -3  -4  -8    0.08    0.07
  -3  -4  -8    0.00    0.11
   3   4   8    0.12    0.09
   3   4   8    0.08    0.08
  -4  -4  -8   -0.13    0.11
  -4  -4  -8   -0.01    0.08
   4   4   8    0.04    0.08
   4   4   8   -0.09    0.08
  -5  -4  -8    0.46    0.17
  -5  -4  -8    0.69    0.14
   5   4   8    0.30    0.12
   5   4   8    0.33    0.13
   6   4   8    0.18    0.13
   7   4   8    1.78    0.28
   8   4   8    0.99    0.25
   9   4   8    4.10    0.46
  -6   5   8    1.86    0.36
  -5   5   8    0.25    0.21
  -4   5   8    0.01    0.17
  -3   5   8    9.40    0.50
   2  -5  -8    9.99    0.42
  -2   5   8   10.47    0.48
   1  -5  -8    0.48    0.10
  -1   5   8    0.53    0.13
  -1   5   8    0.44    0.13
   0  -5  -8    0.21    0.07
   0   5   8    0.19    0.09
   0   5   8    0.15    0.09
  -1  -5  -8   17.99    0.51
  -1  -5  -8   16.88    0.64
   1   5   8   16.36    0.55
   1   5   8   15.69    0.55
  -2  -5  -8    0.30    0.13
   2   5   8    0.27    0.09
   2   5   8    0.42    0.10
  -3  -5  -8   28.70    0.94
   3   5   8   29.45    0.87
   3   5   8   28.59    0.87
  -4  -5  -8   11.38    0.40
  -4  -5  -8   12.43    0.53
   4   5   8   11.82    0.45
   4   5   8   11.60    0.45
  -5  -5  -8   21.34    0.81
   5   5   8   23.36    0.77
   5   5   8   21.97    0.75
   6   5   8   38.05    1.20
   7   5   8    6.91    0.43
   8   5   8    2.33    0.32
   9   5   8    0.27    0.20
  -6   6   8    0.59    0.30
  -5   6   8    1.38    0.30
  -4   6   8    5.41    0.44
  -3   6   8   35.87    1.19
  -2   6   8   46.24    1.40
  -1   6   8    0.01    0.11
   0   6   8    0.87    0.14
   0   6   8    0.91    0.14
  -1  -6  -8    7.31    0.42
   1   6   8    7.34    0.32
   1   6   8    7.73    0.32
  -2  -6  -8   52.28    1.52
   2   6   8   52.36    1.42
   2   6   8   52.13    1.42
  -3  -6  -8    4.58    0.33
   3   6   8    4.73    0.23
   3   6   8    4.21    0.24
  -4  -6  -8    0.22    0.15
   4   6   8    0.13    0.08
   4   6   8    0.07    0.08
  -5  -6  -8    0.98    0.22
   5   6   8    1.10    0.16
  -6  -6  -8    2.45    0.31
   6   6   8    2.42    0.25
   7   6   8    8.85    0.47
   8   6   8    7.99    0.49
   9   6   8    3.80    0.42
  -5   7   8    3.07    0.43
  -4   7   8    1.42    0.30
  -3   7   8    0.76    0.22
  -2   7   8    3.02    0.30
  -1   7   8   23.23    0.79
   0   7   8   33.80    1.01
  -1  -7  -8    5.50    0.37
   1   7   8    4.78    0.24
   1   7   8    4.30    0.24
  -2  -7  -8    0.18    0.15
   2   7   8    0.20    0.08
   2   7   8    0.15    0.08
  -3  -7  -8    4.01    0.35
   3   7   8    3.69    0.19
   3   7   8    3.48    0.20
  -4  -7  -8    1.55    0.24
   4   7   8    1.96    0.17
   4   7   8    2.07    0.16
  -5  -7  -8   -0.04    0.15
   5   7   8    0.18    0.09
  -6  -7  -8    0.01    0.17
   6   7   8    0.18    0.10
   7   7   8    0.74    0.17
   8   7   8    9.02    0.50
   9   7   8    2.59    0.34
  -4   8   8    2.35    0.36
  -3   8   8    1.75    0.30
  -2   8   8    0.33    0.18
  -1   8   8    1.58    0.22
   0   8   8   12.45    0.49
   1   8   8    1.25    0.14
   1   8   8    1.08    0.14
  -2  -8  -8    0.33    0.15
   2   8   8    0.30    0.08
   2   8   8    0.23    0.08
  -3  -8  -8    5.36    0.39
   3   8   8    5.14    0.22
   3   8   8    4.93    0.21
  -4  -8  -8   20.25    0.79
   4   8   8   19.30    0.59
   4   8   8   19.82    0.58
  -5  -8  -8   33.01    1.14
   5   8   8   33.32    0.96
  -6  -8  -8    1.09    0.25
  -7  -8  -8    0.05    0.17
   7   8   8    0.45    0.14
   8   8   8   -0.06    0.12
   9   8   8   -0.02    0.15
  -3   9   8    3.95    0.41
  -2   9   8    0.04    0.16
  -1   9   8    0.88    0.18
   0   9   8    0.20    0.13
   1   9   8    8.99    0.37
  -2  -9  -8    5.44    0.41
   2   9   8    4.66    0.22
   2   9   8    5.11    0.22
  -3  -9  -8    2.06    0.28
  -4  -9  -8   13.59    0.65
  -5  -9  -8    8.17    0.51
   5   9   8    8.41    0.30
   5   9   8    8.43    0.31
  -6  -9  -8    0.92    0.25
   6   9   8    0.68    0.13
  -7  -9  -8    8.18    0.55
   7   9   8    6.92    0.36
   8   9   8    3.94    0.32
  -1  10   8    0.81    0.21
   0  10   8    6.05    0.35
   1  10   8   19.19    0.63
  -2 -10  -8    0.10    0.17
  -3 -10  -8    9.85    0.55
  -4 -10  -8    0.67    0.21
  -5 -10  -8    1.03    0.25
  -6 -10  -8    6.93    0.51
  -7 -10  -8    4.25    0.46
   7  10   8    4.04    0.25
   1  11   8    3.01    0.22
  -3 -11  -8   11.72    0.65
  -4 -11  -8   10.01    0.59
  -5 -11  -8    1.81    0.32
  -6 -11  -8    0.37    0.22
   4   8  -9    0.93    0.27
   3   8  -9    0.65    0.26
   2   8  -9    0.68    0.26
   1   8  -9    3.39    0.44
   6   7  -9    1.24    0.29
   5   7  -9   18.67    0.86
   4   7  -9    7.32    0.55
   3   7  -9    1.44    0.29
   2   7  -9    0.48    0.23
   1   7  -9   -0.05    0.20
   0   7  -9    0.31    0.24
  -1   7  -9    0.92    0.31
   7   6  -9    2.71    0.39
   6   6  -9    0.20    0.19
   5   6  -9    0.05    0.17
   4   6  -9   17.86    0.81
   3   6  -9    4.32    0.41
   2   6  -9    0.38    0.21
   1   6  -9    3.96    0.41
   0   6  -9    4.44    0.47
  -1   6  -9    6.71    0.54
  -2   6  -9    0.33    0.25
  -3   6  -9   -0.05    0.24
   8   5  -9    2.40    0.39
   7   5  -9    0.40    0.23
   6   5  -9    1.21    0.26
   5   5  -9    0.83    0.23
   4   5  -9    0.08    0.17
   3   5  -9    0.43    0.19
   2   5  -9   11.11    0.60
   1   5  -9   14.56    0.70
   0   5  -9   14.68    0.71
  -1   5  -9    3.09    0.37
  -2   5  -9    0.29    0.22
  -3   5  -9    7.54    0.58
  -4   5  -9    2.31    0.41
   8   4  -9    1.49    0.32
   7   4  -9    1.43    0.31
   6   4  -9    0.01    0.17
   5   4  -9   12.36    0.63
   4   4  -9    2.76    0.33
  -4  -4   9    3.59    0.34
   3   4  -9    0.53    0.19
  -3  -4   9    0.51    0.16
   2   4  -9    6.36    0.43
  -2  -4   9    6.42    0.40
   1   4  -9    0.27    0.18
  -1  -4   9    0.20    0.13
   0   4  -9   17.36    0.76
   0  -4   9   18.07    0.57
   0  -4   9   17.14    0.72
  -1   4  -9    2.60    0.34
   1  -4   9    3.29    0.35
  -2   4  -9    4.10    0.41
   2  -4   9    4.87    0.40
  -3   4  -9   18.95    0.85
   3  -4   9   17.89    0.81
  -4   4  -9    4.93    0.51
  -5   4  -9    0.41    0.28
   8   3  -9    0.23    0.24
   7   3  -9    0.19    0.21
   6   3  -9    7.07    0.51
  -6  -3   9    6.67    0.45
   5   3  -9    8.81    0.53
  -5  -3   9    8.37    0.49
   4   3  -9    0.91    0.24
  -4  -3   9    1.58    0.25
   3   3  -9    6.56    0.44
  -3  -3   9    7.50    0.42
   2   3  -9    1.02    0.21
  -2  -3   9    1.20    0.20
   1   3  -9   32.27    1.09
  -1  -3   9   32.21    1.07
   0   3  -9   10.32    0.54
   0  -3   9   10.26    0.40
   0  -3   9   10.27    0.51
  -1   3  -9    4.73    0.39
   1  -3   9    4.67    0.23
   1  -3   9    4.75    0.36
  -2   3  -9    0.97    0.22
   2  -3   9    1.49    0.24
  -3   3  -9    7.86    0.52
   3  -3   9    8.36    0.51
  -4   3  -9    0.60    0.24
   4  -3   9    0.58    0.22
  -5   3  -9    1.19    0.32
   5  -3   9    1.02    0.27
  -6   3  -9    0.66    0.31
   8   2  -9    0.54    0.25
   7   2  -9    0.76    0.26
  -7  -2   9    1.70    0.29
   6   2  -9    0.09    0.19
  -6  -2   9    0.09    0.17
   5   2  -9    0.28    0.18
  -5  -2   9    0.24    0.17
   4   2  -9    1.11    0.23
  -4  -2   9    1.22    0.23
   3   2  -9   16.98    0.70
  -3  -2   9   16.75    0.67
   2   2  -9   14.05    0.61
  -2  -2   9   13.91    0.59
   1   2  -9   40.00    1.24
  -1  -2   9   37.60    1.22
   0   2  -9   16.47    0.66
   0  -2   9   15.82    0.55
   0  -2   9   15.28    0.64
  -1   2  -9    0.11    0.14
   1  -2   9   -0.07    0.07
   1  -2   9    0.03    0.13
  -2   2  -9    1.05    0.21
   2  -2   9    0.75    0.18
  -3   2  -9    7.22    0.47
   3  -2   9    6.34    0.44
  -4   2  -9   13.13    0.67
   4  -2   9   13.01    0.66
  -5   2  -9    6.18    0.52
   5  -2   9    6.86    0.51
  -6   2  -9    0.69    0.29
   6  -2   9    1.07    0.28
  -7   2  -9   -0.30    0.24
   7  -2   9    0.07    0.24
   8   1  -9    2.02    0.35
  -8  -1   9    2.42    0.37
   7   1  -9    0.93    0.25
  -7  -1   9    0.32    0.19
   6   1  -9    8.91    0.55
  -6  -1   9    8.09    0.51
   5   1  -9    7.73    0.48
  -5  -1   9    7.22    0.45
   4   1  -9    8.74    0.47
  -4  -1   9    8.31    0.46
   3   1  -9    1.63    0.23
  -3  -1   9    2.06    0.26
   2   1  -9   -0.09    0.11
  -2  -1   9    0.09    0.12
   1   1  -9    2.71    0.28
  -1  -1   9    2.77    0.29
   0   1  -9    0.14    0.13
   0  -1   9    0.14    0.12
   0  -1   9    0.03    0.09
  -1   1  -9   11.61    0.53
   1  -1   9   11.26    0.43
   1  -1   9   11.81    0.53
  -2   1  -9   40.30    1.26
   2  -1   9   38.12    1.25
  -3   1  -9   20.37    0.80
   3  -1   9   20.41    0.79
  -4   1  -9    6.11    0.44
   4  -1   9    5.44    0.42
  -5   1  -9    0.26    0.19
  -5   1  -9    0.35    0.13
   5  -1   9    0.45    0.20
  -6   1  -9    8.37    0.58
   6  -1   9    8.00    0.55
  -7   1  -9    1.91    0.36
   7  -1   9    2.65    0.39
   8   0  -9    0.72    0.27
  -8   0   9    0.67    0.28
   7   0  -9   17.08    0.82
  -7   0   9   17.24    0.81
   6   0  -9    7.72    0.52
  -6   0   9    8.23    0.52
   5   0  -9    0.04    0.16
  -5   0   9    0.26    0.17
   4   0  -9    1.01    0.21
  -4   0   9    1.10    0.22
   3   0  -9   -0.02    0.12
  -3   0   9    0.06    0.12
   2   0  -9   46.20    1.39
  -2   0   9   45.74    1.39
   1   0  -9   11.70    0.50
  -1   0   9   11.30    0.50
   0   0  -9    0.06    0.12
   0   0   9    0.27    0.11
   0   0   9    0.11    0.11
  -1   0  -9    9.99    0.48
   1   0   9   10.77    0.42
   1   0   9   10.66    0.48
  -2   0  -9   38.82    1.20
   2   0   9   37.98    1.09
   2   0   9   37.90    1.20
  -3   0  -9    0.43    0.16
  -3   0  -9    0.43    0.13
   3   0   9    0.55    0.17
  -4   0  -9    4.52    0.29
  -4   0  -9    4.30    0.36
   4   0   9    4.60    0.36
  -5   0  -9    6.28    0.35
  -5   0  -9    7.60    0.48
   5   0   9    6.84    0.46
  -6   0  -9   12.78    0.68
  -6   0  -9   13.38    0.55
   6   0   9   13.44    0.69
  -7   0  -9    8.65    0.60
   7   0   9    8.19    0.59
   8  -1  -9    0.76    0.28
  -8   1   9    0.58    0.26
   7  -1  -9    1.00    0.28
  -7   1   9    0.67    0.23
   6  -1  -9    2.19    0.32
  -6   1   9    3.03    0.37
   5  -1  -9    1.78    0.28
  -5   1   9    1.78    0.26
   4  -1  -9    1.14    0.21
  -4   1   9    0.82    0.19
   3  -1  -9    3.02    0.29
  -3   1   9    2.50    0.26
   2  -1  -9   34.67    1.08
  -2   1   9   33.10    1.08
   1  -1  -9   47.13    1.39
  -1   1   9   47.63    1.40
   0  -1  -9    0.38    0.13
   0   1   9    0.52    0.14
   0   1   9    1.17    0.18
  -1  -1  -9   -0.04    0.10
   1   1   9    0.04    0.10
   1   1   9    0.10    0.08
  -2  -1  -9   19.28    0.70
   2   1   9   19.53    0.66
   2   1   9   19.94    0.72
  -3  -1  -9   28.58    0.88
  -3  -1  -9   27.77    0.94
   3   1   9   28.01    0.95
  -4  -1  -9   35.01    1.06
  -4  -1  -9   35.64    1.15
   4   1   9   35.56    1.17
  -5  -1  -9    1.24    0.24
  -5  -1  -9    1.32    0.20
   5   1   9    1.12    0.24
  -6  -1  -9   -0.10    0.12
  -6  -1  -9    0.02    0.17
   6   1   9   -0.04    0.16
  -7  -1  -9    4.54    0.45
  -7  -1  -9    4.46    0.37
   7   1   9    4.90    0.49
   8   1   9    1.69    0.34
   7  -2  -9    5.23    0.50
  -7   2   9    4.38    0.47
   6  -2  -9    8.17    0.53
  -6   2   9    7.83    0.54
   5  -2  -9   11.21    0.57
  -5   2   9   10.69    0.58
   4  -2  -9   -0.13    0.13
  -4   2   9   -0.14    0.14
   3  -2  -9    1.75    0.22
  -3   2   9    1.79    0.23
   2  -2  -9   28.66    0.93
  -2   2   9   29.32    0.96
   1  -2  -9    6.41    0.34
  -1   2   9    6.19    0.35
   0  -2  -9   34.41    1.05
   0   2   9   33.71    1.07
   0   2   9   36.58    1.06
  -1  -2  -9   26.54    0.85
   1   2   9   27.69    0.88
   1   2   9   25.96    0.84
  -2  -2  -9   35.08    1.06
  -2  -2  -9   34.03    1.07
   2   2   9   35.59    1.10
   2   2   9   36.66    1.06
  -3  -2  -9   51.77    1.46
  -3  -2  -9   51.40    1.50
   3   2   9   51.17    1.52
  -4  -2  -9   12.23    0.53
  -4  -2  -9   12.74    0.52
   4   2   9   11.88    0.54
  -5  -2  -9   38.86    1.24
  -5  -2  -9   38.48    1.18
   5   2   9   39.16    1.27
  -6  -2  -9    0.62    0.20
  -6  -2  -9    0.57    0.18
   6   2   9    0.33    0.18
  -7  -2  -9    0.23    0.17
   7   2   9    0.04    0.18
  -8  -2  -9    1.09    0.25
   8   2   9    0.79    0.26
   9   2   9    1.56    0.36
  -7   3   9    0.98    0.31
   6  -3  -9    1.45    0.31
  -6   3   9    1.96    0.34
   5  -3  -9    1.47    0.25
  -5   3   9    1.13    0.27
   4  -3  -9    0.50    0.18
  -4   3   9    0.69    0.20
   3  -3  -9   18.76    0.70
  -3   3   9   18.69    0.73
   2  -3  -9   20.04    0.70
  -2   3   9   19.57    0.72
   1  -3  -9    7.48    0.35
  -1   3   9    7.65    0.38
   0  -3  -9   18.43    0.63
   0   3   9   19.48    0.66
   0   3   9   17.95    0.65
  -1  -3  -9    2.46    0.20
   1   3   9    2.78    0.22
   1   3   9    2.57    0.23
   1   3   9    2.54    0.25
  -2  -3  -9    0.76    0.16
  -2  -3  -9    0.53    0.12
   2   3   9    0.73    0.14
   2   3   9    0.79    0.15
  -3  -3  -9   -0.05    0.10
  -3  -3  -9   -0.15    0.08
   3   3   9    0.04    0.10
   3   3   9   -0.08    0.08
  -4  -3  -9    5.38    0.31
  -4  -3  -9    4.86    0.33
   4   3   9    5.07    0.33
  -5  -3  -9   15.44    0.62
  -5  -3  -9   16.20    0.64
   5   3   9   15.05    0.65
  -6  -3  -9   22.28    0.83
  -6  -3  -9   22.93    0.83
   6   3   9   21.92    0.86
  -7  -3  -9    3.40    0.35
   7   3   9    3.06    0.37
  -8  -3  -9    1.01    0.24
   8   3   9    0.93    0.26
  -9  -3  -9    0.78    0.24
   9   3   9    0.21    0.22
  -7   4   9    1.84    0.39
  -6   4   9    0.16    0.22
  -5   4   9    0.76    0.24
   4  -4  -9    4.97    0.36
  -4   4   9    4.87    0.39
   3  -4  -9   23.74    0.82
  -3   4   9   23.05    0.86
   2  -4  -9    8.49    0.39
  -2   4   9    7.67    0.41
   1  -4  -9    0.81    0.14
  -1   4   9    0.49    0.13
  -1   4   9    0.23    0.12
   0  -4  -9    0.98    0.13
   0   4   9    1.06    0.16
   0   4   9    0.93    0.15
  -1  -4  -9   13.24    0.46
   1   4   9   12.44    0.50
   1   4   9   13.82    0.51
  -2  -4  -9   23.74    0.81
  -2  -4  -9   23.40    0.73
   2   4   9   24.84    0.77
   2   4   9   22.51    0.76
  -3  -4  -9    0.14    0.14
  -3  -4  -9    0.14    0.09
   3   4   9    0.24    0.11
   3   4   9    0.17    0.09
  -4  -4  -9    2.47    0.22
  -4  -4  -9    3.02    0.29
   4   4   9    2.83    0.23
   4   4   9    2.49    0.25
  -5  -4  -9   17.41    0.64
  -5  -4  -9   18.12    0.70
   5   4   9   17.17    0.68
  -6  -4  -9   12.59    0.60
   6   4   9   12.58    0.58
  -7  -4  -9    0.25    0.18
   7   4   9    0.09    0.16
  -8  -4  -9    2.73    0.36
   8   4   9    2.10    0.31
  -9  -4  -9    5.43    0.49
   9   4   9    5.04    0.51
  -6   5   9    5.19    0.54
  -5   5   9    0.17    0.21
  -4   5   9    1.54    0.27
  -3   5   9    7.42    0.45
   2  -5  -9    0.52    0.13
  -2   5   9    0.67    0.17
   1  -5  -9    2.34    0.21
  -1   5   9    2.72    0.26
  -1   5   9    2.33    0.24
   0  -5  -9    7.75    0.32
   0   5   9    7.11    0.36
   0   5   9    8.31    0.37
  -1  -5  -9   25.04    0.74
   1   5   9   26.50    0.81
   1   5   9   25.01    0.80
  -2  -5  -9   55.97    1.46
  -2  -5  -9   53.93    1.59
   2   5   9   55.98    1.54
   2   5   9   54.45    1.54
  -3  -5  -9    5.85    0.25
  -3  -5  -9    4.87    0.33
   3   5   9    5.29    0.28
   3   5   9    4.95    0.29
  -4  -5  -9   -0.03    0.13
  -4  -5  -9    0.08    0.08
   4   5   9    0.06    0.08
   4   5   9    0.08    0.10
  -5  -5  -9    1.45    0.23
   5   5   9    1.91    0.23
  -6  -5  -9    7.72    0.48
   6   5   9    7.68    0.43
  -7  -5  -9    3.71    0.38
   7   5   9    2.87    0.32
  -8  -5  -9    2.34    0.33
   8   5   9    2.04    0.33
   9   5   9    0.94    0.29
  -5   6   9    3.35    0.43
  -4   6   9    1.59    0.29
  -3   6   9    7.94    0.49
  -2   6   9   28.92    0.98
  -1   6   9    1.11    0.19
   0   6   9   31.95    0.96
   0   6   9   29.71    0.95
   1   6   9   10.94    0.42
   1   6   9    9.61    0.41
  -2  -6  -9   23.36    0.83
   2   6   9   22.50    0.72
   2   6   9   22.51    0.72
  -3  -6  -9    3.64    0.33
   3   6   9    3.53    0.23
   3   6   9    3.27    0.22
  -4  -6  -9   24.94    0.87
   4   6   9   23.94    0.76
   4   6   9   22.82    0.76
  -5  -6  -9   14.21    0.63
   5   6   9   13.50    0.54
  -6  -6  -9   18.24    0.76
   6   6   9   17.43    0.68
  -7  -6  -9   16.42    0.74
   7   6   9   14.85    0.65
  -8  -6  -9    0.91    0.26
   8   6   9    1.05    0.24
   9   6   9    2.71    0.37
  -5   7   9    1.84    0.37
  -4   7   9    6.30    0.52
  -3   7   9    1.97    0.29
  -2   7   9    2.69    0.29
  -1   7   9    1.09    0.19
   0   7   9    0.10    0.11
   1   7   9   14.92    0.52
   1   7   9   13.53    0.50
  -2  -7  -9    2.74    0.30
   2   7   9    2.90    0.20
   2   7   9    2.76    0.20
  -3  -7  -9    8.03    0.46
   3   7   9    7.59    0.34
   3   7   9    8.04    0.33
  -4  -7  -9   14.79    0.67
   4   7   9   16.11    0.55
   4   7   9   16.23    0.54
  -5  -7  -9    2.08    0.28
   5   7   9    1.84    0.21
  -6  -7  -9    0.16    0.17
   6   7   9    0.00    0.12
  -7  -7  -9    3.83    0.43
   7   7   9    2.73    0.29
  -8  -7  -9   10.63    0.63
   8   7   9   11.30    0.57
   9   7   9    9.58    0.57
  -4   8   9    0.23    0.23
  -3   8   9    0.44    0.23
  -2   8   9    0.96    0.22
  -1   8   9    0.10    0.14
   0   8   9   28.94    0.92
   1   8   9   18.31    0.62
  -2  -8  -9    5.03    0.41
   2   8   9    5.08    0.25
   2   8   9    5.30    0.26
  -3  -8  -9    4.22    0.38
   3   8   9    4.47    0.23
   3   8   9    4.40    0.22
  -4  -8  -9    0.92    0.22
   4   8   9    1.03    0.13
   4   8   9    1.21    0.14
  -5  -8  -9   12.92    0.64
   5   8   9   13.41    0.49
  -6  -8  -9    5.39    0.48
   6   8   9    4.92    0.30
  -7  -8  -9    0.03    0.19
   7   8   9    0.11    0.13
  -8  -8  -9    3.14    0.41
   8   8   9    2.91    0.32
  -2   9   9    2.67    0.33
  -1   9   9    0.79    0.20
   0   9   9    3.53    0.28
   1   9   9    0.09    0.10
  -2  -9  -9    2.35    0.31
   2   9   9    2.48    0.18
  -3  -9  -9    8.03    0.50
   3   9   9    7.78    0.28
   3   9   9    8.04    0.29
  -4  -9  -9   11.59    0.62
   4   9   9   11.99    0.38
   4   9   9   12.01    0.39
  -5  -9  -9   10.27    0.58
   5   9   9   10.24    0.38
  -6  -9  -9    2.00    0.32
   6   9   9    2.54    0.22
  -7  -9  -9    0.41    0.25
   7   9   9    0.49    0.14
   8   9   9    1.02    0.21
  -1  10   9    2.06    0.27
   0  10   9    0.58    0.16
   1  10   9    2.90    0.23
   2  10   9   19.80    0.59
  -3 -10  -9    2.05    0.30
  -4 -10  -9    0.40    0.20
  -5 -10  -9    4.35    0.43
  -6 -10  -9    0.94    0.26
   6  10   9    0.55    0.11
   7  10   9    3.16    0.24
   1  11   9    0.36    0.12
  -3 -11  -9    3.36    0.39
  -4 -11  -9    2.27    0.35
  -5 -11  -9    0.27    0.21
   5   7 -10    0.39    0.23
   4   7 -10    0.63    0.25
   3   7 -10    1.23    0.29
   2   7 -10    0.28    0.23
   1   7 -10    2.28    0.37
   0   7 -10   16.24    0.86
   6   6 -10    2.90    0.40
   5   6 -10    2.74    0.38
   4   6 -10    7.51    0.56
   3   6 -10    4.57    0.45
   2   6 -10    0.84    0.25
   1   6 -10    0.44    0.23
   0   6 -10   -0.04    0.21
  -1   6 -10   -0.03    0.23
  -2   6 -10    1.54    0.34
   7   5 -10    0.26    0.24
   6   5 -10   -0.03    0.18
   5   5 -10    1.74    0.32
   4   5 -10    3.81    0.41
   3   5 -10    2.44    0.33
   2   5 -10    0.05    0.19
   1   5 -10    7.60    0.53
   0   5 -10    7.01    0.54
  -1   5 -10    2.07    0.34
  -2   5 -10    2.10    0.36
  -3   5 -10    0.39    0.26
  -4   5 -10    0.01    0.26
   7   4 -10    2.22    0.37
   6   4 -10    0.52    0.23
   5   4 -10    0.61    0.22
   4   4 -10    1.22    0.26
   3   4 -10    0.18    0.18
  -3  -4  10    0.29    0.15
   2   4 -10    9.80    0.56
  -2  -4  10    8.74    0.49
   1   4 -10   25.87    1.01
  -1  -4  10   27.56    0.98
   0   4 -10    2.65    0.33
   0  -4  10    2.90    0.31
  -1   4 -10   -0.19    0.17
   1  -4  10    0.01    0.15
  -2   4 -10    0.58    0.24
   2  -4  10    1.03    0.25
  -3   4 -10    5.29    0.50
  -4   4 -10    5.12    0.52
  -5   4 -10    0.56    0.29
   8   3 -10    0.58    0.28
   7   3 -10    0.66    0.27
   6   3 -10    1.48    0.30
   5   3 -10   40.69    1.40
  -5  -3  10   41.14    1.37
   4   3 -10   12.31    0.65
  -4  -3  10   14.16    0.64
   3   3 -10    1.20    0.25
  -3  -3  10    1.21    0.23
   2   3 -10    0.73    0.22
  -2  -3  10    1.06    0.21
   1   3 -10    0.76    0.21
  -1  -3  10    0.61    0.18
   0   3 -10    0.75    0.22
   0  -3  10    0.71    0.18
   0  -3  10    1.08    0.16
  -1   3 -10    2.05    0.30
   1  -3  10    2.58    0.32
   1  -3  10    2.44    0.19
  -2   3 -10   10.55    0.59
   2  -3  10    8.89    0.53
  -3   3 -10   10.59    0.63
   3  -3  10   10.48    0.60
  -4   3 -10   14.19    0.75
   4  -3  10   13.62    0.72
  -5   3 -10    0.93    0.29
   5  -3  10    0.82    0.27
  -6   3 -10    0.97    0.35
   8   2 -10    0.33    0.25
   7   2 -10   -0.08    0.20
   6   2 -10    2.46    0.34
  -6  -2  10    3.00    0.35
   5   2 -10    5.81    0.45
  -5  -2  10    5.84    0.44
   4   2 -10    7.43    0.48
  -4  -2  10    7.38    0.46
   3   2 -10   -0.14    0.13
  -3  -2  10    0.02    0.12
   2   2 -10    5.13    0.39
  -2  -2  10    5.66    0.38
   1   2 -10    4.78    0.37
  -1  -2  10    4.36    0.34
   0   2 -10   23.07    0.87
   0  -2  10   23.74    0.76
   0  -2  10   23.84    0.87
  -1   2 -10    4.61    0.39
   1  -2  10    4.31    0.25
   1  -2  10    3.73    0.35
  -2   2 -10    8.16    0.51
   2  -2  10    8.33    0.49
  -3   2 -10    0.22    0.18
   3  -2  10    0.27    0.17
  -4   2 -10    3.20    0.37
   4  -2  10    2.83    0.37
  -5   2 -10    2.46    0.37
   5  -2  10    2.60    0.39
  -6   2 -10   10.36    0.72
   6  -2  10    9.93    0.67
   8   1 -10    3.44    0.45
   7   1 -10    2.55    0.38
  -7  -1  10    2.09    0.35
   6   1 -10    2.05    0.33
  -6  -1  10    2.16    0.31
   5   1 -10    1.03    0.25
  -5  -1  10    1.06    0.24
   4   1 -10    2.16    0.30
  -4  -1  10    2.01    0.28
   3   1 -10   18.49    0.76
  -3  -1  10   19.36    0.75
   2   1 -10   18.26    0.74
  -2  -1  10   19.71    0.75
   1   1 -10    9.89    0.50
  -1  -1  10    9.88    0.49
   0   1 -10   11.77    0.56
   0  -1  10   12.53    0.49
   0  -1  10   12.39    0.56
  -1   1 -10   -0.09    0.13
   1  -1  10   -0.07    0.07
   1  -1  10   -0.24    0.11
  -2   1 -10   19.75    0.78
   2  -1  10   19.35    0.78
  -3   1 -10   10.92    0.57
   3  -1  10   10.15    0.55
  -4   1 -10    1.93    0.30
   4  -1  10    1.98    0.29
  -5   1 -10    1.81    0.31
   5  -1  10    2.18    0.32
  -6   1 -10    0.47    0.26
   6  -1  10    0.68    0.25
  -7   1 -10    0.34    0.28
   7  -1  10    0.26    0.25
   8   0 -10    0.74    0.29
  -8   0  10    1.23    0.31
   7   0 -10    3.74    0.45
  -7   0  10    4.01    0.43
   6   0 -10   11.68    0.64
  -6   0  10   11.45    0.64
   5   0 -10    4.59    0.43
  -5   0  10    5.12    0.41
   4   0 -10    1.95    0.28
  -4   0  10    1.90    0.26
   3   0 -10    2.67    0.29
  -3   0  10    2.22    0.27
   2   0 -10    4.73    0.35
  -2   0  10    4.48    0.33
   1   0 -10    4.19    0.32
  -1   0  10    4.39    0.33
   0   0 -10    0.22    0.14
   0   0  10    0.11    0.12
   0   0  10    0.10    0.10
  -1   0 -10    3.22    0.31
   1   0  10    3.86    0.26
   1   0  10    3.56    0.32
  -2   0 -10   31.09    1.06
   2   0  10   31.79    0.96
   2   0  10   32.73    1.08
  -3   0 -10   30.54    1.07
   3   0  10   31.81    1.09
  -4   0 -10    0.38    0.18
  -4   0 -10    0.52    0.15
   4   0  10    0.50    0.19
  -5   0 -10    0.01    0.17
  -5   0 -10   -0.01    0.12
   5   0  10    0.07    0.16
  -6   0 -10    0.34    0.16
  -6   0 -10    0.93    0.27
   6   0  10    0.42    0.21
  -7   0 -10    3.72    0.45
   7   0  10    3.24    0.44
   8   0  10    3.52    0.50
   8  -1 -10    0.22    0.23
   7  -1 -10    0.34    0.22
  -7   1  10   -0.02    0.20
   6  -1 -10    8.03    0.55
  -6   1  10    7.37    0.54
   5  -1 -10    4.14    0.40
  -5   1  10    4.45    0.43
   4  -1 -10    0.42    0.18
  -4   1  10    0.46    0.18
   3  -1 -10    7.42    0.43
  -3   1  10    8.34    0.45
   2  -1 -10   20.64    0.75
  -2   1  10   19.28    0.74
   1  -1 -10   33.65    1.09
  -1   1  10   34.89    1.11
   0  -1 -10    6.21    0.36
   0   1  10    6.63    0.38
  -1  -1 -10    0.67    0.16
   1   1  10    1.07    0.18
   1   1  10    0.81    0.17
  -2  -1 -10    0.07    0.12
   2   1  10    0.15    0.14
   2   1  10    0.18    0.10
  -3  -1 -10    2.11    0.23
  -3  -1 -10    2.10    0.25
   3   1  10    2.49    0.28
  -4  -1 -10    5.79    0.35
  -4  -1 -10    5.52    0.40
   4   1  10    5.54    0.39
  -5  -1 -10    0.19    0.14
  -5  -1 -10    0.48    0.19
   5   1  10    0.33    0.18
  -6  -1 -10    5.13    0.37
  -6  -1 -10    5.07    0.44
   6   1  10    4.65    0.45
  -7  -1 -10   13.02    0.73
  -7  -1 -10   13.64    0.62
   7   1  10   14.43    0.76
   8   1  10    1.80    0.38
   7  -2 -10    0.10    0.20
  -7   2  10    0.04    0.23
   6  -2 -10    0.04    0.18
  -6   2  10   -0.07    0.20
   5  -2 -10    1.12    0.25
  -5   2  10    1.22    0.27
   4  -2 -10    6.31    0.42
  -4   2  10    5.94    0.42
   3  -2 -10    1.47    0.22
  -3   2  10    2.31    0.28
   2  -2 -10    9.75    0.47
  -2   2  10    9.78    0.48
   1  -2 -10   55.93    1.60
  -1   2  10   54.55    1.62
   0  -2 -10   -0.21    0.09
   0   2  10   -0.05    0.11
  -1  -2 -10   13.14    0.53
   1   2  10   13.32    0.56
  -2  -2 -10    5.68    0.33
   2   2  10    5.56    0.36
  -3  -2 -10    6.62    0.38
  -3  -2 -10    7.51    0.40
   3   2  10    6.34    0.39
  -4  -2 -10   61.51    1.80
  -4  -2 -10   61.28    1.73
   4   2  10   61.99    1.83
  -5  -2 -10    6.23    0.41
  -5  -2 -10    6.55    0.40
   5   2  10    6.12    0.43
  -6  -2 -10    0.89    0.20
  -6  -2 -10    1.19    0.24
   6   2  10    0.87    0.23
  -7  -2 -10    0.87    0.22
   7   2  10    0.98    0.27
  -8  -2 -10   -0.24    0.16
   8   2  10   -0.06    0.21
  -7   3  10    1.31    0.34
  -6   3  10    1.43    0.31
   5  -3 -10    7.61    0.49
  -5   3  10    8.72    0.55
   4  -3 -10   10.19    0.53
  -4   3  10   10.09    0.56
   3  -3 -10    1.69    0.23
  -3   3  10    1.30    0.23
   2  -3 -10   -0.04    0.10
  -2   3  10   -0.05    0.12
   1  -3 -10    0.22    0.11
  -1   3  10    0.18    0.13
   0  -3 -10    3.34    0.25
   0   3  10    3.30    0.27
  -1  -3 -10   49.16    1.40
   1   3  10   47.94    1.43
  -2  -3 -10   13.97    0.53
  -2  -3 -10   13.73    0.57
   2   3  10   13.64    0.56
  -3  -3 -10    0.22    0.12
  -3  -3 -10    0.38    0.15
   3   3  10    0.37    0.13
  -4  -3 -10    2.21    0.24
  -4  -3 -10    2.40    0.27
   4   3  10    1.80    0.23
  -5  -3 -10    3.69    0.34
  -5  -3 -10    4.02    0.32
   5   3  10    2.93    0.31
  -6  -3 -10   16.06    0.68
   6   3  10   14.49    0.69
  -7  -3 -10    2.19    0.30
   7   3  10    2.41    0.35
  -8  -3 -10   -0.04    0.18
   8   3  10   -0.12    0.17
  -9  -3 -10    3.51    0.41
   9   3  10    3.14    0.45
  -6   4  10    0.19    0.24
  -5   4  10    2.94    0.37
  -4   4  10    0.23    0.18
   3  -4 -10   24.01    0.85
  -3   4  10   23.90    0.89
   2  -4 -10   34.86    1.10
  -2   4  10   35.85    1.15
   1  -4 -10    4.56    0.28
  -1   4  10    4.44    0.32
   0  -4 -10   15.51    0.55
   0   4  10   15.19    0.58
   0   4  10   14.70    0.58
  -1  -4 -10   15.69    0.56
   1   4  10   15.20    0.59
   1   4  10   16.89    0.61
  -2  -4 -10    0.24    0.14
  -2  -4 -10   -0.04    0.08
   2   4  10    0.04    0.11
   2   4  10    0.03    0.09
  -3  -4 -10   -0.05    0.13
  -3  -4 -10    0.00    0.08
   3   4  10   -0.02    0.10
   3   4  10   -0.15    0.08
  -4  -4 -10    3.30    0.24
  -4  -4 -10    2.97    0.31
   4   4  10    2.55    0.26
  -5  -4 -10   10.50    0.52
   5   4  10   10.05    0.50
  -6  -4 -10   31.50    1.09
   6   4  10   32.73    1.12
  -7  -4 -10    1.26    0.27
   7   4  10    0.62    0.20
  -8  -4 -10    1.03    0.26
   8   4  10    1.57    0.31
  -9  -4 -10    0.18    0.22
   9   4  10    0.23    0.22
  -6   5  10    0.38    0.27
  -5   5  10   -0.20    0.20
  -4   5  10    0.42    0.21
  -3   5  10   10.65    0.55
  -2   5  10    3.81    0.34
   1  -5 -10    0.42    0.12
  -1   5  10    0.37    0.15
   0  -5 -10    0.63    0.12
   0   5  10    0.56    0.14
   0   5  10    0.62    0.14
  -1  -5 -10   20.82    0.66
   1   5  10   20.92    0.73
   1   5  10   22.04    0.73
  -2  -5 -10   47.23    1.30
  -2  -5 -10   47.93    1.44
   2   5  10   48.35    1.38
   2   5  10   45.55    1.37
  -3  -5 -10   18.73    0.60
  -3  -5 -10   19.15    0.73
   3   5  10   19.22    0.67
   3   5  10   17.95    0.67
  -4  -5 -10    5.84    0.40
   4   5  10    5.73    0.34
  -5  -5 -10   16.62    0.70
   5   5  10   16.91    0.66
  -6  -5 -10    1.69    0.28
   6   5  10    2.42    0.29
  -7  -5 -10    0.49    0.22
   7   5  10    0.46    0.18
  -8  -5 -10    1.45    0.29
   8   5  10    1.40    0.28
  -9  -5 -10    4.20    0.47
   9   5  10    4.33    0.48
  -5   6  10    5.42    0.52
  -4   6  10    2.85    0.36
  -3   6  10    2.67    0.33
  -2   6  10    5.29    0.39
  -1   6  10   12.58    0.55
   0   6  10   48.40    1.42
   1   6  10    7.51    0.37
   1   6  10    7.41    0.36
  -2  -6 -10   12.58    0.58
   2   6  10   11.73    0.48
   2   6  10   12.18    0.48
  -3  -6 -10    0.13    0.16
   3   6  10    0.28    0.12
   3   6  10    0.21    0.10
  -4  -6 -10   15.21    0.67
   4   6  10   15.73    0.59
  -5  -6 -10   31.40    1.06
   5   6  10   28.45    0.97
  -6  -6 -10    1.47    0.27
   6   6  10    1.71    0.24
  -7  -6 -10    1.32    0.28
   7   6  10    1.39    0.25
  -8  -6 -10    3.68    0.42
   8   6  10    3.15    0.38
  -9  -6 -10    0.31    0.27
   9   6  10    0.56    0.22
  -4   7  10   14.85    0.75
  -3   7  10    8.03    0.52
  -2   7  10    2.09    0.28
  -1   7  10    4.73    0.35
   0   7  10    0.79    0.16
   1   7  10   -0.01    0.11
  -2  -7 -10    0.50    0.20
   2   7  10    0.74    0.14
  -3  -7 -10    3.18    0.35
   3   7  10    2.71    0.24
  -4  -7 -10   15.40    0.69
   4   7  10   15.94    0.58
  -5  -7 -10   18.87    0.79
   5   7  10   19.57    0.69
  -6  -7 -10    3.68    0.40
   6   7  10    4.10    0.31
  -7  -7 -10   -0.05    0.19
   7   7  10    0.00    0.14
  -8  -7 -10    0.73    0.26
   8   7  10    0.65    0.21
   9   7  10    1.16    0.27
  -3   8  10    0.50    0.22
  -2   8  10    1.07    0.23
  -1   8  10    3.01    0.30
   0   8  10    6.51    0.37
   1   8  10   29.76    0.92
  -2  -8 -10    1.41    0.26
   2   8  10    2.28    0.20
  -3  -8 -10    1.72    0.28
   3   8  10    1.63    0.17
  -4  -8 -10    6.48    0.46
   4   8  10    6.29    0.32
  -5  -8 -10    2.98    0.36
   5   8  10    2.87    0.24
  -6  -8 -10    0.90    0.25
   6   8  10    0.66    0.16
  -7  -8 -10    0.14    0.19
   7   8  10    0.32    0.15
  -8  -8 -10    0.65    0.26
  -2   9  10    0.34    0.21
  -1   9  10    0.01    0.14
   0   9  10    9.28    0.45
   1   9  10   26.76    0.85
  -2  -9 -10    3.65    0.40
   2   9  10    3.68    0.23
  -3  -9 -10    0.80    0.22
   3   9  10    0.88    0.12
  -4  -9 -10    0.92    0.26
   4   9  10    0.76    0.12
  -5  -9 -10    4.31    0.43
   5   9  10    4.26    0.25
  -6  -9 -10    7.00    0.51
   6   9  10    6.89    0.35
  -7  -9 -10    2.18    0.37
   7   9  10    2.67    0.27
   8   9  10    0.22    0.16
  -1  10  10   -0.04    0.16
   0  10  10    0.39    0.16
   1  10  10    0.51    0.14
   2  10  10    0.11    0.09
  -3 -10 -10    8.15    0.55
   3  10  10    8.15    0.29
  -4 -10 -10    8.83    0.56
  -5 -10 -10    9.72    0.60
   5  10  10    9.58    0.33
  -6 -10 -10    2.99    0.41
   6  10  10    2.42    0.21
   7  10  10    3.96    0.29
   2  11  10    1.82    0.15
  -3 -11 -10    3.73    0.42
  -4 -11 -10    1.38    0.29
  -5 -11 -10   -0.18    0.19
   4   7 -11    1.13    0.32
   3   7 -11    1.48    0.33
   2   7 -11    0.32    0.25
   1   7 -11    0.95    0.31
   5   6 -11    0.05    0.21
   4   6 -11   -0.01    0.20
   3   6 -11    0.24    0.23
   2   6 -11    1.16    0.30
   1   6 -11    1.30    0.31
   0   6 -11    1.53    0.35
  -1   6 -11    3.68    0.49
   6   5 -11    1.16    0.29
   5   5 -11    3.72    0.45
   4   5 -11    3.68    0.43
   3   5 -11   10.35    0.64
   2   5 -11   12.18    0.69
   1   5 -11    0.03    0.21
   0   5 -11    1.65    0.33
  -1   5 -11   -0.02    0.23
  -2   5 -11    2.21    0.39
  -3   5 -11    6.00    0.61
   7   4 -11    0.35    0.26
   6   4 -11    1.86    0.34
   5   4 -11    0.09    0.20
   4   4 -11    0.58    0.24
   3   4 -11    2.02    0.32
   2   4 -11    6.23    0.49
  -2  -4  11    5.53    0.42
   1   4 -11   37.17    1.30
  -1  -4  11   35.92    1.25
   0   4 -11   20.82    0.92
   0  -4  11   22.24    0.88
  -1   4 -11    0.95    0.29
   1  -4  11    1.13    0.25
  -2   4 -11    0.67    0.27
  -3   4 -11   -0.20    0.22
  -4   4 -11    0.38    0.29
   7   3 -11   -0.23    0.22
   6   3 -11    0.06    0.20
   5   3 -11    0.44    0.22
  -5  -3  11    0.74    0.21
   4   3 -11    1.04    0.27
  -4  -3  11    1.59    0.29
   3   3 -11    0.60    0.24
  -3  -3  11    0.63    0.20
   2   3 -11    0.25    0.19
  -2  -3  11    0.31    0.16
   1   3 -11    1.35    0.27
  -1  -3  11    1.44    0.26
   0   3 -11    0.75    0.23
   0  -3  11    0.96    0.22
   0  -3  11    0.62    0.14
  -1   3 -11    0.77    0.24
   1  -3  11    0.82    0.23
  -2   3 -11    0.05    0.19
   2  -3  11    0.27    0.18
  -3   3 -11    3.14    0.41
   3  -3  11    1.84    0.31
  -4   3 -11    6.00    0.55
   4  -3  11    5.75    0.56
  -5   3 -11    3.18    0.46
   7   2 -11    0.27    0.24
   6   2 -11    2.08    0.34
  -6  -2  11    2.46    0.35
   5   2 -11   11.31    0.63
  -5  -2  11   10.77    0.60
   4   2 -11   13.35    0.68
  -4  -2  11   14.10    0.67
   3   2 -11    6.71    0.47
  -3  -2  11    6.89    0.45
   2   2 -11    1.49    0.26
  -2  -2  11    1.34    0.25
   1   2 -11    0.12    0.18
  -1  -2  11    0.18    0.15
   0   2 -11    4.03    0.39
   0  -2  11    3.85    0.38
   0  -2  11    3.82    0.27
  -1   2 -11    4.30    0.40
   1  -2  11    3.63    0.35
   1  -2  11    3.91    0.26
  -2   2 -11   10.80    0.61
   2  -2  11   10.22    0.57
  -3   2 -11    4.44    0.43
   3  -2  11    4.81    0.45
  -4   2 -11   10.89    0.65
   4  -2  11   10.33    0.62
  -5   2 -11    0.54    0.28
   5  -2  11    0.63    0.26
  -6   2 -11    2.58    0.43
   6  -2  11    3.60    0.49
   7   1 -11    4.30    0.48
  -7  -1  11    4.45    0.47
   6   1 -11    0.37    0.24
  -6  -1  11    0.00    0.17
   5   1 -11    0.05    0.19
  -5  -1  11   -0.04    0.18
   4   1 -11    9.08    0.53
  -4  -1  11    8.19    0.51
   3   1 -11    2.60    0.32
  -3  -1  11    1.70    0.26
   2   1 -11   26.30    0.97
  -2  -1  11   26.32    0.96
   1   1 -11   10.94    0.56
  -1  -1  11   10.00    0.53
   0   1 -11    1.53    0.25
   0  -1  11    2.33    0.31
  -1   1 -11   14.89    0.68
   1  -1  11   15.36    0.56
   1  -1  11   14.60    0.66
  -2   1 -11    3.34    0.37
   2  -1  11    3.38    0.37
  -3   1 -11   -0.06    0.16
   3  -1  11   -0.12    0.14
  -4   1 -11    0.41    0.21
   4  -1  11    0.26    0.20
  -5   1 -11   -0.20    0.18
   5  -1  11   -0.19    0.18
  -6   1 -11    9.89    0.67
   6  -1  11    8.58    0.63
  -7   1 -11    9.50    0.71
   7  -1  11    9.23    0.68
   7   0 -11    0.18    0.24
  -7   0  11    0.56    0.25
   6   0 -11    7.20    0.54
  -6   0  11    5.58    0.50
   5   0 -11    1.75    0.30
  -5   0  11    2.65    0.34
   4   0 -11    0.17    0.17
  -4   0  11    0.34    0.18
   3   0 -11   -0.07    0.14
  -3   0  11    0.20    0.15
   2   0 -11    7.43    0.45
  -2   0  11    7.62    0.45
   1   0 -11    3.79    0.34
  -1   0  11    4.07    0.34
   0   0 -11   13.63    0.61
   0   0  11   13.98    0.61
  -1   0 -11    0.37    0.17
   1   0  11    0.38    0.16
  -2   0 -11    3.53    0.35
   2   0  11    3.98    0.38
   2   0  11    4.12    0.28
  -3   0 -11   34.80    1.19
   3   0  11   34.24    1.19
  -4   0 -11    8.39    0.54
   4   0  11    9.39    0.55
  -5   0 -11    0.09    0.21
  -5   0 -11   -0.10    0.13
   5   0  11    0.02    0.19
  -6   0 -11    1.11    0.29
   6   0  11    1.10    0.30
  -7   0 -11   -0.29    0.22
   7   0  11   -0.01    0.21
   7  -1 -11    0.23    0.23
  -7   1  11    0.17    0.23
   6  -1 -11    5.29    0.51
  -6   1  11    4.47    0.46
   5  -1 -11    5.83    0.47
  -5   1  11    5.85    0.47
   4  -1 -11   -0.10    0.15
  -4   1  11    0.17    0.16
   3  -1 -11    2.67    0.31
  -3   1  11    2.51    0.29
   2  -1 -11    4.16    0.34
  -2   1  11    4.08    0.34
   1  -1 -11    0.24    0.15
  -1   1  11    0.29    0.15
   0  -1 -11    5.64    0.36
   0   1  11    5.00    0.36
  -1  -1 -11    0.37    0.16
   1   1  11    0.47    0.17
  -2  -1 -11   74.18    2.10
   2   1  11   71.78    2.12
  -3  -1 -11   60.82    1.81
   3   1  11   60.39    1.82
  -4  -1 -11    0.06    0.14
  -4  -1 -11    0.36    0.18
   4   1  11    0.16    0.16
  -5  -1 -11    2.97    0.35
  -5  -1 -11    3.14    0.30
   5   1  11    3.09    0.38
  -6  -1 -11    4.90    0.38
  -6  -1 -11    5.15    0.47
   6   1  11    4.97    0.47
   7   1  11    5.20    0.57
   8   1  11    3.60    0.48
  -7   2  11    0.16    0.25
   6  -2 -11    2.27    0.35
  -6   2  11    2.96    0.39
   5  -2 -11   11.18    0.62
  -5   2  11   10.86    0.62
   4  -2 -11    1.36    0.25
  -4   2  11    1.61    0.27
   3  -2 -11   11.04    0.56
  -3   2  11   12.60    0.59
   2  -2 -11   11.04    0.52
  -2   2  11   10.91    0.53
   1  -2 -11   28.24    0.95
  -1   2  11   27.35    0.96
   0  -2 -11   15.22    0.61
   0   2  11   15.34    0.64
  -1  -2 -11    0.84    0.17
   1   2  11    1.04    0.18
  -2  -2 -11   10.15    0.48
   2   2  11    9.61    0.49
  -3  -2 -11    1.81    0.25
  -3  -2 -11    1.92    0.25
   3   2  11    1.72    0.25
  -4  -2 -11    0.66    0.19
  -4  -2 -11    0.26    0.16
   4   2  11    0.27    0.16
  -5  -2 -11    9.42    0.49
  -5  -2 -11    9.00    0.51
   5   2  11    8.63    0.53
  -6  -2 -11    5.75    0.45
  -6  -2 -11    5.00    0.40
   6   2  11    5.72    0.51
  -7  -2 -11    5.73    0.44
   7   2  11    6.13    0.57
  -8  -2 -11    1.36    0.29
   8   2  11    1.30    0.36
  -7   3  11    3.46    0.48
  -6   3  11    0.46    0.26
   5  -3 -11    0.22    0.19
  -5   3  11    0.20    0.22
   4  -3 -11    9.13    0.52
  -4   3  11    8.68    0.54
   3  -3 -11   14.56    0.64
  -3   3  11   14.18    0.65
   2  -3 -11    9.74    0.48
  -2   3  11    9.30    0.50
   1  -3 -11    8.45    0.42
  -1   3  11    8.06    0.44
   0  -3 -11    4.03    0.29
   0   3  11    4.52    0.33
  -1  -3 -11   22.33    0.76
   1   3  11   21.17    0.79
  -2  -3 -11   51.21    1.48
   2   3  11   49.08    1.51
  -3  -3 -11    2.09    0.23
  -3  -3 -11    1.42    0.22
   3   3  11    2.10    0.25
  -4  -3 -11    0.96    0.19
  -4  -3 -11    1.06    0.21
   4   3  11    0.77    0.18
  -5  -3 -11    3.49    0.35
  -5  -3 -11    3.40    0.34
   5   3  11    3.27    0.35
  -6  -3 -11    0.25    0.18
   6   3  11    0.44    0.20
  -7  -3 -11    0.20    0.19
   7   3  11    0.26    0.21
  -8  -3 -11   -0.06    0.19
   8   3  11    0.67    0.28
  -6   4  11    2.35    0.41
  -5   4  11    1.48    0.32
  -4   4  11    2.15    0.32
   3  -4 -11    1.38    0.23
  -3   4  11    1.27    0.25
   2  -4 -11   10.57    0.50
  -2   4  11   11.49    0.55
   1  -4 -11    1.57    0.21
  -1   4  11    1.30    0.22
   0  -4 -11    0.36    0.12
   0   4  11    0.31    0.14
  -1  -4 -11   12.41    0.49
   1   4  11   12.44    0.53
   1   4  11   12.66    0.54
  -2  -4 -11   10.12    0.50
  -2  -4 -11    9.00    0.42
   2   4  11    9.62    0.46
   2   4  11   11.02    0.47
  -3  -4 -11    5.40    0.32
  -3  -4 -11    5.75    0.39
   3   4  11    5.51    0.36
  -4  -4 -11    4.82    0.31
  -4  -4 -11    5.12    0.39
   4   4  11    5.11    0.35
  -5  -4 -11    0.49    0.19
   5   4  11    0.72    0.20
  -6  -4 -11   11.62    0.59
   6   4  11   11.14    0.59
  -7  -4 -11   10.30    0.58
   7   4  11    9.26    0.58
  -8  -4 -11    3.16    0.39
   8   4  11    2.82    0.42
  -5   5  11    0.98    0.29
  -4   5  11    0.65    0.24
  -3   5  11    7.90    0.51
  -2   5  11   61.39    1.82
  -1   5  11    3.29    0.31
   0  -5 -11    1.70    0.21
   0   5  11    1.74    0.23
  -1  -5 -11    1.39    0.16
   1   5  11    0.81    0.17
  -2  -5 -11    3.28    0.23
   2   5  11    3.28    0.29
  -3  -5 -11    4.84    0.41
   3   5  11    4.05    0.31
  -4  -5 -11    5.54    0.41
   4   5  11    5.38    0.36
  -5  -5 -11    1.72    0.28
   5   5  11    1.39    0.22
  -6  -5 -11   17.11    0.75
   6   5  11   17.08    0.73
  -7  -5 -11    8.24    0.54
   7   5  11    7.08    0.49
  -8  -5 -11    1.63    0.30
   8   5  11    1.56    0.32
  -5   6  11    6.66    0.58
  -4   6  11    5.04    0.48
  -3   6  11    0.35    0.20
  -2   6  11    0.32    0.19
  -1   6  11    4.46    0.35
   0   6  11    2.92    0.28
   1   6  11    3.63    0.29
  -2  -6 -11    3.37    0.34
   2   6  11    3.75    0.29
  -3  -6 -11   13.47    0.63
   3   6  11   12.10    0.52
  -4  -6 -11    5.66    0.43
   4   6  11    5.50    0.35
  -5  -6 -11    1.65    0.27
   5   6  11    2.27    0.26
  -6  -6 -11    2.44    0.33
   6   6  11    1.78    0.26
  -7  -6 -11    0.58    0.23
   7   6  11    0.71    0.22
  -8  -6 -11    4.26    0.46
   8   6  11    4.16    0.45
  -4   7  11    1.80    0.34
  -3   7  11    2.33    0.33
  -2   7  11    3.59    0.36
  -1   7  11    2.21    0.28
   0   7  11    9.89    0.48
   1   7  11    4.87    0.32
  -2  -7 -11    8.58    0.51
   2   7  11    7.41    0.38
  -3  -7 -11    8.23    0.51
   3   7  11    7.85    0.39
  -4  -7 -11    0.56    0.21
   4   7  11    0.76    0.16
  -5  -7 -11   20.41    0.86
   5   7  11   20.46    0.74
  -6  -7 -11    6.58    0.49
   6   7  11    6.16    0.40
  -7  -7 -11    0.59    0.25
   7   7  11    0.72    0.21
  -8  -7 -11    1.05    0.29
   8   7  11    0.94    0.25
  -3   8  11    3.76    0.41
  -2   8  11    2.89    0.33
  -1   8  11    3.53    0.34
   0   8  11    7.55    0.43
   1   8  11    0.97    0.18
  -2  -8 -11    0.96    0.24
   2   8  11    0.91    0.16
  -3  -8 -11    2.47    0.33
   3   8  11    1.64    0.20
  -4  -8 -11    8.04    0.53
   4   8  11    8.23    0.39
  -5  -8 -11   16.17    0.76
   5   8  11   14.87    0.59
  -6  -8 -11    6.58    0.50
   6   8  11    6.50    0.39
  -7  -8 -11   -0.03    0.19
   7   8  11   -0.01    0.15
   8   8  11    0.13    0.17
  -2   9  11   -0.11    0.18
  -1   9  11    2.23    0.28
   0   9  11    0.12    0.15
   1   9  11   11.58    0.49
   2   9  11   21.61    0.71
  -3  -9 -11    0.24    0.20
   3   9  11   -0.04    0.10
  -4  -9 -11    0.47    0.22
   4   9  11    0.29    0.12
  -5  -9 -11    1.64    0.30
   5   9  11    1.82    0.21
  -6  -9 -11   -0.09    0.19
   6   9  11    0.02    0.12
   7   9  11    1.57    0.23
   0  10  11    9.68    0.48
   1  10  11    9.76    0.44
   2  10  11    1.45    0.17
  -3 -10 -11    2.14    0.36
   3  10  11    2.23    0.19
  -4 -10 -11    5.23    0.51
   4  10  11    4.96    0.24
  -5 -10 -11   -0.04    0.20
   5  10  11    0.10    0.10
  -6 -10 -11    0.25    0.25
   6  10  11   -0.14    0.11
   2  11  11    0.13    0.10
  -4 -11 -11    9.46    0.64
   4   6 -12    0.22    0.23
   3   6 -12    1.26    0.32
   2   6 -12    0.09    0.24
   1   6 -12    1.22    0.32
   0   6 -12    0.84    0.32
   6   5 -12    0.29    0.25
   5   5 -12    1.28    0.32
   4   5 -12    1.15    0.32
   3   5 -12   -0.07    0.21
   2   5 -12    3.47    0.44
   1   5 -12    3.01    0.41
   0   5 -12   -0.33    0.21
  -1   5 -12    2.01    0.38
  -2   5 -12    0.69    0.33
   6   4 -12   -0.16    0.20
   5   4 -12    9.77    0.65
   4   4 -12    8.89    0.60
   3   4 -12    7.36    0.56
   2   4 -12    0.05    0.20
   1   4 -12    1.35    0.30
   0   4 -12    0.80    0.28
  -1   4 -12    0.37    0.26
  -2   4 -12    0.61    0.27
  -3   4 -12    2.74    0.46
   7   3 -12    3.99    0.49
   6   3 -12    0.30    0.24
   5   3 -12    0.79    0.27
   4   3 -12    0.81    0.26
  -4  -3  12    1.16    0.27
   3   3 -12    0.76    0.25
  -3  -3  12    0.86    0.22
   2   3 -12    0.10    0.19
  -2  -3  12   -0.02    0.16
   1   3 -12    4.26    0.44
  -1  -3  12    4.48    0.42
   0   3 -12   35.16    1.29
   0  -3  12   35.89    1.25
  -1   3 -12    6.25    0.53
   1  -3  12    6.08    0.47
  -2   3 -12    0.16    0.23
   2  -3  12    0.32    0.20
  -3   3 -12    0.16    0.24
   3  -3  12    0.21    0.21
  -4   3 -12    0.64    0.31
  -5   3 -12    4.40    0.55
   7   2 -12    0.34    0.27
   6   2 -12   -0.09    0.21
  -6  -2  12    0.13    0.20
   5   2 -12    0.18    0.20
  -5  -2  12   -0.03    0.17
   4   2 -12    2.11    0.34
  -4  -2  12    2.06    0.31
   3   2 -12    2.74    0.34
  -3  -2  12    3.25    0.36
   2   2 -12    1.84    0.30
  -2  -2  12    1.76    0.29
   1   2 -12    3.03    0.35
  -1  -2  12    4.22    0.42
   0   2 -12    7.89    0.53
   0  -2  12    7.75    0.49
  -1   2 -12    0.96    0.26
   1  -2  12    1.04    0.24
  -2   2 -12    5.95    0.49
   2  -2  12    5.64    0.45
  -3   2 -12    6.91    0.56
   3  -2  12    6.66    0.51
  -4   2 -12    7.60    0.61
   4  -2  12    7.36    0.56
  -5   2 -12    5.14    0.55
   5  -2  12    6.08    0.57
   7   1 -12    0.39    0.27
  -7  -1  12    0.48    0.27
   6   1 -12    4.74    0.49
  -6  -1  12    5.57    0.53
   5   1 -12    5.67    0.48
  -5  -1  12    5.97    0.48
   4   1 -12   13.17    0.68
  -4  -1  12   13.08    0.67
   3   1 -12    5.72    0.46
  -3  -1  12    5.61    0.43
   2   1 -12    0.42    0.19
  -2  -1  12    0.86    0.22
   1   1 -12    5.97    0.44
  -1  -1  12    5.55    0.42
   0   1 -12    0.93    0.23
   0  -1  12    0.91    0.21
  -1   1 -12    1.78    0.29
   1  -1  12    1.20    0.25
  -2   1 -12   12.61    0.68
   2  -1  12   14.67    0.68
  -3   1 -12    4.59    0.45
   3  -1  12    3.46    0.39
  -4   1 -12    0.04    0.21
   4  -1  12    0.17    0.20
  -5   1 -12   -0.06    0.22
   5  -1  12   -0.28    0.18
  -6   1 -12    0.29    0.27
   6  -1  12    0.76    0.28
   7   0 -12    0.19    0.25
  -7   0  12    0.34    0.26
   6   0 -12    0.31    0.24
  -6   0  12    0.65    0.24
   5   0 -12    2.03    0.33
  -5   0  12    1.80    0.31
   4   0 -12    0.59    0.23
  -4   0  12    0.29    0.19
   3   0 -12    0.71    0.21
  -3   0  12    0.47    0.18
   2   0 -12    8.77    0.50
  -2   0  12    7.94    0.49
   1   0 -12   32.70    1.12
  -1   0  12   31.57    1.12
   0   0 -12   19.34    0.79
   0   0  12   19.12    0.78
  -1   0 -12    8.68    0.50
   1   0  12    8.60    0.51
  -2   0 -12    3.94    0.39
   2   0  12    4.59    0.43
  -3   0 -12    5.08    0.45
   3   0  12    4.15    0.41
  -4   0 -12    2.76    0.35
   4   0  12    2.61    0.36
  -5   0 -12    0.02    0.21
   5   0  12    0.00    0.18
  -6   0 -12    4.16    0.47
   6   0  12    3.40    0.44
   7   0  12    1.08    0.33
   7  -1 -12    0.07    0.23
  -7   1  12    0.39    0.29
   6  -1 -12    0.15    0.22
  -6   1  12    0.02    0.21
   5  -1 -12   13.90    0.74
  -5   1  12   14.30    0.73
   4  -1 -12    6.03    0.45
  -4   1  12    5.13    0.43
   3  -1 -12   -0.07    0.14
  -3   1  12    0.01    0.15
   2  -1 -12   10.90    0.55
  -2   1  12    9.93    0.54
   1  -1 -12   17.22    0.71
  -1   1  12   16.54    0.71
   0  -1 -12    1.98    0.27
   0   1  12    2.30    0.29
  -1  -1 -12   17.57    0.72
   1   1  12   17.54    0.73
  -2  -1 -12    3.84    0.35
   2   1  12    4.41    0.37
  -3  -1 -12    4.55    0.39
   3   1  12    5.06    0.45
  -4  -1 -12    7.62    0.50
   4   1  12    8.02    0.51
  -5  -1 -12    0.65    0.25
  -5  -1 -12    0.78    0.21
   5   1  12    0.72    0.25
  -6  -1 -12    0.33    0.24
  -6  -1 -12    0.31    0.19
   6   1  12    0.55    0.25
   7   1  12    1.65    0.35
  -7   2  12   -0.05    0.26
   6  -2 -12    2.21    0.39
  -6   2  12    2.08    0.38
   5  -2 -12    2.69    0.37
  -5   2  12    2.77    0.39
   4  -2 -12    4.05    0.40
  -4   2  12    3.56    0.39
   3  -2 -12    0.27    0.18
  -3   2  12    0.28    0.18
   2  -2 -12    0.80    0.21
  -2   2  12    1.58    0.26
   1  -2 -12   -0.04    0.12
  -1   2  12    0.26    0.16
   0  -2 -12    7.87    0.44
   0   2  12    7.50    0.45
  -1  -2 -12   15.69    0.65
   1   2  12   15.12    0.66
  -2  -2 -12   30.88    1.03
   2   2  12   29.28    1.05
  -3  -2 -12   12.17    0.58
   3   2  12   12.73    0.61
  -4  -2 -12   12.80    0.62
  -4  -2 -12   12.60    0.59
   4   2  12   12.92    0.64
  -5  -2 -12    3.55    0.34
  -5  -2 -12    2.88    0.34
   5   2  12    2.42    0.34
  -6  -2 -12   11.85    0.60
   6   2  12   11.09    0.65
  -7  -2 -12    1.81    0.29
   7   2  12    1.10    0.31
   8   2  12    0.70    0.31
  -6   3  12    1.20    0.33
  -5   3  12    8.32    0.58
   4  -3 -12    1.01    0.24
  -4   3  12    0.55    0.23
   3  -3 -12   10.25    0.54
  -3   3  12    9.97    0.57
   2  -3 -12    5.11    0.37
  -2   3  12    4.63    0.39
   1  -3 -12    6.98    0.41
  -1   3  12    6.60    0.43
   0  -3 -12    8.89    0.45
   0   3  12    9.15    0.48
  -1  -3 -12   -0.04    0.11
   1   3  12    0.40    0.16
  -2  -3 -12   21.17    0.76
   2   3  12   20.01    0.79
  -3  -3 -12    0.08    0.12
  -3  -3 -12    0.13    0.16
   3   3  12    0.09    0.14
  -4  -3 -12   -0.03    0.15
  -4  -3 -12    0.18    0.15
   4   3  12    0.01    0.16
  -5  -3 -12   12.42    0.61
   5   3  12   12.13    0.63
  -6  -3 -12   14.25    0.67
   6   3  12   13.88    0.71
  -7  -3 -12    2.89    0.36
   7   3  12    2.97    0.43
  -8  -3 -12    2.98    0.38
   8   3  12    2.77    0.43
  -6   4  12    4.11    0.50
  -5   4  12    1.26    0.31
  -4   4  12    4.46    0.45
  -3   4  12    6.95    0.48
   2  -4 -12    5.42    0.37
  -2   4  12    5.18    0.41
   1  -4 -12    6.51    0.38
  -1   4  12    6.48    0.42
   0  -4 -12    4.39    0.30
   0   4  12    4.30    0.34
  -1  -4 -12    1.34    0.19
   1   4  12    2.11    0.26
  -2  -4 -12   10.93    0.48
   2   4  12   10.63    0.52
  -3  -4 -12    2.91    0.32
  -3  -4 -12    3.53    0.28
   3   4  12    3.44    0.33
  -4  -4 -12    5.50    0.42
   4   4  12    4.37    0.36
  -5  -4 -12    0.97    0.24
   5   4  12    0.63    0.20
  -6  -4 -12    0.42    0.22
   6   4  12    0.62    0.22
  -7  -4 -12    0.38    0.22
   7   4  12   -0.10    0.19
  -8  -4 -12    1.44    0.31
   8   4  12    2.25    0.38
  -5   5  12    0.26    0.26
  -4   5  12    4.05    0.44
  -3   5  12    1.57    0.29
  -2   5  12    4.11    0.38
  -1   5  12    8.44    0.48
   0   5  12    7.01    0.42
   1   5  12    9.53    0.48
   2   5  12   47.53    1.45
  -3  -5 -12   47.78    1.47
   3   5  12   44.09    1.40
  -4  -5 -12    3.01    0.35
   4   5  12    2.82    0.30
  -5  -5 -12   10.40    0.58
   5   5  12   10.35    0.53
  -6  -5 -12    2.73    0.35
   6   5  12    3.53    0.38
  -7  -5 -12    6.70    0.51
   7   5  12    6.05    0.49
  -8  -5 -12    0.16    0.23
   8   5  12    0.48    0.26
  -4   6  12    0.26    0.24
  -3   6  12    3.84    0.40
  -2   6  12   19.76    0.81
  -1   6  12   12.23    0.59
   0   6  12    0.11    0.15
   1   6  12    9.53    0.47
   2   6  12    0.12    0.13
  -3  -6 -12    3.40    0.36
   3   6  12    3.75    0.31
  -4  -6 -12   12.69    0.64
   4   6  12   12.44    0.57
  -5  -6 -12   11.62    0.62
   5   6  12   10.70    0.54
  -6  -6 -12    5.53    0.48
   6   6  12    5.20    0.42
  -7  -6 -12    4.10    0.44
   7   6  12    3.48    0.38
  -8  -6 -12   -0.08    0.21
   8   6  12    0.07    0.19
  -4   7  12    1.50    0.33
  -3   7  12    0.45    0.23
  -2   7  12    5.15    0.43
  -1   7  12   13.80    0.63
   0   7  12    3.77    0.33
   1   7  12   10.44    0.49
   2   7  12    5.27    0.34
  -3  -7 -12    6.30    0.48
   3   7  12    5.02    0.34
  -4  -7 -12    8.06    0.53
   4   7  12    7.40    0.42
  -5  -7 -12    0.61    0.24
   5   7  12    0.71    0.19
  -6  -7 -12    2.98    0.39
   6   7  12    3.19    0.32
  -7  -7 -12    0.08    0.20
   7   7  12    0.13    0.18
   8   7  12    0.03    0.20
  -3   8  12    1.25    0.30
  -2   8  12    0.97    0.26
  -1   8  12    0.79    0.22
   0   8  12    3.20    0.32
   1   8  12   13.38    0.57
   2   8  12    3.00    0.27
  -3  -8 -12    0.17    0.21
   3   8  12    0.04    0.12
  -4  -8 -12    1.45    0.30
   4   8  12    0.92    0.18
  -5  -8 -12    6.80    0.51
   5   8  12    6.18    0.39
  -6  -8 -12    8.68    0.58
   6   8  12    8.06    0.46
  -7  -8 -12    0.13    0.23
   7   8  12    0.94    0.22
  -1   9  12    0.42    0.20
   0   9  12    0.09    0.15
   1   9  12    0.93    0.18
   2   9  12    0.60    0.15
  -3  -9 -12    1.80    0.32
   3   9  12    2.20    0.22
  -4  -9 -12    2.79    0.39
   4   9  12    2.70    0.25
  -5  -9 -12   16.15    0.79
   5   9  12   14.45    0.58
  -6  -9 -12    5.58    0.52
   6   9  12    5.88    0.38
   7   9  12    0.06    0.15
   0  10  12    1.92    0.27
   1  10  12    1.82    0.23
   2  10  12    5.26    0.31
  -3 -10 -12    5.23    0.50
   3  10  12    6.41    0.31
  -4 -10 -12    0.34    0.25
   4  10  12    0.02    0.11
  -5 -10 -12    2.60    0.40
   5  10  12    2.47    0.22
   6  10  12    2.16    0.24
   4   5 -13    2.93    0.42
   3   5 -13    7.26    0.61
   2   5 -13    0.27    0.24
   1   5 -13    3.10    0.45
   0   5 -13    4.76    0.54
  -1   5 -13    4.54    0.54
   5   4 -13    0.54    0.28
   4   4 -13    8.83    0.65
   3   4 -13    9.95    0.68
   2   4 -13    4.42    0.47
   1   4 -13    0.87    0.28
   0   4 -13    1.57    0.34
  -1   4 -13    0.05    0.25
  -2   4 -13   -0.14    0.25
  -3   4 -13    1.51    0.39
   6   3 -13    0.12    0.24
   5   3 -13    1.00    0.29
   4   3 -13    8.61    0.61
   3   3 -13    0.08    0.22
  -3  -3  13    0.33    0.20
   2   3 -13    7.21    0.55
  -2  -3  13    6.39    0.50
   1   3 -13    0.12    0.21
  -1  -3  13   -0.16    0.16
   0   3 -13   -0.12    0.20
   0  -3  13    0.19    0.19
  -1   3 -13    3.85    0.46
   1  -3  13    3.81    0.43
  -2   3 -13    0.58    0.28
   2  -3  13    0.50    0.22
  -3   3 -13    1.08    0.34
  -4   3 -13    7.64    0.69
   6   2 -13    0.13    0.25
   5   2 -13    2.56    0.39
  -5  -2  13    2.55    0.37
   4   2 -13    2.97    0.39
  -4  -2  13    2.92    0.37
   3   2 -13    0.04    0.19
  -3  -2  13    0.01    0.16
   2   2 -13    1.05    0.29
  -2  -2  13    1.30    0.27
   1   2 -13    2.39    0.34
  -1  -2  13    2.26    0.32
   0   2 -13    8.66    0.57
   0  -2  13    8.97    0.55
  -1   2 -13    8.13    0.57
   1  -2  13    7.63    0.52
  -2   2 -13    0.47    0.26
   2  -2  13    0.56    0.22
  -3   2 -13    4.59    0.50
   3  -2  13    4.32    0.47
  -4   2 -13    0.27    0.27
   4  -2  13   -0.11    0.19
  -5   2 -13    0.48    0.31
   5  -2  13    0.86    0.31
   6   1 -13    0.45    0.27
  -6  -1  13    0.77    0.29
   5   1 -13    5.50    0.52
  -5  -1  13    5.76    0.54
   4   1 -13    3.62    0.43
  -4  -1  13    4.57    0.47
   3   1 -13    3.75    0.41
  -3  -1  13    3.61    0.39
   2   1 -13   -0.12    0.18
  -2  -1  13    0.11    0.18
   1   1 -13    1.16    0.27
  -1  -1  13    1.18    0.27
   0   1 -13    3.32    0.37
   0  -1  13    3.71    0.41
  -1   1 -13    7.67    0.52
   1  -1  13    7.18    0.50
  -2   1 -13    3.96    0.43
   2  -1  13    2.81    0.37
  -3   1 -13   14.56    0.77
   3  -1  13   15.04    0.76
  -4   1 -13    5.90    0.54
   4  -1  13    5.69    0.54
  -5   1 -13    2.81    0.43
   5  -1  13    3.12    0.45
  -6   1 -13    0.52    0.30
   6  -1  13   -0.26    0.23
   6   0 -13    4.86    0.52
  -6   0  13    5.61    0.54
   5   0 -13    2.48    0.37
  -5   0  13    3.49    0.43
   4   0 -13    0.65    0.24
  -4   0  13    0.76    0.24
   3   0 -13   -0.23    0.16
  -3   0  13   -0.11    0.16
   2   0 -13    0.44    0.20
  -2   0  13    0.55    0.21
   1   0 -13    9.13    0.54
  -1   0  13    9.26    0.54
   0   0 -13    0.48    0.20
   0   0  13    0.61    0.21
  -1   0 -13    0.74    0.21
   1   0  13    0.69    0.23
  -2   0 -13    6.77    0.50
   2   0  13    7.69    0.52
  -3   0 -13    7.51    0.54
   3   0  13    7.87    0.53
  -4   0 -13    2.49    0.38
   4   0  13    2.56    0.37
  -5   0 -13    0.27    0.24
   5   0  13   -0.06    0.21
  -6   0 -13    0.45    0.29
   6   0  13   -0.03    0.22
   6  -1 -13    0.05    0.21
  -6   1  13    0.07    0.24
   5  -1 -13    4.29    0.46
  -5   1  13    4.33    0.46
   4  -1 -13    0.43    0.23
  -4   1  13    0.02    0.20
   3  -1 -13    0.66    0.21
  -3   1  13    0.02    0.18
   2  -1 -13    2.64    0.32
  -2   1  13    2.42    0.32
   1  -1 -13   16.00    0.70
  -1   1  13   14.00    0.67
   0  -1 -13   65.70    1.90
   0   1  13   60.38    1.91
  -1  -1 -13    7.06    0.47
   1   1  13    7.94    0.49
  -2  -1 -13    3.52    0.35
   2   1  13    4.45    0.42
  -3  -1 -13    0.03    0.16
   3   1  13    0.06    0.16
  -4  -1 -13    3.02    0.37
   4   1  13    2.94    0.39
  -5  -1 -13    2.71    0.37
   5   1  13    3.53    0.43
   6   1  13    1.94    0.36
   7   1  13    3.06    0.48
  -6   2  13    0.23    0.26
   5  -2 -13    1.64    0.31
  -5   2  13    1.12    0.31
   4  -2 -13    4.95    0.46
  -4   2  13    4.99    0.49
   3  -2 -13    3.42    0.37
  -3   2  13    2.78    0.36
   2  -2 -13    0.02    0.15
  -2   2  13    0.09    0.17
   1  -2 -13    9.77    0.52
  -1   2  13    9.37    0.53
   0  -2 -13    2.08    0.27
   0   2  13    1.89    0.29
  -1  -2 -13   11.55    0.56
   1   2  13   11.39    0.59
  -2  -2 -13    9.72    0.52
   2   2  13   10.00    0.55
  -3  -2 -13    8.89    0.50
   3   2  13    7.71    0.51
  -4  -2 -13    8.88    0.53
   4   2  13    8.34    0.53
  -5  -2 -13    5.07    0.43
   5   2  13    6.28    0.56
  -6  -2 -13    0.47    0.23
   6   2  13    0.90    0.27
  -7  -2 -13    0.16    0.21
   7   2  13   -0.11    0.22
  -6   3  13    3.05    0.45
  -5   3  13    9.28    0.64
  -4   3  13   17.02    0.82
   3  -3 -13    0.10    0.16
  -3   3  13   -0.14    0.17
   2  -3 -13    7.16    0.45
  -2   3  13    7.42    0.49
   1  -3 -13    2.64    0.30
  -1   3  13    3.06    0.35
   0  -3 -13    5.95    0.38
   0   3  13    5.68    0.41
  -1  -3 -13    6.03    0.38
   1   3  13    5.55    0.40
  -2  -3 -13    0.45    0.17
   2   3  13    0.56    0.19
  -3  -3 -13    0.57    0.18
   3   3  13    0.40    0.19
  -4  -3 -13    4.57    0.42
   4   3  13    3.79    0.39
  -5  -3 -13    0.12    0.18
   5   3  13   -0.17    0.17
  -6  -3 -13    5.05    0.44
   6   3  13    4.47    0.48
  -7  -3 -13    8.81    0.58
   7   3  13    8.56    0.64
  -5   4  13   -0.01    0.23
  -4   4  13    2.01    0.35
  -3   4  13    5.09    0.47
  -2   4  13   20.14    0.84
  -1   4  13    7.82    0.49
   0  -4 -13    0.06    0.13
   0   4  13    0.15    0.15
  -1  -4 -13    4.61    0.33
   1   4  13    4.80    0.37
   2   4  13    0.63    0.20
  -3  -4 -13    6.04    0.44
   3   4  13    5.56    0.41
  -4  -4 -13    0.70    0.23
   4   4  13    0.76    0.22
  -5  -4 -13    1.90    0.30
   5   4  13    1.42    0.27
  -6  -4 -13   16.86    0.78
   6   4  13   15.75    0.78
  -7  -4 -13   10.28    0.64
   7   4  13   11.45    0.69
  -8  -4 -13    0.66    0.28
   8   4  13    0.94    0.31
  -5   5  13    4.67    0.53
  -4   5  13   13.00    0.72
  -3   5  13    0.38    0.23
  -2   5  13    3.22    0.37
  -1   5  13   -0.18    0.14
   0   5  13    3.06    0.33
   1   5  13    4.39    0.36
   2   5  13   13.15    0.60
  -3  -5 -13   13.75    0.67
   3   5  13   13.07    0.61
  -4  -5 -13    1.67    0.28
   4   5  13    1.49    0.26
  -5  -5 -13    0.44    0.23
   5   5  13    0.51    0.21
  -6  -5 -13   -0.03    0.19
   6   5  13    0.26    0.19
  -7  -5 -13    1.46    0.32
   7   5  13    0.98    0.27
  -8  -5 -13    5.62    0.53
   8   5  13    5.61    0.56
  -4   6  13    4.96    0.50
  -3   6  13   -0.16    0.18
  -2   6  13    0.23    0.20
  -1   6  13    3.33    0.35
   0   6  13    3.68    0.35
   1   6  13    0.22    0.16
   2   6  13    5.31    0.38
  -3  -6 -13   13.36    0.68
   3   6  13   12.70    0.59
  -4  -6 -13   -0.38    0.16
   4   6  13    0.10    0.14
  -5  -6 -13    6.55    0.51
   5   6  13    6.55    0.45
  -6  -6 -13    6.73    0.52
   6   6  13    6.95    0.48
  -7  -6 -13    0.32    0.24
   7   6  13    0.40    0.21
   8   6  13    0.79    0.28
  -3   7  13    4.43    0.46
  -2   7  13    0.63    0.24
  -1   7  13    2.76    0.34
   0   7  13    3.28    0.33
   1   7  13    0.54    0.18
   2   7  13    1.66    0.24
  -3  -7 -13    0.75    0.25
   3   7  13    0.26    0.15
  -4  -7 -13    1.88    0.30
   4   7  13    2.54    0.28
  -5  -7 -13    9.75    0.61
   5   7  13    9.50    0.52
  -6  -7 -13    2.30    0.38
   6   7  13    2.82    0.34
  -7  -7 -13    1.21    0.30
   7   7  13    2.15    0.32
  -2   8  13    0.47    0.23
  -1   8  13    1.54    0.27
   0   8  13    0.20    0.18
   1   8  13   20.06    0.76
   2   8  13   24.21    0.86
  -3  -8 -13    0.73    0.25
   3   8  13    0.77    0.18
  -4  -8 -13    0.26    0.23
   4   8  13   -0.05    0.13
  -5  -8 -13    0.66    0.26
   5   8  13    0.55    0.19
  -6  -8 -13    0.29    0.23
   6   8  13    0.00    0.15
   7   8  13    0.40    0.21
  -1   9  13    0.97    0.24
   0   9  13    3.44    0.34
   1   9  13    8.72    0.47
   2   9  13    3.48    0.30
  -3  -9 -13    2.33    0.38
   3   9  13    2.77    0.27
  -4  -9 -13    3.33    0.42
   4   9  13    3.55    0.31
  -5  -9 -13    1.02    0.30
   5   9  13    1.04    0.20
   6   9  13    5.71    0.39
   1  10  13    0.03    0.15
   2  10  13   -0.02    0.13
   3  10  13    1.48    0.20
  -4 -10 -13    2.34    0.40
   4  10  13    2.15    0.23
   5  10  13    2.42    0.25
   2   5 -14    0.78    0.31
   1   5 -14    0.18    0.28
   4   4 -14    0.38    0.28
   3   4 -14    1.01    0.31
   2   4 -14    2.19    0.38
   1   4 -14    0.27    0.25
   0   4 -14    8.20    0.66
  -1   4 -14    1.92    0.39
  -2   4 -14   -0.26    0.26
   5   3 -14    0.17    0.25
   4   3 -14    1.69    0.36
   3   3 -14    1.66    0.33
   2   3 -14    1.20    0.31
   1   3 -14    0.61    0.27
  -1  -3  14    1.00    0.27
   0   3 -14    3.20    0.42
   0  -3  14    3.27    0.41
  -1   3 -14    0.39    0.27
   1  -3  14    0.24    0.20
  -2   3 -14   -0.35    0.23
  -3   3 -14    2.21    0.42
   6   2 -14   -0.05    0.26
   5   2 -14    0.29    0.25
   4   2 -14    5.28    0.53
  -4  -2  14    6.13    0.51
   3   2 -14    8.90    0.61
  -3  -2  14    7.78    0.55
   2   2 -14    0.32    0.23
  -2  -2  14    0.14    0.20
   1   2 -14    0.72    0.26
  -1  -2  14    1.19    0.29
   0   2 -14    1.90    0.35
   0  -2  14    1.66    0.31
  -1   2 -14    3.40    0.42
   1  -2  14    4.20    0.44
  -2   2 -14    6.95    0.60
   2  -2  14    6.91    0.55
  -3   2 -14    2.38    0.41
   3  -2  14    1.48    0.32
  -4   2 -14    0.86    0.33
   4  -2  14    1.02    0.32
   6   1 -14    0.46    0.28
  -6  -1  14    0.42    0.25
   5   1 -14    0.28    0.23
  -5  -1  14    0.43    0.23
   4   1 -14    0.28    0.23
  -4  -1  14    0.52    0.24
   3   1 -14    0.89    0.28
  -3  -1  14    1.39    0.29
   2   1 -14    1.26    0.29
  -2  -1  14    1.64    0.31
   1   1 -14    6.71    0.52
  -1  -1  14    7.06    0.51
   0   1 -14   16.39    0.79
   0  -1  14   15.53    0.77
  -1   1 -14    8.03    0.56
   1  -1  14    8.38    0.56
  -2   1 -14    0.63    0.26
   2  -1  14    0.29    0.21
  -3   1 -14    6.05    0.54
   3  -1  14    5.50    0.53
  -4   1 -14    2.18    0.39
   4  -1  14    1.20    0.31
  -5   1 -14    1.53    0.37
   5  -1  14    1.62    0.36
   6   0 -14    0.13    0.28
  -6   0  14   -0.01    0.23
   5   0 -14    3.19    0.43
  -5   0  14    2.88    0.41
   4   0 -14    1.09    0.27
  -4   0  14    1.25    0.29
   3   0 -14    0.56    0.23
  -3   0  14    0.26    0.21
   2   0 -14   18.24    0.82
  -2   0  14   17.80    0.82
   1   0 -14   21.59    0.89
  -1   0  14   19.64    0.87
   0   0 -14    7.66    0.53
   0   0  14    8.27    0.54
  -1   0 -14    2.09    0.33
   1   0  14    2.49    0.34
  -2   0 -14    2.02    0.33
   2   0  14    2.60    0.37
  -3   0 -14    9.81    0.63
   3   0  14   10.26    0.62
  -4   0 -14   16.39    0.84
   4   0  14   16.47    0.84
  -5   0 -14    0.29    0.26
   5   0  14    0.09    0.24
   6   0  14    1.22    0.36
   6  -1 -14    1.95    0.40
  -6   1  14    1.78    0.38
   5  -1 -14    5.31    0.52
  -5   1  14    4.08    0.48
   4  -1 -14    5.79    0.53
  -4   1  14    5.36    0.53
   3  -1 -14    0.75    0.24
  -3   1  14    0.73    0.25
   2  -1 -14    1.30    0.26
  -2   1  14    1.39    0.27
   1  -1 -14   10.08    0.56
  -1   1  14    8.19    0.53
   0  -1 -14   -0.06    0.17
   0   1  14    0.16    0.19
  -1  -1 -14    0.54    0.21
   1   1  14    0.66    0.22
  -2  -1 -14    0.52    0.21
   2   1  14    0.39    0.20
  -3  -1 -14    7.68    0.52
   3   1  14    8.10    0.55
  -4  -1 -14    5.45    0.49
   4   1  14    4.99    0.53
   5   1  14    0.10    0.22
   6   1  14    1.32    0.35
  -6   2  14    0.01    0.26
  -5   2  14    3.10    0.45
   4  -2 -14    0.31    0.23
  -4   2  14   -0.05    0.19
   3  -2 -14    2.44    0.34
  -3   2  14    2.48    0.36
   2  -2 -14    4.10    0.41
  -2   2  14    4.54    0.45
   1  -2 -14   15.56    0.71
  -1   2  14   14.94    0.72
   0  -2 -14   43.07    1.41
   0   2  14   43.14    1.44
  -1  -2 -14    0.28    0.19
   1   2  14    0.13    0.17
  -2  -2 -14    1.81    0.28
   2   2  14    1.71    0.29
  -3  -2 -14    0.66    0.22
   3   2  14    0.77    0.23
   4   2  14    1.25    0.29
   5   2  14    2.89    0.40
  -6  -2 -14    0.46    0.23
   6   2  14    0.78    0.30
   7   2  14    0.20    0.27
  -5   3  14    1.63    0.35
  -4   3  14    1.22    0.32
  -3   3  14    1.88    0.33
   2  -3 -14   -0.12    0.16
  -2   3  14    0.09    0.19
   1  -3 -14   -0.04    0.14
  -1   3  14   -0.25    0.15
   0  -3 -14    0.10    0.15
   0   3  14   -0.16    0.14
  -1  -3 -14    1.08    0.21
   1   3  14    0.46    0.19
  -2  -3 -14    8.52    0.49
   2   3  14    9.13    0.54
   3   3  14   17.25    0.78
   4   3  14   10.90    0.63
  -5  -3 -14    1.67    0.30
   5   3  14    1.91    0.33
  -6  -3 -14    0.14    0.22
   6   3  14    0.82    0.28
  -7  -3 -14    0.52    0.26
   7   3  14    0.28    0.27
  -5   4  14    0.36    0.29
  -4   4  14   -0.04    0.22
  -3   4  14    1.94    0.34
  -2   4  14    0.73    0.23
  -1   4  14    5.42    0.44
   0   4  14    1.39    0.26
   1   4  14    3.36    0.35
   2   4  14   20.48    0.84
   3   4  14    9.07    0.54
  -4  -4 -14    1.40    0.29
   4   4  14    1.53    0.29
  -5  -4 -14    0.47    0.24
   5   4  14    0.67    0.23
  -6  -4 -14    8.66    0.58
   6   4  14    8.55    0.60
  -7  -4 -14   12.80    0.71
   7   4  14   13.18    0.78
  -4   5  14    2.27    0.39
  -3   5  14   -0.20    0.20
  -2   5  14   12.24    0.67
  -1   5  14   24.06    0.95
   0   5  14    5.18    0.42
   1   5  14    7.04    0.46
   2   5  14   -0.05    0.15
   3   5  14    6.10    0.44
  -4  -5 -14    3.96    0.41
   4   5  14    4.73    0.43
  -5  -5 -14    0.42    0.23
   5   5  14    1.21    0.26
  -6  -5 -14    0.54    0.26
   6   5  14    0.96    0.27
  -7  -5 -14    7.09    0.57
   7   5  14    7.87    0.59
  -4   6  14    1.88    0.36
  -3   6  14    1.57    0.33
  -2   6  14    3.59    0.41
  -1   6  14    0.51    0.22
   0   6  14    1.67    0.27
   1   6  14    7.06    0.46
   2   6  14    5.02    0.39
   3   6  14   19.52    0.80
  -4  -6 -14   10.81    0.66
   4   6  14   10.93    0.58
  -5  -6 -14    0.37    0.23
   5   6  14    0.36    0.21
  -6  -6 -14    1.18    0.30
   6   6  14    2.39    0.34
  -7  -6 -14   -0.01    0.23
   7   6  14   -0.10    0.18
  -3   7  14    0.17    0.25
  -2   7  14    2.39    0.35
  -1   7  14    0.29    0.20
   0   7  14    4.46    0.41
   1   7  14    6.18    0.43
   2   7  14    3.65    0.35
   3   7  14    1.42    0.25
  -4  -7 -14   -0.08    0.21
   4   7  14    0.10    0.16
  -5  -7 -14    7.35    0.62
   5   7  14    7.06    0.48
  -6  -7 -14    6.13    0.57
   6   7  14    5.55    0.47
   7   7  14    3.92    0.44
  -2   8  14    5.44    0.49
  -1   8  14    0.17    0.22
   0   8  14    0.83    0.22
   1   8  14   -0.09    0.16
   2   8  14    6.17    0.42
   3   8  14    0.79    0.20
  -4  -8 -14    0.22    0.23
   4   8  14    0.13    0.16
  -5  -8 -14    4.81    0.51
   5   8  14    5.48    0.40
  -6  -8 -14   14.83    0.90
   6   8  14   13.27    0.66
   0   9  14    0.27    0.21
   1   9  14    0.40    0.19
   2   9  14    9.27    0.49
   3   9  14   11.67    0.55
  -4  -9 -14    0.40    0.26
   4   9  14    0.45    0.18
   5   9  14    1.41    0.24
   6   9  14    0.42    0.19
   2  10  14    4.61    0.36
   3  10  14    0.06    0.15
   4  10  14    1.03    0.20
   3   4 -15    0.90    0.33
   2   4 -15   -0.29    0.22
   1   4 -15    0.28    0.27
   0   4 -15    2.69    0.45
   4   3 -15    1.06    0.32
   3   3 -15    0.24    0.25
   2   3 -15   -0.11    0.23
   1   3 -15    0.82    0.29
   0   3 -15    5.71    0.57
  -1   3 -15    9.66    0.71
  -2   3 -15    0.91    0.34
   5   2 -15    0.72    0.30
   4   2 -15    2.73    0.41
   3   2 -15    4.30    0.49
  -3  -2  15    4.55    0.50
   2   2 -15    1.50    0.33
  -2  -2  15    1.96    0.35
   1   2 -15    0.87    0.28
  -1  -2  15    0.64    0.25
   0   2 -15    0.28    0.24
   0  -2  15    0.79    0.27
  -1   2 -15    0.45    0.26
   1  -2  15    0.26    0.22
  -2   2 -15    0.18    0.28
   2  -2  15    0.22    0.22
  -3   2 -15    2.38    0.43
   3  -2  15    2.20    0.41
   5   1 -15    3.66    0.49
  -5  -1  15    3.07    0.42
   4   1 -15    0.57    0.26
  -4  -1  15    0.84    0.28
   3   1 -15    6.97    0.57
  -3  -1  15    5.33    0.51
   2   1 -15    0.57    0.26
  -2  -1  15    0.19    0.22
   1   1 -15    4.93    0.48
  -1  -1  15    5.35    0.53
   0   1 -15    5.21    0.51
   0  -1  15    4.12    0.47
  -1   1 -15    1.39    0.31
   1  -1  15    1.25    0.29
  -2   1 -15    1.94    0.36
   2  -1  15    2.31    0.38
  -3   1 -15    1.04    0.31
   3  -1  15    0.41    0.26
  -4   1 -15   -0.04    0.26
   4  -1  15    0.15    0.25
   5   0 -15    0.76    0.31
  -5   0  15    0.80    0.29
   4   0 -15   -0.06    0.20
  -4   0  15    0.48    0.26
   3   0 -15    0.23    0.23
  -3   0  15    0.13    0.21
   2   0 -15    6.15    0.52
  -2   0  15    6.48    0.51
   1   0 -15    2.04    0.33
  -1   0  15    1.83    0.32
   0   0 -15   12.21    0.69
   0   0  15   11.41    0.66
  -1   0 -15    0.66    0.26
   1   0  15    0.62    0.23
  -2   0 -15    0.35    0.23
   2   0  15    0.46    0.24
  -3   0 -15   -0.09    0.22
   3   0  15   -0.11    0.20
  -4   0 -15    2.36    0.40
   4   0  15    1.50    0.33
   5   0  15    2.60    0.44
   5  -1 -15    0.77    0.30
  -5   1  15    1.67    0.35
   4  -1 -15    5.47    0.53
  -4   1  15    8.49    0.61
   3  -1 -15    0.95    0.27
  -3   1  15    0.31    0.26
   2  -1 -15    7.71    0.54
  -2   1  15    5.81    0.50
   1  -1 -15    8.27    0.56
  -1   1  15    7.85    0.56
   0  -1 -15    0.25    0.20
   0   1  15    0.11    0.20
  -1  -1 -15    0.36    0.22
   1   1  15    0.42    0.21
  -2  -1 -15    1.26    0.29
   2   1  15    0.47    0.23
  -3  -1 -15    1.83    0.32
   3   1  15    1.91    0.35
   4   1  15   13.23    0.77
   5   1  15    1.09    0.34
  -5   2  15    3.00    0.45
  -4   2  15    5.93    0.56
   3  -2 -15   -0.37    0.18
  -3   2  15    0.46    0.25
   2  -2 -15    1.05    0.27
  -2   2  15    1.71    0.32
   1  -2 -15    3.34    0.38
  -1   2  15    3.31    0.41
   0  -2 -15    9.36    0.56
   0   2  15    8.99    0.57
  -1  -2 -15   11.55    0.61
   1   2  15   11.33    0.64
  -2  -2 -15    0.51    0.22
   2   2  15    0.13    0.19
   3   2  15    1.21    0.29
   4   2  15    2.82    0.41
   5   2  15    0.72    0.30
   6   2  15    4.08    0.52
  -5   3  15   -0.14    0.25
  -4   3  15    0.39    0.27
  -3   3  15    0.78    0.27
  -2   3  15    9.94    0.62
  -1   3  15    1.34    0.29
   0   3  15    0.09    0.18
   1   3  15    1.73    0.31
   2   3  15    1.87    0.32
   3   3  15    5.79    0.47
   4   3  15   -0.08    0.20
   5   3  15    0.86    0.28
  -6  -3 -15    2.52    0.37
   6   3  15    3.36    0.46
  -4   4  15    1.81    0.38
  -3   4  15    4.39    0.48
  -2   4  15    3.70    0.43
  -1   4  15    1.68    0.30
   0   4  15    0.55    0.22
   1   4  15   -0.11    0.16
   2   4  15    9.52    0.57
   3   4  15   19.89    0.86
   4   4  15    3.58    0.42
  -5  -4 -15    1.48    0.31
   5   4  15    1.80    0.35
  -6  -4 -15    0.96    0.31
   6   4  15    1.41    0.32
  -4   5  15    0.15    0.26
  -3   5  15   -0.33    0.21
  -2   5  15    1.74    0.33
  -1   5  15   13.85    0.71
   0   5  15    6.31    0.49
   1   5  15    0.00    0.16
   2   5  15    2.63    0.34
   3   5  15    2.09    0.32
   4   5  15    0.06    0.19
  -5  -5 -15    7.12    0.58
   5   5  15    6.77    0.58
  -6  -5 -15    8.65    0.61
   6   5  15    8.28    0.61
  -7  -5 -15    0.36    0.28
   7   5  15    1.12    0.33
  -3   6  15    2.05    0.39
  -2   6  15    1.58    0.31
  -1   6  15    6.04    0.50
   0   6  15    4.29    0.42
   1   6  15    1.34    0.26
   2   6  15    4.80    0.43
   3   6  15    0.35    0.19
  -4  -6 -15    3.26    0.40
   4   6  15    4.07    0.41
  -5  -6 -15    1.54    0.33
   5   6  15    1.26    0.28
  -6  -6 -15    0.02    0.23
   6   6  15    0.21    0.22
  -2   7  15    0.14    0.23
  -1   7  15    3.63    0.41
   0   7  15    0.72    0.24
   1   7  15    9.91    0.57
   2   7  15   10.32    0.57
   3   7  15    3.01    0.36
  -4  -7 -15    1.12    0.31
   4   7  15    1.18    0.26
  -5  -7 -15   -0.32    0.21
   5   7  15    0.10    0.19
   6   7  15    1.77    0.32
  -1   8  15    2.05    0.33
   0   8  15    3.51    0.39
   1   8  15    7.38    0.50
   2   8  15    0.98    0.24
   3   8  15    0.32    0.18
  -4  -8 -15    0.15    0.25
   4   8  15   -0.01    0.17
   5   8  15    1.12    0.26
   6   8  15   10.08    0.59
   1   9  15    1.44    0.27
   2   9  15    2.17    0.29
   3   9  15    1.83    0.28
   4   9  15    0.33    0.20
   5   9  15    0.70    0.22
   2   3 -16    0.38    0.29
   1   3 -16    0.51    0.28
   0   3 -16    0.48    0.28
   3   2 -16    0.29    0.26
   2   2 -16    0.27    0.27
  -2  -2  16    0.11    0.21
   1   2 -16    1.55    0.34
  -1  -2  16    0.87    0.28
   0   2 -16    3.45    0.47
   0  -2  16    3.93    0.48
  -1   2 -16   10.94    0.75
   1  -2  16    9.95    0.68
  -2   2 -16    1.21    0.36
   2  -2  16    1.11    0.31
   4   1 -16    0.05    0.25
  -4  -1  16    0.07    0.24
   3   1 -16    0.44    0.26
  -3  -1  16   -0.19    0.20
   2   1 -16   12.70    0.75
  -2  -1  16   11.38    0.71
   1   1 -16    2.05    0.36
  -1  -1  16    2.46    0.38
   0   1 -16   -0.10    0.23
   0  -1  16   -0.13    0.19
  -1   1 -16    0.07    0.24
   1  -1  16    0.60    0.25
  -2   1 -16    0.62    0.29
   2  -1  16    0.72    0.28
  -3   1 -16   10.12    0.74
   3  -1  16    9.91    0.69
   4   0 -16    8.15    0.64
  -4   0  16    8.40    0.64
   3   0 -16   12.19    0.73
  -3   0  16   10.74    0.69
   2   0 -16    1.78    0.35
  -2   0  16    1.77    0.34
   1   0 -16    7.36    0.59
  -1   0  16    6.57    0.61
   0   0 -16   14.96    0.79
   0   0  16   15.88    0.80
  -1   0 -16    1.13    0.31
   1   0  16    1.83    0.36
  -2   0 -16    1.29    0.32
   2   0  16    1.91    0.37
  -3   0 -16    0.68    0.28
   3   0  16   -0.07    0.22
   4   0  16   -0.01    0.24
   4  -1 -16    0.28    0.27
  -4   1  16    0.53    0.29
   3  -1 -16    1.06    0.30
  -3   1  16    1.24    0.32
   2  -1 -16    3.21    0.40
  -2   1  16    2.68    0.40
   1  -1 -16    4.25    0.45
  -1   1  16    4.51    0.48
   0  -1 -16    6.06    0.51
   0   1  16    6.37    0.57
  -1  -1 -16    4.10    0.45
   1   1  16    3.92    0.45
  -2  -1 -16   -0.03    0.21
   2   1  16   -0.14    0.19
   3   1  16    1.06    0.30
   4   1  16    3.66    0.47
   5   1  16    5.45    0.60
  -4   2  16    6.34    0.60
  -3   2  16    6.33    0.61
  -2   2  16    2.00    0.37
  -1   2  16   -0.11    0.20
   0  -2 -16    0.99    0.29
   0   2  16    0.59    0.25
   1   2  16    0.25    0.23
   2   2  16    1.74    0.33
   3   2  16    5.52    0.57
   4   2  16    2.21    0.38
   5   2  16    1.56    0.37
  -4   3  16    1.22    0.35
  -3   3  16    1.22    0.34
  -2   3  16    7.60    0.57
  -1   3  16   13.24    0.73
   0   3  16    0.10    0.20
   1   3  16    1.71    0.33
   2   3  16   10.64    0.65
   3   3  16    0.17    0.23
   4   3  16    2.00    0.38
   5   3  16    2.27    0.41
   6   3  16    0.77    0.34
  -4   4  16    0.18    0.27
  -3   4  16    0.14    0.25
  -2   4  16    0.81    0.29
  -1   4  16    0.22    0.22
   0   4  16    3.12    0.40
   1   4  16    5.73    0.49
   2   4  16    0.22    0.20
   3   4  16   11.00    0.65
   4   4  16   11.58    0.70
   5   4  16    0.11    0.24
  -6  -4 -16    0.60    0.28
   6   4  16    0.10    0.26
  -3   5  16    0.95    0.32
  -2   5  16    2.17    0.38
  -1   5  16    5.06    0.50
   0   5  16    0.51    0.24
   1   5  16    0.12    0.20
   2   5  16    1.39    0.29
   3   5  16    9.19    0.59
   4   5  16    5.45    0.51
  -5  -5 -16    0.13    0.23
   5   5  16   -0.11    0.21
  -6  -5 -16    0.47    0.28
   6   5  16    0.26    0.26
  -2   6  16    0.40    0.27
  -1   6  16    2.02    0.34
   0   6  16    3.62    0.41
   1   6  16    3.79    0.41
   2   6  16    0.83    0.25
   3   6  16    2.64    0.35
   4   6  16    0.10    0.19
  -5  -6 -16    1.11    0.32
   5   6  16    1.03    0.29
   6   6  16    3.26    0.45
  -1   7  16    2.02    0.36
   0   7  16    6.75    0.53
   1   7  16    0.10    0.20
   2   7  16    6.16    0.48
   3   7  16    1.96    0.32
   4   7  16    0.25    0.21
   5   7  16    3.65    0.41
   0   8  16    0.08    0.22
   1   8  16    0.04    0.20
   2   8  16    9.52    0.57
   3   8  16    5.41    0.46
   4   8  16    2.27    0.33
   5   8  16    1.48    0.30
   1   2 -17    0.79    0.34
   3   1 -17    0.77    0.32
  -3  -1  17    0.93    0.30
   2   1 -17    0.85    0.32
  -2  -1  17    0.33    0.25
   1   1 -17    4.12    0.49
  -1  -1  17    4.07    0.49
   0   1 -17    2.07    0.39
   0  -1  17    1.98    0.39
  -1   1 -17    0.19    0.28
   1  -1  17    0.11    0.25
  -2   1 -17    0.06    0.27
   2  -1  17    0.21    0.23
   3   0 -17    0.16    0.26
  -3   0  17    0.12    0.24
   2   0 -17    1.81    0.36
  -2   0  17    1.04    0.30
   1   0 -17    0.16    0.27
  -1   0  17    0.26    0.24
   0   0 -17    0.40    0.27
   0   0  17    0.79    0.29
  -1   0 -17    0.26    0.26
   1   0  17    0.21    0.25
  -2   0 -17    0.79    0.30
   2   0  17    0.34    0.26
   3   0  17    3.31    0.50
  -3   1  17    0.92    0.33
  -2   1  17    0.09    0.24
   1  -1 -17   -0.25    0.19
  -1   1  17    0.11    0.23
   0  -1 -17    5.26    0.51
   0   1  17    5.26    0.53
   1   1  17    4.02    0.48
   2   1  17    0.21    0.23
   3   1  17    0.93    0.31
   4   1  17    1.39    0.38
  -3   2  17    1.79    0.39
  -2   2  17    5.46    0.57
  -1   2  17    3.71    0.47
   0   2  17    5.77    0.55
   1   2  17    6.92    0.57
   2   2  17    0.99    0.32
   3   2  17    1.68    0.36
   4   2  17    0.79    0.32
  -3   3  17    0.54    0.30
  -2   3  17    0.11    0.24
  -1   3  17    0.79    0.29
   0   3  17    0.10    0.23
   1   3  17    0.48    0.24
   2   3  17    2.38    0.39
   3   3  17    4.14    0.48
   4   3  17    1.36    0.34
   5   3  17    5.72    0.60
  -3   4  17    5.70    0.59
  -2   4  17   -0.04    0.24
  -1   4  17    6.54    0.60
   0   4  17    5.32    0.54
   1   4  17    3.40    0.44
   2   4  17    1.01    0.29
   3   4  17    3.04    0.43
   4   4  17    1.30    0.34
   5   4  17    3.68    0.49
  -2   5  17    0.57    0.30
  -1   5  17    9.43    0.66
   0   5  17    7.69    0.59
   1   5  17    0.34    0.25
   2   5  17    0.23    0.23
   3   5  17    5.33    0.50
   4   5  17   11.26    0.71
   5   5  17    0.41    0.28
  -1   6  17    0.81    0.29
   0   6  17    0.29    0.24
   1   6  17    4.36    0.47
   2   6  17    3.71    0.44
   3   6  17    3.68    0.44
   4   6  17    5.63    0.54
   5   6  17    0.25    0.24
   0   7  17    3.57    0.43
   1   7  17    3.95    0.45
   2   7  17   -0.02    0.21
   3   7  17    0.26    0.22
   4   7  17    1.08    0.29
   2   8  17    3.38    0.39
   3   8  17    7.03    0.53
   1   0 -18    0.28    0.27
  -1   0  18    0.46    0.29
   0   0 -18    2.31    0.46
   0   0  18    3.43    0.50
   1   0  18    1.21    0.34
  -2   1  18   -0.46    0.20
  -1   1  18   -0.17    0.22
   0   1  18    0.08    0.23
   1   1  18    0.19    0.25
   2   1  18    2.03    0.41
  -2   2  18    1.67    0.38
  -1   2  18    1.51    0.37
   0   2  18    0.28    0.25
   1   2  18    5.52    0.56
   2   2  18    0.78    0.30
   3   2  18    0.42    0.29
  -2   3  18    0.84    0.31
  -1   3  18    0.00    0.24
   0   3  18    4.54    0.51
   1   3  18    6.31    0.64
   2   3  18    1.95    0.39
   3   3  18    2.51    0.42
  -1   4  18    0.37    0.27
   0   4  18    1.37    0.35
   1   4  18    1.06    0.31
   2   4  18    3.12    0.44
   3   4  18    3.88    0.51
   4   4  18    2.34    0.42
  -1   5  18    1.54    0.37
   0   5  18    6.54    0.62
   1   5  18    0.44    0.27
   2   5  18    0.07    0.22
   3   5  18    0.71    0.28
   4   5  18    0.04    0.24
   0   6  18    5.60    0.55
   1   6  18    0.36    0.25
   2   6  18    6.26    0.58
   3   6  18    0.48    0.27
   1   3  19    0.17    0.28
   1   4  19    1.75    0.40
   0   0   0    0.00    0.00
;
_shelx_hkl_checksum              3945
loop_
_space_group_symop_operation_xyz
'x, y, z'
'-x, -y, -z'
loop_
_atom_site_label
_atom_site_type_symbol
_atom_site_fract_x
_atom_site_fract_y
_atom_site_fract_z
_atom_site_U_iso_or_equiv
_atom_site_adp_type
_atom_site_occupancy
_atom_site_site_symmetry_order
_atom_site_calc_flag
_atom_site_refinement_flags_posn
_atom_site_refinement_flags_adp
_atom_site_refinement_flags_occupancy
_atom_site_disorder_assembly
_atom_site_disorder_group
Zn1 Zn -0.07586(4) 0.81815(3) 0.66337(2) 0.02214(10) Uani 1 1 d . . . . .
Cl1 Cl 0.17458(9) 0.87162(7) 0.59828(5) 0.03083(15) Uani 1 1 d . . . . .
Cl2 Cl -0.29392(9) 1.01375(7) 0.71685(5) 0.03292(16) Uani 1 1 d . . . . .
N1 N 0.1686(3) 0.3246(2) 0.85295(14) 0.0202(4) Uani 1 1 d . . . . .
O1 O 0.2698(2) 0.19463(19) 0.92870(12) 0.0276(4) Uani 1 1 d . . . . .
H1 H 0.296806 0.234434 0.969990 0.033 Uiso 1 1 calc R U . . .
N2 N 0.0184(2) 0.5782(2) 0.76268(13) 0.0191(4) Uani 1 1 d . . . . .
N3 N 0.2601(3) 0.4403(2) 0.99575(14) 0.0214(4) Uani 1 1 d . . . . .
N4 N -0.1717(2) 0.6907(2) 0.59232(14) 0.0199(4) Uani 1 1 d . . . . .
C1 C 0.1045(3) 0.2998(3) 0.77473(17) 0.0212(5) Uani 1 1 d . . . . .
C2 C 0.0080(3) 0.4607(3) 0.71880(16) 0.0189(5) Uani 1 1 d . . . . .
C3 C 0.1160(3) 0.4929(3) 0.84521(16) 0.0192(5) Uani 1 1 d . . . . .
C4 C 0.1630(3) 0.5565(3) 0.91940(16) 0.0202(5) Uani 1 1 d . . . . .
C5 C 0.1072(3) 0.7326(3) 0.90878(17) 0.0237(5) Uani 1 1 d . . . . .
H5 H 0.033171 0.812551 0.854440 0.028 Uiso 1 1 calc R U . . .
C6 C 0.1632(3) 0.7832(3) 0.97905(18) 0.0274(5) Uani 1 1 d . . . . .
H6 H 0.129805 0.900263 0.972961 0.033 Uiso 1 1 calc R U . . .
C7 C 0.2698(3) 0.6644(3) 1.06042(17) 0.0246(5) Uani 1 1 d . . . . .
C8 C 0.3136(3) 0.4901(3) 1.06792(17) 0.0228(5) Uani 1 1 d . . . . .
C9 C 0.3338(3) 0.7102(3) 1.13491(19) 0.0309(6) Uani 1 1 d . . . . .
H9 H 0.307256 0.825781 1.130632 0.037 Uiso 1 1 calc R U . . .
C10 C 0.4341(3) 0.5868(4) 1.21317(19) 0.0346(6) Uani 1 1 d . . . . .
H10 H 0.477215 0.617720 1.262813 0.042 Uiso 1 1 calc R U . . .
C11 C 0.4738(3) 0.4154(4) 1.22058(19) 0.0343(6) Uani 1 1 d . . . . .
H11 H 0.541837 0.331753 1.275714 0.041 Uiso 1 1 calc R U . . .
C12 C 0.4157(3) 0.3671(3) 1.14952(18) 0.0289(5) Uani 1 1 d . . . . .
H12 H 0.444311 0.250720 1.155236 0.035 Uiso 1 1 calc R U . . .
C13 C -0.1055(3) 0.5200(3) 0.63007(16) 0.0199(5) Uani 1 1 d . . . . .
C14 C -0.1528(3) 0.4157(3) 0.58709(17) 0.0223(5) Uani 1 1 d . . . . .
H14 H -0.104476 0.296520 0.612837 0.027 Uiso 1 1 calc R U . . .
C15 C -0.2711(3) 0.4890(3) 0.50639(17) 0.0248(5) Uani 1 1 d . . . . .
H15 H -0.303340 0.419984 0.475758 0.030 Uiso 1 1 calc R U . . .
C16 C -0.3419(3) 0.6621(3) 0.47061(18) 0.0265(5) Uani 1 1 d . . . . .
H16 H -0.425928 0.713821 0.416481 0.032 Uiso 1 1 calc R U . . .
C17 C -0.2880(3) 0.7593(3) 0.51514(17) 0.0235(5) Uani 1 1 d . . . . .
H17 H -0.335279 0.878638 0.490012 0.028 Uiso 1 1 calc R U . . .
C18 C 0.1453(4) 0.1274(3) 0.76329(19) 0.0296(6) Uani 1 1 d . . . . .
H18C H 0.245539 0.046344 0.808584 0.044 Uiso 1 1 calc R U . . .
H18B H 0.182262 0.127227 0.695814 0.044 Uiso 1 1 calc R U . . .
H18A H 0.034981 0.095570 0.777973 0.044 Uiso 1 1 calc R U . . .
loop_
_atom_site_aniso_label
_atom_site_aniso_U_11
_atom_site_aniso_U_22
_atom_site_aniso_U_33
_atom_site_aniso_U_23
_atom_site_aniso_U_13
_atom_site_aniso_U_12
Zn1 0.02524(16) 0.01614(14) 0.02679(17) -0.00769(11) -0.00338(11) -0.00694(11)
Cl1 0.0324(3) 0.0290(3) 0.0344(3) -0.0046(3) -0.0026(3) -0.0170(3)
Cl2 0.0358(4) 0.0220(3) 0.0386(4) -0.0137(3) -0.0029(3) -0.0020(3)
N1 0.0205(10) 0.0168(9) 0.0213(10) -0.0027(8) -0.0007(8) -0.0058(8)
O1 0.0342(10) 0.0188(8) 0.0268(9) -0.0025(7) -0.0074(7) -0.0067(7)
N2 0.0199(9) 0.0190(9) 0.0213(10) -0.0074(8) 0.0012(8) -0.0087(8)
N3 0.0192(10) 0.0261(10) 0.0200(10) -0.0064(8) 0.0020(8) -0.0094(8)
N4 0.0191(9) 0.0195(9) 0.0230(10) -0.0068(8) 0.0015(8) -0.0083(8)
C1 0.0230(12) 0.0205(11) 0.0235(12) -0.0084(9) 0.0035(9) -0.0102(9)
C2 0.0202(11) 0.0188(10) 0.0211(12) -0.0084(9) 0.0030(9) -0.0091(9)
C3 0.0213(11) 0.0171(10) 0.0204(11) -0.0055(9) 0.0030(9) -0.0085(9)
C4 0.0178(11) 0.0238(11) 0.0208(12) -0.0087(9) 0.0041(9) -0.0083(9)
C5 0.0266(12) 0.0202(11) 0.0236(12) -0.0078(9) 0.0007(10) -0.0059(10)
C6 0.0303(13) 0.0241(12) 0.0298(14) -0.0140(10) 0.0040(10) -0.0075(10)
C7 0.0208(12) 0.0345(13) 0.0230(12) -0.0159(10) 0.0061(9) -0.0100(10)
C8 0.0162(11) 0.0334(13) 0.0202(12) -0.0098(10) 0.0049(9) -0.0092(10)
C9 0.0279(13) 0.0455(15) 0.0278(14) -0.0212(12) 0.0064(11) -0.0153(12)
C10 0.0265(13) 0.0622(18) 0.0246(14) -0.0219(13) 0.0070(11) -0.0202(13)
C11 0.0209(13) 0.0558(17) 0.0231(13) -0.0071(12) 0.0001(10) -0.0123(12)
C12 0.0226(12) 0.0359(13) 0.0258(13) -0.0058(11) 0.0027(10) -0.0099(11)
C13 0.0205(11) 0.0201(11) 0.0222(12) -0.0089(9) 0.0057(9) -0.0096(9)
C14 0.0250(12) 0.0225(11) 0.0247(12) -0.0103(10) 0.0052(10) -0.0124(10)
C15 0.0243(12) 0.0321(13) 0.0269(13) -0.0154(10) 0.0048(10) -0.0153(10)
C16 0.0222(12) 0.0352(13) 0.0242(13) -0.0094(11) -0.0015(10) -0.0111(11)
C17 0.0213(12) 0.0226(11) 0.0261(13) -0.0061(10) 0.0003(9) -0.0076(9)
C18 0.0400(15) 0.0159(11) 0.0329(14) -0.0073(10) -0.0043(11) -0.0082(10)
loop_
_atom_type_symbol
_atom_type_description
_atom_type_scat_dispersion_real
_atom_type_scat_dispersion_imag
_atom_type_scat_source
C C 0.0033 0.0016 'International Tables Vol C Tables 4.2.6.8 and 6.1.1.4'
H H 0.0000 0.0000 'International Tables Vol C Tables 4.2.6.8 and 6.1.1.4'
N N 0.0061 0.0033 'International Tables Vol C Tables 4.2.6.8 and 6.1.1.4'
O O 0.0106 0.0060 'International Tables Vol C Tables 4.2.6.8 and 6.1.1.4'
Zn Zn 0.2839 1.4301 'International Tables Vol C Tables 4.2.6.8 and 6.1.1.4'
Cl Cl 0.1484 0.1585 'International Tables Vol C Tables 4.2.6.8 and 6.1.1.4'
loop_
_geom_angle_atom_site_label_1
_geom_angle_atom_site_label_2
_geom_angle_atom_site_label_3
_geom_angle
_geom_angle_site_symmetry_1
_geom_angle_site_symmetry_3
_geom_angle_publ_flag
N4 Zn1 N2 81.06(7) . . ?
N4 Zn1 Cl2 114.50(6) . . ?
N2 Zn1 Cl2 115.84(5) . . ?
N4 Zn1 Cl1 114.26(5) . . ?
N2 Zn1 Cl1 105.99(5) . . ?
Cl2 Zn1 Cl1 118.91(3) . . ?
C1 N1 C3 110.58(18) . . ?
C1 N1 O1 123.23(17) . . ?
C3 N1 O1 126.18(18) . . ?
N1 O1 H1 109.5 . . ?
C3 N2 C2 107.05(17) . . ?
C3 N2 Zn1 142.10(14) . . ?
C2 N2 Zn1 109.15(14) . . ?
C4 N3 C8 119.28(19) . . ?
C17 N4 C13 119.45(18) . . ?
C17 N4 Zn1 126.50(15) . . ?
C13 N4 Zn1 114.05(14) . . ?
N1 C1 C2 104.19(18) . . ?
N1 C1 C18 121.9(2) . . ?
C2 C1 C18 133.9(2) . . ?
C1 C2 N2 109.85(19) . . ?
C1 C2 C13 131.41(19) . . ?
N2 C2 C13 118.59(18) . . ?
N2 C3 N1 108.32(18) . . ?
N2 C3 C4 129.10(19) . . ?
N1 C3 C4 122.6(2) . . ?
N3 C4 C5 123.1(2) . . ?
N3 C4 C3 115.70(19) . . ?
C5 C4 C3 121.2(2) . . ?
C6 C5 C4 117.9(2) . . ?
C6 C5 H5 121.0 . . ?
C4 C5 H5 121.0 . . ?
C5 C6 C7 120.9(2) . . ?
C5 C6 H6 119.5 . . ?
C7 C6 H6 119.5 . . ?
C6 C7 C9 123.2(2) . . ?
C6 C7 C8 117.8(2) . . ?
C9 C7 C8 119.0(2) . . ?
N3 C8 C12 119.5(2) . . ?
N3 C8 C7 120.9(2) . . ?
C12 C8 C7 119.6(2) . . ?
C10 C9 C7 119.8(2) . . ?
C10 C9 H9 120.1 . . ?
C7 C9 H9 120.1 . . ?
C9 C10 C11 120.7(2) . . ?
C9 C10 H10 119.7 . . ?
C11 C10 H10 119.7 . . ?
C12 C11 C10 120.9(2) . . ?
C12 C11 H11 119.5 . . ?
C10 C11 H11 119.5 . . ?
C11 C12 C8 119.9(2) . . ?
C11 C12 H12 120.0 . . ?
C8 C12 H12 120.0 . . ?
N4 C13 C14 120.7(2) . . ?
N4 C13 C2 114.51(18) . . ?
C14 C13 C2 124.7(2) . . ?
C15 C14 C13 118.9(2) . . ?
C15 C14 H14 120.5 . . ?
C13 C14 H14 120.5 . . ?
C16 C15 C14 119.9(2) . . ?
C16 C15 H15 120.1 . . ?
C14 C15 H15 120.1 . . ?
C15 C16 C17 118.7(2) . . ?
C15 C16 H16 120.7 . . ?
C17 C16 H16 120.7 . . ?
N4 C17 C16 122.3(2) . . ?
N4 C17 H17 118.9 . . ?
C16 C17 H17 118.9 . . ?
C1 C18 H18C 109.5 . . ?
C1 C18 H18B 109.5 . . ?
H18C C18 H18B 109.5 . . ?
C1 C18 H18A 109.5 . . ?
H18C C18 H18A 109.5 . . ?
H18B C18 H18A 109.5 . . ?
loop_
_geom_bond_atom_site_label_1
_geom_bond_atom_site_label_2
_geom_bond_distance
_geom_bond_site_symmetry_2
_geom_bond_publ_flag
Zn1 N4 2.0526(18) . ?
Zn1 N2 2.0908(18) . ?
Zn1 Cl2 2.2124(6) . ?
Zn1 Cl1 2.2229(7) . ?
N1 C1 1.360(3) . ?
N1 C3 1.366(3) . ?
N1 O1 1.376(2) . ?
O1 H1 0.8400 . ?
N2 C3 1.329(3) . ?
N2 C2 1.382(3) . ?
N3 C4 1.325(3) . ?
N3 C8 1.373(3) . ?
N4 C17 1.339(3) . ?
N4 C13 1.361(3) . ?
C1 C2 1.382(3) . ?
C1 C18 1.493(3) . ?
C2 C13 1.461(3) . ?
C3 C4 1.455(3) . ?
C4 C5 1.422(3) . ?
C5 C6 1.364(3) . ?
C5 H5 0.9500 . ?
C6 C7 1.407(3) . ?
C6 H6 0.9500 . ?
C7 C9 1.419(3) . ?
C7 C8 1.425(3) . ?
C8 C12 1.408(3) . ?
C9 C10 1.373(4) . ?
C9 H9 0.9500 . ?
C10 C11 1.405(4) . ?
C10 H10 0.9500 . ?
C11 C12 1.368(4) . ?
C11 H11 0.9500 . ?
C12 H12 0.9500 . ?
C13 C14 1.399(3) . ?
C14 C15 1.385(3) . ?
C14 H14 0.9500 . ?
C15 C16 1.377(3) . ?
C15 H15 0.9500 . ?
C16 C17 1.387(3) . ?
C16 H16 0.9500 . ?
C17 H17 0.9500 . ?
C18 H18C 0.9800 . ?
C18 H18B 0.9800 . ?
C18 H18A 0.9800 . ?
loop_
_geom_torsion_atom_site_label_1
_geom_torsion_atom_site_label_2
_geom_torsion_atom_site_label_3
_geom_torsion_atom_site_label_4
_geom_torsion
_geom_torsion_site_symmetry_1
_geom_torsion_site_symmetry_2
_geom_torsion_site_symmetry_3
_geom_torsion_site_symmetry_4
_geom_torsion_publ_flag
C3 N1 C1 C2 -0.7(2) . . . . ?
O1 N1 C1 C2 178.49(19) . . . . ?
C3 N1 C1 C18 178.6(2) . . . . ?
O1 N1 C1 C18 -2.2(3) . . . . ?
N1 C1 C2 N2 1.1(2) . . . . ?
C18 C1 C2 N2 -178.1(2) . . . . ?
N1 C1 C2 C13 -174.4(2) . . . . ?
C18 C1 C2 C13 6.4(4) . . . . ?
C3 N2 C2 C1 -1.2(2) . . . . ?
Zn1 N2 C2 C1 167.43(15) . . . . ?
C3 N2 C2 C13 174.99(19) . . . . ?
Zn1 N2 C2 C13 -16.4(2) . . . . ?
C2 N2 C3 N1 0.7(2) . . . . ?
Zn1 N2 C3 N1 -161.59(18) . . . . ?
C2 N2 C3 C4 -178.3(2) . . . . ?
Zn1 N2 C3 C4 19.4(4) . . . . ?
C1 N1 C3 N2 0.0(3) . . . . ?
O1 N1 C3 N2 -179.15(19) . . . . ?
C1 N1 C3 C4 179.1(2) . . . . ?
O1 N1 C3 C4 -0.1(3) . . . . ?
C8 N3 C4 C5 -1.2(3) . . . . ?
C8 N3 C4 C3 178.52(19) . . . . ?
N2 C3 C4 N3 178.7(2) . . . . ?
N1 C3 C4 N3 -0.2(3) . . . . ?
N2 C3 C4 C5 -1.6(4) . . . . ?
N1 C3 C4 C5 179.6(2) . . . . ?
N3 C4 C5 C6 2.7(3) . . . . ?
C3 C4 C5 C6 -177.1(2) . . . . ?
C4 C5 C6 C7 -1.2(4) . . . . ?
C5 C6 C7 C9 179.1(2) . . . . ?
C5 C6 C7 C8 -1.3(4) . . . . ?
C4 N3 C8 C12 179.5(2) . . . . ?
C4 N3 C8 C7 -1.5(3) . . . . ?
C6 C7 C8 N3 2.8(3) . . . . ?
C9 C7 C8 N3 -177.6(2) . . . . ?
C6 C7 C8 C12 -178.3(2) . . . . ?
C9 C7 C8 C12 1.3(3) . . . . ?
C6 C7 C9 C10 178.7(2) . . . . ?
C8 C7 C9 C10 -0.8(4) . . . . ?
C7 C9 C10 C11 -0.2(4) . . . . ?
C9 C10 C11 C12 0.9(4) . . . . ?
C10 C11 C12 C8 -0.5(4) . . . . ?
N3 C8 C12 C11 178.3(2) . . . . ?
C7 C8 C12 C11 -0.6(3) . . . . ?
C17 N4 C13 C14 2.2(3) . . . . ?
Zn1 N4 C13 C14 -177.52(16) . . . . ?
C17 N4 C13 C2 -175.3(2) . . . . ?
Zn1 N4 C13 C2 5.1(2) . . . . ?
C1 C2 C13 N4 -176.6(2) . . . . ?
N2 C2 C13 N4 8.2(3) . . . . ?
C1 C2 C13 C14 6.1(4) . . . . ?
N2 C2 C13 C14 -169.1(2) . . . . ?
N4 C13 C14 C15 -1.2(3) . . . . ?
C2 C13 C14 C15 175.9(2) . . . . ?
C13 C14 C15 C16 -0.8(3) . . . . ?
C14 C15 C16 C17 1.8(3) . . . . ?
C13 N4 C17 C16 -1.1(3) . . . . ?
Zn1 N4 C17 C16 178.52(17) . . . . ?
C15 C16 C17 N4 -0.9(4) . . . . ?
