#------------------------------------------------------------------------------
#$Date: 2021-04-04 13:03:56 +0300 (Sun, 04 Apr 2021) $
#$Revision: 263604 $
#$URL: file:///home/coder/svn-repositories/cod/cif/8/00/04/8000483.cif $
#------------------------------------------------------------------------------
#
# This file is available in the Crystallography Open Database (COD),
# http://www.crystallography.net/
#
# All data on this site have been placed in the public domain by the
# contributors.
#
data_8000483
loop_
_publ_author_name
'Tailor, Naveen Kumar'
'Maity, Partha'
'Saidaminov, Makhsud I.'
'Pradhan, Narayan'
'Satapathi, Soumitra'
_publ_section_title
;
 Dark Self-Healing-Mediated Negative Photoconductivity of a Lead-Free
 Cs<sub>3</sub>Bi<sub>2</sub>Cl<sub>9</sub> Perovskite Single Crystal.
;
_journal_issue                   9
_journal_name_full               'The journal of physical chemistry letters'
_journal_page_first              2286
_journal_page_last               2292
_journal_paper_doi               10.1021/acs.jpclett.1c00057
_journal_volume                  12
_journal_year                    2021
_chemical_formula_moiety         '0.06(Bi8 Cl36 Cs12)'
_chemical_formula_sum            'Bi Cl Cs'
_chemical_formula_weight         377.34
_space_group_crystal_system      orthorhombic
_space_group_IT_number           62
_space_group_name_Hall           '-P 2ac 2n'
_space_group_name_H-M_alt        'P n m a'
_atom_sites_solution_primary     dual
_audit_creation_date             2020-05-07
_audit_creation_method
;
Olex2 1.2
(compiled 2018.05.29 svn.r3508 for OlexSys, GUI svn.r5506)
;
_cell_angle_alpha                90
_cell_angle_beta                 90
_cell_angle_gamma                90
_cell_formula_units_Z            18
_cell_length_a                   18.589(4)
_cell_length_b                   7.6364(16)
_cell_length_c                   13.203(3)
_cell_measurement_reflns_used    9950
_cell_measurement_temperature    296(2)
_cell_measurement_theta_max      30.85
_cell_measurement_theta_min      2.67
_cell_volume                     1874.2(7)
_computing_cell_refinement       'SAINT v7.68A (Bruker, 2009)'
_computing_data_reduction        'SAINT v7.68A (Bruker, 2009)'
_computing_molecular_graphics    'Olex2 (Dolomanov et al., 2009)'
_computing_publication_material  'Olex2 (Dolomanov et al., 2009)'
_computing_structure_refinement  'ShelXL (Sheldrick, 2015)'
_computing_structure_solution    'ShelXT (Sheldrick, 2015)'
_diffrn_ambient_temperature      296.15
_diffrn_measured_fraction_theta_full 0.999
_diffrn_measured_fraction_theta_max 0.936
_diffrn_measurement_device_type  'Bruker APEX-II CCD'
_diffrn_measurement_method       '\f and \w scans'
_diffrn_radiation_monochromator  graphite
_diffrn_radiation_type           MoK\a
_diffrn_radiation_wavelength     0.71073
_diffrn_reflns_av_R_equivalents  0.0542
_diffrn_reflns_av_unetI/netI     0.0480
_diffrn_reflns_Laue_measured_fraction_full 0.999
_diffrn_reflns_Laue_measured_fraction_max 0.936
_diffrn_reflns_limit_h_max       26
_diffrn_reflns_limit_h_min       -25
_diffrn_reflns_limit_k_max       8
_diffrn_reflns_limit_k_min       -10
_diffrn_reflns_limit_l_max       16
_diffrn_reflns_limit_l_min       -19
_diffrn_reflns_number            24664
_diffrn_reflns_point_group_measured_fraction_full 0.999
_diffrn_reflns_point_group_measured_fraction_max 0.936
_diffrn_reflns_theta_full        25.242
_diffrn_reflns_theta_max         30.964
_diffrn_reflns_theta_min         1.892
_diffrn_standards_number         0
_exptl_absorpt_coefficient_mu    51.339
_exptl_absorpt_correction_T_max  0.7461
_exptl_absorpt_correction_T_min  0.2252
_exptl_absorpt_correction_type   none
_exptl_absorpt_process_details
;
SADABS-2008/1 (Bruker,2008) was used for absorption correction.
wR2(int) was 0.1627 before and 0.0796 after correction.
The Ratio of minimum to maximum transmission is 0.3018.
The \l/2 correction factor is 0.0015.
;
_exptl_crystal_density_diffrn    6.018
_exptl_crystal_F_000             2790
_refine_diff_density_max         5.558
_refine_diff_density_min         -5.721
_refine_diff_density_rms         0.724
_refine_ls_extinction_coef       0.00019(10)
_refine_ls_extinction_expression Fc^*^=kFc[1+0.001xFc^2^\l^3^/sin(2\q)]^-1/4^
_refine_ls_extinction_method     'SHELXL-2017/1 (Sheldrick 2017)'
_refine_ls_goodness_of_fit_ref   1.090
_refine_ls_hydrogen_treatment    undef
_refine_ls_matrix_type           full
_refine_ls_number_parameters     38
_refine_ls_number_reflns         2971
_refine_ls_number_restraints     0
_refine_ls_restrained_S_all      1.090
_refine_ls_R_factor_all          0.1152
_refine_ls_R_factor_gt           0.0875
_refine_ls_shift/su_max          0.000
_refine_ls_shift/su_mean         0.000
_refine_ls_structure_factor_coef Fsqd
_refine_ls_weighting_details
'w=1/[\s^2^(Fo^2^)+(0.1251P)^2^+240.3904P] where P=(Fo^2^+2Fc^2^)/3'
_refine_ls_weighting_scheme      calc
_refine_ls_wR_factor_gt          0.2531
_refine_ls_wR_factor_ref         0.2755
_reflns_Friedel_coverage         0.000
_reflns_number_gt                2218
_reflns_number_total             2971
_reflns_threshold_expression     'I > 2\s(I)'
_cod_data_source_file            jz1c00057_si_002.cif
_cod_data_source_block           ups3329physics_slowcool2_0ma
_cod_depositor_comments          'Adding full bibliography for 8000483.cif.'
_cod_original_cell_volume        1874.3(7)
_cod_database_code               8000483
_shelx_shelxl_version_number     2017/1
_shelx_space_group_comment
;
The symmetry employed for this shelxl refinement is uniquely defined
by the following loop, which should always be used as a source of
symmetry information in preference to the above space-group names.
They are only intended as comments.
;
_olex2_refinement_description
;
;
_shelx_res_file
;
TITL ups3329physics_slowcool2_0ma_a.res in Pnma
    ups3329physics_slowcool2_0ma.res
    created by SHELXL-2017/1 at 19:38:01 on 07-May-2020
REM Old TITL UPS3329PHYSICS_SLOWCOOL2_0ma in Pnma
REM SHELXT solution in Pnma
REM R1 0.179, Rweak 0.005, Alpha 0.029, Orientation as input
REM Formula found by SHELXT: Cl9 Cs3 Bi2
CELL 0.71073 18.5894 7.6364 13.2033 90 90 90
ZERR 18 0.004 0.0016 0.0027 0 0 0
LATT 1
SYMM 0.5-X,-Y,0.5+Z
SYMM -X,0.5+Y,-Z
SYMM 0.5+X,0.5-Y,0.5-Z
SFAC Cl Cs Bi
UNIT 18 18 18

L.S. 60
PLAN  20
TEMP 23
list 4
fmap 2 53
acta
REM <olex2.extras>
REM <HklSrc "%.\\UPS3329PHYSICS_SLOWCOOL2_0ma.hkl">
REM </olex2.extras>

WGHT    0.125100  240.390396
EXTI    0.000187
FVAR       0.09285
BI01  3    0.683442    0.750000    0.582095    10.50000    0.01952
BI02  3    0.498758    0.250000    0.763725    10.50000    0.02093
CS03  2    0.911288    1.250000    0.419039    10.50000    0.03992
CS04  2    0.751750    0.250000    0.747902    10.50000    0.04314
CS05  2    0.913281    0.750000    0.910727    10.50000    0.04473
CL06  1    0.420250    0.007812    0.836815    11.00000    0.04343
CL07  1    0.579949    0.250000    0.917988    10.50000    0.04098
CL08  1    0.754292    0.750000    0.749117    10.50000    0.03863
CL09  1    0.751350    1.002819    0.496927    11.00000    0.04274
CL0A  1    0.588875    0.504315    0.667872    11.00000    0.05296
CL0B  1    0.411962    0.250000    0.583906    10.50000    0.04533
HKLF 4




REM  ups3329physics_slowcool2_0ma_a.res in Pnma
REM R1 =  0.0875 for    2218 Fo > 4sig(Fo)  and  0.1152 for all    2971 data
REM     38 parameters refined using      0 restraints

END

WGHT      0.1251    240.3214

REM Highest difference peak  5.558,  deepest hole -5.721,  1-sigma level  0.724
Q1    1   0.4999  0.3021  0.7644  11.00000  0.05    5.56
Q2    1   0.6425  0.7936  0.5787  11.00000  0.05    4.89
Q3    1   0.6806  0.8031  0.5816  11.00000  0.05    4.28
Q4    1   0.7363  0.7500  0.5364  10.50000  0.05    3.91
Q5    1   0.7360  0.2500  0.7762  10.50000  0.05    3.74
Q6    1   0.5380  0.2975  0.7603  11.00000  0.05    3.44
Q7    1   0.4607  0.2944  0.7643  11.00000  0.05    3.44
Q8    1   0.7197  0.7073  0.5825  11.00000  0.05    3.18
Q9    1   0.7402  0.7033  0.6380  11.00000  0.05    3.11
Q10   1   0.5004  0.2500  0.6953  10.50000  0.05    3.07
Q11   1   0.6808  0.7500  0.6592  10.50000  0.05    2.98
Q12   1   0.9609  1.2500  0.3675  10.50000  0.05    2.97
Q13   1   0.8660  1.2500  0.3957  10.50000  0.05    2.89
Q14   1   0.5001  0.2500  0.8359  10.50000  0.05    2.83
Q15   1   0.6977  0.2500  0.7132  10.50000  0.05    2.83
Q16   1   0.5821  0.4749  0.6365  11.00000  0.05    2.76
Q17   1   0.7457  1.0402  0.5184  11.00000  0.05    2.60
Q18   1   0.7646  0.2728  0.7230  11.00000  0.05    2.59
Q19   1   0.5966  0.5260  0.7025  11.00000  0.05    2.47
Q20   1   0.9617  1.2500  0.4744  10.50000  0.05    2.45
;
_shelx_res_checksum              13902
_shelx_hkl_file
;
   0   2   0 6658.33  280.87
   0  -2   0 5695.23  397.46
   0  -2   0 6512.45  280.77
   0  -3   0    7.60    4.00
   0  -3   0    0.50    0.90
   0   3   0   -1.40    0.60
   0  -4   0 7665.13  570.14
   0  -4   0 9572.64  401.46
   0   4   0 9811.82  400.96
   0  -5   0   -1.00    5.10
   0  -5   0    3.00    1.50
   0  -6   0 2088.39   85.79
   0  -6   0 1683.43  126.09
   0  -7   0   -1.30    2.20
   0  -7   0   -3.80    9.00
   0  -8   0 1382.56   99.09
   0  -9   0   -5.90   15.30
   0 -10   0  250.47   37.40
   0   0  -1   -0.20    0.10
   0   0   1   -0.20    0.10
   0   0   1   -0.20    0.10
   0   0   1   -0.10    0.10
   0   0  -1   -0.20    0.10
   0   0  -1   -0.20    0.10
   0  -1  -1  174.58    6.10
   0   1  -1  135.99    9.80
   0   1  -1  154.48    9.70
   0   1  -1  151.58    9.70
   0  -2   1    1.30    2.00
   0   2  -1    1.80    0.60
   0  -2   1    2.10    0.70
   0  -2  -1    0.40    0.60
   0  -2   1    1.00    0.60
   0  -2  -1    1.50    3.20
   0   2   1    0.60    0.40
   0  -2   1    0.60    0.50
   0   2  -1    0.50    0.50
   0  -3  -1   80.19   11.90
   0   3  -1  114.39    7.20
   0   3  -1  111.19    5.60
   0  -3   1  105.39   10.50
   0  -3   1  110.09    5.60
   0  -3  -1  112.79    5.70
   0   3   1  113.99    5.50
   0   3   1  113.79    4.60
   0  -4  -1    4.40    5.40
   0   4  -1    0.20    1.10
   0   4   1    1.40    0.80
   0  -4   1    1.80    4.20
   0  -4  -1    2.90    1.40
   0   4   1   -1.40    0.60
   0  -5  -1   82.09    5.10
   0   5  -1   75.09    5.50
   0  -5  -1   62.09   12.00
   0  -5   1   66.89   11.90
   0  -5   1   77.79    4.90
   0  -6   1    3.50    7.00
   0  -6   1    1.30    1.90
   0  -6  -1   -1.50    8.00
   0  -6  -1   -1.10    2.00
   0  -7   1   27.10   11.10
   0  -7  -1   27.30    3.80
   0  -7   1   29.90    3.60
   0  -8  -1   -5.90   13.00
   0  -8   1    1.50    2.90
   0  -8   1  -12.20   10.60
   0  -9  -1    6.90   17.40
   0  -9   1    5.00   13.90
   0  -9   1   16.10    4.00
   0 -10  -1  -13.80   16.70
   0 -10   1   -6.10   16.40
   0   0  -2  109.99    8.00
   0   0   2  141.69    8.00
   0   1  -2    1.40    0.50
   0  -1   2    0.80    0.60
   0  -1   2    1.20    0.50
   0   1   2    0.50    0.40
   0   1   2    1.20    0.40
   0  -1   2    0.70    0.50
   0   1   2    0.50    0.30
   0   1  -2    0.80    0.40
   0   1  -2    1.10    0.50
   0   1  -2    1.00    0.60
   0  -1   2    0.50    0.40
   0  -1   2    0.20    0.50
   0  -1  -2    0.80    0.30
   0   1  -2    0.40    0.50
   0  -2  -2  176.88    6.90
   0  -2   2  165.18   10.80
   0  -2   2  163.78    8.00
   0   2   2  166.78    6.70
   0   2   2  168.48    7.80
   0   2  -2  170.78   10.90
   0  -2   2  172.28   10.70
   0   2  -2  165.48   10.80
   0   2   2  159.68    7.90
   0   2  -2  165.78   10.70
   0   2  -2  171.88    8.00
   0   2  -2  170.08   10.70
   0   3   2    0.50    0.70
   0   3   2    1.50    0.40
   0  -3  -2    0.50    5.40
   0  -3   2   -0.70    2.50
   0   3   2    1.30    0.70
   0   3  -2    1.10    0.70
   0  -3   2    1.90    1.10
   0   3  -2    0.60    1.00
   0   3  -2    2.40    0.80
   0  -3   2    1.70    0.90
   0   3  -2    1.50    1.00
   0  -3   2    0.50    0.80
   0  -4   2   90.19    5.10
   0   4   2   93.59    3.80
   0   4  -2   86.79    6.30
   0   4  -2   89.39    5.00
   0  -4   2   78.99   10.60
   0  -4  -2   71.89   13.00
   0   4   2   92.59    4.90
   0  -5   2    2.20    4.80
   0  -5  -2    1.00    8.10
   0  -5   2    0.60    1.40
   0   5  -2   -0.30    1.50
   0  -6   2   43.30   10.00
   0  -6  -2   44.00   14.30
   0  -6   2   50.39    4.30
   0   6  -2   53.89    4.80
   0  -7   2    1.30    8.00
   0  -7  -2   -2.70   12.40
   0  -7   2    1.60    2.30
   0  -8   2   17.60   12.00
   0  -8   2   16.60    3.40
   0  -8  -2   15.50   16.10
   0  -9  -2  -14.60   16.50
   0  -9   2   -5.20   12.70
   0 -10  -2   -5.60   18.70
   0 -10   2    2.30   14.80
   0   0   3   -2.10    0.90
   0   0  -3   -1.30    0.90
   0   0  -3   -3.00    0.80
   0   0  -3   -0.80    0.70
   0   0   3    0.30    1.00
   0   0   3   -2.70    0.80
   0   0  -3    0.00    1.00
   0   1  -3 7218.68  420.76
   0  -1  -3 6555.14  266.07
   0   1   3 6580.44  265.77
   0  -1   3 7213.98  424.26
   0  -1   3 6977.10  420.36
   0  -1  -3 6609.54  420.06
   0  -1  -3 6096.29  419.86
   0   1   3 6123.99  419.86
   0   1  -3 7090.39  420.36
   0   1   3 6797.62  423.56
   0  -1   3 7408.06  420.86
   0   1   3 6377.16  419.86
   0  -1   3 6931.81  304.07
   0  -1   3 6922.61  424.26
   0   1  -3 7152.18  424.26
   0   2  -3   -1.50    1.00
   0   2  -3   -1.70    0.70
   0  -2   3   -0.60    0.90
   0  -2   3   -0.80    1.00
   0   2  -3   -1.30    0.80
   0  -2   3   -1.60    0.70
   0   2   3   -0.60    0.50
   0   2  -3   -1.30    0.90
   0   2   3   -1.80    0.70
   0  -2   3   -1.70    1.00
   0  -2  -3   -0.80    0.50
   0   2  -3   -1.50    0.90
   0   3   3 5050.09  233.98
   0   3   3 5269.97  204.68
   0  -3   3 5295.77  323.77
   0   3  -3 5269.37  234.08
   0  -3  -3 5534.85  205.08
   0   3   3 5296.57  237.28
   0   3  -3 5356.06  326.67
   0   3  -3 5165.68  326.47
   0  -3   3 5118.49  323.87
   0  -3   3 5188.58  234.08
   0   3  -3 5301.27  323.87
   0   4  -3   -0.90    1.30
   0   4   3    0.80    0.80
   0  -4   3   -2.90    1.40
   0  -4   3    2.10    1.40
   0  -4   3   -0.10    3.70
   0  -4  -3    0.70    7.30
   0  -4   3   -0.20    1.10
   0   4  -3    1.10    1.00
   0   4   3    0.80    1.00
   0   4  -3   -1.50    1.20
   0   5  -3 2669.63  170.48
   0  -5   3 2532.25  176.98
   0   5  -3 2843.52  170.78
   0   5  -3 2954.20  169.28
   0  -5   3 2703.23  122.79
   0   6  -3    1.60    1.50
   0  -6  -3   -0.80   10.90
   0   6  -3   -3.70    1.70
   0  -6   3    0.30    1.70
   0  -6   3    1.70    6.00
   0  -7  -3 1155.78   97.69
   0  -7   3 1239.38   92.39
   0   7  -3 1429.36   84.69
   0  -7   3 1380.46   61.69
   0   7  -3 1463.85   84.49
   0  -8  -3    7.00   17.30
   0   8  -3   -0.80    2.00
   0  -8   3   -5.20    9.40
   0  -8   3    0.60    2.60
   0  -9   3  418.26   40.00
   0  -9  -3  446.96   48.70
   0 -10  -3    0.70   20.80
   0 -10   3  -17.80   12.30
   0   0  -4  111.19    7.40
   0   0  -4  117.19    4.80
   0   0   4  106.19    7.40
   0   0   4  115.49    7.50
   0   0   4  112.89    7.40
   0   0  -4  114.79    7.40
   0   0  -4  107.69    7.40
   0   1  -4    0.20    0.70
   0   1   4    0.30    0.70
   0  -1  -4    1.00    0.50
   0   1   4    1.90    0.80
   0  -1   4    0.70    0.80
   0  -1  -4    0.70    0.70
   0   1  -4    0.00    0.50
   0  -1   4    0.70    0.70
   0  -1  -4    1.00    0.80
   0   1  -4   -0.30    0.90
   0  -1   4    1.30    0.90
   0  -1   4    0.60    0.60
   0   1   4    0.40    0.70
   0  -1   4    0.70    0.90
   0  -2   4  101.79    7.20
   0  -2   4   99.09    7.10
   0   2  -4  104.19    7.30
   0   2  -4  106.29    7.20
   0  -2   4   97.69    7.20
   0   2   4  101.89    6.80
   0  -2   4  105.99    7.30
   0  -2   4  103.69    5.30
   0   2  -4  116.99    7.20
   0  -2  -4  104.09    4.50
   0   2  -4  106.79    7.10
   0  -3   4    1.40    1.10
   0  -3   4    1.30    1.20
   0   3   4    1.00    0.80
   0   3   4    0.10    0.80
   0   3  -4    1.90    1.00
   0  -3   4    0.00    0.90
   0  -3   4    1.20    1.30
   0   3  -4    0.50    1.10
   0  -3  -4    0.90    0.70
   0   3  -4    0.80    0.90
   0   3  -4   -0.50    1.20
   0  -3   4    0.20    1.20
   0  -4   4   63.99    5.00
   0  -4   4   60.19    5.20
   0  -4  -4   40.40   13.30
   0   4   4   64.49    3.60
   0  -4  -4   61.69    4.00
   0   4  -4   60.09    5.00
   0  -4   4   64.09    4.00
   0   4   4   62.09    3.90
   0   4  -4   62.79    4.80
   0   4  -4   60.29    5.10
   0   5  -4    1.40    2.00
   0   5   4    0.60    1.30
   0  -5   4   -1.00    2.10
   0  -5   4   -0.50    1.40
   0   5  -4   -1.50    1.50
   0  -5   4    1.10    4.60
   0  -5  -4    1.70   10.30
   0   5  -4    2.00    1.40
   0  -6   4   25.80    8.20
   0   6  -4   33.70    3.50
   0   6  -4   21.60    3.60
   0  -6   4   30.20    3.50
   0  -6  -4   21.70   15.30
   0   7  -4   -3.30    2.00
   0  -7  -4    2.70   15.70
   0  -7   4   -1.30    2.20
   0   7  -4    2.80    2.00
   0  -7   4   -1.80    7.80
   0  -8  -4    5.10   18.90
   0  -8   4   14.20    3.30
   0  -8   4   13.90   11.00
   0   8  -4   16.20    3.00
   0  -9   4   -4.20   10.10
   0  -9  -4    5.20   20.20
   0 -10   4   -7.50   13.20
   0 -10  -4   13.00   22.80
   0   0   5   -0.70    0.90
   0   0   5    0.90    1.00
   0   0  -5    0.40    1.10
   0   0  -5    0.80    0.60
   0   0  -5    1.30    0.90
   0   0   5   -0.50    0.80
   0  -1   5   97.49    6.80
   0   1   5   98.69    6.70
   0  -1   5   97.29    6.80
   0   1   5   99.59    6.60
   0   1  -5   96.79    6.80
   0   1  -5   96.89    6.70
   0   1   5   98.59    6.70
   0  -1  -5   92.59    6.60
   0  -1  -5   96.39    6.70
   0  -1  -5  101.99    4.30
   0   1  -5   97.89    6.80
   0  -1   5   95.59    6.80
   0  -1   5  102.59    7.00
   0   2   5    0.50    0.90
   0   2  -5    0.40    1.00
   0   2   5    0.90    1.00
   0  -2   5    1.60    1.20
   0  -2   5    0.90    1.00
   0   2  -5    0.60    1.10
   0   2  -5   -0.10    1.30
   0  -2   5    0.40    0.80
   0  -2   5    1.00    1.10
   0  -2  -5    1.60    0.70
   0   2  -5    1.60    1.10
   0  -2   5    1.00    1.30
   0  -3   5   77.59    6.10
   0  -3  -5   86.19    3.90
   0  -3   5   76.39    4.60
   0   3  -5   80.89    6.20
   0   3  -5   85.59    5.90
   0  -3   5   85.39    6.30
   0  -3   5   77.49    5.90
   0   3   5   78.79    4.30
   0   3  -5   78.29    6.10
   0   3   5   77.19    5.50
   0   4  -5   -1.30    1.70
   0   4  -5   -0.20    1.50
   0   4   5    0.90    1.10
   0  -4   5    1.50    1.30
   0  -4  -5    1.80    1.20
   0  -4   5    2.00    1.80
   0   4   5    0.80    1.00
   0  -4   5    0.70    1.70
   0   4  -5    0.50    1.30
   0   5  -5   30.30    4.20
   0  -5   5   33.60    3.90
   0  -5   5   31.10    4.50
   0  -5  -5   21.90    3.00
   0  -5   5   31.00    3.20
   0   5   5   35.00    2.80
   0  -5   5   34.40    7.60
   0   5  -5   25.00    3.70
   0   5  -5   32.80    3.40
   0  -6   5    2.90    2.00
   0  -6  -5   -2.30   16.10
   0  -6   5   -3.20    6.00
   0   6  -5   -0.10    2.10
   0   6  -5    4.00    1.90
   0   7  -5   24.00    3.60
   0  -7  -5   20.50   20.70
   0  -7   5   15.90    9.10
   0   7  -5   21.00    2.30
   0  -7   5   17.70    3.00
   0   7  -5   11.30    3.30
   0  -8   5   -5.50    9.20
   0  -8  -5   10.30   20.00
   0  -8   5    2.00    2.80
   0  -9   5   -1.30   10.40
   0 -10   5    2.90   13.00
   0   0  -6 5032.20  190.08
   0   0   6 4719.83  299.17
   0   0  -6 4708.13  300.37
   0   0   6 5109.89  302.47
   0   0   6 4942.31  299.97
   0   0  -6 4941.51  302.37
   0   0  -6 4539.15  299.47
   0   1   6   -0.20    1.20
   0   1  -6    0.10    1.00
   0  -1   6    0.20    1.10
   0   1  -6   -0.60    1.10
   0  -1  -6    1.20    1.10
   0  -1   6   -0.10    1.30
   0  -1  -6    0.90    1.20
   0  -1   6   -0.20    1.30
   0   1  -6   -1.50    0.70
   0   1  -6    0.50    1.50
   0  -1  -6    1.60    1.20
   0  -1  -6   -0.60    0.70
   0  -1   6    0.10    1.10
   0   1   6    0.00    1.00
   0   2   6 8992.00  580.64
   0  -2  -6 9121.79  367.96
   0  -2  -6 8934.91  580.74
   0  -2   6 9441.46  420.36
   0  -2   6 9754.42  586.14
   0  -2   6 9437.76  580.74
   0  -2  -6 9412.06  581.24
   0   2  -6 9271.37  581.44
   0   2  -6 9339.07  581.04
   0   2   6 9404.66  585.94
   0  -2   6 9983.70  582.14
   0  -2   6 9999.00  586.74
   0  -3   6    0.70    1.50
   0   3  -6    0.20    1.50
   0   3  -6    0.00    1.30
   0   3  -6   -0.50    1.70
   0   3   6    1.00    1.20
   0  -3   6    0.40    1.70
   0  -3   6   -0.70    1.00
   0  -3   6    0.50    1.40
   0  -3  -6    0.30    0.90
   0   3   6    0.80    1.10
   0  -3   6   -0.50    1.30
   0  -4  -6 2813.02  104.79
   0   4   6 2666.53  119.69
   0   4   6 2728.53  121.09
   0  -4   6 2732.93  165.38
   0  -4   6 2456.05  166.88
   0   4  -6 2636.34  165.28
   0  -4   6 2628.24  119.69
   0  -4   6 2714.63  165.38
   0   4  -6 2762.72  166.78
   0  -4   6 2611.14  166.58
   0   5   6    2.20    1.40
   0  -5   6    1.00    2.20
   0  -5   6    0.00    1.50
   0  -5  -6   -2.30    1.80
   0   5  -6   -0.10    1.60
   0   5  -6   -2.60    2.30
   0   5  -6   -2.50    2.00
   0  -5   6   -0.30    2.10
   0  -6   6 2766.52  130.59
   0   6   6 2868.41  131.89
   0  -6   6 2680.43  188.98
   0  -6   6 2860.71  179.88
   0   6  -6 3080.89  181.38
   0   6  -6 3034.20  181.58
   0  -6   6 3059.69  180.18
   0   7  -6    0.30    1.40
   0  -7   6   -0.60    7.80
   0  -7   6   -1.40    2.10
   0  -8   6  561.64   28.00
   0   8  -6  629.44   37.80
   0  -8   6  507.25   45.80
   0  -9   6   -1.60   10.40
   0 -10   6  325.47   35.90
   0   0   7   -0.50    1.40
   0   0  -7    0.20    0.80
   0   0   7   -0.30    1.20
   0   0  -7    0.60    1.10
   0   1   7   34.60    3.40
   0  -1  -7   35.60    3.40
   0   1  -7   36.60    3.70
   0   1  -7   35.00    3.30
   0  -1   7   35.40    3.40
   0   1   7   34.50    3.30
   0  -1   7   35.30    3.70
   0  -1  -7   32.40    2.30
   0  -1   7   37.60    3.90
   0  -1   7   32.50    3.70
   0   1  -7   30.70    3.70
   0   1  -7   35.20    2.30
   0  -1  -7   34.80    3.50
   0  -1  -7   34.40    3.40
   0   2  -7   -0.10    0.90
   0   2  -7    0.90    1.40
   0  -2  -7    4.40    1.40
   0  -2   7    1.50    1.60
   0   2   7    0.20    1.10
   0  -2   7    0.10    1.00
   0   2  -7    0.70    1.30
   0   2   7    0.50    1.40
   0  -2   7    0.50    1.40
   0  -2   7    1.40    1.30
   0  -2  -7    0.60    0.80
   0  -2   7    0.80    1.80
   0   2  -7    0.00    1.80
   0   3  -7   28.60    3.20
   0  -3   7   28.70    3.40
   0  -3   7   30.60    2.70
   0   3   7   29.60    2.60
   0  -3   7   33.80    4.10
   0   3   7   27.20    3.10
   0   3   7   26.70    2.90
   0  -3   7   31.20    3.60
   0  -3   7   27.60    3.80
   0   3  -7   27.20    3.80
   0  -3  -7   28.60    2.30
   0   4  -7    1.40    1.90
   0  -4   7   -1.30    1.70
   0   4  -7    2.00    1.70
   0   4   7    0.90    1.30
   0  -4   7    0.60    1.30
   0  -4   7   -0.10    2.20
   0  -4   7    2.50    1.80
   0   4  -7   -0.90    2.20
   0   5  -7   11.70    2.90
   0  -5   7   12.70    3.10
   0  -5   7   11.70    2.20
   0  -5   7   19.10    3.10
   0   5  -7   12.40    2.60
   0  -5  -7   12.70    2.30
   0   5   7   17.00    2.10
   0   6  -7    1.80    1.40
   0  -6   7    6.40    3.00
   0   6  -7    1.30    2.60
   0  -6   7   -1.70    6.70
   0  -6   7    1.50    2.10
   0   7  -7    5.00    1.60
   0   7  -7    5.30    3.20
   0  -7   7    7.20    2.60
   0  -7   7    6.60    8.80
   0  -8   7   -7.00    8.40
   0  -9   7    1.70   11.10
   0 -10   7   -7.90   11.90
   0   0  -8   36.00    2.40
   0   0   8   34.40    3.80
   0   0  -8   31.40    3.40
   0   0  -8   38.70    3.80
   0   0   8   31.10    3.50
   0  -1  -8    1.10    1.60
   0   1  -8    1.40    1.40
   0   1  -8    0.70    1.00
   0  -1   8    1.10    1.90
   0  -1  -8    0.10    0.90
   0  -1  -8    0.90    1.30
   0  -1  -8    1.20    1.30
   0  -1   8    1.30    1.40
   0   1   8   -0.90    1.60
   0   1   8    0.30    1.40
   0   1  -8   -0.70    1.90
   0  -1   8    2.60    1.70
   0   1  -8    2.40    1.30
   0  -1   8    0.30    1.40
   0   2   8   15.70    2.50
   0  -2  -8   17.20    3.10
   0  -2  -8   20.80    2.00
   0  -2   8   21.80    3.00
   0   2   8   17.00    2.50
   0   2  -8   20.20    2.90
   0   2  -8   18.70    3.00
   0  -2  -8   23.40    3.10
   0  -2   8   15.00    2.50
   0  -2   8   18.10    2.20
   0  -2   8   18.00    2.90
   0   2  -8   23.50    3.40
   0  -2   8   24.50    3.70
   0   2  -8   17.90    2.00
   0   3  -8   -2.10    2.20
   0  -3   8    1.10    1.30
   0   3   8    0.00    1.30
   0  -3   8   -0.10    2.20
   0   3  -8    0.20    1.10
   0   3  -8    0.00    0.40
   0  -3   8    2.20    1.60
   0   3   8    0.20    1.70
   0  -3   8    4.30    2.00
   0   3   8   -1.80    1.40
   0  -3  -8    1.20    1.10
   0  -3   8   -0.80    1.70
   0   4  -8   16.40    1.90
   0  -4   8   18.20    3.50
   0   4  -8   17.10    3.40
   0  -4   8   24.20    3.80
   0   4   8   23.10    2.70
   0  -4   8   19.20    2.30
   0  -4   8   29.50    4.20
   0  -4  -8   18.70    2.00
   0   4   8   18.60    3.20
   0  -4   8   13.00    2.90
   0   4  -8   21.20    3.40
   0  -5  -8    1.10    1.70
   0   5  -8    0.90    1.40
   0   5   8    0.90    1.70
   0  -5   8    1.20    1.80
   0  -5   8    4.30    3.00
   0  -6   8    5.30    2.30
   0   6  -8    4.00    1.60
   0  -6   8    4.80    7.50
   0  -6   8    5.50    3.20
   0   6  -8    8.30    3.00
   0   7  -8    0.30    1.70
   0  -7   8    0.60    2.50
   0  -7   8    1.70    3.50
   0  -7   8   -3.30    8.00
   0  -8   8   -3.90    9.10
   0  -9   8   -2.50   11.10
   0   0   9   -1.20    1.60
   0   0  -9    0.60    1.30
   0   0  -9    0.60    1.50
   0   0   9   -0.40    2.00
   0   0   9   -0.30    1.40
   0   0  -9   -0.20    1.00
   0   1  -9 2416.86  148.79
   0   1  -9 2369.56  147.69
   0  -1  -9 2374.86  147.59
   0  -1   9 2404.76  148.99
   0   1   9 2421.66  148.79
   0   1  -9 2318.67  147.59
   0   1  -9 2407.86   93.59
   0  -1  -9 2449.25  148.79
   0  -1  -9 2251.07  147.39
   0   1   9 2334.07  147.49
   0  -1  -9 2406.16   93.49
   0  -1   9 2440.66  147.79
   0  -1   9 2415.36  148.89
   0  -2   9   -0.60    1.10
   0  -2  -9    0.70    1.10
   0   2   9    0.80    1.50
   0   2  -9    0.70    1.20
   0  -2  -9    1.50    1.60
   0   2   9   -1.40    1.80
   0  -2  -9    4.50    1.90
   0   2  -9    2.30    1.60
   0  -2   9   -1.30    1.70
   0  -2   9    0.20    2.20
   0  -2   9    3.00    1.70
   0  -2   9    2.90    2.00
   0   2  -9   -1.70    2.20
   0   3  -9 1723.43  108.29
   0  -3   9 1754.42  108.29
   0  -3   9 1747.53  109.19
   0  -3   9 1744.43  108.39
   0  -3   9 1667.63   78.39
   0   3  -9 1715.83   68.59
   0  -3  -9 1752.02   68.59
   0   3   9 1690.13  108.69
   0  -3   9 1788.52  109.49
   0   3  -9 1742.63  109.09
   0   3   9 1808.22   79.39
   0   3   9 1765.42  107.89
   0  -4   9    5.50    2.20
   0   4  -9   -0.80    1.40
   0   4   9   -0.80    1.60
   0  -4  -9    1.00    1.40
   0  -4   9   -4.50    2.10
   0   4   9   -1.80    1.50
   0  -4   9   -1.80    2.70
   0  -4   9    1.00    1.60
   0   4  -9   -4.60    2.70
   0  -5   9 1189.28   56.09
   0   5   9 1304.37   56.59
   0   5  -9 1126.79   48.70
   0  -5   9 1256.27   77.19
   0  -5  -9 1269.67   49.20
   0  -6   9   -2.00    3.30
   0   6  -9   -0.10    1.70
   0  -6   9   -0.60    2.20
   0  -7   9  485.65   41.70
   0  -7   9  500.25   25.10
   0   7  -9  531.15   21.30
   0  -7   9  527.85   33.90
   0  -8   9    4.10   10.20
   0  -9   9  241.28   28.80
   0   0  10    3.30    2.00
   0   0 -10    9.70    2.00
   0   0  10    7.50    2.70
   0   0 -10    5.70    1.40
   0   0 -10    9.60    2.10
   0   0 -10    8.90    2.70
   0   0  10    9.00    2.20
   0   1  10   -1.60    2.10
   0   1  10   -0.90    1.80
   0  -1  10   -2.20    1.80
   0   1 -10    0.00    1.30
   0  -1  10   -3.50    2.20
   0  -1 -10    0.00    1.20
   0  -1 -10   -0.20    2.00
   0  -1  10    0.80    1.70
   0   1 -10    1.90    1.70
   0  -1 -10    1.40    1.60
   0  -1 -10    1.70    1.60
   0   1 -10    0.10    1.40
   0   2  10    2.10    2.30
   0   2  10    3.40    2.00
   0   2 -10    4.50    1.90
   0  -2  10    1.10    2.20
   0  -2 -10    4.70    1.90
   0  -2  10    1.40    2.70
   0  -2  10    9.90    2.40
   0  -2  10    3.80    1.40
   0  -2 -10    5.80    2.30
   0  -2 -10    5.40    1.40
   0   2 -10    0.00    2.80
   0   2 -10    3.80    1.50
   0  -3 -10   -0.40    1.30
   0  -3  10    4.10    2.00
   0  -3  10   -0.20    1.50
   0   3 -10    2.00    1.90
   0  -3  10   -3.40    2.10
   0  -3  10   -2.80    2.70
   0   3 -10   -3.70    2.80
   0   3  10   -1.70    1.80
   0   3 -10   -0.20    1.40
   0  -4 -10    4.50    1.70
   0  -4  10   -0.80    3.20
   0   4  10    3.90    1.90
   0  -4  10    3.30    1.80
   0  -4  10   -2.10    2.60
   0   4 -10    0.00    3.10
   0   4 -10    3.50    1.60
   0  -5  10   -3.60    3.20
   0  -5 -10    0.40    1.80
   0   5  10   -0.60    1.70
   0  -5  10    0.20    1.90
   0   5 -10   -1.70    1.60
   0  -6  10   -6.00    3.60
   0  -6  10    1.30    2.30
   0   6 -10   -0.40    1.80
   0  -7  10   -8.40    8.70
   0  -7  10   -2.20    4.00
   0   7 -10   -1.40    1.90
   0  -8  10    2.40   10.50
   0  -9  10   -8.00   10.80
   0   0  11    0.20    2.50
   0   0  11    0.20    1.80
   0   0 -11    0.40    1.40
   0   0 -11    3.20    1.60
   0   0  11   -1.70    1.90
   0   0 -11    1.80    2.60
   0  -1  11    1.80    1.30
   0   1 -11    3.90    1.70
   0  -1 -11    0.60    1.40
   0   1  11   -2.50    2.40
   0  -1  11   -2.20    2.10
   0  -1 -11    0.40    2.40
   0  -1  11   -2.00    2.60
   0  -1  11    1.90    1.80
   0   1  11   -0.60    2.10
   0   1 -11    1.30    1.40
   0   2 -11    2.30    1.80
   0  -2  11   -0.80    1.30
   0  -2 -11    2.90    2.00
   0  -2 -11    1.30    1.50
   0  -2  11    4.50    2.10
   0  -2 -11    1.90    2.50
   0   2  11   -3.00    1.90
   0  -2  11   -2.20    2.90
   0  -2  11   -1.80    2.30
   0   2 -11   -1.40    1.40
   0   3 -11   -0.30    1.60
   0   3 -11   -3.60    3.10
   0  -3  11    4.90    2.20
   0  -3  11   -1.20    3.10
   0   3  11   -0.60    2.10
   0  -3  11    1.20    1.60
   0  -3 -11    0.10    1.40
   0   4 -11    3.30    1.80
   0  -4  11    1.40    1.80
   0   4  11    0.60    2.20
   0  -4  11   -0.30    3.40
   0   4 -11    0.60    3.30
   0  -4 -11    1.30    1.70
   0  -5  11   -1.20    2.00
   0  -5  11   -1.80    3.70
   0  -5 -11   -0.80    1.90
   0   5 -11   -1.10    1.80
   0  -6  11   -5.00    4.00
   0  -6  11   -0.90    2.40
   0   6 -11   -1.20    1.90
   0  -7  11   -6.00    4.30
   0  -7  11   -1.20    9.50
   0   7 -11    0.20    2.10
   0  -8  11   -1.40   11.00
   0   0  12 2466.65  152.78
   0   0 -12 2478.75   96.89
   0   0 -12 2440.16  152.78
   0  -1  12    0.10    1.40
   0   1 -12    3.10    3.10
   0   1 -12    3.50    1.80
   0   1 -12   -0.10    1.60
   0  -1  12   -0.10    3.00
   0   1  12   -3.40    2.10
   0  -1 -12    4.50    2.90
   0  -1 -12    0.40    1.50
   0   2 -12 1085.49   43.80
   0  -2  12 1096.49   69.09
   0   2  12 1116.19   69.19
   0  -2 -12 1064.09   43.70
   0  -2  12 1110.09   49.90
   0  -2 -12 1085.59   68.69
   0  -3  12   -0.10    3.50
   0   3 -12    1.40    1.80
   0   3  12   -2.40    2.40
   0  -3 -12   -0.10    2.30
   0  -3  12   -0.60    1.70
   0  -3 -12    0.40    1.60
   0   4 -12 1423.86   57.89
   0   4  12 1520.65   91.59
   0  -4  12 1423.66   66.19
   0  -4 -12 1433.36   57.99
   0  -4  12 1477.55   91.59
   0   5 -12    0.70    2.00
   0  -5  12   -0.50    2.20
   0  -5  12   -1.30    4.10
   0  -5 -12   -1.60    2.00
   0  -6  12  400.16   27.70
   0   6 -12  406.26   17.40
   0  -7  12   -8.20    9.80
   0   7 -12    0.00    2.30
   0  -8  12  316.77   33.20
   0   0 -13    2.30    3.20
   0   0 -13    5.00    1.90
   0  -1 -13    2.30    1.70
   0   1 -13   -2.30    3.30
   0  -1  13    2.80    1.70
   0  -1  13   -1.10    3.40
   0  -1 -13    0.70    3.10
   0   1 -13    2.70    1.80
   0  -2 -13    2.60    3.00
   0   2 -13   -1.70    1.80
   0  -2 -13   -0.90    1.60
   0  -2  13   -4.30    3.50
   0  -2  13    0.10    1.60
   0  -3  13    1.30    1.80
   0   3 -13   -1.30    1.90
   0   3  13   -1.70    2.70
   0  -3  13   -2.10    3.80
   0  -3 -13    0.90    1.90
   0  -4 -13   -1.00    1.90
   0  -4  13   -4.70    4.10
   0   4 -13   -0.40    2.00
   0  -4  13   -0.50    2.10
   0   4  13   -3.80    2.70
   0  -5 -13   -0.90    2.20
   0  -5  13   -4.70    4.40
   0  -5  13   -1.70    2.20
   0   5 -13   -1.20    2.10
   0   6 -13   -4.20    2.20
   0  -6  13   -8.00    4.80
   0   7 -13   -2.40    2.50
   0  -8  13   -6.90   12.00
   0   0 -14    8.80    2.20
   0   0 -14    6.50    3.80
   0  -1  14    0.50    1.70
   0  -1 -14    0.10    1.80
   0  -1 -14    1.50    3.40
   0   1 -14   -2.20    3.50
   0   1 -14    1.60    1.90
   0   2 -14    0.80    2.10
   0  -2  14   -2.50    4.10
   0  -2 -14    3.90    2.00
   0  -2 -14    5.80    3.60
   0   2 -14   -5.80    3.70
   0  -2  14    3.70    2.00
   0  -3  14    0.30    2.00
   0   3 -14   -1.90    2.10
   0  -3  14   -2.80    4.20
   0  -3 -14    1.40    2.00
   0   3 -14   -4.60    4.00
   0  -4  14   -2.20    4.60
   0  -4  14    5.50    2.50
   0   4 -14    5.20    2.40
   0  -4 -14    4.80    2.30
   0   5 -14    0.00    2.30
   0  -5  14   -6.80    4.90
   0  -6  14  -10.30    5.20
   0   6 -14   -0.30    2.60
   0   7 -14   -1.90    2.60
   0   0 -15   -2.80    3.80
   0   0 -15    1.50    2.00
   0   0  15   -0.40    1.60
   0   1 -15  335.07   15.50
   0  -1 -15  342.17   24.20
   0   1 -15  356.46   24.40
   0  -1  15  377.46   17.40
   0  -1 -15  345.27   15.50
   0   2 -15    0.40    2.20
   0  -2 -15   -0.30    2.10
   0  -2 -15   -3.00    3.70
   0   2 -15   -6.30    4.20
   0  -2  15    0.60    1.90
   0   3 -15  327.17   14.80
   0  -3  15  329.57   23.40
   0   3 -15  330.77   23.40
   0  -3  15  339.27   16.70
   0  -3 -15  314.07   14.80
   0  -4 -15   -1.40    2.40
   0   4 -15   -2.00    2.30
   0  -4  15   -9.00    4.80
   0  -5  15  167.88   14.60
   0   6 -15   -0.90    2.70
   0   0 -16    6.00    2.50
   0   0 -16    1.50    4.50
   0  -1 -16   -1.50    2.10
   0  -1 -16   -1.60    4.20
   0   1 -16   -6.30    4.10
   0   1 -16   -0.40    2.20
   0   2 -16   -4.10    4.40
   0   2 -16    2.30    2.50
   0  -2  16    3.80    2.30
   0  -2 -16    3.80    2.60
   0  -2 -16    3.80    4.50
   0   3 -16   -2.10    2.50
   0  -3 -16   -2.40    2.40
   0  -3  16   -2.70    2.20
   0  -4 -16   -0.10    2.60
   0   4 -16    3.80    2.70
   0  -4  16   -8.00    5.30
   0   5 -16   -1.70    2.80
   0   0 -17   -7.30    4.60
   0   0 -17   -2.30    2.30
   0  -1 -17    7.40    5.20
   0   1 -17   11.60    3.10
   0  -1 -17   15.50    3.10
   0   1 -17    4.90    5.20
   0   2 -17   -1.40    2.60
   0  -2 -17   -2.80    2.50
   0   2 -17   -6.10    4.90
   0   3 -17   10.90    3.20
   0  -3 -17   12.40    3.30
   0  -4 -17   -4.10    2.70
   0   4 -17   -1.30    2.80
   0   5 -17    2.70    3.20
   0   0 -18  168.18    9.30
   0   1 -18   -2.70    2.70
   0  -1 -18   -2.50    2.70
   0  -2 -18  239.68   12.10
   0   2 -18  225.28   18.80
   0   2 -18  245.88   11.90
   0  -3 -18   -5.20    2.80
   0   3 -18   -4.20    2.90
   0   0 -19   -5.60    3.00
   0   1 -19    8.50    3.60
   0  -1 -19    8.50    3.50
   1   0   0    0.30    0.10
   1   0   0    0.10    0.10
   1   0   0    0.40    0.10
  -1   0   0    0.40    0.20
   1   0   0    0.10    0.10
  -1   0   0    0.10    0.10
  -1   1   0   -0.20    0.50
   1  -1   0    0.10    0.20
   1  -1   0    1.00    1.10
  -1  -1   0    0.10    0.30
   1   1   0   -0.10    0.90
   1   1   0    0.20    0.20
  -1   1   0    0.00    0.10
  -1  -1   0   -0.10    1.00
   1   1   0   -0.10    0.10
  -1  -2   0    2.40    0.70
   1  -2   0    1.30    0.50
  -1   2   0    0.70    0.40
  -1  -2   0    0.80    2.30
   1   2   0    2.90    0.60
   1  -2   0    2.60    2.40
  -1   3   0    0.80    0.60
  -1  -3   0    0.90    0.80
   1  -3   0   -0.60    3.20
   1   3   0    0.20    0.60
   1  -3   0    0.60    0.70
   1  -4   0    0.20    1.20
  -1  -4   0    2.00    1.40
  -1   4   0    1.00    0.90
   1   4   0    2.60    1.00
  -1  -4   0    8.10    4.90
   1  -5   0   -0.20    1.40
  -1  -5   0    1.70    1.50
   1  -5   0   -1.70    5.30
  -1  -5   0    0.30    5.30
   1  -6   0    2.20    2.10
  -1  -6   0    2.10    7.00
   1  -6   0    3.10    7.50
  -1  -6   0    1.70    2.10
  -1  -7   0    1.00    2.30
   1  -7   0    0.50    2.30
  -1  -7   0    4.60    9.20
   1  -7   0   -2.10    9.40
   1  -8   0    4.70    3.20
   1  -8   0    5.80   12.50
  -1  -8   0    9.00   11.80
   1  -9   0    4.70    3.50
   1  -9   0   -8.40   16.20
  -1  -9   0  -12.60   14.00
   1 -10   0   -2.10   18.10
  -1 -10   0   -5.20   17.10
  -1   0  -1   -0.50    0.10
   1   0  -1   -0.40    0.10
   1   0  -1   -0.30    0.10
   1   0   1   -0.70    0.20
   1   0  -1   -0.40    0.10
   1   0  -1   -0.50    0.10
  -1   0   1   -0.60    0.10
   1   0   1   -0.50    0.10
  -1   0  -1   -0.70    0.10
  -1   0  -1   -0.60    0.10
   1   0  -1   -0.50    0.10
  -1   0   1   -0.40    0.20
   1   0   1   -0.40    0.10
  -1   0   1   -0.40    0.10
   1   0  -1   -0.60    0.10
  -1   0   1   -0.50    0.10
  -1   0  -1   -0.70    0.10
   1   0   1   -0.70    0.10
  -1   0   1   -0.30    0.10
  -1   0   1   -0.50    0.10
   1   1  -1   98.59    5.80
   1   1  -1   89.09    5.80
  -1  -1  -1   94.89    4.30
   1  -1   1   84.49    4.30
  -1   1  -1   96.49    5.80
   1  -1  -1   91.79    4.20
  -1   1  -1   91.09    6.00
  -1   1  -1   78.49    5.80
   1  -1  -1   95.79    3.90
  -1  -1   1   81.79    4.20
   1  -2   1   51.69    3.60
  -1   2   1   45.20    2.50
   1  -2   1   45.10    5.80
   1   2  -1   50.59    3.30
  -1   2   1   48.70    2.60
   1   2  -1   47.30    3.50
   1  -2   1   46.50    2.70
   1   2  -1   49.50    2.70
   1  -2   1   47.80    3.30
  -1  -2  -1   47.00    2.50
  -1  -2  -1   48.90    6.90
   1  -2  -1   47.80    2.70
  -1  -2   1   49.80    3.30
   1  -2  -1   39.80    7.50
  -1  -2   1   44.90    3.80
  -1  -2   1   50.69    5.70
   1   2   1   50.49    2.70
  -1   2  -1   48.50    2.60
  -1  -2   1   46.80    2.70
  -1   2  -1   50.19    3.40
  -1   2  -1   48.90    3.40
   1  -3   1   94.99    4.90
   1  -3   1   93.79    9.80
  -1   3   1   80.29    4.30
  -1  -3  -1   98.19    5.20
   1   3  -1   97.19    6.40
   1   3  -1   97.79    5.00
  -1   3   1   99.19    4.80
  -1  -3  -1   83.79   11.50
  -1  -3  -1   95.39    4.60
  -1   3  -1   94.49    4.90
   1  -3  -1  102.59    5.00
  -1  -3   1   92.29    5.00
  -1   3  -1   98.09    6.30
   1   3   1   96.69    4.90
  -1  -3   1   93.69    9.50
   1  -3  -1   71.39   11.50
   1  -4   1   20.20    2.20
  -1   4   1   29.00    2.20
  -1  -4  -1   20.30    6.90
  -1  -4  -1   19.70    2.50
   1   4  -1   19.30    2.60
   1   4  -1   29.60    2.50
   1   4   1   27.50    2.40
  -1  -4   1   23.90    2.50
   1  -4  -1   23.70    2.60
   1  -4  -1   27.30    7.60
  -1  -4   1   22.00    5.90
  -1   4  -1   28.70    2.60
  -1   4  -1   19.80    2.30
  -1  -5  -1   48.70    3.90
   1  -5   1   43.40    3.50
   1  -5   1   32.00    8.30
   1   5  -1   42.50    3.80
   1  -5  -1   44.80    3.80
  -1  -5   1   39.10    8.10
  -1  -5   1   44.20    3.60
  -1   5  -1   44.80    3.80
   1  -5  -1   34.80    9.60
   1  -6   1   15.30    2.50
  -1  -6  -1   15.00    3.00
   1  -6   1   11.00    8.20
  -1  -6  -1   11.20    8.90
  -1  -6   1   15.40    2.60
   1  -6  -1   13.80    9.50
   1  -6  -1   19.10    2.70
  -1  -7  -1   36.60   13.80
   1  -7   1   46.00    4.70
   1  -7   1   32.80   11.70
  -1  -7   1   51.09    4.90
   1  -7  -1   44.90    5.20
  -1  -7   1   36.60   11.50
   1  -7  -1   43.70   14.40
   1  -8   1   -1.60   11.40
   1  -8   1    2.50    3.10
  -1  -8  -1    1.70   13.70
  -1  -8   1    3.50   10.40
   1  -8  -1    8.10   14.60
  -1  -8   1   10.50    3.30
   1  -9   1    3.20   13.40
  -1  -9  -1   17.50   17.20
   1  -9   1   20.50    4.30
  -1  -9   1   13.20   14.70
   1  -9  -1    9.80   18.70
   1 -10   1   -9.00   15.80
  -1 -10  -1  -14.10   16.70
  -1 -10   1    8.60   16.10
   1 -10  -1  -18.20   17.30
  -1   0  -2   83.39    5.00
  -1   0   2   84.79    5.00
   1   0   2   64.19    4.90
  -1   0  -2   74.59    4.90
   1   0  -2   78.39    5.00
  -1   0   2   68.89    5.00
   1   1  -2  253.57   16.00
  -1  -1  -2  243.18   15.60
   1   1  -2  261.67   10.00
   1   1  -2  247.28   15.80
   1  -1   2  227.78   15.70
  -1   1   2  250.67   15.60
   1   1  -2  246.98   15.80
   1   1  -2  250.27   15.70
   1   1  -2  245.78   11.40
   1  -1   2  249.78   15.80
  -1   1   2  263.87   15.80
   1  -1   2  256.97   15.90
  -1  -1  -2  243.18   11.50
  -1   1   2  252.67   10.00
   1  -1   2  251.37   15.90
   1   1   2  242.28   11.50
  -1  -1   2  248.98   15.80
   1  -1  -2  252.87   10.00
   1   1   2  259.97   15.80
  -1   1  -2  237.68   15.70
  -1   1  -2  251.37   15.80
   1   1   2  251.87   15.60
  -1   1  -2  248.98   15.90
  -1  -1   2  259.67   16.00
  -1  -1   2  257.37   11.40
  -1  -1   2  270.97   15.90
  -1  -1   2  245.58   15.70
  -1   2   2   52.59    2.30
   1  -2   2   50.69    3.60
   1   2  -2   45.80    3.60
   1   2  -2   48.60    3.50
  -1  -2  -2   30.60    6.80
  -1   2   2   47.80    2.60
   1   2  -2   49.00    3.40
   1  -2   2   47.60    3.60
   1   2  -2   49.30    3.80
   1  -2   2   49.50    2.80
  -1  -2  -2   46.00    2.50
   1   2  -2   49.70    2.80
  -1  -2  -2   57.79    2.20
  -1   2  -2   47.90    3.60
   1   2   2   51.49    2.60
  -1   2  -2   51.39    3.50
   1  -2  -2   30.20    7.00
  -1  -2   2   50.19    3.70
   1  -2  -2   50.79    2.70
  -1  -2   2   48.70    3.50
  -1   2  -2   45.20    3.60
  -1  -2   2   46.80    2.80
  -1   2  -2   50.79    3.60
  -1   2  -2   55.99    2.80
   1   3  -2  132.19    8.70
  -1   3   2  135.89    6.30
   1  -3   2  125.69    6.70
   1   3  -2  134.79    6.70
   1  -3   2  134.39    8.90
   1  -3   2  132.79    8.80
   1   3  -2  135.39    9.40
   1   3  -2  131.39    8.90
  -1   3   2  137.79    5.60
  -1   3   2  130.89    6.50
   1  -3   2  131.89   12.00
  -1   3  -2  132.99    6.70
  -1   3  -2  135.19    8.80
  -1  -3   2  128.39    6.70
  -1   3  -2  137.49    8.80
  -1  -3   2  133.39   11.80
  -1   3  -2  140.99    9.00
   1   3   2  134.39    6.70
   1   3   2  138.59    6.70
   1  -3  -2  145.39    7.00
  -1  -3   2  136.99    8.80
  -1  -3   2  128.59    9.10
   1   4  -2   71.69    4.30
   1  -4   2   58.09    9.70
  -1   4   2   73.39    4.00
   1  -4   2   67.59    4.30
  -1  -4  -2   66.19   12.20
   1   4  -2   70.09    5.30
   1  -4  -2   74.89    4.60
  -1   4  -2   70.09    5.30
  -1  -4   2   66.09    9.40
  -1   4  -2   77.89    5.30
   1   4   2   74.59    4.20
   1  -4  -2   60.39   12.10
  -1   4  -2   76.69    4.20
  -1  -4   2   67.39    4.30
  -1  -5  -2  107.79   18.80
   1  -5   2  103.89   14.00
   1  -5   2  118.39    6.70
   1   5  -2  124.09    8.30
  -1   5  -2  131.79    8.30
   1  -5  -2  120.69    7.10
   1  -5  -2   88.29   16.10
  -1  -5   2  121.59   14.00
  -1  -5   2  113.59    6.70
   1  -6   2    8.60    7.20
   1  -6   2    3.40    1.90
  -1  -6  -2    4.60    9.80
   1   6  -2    4.40    2.20
  -1   6  -2    1.40    2.10
   1  -6  -2    4.70    2.40
  -1  -6   2    5.70    6.30
   1  -6  -2    5.20   11.10
  -1  -6   2    6.60    2.10
   1  -7   2   41.30    4.50
   1  -7   2   38.60   11.20
  -1  -7  -2   33.00   15.10
   1  -7  -2   32.60   16.00
  -1  -7   2   40.40    4.60
  -1  -7   2   33.40   11.00
  -1  -8  -2   30.50   17.10
   1  -8   2   26.50   13.30
   1  -8   2   32.10    4.30
   1  -8  -2   19.20   17.40
  -1  -8   2   26.00   12.10
  -1  -8   2   40.20    4.90
   1  -9   2    9.30   13.80
  -1  -9  -2   19.60   19.20
  -1  -9   2   26.50   14.70
   1  -9  -2   11.00   17.80
   1 -10   2  -12.50   14.30
  -1 -10  -2   -7.60   17.80
   1 -10  -2    6.10   19.70
  -1 -10   2   -6.10   13.70
  -1   0   3   27.30    2.30
  -1   0  -3   27.30    2.30
   1   0   3   31.70    2.20
   1   0  -3   29.60    2.30
   1   0   3   28.10    2.30
   1   0  -3   27.60    2.30
  -1   0  -3   27.00    2.20
  -1   0   3   27.90    2.30
   1   0   3   28.30    2.40
  -1   0   3   28.10    2.30
  -1   0  -3   28.50    2.20
   1   0  -3   25.00    2.20
  -1   0   3   29.00    2.30
   1   0  -3   29.20    1.50
  -1   1   3    2.80    0.80
   1   1  -3    4.50    0.60
  -1   1   3    2.40    0.70
   1   1  -3    2.20    0.90
   1  -1   3    3.50    0.80
   1   1  -3    2.10    0.80
  -1  -1  -3    3.00    0.70
  -1  -1  -3    5.00    0.90
  -1  -1  -3    4.10    0.50
   1   1  -3    1.50    0.90
  -1   1   3    1.90    1.30
   1  -1   3    3.40    0.80
   1  -1   3    3.70    0.90
   1  -1   3    3.50    0.90
   1   1  -3    2.60    0.50
  -1  -1   3    2.20    0.90
  -1  -1   3    4.00    0.90
   1   1   3    3.50    0.70
  -1  -1   3    2.90    0.50
  -1  -1   3    1.70    0.80
   1  -1  -3    4.40    1.00
  -1  -1   3    2.00    0.90
   1   1   3    4.90    0.70
  -1   1  -3    3.30    0.70
  -1   1  -3    3.40    0.80
  -1   1  -3    2.10    0.90
   1   1   3    3.60    0.70
   1  -1  -3    5.00    0.60
   1   2  -3   18.60    1.60
  -1  -2  -3   19.80    1.10
   1  -2   3   18.80    2.10
  -1   2   3   17.90    1.50
   1   2  -3   18.70    1.90
   1  -2   3   17.70    2.00
   1  -2   3   18.80    2.00
   1   2  -3   18.00    2.10
   1  -2   3   19.30    1.70
   1   2  -3   18.40    2.20
   1   2  -3   17.90    2.00
  -1  -2   3   17.00    1.60
  -1  -2   3   17.50    1.80
  -1   2  -3   18.50    2.10
   1   2   3   18.90    1.50
  -1  -2   3   19.00    2.10
  -1   2  -3   18.80    2.10
  -1  -2   3   20.80    2.30
   1  -2  -3   20.90    1.40
  -1   2  -3   19.90    2.10
  -1   2  -3   19.10    1.90
   1  -3   3    4.50    1.30
   1  -3   3    2.10    1.00
  -1  -3  -3    6.30    6.50
   1   3  -3    1.30    1.00
   1   3  -3    3.30    0.90
  -1   3   3    3.30    0.80
   1  -3   3    4.20    1.20
  -1   3   3    0.70    0.80
   1   3  -3    0.10    1.40
  -1   3  -3    3.60    1.30
  -1   3  -3    4.60    1.10
   1  -3  -3    5.80    1.30
   1   3   3    2.70    0.90
  -1  -3   3   -0.50    1.40
  -1   3  -3    5.50    1.10
   1  -3  -3    2.00    6.30
  -1  -3   3    3.20    1.00
  -1   3  -3    3.30    1.10
  -1  -3   3    1.80    1.30
   1  -4   3   14.90    4.90
  -1   4   3   15.90    1.60
   1   4  -3   15.50    2.40
   1  -4   3   15.40    2.80
   1  -4   3   13.40    1.80
  -1   4   3   19.70    1.90
   1   4  -3   17.60    2.00
  -1  -4  -3   15.10    8.10
   1   4  -3   15.00    2.20
   1   4   3   16.60    2.10
  -1   4  -3   14.40    2.20
  -1  -4   3   14.80    1.80
  -1  -4   3   13.30    2.50
  -1  -4   3   22.30    2.40
  -1  -4   3   20.00    5.00
  -1   4  -3   20.10    2.30
  -1   4  -3   21.80    2.80
   1  -4  -3    8.70    8.40
   1   4   3   15.90    2.00
   1  -5   3    5.50    5.30
   1   5  -3   -3.10    2.00
  -1  -5  -3   11.40    9.50
   1   5  -3   -1.60    1.90
   1   5  -3    0.60    1.40
   1  -5   3    0.90    1.50
   1  -5  -3    1.60    9.50
  -1   5  -3    3.50    1.40
  -1  -5   3    6.80    4.90
  -1  -5   3    1.20    1.50
  -1   5  -3    1.90    1.50
  -1   5  -3    2.50    1.80
  -1  -6  -3    3.70   11.20
   1  -6   3    5.20    6.80
   1  -6   3    6.60    2.00
   1   6  -3    0.70    2.30
  -1  -6   3    4.70    2.10
  -1  -6   3    5.90    6.40
   1  -6  -3   -3.50   11.60
  -1   6  -3    2.50    1.90
  -1   6  -3    7.50    1.90
   1   7  -3    2.80    1.80
   1   7  -3   -2.00    2.40
   1  -7   3    1.70    8.10
   1  -7   3    1.90    2.30
  -1  -7  -3    9.00   14.30
  -1  -7   3    1.80    7.60
  -1  -7   3    1.60    2.40
  -1   7  -3    1.70    2.00
  -1   7  -3    7.90    2.00
   1  -7  -3    6.00   15.20
   1  -8   3    1.20   10.50
  -1  -8  -3    2.70   16.50
   1  -8   3    5.60    2.90
   1   8  -3    4.80    2.20
  -1  -8   3    2.90    2.70
  -1  -8   3    4.80    9.80
   1  -8  -3   10.70   17.90
  -1   8  -3    5.60    2.40
  -1  -9  -3    7.40   19.50
   1  -9   3   -2.00   11.30
   1  -9  -3   -2.30   16.40
  -1  -9   3    6.00   12.10
   1 -10   3  -10.90   13.60
  -1 -10  -3   14.90   21.00
   1 -10  -3  -18.80   19.30
  -1 -10   3   -4.40   13.30
   1   0  -4   67.49    4.70
   1   0  -4   63.79    4.70
   1   0   4   67.09    4.70
  -1   0   4   72.89    4.80
  -1   0   4   65.69    4.70
  -1   0  -4   70.69    4.80
   1   0   4   65.89    4.80
   1   0  -4   66.79    3.00
   1   0  -4   61.89    4.70
  -1   0   4   67.99    4.70
  -1   0  -4   68.79    4.70
  -1   0   4   67.39    4.80
  -1   0  -4   64.99    4.70
   1   0   4   68.09    4.70
  -1   1   4    2.70    0.90
   1   1  -4    2.00    0.60
  -1  -1  -4    3.70    1.00
   1  -1   4    2.70    0.90
  -1  -1  -4    3.10    0.80
   1   1  -4    2.50    1.10
  -1  -1  -4    3.30    0.60
  -1   1   4    3.10    1.00
   1  -1   4    2.60    1.00
   1   1  -4    2.40    0.90
   1   1  -4    2.80    0.90
   1  -1   4    2.20    1.00
   1   1  -4    2.10    0.80
   1  -1   4    3.20    0.90
  -1   1   4    2.80    0.90
  -1   1  -4    2.50    1.10
  -1  -1   4    1.70    1.00
  -1  -1   4    2.20    0.60
   1   1   4    2.90    0.80
  -1   1  -4    2.50    0.90
  -1  -1   4    2.30    1.00
   1  -1  -4    3.40    0.90
  -1  -1   4    1.90    0.90
  -1  -1   4    3.30    0.90
   1  -1  -4    3.00    0.60
   1   1   4    3.30    0.90
   1  -2   4   92.69    6.60
   1  -2   4   96.69    6.70
   1   2  -4   97.89    6.70
   1  -2   4  100.39    6.80
   1   2  -4   97.59    6.80
  -1   2   4   94.19    6.40
   1   2  -4   93.39    6.70
  -1  -2  -4   96.59    4.10
   1   2  -4  101.29    5.00
   1   2  -4   94.79    6.60
   1  -2   4   96.99    6.70
   1  -2   4   96.49    5.00
   1   2   4   92.59    4.90
  -1  -2   4   94.49    6.60
  -1  -2   4   95.09    6.70
  -1   2  -4   95.69    6.70
  -1  -2   4   96.09    6.70
  -1  -2   4  100.59    6.90
  -1   2  -4   95.59    6.70
   1   2   4   95.79    6.30
  -1  -2   4   94.99    4.90
   1  -2  -4  102.19    4.30
  -1   2  -4   96.59    6.70
   1  -3   4    1.50    1.40
   1   3  -4    0.10    1.30
  -1   3   4    1.60    0.70
   1   3  -4    1.30    1.30
   1  -3   4    0.40    0.90
  -1  -3  -4    1.00    0.60
   1  -3   4    1.30    1.20
   1  -3   4    1.20    1.20
   1   3  -4    2.30    1.10
   1  -3   4    1.20    1.20
   1   3  -4    0.70    0.80
  -1   3  -4    1.20    1.00
   1   3   4    1.50    0.90
  -1  -3   4    0.80    1.30
  -1   3  -4    0.70    1.10
   1  -3  -4    1.70    0.90
  -1  -3   4    1.50    1.00
  -1   3  -4   -0.10    1.30
  -1  -3   4    0.40    1.40
  -1  -3   4    1.30    0.90
  -1  -3   4    0.70    1.20
   1  -4   4    7.10    1.90
  -1   4   4    7.30    1.10
   1  -4   4    5.00    1.80
  -1   4   4    6.40    1.10
  -1  -4  -4    7.50    1.40
   1   4  -4    5.40    1.80
   1   4  -4    6.10    1.80
  -1  -4  -4   -2.60    8.90
   1   4  -4    7.20    1.50
   1  -4   4    5.80    1.40
  -1  -4   4    6.50    2.00
   1  -4  -4    5.40    1.80
  -1   4  -4    5.60    1.80
  -1  -4   4    6.60    1.40
   1  -4  -4    0.20    9.40
  -1  -4   4    7.90    1.80
  -1   4  -4    6.90    1.60
  -1  -4   4    9.20    4.10
   1   4   4    8.60    1.40
  -1   4  -4    4.10    1.60
   1   4   4    6.60    1.30
  -1   5   4    3.10    1.20
  -1   5   4    2.20    1.10
   1  -5   4    1.40    1.50
   1  -5   4    0.30    5.20
   1  -5   4    2.30    2.00
  -1  -5  -4   -2.30    9.50
   1  -5   4    7.20    2.10
   1   5  -4    3.00    2.00
   1   5  -4    2.90    1.40
   1   5  -4   -0.90    1.70
   1   5   4    2.40    1.50
   1  -5  -4    5.90   11.30
  -1   5  -4    1.50    1.90
  -1   5  -4    0.40    1.60
  -1   5  -4    3.40    1.60
  -1  -5   4    0.90    4.40
  -1  -5   4   -0.70    2.40
  -1  -5   4    3.20    1.60
   1   6  -4   55.99    3.00
  -1  -6  -4   45.10   16.50
   1   6  -4   52.89    5.30
   1  -6   4   54.59   11.20
   1   6  -4   56.99    4.70
   1  -6   4   52.79    4.50
  -1   6  -4   54.99    4.90
  -1   6  -4   49.50    4.90
  -1  -6   4   49.80    4.40
  -1  -6   4   53.09   10.30
   1  -6  -4   45.60   17.30
   1   7  -4   -1.50    2.40
  -1  -7  -4    7.50   15.70
   1  -7   4    2.70    2.40
   1   7  -4    2.90    1.90
   1  -7   4    3.00    8.70
  -1   7  -4    0.20    2.00
  -1  -7   4   -1.60    7.30
   1  -7  -4   -0.50   15.90
  -1   7  -4    3.00    2.10
  -1  -7   4    1.60    2.20
   1  -8   4    7.60   10.80
   1   8  -4    5.20    2.40
  -1  -8  -4    8.20   18.40
   1  -8   4    2.70    2.80
  -1   8  -4    6.10    2.60
  -1  -8   4    4.00    2.80
   1  -8  -4    9.50   19.20
  -1  -8   4    4.20    9.70
  -1  -9  -4   -7.50   18.90
   1  -9   4  -10.80   10.10
   1  -9  -4   -5.90   18.70
  -1  -9   4   -2.00   10.50
   1 -10   4    3.50   14.10
  -1 -10  -4   48.70   24.50
   1 -10  -4   25.40   25.10
  -1 -10   4   26.80   15.90
  -1   0   5  371.86   23.10
   1   0  -5  348.87   22.80
   1   0   5  371.86   22.90
   1   0  -5  372.26   22.90
   1   0  -5  360.96   14.50
   1   0  -5  361.36   23.00
   1   0   5  361.66   23.00
  -1   0   5  348.77   22.80
  -1   0  -5  359.06   22.80
  -1   0   5  356.86   22.90
   1   0   5  341.37   22.80
  -1   0   5  368.46   23.10
  -1   0  -5  373.26   23.00
  -1   0  -5  373.46   22.90
   1  -1   5   90.19    6.50
   1   1  -5   93.69    4.20
   1  -1   5   93.89    6.60
   1   1  -5   94.69    6.50
   1   1  -5   98.59    6.60
   1   1  -5   96.19    6.50
   1  -1   5   93.29    6.70
  -1  -1  -5   87.39    6.30
  -1   1   5   91.09    6.40
  -1   1   5   95.69    6.50
  -1  -1  -5   87.09    6.40
  -1  -1  -5   98.09    4.10
  -1  -1  -5   97.29    6.30
   1  -1   5  100.49    6.60
  -1   1   5   91.39    6.40
   1   1   5   93.29    6.30
  -1  -1   5   95.69    6.60
  -1  -1   5   89.69    6.50
   1   1   5   89.79    6.40
   1   1   5   90.59    6.30
   1  -1  -5   93.49    4.20
  -1  -1   5   91.09    6.50
  -1   1  -5   95.49    6.50
  -1   1  -5   89.29    6.50
  -1  -1   5   99.79    6.60
  -1  -1   5   89.99    4.70
   1  -1  -5   92.19    6.40
  -1   1  -5   88.09    6.50
   1  -2   5  335.17   15.90
   1  -2   5  346.87   22.00
   1   2  -5  330.97   21.80
  -1   2   5  327.87   21.50
   1  -2   5  336.17   21.80
   1  -2   5  334.77   21.70
   1   2  -5  344.97   21.90
   1   2  -5  340.07   13.80
  -1  -2  -5  344.47   13.70
   1   2  -5  341.07   22.00
   1  -2   5  321.57   21.90
   1   2  -5  328.07   21.70
  -1  -2   5  340.37   21.90
  -1   2  -5  338.57   21.70
  -1   2  -5  358.06   21.90
  -1  -2   5  340.57   15.80
  -1  -2   5  343.47   21.80
  -1   2  -5  334.17   21.80
   1  -2  -5  358.86   13.80
  -1  -2   5  369.56   22.10
   1   2   5  347.07   21.50
   1   2   5  341.77   16.00
  -1  -2   5  346.17   21.80
   1   2   5  347.97   21.50
   1   3  -5   68.09    5.50
   1   3  -5   69.59    5.30
   1   3  -5   66.69    5.50
  -1   3   5   68.09    4.00
   1  -3   5   72.29    5.60
   1  -3   5   71.99    5.50
  -1  -3  -5   77.29    3.40
   1  -3   5   65.99    5.40
   1   3  -5   77.59    4.30
   1  -3   5   69.39    4.20
   1  -3  -5   74.59    3.60
  -1  -3   5   67.39    5.40
  -1  -3   5   66.69    5.20
  -1   3  -5   73.29    5.50
  -1  -3   5   72.39    5.80
  -1   3  -5   67.59    5.40
  -1  -3   5   66.69    4.10
   1   3   5   68.79    4.90
  -1   3  -5   64.19    5.30
   1   3   5   70.39    3.90
  -1   4   5  216.08   10.40
   1  -4   5  213.28   14.30
   1  -4   5  205.08   10.60
  -1   4   5  212.48   10.30
   1   4  -5  214.68   14.20
  -1  -4  -5  228.08    9.20
   1   4  -5  213.58   14.30
   1   4  -5  215.88   14.50
   1  -4   5  202.88   14.20
  -1  -4   5  216.88   14.40
  -1  -4   5  208.38   10.60
  -1  -4   5  220.18   14.30
  -1   4  -5  214.28   14.40
  -1   4  -5  206.28   14.20
   1   4   5  207.18   10.70
  -1   4  -5  217.68   14.30
   1   4   5  215.88   10.40
   1  -4  -5  225.48    9.60
   1  -5   5   60.29    5.40
   1  -5   5   61.19    5.50
  -1  -5  -5   43.00    4.20
   1   5  -5   56.99    3.20
   1   5  -5   67.49    5.00
   1  -5   5   54.39    4.20
  -1   5   5   58.39    3.60
   1   5  -5   54.69    5.40
   1   5  -5   55.99    5.40
   1  -5   5   44.20    9.10
   1  -5  -5   41.80    4.80
  -1  -5   5   60.89    5.20
  -1   5  -5   55.49    5.30
  -1  -5   5   76.59   11.20
  -1  -5   5   66.89    6.10
  -1   5  -5   53.69    5.30
  -1  -5   5   57.99    4.30
   1   5   5   60.89    4.00
  -1   5  -5   55.99    4.90
   1   6  -5  128.09    5.80
   1   6  -5  144.79    9.20
   1  -6   5  133.49    9.90
  -1   6   5  132.29    6.80
   1   6  -5  123.49    9.60
   1  -6   5  101.79   15.70
   1  -6   5  120.19    7.50
  -1   6  -5  118.69    9.30
  -1  -6   5  119.59    7.40
  -1  -6   5  107.99   15.40
  -1   6  -5  130.99    9.30
  -1  -6   5  119.09   10.40
   1  -7   5   22.80   10.20
   1  -7   5   34.20    4.20
   1   7  -5   36.30    2.80
   1   7  -5   39.80    4.20
  -1  -7  -5   41.20   21.80
  -1   7  -5   35.80    4.40
  -1  -7   5   34.30    4.20
   1  -7  -5   37.20   21.00
  -1  -7   5   34.10   10.20
  -1   7  -5   24.90    4.10
  -1  -8  -5   44.40   23.10
   1  -8   5   61.19    5.70
   1   8  -5   55.69    6.40
   1  -8   5   48.00   14.10
   1  -8  -5   46.60   23.80
  -1  -8   5   59.89    5.80
  -1  -8   5   54.79   13.90
   1  -9   5   10.20   12.10
   1  -9  -5   26.90   23.50
  -1  -9   5   22.60   12.90
   1 -10   5    4.10   13.90
  -1 -10   5    4.50   13.70
  -1   0  -6    6.50    1.50
   1   0   6    4.00    1.40
  -1   0  -6    5.10    1.20
   1   0   6    4.70    1.40
   1   0  -6    0.90    1.50
  -1   0   6    2.00    1.40
  -1   0  -6    4.60    1.30
   1   0  -6    3.30    1.30
  -1   0   6    3.30    1.40
  -1   0   6    3.80    1.40
  -1   0   6    5.30    1.30
   1   0  -6    3.90    0.90
   1   0   6    4.90    1.30
   1   0  -6    4.50    1.30
   1  -1   6   65.99    5.30
   1   1  -6   62.69    5.10
   1  -1   6   67.09    5.20
  -1  -1  -6   70.29    4.90
   1   1  -6   65.99    5.30
   1   1  -6   67.89    3.30
  -1  -1  -6   65.89    5.00
   1  -1   6   66.89    5.10
   1   1  -6   66.49    5.00
  -1  -1  -6   67.29    3.30
  -1   1   6   63.29    5.00
   1  -1   6   67.99    5.30
  -1  -1  -6   67.59    5.10
  -1   1   6   69.29    5.00
  -1   1  -6   66.89    5.30
   1  -1  -6   64.99    5.10
  -1  -1   6   64.99    5.10
  -1  -1   6   70.59    5.20
   1  -1  -6   64.79    5.50
   1   1   6   63.89    4.90
  -1   1  -6   72.19    5.20
  -1   1  -6   69.09    5.10
  -1  -1   6   64.79    5.20
   1  -1  -6   65.79    3.30
  -1  -1   6   70.49    3.70
  -1  -1   6   68.19    5.30
   1   1   6   63.69    5.00
   1  -2   6   20.80    3.00
   1  -2   6   15.80    2.40
   1  -2   6   12.70    1.70
  -1  -2  -6   11.50    1.30
   1   2  -6   12.10    2.10
   1  -2   6   15.00    2.40
  -1   2   6    8.90    2.20
  -1   2   6    9.80    2.10
   1  -2   6   19.40    3.00
   1   2  -6   17.50    1.80
  -1  -2   6   14.20    2.30
  -1   2  -6    8.30    2.60
  -1  -2   6   12.60    2.10
   1  -2  -6   19.90    1.80
  -1  -2   6   15.10    2.40
   1  -2  -6   20.70    2.40
   1   2   6   18.60    2.40
   1   2   6   14.80    1.70
   1   2   6   17.90    2.00
  -1  -2   6   12.30    2.40
  -1  -2   6   18.00    2.00
  -1   2  -6   21.20    3.00
   1   3  -6   49.40    4.90
   1   3  -6   51.69    2.90
   1  -3   6   55.09    4.60
   1   3  -6   54.69    5.10
   1  -3   6   49.50    3.50
   1   3  -6   52.69    4.50
   1  -3   6   52.49    4.90
   1  -3   6   55.09    4.90
  -1  -3  -6   55.69    2.90
   1  -3   6   55.29    4.80
  -1   3   6   52.89    4.20
   1   3   6   52.89    3.40
  -1  -3   6   51.59    3.50
  -1   3  -6   49.20    4.80
  -1  -3   6   56.29    5.00
   1  -3  -6   54.79    3.10
  -1  -3   6   55.69    4.90
   1   3   6   53.09    4.20
  -1  -3   6   49.70    4.40
  -1  -3   6   50.09    4.80
  -1   3  -6   64.29    4.60
   1  -4   6    4.00    2.00
   1   4  -6    2.00    1.60
   1   4  -6    4.40    1.10
   1  -4   6    2.60    2.20
   1  -4   6    5.90    2.00
   1  -4   6    0.90    1.40
   1   4  -6   -0.60    2.20
  -1   4   6   -1.80    1.30
  -1  -4  -6    1.20    1.10
   1  -4   6    5.60    1.90
  -1   4   6    2.50    1.10
  -1   4  -6    3.90    1.70
  -1   4  -6   -0.20    2.00
   1   4   6    4.40    1.50
  -1  -4   6    2.70    2.10
  -1  -4   6    4.00    2.10
   1  -4  -6    3.70    1.40
  -1  -4   6    0.90    1.70
  -1   4  -6    2.40    2.20
  -1  -4   6    3.40    2.10
  -1  -4   6    3.50    1.50
   1   4   6    0.70    1.50
   1   5  -6   35.50    4.50
   1   5  -6   36.10    4.70
   1  -5   6   36.30    4.50
   1   5  -6   36.80    4.00
  -1  -5  -6   31.60    3.50
   1  -5   6   37.90    3.60
   1  -5   6   48.70    5.00
  -1   5   6   42.50    3.10
   1   5  -6   37.50    2.60
  -1   5  -6   38.80    4.10
   1   5   6   43.20    3.30
  -1  -5   6   38.30    4.50
  -1   5  -6   34.40    4.60
  -1   5  -6   36.20    4.70
   1  -5  -6   34.00    3.60
  -1  -5   6   32.30    3.40
  -1  -5   6   45.10    5.20
  -1  -5   6   33.60    7.80
   1  -6   6   11.90    7.70
   1  -6   6    6.20    2.30
   1   6  -6   11.20    2.50
   1   6  -6    8.20    1.60
  -1   6  -6    4.80    2.90
   1   6   6    2.10    2.40
  -1  -6   6    6.50    2.30
  -1  -6   6   10.40    7.20
  -1  -6   6   15.30    3.90
   1  -7   6   17.20    3.10
   1  -7   6    9.50    9.30
   1   7  -6   18.80    2.00
  -1  -7   6   22.20    9.20
  -1   7  -6   11.20    3.50
  -1  -7   6   18.20    3.10
   1  -8   6    1.40    2.70
   1  -8   6   13.50   11.10
   1   8  -6   -5.20    2.90
  -1   8  -6   -2.00    3.00
  -1  -8   6    4.40    9.90
  -1  -8   6    1.40    2.80
   1  -9   6    3.80   11.60
  -1  -9   6    7.40   11.60
   1 -10   6   -2.70   12.60
  -1 -10   6   10.10   13.60
  -1   0   7   34.10    3.60
  -1   0  -7   38.40    3.30
   1   0  -7   36.10    3.40
  -1   0   7   33.70    3.70
   1   0  -7   35.40    2.30
   1   0   7   37.70    3.40
   1   0  -7   37.00    3.60
   1   0  -7   34.40    3.80
  -1   0   7   38.60    3.50
   1   0   7   43.30    3.80
   1  -1   7   87.39    6.60
  -1  -1  -7   84.69    6.30
  -1   1   7   90.09    6.40
  -1  -1  -7   87.49    4.20
   1   1  -7   88.19    6.50
   1  -1   7   87.19    6.60
   1   1  -7   86.19    6.70
   1   1  -7   88.29    4.20
   1  -1   7   86.09    6.50
  -1  -1  -7   85.79    6.30
  -1   1   7   90.69    6.40
   1  -1   7   89.09    6.80
   1   1  -7   92.89    6.50
  -1  -1  -7   87.99    6.50
   1   1   7   88.69    6.40
  -1   1  -7   86.99    6.70
  -1  -1   7   82.89    6.50
  -1   1  -7   85.59    6.40
   1   1   7   83.49    6.30
  -1  -1   7   90.29    6.70
  -1  -1   7   91.49    4.70
  -1   1  -7   85.09    6.60
   1  -1  -7   86.99    6.50
  -1  -1   7   87.89    6.70
   1  -1  -7   87.49    4.20
  -1  -1   7   84.69    6.50
   1  -1  -7   84.59    6.70
   1   2  -7   57.19    3.20
   1  -2   7   58.59    5.00
  -1   2   7   58.19    4.80
   1  -2   7   56.19    4.80
   1   2  -7   57.79    4.80
   1  -2   7   58.19    3.80
   1  -2   7   64.59    5.30
   1   2  -7   55.29    5.20
  -1  -2  -7   66.09    5.00
  -1   2   7   58.39    4.70
   1  -2   7   61.39    5.20
  -1  -2  -7   55.29    4.70
  -1  -2  -7   58.39    3.10
   1   2  -7   60.89    5.10
   1  -2  -7   58.29    3.20
  -1  -2   7   56.39    5.20
  -1  -2   7   65.59    5.30
  -1   2  -7   61.49    5.10
   1   2   7   56.09    3.70
   1   2   7   55.99    4.70
  -1   2  -7   54.89    5.20
   1  -2  -7   64.69    4.70
   1   2   7   57.79    4.50
  -1  -2   7   55.59    4.90
  -1   2  -7   64.29    4.90
  -1  -2   7   58.69    3.60
  -1  -2   7   57.79    5.10
   1  -2  -7   53.89    5.00
   1   3  -7   52.89    3.00
   1  -3   7   49.60    3.60
  -1   3   7   49.60    4.40
   1  -3   7   49.70    4.60
  -1   3   7   47.80    4.40
   1   3  -7   48.30    5.00
   1   3  -7   53.39    5.20
  -1  -3  -7   52.29    2.90
   1   3  -7   53.99    4.60
   1  -3   7   49.50    5.00
   1  -3   7   54.59    5.10
   1  -3   7   55.79    4.90
  -1  -3   7   52.09    4.90
   1   3   7   50.29    3.50
  -1   3  -7   50.69    5.00
  -1  -3   7   58.29    5.20
  -1  -3   7   48.10    4.50
   1   3   7   50.59    4.30
  -1  -3   7   49.90    4.90
  -1  -3   7   48.90    3.50
   1   3   7   48.80    4.00
  -1   3  -7   52.39    4.60
   1  -3  -7   52.19    3.10
   1  -4   7   18.90    3.10
   1   4  -7   23.10    3.20
  -1  -4  -7   20.60    2.20
   1  -4   7   18.40    2.30
   1   4  -7   17.90    3.20
   1  -4   7   19.30    3.20
  -1   4   7   20.20    2.40
   1   4  -7   16.30    1.80
   1   4  -7   21.40    3.20
   1  -4   7   26.80    3.60
  -1   4  -7   18.30    3.20
   1  -4  -7   22.10    2.50
  -1  -4   7   25.80    3.80
  -1  -4   7   17.30    2.20
   1   4   7   19.60    2.90
   1   4   7   22.40    2.60
  -1  -4   7   16.30    2.70
  -1  -4   7   18.20    3.20
  -1   4  -7   24.20    3.20
   1   5  -7   67.19    3.90
   1  -5   7   67.39    6.50
   1   5  -7   61.29    6.70
   1  -5   7   63.39    4.90
   1  -5   7   75.49    6.70
   1   5  -7   70.19    6.00
  -1   5   7   68.49    4.40
  -1  -5  -7   74.59    4.50
   1   5   7   73.89    4.70
  -1  -5   7   60.39    4.80
  -1  -5   7   67.59    6.40
  -1  -5   7   79.19    6.90
   1  -5  -7   70.39    5.00
  -1   5  -7   86.49    6.30
   1   6  -7   17.70    2.10
   1   6  -7   17.80    3.70
   1  -6   7   27.90    4.70
   1  -6   7   14.80    2.80
   1  -6   7   14.30    8.40
  -1   6  -7   18.00    3.40
  -1  -6   7   16.50    7.90
  -1  -6   7   15.60    2.70
  -1  -6   7   20.30    3.70
   1   6   7   26.90    3.20
   1  -7   7   20.90    3.30
   1   7  -7   21.10    2.20
   1  -7   7   25.40   10.40
   1   7  -7   21.10    4.20
  -1   7  -7   20.60    3.80
  -1  -7   7   18.40    3.20
   1  -8   7    4.00    9.80
  -1  -8   7    3.00    9.60
   1  -9   7   19.70   13.00
  -1  -9   7   27.20   13.40
   1 -10   7    1.10   12.90
  -1 -10   7    0.70   12.30
  -1   0  -8    4.60    1.10
  -1   0   8    4.40    1.70
  -1   0  -8    4.50    1.90
   1   0   8    3.70    1.60
   1   0  -8    6.40    1.70
  -1   0   8    3.00    1.90
  -1   0   8    3.50    1.50
   1   0   8    3.70    1.90
   1   0  -8    5.20    1.50
  -1   0  -8    7.10    1.50
  -1   0  -8    5.10    1.60
   1   0  -8    2.90    2.10
   1   0  -8    3.90    1.10
  -1  -1  -8  366.06   23.90
   1  -1   8  366.26   24.10
  -1   1   8  388.56   23.90
   1   1  -8  365.06   24.10
   1  -1   8  377.76   24.10
  -1  -1  -8  378.16   15.30
   1  -1   8  371.86   24.30
   1  -1   8  374.96   24.00
  -1  -1  -8  372.56   23.80
  -1   1   8  376.96   24.10
   1   1  -8  377.86   15.30
   1   1  -8  377.66   24.10
   1   1  -8  378.96   24.00
  -1  -1  -8  358.56   23.90
  -1  -1   8  364.66   24.20
  -1  -1   8  426.66   24.30
  -1   1  -8  359.16   24.10
  -1  -1   8  354.76   24.00
   1  -1  -8  347.57   23.80
  -1   1  -8  372.26   15.30
   1  -1  -8  367.76   24.20
  -1   1  -8  362.06   23.90
  -1  -1   8  380.86   17.30
   1   1   8  369.86   24.00
   1  -1  -8  385.36   23.90
   1   1   8  380.46   23.90
  -1  -1   8  367.76   24.00
   1  -1  -8  364.76   15.30
   1  -2   8   48.70    3.50
   1  -2   8   52.29    5.00
  -1   2   8   50.69    4.40
   1  -2   8   48.50    4.70
   1  -2   8   56.29    5.10
   1   2  -8   50.39    5.10
   1   2  -8   51.69    4.50
  -1  -2  -8   48.20    4.50
  -1   2   8   50.69    4.60
   1   2  -8   53.79    4.90
  -1  -2  -8   56.19    4.80
   1  -2   8   48.80    4.60
   1   2  -8   50.59    3.10
  -1  -2  -8   49.40    3.00
  -1  -2   8   60.09    5.20
  -1  -2   8   52.19    4.80
  -1   2  -8   53.39    5.00
  -1  -2   8   48.00    4.70
   1   2   8   51.29    4.60
   1   2   8   47.80    4.20
   1  -2  -8   49.70    3.10
  -1   2  -8   52.19    5.20
  -1  -2   8   48.60    5.00
  -1  -2   8   46.30    3.40
  -1   2  -8   49.90    4.50
   1   2   8   49.20    3.60
   1  -2  -8   49.20    4.90
   1  -2  -8   58.09    4.60
   1   3  -8  324.17   13.30
   1  -3   8  304.77   21.00
   1  -3   8  319.47   15.40
  -1   3   8  322.17   20.50
  -1   3   8  316.47   20.70
   1  -3   8  321.87   21.00
   1   3  -8  312.37   21.00
  -1  -3  -8  327.67   13.20
   1  -3   8  330.17   21.20
   1  -3   8  321.67   21.00
  -1  -3   8  307.17   20.90
  -1   3  -8  305.67   20.90
  -1  -3   8  323.77   21.00
   1   3   8  324.97   15.40
  -1  -3   8  306.97   20.90
  -1  -3   8  329.07   21.30
   1   3   8  309.57   20.50
   1   3   8  326.17   20.50
  -1  -3   8  306.37   15.20
   1  -3  -8  329.07   13.40
  -1   4   8    7.40    1.80
   1  -4   8    9.80    2.50
   1  -4   8    6.00    2.40
  -1  -4  -8    9.10    1.50
   1  -4   8    6.10    2.90
   1   4  -8    9.30    2.30
   1   4  -8    5.40    1.40
   1   4  -8    4.00    2.90
   1  -4   8    9.90    2.50
  -1   4   8    8.20    1.90
  -1   4   8    8.70    1.70
   1   4  -8    7.30    2.50
   1  -4   8    7.80    1.90
  -1  -4   8   13.40    2.60
   1  -4  -8   11.20    1.70
  -1  -4   8    6.70    1.70
   1   4   8    4.60    1.50
   1   4   8    8.20    1.80
  -1  -4   8    3.00    2.20
  -1  -4   8   12.00    2.70
  -1  -4   8    4.90    2.80
  -1   4  -8    7.60    2.20
  -1   4  -8    5.80    2.80
   1   4   8    7.50    2.10
   1   5  -8  180.78    8.10
   1   5  -8  182.38   13.40
   1  -5   8  173.88    9.70
  -1   5   8  188.98    9.40
  -1  -5  -8  181.58    8.50
   1  -5   8  167.08   12.90
  -1  -5   8  179.48   13.00
  -1  -5   8  177.28    9.60
   1  -5  -8  187.58    8.90
   1   5   8  184.18    9.50
   1   6  -8   36.20    6.10
   1   6  -8   36.00    3.20
   1  -6   8   31.30    4.00
   1  -6   8   36.00    5.50
  -1  -6   8   32.80    5.20
  -1  -6   8   31.40    9.60
  -1  -6   8   31.50    3.90
   1  -7   8  103.79   18.00
   1  -7   8  121.29   10.40
   1   7  -8  124.09    6.20
   1  -7   8  118.29    8.00
  -1  -7   8  122.89   10.20
  -1   7  -8  129.79    6.40
  -1  -7   8  120.89   17.90
  -1  -7   8  119.89    7.90
   1  -8   8    6.70   10.30
  -1  -8   8    8.50   10.10
   1  -9   8   24.50   14.00
  -1  -9   8   48.60   15.70
  -1   0   9   75.69    6.80
  -1   0  -9   79.09    6.70
  -1   0   9   82.19    6.70
   1   0  -9   78.69    6.50
   1   0  -9   87.89    6.50
   1   0  -9   87.79    4.30
  -1   0   9   79.99    6.50
  -1   0  -9   80.19    4.30
   1   0   9   80.19    6.40
   1   0   9   78.89    6.60
  -1   0  -9   83.89    6.30
  -1   0  -9   80.69    6.60
  -1  -1  -9   15.70    2.70
   1   1  -9    8.90    2.00
   1  -1   9    7.30    2.20
  -1  -1  -9   11.70    2.40
   1  -1   9    9.10    2.20
  -1   1   9    9.50    2.30
   1   1  -9    8.30    1.50
  -1  -1  -9    8.50    1.50
  -1   1   9    6.30    2.20
   1   1  -9    6.90    2.70
  -1  -1  -9   10.50    2.00
   1  -1   9   11.50    2.60
   1   1  -9   10.70    2.10
  -1  -1   9    9.00    2.50
   1  -1  -9   10.00    2.10
  -1  -1   9    6.80    2.10
  -1  -1   9    8.00    2.10
   1   1   9    8.40    2.10
  -1   1  -9   10.60    2.00
   1  -1  -9    9.70    2.40
   1  -1  -9    7.20    1.40
   1  -1  -9   12.50    2.40
   1   1   9    9.40    2.30
  -1   1  -9    5.90    1.40
  -1  -1   9    7.40    1.40
   1  -2   9   92.39    7.30
  -1  -2  -9   88.69    7.00
  -1   2   9   96.69    7.20
  -1   2   9   96.29    7.10
   1   2  -9  100.89    7.40
  -1  -2  -9  101.79    7.40
   1  -2   9   94.89    7.60
   1  -2   9   90.19    5.50
   1  -2   9   94.79    7.40
   1   2  -9   91.69    7.70
  -1  -2  -9   89.69    4.70
   1   2  -9   90.19    7.20
   1   2  -9   88.39    4.70
   1  -2   9   96.79    7.60
   1  -2  -9   91.29    7.40
   1   2   9   90.39    5.50
  -1   2  -9   94.09    4.80
   1   2   9   89.59    7.20
   1  -2  -9   90.69    4.80
   1   2   9   92.69    7.00
  -1  -2   9  107.69    7.70
  -1  -2   9   89.89    7.30
   1  -2  -9   95.49    7.10
  -1  -2   9   89.79    5.30
  -1   2  -9   86.59    7.70
  -1   2  -9   95.79    7.30
  -1  -2   9   84.79    7.50
  -1  -2   9   99.29    7.60
   1  -3   9    5.80    2.30
   1  -3   9    7.30    2.80
   1   3  -9    5.10    1.50
   1  -3   9   11.70    2.60
   1   3  -9    1.30    2.90
   1  -3   9    9.20    2.20
  -1   3   9    4.90    2.20
   1  -3   9    5.90    1.70
  -1  -3  -9    6.40    1.40
   1   3  -9    5.00    2.00
  -1   3   9    5.40    2.00
  -1  -3   9    5.90    2.70
   1   3   9    3.90    1.90
   1  -3  -9    4.90    1.50
   1   3   9    8.90    2.20
  -1  -3   9   11.40    2.40
  -1  -3   9    3.00    2.20
  -1  -3   9    5.50    1.60
  -1   3  -9    0.10    2.90
   1   3   9    4.60    1.70
  -1   3  -9    6.60    2.10
  -1   4   9   52.29    4.80
   1  -4   9   66.09    6.00
  -1   4   9   57.49    4.20
   1   4  -9   48.40    6.20
   1  -4   9   46.70    5.60
   1   4  -9   58.49    3.70
  -1  -4  -9   59.09    3.70
   1  -4   9   54.49    4.30
   1  -4   9   52.19    5.90
   1   4   9   60.39    4.20
  -1   4  -9   51.79    6.30
  -1  -4   9   47.70    5.90
  -1  -4   9   52.39    4.20
   1  -4  -9   58.69    3.80
  -1  -4   9   46.00    5.40
  -1  -4   9   69.69    6.10
   1   4   9   52.39    4.60
  -1   5   9    9.60    2.10
   1  -5   9    8.60    3.50
   1  -5   9    4.90    2.20
   1   5  -9    2.70    1.60
  -1  -5  -9    5.30    1.90
   1  -5  -9    9.10    2.20
  -1  -5   9    6.80    2.20
   1   5   9   11.40    2.30
  -1  -5   9    9.80    3.50
   1   6  -9   42.20    3.50
   1  -6   9   35.50    6.00
   1  -6   9   40.00    4.30
  -1  -6   9   39.90    6.00
  -1  -6   9   40.30    4.40
  -1   6  -9   44.90    3.50
   1  -7   9    5.50    4.10
   1   7  -9    2.20    1.90
   1  -7   9   10.90   10.00
   1  -7   9    0.70    2.60
  -1  -7   9    1.70    2.60
  -1  -7   9    3.50    3.80
  -1  -7   9    4.30    9.30
  -1   7  -9    1.90    2.00
   1  -8   9    9.70   11.00
  -1  -8   9   21.00   11.70
   1  -9   9   -0.10   11.20
  -1  -9   9   10.40   12.20
  -1   0  10   65.89    6.10
  -1   0 -10   64.89    3.80
   1   0  10   60.89    5.60
  -1   0 -10   66.89    5.80
  -1   0 -10   65.19    5.50
  -1   0 -10   60.09    5.90
   1   0 -10   63.39    3.80
  -1   0  10   59.29    5.90
   1   0 -10   68.49    5.80
   1   0  10   58.99    5.90
   1   0 -10   68.49    5.60
  -1   0  10   60.49    5.70
   1  -1  10   68.29    6.70
  -1  -1 -10   73.99    6.50
  -1   1  10   77.99    6.60
   1  -1  10   75.29    6.40
   1   1 -10   71.59    6.90
   1   1 -10   79.19    6.50
   1   1 -10   75.99    4.30
   1   1 -10   78.99    6.30
  -1  -1 -10   76.69    4.30
  -1   1  10   72.19    6.30
  -1  -1 -10   75.09    6.30
   1  -1  10   71.99    6.90
  -1  -1  10   73.89    6.80
  -1   1 -10   87.49    6.70
  -1  -1  10   70.79    6.40
   1  -1 -10   78.69    6.50
  -1  -1  10   78.59    6.50
   1   1  10   71.29    6.20
   1   1  10   77.69    6.50
   1  -1 -10   77.39    6.60
  -1   1 -10   78.99    6.30
   1  -1 -10   77.49    4.30
  -1  -1  10   72.89    4.50
  -1   1 -10   78.39    4.30
  -1   1 -10   77.39    6.80
  -1  -2 -10    5.30    2.40
   1  -2  10    5.90    1.60
   1  -2  10    0.80    2.20
   1  -2  10    4.70    2.10
  -1   2  10    4.10    2.40
   1   2 -10    0.30    2.80
   1   2 -10    4.20    1.90
  -1  -2 -10    4.40    1.40
   1  -2  10    0.00    2.70
  -1  -2 -10    5.30    1.90
   1   2 -10    3.90    1.50
  -1   2  10    6.10    2.10
  -1  -2  10    5.00    2.10
  -1  -2  10    0.20    2.70
  -1   2 -10    3.70    1.50
   1  -2 -10    8.00    2.40
   1  -2 -10    4.60    1.50
   1  -2 -10    8.80    2.30
  -1   2 -10    3.60    1.90
   1   2  10    2.30    2.30
  -1  -2  10    7.90    1.60
  -1  -2  10    0.00    2.20
   1   2  10    3.20    2.00
  -1  -3 -10   71.99    4.00
   1  -3  10   66.49    4.70
   1   3 -10   58.09    6.70
   1   3 -10   62.09    4.00
   1  -3  10   62.69    6.60
   1  -3  10   77.89    6.50
   1   3 -10   66.79    5.90
  -1   3  10   64.09    5.50
   1  -3  10   57.79    6.10
  -1  -3  10   77.89    6.50
  -1  -3  10   64.39    6.60
  -1  -3  10   56.39    6.00
   1   3  10   62.39    5.50
   1  -3 -10   64.99    4.10
  -1   3 -10   66.89    6.00
  -1   3 -10   63.09    4.00
  -1   3 -10   59.59    6.80
  -1  -3  10   64.09    4.50
   1  -4  10   52.89    4.30
  -1  -4 -10   55.29    3.70
   1  -4  10   41.40    5.60
   1   4 -10   43.80    6.20
   1  -4  10   46.20    6.00
  -1   4  10   50.29    4.80
   1   4 -10   55.09    3.70
  -1   4 -10   53.39    6.50
  -1  -4  10   38.20    5.50
   1   4  10   50.69    4.50
   1  -4 -10   52.89    3.80
  -1  -4  10   52.59    4.20
  -1   4 -10   49.70    3.70
  -1  -4  10   44.50    6.00
   1   5 -10   31.50    3.10
  -1  -5 -10   30.40    3.30
  -1   5  10   27.50    3.70
   1  -5  10   29.10    4.90
   1  -5  10   26.90    3.30
  -1  -5  10   31.30    3.80
  -1   5 -10   28.50    3.20
  -1  -5  10   26.50    4.80
   1  -5 -10   31.50    3.20
   1   5  10   28.20    3.40
   1  -6  10    6.60    2.60
   1  -6  10    1.60    3.90
   1   6 -10    4.80    1.90
  -1   6 -10    5.30    2.00
  -1  -6  10   -0.70    3.80
  -1  -6  10    4.00    2.50
   1   7 -10   14.10    2.40
   1  -7  10   18.50   10.70
   1  -7  10   20.30    5.50
  -1  -7  10   18.40   10.80
  -1  -7  10   12.40    4.70
   1  -8  10   13.10   11.80
  -1  -8  10   14.60   11.40
   1  -9  10    1.20   12.10
  -1  -9  10    4.90   11.70
   1   0  11  321.37   22.00
  -1   0 -11  334.57   21.50
  -1   0  11  329.17   22.00
  -1   0 -11  334.37   13.90
  -1   0  11  313.47   21.70
   1   0 -11  331.47   21.70
   1   0  11  336.77   21.70
  -1   0 -11  307.37   21.60
   1   0  11  336.97   21.70
  -1   0  11  317.37   21.70
   1   0 -11  316.57   13.80
  -1  -1 -11   56.69    3.70
  -1  -1 -11   55.19    5.70
  -1   1  11   45.30    5.80
  -1   1  11   52.59    5.40
  -1   1  11   48.60    5.70
   1  -1  11   57.89    6.40
   1  -1  11   50.59    5.40
   1   1 -11   60.99    5.30
   1   1 -11   53.09    3.70
   1  -1  11   54.69    6.00
  -1   1 -11   52.49    5.90
   1  -1 -11   53.89    5.60
  -1  -1  11   45.90    5.90
   1   1  11   50.59    5.70
  -1   1 -11   52.39    3.70
  -1  -1  11   51.29    5.50
  -1  -1  11   60.39    5.50
   1   1  11   57.39    5.40
  -1   1 -11   55.69    5.20
   1  -1 -11   61.29    3.80
  -1  -1  11   53.69    3.90
  -1  -2 -11  275.87   18.10
   1   2 -11  272.27   18.70
   1  -2  11  260.37   18.60
   1   2 -11  266.47   11.80
   1   2 -11  266.77   18.40
   1  -2  11  264.77   13.50
   1  -2  11  276.47   18.70
  -1  -2 -11  277.77   18.40
  -1   2  11  267.17   18.30
  -1  -2 -11  267.27   11.80
   1   2  11  259.97   18.20
   1  -2 -11  263.17   18.30
  -1  -2  11  267.57   13.30
  -1   2 -11  277.87   18.50
  -1   2 -11  271.77   11.80
  -1  -2  11  271.37   18.70
   1  -2 -11  275.87   11.90
  -1  -2  11  294.57   18.90
   1  -2 -11  278.47   18.20
   1   3 -11   42.60    3.60
  -1   3  11   42.50    4.80
  -1  -3 -11   49.10    3.50
   1  -3  11   46.60    4.10
   1  -3  11   42.50    6.00
   1   3 -11   41.10    6.20
   1  -3  11   55.59    5.80
  -1  -3  11   60.99    5.70
   1  -3 -11   46.40    3.70
  -1  -3  11   48.20    4.00
   1   3  11   43.00    4.80
  -1   3 -11   49.40    3.70
  -1  -3  11   42.80    6.00
   1  -4  11  211.38   15.40
  -1  -4 -11  214.38    9.70
  -1   4  11  210.98   14.50
   1  -4  11  204.88   11.20
   1   4 -11  207.08   15.40
   1   4 -11  208.18    9.60
   1   4  11  216.58   14.50
   1  -4 -11  222.78    9.90
  -1  -4  11  205.38   15.40
  -1  -4  11  206.88   11.00
  -1   4 -11  212.38    9.70
  -1  -5 -11   33.70    3.70
   1   5 -11   34.70    3.50
   1  -5  11   31.20    3.70
   1  -5  11   32.80    5.50
  -1  -5  11   33.50    5.50
   1  -5 -11   36.30    3.50
  -1  -5  11   33.40    4.10
  -1   5 -11   36.80    3.70
   1  -6  11  119.69    8.10
   1   6 -11  123.29    6.60
   1  -6  11  122.79   11.10
  -1   6 -11  125.09    6.70
  -1  -6  11  129.19    8.10
  -1  -6  11  122.29   11.10
   1  -7  11   14.90   10.90
   1  -7  11   16.00    5.40
   1   7 -11   24.20    2.90
  -1   7 -11   17.20    2.80
  -1  -7  11   12.90    5.10
  -1  -7  11   21.20   11.40
   1  -8  11   64.89   16.80
  -1  -8  11   68.49   16.40
   1   0 -12   16.20    2.20
  -1   0  12   17.90    3.70
  -1   0 -12   28.50    4.60
  -1   0 -12   14.20    2.20
   1   0 -12   28.60    4.80
   1   0  12   19.50    3.70
   1   1 -12   96.39    7.50
  -1  -1 -12   87.89    5.00
  -1  -1 -12   95.19    8.00
   1  -1  12   87.79    8.10
  -1   1  12   82.59    7.60
   1   1 -12   88.19    5.10
   1   1  12   85.59    7.50
  -1   1 -12   86.19    8.10
  -1   1 -12   86.49    5.10
  -1   1 -12   95.79    7.50
   1  -1 -12   86.69    7.70
  -1  -1  12   88.79    5.40
   1  -1 -12   89.79    5.10
  -1  -1  12   85.19    8.10
  -1   2  12    0.90    2.50
   1   2 -12    7.70    3.70
   1   2 -12    5.10    1.80
   1  -2  12    1.90    1.70
   1  -2  12    2.50    3.40
  -1  -2 -12    9.10    3.10
  -1  -2 -12    3.10    1.70
   1  -2 -12    4.20    1.70
  -1  -2  12    3.70    1.60
   1   2  12    2.40    2.40
   1  -2 -12    9.10    2.90
  -1   2 -12    3.10    3.30
  -1  -2  12    3.10    3.40
  -1   2 -12    3.20    1.90
   1  -3  12   69.89    7.80
  -1  -3 -12   81.99    7.10
   1   3 -12   70.89    4.70
   1  -3  12   74.29    5.40
  -1   3  12   78.79    6.90
  -1  -3 -12   77.19    4.70
   1   3 -12   74.99    8.00
  -1   3 -12   73.39    4.80
   1  -3 -12   75.39    4.90
  -1  -3  12   77.09    5.30
   1   3  12   71.89    6.70
  -1  -3  12   70.39    7.80
   1  -4  12    8.80    2.50
  -1  -4 -12   10.80    2.30
  -1   4  12    7.60    3.10
   1   4 -12   10.20    2.20
   1  -4  12   16.90    4.40
   1  -4 -12   10.80    2.30
  -1  -4  12   17.00    4.40
   1   4  12   10.20    2.80
  -1   4 -12   11.10    2.30
  -1  -4  12   10.00    2.40
   1   5 -12   51.99    4.20
   1  -5  12   50.19    5.10
  -1  -5 -12   54.29    4.50
   1  -5  12   49.40    7.30
   1  -5 -12   54.79    4.70
  -1  -5  12   52.69    5.00
  -1   5 -12   59.59    4.50
  -1  -5  12   51.79    7.40
   1  -6  12    0.40    4.60
   1   6 -12   -1.10    2.10
  -1  -6  12    2.90    4.70
  -1   6 -12    2.20    2.20
   1   7 -12   31.70    3.40
   1  -7  12   16.70    6.00
  -1  -7  12   37.30   13.20
   1  -8  12   10.50   12.50
  -1  -8  12    7.30   11.60
   1   0 -13  103.49    5.80
  -1   0 -13  102.29    5.80
  -1   0  13  105.29    6.10
   1   0 -13  103.49    9.10
  -1   0 -13   98.79    8.90
   1  -1  13   48.00    6.40
  -1  -1 -13   45.50    5.90
   1   1 -13   42.10    3.70
   1  -1  13   44.30    3.90
  -1  -1 -13   42.40    3.70
  -1   1 -13   41.60    6.00
  -1   1 -13   40.90    3.80
  -1  -1  13   44.60    3.70
   1  -1 -13   41.70    5.80
  -1  -1  13   42.50    6.30
   1  -1 -13   49.20    3.70
  -1  -2 -13   63.39    4.30
   1   2 -13   59.49    4.40
   1  -2  13   51.29    7.00
  -1  -2 -13   64.69    6.80
   1  -2  13   63.39    4.80
  -1   2 -13   57.79    4.30
  -1   2 -13   51.49    7.00
   1  -2 -13   62.59    4.40
   1  -2 -13   68.89    6.70
  -1  -2  13   57.99    4.50
  -1  -2  13   51.69    7.10
   1   3 -13   45.70    4.00
  -1   3  13   45.30    5.70
   1  -3  13   47.90    6.90
   1  -3  13   42.00    4.40
  -1  -3 -13   53.59    4.10
  -1  -3  13   47.50    4.30
  -1  -3  13   46.40    6.80
  -1   3 -13   45.70    6.80
   1  -3 -13   53.59    4.30
   1   3  13   45.10    5.50
  -1   3 -13   48.90    4.00
  -1   4  13   56.49    6.30
  -1  -4 -13   62.39    4.70
   1  -4  13   58.19    7.60
   1   4 -13   56.49    4.40
   1  -4  13   60.59    5.30
   1   4  13   57.89    6.20
   1  -4 -13   60.39    4.80
  -1  -4  13   54.89    7.60
  -1  -4  13   59.09    5.00
  -1   4 -13   61.69    4.70
  -1  -5 -13   20.20    3.00
   1  -5  13   13.80    5.30
   1   5 -13   15.60    2.70
   1  -5  13   21.90    3.50
  -1  -5  13   18.40    3.20
  -1  -5  13   16.00    5.50
   1  -5 -13   21.10    3.20
  -1   5 -13   20.70    3.00
   1   6 -13   19.70    3.00
   1  -6  13   17.20    5.80
  -1   6 -13   21.10    3.20
  -1  -6  13   12.20    5.80
   1   7 -13   15.40    3.00
  -1   7 -13   18.70    3.20
  -1  -7  13   19.20   12.60
  -1   0 -14   24.90    4.80
  -1   0  14   28.00    3.10
  -1   0 -14   28.00    3.00
   1   0 -14   24.20    2.90
   1   0 -14   21.20    4.60
   1   1 -14  192.38   14.90
  -1  -1 -14  203.08   14.70
   1  -1  14  204.08   10.50
   1   1 -14  193.58    9.40
  -1  -1 -14  189.18    9.40
  -1   1 -14  193.98   14.80
  -1   1 -14  194.08    9.50
   1  -1 -14  201.08   14.60
   1  -1 -14  188.98    9.40
  -1  -1  14  195.98   10.30
   1   2 -14   10.10    2.40
  -1  -2 -14   12.50    4.10
   1  -2  14   12.70    2.50
   1  -2  14    9.50    4.60
  -1  -2 -14    9.60    2.30
   1  -2 -14   10.90    3.90
  -1  -2  14   12.30    2.30
  -1  -2  14    3.30    4.40
  -1   2 -14    9.40    2.40
   1  -2 -14   13.80    2.50
  -1   2 -14    6.80    4.40
  -1  -3 -14  162.28    8.20
   1   3 -14  148.99    8.00
   1  -3  14  163.18    9.30
   1  -3  14  156.98   13.00
  -1   3 -14  153.48   13.00
  -1  -3  14  158.38    9.00
  -1  -3  14  155.08   13.00
   1  -3 -14  163.18    8.30
  -1   3 -14  155.28    8.20
   1  -4  14   12.30    5.30
   1   4 -14   17.40    2.80
  -1  -4 -14   20.60    2.90
   1  -4  14   21.90    3.30
  -1   4 -14   19.70    2.90
  -1  -4  14   12.70    5.50
   1  -4 -14   19.30    3.00
  -1  -4  14   20.40    3.10
   1   5 -14  107.49    6.60
   1  -5  14  103.69   10.90
  -1   5 -14  117.19    6.70
   1  -5 -14  112.59    7.10
  -1  -5  14  107.19   11.10
   1  -6  14    0.80    5.60
   1   6 -14    6.70    2.70
  -1  -6  14   -1.20    5.60
  -1   6 -14    5.10    2.70
   1   7 -14   61.49    5.30
  -1   7 -14   60.99    5.40
   1   0 -15   58.69    7.70
  -1   0 -15   58.59    7.70
   1   0 -15   67.69    4.80
  -1   0 -15   66.69    4.80
  -1  -1 -15    3.00    4.10
   1   1 -15    4.40    2.20
  -1  -1 -15    6.70    2.20
   1   1 -15    2.30    4.20
   1  -1  15    7.00    2.10
   1  -1 -15    2.40    2.20
  -1   1 -15    2.90    2.20
   1  -1 -15    2.30    3.90
  -1  -1  15    4.70    1.90
  -1   1 -15    0.40    4.00
   1   2 -15   54.09    4.60
  -1  -2 -15   55.79    7.50
   1  -2  15   58.59    4.90
  -1  -2 -15   52.89    4.50
   1   2 -15   42.60    7.70
  -1   2 -15   52.19    4.70
   1  -2 -15   47.10    7.00
  -1  -2  15   57.69    4.70
   1  -2 -15   60.39    4.80
  -1   2 -15   43.60    7.40
   1  -3  15    4.50    2.30
   1  -3  15   -0.40    4.70
  -1  -3 -15    2.00    2.30
   1   3 -15    5.50    2.50
  -1  -3  15    5.40    2.40
   1  -3 -15    3.30    2.40
  -1  -3  15   -1.90    4.80
  -1   3 -15   -1.30    4.50
  -1   3 -15    2.00    2.40
   1   4 -15   44.10    4.50
   1  -4  15   47.30    7.40
  -1  -4 -15   49.10    4.70
  -1  -4  15   54.69    5.10
  -1   4 -15   43.00    4.60
  -1  -4  15   39.90    7.40
   1  -4 -15   45.50    4.80
   1   5 -15   -2.30    2.50
   1  -5  15   -6.50    5.30
  -1   5 -15   -0.10    2.60
  -1  -5  15   -8.50    5.30
   1   6 -15   20.40    3.40
  -1   6 -15   17.00    3.40
  -1   0 -16    5.80    4.70
  -1   0 -16   10.60    2.60
   1   0 -16   12.70    2.70
   1   0 -16    6.30    4.70
  -1  -1 -16   49.40    4.60
   1  -1  16   49.90    4.70
  -1  -1 -16   39.20    6.50
   1   1 -16   35.40    6.50
   1   1 -16   48.90    4.50
   1  -1 -16   49.10    4.60
   1  -1 -16   46.00    7.40
  -1   1 -16   43.50    7.50
  -1   1 -16   42.90    4.50
  -1  -2 -16   25.60    5.70
  -1  -2 -16   29.00    3.40
   1  -2  16   29.80    3.60
   1   2 -16   17.90    5.80
   1   2 -16   24.40    3.30
   1  -2 -16   23.80    5.50
   1  -2 -16   28.50    3.50
  -1   2 -16   20.40    5.60
  -1   2 -16   19.30    3.20
  -1  -3 -16   39.80    4.00
   1   3 -16   32.80    3.80
   1  -3 -16   35.10    4.00
  -1   3 -16   32.60    3.80
  -1  -4 -16    6.80    2.90
   1  -4  16    0.50    5.70
   1   4 -16    7.30    2.90
   1  -4 -16    6.10    2.90
  -1   4 -16    6.60    3.00
  -1  -4  16   -7.10    5.60
   1  -5  16   13.90    6.80
   1   5 -16   20.60    3.50
  -1   5 -16   18.40    3.50
  -1  -5  16   13.40    7.00
   1   6 -16   11.20    3.40
  -1   6 -16   10.20    3.40
   1   0 -17   99.99    6.60
  -1   0 -17  109.59    6.70
  -1   0 -17   98.19   10.70
   1   0 -17   87.19   10.40
  -1  -1 -17   19.30    5.80
  -1  -1 -17   23.40    3.30
   1   1 -17   13.50    5.70
   1   1 -17   22.10    3.40
   1  -1 -17   24.30    3.50
  -1   1 -17   21.00    3.40
  -1   1 -17   15.50    5.80
   1  -1 -17   17.90    5.70
   1   2 -17  101.59    6.60
  -1  -2 -17  109.29    6.80
   1   2 -17   83.79   10.50
  -1   2 -17   94.29   10.60
   1  -2 -17   99.59    6.80
  -1  -3 -17   15.30    3.40
   1   3 -17   16.80    3.30
   1  -3 -17   17.10    3.50
  -1   3 -17   14.50    3.40
   1   4 -17   73.49    5.90
  -1  -4 -17   65.09    6.00
   1  -4 -17   73.59    6.30
   1   5 -17    6.90    3.30
  -1   5 -17   11.30    3.50
   1   0 -18   -1.90    2.90
  -1   0 -18   -1.00    2.70
  -1  -1 -18   33.20    4.10
   1   1 -18   33.00    4.10
   1  -1 -18   32.00    4.20
  -1   1 -18   29.40    4.00
   1   2 -18    2.50    2.90
  -1  -2 -18    4.10    3.00
   1   2 -18   -7.40    5.30
   1  -2 -18    0.70    3.00
  -1   2 -18    3.60    3.10
  -1   2 -18   -3.30    5.40
   1   3 -18   28.00    3.90
  -1  -3 -18   31.60    4.30
  -1   3 -18   20.70    3.80
   1  -3 -18   32.20    4.40
  -1   0 -19   25.20    4.00
   1   0 -19   16.10    4.00
   1   1 -19   17.70    4.00
  -1  -1 -19   21.40    3.90
  -1   1 -19   17.50    3.90
   1  -1 -19   15.70    3.80
  -2   0   0   -0.10    0.70
  -2   0   0   -0.30    0.20
   2   0   0    0.00    0.70
  -2   0   0   -0.10    0.50
   2   0   0   -0.10    0.60
   2   0   0   -0.20    0.40
  -2   0   0   -0.10    0.50
  -2  -1   0  442.56   31.20
   2  -1   0  451.25   30.80
  -2  -1   0  454.55   18.70
   2   1   0  489.75   29.80
   2   1   0  506.25   29.60
   2   1   0  485.95   29.70
   2  -1   0  500.45   21.40
  -2  -2   0   47.90    6.50
   2  -2   0   52.49    2.80
  -2  -2   0   51.19    3.00
   2   2   0   50.29    3.40
   2  -2   0   48.10    6.40
  -2   2   0   51.09    2.70
   2   2   0   53.49    2.90
   2  -3   0  225.48   20.30
  -2  -3   0  248.08   20.10
  -2  -3   0  268.37   12.60
   2  -3   0  272.67   12.40
   2   3   0  274.67   12.50
  -2   3   0  282.67   12.30
   2   4   0   29.50    2.50
   2  -4   0   26.30    2.50
  -2   4   0   28.90    2.40
  -2  -4   0   27.10    6.70
   2  -4   0   22.60    6.60
  -2  -4   0   25.00    2.20
  -2  -4   0   25.90    2.80
  -2  -5   0  212.58   10.60
  -2  -5   0  196.18   19.60
   2  -5   0  215.38   10.50
   2  -5   0  177.78   20.00
   2  -6   0   30.90    3.50
  -2  -6   0   18.70    2.90
   2  -6   0   11.60    8.80
  -2  -6   0   20.80    8.70
   2  -7   0   50.79   15.10
  -2  -7   0   65.89   13.90
   2  -7   0   77.49    6.00
  -2  -7   0   82.89    6.30
  -2  -8   0    2.00   11.40
   2  -8   0    5.80    3.20
   2  -8   0    3.80   13.00
  -2  -9   0   45.00   17.80
   2  -9   0   61.39    7.10
  -2 -10   0   -8.60   16.20
   2 -10   0  -14.50   17.30
   2   1  -1  301.97   20.50
  -2   1   1  294.67   14.20
   2   1  -1  292.87   12.50
   2   1  -1  323.87   19.90
  -2   1   1  339.27   19.70
  -2  -1  -1  350.06   14.70
  -2  -1  -1  334.77   19.70
   2   1  -1  298.37   20.00
  -2  -1  -1  285.97   20.00
  -2   1   1  266.67   20.70
   2  -1   1  308.47   14.50
   2   1  -1  322.17   14.40
   2   1  -1  318.47   19.70
   2  -1   1  258.67   19.90
  -2   1  -1  307.07   19.70
  -2  -1   1  268.27   19.80
   2  -1  -1  301.77   13.00
   2  -1  -1  339.97   14.20
  -2   1  -1  349.37   20.00
  -2  -1   1  334.47   21.00
  -2  -1   1  321.17   14.30
   2   1   1  337.77   19.80
  -2   1  -1  332.87   20.40
   2  -1  -1  301.77   19.80
  -2  -1   1  258.77   19.70
  -2   1  -1  326.47   14.40
   2   2  -1   54.09    3.50
   2  -2   1   52.49    2.90
   2  -2   1   54.99    3.60
  -2  -2  -1   47.50    7.80
   2   2  -1   55.29    2.30
  -2   2   1   42.20    3.00
  -2  -2  -1   53.19    3.00
   2  -2   1   51.19    4.40
   2   2  -1   50.39    3.60
   2   2  -1   55.79    4.20
  -2   2   1   50.69    2.70
   2   2  -1   48.10    2.90
  -2  -2   1   54.59    5.90
  -2  -2   1   52.89    3.60
  -2   2  -1   50.59    3.70
  -2   2  -1   49.50    2.80
  -2   2  -1   55.59    4.00
  -2  -2   1   44.80    4.60
   2  -2  -1   48.70    7.90
  -2  -2   1   47.90    2.90
   2   2   1   51.29    3.10
   2  -2  -1   52.59    2.80
   2  -3   1  258.77   12.00
   2   3  -1  252.57   16.40
   2   3  -1  249.68   12.10
  -2  -3  -1  256.57   11.90
  -2  -3  -1  226.68   20.70
  -2   3   1  254.37   11.80
   2  -3   1  232.08   19.30
   2   3  -1  272.47   10.10
  -2  -3   1  243.78   12.10
  -2   3  -1  259.47   16.10
   2   3   1  250.47   12.10
  -2   3  -1  267.57   12.00
  -2  -3   1  255.47   19.30
   2  -3  -1  259.87   12.00
   2  -4   1   33.20    7.20
   2  -4   1   37.40    3.10
  -2  -4  -1   41.70    2.50
   2   4  -1   43.80    3.20
   2   4  -1   42.70    2.00
   2   4  -1   39.20    3.80
  -2  -4  -1   38.00    8.40
  -2   4   1   48.30    2.90
  -2  -4   1   41.60    7.20
  -2   4  -1   44.00    3.50
  -2  -4   1   44.90    3.20
  -2   4  -1   38.00    2.90
   2  -4  -1   46.00    3.20
   2   4   1   45.40    3.10
   2  -4  -1   36.60    8.90
   2  -5   1  167.48    8.70
  -2  -5  -1  158.68   18.60
   2   5  -1  167.68   11.00
   2  -5   1  143.69   17.20
   2  -5  -1  183.48    8.90
  -2   5  -1  177.58   10.90
  -2  -5   1  159.28   16.30
   2  -5  -1  128.59   19.00
  -2  -5   1  161.38    8.80
   2  -6   1   15.60    2.70
  -2  -6  -1   19.30    9.40
   2  -6   1   13.00    8.00
  -2  -6   1   20.50    2.80
   2  -6  -1   18.40   10.20
  -2  -6   1   19.40    7.90
   2  -6  -1   30.90    3.70
  -2  -7  -1   90.89   17.90
   2  -7   1  117.79    7.20
   2  -7   1   79.49   16.30
   2  -7  -1   64.39   17.20
  -2  -7   1  109.89    7.30
  -2  -7   1  126.89   17.60
   2  -7  -1  110.49    7.40
  -2  -8  -1   14.60   13.80
   2  -8   1   11.40   12.80
   2  -8   1    4.40    3.20
   2  -8  -1   10.80    3.40
  -2  -8   1   11.50   11.40
   2  -8  -1    6.90   15.40
  -2  -8   1   13.70    3.40
  -2  -9  -1   64.19   20.30
   2  -9   1   64.69    6.70
   2  -9   1   39.70   16.90
   2  -9  -1   26.10   18.30
  -2  -9   1   63.59   17.90
   2 -10   1   -4.10   17.20
  -2 -10  -1   -6.70   16.30
  -2 -10   1   11.80   16.40
   2 -10  -1   -0.20   18.40
  -2   0   2  351.46   15.60
  -2   0   2  334.87   22.00
  -2   0  -2  340.07   21.80
  -2   0   2  346.07   21.80
  -2   0  -2  343.87   16.00
  -2   0  -2  356.96   21.90
   2   0  -2  378.26   22.20
   2   0  -2  338.07   21.80
  -2   0  -2  349.47   21.80
  -2   0   2  329.67   21.80
   2   0  -2  309.37   15.60
   2   0   2  295.47   21.70
  -2   0   2  331.47   13.80
  -2   0   2  382.46   22.20
   2   0  -2  348.17   13.80
   2   0   2  340.17   21.90
   2   0   2  346.17   21.80
   2   0  -2  356.56   22.00
   2   0  -2  341.57   21.80
   2   1  -2  124.79    8.00
   2   1  -2  133.39    5.10
  -2  -1  -2  123.59    7.80
   2  -1   2  121.59    8.20
   2   1  -2  121.19    5.80
   2   1  -2  120.19    8.10
   2   1  -2  119.19    8.00
  -2   1   2  129.39    5.20
   2  -1   2  124.09    8.10
  -2   1   2  117.49    7.80
   2  -1   2  116.99    5.80
  -2  -1  -2  116.29    5.90
  -2   1   2  120.29    8.50
   2  -1   2  115.99    8.00
   2   1  -2  130.19    8.30
  -2   1  -2  127.19    8.20
   2   1   2  124.89    7.80
   2  -1  -2  119.79    7.80
  -2   1  -2  121.59    8.00
   2   1   2  119.89    5.90
  -2  -1   2  120.99    8.00
   2  -1  -2  122.49    5.20
  -2   1  -2  118.59    8.00
   2   1   2  124.19    7.90
  -2  -1   2  118.89    5.80
   2   1   2  112.79    8.40
  -2  -1   2  122.29    8.30
  -2  -1   2  115.09    8.10
  -2  -1   2  116.49    8.00
   2   2  -2  126.19    8.70
   2   2  -2  122.29    8.00
   2   2  -2  119.19    5.10
   2  -2   2  119.59    8.20
  -2   2   2  119.69    5.80
   2  -2   2  118.79    6.10
   2  -2   2  116.09    5.80
   2   2  -2  115.09    8.00
   2  -2   2  121.89    8.10
   2   2  -2  116.69    8.20
  -2  -2  -2  118.49    6.00
  -2  -2  -2  121.89    4.90
   2   2  -2  121.59    6.10
  -2   2  -2  117.49    8.10
  -2  -2   2  119.19    6.00
  -2   2  -2  124.89    8.20
  -2  -2   2  120.29    8.00
   2   2   2  126.39    6.10
  -2  -2   2  125.69    8.10
  -2   2  -2  121.59    8.10
  -2   2  -2  130.99    8.40
   2  -2  -2  124.99    6.00
  -2  -2   2  114.29    9.90
  -2  -2   2  115.29    8.30
   2   3  -2  101.79    6.90
   2  -3   2  109.19    7.40
   2  -3   2   93.89   10.40
  -2  -3  -2  104.39    5.10
  -2  -3  -2  109.69   14.10
   2  -3   2  101.69    4.90
   2  -3   2  109.99    7.00
   2  -3   2  106.69    5.40
   2   3  -2  101.79    8.00
   2   3  -2   97.49    4.30
  -2   3   2  102.29    5.10
   2   3  -2  104.89    5.50
   2   3  -2   97.99    7.10
  -2  -3   2  100.39    9.90
  -2   3  -2  109.79    7.50
  -2   3  -2  104.39    7.00
   2  -3  -2   75.99   12.60
   2   3   2  109.49    5.60
   2  -3  -2  103.69    5.40
  -2  -3   2   98.59    7.70
  -2   3  -2  107.49    5.40
  -2   3  -2  103.49    6.90
  -2  -3   2   98.79    5.40
  -2  -3   2  105.69    6.90
   2   4  -2  206.58   16.10
  -2  -4  -2  227.78   23.00
   2   4  -2  226.98   15.10
   2   4  -2  234.18   14.90
   2   4  -2  238.98    9.40
   2  -4   2  202.78   19.10
   2   4  -2  233.78   11.40
   2  -4   2  231.58   11.40
  -2   4   2  237.18   11.00
  -2  -4  -2  233.18   10.90
  -2  -4   2  229.18   18.80
   2   4   2  234.08   11.40
   2  -4  -2  243.38   11.50
  -2   4  -2  241.68   15.00
  -2  -4   2  236.38   11.40
  -2   4  -2  242.68   11.30
  -2   4  -2  233.98   14.90
   2  -4  -2  188.38   23.30
  -2   4  -2  253.27   15.70
   2   5  -2   36.60    3.10
   2   5  -2   29.10    4.90
   2   5  -2   38.80    2.00
   2   5  -2   35.00    3.80
  -2  -5  -2   33.70   10.50
   2  -5   2   39.50    3.30
  -2   5   2   34.70    3.00
  -2  -5   2   35.80    7.70
  -2  -5   2   34.70    3.30
   2  -5  -2   23.60   10.80
   2  -5  -2   37.20    3.60
  -2   5  -2   38.80    3.70
  -2  -6  -2   21.50   11.00
   2   6  -2    7.80    3.30
   2  -6   2   10.00    2.30
   2   6  -2   13.80    2.40
   2   6  -2   12.00    1.10
   2  -6   2   11.40    7.60
   2  -6  -2   18.00    3.00
   2  -6  -2   -2.50   10.70
  -2  -6   2   12.00    2.40
  -2  -6   2   13.80    7.00
  -2   6  -2   11.40    2.60
   2  -7   2   34.10    4.20
   2   7  -2   22.70    4.50
  -2  -7  -2   32.60   14.00
   2  -7   2   19.90   10.40
  -2  -7   2   35.60   10.30
   2  -7  -2   31.40    4.10
   2  -7  -2   29.60   16.10
  -2  -7   2   28.20    3.60
   2  -8   2  134.09   21.50
  -2  -8  -2  102.69   22.00
   2   8  -2  116.99    8.00
   2  -8   2  101.09    7.80
  -2  -8   2   88.59   17.00
   2  -8  -2   77.89   23.10
  -2  -8   2  111.99    7.90
   2  -9   2    1.00   13.50
  -2  -9  -2   16.10   17.40
  -2  -9   2    8.80   12.80
   2  -9  -2    8.80   18.30
  -2 -10  -2   12.20   18.80
   2 -10   2    8.20   17.30
   2 -10  -2    8.50   20.60
  -2 -10   2    5.80   14.20
  -2   0  -3  418.46   25.90
   2   0  -3  409.66   26.10
   2   0   3  413.96   25.90
  -2   0   3  403.16   25.90
  -2   0  -3  441.56   26.10
  -2   0   3  433.86   26.30
   2   0   3  422.26   26.10
   2   0  -3  388.26   25.90
  -2   0   3  419.36   26.10
  -2   0   3  425.56   18.60
   2   0   3  411.06   26.00
   2   0  -3  417.26   16.50
   2   0  -3  421.26   25.90
  -2   0  -3  399.06   26.00
  -2   0   3  391.96   25.90
   2   0   3  401.26   19.00
   2   0  -3  440.96   26.30
  -2   1   3   37.50    3.10
   2   1  -3   39.10    1.90
   2  -1   3   37.30    3.00
   2  -1   3   38.30    3.00
   2   1  -3   36.70    3.00
   2   1  -3   36.40    3.10
  -2  -1  -3   39.10    2.20
   2   1  -3   39.30    3.10
   2  -1   3   36.70    3.10
  -2   1   3   37.30    2.90
  -2  -1  -3   41.70    3.30
  -2  -1  -3   38.40    2.80
   2   1  -3   40.50    2.20
   2  -1   3   35.90    2.10
  -2  -1   3   37.00    3.10
   2   1   3   37.80    2.80
   2   1   3   36.70    2.20
  -2  -1   3   38.20    3.10
   2  -1  -3   39.80    2.00
   2  -1  -3   32.40    3.40
   2   1   3   41.70    3.10
  -2  -1   3   36.40    2.90
  -2   1  -3   39.70    3.10
  -2  -1   3   39.10    2.10
   2  -1  -3   40.20    2.80
   2   1   3   39.10    2.70
  -2  -1   3   38.20    3.10
   2   2  -3  381.46   18.00
   2   2  -3  396.46   24.80
   2  -2   3  392.86   25.10
   2  -2   3  375.96   18.00
   2  -2   3  395.26   24.70
  -2   2   3  378.16   17.70
   2  -2   3  390.76   18.10
   2   2  -3  403.16   15.60
  -2   2   3  383.06   24.90
   2  -2   3  403.26   24.80
   2   2  -3  405.66   25.20
   2   2  -3  395.26   24.70
  -2  -2  -3  396.16   15.50
   2   2  -3  385.06   24.60
  -2  -2  -3  383.26   18.10
  -2   2  -3  397.56   25.00
  -2  -2   3  391.06   25.30
  -2  -2   3  383.76   17.90
  -2  -2   3  389.86   24.80
  -2  -2   3  410.96   24.70
   2   2   3  382.16   18.10
   2  -2  -3  412.46   15.90
  -2   2  -3  407.46   24.70
  -2   2  -3  377.26   24.60
   2   2   3  398.26   24.40
  -2   3   3   30.80    2.00
   2  -3   3   27.50    2.40
   2  -3   3   31.50    3.10
  -2  -3  -3   36.00    1.70
   2  -3   3   28.90    1.80
  -2  -3  -3   30.90    2.00
   2  -3   3   29.90    2.90
   2   3  -3   29.70    1.70
   2   3  -3   22.40    3.00
   2   3  -3   31.70    2.40
   2   3  -3   25.70    2.60
  -2  -3  -3   29.30    8.90
   2   3  -3   26.90    3.40
   2  -3  -3   25.80    2.80
  -2  -3   3   23.00    3.40
  -2   3  -3   28.20    2.90
   2   3   3   28.40    2.30
  -2   3  -3   35.30    2.90
  -2  -3   3   29.40    2.90
  -2  -3   3   29.40    2.40
  -2   3  -3   28.90    2.70
   2  -3  -3   16.70    8.00
   2   3   3   28.00    2.60
  -2  -3   3   32.80    5.20
   2  -4   3  226.68   10.50
   2  -4   3  247.08   15.10
   2   4  -3  227.68    9.20
  -2   4   3  231.28   10.80
   2   4  -3  239.68   15.60
   2   4  -3  225.88   14.70
   2  -4   3  219.28   14.70
   2  -4   3  218.88   11.10
   2  -4   3  198.18   18.80
   2   4  -3  229.48   14.90
  -2   4   3  229.98   10.60
  -2  -4   3  216.88   15.40
  -2   4  -3  229.68   14.80
  -2   4  -3  220.78   14.80
  -2  -4   3  221.48   18.40
  -2  -4   3  220.58   11.10
  -2   4  -3  242.18   15.10
  -2  -4   3  239.88   14.70
   2   4   3  225.38   11.20
   2  -5   3   14.50    2.10
   2   5  -3   13.80    2.30
   2   5  -3   20.30    1.60
   2   5  -3   12.80    2.70
  -2   5   3   16.70    1.70
   2   5  -3   10.90    3.10
   2  -5   3   14.70    6.40
  -2  -5  -3   20.00   10.50
   2  -5  -3   13.30   10.80
  -2   5  -3   22.50    2.80
  -2   5  -3   18.60    2.40
  -2  -5   3   15.00    2.10
  -2  -5   3   20.20    6.30
  -2   5  -3   16.90    2.50
   2   6  -3  131.59   10.20
   2   6  -3  136.09    9.10
   2   6  -3  148.69    5.80
  -2  -6  -3  133.69   21.60
   2  -6   3  100.79   16.30
   2  -6   3  128.19    7.70
  -2  -6   3  130.29    7.70
  -2   6  -3  141.59    9.60
   2  -6  -3   87.49   20.50
  -2  -6   3  122.39   15.80
  -2   6  -3  132.39    9.30
  -2  -7  -3    4.30   13.10
   2   7  -3    6.60    2.10
   2  -7   3    7.60    9.10
   2  -7   3    8.90    2.60
   2   7  -3    1.40    3.00
  -2   7  -3    9.00    2.20
  -2  -7   3    7.40    2.60
  -2  -7   3    8.50    8.00
   2  -7  -3    7.10   15.40
  -2   7  -3   13.10    2.50
   2  -8   3   42.00   14.20
   2  -8   3   59.89    6.00
   2   8  -3   73.59    5.70
  -2  -8  -3   76.99   21.70
  -2   8  -3   63.09    6.00
  -2  -8   3   62.49    6.00
  -2  -8   3   58.99   14.10
   2  -8  -3   56.89   22.40
   2  -9   3  -12.50   11.70
  -2  -9  -3    3.50   17.90
  -2  -9   3   -0.30   11.70
   2  -9  -3   -1.70   17.70
   2 -10   3   10.80   15.70
  -2 -10  -3   39.00   21.90
  -2 -10   3   24.30   15.80
   2 -10  -3    0.90   21.10
   2   0  -4  177.68   12.20
   2   0   4  187.08   12.20
   2   0   4  183.68   12.20
  -2   0   4  183.48   12.20
   2   0  -4  186.68    7.80
   2   0   4  180.58    8.90
   2   0  -4  184.58   12.20
  -2   0   4  191.88   12.30
  -2   0  -4  194.48   12.20
  -2   0  -4  184.78   12.20
  -2   0  -4  182.58   12.20
  -2   0   4  197.68   12.20
   2   0  -4  192.98   12.40
  -2   0   4  186.48   12.40
  -2  -1  -4   41.30    3.50
   2  -1   4   41.20    3.50
   2   1  -4   40.50    3.30
   2   1  -4   40.00    3.40
  -2   1   4   42.90    3.40
   2  -1   4   42.90    3.40
  -2   1   4   41.70    3.80
  -2   1   4   49.00    3.40
   2  -1   4   43.70    3.50
   2   1  -4   41.50    3.60
   2  -1   4   38.10    2.40
  -2  -1  -4   41.90    3.20
   2   1  -4   40.30    3.60
  -2  -1   4   43.30    3.40
   2   1   4   42.20    2.50
   2   1   4   42.80    3.40
   2   1   4   41.90    3.10
   2  -1  -4   41.90    3.30
  -2  -1   4   40.10    3.50
  -2  -1   4   40.30    3.50
   2  -1  -4   42.20    2.20
   2  -1  -4   41.50    3.60
  -2  -1   4   40.90    3.50
  -2   1  -4   41.80    3.50
  -2  -1   4   41.30    2.40
   2   1   4   42.90    3.20
  -2   2   4  226.48   14.20
   2  -2   4  213.18   14.50
  -2  -2  -4  227.68    9.00
   2   2  -4  210.78    9.00
   2   2  -4  208.68   14.30
   2   2  -4  207.18   14.40
   2  -2   4  222.78   14.50
   2  -2   4  215.28   14.30
   2   2  -4  228.28   10.50
   2  -2   4  217.58   14.40
   2   2  -4  231.28   14.70
   2  -2   4  223.28   10.60
   2   2  -4  220.28   14.40
  -2   2  -4  221.98   14.40
   2   2   4  219.78   10.50
  -2  -2   4  213.58   10.40
  -2  -2   4  218.38   14.40
  -2  -2   4  224.88   14.40
  -2   2  -4  228.08   14.50
  -2  -2   4  224.68   14.40
  -2   2  -4  212.98   14.30
   2   2   4  222.78   14.00
   2  -2  -4  227.68    9.20
  -2  -2   4  234.08   14.80
   2   3  -4   26.50    2.30
   2   3  -4   25.00    2.50
   2   3  -4   22.50    3.00
   2  -3   4   25.10    2.90
   2   3  -4   22.40    3.00
   2  -3   4   24.20    2.90
   2  -3   4   26.40    3.10
  -2   3   4   24.80    1.90
   2  -3   4   22.70    2.70
   2   3  -4   21.80    1.70
   2  -3   4   21.80    2.30
  -2  -3  -4   26.90    1.60
  -2  -3   4   22.90    2.80
  -2  -3   4   22.90    3.10
  -2  -3   4   23.60    2.40
  -2  -3   4   21.30    2.20
   2  -3  -4   27.30    2.40
  -2  -3   4   18.60    3.30
  -2   3  -4   26.30    2.70
  -2   3  -4   21.30    2.90
   2   3   4   23.30    2.10
  -2   3  -4   23.50    2.70
   2  -4   4   21.20    2.50
  -2  -4  -4    7.20    9.60
   2   4  -4   18.00    3.10
  -2   4   4   26.50    2.20
   2   4  -4   17.50    1.60
   2  -4   4   18.70    2.50
   2  -4   4   19.50    1.70
   2   4  -4   20.10    3.10
   2   4  -4   22.30    2.50
  -2   4   4   20.10    1.80
   2  -4   4   21.40    3.30
  -2  -4  -4   24.00    2.00
   2  -4  -4   15.00   10.60
  -2   4  -4   19.30    2.80
  -2  -4   4   19.90    2.50
  -2  -4   4   18.90    2.90
  -2  -4   4   22.10    2.90
   2   4   4   21.90    2.60
   2  -4  -4   19.80    2.70
  -2   4  -4   17.70    2.60
   2   4   4   21.10    2.30
  -2  -4   4   27.30    5.50
  -2   4  -4   15.10    2.80
   2  -5   4   22.40    2.90
   2  -5   4   24.10    3.80
   2   5  -4   23.50    3.70
   2   5  -4   24.50    2.00
   2  -5   4   28.40    7.90
   2   5  -4   28.90    3.00
  -2   5   4   22.40    2.20
  -2  -5  -4   20.00   12.50
   2  -5   4   25.00    1.90
   2  -5   4   36.60    4.20
   2   5  -4   23.10    3.70
  -2   5   4   27.40    2.60
  -2  -5   4   19.40    3.80
   2  -5  -4   27.10   13.00
  -2  -5   4   27.50    6.70
  -2   5  -4   21.60    3.70
  -2  -5   4   31.60    3.30
  -2   5  -4   21.70    3.20
  -2  -5   4   23.70    2.90
  -2   5  -4   27.70    3.30
   2   6  -4  133.59    5.80
   2   6  -4  130.99   10.00
  -2  -6  -4  137.39   23.50
   2  -6   4  105.19   16.30
   2   6  -4  145.39    9.30
   2  -6   4  132.09    7.70
  -2   6  -4  128.69    9.40
   2  -6  -4   82.69   21.50
  -2   6  -4  140.29    9.60
  -2  -6   4  127.49   15.60
  -2  -6   4  124.49    7.70
   2   7  -4    3.80    2.90
   2  -7   4    3.90    8.50
   2   7  -4    8.70    2.20
   2  -7   4    6.30    2.60
  -2  -7  -4    8.10   14.90
  -2  -7   4    6.00    2.50
  -2  -7   4    7.40    7.60
  -2   7  -4    6.30    2.30
   2  -7  -4    5.00   16.90
  -2   7  -4   10.10    2.60
   2  -8   4   10.20    3.20
   2  -8   4    8.20   10.90
  -2  -8  -4   20.00   18.80
   2   8  -4   12.20    2.70
  -2   8  -4   11.30    3.10
  -2  -8   4   16.30   10.40
  -2  -8   4   13.10    3.30
   2  -8  -4    5.80   19.60
   2  -9   4   -5.40   11.00
  -2  -9  -4   29.40   20.90
   2  -9  -4    7.10   19.70
  -2  -9   4   -1.20   10.40
  -2 -10  -4   89.19   29.40
   2 -10   4   12.30   15.70
  -2 -10   4   25.30   15.10
   2 -10  -4   45.80   25.50
   2   0   5  139.79    9.90
   2   0  -5  144.29    9.80
   2   0   5  140.29    9.80
   2   0  -5  149.19    9.90
  -2   0   5  144.49    9.80
  -2   0  -5  150.48    9.80
   2   0   5  143.39    7.20
  -2   0  -5  144.69    9.90
   2   0  -5  149.88   10.00
   2   0   5  150.98    9.80
  -2   0   5  153.88   10.00
   2   0  -5  149.39    6.30
  -2   0   5  149.69    9.90
  -2   0  -5  150.78    9.80
  -2   0   5  152.98    9.90
  -2  -1  -5  259.07   16.40
  -2   1   5  255.07   16.50
   2   1  -5  254.67   16.70
   2  -1   5  245.88   16.60
   2   1  -5  255.47   16.70
  -2  -1  -5  253.77   16.40
  -2  -1  -5  264.67   16.70
  -2   1   5  250.87   16.50
   2  -1   5  257.57   16.60
   2   1  -5  256.37   16.80
   2   1  -5  262.17   10.60
  -2   1   5  271.47   16.90
   2   1  -5  251.67   16.60
   2  -1   5  252.57   16.70
  -2   1  -5  256.37   16.70
   2   1   5  260.57   16.50
  -2   1  -5  248.18   16.60
   2   1   5  263.47   16.50
   2  -1  -5  253.67   16.60
  -2  -1   5  262.97   16.80
  -2  -1   5  255.97   12.00
  -2  -1   5  269.07   16.90
   2   1   5  255.77   12.20
  -2  -1   5  264.67   16.70
   2  -1  -5  265.77   10.60
   2  -1  -5  250.97   16.40
  -2  -1   5  254.17   16.70
  -2  -2  -5   94.39    8.00
   2   2  -5  118.39    5.00
   2  -2   5  117.49    8.00
   2   2  -5  107.49    8.00
  -2  -2  -5  118.09    4.90
   2   2  -5  110.99    7.90
  -2   2   5   93.99    8.40
   2  -2   5  115.99    7.90
   2  -2   5  108.59    5.90
   2   2  -5  108.49    7.80
   2   2  -5  120.89    5.90
   2   2  -5  117.69    8.10
   2  -2   5  115.09    8.00
   2  -2   5  119.09    8.00
  -2   2   5  107.19    7.70
  -2   2  -5  112.19    8.00
   2   2   5  118.19    7.60
  -2  -2   5  113.59    8.00
   2   2   5  118.49    7.50
  -2   2  -5  121.49    8.00
  -2  -2   5  111.89    7.90
  -2  -2   5  111.09    8.00
  -2  -2   5  117.19    8.20
   2  -2  -5  111.69    5.10
   2   2   5  114.49    5.80
  -2   2  -5  115.39    7.90
  -2  -2   5  112.19    5.70
  -2   3   5  224.48   10.70
   2  -3   5  227.68   15.00
   2  -3   5  231.98   15.00
   2   3  -5  241.38   11.10
   2   3  -5  214.08    9.30
  -2   3   5  224.08   14.50
   2   3  -5  226.38   15.20
  -2  -3  -5  223.28    9.30
   2  -3   5  225.98   11.10
   2  -3   5  225.08   15.10
   2   3  -5  233.38   14.90
   2   3  -5  223.38   15.00
  -2   3  -5  231.98   15.00
  -2  -3   5  217.58   14.80
   2   3   5  229.88   14.40
  -2  -3   5  227.18   15.50
   2  -3  -5  235.48    9.70
  -2  -3   5  229.88   14.90
  -2  -3   5  218.88   10.90
  -2   3  -5  217.18   14.90
   2   3   5  224.58   10.90
  -2  -4  -5   87.89    4.00
   2  -4   5   75.19    4.40
   2   4  -5   73.59    6.50
   2   4  -5   83.09    6.20
   2   4  -5   82.49    6.70
  -2   4   5   81.69    4.50
   2   4  -5   83.89    4.00
   2  -4   5   87.29    6.70
   2  -4   5   74.89    4.90
   2  -4   5   98.69    6.70
  -2   4   5   79.99    4.50
   2   4   5   80.79    4.80
  -2  -4   5   84.59    6.40
  -2  -4   5   80.79    5.00
  -2   4  -5   98.09    6.60
   2  -4  -5   79.69    5.00
  -2   4  -5   82.79    6.30
  -2   4  -5   80.39    6.40
  -2  -4   5   78.99    6.90
   2   4   5   79.09    5.20
   2  -5   5  144.79    9.90
   2  -5   5  113.59   15.20
   2   5  -5  125.29   10.10
   2  -5   5  138.29   10.00
  -2   5   5  128.49    6.90
   2  -5   5  128.19    7.60
   2   5  -5  138.99    6.10
   2   5  -5  137.59    9.90
   2  -5   5  138.59    6.80
  -2   5   5  146.29    7.10
   2   5  -5  134.89    9.60
  -2  -5   5  145.49   14.90
   2   5   5  139.19    7.50
  -2   5  -5  138.69    9.80
  -2  -5   5  129.59    7.50
  -2   5  -5  135.79    9.80
  -2  -5   5  139.79    9.70
  -2  -5   5  143.59   10.60
  -2   5  -5  138.99    9.90
   2   6  -5   29.30    4.80
   2  -6   5   42.90    5.20
   2  -6   5   39.60    4.00
   2  -6   5   40.20   10.00
   2   6  -5   44.30    2.80
   2   6  -5   39.20    4.30
  -2  -6   5   45.90    9.60
  -2   6  -5   36.30    4.60
   2  -6  -5   26.10   18.40
  -2  -6   5   39.60    4.00
  -2   6  -5   44.00    4.50
   2  -7   5   89.89   16.50
  -2  -7  -5  110.89   27.70
   2   7  -5   97.69    8.70
   2  -7   5  100.59    7.00
   2  -7  -5  102.99   26.20
  -2  -7   5  102.89    7.00
  -2   7  -5  114.29    8.40
  -2  -7   5  105.09   15.90
  -2   7  -5  101.69    8.40
  -2  -8  -5   24.30   22.70
   2   8  -5   13.60    3.80
   2  -8   5   18.00   12.10
   2  -8   5   14.40    3.40
  -2  -8   5   28.20   11.00
  -2  -8   5   16.90    3.50
   2  -8  -5   13.30   20.60
  -2  -9   5   60.79   15.60
   2  -9  -5   93.69   30.10
   2 -10   5   -8.90   13.00
  -2 -10   5    5.60   12.80
  -2   0   6   10.20    1.80
   2   0  -6   10.40    1.70
  -2   0  -6   10.70    1.80
   2   0   6   12.80    1.90
  -2   0  -6   11.10    1.70
   2   0   6   11.70    1.90
   2   0  -6    7.80    1.90
   2   0  -6   11.60    1.80
   2   0   6   11.60    1.80
  -2   0   6   12.60    1.90
  -2   0   6   10.30    1.90
   2   0  -6   10.20    1.10
   2   0   6   11.50    1.40
  -2   0   6   11.60    1.70
  -2   0  -6   12.00    1.80
  -2   1   6  318.87   19.60
  -2  -1  -6  304.17   19.20
   2   1  -6  294.57   19.50
  -2  -1  -6  305.37   19.40
   2   1  -6  297.17   19.50
   2   1  -6  293.87   19.30
   2   1  -6  311.47   12.30
   2  -1   6  302.17   19.40
   2  -1   6  304.87   19.40
  -2   1   6  306.07   19.30
  -2  -1  -6  291.57   19.20
   2  -1   6  305.07   19.50
  -2  -1   6  298.17   19.40
   2  -1  -6  292.87   19.20
   2  -1  -6  305.97   12.40
   2  -1  -6  303.87   19.40
  -2  -1   6  310.27   19.60
  -2  -1   6  299.57   19.40
  -2  -1   6  304.47   19.60
  -2   1  -6  301.07   19.50
   2   1   6  303.57   19.30
  -2   1  -6  328.87   19.50
   2  -1  -6  256.67   19.90
   2   1   6  304.07   19.30
  -2  -1   6  302.17   13.90
   2   1   6  301.47   14.30
   2   2  -6    7.50    1.80
   2   2  -6    6.50    1.00
  -2   2   6    1.60    2.10
   2   2  -6    4.90    1.70
   2  -2   6    5.20    1.30
  -2  -2  -6    8.00    1.30
  -2  -2  -6   12.10    2.10
   2  -2   6    7.60    1.60
   2  -2   6    8.70    1.80
  -2  -2  -6    7.20    1.00
   2  -2   6    8.30    1.70
   2  -2   6    8.20    1.90
   2   2   6    8.10    1.50
  -2  -2   6    3.40    1.60
  -2  -2   6    6.90    1.10
   2   2   6   10.50    1.60
   2  -2  -6    6.10    1.40
  -2  -2   6    4.50    1.70
   2   2   6    6.30    1.40
  -2  -2   6    6.10    1.90
  -2   2  -6    8.10    1.70
   2  -2  -6    7.80    1.20
  -2   3   6  252.97   16.60
   2  -3   6  261.97   17.00
   2   3  -6  253.37   10.70
   2  -3   6  251.57   17.00
   2   3  -6  244.88   17.20
  -2   3   6  258.17   12.20
   2   3  -6  255.37   17.00
   2   3  -6  267.37   12.60
   2   3  -6  252.77   17.00
   2  -3   6  265.87   17.20
  -2  -3  -6  257.27   10.60
   2  -3   6  274.27   17.20
   2  -3   6  247.78   12.50
   2  -3  -6  268.07   11.00
   2   3   6  265.37   16.50
  -2   3  -6  261.07   17.10
  -2   3  -6  253.57   17.00
  -2  -3   6  265.87   17.50
  -2  -3   6  258.67   17.00
   2   3   6  261.07   12.50
  -2  -3   6  271.47   17.10
  -2  -3   6  251.17   16.90
  -2  -3   6  249.88   12.40
   2   4  -6    4.30    1.90
   2  -4   6    6.30    1.70
   2  -4   6    8.80    2.20
   2   4  -6    7.40    1.20
   2  -4   6   10.00    2.10
  -2  -4  -6    7.20    1.20
   2  -4   6    6.10    2.20
  -2   4   6    8.50    1.30
   2  -4   6    7.60    2.40
  -2   4  -6    8.40    1.90
  -2  -4   6    2.60    2.20
  -2  -4   6    3.60    1.80
  -2   4  -6    3.50    2.30
   2   4   6    7.70    1.70
  -2  -4   6    3.80    2.30
  -2  -4   6    6.00    2.30
   2  -4  -6   10.20    1.70
  -2  -4   6    8.60    1.60
   2  -5   6  126.59    6.50
  -2   5   6  123.79    6.60
  -2   5   6  135.19    6.80
  -2  -5  -6  128.99    6.30
   2   5  -6  122.09    9.40
   2   5  -6  123.49    5.80
   2   5  -6  127.89    9.10
   2  -5   6  124.09    9.50
   2   5  -6  124.39    9.60
   2  -5   6  131.89    9.50
   2  -5   6  120.99    7.20
  -2  -5   6  115.19    7.10
  -2  -5   6  126.39    9.30
  -2   5  -6  123.09    9.40
  -2  -5   6  120.69   14.30
  -2  -5   6  138.19   10.00
   2   5   6  133.39    7.10
  -2   5  -6  128.29    9.30
   2  -5  -6  116.89    7.40
   2   6  -6    2.30    1.20
   2   6  -6   -0.60    2.20
   2  -6   6    8.10    2.70
   2  -6   6   10.10    3.40
   2  -6   6    0.30    2.00
   2  -6   6    3.50    7.20
  -2  -6   6    6.00    2.50
  -2   6  -6    5.50    2.30
  -2  -6   6    5.50    6.50
  -2  -6   6   -3.60    3.60
  -2  -6   6    0.80    1.90
  -2   6  -6   -4.40    2.40
   2  -7   6   75.89   14.90
   2   7  -6  100.79    4.70
   2   7  -6   81.99    8.10
   2  -7   6   84.19    6.40
  -2  -7   6   93.69   15.00
  -2  -7   6   86.19    6.40
  -2   7  -6   84.99    7.90
   2  -8   6    0.30    2.70
   2  -8   6   -0.50    9.30
  -2  -8   6   -0.20    2.80
  -2   8  -6   -3.10    2.90
  -2  -8   6    6.10   10.00
   2  -9   6   18.50   13.90
  -2  -9   6   21.90   12.00
   2 -10   6   -2.00   13.10
  -2 -10   6   -8.20   11.00
   2   0  -7   13.30    2.30
  -2   0   7   10.20    2.00
   2   0  -7   11.50    1.90
  -2   0   7   11.00    2.00
  -2   0   7   12.50    1.90
  -2   0  -7   11.00    2.10
   2   0   7   10.20    2.00
   2   0   7   11.00    1.80
   2   0  -7   12.60    2.20
   2   0   7   10.90    1.60
   2   0  -7   10.40    1.20
  -2   0  -7   11.30    2.00
  -2   0  -7   11.30    1.90
  -2  -1  -7  122.99    8.50
   2   1  -7  119.69    8.50
  -2  -1  -7  119.79    5.40
   2   1  -7  121.09    8.50
  -2   1   7  127.99    8.60
  -2  -1  -7  119.79    8.20
   2   1  -7  114.09    8.60
   2   1  -7  119.79    5.40
   2  -1   7  118.69    8.60
   2  -1   7  124.09    8.50
   2  -1   7  122.99    8.60
  -2  -1  -7  115.99    8.30
  -2   1   7  112.19    8.40
   2  -1  -7  123.89    5.50
  -2  -1   7  119.99    8.50
  -2  -1   7  116.69    8.60
   2   1   7  124.09    8.40
  -2  -1   7  120.99    8.60
  -2   1  -7  124.69    8.60
  -2  -1   7  119.49    8.50
  -2   1  -7  117.89    8.60
   2  -1  -7  117.09    8.40
  -2   1  -7  119.89    8.40
  -2  -1   7  117.49    6.00
   2  -1  -7  116.99    8.40
   2   1   7  124.79    6.30
   2   1   7  115.59    8.30
   2  -1  -7  109.29    8.90
  -2  -2  -7   22.90    3.10
   2  -2   7   14.30    2.60
   2   2  -7   19.40    3.00
   2   2  -7   13.20    2.60
  -2   2   7   14.20    2.10
   2   2  -7   14.20    2.40
  -2  -2  -7   15.70    2.50
   2  -2   7   12.50    1.80
   2  -2   7   13.30    2.50
   2  -2   7   14.50    2.60
  -2   2   7   15.80    2.40
  -2  -2  -7   15.40    1.80
   2  -2   7   19.60    3.10
   2   2  -7   11.90    1.40
   2   2   7   13.60    2.10
  -2  -2   7   14.00    2.40
  -2   2  -7   14.60    2.50
  -2   2  -7   21.40    3.10
   2   2   7   16.30    2.60
  -2  -2   7   12.60    1.50
   2  -2  -7   21.20    2.60
   2  -2  -7   14.00    1.50
  -2  -2   7   17.10    2.80
  -2  -2   7   12.10    2.50
   2   2   7   14.60    1.80
  -2  -2   7   20.60    3.40
   2  -2  -7   14.90    2.50
  -2   3   7   89.59    7.00
  -2   3   7   91.49    6.50
   2   3  -7   83.89    7.00
   2  -3   7   91.39    7.00
   2  -3   7   83.49    7.00
   2  -3   7   93.29    7.00
   2   3  -7   89.99    7.30
   2   3  -7   85.89    6.60
   2  -3   7   81.19    6.80
   2   3  -7   88.89    4.30
   2  -3   7   82.89    5.20
  -2  -3  -7   87.59    4.20
  -2  -3   7   92.09    7.20
   2   3   7   88.49    5.00
  -2  -3   7   82.49    7.00
   2  -3  -7   84.49    4.50
  -2  -3   7   81.69    5.00
  -2   3  -7   87.39    7.10
   2   3   7   87.49    6.40
  -2   3  -7   96.29    6.80
  -2  -3   7   91.39    7.10
  -2  -3   7   82.79    6.60
   2   3   7   84.79    6.10
   2  -4   7    7.70    2.40
  -2  -4  -7   10.70    1.40
   2   4  -7    9.30    2.80
  -2   4   7   12.50    1.90
  -2   4   7   10.00    1.80
   2   4  -7   11.20    2.20
   2  -4   7    9.10    2.80
   2  -4   7   10.30    1.90
   2   4  -7    9.40    2.70
  -2   4   7    9.10    1.40
   2   4  -7    9.10    1.40
  -2  -4   7    9.20    2.70
  -2   4  -7   10.20    2.80
  -2  -4   7    7.90    1.70
   2   4   7   10.90    1.90
  -2  -4   7    6.00    2.00
   2  -4  -7   11.20    1.80
   2   4   7    9.80    1.90
  -2  -4   7   12.20    2.70
   2  -5   7   83.69    5.90
   2  -5   7   88.29    5.30
  -2   5   7   99.29    5.50
   2  -5   7  102.29    8.00
  -2   5   7   88.99    5.40
   2  -5   7   93.89    7.90
   2   5  -7   93.69    7.40
  -2  -5  -7   93.49    5.00
   2   5  -7   90.39    8.20
   2   5  -7   83.99    4.70
   2   5   7   97.29    5.80
   2  -5  -7  102.09    6.20
  -2  -5   7   89.79    5.80
  -2  -5   7  106.19    8.30
  -2   5  -7   95.99    7.50
  -2  -5   7   93.19    7.70
   2  -6   7    5.40    2.40
   2  -6   7   13.60    3.70
   2   6  -7    3.60    2.90
   2   6  -7    8.00    1.70
   2  -6   7   10.30    8.10
  -2  -6   7    6.40    2.30
   2   6   7   12.10    2.40
  -2  -6   7    4.70    7.00
  -2  -6   7   12.80    3.30
   2  -6  -7   10.60    3.40
   2  -7   7   36.90   12.40
   2  -7   7   42.90    4.70
   2   7  -7   46.70    3.40
   2   7  -7   37.90    5.90
  -2  -7   7   43.50    4.70
  -2  -7   7   40.60   11.00
   2  -8   7    1.80    9.80
  -2  -8   7    7.00   10.10
   2  -9   7   20.90   13.70
  -2  -9   7   23.40   12.90
   2 -10   7    3.50   13.60
  -2 -10   7    7.40   12.50
   2   0  -8   23.40    3.10
  -2   0   8   18.50    3.30
   2   0  -8   27.40    3.40
  -2   0  -8   25.80    3.40
   2   0  -8   19.60    3.60
  -2   0   8   24.00    2.80
   2   0   8   17.80    2.40
  -2   0  -8   20.90    2.70
  -2   0  -8   23.80    3.40
  -2   0   8   22.80    3.00
   2   0   8   18.70    3.30
   2   0  -8   21.50    2.10
   2   0   8   18.00    2.90
  -2   1   8  127.59    9.20
  -2  -1  -8  141.19    6.00
   2  -1   8  127.79    9.60
  -2  -1  -8  128.29    9.30
  -2  -1  -8  132.89    8.90
   2   1  -8  125.29    9.40
   2   1  -8  128.39    9.20
  -2  -1  -8  126.59    9.00
   2  -1   8  129.99    9.40
   2  -1   8  132.59    9.40
   2  -1   8  128.09    9.20
   2   1  -8  133.59    6.00
   2   1  -8  128.79    9.20
  -2   1   8  126.99    9.20
   2  -1  -8  108.49    9.50
   2  -1  -8  133.39    6.00
   2   1   8  138.89    6.90
  -2   1  -8  130.19    9.30
   2   1   8  132.99    9.20
  -2   1  -8  125.39    9.30
   2   1   8  126.89    9.00
   2  -1  -8  133.89    9.30
  -2  -1   8  131.59    9.30
  -2  -1   8  118.59    9.20
  -2   1  -8  128.89    9.20
  -2  -1   8  138.69    9.50
  -2  -1   8  131.49    6.60
  -2  -1   8  132.89    9.40
   2  -2   8  108.39    8.00
   2   2  -8  102.49    7.80
  -2   2   8  106.59    7.80
   2  -2   8  112.59    8.20
  -2   2   8  109.19    7.90
   2   2  -8  104.79    5.10
   2   2  -8  109.69    8.00
  -2  -2  -8  116.19    8.10
   2  -2   8  105.79    6.00
   2  -2   8  113.09    8.10
  -2  -2  -8  101.29    7.50
  -2  -2  -8  105.29    5.10
   2   2  -8  100.99    8.10
   2  -2   8  113.59    8.20
   2  -2  -8  104.59    7.60
   2  -2  -8  110.69    5.30
  -2  -2   8  109.49    8.20
   2   2   8   99.99    7.70
  -2  -2   8  106.09    8.20
  -2   2  -8  107.09    8.10
  -2   2  -8  105.59    7.90
  -2  -2   8  101.09    8.00
   2  -2  -8  101.09    8.10
   2   2   8  106.39    7.60
  -2  -2   8  105.19    8.10
  -2  -2   8  103.29    5.70
   2   2   8  109.39    6.00
   2  -3   8   82.79    5.20
   2  -3   8   95.69    7.10
  -2  -3  -8   81.49    4.20
   2  -3   8   79.39    6.80
   2  -3   8   88.69    7.10
  -2   3   8   84.19    6.60
   2   3  -8   77.69    7.10
  -2   3   8   79.69    6.70
   2  -3   8   87.29    7.10
   2   3  -8   81.49    4.30
   2  -3  -8   85.69    4.50
  -2  -3   8   81.19    6.70
   2   3   8   85.99    6.20
  -2  -3   8   90.59    7.20
   2   3   8   88.79    5.10
  -2   3  -8   81.99    7.20
  -2  -3   8   79.39    5.00
  -2  -3   8   90.59    7.20
  -2  -3   8   86.69    7.10
   2   3   8   89.79    6.50
   2  -4   8    6.00    2.60
   2   4  -8    6.00    3.00
   2   4  -8   10.80    2.40
   2  -4   8    8.40    1.90
  -2  -4  -8    9.10    1.40
   2  -4   8    6.30    2.90
  -2   4   8    9.10    1.90
   2  -4   8    9.00    2.40
   2   4  -8    6.00    1.50
   2   4  -8    8.10    2.80
  -2   4   8   10.40    1.60
  -2  -4   8    3.40    2.20
  -2  -4   8    6.80    2.80
   2   4   8    6.70    2.20
  -2   4  -8    8.70    2.40
   2   4   8    4.60    1.50
  -2  -4   8    6.90    1.80
   2  -4  -8    7.10    1.80
  -2  -4   8   10.80    2.70
  -2   4  -8    8.20    2.90
   2   4   8   11.70    2.00
   2   5  -8   64.29    4.00
  -2  -5  -8   67.99    4.20
   2  -5   8   64.09    4.40
  -2   5   8   67.29    4.50
   2   5  -8   68.69    7.20
   2  -5   8   65.69    5.00
   2  -5   8   66.09    6.70
   2  -5  -8   71.09    5.10
  -2  -5   8   67.79    6.60
   2   5   8   71.99    4.90
  -2  -5   8   64.09    4.80
   2   6  -8   79.89    8.20
   2  -6   8   82.79    7.80
   2  -6   8   74.59    5.80
   2   6  -8   80.39    4.50
  -2  -6   8   74.99   13.60
   2  -6  -8   71.09    6.70
  -2  -6   8   81.59    7.50
  -2  -6   8   72.59    5.60
   2  -7   8   19.80    3.40
   2  -7   8   17.80   11.00
   2  -7   8   26.00    5.30
   2   7  -8   18.20    2.30
  -2  -7   8   21.50    4.50
  -2  -7   8   23.70   10.00
  -2  -7   8   18.20    3.30
   2  -8   8    8.00   10.60
  -2  -8   8   15.20   10.30
   2  -9   8   -5.10   11.80
  -2  -9   8   17.70   12.30
  -2   0   9  270.17   17.30
   2   0   9  259.87   12.70
   2   0  -9  249.97   17.10
   2   0   9  259.47   17.10
   2   0  -9  261.67   17.20
  -2   0  -9  251.97   17.00
  -2   0   9  253.47   17.30
   2   0  -9  252.47   10.90
  -2   0  -9  261.77   11.00
  -2   0  -9  264.37   17.00
  -2   0   9  250.87   17.10
   2   0   9  251.57   17.10
   2   0  -9  253.97   17.00
  -2   0  -9  257.77   17.10
  -2  -1  -9    1.50    1.30
   2   1  -9   -4.80    2.20
   2  -1   9   -1.60    2.10
  -2   1   9   -2.70    1.90
   2   1  -9    1.10    1.20
   2  -1   9   -2.30    1.60
   2   1  -9    3.40    1.70
  -2   1   9   -2.30    1.60
  -2   1   9    0.00    1.30
  -2  -1  -9    2.00    2.00
  -2  -1  -9   -0.70    1.10
   2   1  -9    1.80    1.50
  -2  -1  -9    1.70    1.50
   2  -1   9   -1.40    1.50
  -2   1  -9    1.70    1.70
  -2  -1   9   -2.50    2.00
   2  -1  -9    0.60    1.10
   2   1   9   -0.50    1.90
   2  -1  -9    0.80    1.90
  -2  -1   9    0.70    1.00
   2  -1  -9    0.80    1.60
  -2   1  -9    0.70    1.30
  -2  -1   9   -0.80    1.40
   2   1   9   -0.90    1.40
   2   1   9   -0.50    1.50
  -2  -1   9   -1.80    1.70
  -2   1  -9   -2.20    2.00
  -2  -2  -9  177.88    7.90
   2   2  -9  175.88   12.40
   2  -2   9  170.98   12.40
   2  -2   9  174.48    9.30
   2   2  -9  175.58   12.60
   2  -2   9  182.58   12.60
  -2  -2  -9  165.48   12.00
   2   2  -9  175.28    8.00
   2  -2   9  179.08   12.60
  -2  -2  -9  178.58   12.50
  -2   2   9  172.48   12.30
   2  -2   9  184.68   12.70
  -2   2   9  176.18   12.30
   2  -2  -9  180.28   12.50
   2  -2  -9  187.48   12.20
  -2  -2   9  169.08   12.50
   2   2   9  187.28    9.30
   2   2   9  176.18   12.10
  -2  -2   9  172.38    8.90
   2  -2  -9  192.08    8.10
   2   2   9  180.78   12.30
  -2  -2   9  179.98   12.70
  -2  -2   9  192.68   12.70
  -2   2  -9  180.68   12.40
  -2  -2   9  176.18   12.60
  -2  -3  -9   -2.00    1.10
   2   3  -9   -0.60    1.20
   2  -3   9    0.20    1.40
   2  -3   9   -0.90    1.90
  -2   3   9   -3.10    1.90
   2  -3   9    1.90    1.80
   2  -3   9   -0.30    2.50
   2   3  -9   -0.80    1.70
   2   3   9   -1.30    1.60
   2   3   9   -0.30    1.90
  -2   3  -9    1.00    1.80
  -2  -3   9   -2.80    2.00
  -2  -3   9    3.60    1.90
   2   3   9   -0.20    1.50
  -2  -3   9   -0.90    2.50
   2  -3  -9    0.60    1.30
  -2  -3   9   -0.10    1.30
  -2   4   9  167.38    8.60
  -2  -4  -9  173.78    7.40
   2   4  -9  156.98   11.90
  -2   4   9  157.28   11.30
   2  -4   9  168.18   12.00
   2  -4   9  152.48   11.80
   2  -4   9  152.48   11.80
   2  -4   9  153.38    8.40
  -2   4   9  168.48    8.40
   2   4  -9  150.58    7.30
   2  -4   9  156.08    8.70
  -2   4  -9  157.08   11.90
  -2  -4   9  149.99    8.50
   2   4   9  175.18    8.70
   2  -4  -9  159.18    7.70
  -2  -4   9  159.48   11.90
  -2  -4   9  170.98   12.20
  -2  -4   9  150.48   11.50
   2   4   9  154.38   10.80
  -2   5   9    1.00    1.80
   2   5  -9   -0.80    1.40
   2  -5   9   -0.50    3.10
  -2  -5  -9   -1.60    1.50
   2  -5   9   -0.90    1.80
   2  -5   9   -2.10    1.70
   2  -5  -9   -0.80    2.00
   2   5   9   -0.40    1.50
  -2  -5   9    0.00    1.80
  -2  -5   9   -1.10    3.00
   2  -6   9   75.09    6.00
   2   6  -9   82.29    4.70
   2  -6   9   82.39    8.10
  -2  -6   9   76.99    7.90
  -2  -6   9   80.69   14.30
  -2  -6   9   77.99    5.80
   2  -7   9   -2.50    2.40
   2   7  -9   -1.80    1.70
   2  -7   9   -3.00    3.90
   2  -7   9    5.30    9.50
  -2  -7   9   -0.10    3.60
  -2  -7   9   -1.70    8.20
  -2   7  -9   -2.10    1.90
  -2  -7   9   -0.30    2.50
   2  -8   9   23.20   12.80
  -2  -8   9   61.09   14.40
   2  -9   9   -3.80   11.30
  -2  -9   9    6.50   11.70
  -2   0 -10   48.60    4.80
   2   0 -10   45.50    4.50
  -2   0  10   43.30    5.00
  -2   0  10   35.60    4.80
  -2   0  10   40.30    4.60
   2   0  10   41.00    4.40
  -2   0 -10   44.20    4.30
   2   0 -10   38.30    5.20
  -2   0 -10   43.60    3.20
   2   0 -10   40.30    3.10
  -2   0 -10   40.60    4.80
   2   0  10   37.70    4.90
   2   0 -10   51.09    4.90
   2  -1  10    5.30    2.30
  -2  -1 -10   10.50    2.70
  -2  -1 -10   11.00    2.20
   2   1 -10    6.50    1.50
   2   1 -10   10.00    3.00
   2  -1  10    8.90    2.90
   2  -1  10    9.70    2.50
   2   1 -10   10.90    2.20
  -2  -1 -10   12.30    1.70
  -2   1  10    8.00    2.10
  -2   1  10    6.80    2.60
  -2   1  10    7.40    2.30
   2  -1 -10    8.70    1.60
   2   1  10    6.10    2.10
  -2   1 -10    8.60    2.80
  -2  -1  10    6.00    2.80
  -2  -1  10   11.10    2.30
   2  -1 -10   12.50    2.40
  -2  -1  10    4.10    2.20
  -2   1 -10    9.90    2.10
   2   1  10    8.30    2.50
  -2   1 -10   10.60    2.30
  -2   1 -10    8.40    1.60
  -2  -1  10    7.10    1.40
   2  -2  10   21.50    3.80
  -2   2  10   24.60    3.50
   2  -2  10   21.90    3.80
  -2  -2 -10   28.40    4.40
  -2  -2 -10   27.60    2.60
  -2  -2 -10   25.50    3.90
   2   2 -10   22.50    3.90
   2   2 -10   20.50    2.20
  -2   2  10   23.50    3.60
   2  -2  10   24.70    3.80
   2   2 -10   29.90    3.80
   2  -2  10   23.20    3.00
   2  -2 -10   26.20    2.70
   2   2  10   20.40    3.10
  -2  -2  10   26.60    4.00
   2  -2 -10   29.60    3.90
  -2  -2  10   20.60    3.40
  -2   2 -10   25.20    3.90
  -2  -2  10   25.70    2.70
  -2  -2  10   19.90    3.80
  -2   2 -10   23.80    3.70
   2   2  10   22.40    3.40
   2  -2 -10   25.00    3.40
   2  -3  10   10.40    2.60
   2  -3  10    6.10    2.70
   2   3 -10    9.20    2.40
   2  -3  10    7.60    2.00
  -2   3  10    8.00    2.40
  -2  -3 -10    9.80    1.60
   2   3 -10    7.10    3.30
   2   3 -10    7.50    1.70
   2  -3  10    8.60    3.30
  -2  -3  10    3.60    2.60
  -2  -3  10    7.10    3.30
  -2  -3  10   10.90    2.50
  -2  -3  10    7.20    1.80
   2  -3 -10    7.30    1.80
   2   3  10    8.20    2.20
   2  -4  10   30.90    5.10
  -2  -4 -10   45.70    3.20
   2   4 -10   37.50    5.70
  -2   4  10   42.30    4.40
   2  -4  10   35.90    5.50
   2  -4  10   40.60    4.00
   2   4 -10   43.00    3.30
   2   4  10   36.10    4.00
  -2  -4  10   29.30    4.90
  -2  -4  10   39.60    3.70
   2  -4 -10   40.90    3.60
  -2  -4  10   31.20    5.50
   2  -5  10    4.50    3.60
  -2  -5 -10    4.70    1.80
   2   5 -10    3.00    1.70
   2  -5  10    5.40    2.30
  -2   5  10    3.60    2.40
   2  -5 -10    4.50    2.20
   2   5  10    3.70    2.10
  -2  -5  10    3.80    2.10
  -2  -5  10    2.10    3.50
   2   6 -10    1.20    1.80
   2  -6  10    0.70    2.40
   2  -6  10    0.10    4.00
  -2  -6  10    2.30    2.40
  -2  -6  10   -5.00    3.70
  -2   6 -10    0.00    1.90
   2  -7  10    4.60    9.80
   2   7 -10    3.20    2.00
   2  -7  10    2.40    4.40
  -2   7 -10    2.20    2.20
  -2  -7  10    0.10    4.10
  -2  -7  10    5.50    9.40
   2  -8  10   14.00   12.30
  -2  -8  10   21.70   11.70
   2  -9  10    9.90   13.20
  -2  -9  10    5.60   12.10
  -2   0  11   84.69    7.10
  -2   0 -11   81.09    4.70
   2   0  11   83.69    7.10
  -2   0  11   84.99    4.90
   2   0 -11   86.29    4.70
  -2   0  11   82.19    7.50
  -2   0 -11   82.49    7.40
  -2   0  11   80.39    7.30
   2   0  11   86.59    7.50
  -2   0 -11   84.19    6.90
   2   0 -11   92.79    7.20
   2   1 -11   75.49    7.40
   2   1 -11   72.79    4.50
  -2  -1 -11   82.09    7.10
  -2  -1 -11   84.69    4.50
  -2   1  11   79.99    6.90
   2  -1  11   79.69    7.70
   2  -1  11   78.19    7.20
   2  -1  11   77.29    6.80
  -2   1  11   70.79    7.10
  -2   1  11   71.09    6.90
   2   1 -11   83.89    6.70
  -2   1 -11   78.99    7.10
  -2  -1  11   80.49    6.80
   2   1  11   78.59    6.70
  -2   1 -11   79.19    4.60
   2  -1 -11   81.49    4.60
  -2   1 -11   84.79    6.60
  -2  -1  11   74.59    6.90
  -2  -1  11   77.79    4.70
   2  -1 -11   74.99    6.90
   2   1  11   75.09    7.00
  -2  -1  11   72.79    7.20
   2   2 -11   91.99    5.20
  -2  -2 -11   94.59    8.10
  -2  -2 -11   98.59    5.20
   2  -2  11  100.99    8.10
  -2  -2 -11   95.09    7.70
   2  -2  11   85.89    8.30
  -2   2  11   92.99    7.80
   2   2 -11  100.99    7.90
   2  -2  11   97.09    6.00
   2   2 -11   98.49    8.60
  -2   2 -11   90.39    8.30
   2  -2 -11   98.89    8.20
  -2   2 -11   95.89    5.30
   2   2  11   86.79    7.50
   2  -2 -11   97.19    5.30
  -2   2 -11  100.69    7.80
   2  -2 -11   97.59    7.80
  -2  -2  11   85.39    8.40
  -2  -2  11  103.29    8.10
  -2  -2  11   94.49    5.60
   2   3 -11   55.59    4.00
  -2   3  11   57.39    5.50
   2   3 -11   55.89    6.90
   2  -3  11   49.99    6.40
  -2  -3 -11   55.99    5.70
   2  -3  11   60.59    4.60
   2  -3  11   72.09    6.50
  -2  -3 -11   56.39    3.80
   2   3  11   54.39    5.40
  -2  -3  11   69.49    6.30
  -2  -3  11   54.89    4.20
   2  -3 -11   57.99    4.10
  -2   3 -11   57.09    4.10
  -2   3 -11   54.59    6.50
  -2  -3  11   52.09    6.50
   2   4 -11   46.10    6.70
   2  -4  11   43.00    6.30
  -2   4  11   47.90    5.30
   2   4 -11   51.29    3.80
  -2  -4 -11   49.50    3.80
   2  -4  11   54.09    4.60
   2  -4 -11   53.19    4.10
   2   4  11   51.39    5.00
  -2  -4  11   48.70    6.40
  -2   4 -11   47.00    3.80
  -2  -4  11   50.09    4.20
   2  -5  11   56.39    7.10
  -2  -5 -11   54.39    4.30
   2  -5  11   50.59    4.90
   2   5 -11   61.19    4.30
  -2  -5  11   55.79    7.20
  -2  -5  11   55.69    4.80
   2  -5 -11   60.79    4.90
  -2   5 -11   55.89    4.30
   2  -6  11   37.90    4.70
   2   6 -11   28.60    3.10
   2  -6  11   33.50    6.10
  -2   6 -11   37.50    3.90
  -2  -6  11   36.40    4.50
  -2  -6  11   32.30    6.00
   2  -7  11   23.40    6.20
   2  -7  11   17.30   11.80
   2   7 -11   27.40    3.00
  -2  -7  11   35.70   12.30
  -2  -7  11   16.00    5.30
   2  -8  11    3.00   12.00
  -2  -8  11    8.20   10.90
   2   0 -12   10.20    2.00
   2   0  12   10.50    3.40
  -2   0 -12   13.00    3.40
  -2   0 -12    6.90    2.00
  -2   0  12    8.10    3.50
  -2   0  12   13.00    1.80
   2  -1  12  141.99   11.10
  -2  -1 -12  141.39    7.00
   2   1 -12  142.99   11.20
   2   1 -12  149.49   10.70
  -2  -1 -12  136.99   10.90
   2   1 -12  140.29    7.00
  -2   1  12  137.19   10.80
  -2   1 -12  141.09    7.10
   2   1  12  138.89   10.60
  -2   1 -12  138.79   11.00
   2  -1 -12  142.59   10.80
  -2  -1  12  140.19   11.10
  -2  -1  12  136.99    7.50
  -2   1 -12  140.89   10.50
   2  -1 -12  140.89    7.00
   2  -2  12    6.00    1.90
  -2   2  12    2.20    2.70
  -2  -2 -12    3.90    1.70
   2  -2  12    4.10    3.50
  -2  -2 -12    6.20    3.10
   2   2 -12    6.00    1.90
   2   2 -12    7.00    3.70
  -2  -2  12    7.00    1.80
   2  -2 -12    6.80    2.90
  -2  -2  12    1.60    3.50
  -2   2 -12    4.00    1.90
   2   2  12    3.50    2.40
  -2   2 -12    3.80    3.40
   2  -2 -12    8.10    1.90
  -2   3  12  101.39    8.50
   2   3 -12   99.99    9.40
   2  -3  12   99.29    6.60
   2   3 -12  106.79    5.70
  -2  -3 -12  108.89    8.40
   2  -3  12   95.99    9.20
  -2  -3 -12  104.09    5.70
   2  -3 -12   94.39    9.30
   2   3  12   98.79    8.20
  -2  -3  12  102.09    6.20
  -2   3 -12  114.59    5.90
   2  -3 -12  106.59    5.90
  -2  -3  12   98.69    9.30
  -2   3 -12   99.89    9.30
   2  -4  12    5.80    2.30
   2  -4  12    4.90    4.00
  -2  -4 -12    4.00    2.00
   2   4 -12    6.30    2.10
  -2   4  12    2.80    3.00
   2   4  12    6.90    2.70
  -2  -4  12    4.60    4.10
  -2   4 -12    2.70    2.20
   2  -4 -12    5.40    2.10
  -2  -4  12    6.00    2.10
   2   5 -12   75.19    5.00
   2  -5  12   86.49    6.30
  -2  -5 -12   81.79    5.30
   2  -5  12   74.09    8.60
  -2  -5  12   75.59    8.70
  -2   5 -12   77.99    5.30
   2  -5 -12   85.49    5.80
  -2  -5  12   72.49    5.80
   2   6 -12    1.00    2.10
   2  -6  12   -2.60    4.50
  -2   6 -12    0.60    2.30
  -2  -6  12   -4.70    4.50
   2   7 -12   37.80    4.10
   2  -7  12   35.60    7.30
  -2   7 -12   37.30    3.80
  -2  -7  12   30.60   12.40
  -2  -7  12   20.50    6.20
   2  -8  12    3.30   12.70
  -2  -8  12    3.90   11.50
  -2   0 -13    4.20    1.90
   2   0 -13    2.80    3.40
   2   0 -13    4.60    1.80
  -2   0  13    6.40    1.60
  -2   0 -13    6.10    3.40
  -2  -1 -13   11.90    2.20
   2   1 -13   11.30    2.10
   2  -1  13    9.70    3.90
  -2  -1 -13   13.20    3.80
  -2  -1  13   12.20    2.00
   2  -1 -13   13.00    3.60
  -2   1 -13   12.70    3.90
   2  -1 -13   15.50    2.30
  -2   1 -13    8.40    2.10
  -2  -1  13    8.10    4.00
   2  -2  13    4.70    3.80
   2   2 -13    7.60    4.00
   2   2 -13    3.60    2.00
  -2  -2 -13    9.30    3.60
  -2  -2 -13    3.70    1.80
   2  -2  13    4.70    2.00
  -2  -2  13    2.50    3.80
   2  -2 -13    4.40    2.00
  -2   2 -13    5.20    2.10
   2  -2 -13    8.00    3.20
  -2  -2  13    3.00    1.70
  -2   2 -13    5.00    3.60
   2  -3  13   12.30    2.70
  -2   3  13   15.90    3.90
  -2  -3 -13   17.60    2.40
   2  -3  13   12.20    4.50
   2   3 -13   21.40    4.80
   2   3 -13   14.20    2.50
   2   3  13   18.30    3.50
  -2  -3  13    9.70    4.60
   2  -3 -13   16.50    2.60
  -2  -3  13   16.40    2.50
  -2   3 -13   14.50    4.40
  -2   3 -13   16.20    2.60
   2  -4  13    3.60    2.40
  -2   4  13   -0.80    3.00
   2   4 -13    4.60    2.10
  -2  -4 -13    2.20    2.00
   2  -4  13    3.00    4.40
   2   4  13   -0.10    2.60
   2  -4 -13    3.00    2.30
  -2  -4  13    1.70    2.10
  -2   4 -13    0.90    2.20
  -2  -4  13   -1.00    4.30
   2   5 -13    3.10    2.20
   2  -5  13    6.20    2.80
   2  -5  13    3.70    4.80
   2  -5 -13    7.00    2.80
  -2  -5  13    3.50    2.50
  -2   5 -13    5.10    2.40
  -2  -5  13   -1.80    4.70
   2  -6  13   -0.40    5.00
   2   6 -13   -1.00    2.30
  -2   6 -13    3.60    2.60
  -2  -6  13   -4.40    5.10
   2   7 -13    6.00    2.70
  -2  -7  13   13.00   11.60
  -2   7 -13    3.90    2.80
  -2  -8  13    3.30   11.40
   2   0 -14    6.40    3.90
  -2   0 -14   12.80    4.00
  -2   0 -14    9.00    2.20
   2   0 -14   11.00    2.30
  -2   0  14   10.80    1.90
  -2  -1 -14   54.49    7.00
  -2  -1 -14   55.19    4.40
   2  -1  14   62.69    4.90
   2   1 -14   53.19    4.30
   2  -1 -14   56.39    6.80
   2  -1 -14   58.89    4.40
  -2  -1  14   55.59    4.30
  -2   1 -14   51.49    7.00
  -2   1 -14   56.49    4.40
   2   2 -14    1.70    2.10
  -2  -2 -14    5.70    3.80
   2  -2  14   -1.40    4.10
   2  -2  14    3.90    2.10
  -2  -2 -14    4.80    2.00
  -2   2 -14    0.20    3.90
  -2  -2  14    5.10    1.90
  -2   2 -14    2.70    2.20
  -2  -2  14   -2.00    4.20
   2  -2 -14    3.30    3.50
   2  -2 -14    4.10    2.10
   2   3 -14   43.10    4.10
   2  -3  14   40.90    7.10
   2  -3  14   45.70    4.80
  -2  -3 -14   46.00    4.10
   2   3 -14   55.79    7.70
  -2   3 -14   43.00    4.30
  -2  -3  14   38.10    6.50
  -2   3 -14   39.00    6.30
   2  -3 -14   43.70    4.30
  -2  -3  14   48.00    4.40
   2  -4  14    5.60    5.00
   2  -4  14   10.60    2.90
  -2  -4 -14   11.50    2.50
   2   4 -14    6.90    2.40
  -2   4 -14    9.80    2.70
   2  -4 -14   12.50    2.80
  -2  -4  14    2.10    5.00
  -2  -4  14   10.40    2.60
   2   5 -14   19.90    3.10
   2  -5  14   19.30    6.10
   2  -5 -14   24.40    3.60
  -2   5 -14   18.70    3.10
  -2  -5  14   14.50    6.10
   2   6 -14    1.20    2.50
   2  -6  14   -6.30    5.30
  -2  -6  14   -8.70    5.50
  -2   6 -14    1.20    2.70
   2   7 -14    9.50    3.00
  -2   7 -14   12.50    3.30
  -2  -7  14   10.80   11.50
   2   0 -15   65.49    7.90
   2   0 -15   73.79    5.10
  -2   0 -15   72.19    5.00
  -2   0 -15   60.79    7.90
   2   1 -15   18.30    2.80
   2  -1  15   18.00    2.90
  -2  -1 -15   15.50    4.70
  -2  -1 -15   16.30    2.70
   2   1 -15   14.80    4.90
  -2   1 -15   15.90    4.90
   2  -1 -15   15.80    2.80
   2  -1 -15   13.40    4.50
  -2   1 -15   15.90    2.80
   2  -2  15   88.19    6.30
   2   2 -15   84.99    5.60
  -2  -2 -15   81.69    9.10
  -2  -2 -15   89.09    5.60
  -2  -2  15   87.19    5.80
  -2   2 -15   79.89    5.70
   2  -2 -15   80.29    5.80
  -2   2 -15   76.79    9.00
   2  -2 -15   89.69    8.90
   2  -3  15   14.00    3.00
   2   3 -15   10.00    2.60
  -2  -3 -15   13.40    2.70
   2  -3  15   11.10    5.30
   2  -3 -15   14.60    2.90
  -2  -3  15   15.00    2.70
  -2  -3  15    7.20    5.30
  -2   3 -15    8.80    2.80
   2   4 -15   48.30    4.60
  -2  -4 -15   49.40    4.80
   2  -4  15   43.90    7.30
   2  -4 -15   50.69    5.00
  -2  -4  15   42.70    7.70
  -2  -4  15   56.19    5.20
  -2   4 -15   44.50    4.70
   2   5 -15    3.20    2.70
   2  -5  15    3.10    5.70
   2  -5 -15    7.50    3.20
  -2  -5  15   -4.50    5.70
  -2   5 -15    7.10    3.00
   2   6 -15   32.30    3.90
  -2   6 -15   29.40    4.00
   2   0 -16    4.80    4.70
  -2   0 -16    8.90    4.80
   2   0 -16    7.90    2.70
  -2   0 -16    9.60    2.60
  -2  -1 -16    4.70    2.30
   2   1 -16   -4.20    4.50
   2  -1  16    4.00    2.30
  -2  -1 -16    0.90    4.30
   2   1 -16    1.00    2.30
   2  -1 -16   -2.10    4.20
   2  -1 -16    3.80    2.50
  -2   1 -16    3.70    4.60
  -2   1 -16    4.70    2.50
  -2  -2 -16   -0.80    2.20
   2   2 -16   -1.00    2.40
  -2  -2 -16    2.20    4.50
   2  -2  16    0.20    2.20
   2   2 -16   -6.90    4.70
   2  -2 -16   -3.50    4.10
  -2   2 -16   -4.40    4.40
   2  -2 -16    0.20    2.40
  -2   2 -16   -0.80    2.50
  -2  -3 -16    2.50    2.50
   2   3 -16    0.50    2.50
  -2   3 -16    3.30    2.70
   2  -3 -16   -0.10    2.60
   2   4 -16   -1.10    2.60
   2  -4  16   -4.30    5.50
  -2  -4 -16    2.40    2.70
  -2  -4  16  -11.00    5.40
   2  -4 -16    2.30    2.90
  -2   4 -16    1.50    2.80
   2  -5  16   -8.60    5.70
   2   5 -16    1.60    2.80
  -2   5 -16    0.00    2.90
  -2   0 -17   33.50    6.70
   2   0 -17   25.70    6.40
  -2   0 -17   35.60    3.90
   2   0 -17   39.20    4.10
  -2  -1 -17    8.40    2.70
   2   1 -17   -7.10    4.80
  -2  -1 -17    4.00    5.10
   2   1 -17    5.00    2.90
  -2   1 -17    3.40    2.70
   2  -1 -17   -1.70    4.80
   2  -1 -17    6.00    2.90
  -2   1 -17   -1.80    4.90
   2   2 -17   24.20    3.50
   2   2 -17   15.20    6.40
  -2  -2 -17   24.40    3.40
   2  -2 -17   25.70    3.80
  -2   2 -17   26.10    3.60
  -2   2 -17   16.90    6.00
  -2  -3 -17    5.00    2.90
   2   3 -17    4.70    2.90
  -2   3 -17    2.90    3.00
   2  -3 -17    3.70    3.10
  -2  -4 -17   19.00    3.70
   2   4 -17   17.10    3.50
  -2   4 -17   16.40    3.60
   2  -4 -17   22.00    3.90
  -2   0 -18   20.10    3.60
   2   0 -18   23.70    3.80
  -2  -1 -18   42.60    4.40
   2   1 -18   36.30    4.30
   2  -1 -18   41.80    4.60
  -2   1 -18   37.70    4.30
  -2  -2 -18   26.90    3.90
   2   2 -18    7.80    6.30
   2   2 -18   22.10    3.70
  -2   2 -18   17.70    3.60
   2  -2 -18   21.40    3.90
  -2   2 -18   14.80    6.40
   2   3 -18   29.30    4.10
  -2  -3 -18   25.50    4.10
   2  -3 -18   35.40    4.60
  -2   3 -18   27.60    4.00
  -2   0 -19    1.40    3.00
   2   0 -19   -0.70    3.30
   3   0   0    3.30    2.00
  -3   0   0    2.60    1.50
   3   0   0    1.60    1.30
  -3   0   0   -0.50    1.10
   3  -1   0   -0.30    0.60
  -3  -1   0    0.00    0.80
  -3  -1   0    0.10    0.70
  -3  -1   0   -0.80    1.90
   3  -1   0    2.00    2.20
   3   1   0    0.90    2.70
   3   1   0   -0.50    1.00
   3   1   0    2.90    2.30
   3   1   0    0.90    0.70
   3   1   0    0.40    1.00
  -3  -1   0   -0.40    0.70
  -3  -1   0   -0.20    0.90
  -3  -1   0    0.50    0.50
  -3   1   0    1.50    0.90
   3  -1   0    1.80    0.70
  -3   1   0    0.20    0.90
   3  -2   0   -0.50    2.40
  -3   2   0   -2.30    2.30
  -3  -2   0    0.60    0.60
   3   2   0    0.20    0.60
  -3   2   0    0.40    0.40
  -3  -2   0   -0.40    1.50
  -3  -2   0    0.40    2.40
  -3   2   0    0.20    0.70
   3  -2   0   -0.40    0.50
   3   2   0    0.70    2.60
   3   2   0    0.50    0.70
   3   3   0    0.60    0.80
  -3  -3   0   -0.30    1.00
   3  -3   0    0.40    0.80
   3  -3   0    1.60    3.60
  -3   3   0    1.50    0.80
  -3  -3   0    0.80    3.10
   3   3   0   -4.10    2.70
   3   4   0    1.60    1.00
   3  -4   0    0.50    1.10
  -3  -4   0   -0.60    1.20
  -3   4   0    0.70    0.80
   3  -4   0   -3.00    4.40
  -3  -4   0    0.60    3.90
  -3  -5   0    1.30    1.70
   3   5   0   -1.00    2.00
   3  -5   0    0.80    1.40
  -3  -5   0    2.00    5.20
  -3  -5   0   -2.90    1.10
   3  -5   0   -0.70    6.20
   3  -6   0    0.40    1.80
  -3  -6   0   -3.00    6.40
   3  -6   0   10.90    8.60
  -3  -7   0    2.90    8.40
   3  -7   0   -1.90    2.30
   3  -7   0   -9.30   10.30
   3  -8   0  -12.00   12.10
  -3  -8   0   -6.40   10.10
   3  -8   0    1.70    2.90
  -3  -9   0   -4.20   14.00
   3  -9   0   -0.10    3.50
   3  -9   0  -16.30   13.90
  -3 -10   0  -10.70   14.40
   3 -10   0  -24.40   16.90
  -3   0   1  605.44   39.10
   3   0   1  666.43   39.10
   3   0  -1  604.94   38.90
  -3   0   1  620.84   38.80
  -3   0  -1  540.85   38.80
   3   0   1  611.84   39.00
  -3   0  -1  673.83   28.50
  -3   0  -1  666.23   38.90
   3   0   1  513.85   38.70
   3   0  -1  602.64   39.10
   3   0  -1  688.33   39.20
   3   0  -1  650.73   24.70
  -3   1   1  770.22   48.40
   3   1  -1  806.62   48.60
  -3  -1  -1  790.12   48.40
  -3  -1  -1  764.22   35.70
   3   1  -1  793.22   34.90
  -3   1   1  718.63   49.50
   3  -1   1  734.83   48.60
  -3   1   1  806.92   48.40
   3   1  -1  806.42   30.50
   3   1  -1  808.02   48.80
  -3   1   1  649.34   31.00
   3   1  -1  772.32   48.20
  -3  -1   1  760.72   49.90
   3   1   1  831.32   48.80
   3   1   1  768.42   48.50
   3   1   1  785.32   48.50
  -3   1  -1  641.04   49.20
  -3  -1   1  796.92   48.50
  -3  -1   1  813.52   30.50
  -3   1  -1  789.32   48.60
   3  -1  -1  804.02   34.70
   3  -1  -1  799.82   48.30
  -3   1  -1  813.12   35.40
  -3   1  -1  795.92   48.20
  -3  -1   1  801.62   34.90
  -3  -1   1  794.02   48.20
   3   2  -1  483.95   22.20
  -3   2   1  502.55   21.90
   3   2  -1  498.65   31.00
  -3  -2  -1  500.75   22.70
  -3   2   1  520.25   30.40
   3   2  -1  495.65   19.20
  -3  -2  -1  395.46   33.60
  -3   2   1  443.16   30.60
   3  -2   1  486.55   22.10
   3  -2   1  489.85   30.30
   3   2  -1  467.05   30.30
   3   2  -1  489.65   30.50
  -3  -2   1  483.55   32.60
  -3  -2   1  499.95   30.30
  -3  -2   1  469.85   19.10
   3  -2  -1  499.75   22.00
  -3   2  -1  499.65   30.80
  -3  -2   1  476.65   22.20
   3   2   1  512.85   30.60
  -3   2  -1  496.75   30.30
   3   2   1  485.45   30.80
  -3   2  -1  508.95   22.20
  -3   3   1  548.35   23.80
   3   3  -1  507.85   20.60
   3   3  -1  560.74   32.80
  -3  -3  -1  554.64   24.40
   3   3  -1  532.15   24.10
   3   3  -1  545.75   33.30
   3  -3   1  454.85   36.00
  -3  -3  -1  475.95   37.30
   3  -3   1  534.25   24.00
  -3   3  -1  529.05   23.90
   3  -3  -1  542.35   23.90
   3  -3  -1  479.25   37.20
   3   3   1  538.35   24.20
  -3  -3   1  506.35   24.00
  -3  -3   1  536.35   36.10
   3  -4   1  273.17   25.40
   3   4  -1  335.97   15.90
  -3   4   1  351.16   15.60
   3   4  -1  340.97   21.60
  -3  -4  -1  345.87   15.70
   3  -4   1  341.87   15.80
  -3  -4  -1  312.87   26.90
  -3   4  -1  353.06   15.70
  -3  -4   1  332.77   25.30
   3  -4  -1  345.77   15.80
  -3  -4   1  326.47   15.90
   3   4   1  335.07   15.90
   3   5  -1  277.67   17.70
   3  -5   1  221.58   23.60
   3  -5   1  275.87   13.40
  -3  -5  -1  270.37   12.80
  -3  -5  -1  256.17   24.70
  -3   5  -1  296.87   17.50
  -3  -5   1  272.47   13.50
   3  -5  -1  287.97   13.50
  -3  -5   1  257.47   22.80
   3  -6   1  134.39   19.70
  -3  -6  -1  164.58   21.20
  -3  -6  -1  178.28    8.50
   3  -6   1  180.38    9.60
  -3  -6   1  184.28    9.90
   3  -6  -1  187.28    9.80
  -3  -6   1  164.98   18.80
   3  -7   1   75.59   16.80
   3  -7   1  122.29    7.70
  -3  -7  -1  109.89   20.20
  -3  -7   1  116.09   17.40
  -3  -7   1  121.79    7.80
   3  -7  -1  134.39    8.00
   3  -7  -1   77.89   18.80
   3  -8   1   58.79   18.10
  -3  -8  -1   96.39   19.80
   3  -8   1   85.89    7.10
   3  -8  -1   57.79   19.80
  -3  -8   1   82.09   16.40
   3  -8  -1  101.89    7.70
   3  -9   1   14.40   15.00
   3  -9   1   39.80    5.20
  -3  -9  -1   41.00   18.30
   3  -9  -1    3.60   17.00
  -3  -9   1   30.00   15.30
   3 -10   1   15.40   18.10
  -3 -10  -1   32.70   19.70
  -3 -10   1   28.40   17.50
   3 -10  -1    5.30   18.80
   3   0   2  782.72   51.59
   3   0  -2  854.01   52.09
  -3   0   2  824.62   51.69
   3   0  -2  834.32   32.50
   3   0   2  844.52   51.39
  -3   0  -2  801.52   51.19
   3   0  -2  832.22   51.19
   3   0   2  832.22   51.19
   3   0  -2  851.31   51.69
  -3   0  -2  807.42   51.59
  -3   0   2  875.61   51.39
   3   0  -2  852.51   51.39
   3   0  -2  779.62   36.80
  -3   0   2  780.82   51.19
  -3   0  -2  828.12   37.60
  -3   0   2  840.82   52.09
  -3   0  -2  868.51   51.39
  -3   0   2  785.52   36.80
   3  -1   2  246.18   11.80
   3   1  -2  246.08   10.20
  -3   1   2  273.97   16.10
   3  -1   2  251.67   16.30
   3   1  -2  262.77   16.40
   3   1  -2  251.47   16.20
  -3  -1  -2  250.47   16.00
   3   1  -2  247.08   16.30
   3   1  -2  252.47   11.70
   3  -1   2  252.67   16.60
  -3  -1  -2  242.48   16.00
  -3  -1  -2  249.88   12.00
   3   1  -2  263.37   16.80
   3  -1   2  254.97   16.20
  -3   1   2  250.67   16.10
  -3  -1   2  259.37   10.20
   3   1   2  249.28   16.10
  -3   1  -2  269.37   16.60
  -3   1  -2  240.98   16.10
  -3  -1   2  255.57   16.40
  -3   1  -2  257.57   11.80
  -3  -1   2  247.28   16.20
   3   1   2  252.27   16.10
   3  -1  -2  261.07   10.60
  -3  -1   2  266.07   16.80
   3  -1  -2  272.77   16.10
  -3  -1   2  258.57   16.30
   3   1   2  249.78   12.00
  -3  -1   2  249.18   11.70
  -3   1  -2  277.47   16.30
   3   2  -2 3031.30  189.38
   3   2  -2 2888.61  191.78
   3  -2   2 2924.81  189.38
   3  -2   2 3293.27  190.88
   3   2  -2 3166.38  189.68
   3   2  -2 3060.39  119.79
   3  -2   2 3032.30  189.68
   3  -2   2 3024.80  138.69
   3   2  -2 3030.30  136.99
  -3  -2  -2 3019.70  139.09
  -3   2   2 3105.69  136.69
   3   2  -2 3131.09  190.98
   3  -2   2 3247.18  137.09
  -3   2  -2 3231.98  189.58
   3   2   2 3095.39  189.28
  -3   2  -2 3189.38  191.48
   3  -2  -2 3160.68  136.79
  -3  -2   2 3028.80  119.79
  -3  -2   2 3039.80  194.88
   3  -2  -2 2579.84  120.49
  -3  -2   2 3026.80  136.89
  -3   2  -2 3107.69  189.38
  -3  -2   2 3180.68  190.78
  -3  -2   2 3234.38  189.38
  -3   3   2  192.18    8.70
   3  -3   2  185.58   12.60
   3  -3   2  187.08   11.90
   3  -3   2  170.58    8.60
   3   3  -2  152.98   13.20
   3   3  -2  186.38   11.90
   3  -3   2  192.18    9.00
   3   3  -2  181.98   12.20
  -3  -3  -2  188.98    8.90
   3   3  -2  195.38    9.10
  -3  -3  -2  142.69   17.60
   3   3  -2  204.08    7.50
  -3  -3   2  185.58   14.70
   3   3   2  178.28    9.20
   3  -3  -2  198.78    8.90
  -3   3  -2  194.78   12.90
  -3  -3   2  184.88    9.00
   3  -3  -2  136.19   18.60
  -3  -3   2  196.28   11.90
  -3   3  -2  190.68   11.90
  -3  -3   2  172.08   12.80
  -3  -4  -2  361.96   17.00
   3   4  -2  363.26   23.30
   3   4  -2  399.06   14.50
   3  -4   2  359.36   17.20
  -3  -4  -2  330.37   30.10
   3  -4   2  318.47   27.40
  -3   4   2  389.36   16.90
   3   4  -2  389.26   23.10
  -3  -4   2  351.76   26.80
  -3   4  -2  367.26   17.00
   3  -4  -2  369.66   17.20
   3   4   2  361.66   17.30
  -3   4  -2  361.46   23.10
  -3  -4   2  345.77   17.20
  -3   4  -2  359.76   23.10
  -3   4  -2  376.86   24.20
   3  -5   2   90.89   13.90
   3   5  -2  130.49    4.90
  -3   5   2  121.79    6.20
   3   5  -2  109.09    8.40
   3  -5   2  115.49    6.60
  -3  -5  -2  115.59    5.90
   3   5  -2  113.29    7.80
  -3  -5  -2  105.59   17.70
  -3   5  -2  120.09    9.20
   3  -5  -2  125.09    6.90
  -3   5  -2  122.79    8.20
  -3  -5   2  108.39    6.60
  -3   5  -2  113.29    7.90
   3  -6   2  587.04   27.30
   3  -6   2  479.45   43.60
   3   6  -2  602.14   36.50
   3   6  -2  570.14   38.50
  -3  -6  -2  590.34   47.50
   3  -6  -2  617.94   27.60
  -3  -6   2  587.84   27.40
  -3  -6   2  574.44   42.80
   3   7  -2   70.59    5.20
   3  -7   2   66.79    5.50
  -3  -7  -2   67.09   16.60
   3   7  -2   48.30    7.30
   3  -7   2   36.70   12.80
  -3   7  -2   70.39    6.20
   3  -7  -2   71.89    6.20
  -3  -7   2   68.19   12.80
   3  -7  -2   42.10   17.20
  -3  -7   2   64.49    5.60
   3  -8   2   41.70   15.20
  -3  -8  -2   51.19   17.60
   3  -8   2   40.90    4.90
   3  -8  -2   24.90   18.60
  -3  -8   2   47.80   12.90
  -3  -8   2   60.79    5.80
   3  -9   2    6.30   13.70
  -3  -9  -2   24.70   17.80
   3  -9  -2    3.10   18.30
  -3  -9   2   29.90   14.00
  -3 -10  -2   85.79   24.70
   3 -10   2    8.90   17.40
  -3 -10   2   51.99   18.60
   3 -10  -2   83.69   27.50
   3   0  -3   62.19    4.60
   3   0  -3   65.39    4.80
  -3   0  -3   60.99    4.30
  -3   0   3   57.89    4.50
   3   0  -3   63.99    4.40
   3   0   3   60.79    4.40
   3   0  -3   59.19    2.90
  -3   0   3   59.69    2.90
  -3   0   3   67.29    4.80
   3   0   3   64.09    4.50
   3   0  -3   63.19    4.50
  -3   0   3   58.39    4.40
   3   0   3   58.99    4.30
  -3   0  -3   62.79    3.30
  -3   0   3   60.29    4.40
  -3   0  -3   63.59    4.50
   3   0   3   56.49    3.20
  -3   0  -3   63.09    4.40
   3   1  -3    1.70    1.00
   3   1  -3    1.00    0.50
   3   1  -3    1.70    0.90
   3   1  -3    1.20    1.10
   3  -1   3    0.80    1.00
   3   1  -3    1.90    0.50
  -3   1   3   -0.30    1.70
  -3   1   3    1.50    1.30
  -3  -1  -3    1.60    0.50
  -3  -1  -3    1.00    1.40
  -3  -1  -3    1.70    0.80
  -3   1   3    1.80    0.60
  -3  -1  -3    2.40    1.40
   3  -1   3    3.10    1.00
  -3   1   3    1.40    0.80
  -3  -1  -3    1.80    0.70
   3  -1   3    1.30    0.60
  -3   1  -3    0.40    0.70
   3   1   3    0.90    0.70
  -3  -1   3    1.20    0.90
  -3  -1   3    3.00    1.10
  -3   1  -3    1.70    0.70
  -3  -1   3    1.90    1.00
  -3   1  -3    1.90    0.90
  -3   1  -3    2.20    1.00
   3   1   3    0.70    0.80
   3  -1  -3    5.00    0.80
  -3  -1   3    1.20    0.90
   3  -1  -3    0.10    1.50
   3   1   3    2.10    1.30
  -3  -1   3    0.60    0.50
   3   1   3    0.70    0.60
   3  -1  -3    0.90    0.80
  -3   2   3   17.90    1.20
   3   2  -3   15.80    1.20
   3   2  -3   17.30    2.10
   3   2  -3   16.20    1.80
   3  -2   3   15.40    2.30
  -3  -2  -3   16.60    1.60
   3  -2   3   17.20    2.40
   3  -2   3   17.00    1.90
   3  -2   3   17.20    1.80
  -3   2   3   13.90    2.80
   3  -2   3   15.30    1.30
   3   2  -3   13.60    2.30
   3   2  -3   16.30    2.60
   3   2  -3   15.70    1.70
  -3   2   3   17.60    1.80
  -3  -2   3   13.50    1.60
   3  -2  -3   17.40    1.90
   3   2   3   18.00    1.80
  -3  -2   3   17.00    1.80
  -3   2  -3   16.60    2.30
   3   2   3   12.10    2.60
   3   2   3   16.00    1.80
  -3   2  -3   15.40    2.20
  -3  -2   3   15.70    2.10
  -3  -2   3   15.50    2.40
  -3   2  -3   17.70    2.20
   3  -3   3    0.70    0.90
   3   3  -3    0.20    1.60
   3  -3   3    0.80    1.10
  -3  -3  -3    0.70    0.90
  -3   3   3    0.90    0.60
   3   3  -3    0.60    0.60
   3  -3   3    0.50    0.70
  -3  -3  -3    1.40    0.40
   3  -3   3    2.10    1.50
   3   3  -3   -0.80    1.40
   3   3  -3    1.90    0.80
   3   3  -3    1.40    1.00
  -3  -3  -3    7.00    6.50
  -3  -3   3   -1.10    1.50
  -3  -3   3    1.60    0.90
   3   3   3    0.30    1.10
  -3   3  -3    2.50    1.30
   3  -3  -3    5.50    6.30
  -3  -3   3    2.90    2.60
  -3  -3   3    0.30    1.20
   3  -4   3   31.70    2.00
   3   4  -3   28.70    4.30
   3   4  -3   27.00    3.50
  -3  -4  -3   31.10    2.30
   3   4  -3   33.10    1.90
  -3   4   3   31.60    2.30
   3  -4   3   25.30    6.30
   3  -4   3   34.80    3.40
  -3  -4  -3   30.20    9.90
   3   4  -3   31.60    2.90
   3  -4   3   39.50    4.30
   3  -4   3   30.90    2.90
  -3  -4   3   28.60    4.00
   3  -4  -3   13.40    9.80
  -3  -4   3   33.70    3.10
   3   4   3   27.70    2.90
  -3  -4   3   29.90    2.80
  -3   4  -3   29.70    3.00
  -3  -4   3   30.10    6.00
  -3   4  -3   32.10    3.40
  -3   4  -3   33.00    3.60
   3  -4  -3   29.20    3.30
  -3  -5  -3    4.20    8.60
   3  -5   3    1.30    5.30
   3   5  -3    2.10    1.30
   3   5  -3   -0.90    2.00
   3   5  -3    0.90    0.70
  -3   5   3    3.10    1.00
   3  -5   3    2.00    1.50
   3   5  -3   -0.10    2.50
   3  -5  -3    1.80    2.00
  -3   5  -3    0.50    1.40
  -3  -5   3    0.50    1.40
   3  -5  -3   -2.20   10.00
  -3  -5   3    1.80    4.30
  -3   5  -3    3.90    1.90
  -3   5  -3    2.00    1.90
   3   6  -3    7.60    3.20
   3   6  -3    6.60    1.70
   3  -6   3    7.30    2.20
  -3  -6  -3   14.20   11.10
   3   6  -3    6.10    1.00
   3  -6   3    7.30    7.40
  -3  -6   3    4.80    2.10
  -3  -6   3    8.40    6.50
  -3   6  -3    4.00    1.80
   3  -6  -3   -2.50   13.00
  -3   6  -3    7.50    2.40
   3  -7   3    0.50    2.20
   3   7  -3   -4.00    2.90
  -3  -7  -3   -3.10   12.00
   3   7  -3   -0.90    1.70
   3  -7   3   -0.90    8.60
  -3   7  -3    3.60    2.30
  -3  -7   3   -0.60    2.20
  -3  -7   3    3.60    7.10
   3  -7  -3   -4.80   14.20
  -3   7  -3   -0.80    1.70
   3   8  -3    8.20    2.40
   3  -8   3    4.90    3.10
  -3  -8  -3    7.90   15.70
   3  -8   3   -3.60    9.90
  -3  -8   3    9.80    3.20
   3  -8  -3    5.50   18.30
  -3  -8   3   11.90    9.70
  -3   8  -3    8.10    2.90
  -3  -9  -3   -5.40   16.30
   3  -9   3   -8.40   11.80
  -3  -9   3    0.70   11.00
   3  -9  -3    4.40   19.20
   3 -10   3   -3.90   15.00
  -3 -10  -3   -0.50   18.40
  -3 -10   3   -4.70   12.50
   3 -10  -3    5.70   21.50
   3   0   4 2879.01  173.58
   3   0   4 2804.12  172.38
  -3   0  -4 2539.65  174.48
   3   0  -4 2805.02  172.18
   3   0  -4 3041.70  173.88
  -3   0   4 2622.34  172.08
  -3   0  -4 2818.02  172.38
   3   0   4 2629.54  126.29
   3   0  -4 2879.11  109.19
  -3   0  -4 2873.91  172.28
  -3   0   4 3003.80  173.88
   3   0  -4 2793.62  172.38
  -3   0   4 2791.22  172.18
   3   0   4 2851.21  172.48
  -3   0   4 2706.33  124.39
  -3   0   4 2784.52  175.08
   3   0  -4 2686.43  173.58
  -3   1   4  741.63   46.40
   3  -1   4  732.93   46.90
   3   1  -4  717.03   46.60
   3  -1   4  742.33   34.10
   3   1  -4  734.73   46.50
  -3  -1  -4  725.43   34.10
   3   1  -4  751.12   46.90
   3  -1   4  725.53   46.60
  -3  -1  -4  733.33   46.40
  -3  -1  -4  773.32   46.60
   3   1  -4  759.02   47.10
  -3   1   4  745.33   47.60
  -3  -1  -4  796.72   46.80
   3   1  -4  778.42   33.60
  -3   1   4  737.53   46.70
   3   1  -4  751.62   29.50
  -3   1   4  717.83   46.60
   3  -1   4  738.83   46.50
   3  -1  -4  769.22   46.40
   3  -1  -4  780.42   46.80
  -3   1  -4  722.33   46.50
   3   1   4  718.53   34.10
   3   1   4  754.02   46.40
   3   1   4  762.02   46.70
  -3   1  -4  751.12   46.60
  -3  -1   4  738.43   46.60
  -3  -1   4  757.52   47.10
  -3  -1   4  741.13   46.60
   3  -1  -4  732.73   29.60
   3   1   4  805.92   46.70
  -3  -1   4  754.72   47.00
  -3  -1   4  729.53   33.50
  -3   2   4  522.25   24.40
   3  -2   4  549.45   34.10
   3  -2   4  537.65   34.20
   3   2  -4  551.84   21.60
   3   2  -4  548.25   24.80
   3  -2   4  557.04   34.60
  -3  -2  -4  529.75   25.00
   3   2  -4  555.44   34.70
   3   2  -4  512.75   34.00
   3  -2   4  529.55   24.90
   3   2  -4  525.65   34.20
   3  -2   4  551.24   34.40
   3   2  -4  528.15   34.30
  -3   2   4  558.44   34.30
   3   2   4  546.15   33.80
   3   2   4  545.05   34.00
  -3  -2   4  557.64   34.80
  -3   2  -4  542.95   34.50
  -3  -2   4  552.44   34.20
  -3  -2   4  544.75   34.10
   3  -2  -4  537.95   21.80
  -3  -2   4  597.04   34.30
  -3   2  -4  540.45   34.10
  -3   2  -4  558.04   34.20
  -3  -2   4  533.35   24.70
   3   2   4  524.85   25.00
   3  -3   4  578.94   35.00
   3   3  -4  577.44   22.00
   3   3  -4  574.54   35.60
  -3  -3  -4  557.04   21.80
  -3  -3  -4  552.54   25.50
   3   3  -4  556.84   35.00
   3   3  -4  577.34   25.50
   3   3  -4  534.85   34.90
  -3   3   4  556.14   25.00
   3  -3   4  567.94   34.80
   3  -3   4  475.75   35.40
   3  -3   4  539.65   25.50
   3  -3   4  530.45   25.30
   3  -3   4  567.14   35.00
   3   3   4  560.84   34.50
   3  -3  -4  569.14   22.80
  -3   3  -4  567.04   35.30
  -3  -3   4  554.84   34.80
   3   3   4  562.34   25.70
  -3  -3   4  537.35   34.90
  -3  -3   4  545.65   25.40
   3   4  -4 1083.49   67.99
   3  -4   4 1096.19   67.79
   3   4  -4 1095.89   68.29
   3  -4   4 1081.19   68.09
  -3   4   4 1103.99   49.00
   3   4  -4 1147.49   69.09
   3  -4   4 1082.39   49.50
   3   4  -4 1157.48   42.90
   3  -4   4 1083.39   49.50
  -3  -4   4 1087.79   72.29
   3   4   4 1021.40   49.70
   3   4   4 1085.79   50.09
  -3   4  -4 1080.39   67.89
  -3  -4   4 1097.49   67.79
  -3  -4   4 1057.89   49.40
  -3   4  -4 1092.29   68.69
  -3  -4   4 1099.59   68.29
   3  -5   4  348.77   17.00
   3   5  -4  353.16   22.60
  -3   5   4  362.66   16.40
  -3   5   4  349.47   16.30
   3  -5   4  346.27   22.40
   3  -5   4  352.76   23.10
   3   5  -4  376.76   14.20
  -3  -5  -4  290.87   33.70
   3  -5   4  292.57   27.80
   3   5  -4  367.76   23.60
   3   5  -4  346.17   22.70
  -3  -5   4  355.26   27.20
  -3   5  -4  366.16   23.00
  -3  -5   4  353.86   22.40
  -3  -5   4  320.77   23.40
  -3   5  -4  354.66   22.60
  -3   5  -4  372.66   22.70
  -3  -5   4  340.27   16.90
   3   6  -4  150.18    6.20
   3  -6   4  120.79   17.30
   3   6  -4  141.09    9.80
  -3  -6  -4  150.98   25.20
   3   6  -4  137.19   11.00
   3  -6   4  143.39    8.20
  -3  -6   4  144.29   16.20
   3  -6  -4  119.99   24.20
  -3   6  -4  134.69   10.00
  -3   6  -4  146.39   10.40
  -3  -6   4  135.89    8.10
  -3  -7  -4  167.48   28.90
   3   7  -4  190.68   13.00
   3  -7   4  144.59   21.20
   3  -7   4  184.18   10.60
   3   7  -4  197.18   14.20
  -3   7  -4  195.58   13.10
  -3  -7   4  193.88   20.60
  -3  -7   4  187.08   10.60
  -3   7  -4  201.88   13.50
   3  -7  -4  170.08   29.50
   3  -8   4  143.89    9.50
  -3  -8  -4  167.98   30.50
   3  -8   4  119.09   21.90
  -3   8  -4  167.18   11.70
  -3  -8   4  158.48   20.20
  -3  -8   4  143.79    9.50
   3  -8  -4  153.68   30.20
  -3  -9  -4  132.09   29.50
   3  -9  -4  109.29   29.80
  -3  -9   4   97.39   18.80
  -3 -10  -4   26.20   23.10
   3 -10   4   -0.10   14.70
  -3 -10   4   13.20   14.10
   3 -10  -4   29.10   26.00
   3   0   5   84.79    6.10
   3   0  -5   85.99    4.00
  -3   0   5   89.29    6.40
   3   0   5   83.59    4.50
  -3   0  -5   87.49    6.30
   3   0  -5   84.19    6.20
  -3   0   5   84.59    6.20
  -3   0   5   88.59    6.20
   3   0  -5   88.89    6.20
  -3   0   5   84.29    6.20
  -3   0  -5   89.49    6.10
   3   0   5   85.99    6.20
  -3   0  -5   87.09    6.20
  -3   0   5   85.79    4.20
   3   0  -5   88.79    6.40
   3  -1   5  604.14   37.70
   3   1  -5  600.04   37.60
   3  -1   5  590.84   37.70
  -3  -1  -5  617.74   37.80
  -3   1   5  575.44   37.60
  -3   1   5  655.23   38.40
  -3  -1  -5  594.64   37.60
   3   1  -5  612.04   38.00
   3  -1   5  605.24   27.60
   3  -1   5  599.04   38.00
   3   1  -5  609.34   23.90
   3   1  -5  582.24   37.70
  -3   1   5  595.34   37.80
   3   1  -5  611.94   38.10
  -3  -1  -5  585.64   37.50
  -3   1  -5  605.84   37.70
  -3  -1   5  574.94   37.70
  -3   1  -5  587.94   37.70
  -3  -1   5  615.04   38.10
  -3  -1   5  590.04   38.10
  -3  -1   5  597.84   27.10
   3   1   5  592.44   27.60
   3   1   5  616.34   37.80
   3   1   5  621.44   37.70
   3  -1  -5  635.14   37.50
  -3  -1   5  568.74   37.70
   3   1   5  593.94   37.50
   3  -1  -5  588.24   37.80
  -3   1  -5  610.14   38.00
   3  -1  -5  603.04   24.00
   3  -2   5   88.79    6.40
  -3   2   5   79.69    6.30
  -3  -2  -5   86.19    5.90
   3   2  -5   80.19    6.50
   3  -2   5   87.59    6.50
   3  -2   5   88.59    6.40
   3   2  -5   80.09    6.50
   3   2  -5   80.59    6.30
   3  -2   5   90.49    6.40
   3   2  -5   89.69    4.00
   3   2  -5   92.39    4.80
   3  -2   5   86.79    4.50
  -3   2  -5   85.19    6.30
  -3  -2   5   83.09    6.50
   3   2   5   85.09    4.70
  -3  -2   5   88.19    6.70
  -3  -2   5   83.89    6.40
   3   2   5   84.59    6.00
  -3   2  -5   89.29    6.30
  -3  -2   5   83.99    4.60
  -3   2  -5   91.49    6.40
   3  -2  -5   89.59    4.20
  -3  -2   5   87.19    6.30
   3   2   5   83.79    5.80
   3   3  -5  385.76   15.40
   3  -3   5  404.16   24.60
   3   3  -5  377.46   24.40
   3  -3   5  381.06   17.70
  -3  -3  -5  388.56   15.20
  -3   3   5  388.86   17.40
   3   3  -5  362.96   24.40
   3   3  -5  377.86   24.90
   3   3  -5  400.96   17.90
  -3   3   5  384.56   24.30
   3  -3   5  390.06   24.50
   3  -3   5  374.66   18.00
   3  -3   5  359.76   24.80
  -3   3  -5  381.76   24.60
  -3  -3   5  400.86   25.30
   3   3   5  379.96   18.00
   3   3   5  386.56   24.00
   3  -3  -5  379.36   15.90
  -3  -3   5  377.66   24.40
  -3  -3   5  353.86   17.70
  -3  -3   5  372.16   24.40
   3  -4   5   47.90    3.10
   3   4  -5   48.80    2.80
   3  -4   5   54.69    4.90
   3  -4   5   48.90    3.80
   3   4  -5   52.69    4.40
   3   4  -5   45.00    4.90
   3  -4   5   52.19    5.00
   3   4  -5   46.20    5.00
  -3   4   5   52.09    3.10
  -3   4  -5   52.19    4.60
   3  -4  -5   45.10    4.10
  -3  -4   5   50.39    5.50
  -3  -4   5   51.19    4.70
  -3   4  -5   50.29    4.90
  -3  -4   5   46.10    7.40
   3   4   5   52.39    3.80
  -3  -4   5   44.20    3.60
   3  -5   5  279.17   12.90
   3   5  -5  264.27   18.70
   3   5  -5  271.07   18.00
  -3   5   5  259.17   13.00
   3  -5   5  260.17   13.60
  -3   5   5  276.97   13.00
   3   5  -5  279.17   11.30
   3  -5   5  278.57   18.40
   3  -5   5  285.07   18.00
   3   5  -5  264.67   18.10
  -3  -5   5  291.67   18.90
  -3  -5   5  265.47   22.50
  -3  -5   5  259.07   13.50
  -3   5  -5  279.07   18.30
  -3  -5   5  285.67   18.00
  -3   5  -5  272.67   18.10
  -3   6   5   40.30    2.70
   3  -6   5   25.30    9.80
   3   6  -5   38.90    2.60
   3  -6   5   30.40    3.80
   3   6  -5   30.30    3.90
   3   6  -5   26.40    4.50
  -3  -6   5   31.50    3.80
  -3   6  -5   25.90    4.20
   3  -6  -5   41.20   19.70
  -3  -6   5   33.10    8.60
  -3   6  -5   37.60    4.40
   3  -7   5   59.99   14.10
   3   7  -5   87.59    6.90
   3   7  -5   81.89    7.90
   3  -7   5   83.59    6.40
  -3   7  -5   81.69    7.30
  -3   7  -5   91.99    7.50
   3  -7  -5  131.59   27.30
  -3  -7   5   90.59   15.00
  -3  -7   5   79.39    6.20
   3  -8   5    7.60   10.70
   3  -8   5   15.00    3.40
   3   8  -5    8.70    3.70
  -3  -8   5   12.90    3.40
   3  -8  -5   48.90   24.10
  -3  -8   5   16.60   10.30
   3  -9   5   19.30   13.50
  -3  -9   5   56.69   14.70
   3 -10   5  -11.10   12.80
  -3 -10   5    4.30   12.70
  -3   0   6    1.70    1.30
   3   0  -6    0.90    0.70
  -3   0   6    1.80    1.00
   3   0  -6    1.80    1.20
  -3   0   6    0.30    1.30
   3   0   6    0.40    1.30
   3   0  -6    0.40    1.50
   3   0   6    0.50    1.10
  -3   0  -6    1.10    1.40
  -3   0   6    0.90    0.60
   3   0   6    1.00    0.90
  -3   0   6    0.00    1.30
  -3   0  -6    0.80    1.10
   3   0   6    0.90    1.40
  -3   0  -6    2.10    1.00
   3   0  -6    2.10    1.40
   3  -1   6   91.99    5.00
   3   1  -6   94.59    4.40
   3  -1   6   94.39    6.80
   3   1  -6   98.69    7.10
  -3   1   6   95.09    6.90
   3   1  -6   90.59    6.90
  -3  -1  -6   99.99    7.10
   3   1  -6   89.29    7.00
  -3   1   6  100.39    7.20
  -3  -1  -6   90.29    6.60
   3  -1   6   99.49    7.10
   3   1  -6   97.59    6.90
  -3   1   6   93.99    6.70
  -3  -1  -6   94.49    6.50
   3  -1   6   97.99    7.00
   3   1   6   95.49    6.60
  -3  -1   6   94.69    7.00
  -3  -1   6   94.29    4.80
   3   1   6   97.29    6.70
   3  -1  -6   86.69    7.00
  -3  -1   6   95.19    7.00
  -3   1  -6   97.89    6.90
  -3   1  -6   99.79    7.00
  -3  -1   6   94.29    7.00
   3  -1  -6   75.39    7.90
   3  -1  -6   96.89    6.80
   3  -1  -6   99.19    4.50
  -3   1  -6   91.89    6.90
  -3  -1   6   95.69    7.00
   3   1   6   94.69    5.10
  -3   2   6   -1.80    1.20
   3   2  -6    1.10    0.80
  -3   2   6   -0.30    2.00
   3  -2   6   -1.10    1.00
  -3  -2  -6    0.20    0.70
  -3  -2  -6    1.70    1.00
   3  -2   6    0.90    1.30
   3   2  -6   -0.90    0.90
   3  -2   6    0.40    1.60
  -3  -2  -6    2.30    1.80
   3   2  -6    1.10    1.60
   3   2  -6   -0.90    1.30
   3  -2   6    1.40    1.30
   3  -2   6    1.30    1.50
  -3  -2   6   -2.50    1.40
  -3  -2   6   -1.00    1.30
  -3  -2   6   -2.60    1.60
   3   2   6    1.30    1.00
   3   2   6    0.60    1.20
   3  -2  -6    2.40    0.90
   3   2   6   -1.30    1.10
  -3   2  -6    0.70    1.50
  -3   2  -6    1.20    1.40
  -3  -2   6   -0.50    0.80
  -3  -2   6   -2.20    1.20
   3  -3   6   78.59    6.10
   3  -3   6   73.19    4.60
  -3   3   6   77.69    4.00
   3   3  -6   71.79    6.30
  -3   3   6   72.39    5.70
   3  -3   6   72.99    4.20
   3   3  -6   77.59    3.80
  -3  -3  -6   73.69    3.60
   3  -3   6   75.89    6.20
   3   3  -6   75.09    5.80
   3   3  -6   78.79    4.70
   3  -3   6   70.49    6.10
   3  -3   6   76.99    6.10
   3   3  -6   72.59    6.20
   3  -3  -6   79.19    4.20
  -3  -3   6   76.09    6.50
   3   3   6   72.19    5.20
  -3   3  -6   80.69    6.00
   3   3   6   74.79    5.50
  -3  -3   6   74.29    5.80
  -3  -3   6   72.79    4.40
  -3  -3   6   73.29    6.30
  -3  -3   6   70.79    6.10
   3   3   6   78.79    4.50
   3   4  -6    0.20    0.90
   3  -4   6    1.00    1.10
   3   4  -6   -4.60    2.20
   3   4  -6   -2.90    2.00
  -3   4   6    1.20    0.80
   3  -4   6    2.40    1.60
   3  -4   6   -0.90    2.00
   3  -4   6    1.60    2.20
   3  -4   6    1.00    1.40
   3   4  -6   -0.10    1.50
   3  -4   6    1.40    1.90
   3  -4  -6   -0.70    1.50
   3   4   6    1.00    1.50
  -3  -4   6   -1.90    2.00
   3   4   6   -1.40    1.40
  -3  -4   6   -1.70    2.00
  -3  -4   6   -1.90    1.40
  -3   4  -6    1.70    1.60
  -3  -4   6    1.90    1.30
  -3  -4   6   -0.80    2.00
   3   5  -6   45.80    4.50
  -3   5   6   41.80    3.30
   3  -5   6   53.59    5.30
   3   5  -6   42.50    5.20
   3  -5   6   43.90    4.00
   3   5  -6   48.50    3.00
   3   5  -6   41.80    5.20
   3  -5   6   46.10    3.20
  -3  -5  -6   43.00    3.20
   3  -5   6   53.69    5.60
  -3   5   6   46.20    3.30
   3   5   6   53.49    4.10
  -3   5  -6   49.40    5.30
  -3  -5   6   42.70    3.80
  -3  -5   6   45.80    4.90
   3  -5  -6   38.70    4.40
  -3   5  -6   45.80    4.70
  -3  -5   6   54.39    6.10
  -3  -5   6   44.10    8.50
   3   6  -6    0.80    1.20
   3  -6   6    3.00    7.30
   3   6  -6   -3.60    2.00
   3  -6   6   -1.50    1.90
   3  -6   6    3.10    3.20
   3  -6   6    3.80    2.50
  -3  -6   6    0.20    1.90
  -3  -6   6    2.30    6.20
  -3   6  -6    1.00    2.10
  -3  -6   6   -1.00    2.40
   3   7  -6   23.20    4.30
   3  -7   6   23.30   11.30
   3  -7   6   22.40    3.40
  -3  -7   6   29.10    9.60
  -3  -7   6   19.80    3.30
   3  -8   6   -7.90    8.80
  -3  -8   6    6.50    9.80
   3  -9   6   -1.70   12.30
  -3  -9   6   -2.00    9.70
   3 -10   6   -0.40   13.30
  -3 -10   6    0.50   12.20
  -3   0  -7  779.72   49.00
  -3   0  -7  744.03   48.80
   3   0  -7  789.22   31.00
   3   0  -7  759.02   48.70
   3   0  -7  836.92   49.40
   3   0   7  774.52   49.10
  -3   0  -7  820.42   48.70
  -3   0   7  749.03   48.70
   3   0   7  750.02   48.70
   3   0   7  756.02   35.80
  -3   0   7  816.32   49.30
   3   0  -7  766.22   48.70
  -3   0   7  781.92   49.10
  -3   0   7  776.52   35.00
  -3   1   7  337.37   20.40
   3  -1   7  311.47   20.20
  -3   1   7  298.97   20.00
   3  -1   7  313.37   14.70
   3   1  -7  309.67   12.80
  -3  -1  -7  311.97   19.80
  -3  -1  -7  291.57   19.80
   3  -1   7  315.37   20.10
  -3   1   7  298.87   20.00
   3  -1   7  315.37   20.10
  -3  -1  -7  311.67   20.10
   3   1  -7  306.67   20.10
   3   1  -7  310.87   20.20
   3   1  -7  305.87   20.00
   3  -1  -7  320.17   12.80
  -3  -1   7  301.17   20.10
  -3   1  -7  308.27   20.10
  -3   1  -7  305.27   20.00
   3   1   7  307.17   20.00
  -3  -1   7  332.87   14.40
   3  -1  -7  295.17   20.10
  -3  -1   7  304.97   20.10
  -3   1  -7  312.57   20.10
   3   1   7  311.97   19.90
   3  -1  -7  300.37   19.90
  -3  -1   7  309.57   20.30
   3   1   7  296.27   14.70
  -3  -1   7  321.77   20.30
   3   2  -7  702.33   45.30
   3  -2   7  708.83   33.10
   3   2  -7  737.73   45.80
   3  -2   7  743.33   45.30
   3   2  -7  689.13   45.10
  -3   2   7  704.23   45.00
  -3   2   7  758.22   45.90
   3   2  -7  705.43   45.50
   3  -2   7  724.43   45.20
  -3  -2  -7  688.73   45.40
   3  -2   7  750.92   45.80
  -3  -2  -7  697.93   44.80
   3   2  -7  722.13   28.60
   3  -2   7  680.63   45.50
  -3  -2  -7  727.23   28.60
   3   2   7  720.63   44.90
  -3  -2   7  744.23   45.90
  -3  -2   7  724.13   45.30
  -3  -2   7  727.13   45.30
   3   2   7  701.03   45.20
   3  -2  -7  719.13   45.50
  -3   2  -7  709.03   45.60
  -3  -2   7  697.43   32.60
   3  -2  -7  699.13   28.80
   3   2   7  703.13   33.20
  -3  -2   7  776.52   45.70
  -3   2  -7  749.73   45.30
  -3   2  -7  723.43   45.20
   3  -3   7  255.07   17.10
  -3  -3  -7  249.88   10.50
   3   3  -7  255.97   17.30
   3  -3   7  263.17   17.10
   3   3  -7  253.57   10.60
   3   3  -7  220.28   16.70
  -3   3   7  250.27   17.50
   3  -3   7  250.97   12.20
   3  -3   7  257.87   16.90
   3  -3   7  266.67   17.00
  -3   3   7  269.67   12.00
   3   3  -7  248.38   16.90
  -3   3   7  253.27   16.50
   3  -3   7  247.28   12.60
  -3   3  -7  251.67   17.00
  -3  -3   7  254.97   16.90
  -3  -3   7  266.07   17.50
  -3  -3   7  241.88   12.20
  -3  -3   7  259.27   17.00
   3   3   7  259.77   12.50
  -3  -3   7  249.68   16.90
   3  -3  -7  260.67   11.00
   3   3   7  244.18   16.30
   3   3   7  260.87   16.50
  -3   4   7  489.25   31.00
   3  -4   7  511.75   31.90
   3   4  -7  486.45   19.90
   3  -4   7  512.65   31.70
   3   4  -7  497.65   31.60
  -3   4   7  520.35   22.50
   3  -4   7  470.05   23.20
  -3  -4  -7  502.35   19.80
   3  -4   7  506.25   22.90
   3   4  -7  496.75   32.10
   3  -4   7  465.25   32.00
   3   4  -7  486.35   31.60
  -3  -4   7  483.75   23.00
   3   4   7  490.45   23.20
   3  -4  -7  497.05   20.50
  -3  -4   7  462.95   31.50
  -3   4  -7  471.55   31.80
   3   4   7  513.75   31.00
  -3  -4   7  461.05   32.40
  -3  -4   7  506.95   31.60
  -3   5   7  133.59    6.60
   3  -5   7  132.79    9.70
   3   5  -7  128.79    5.90
   3  -5   7  121.19    6.60
  -3   5   7  113.89    6.70
   3   5  -7  124.99    9.20
  -3  -5  -7  134.49    6.10
   3   5  -7  122.89    9.90
   3  -5   7  117.69    7.30
   3  -5   7  120.79    9.70
   3  -5  -7  120.89    7.50
  -3  -5   7  128.59   14.50
  -3  -5   7  114.49    7.10
  -3   5  -7  128.09    9.50
  -3  -5   7  119.39    9.50
   3   5   7  132.29    7.30
   3   6  -7  311.37   12.70
   3  -6   7  303.87   20.60
   3  -6   7  295.07   15.40
   3   6  -7  308.97   21.00
   3  -6   7  253.67   27.20
   3   6   7  308.97   15.30
  -3  -6   7  292.37   15.10
  -3  -6   7  307.27   20.20
  -3  -6   7  309.87   26.10
   3  -7   7   73.99    5.90
   3   7  -7   69.69    7.50
   3  -7   7   50.29   13.70
  -3  -7   7   66.49    5.80
  -3  -7   7   74.19   13.20
   3  -8   7  114.49   20.60
  -3  -8   7  152.98   19.90
   3  -9   7    6.20   12.80
  -3  -9   7   23.90   12.60
   3 -10   7   36.80   17.30
  -3 -10   7   68.99   18.10
   3   0   8 1319.47   84.09
  -3   0  -8 1350.96   84.09
  -3   0   8 1353.06   84.79
  -3   0  -8 1318.17   84.19
   3   0  -8 1292.87   84.09
   3   0  -8 1381.66   84.09
  -3   0   8 1399.86   84.99
  -3   0  -8 1378.66   84.69
  -3   0   8 1350.76   60.49
   3   0  -8 1342.17   53.29
   3   0  -8 1438.06   84.99
  -3   0   8 1343.67   84.19
   3   0   8 1330.07   61.69
   3   0   8 1340.57   84.69
   3  -1   8    7.00    1.90
  -3  -1  -8    7.40    1.80
  -3  -1  -8    7.40    1.50
   3   1  -8    4.50    2.40
  -3   1   8    7.70    2.10
  -3  -1  -8    9.00    2.20
  -3  -1  -8    7.00    1.20
   3  -1   8    8.90    2.30
   3  -1   8    7.40    1.60
  -3   1   8    6.20    2.10
   3   1  -8    9.00    1.90
   3  -1   8    9.10    2.30
   3   1  -8    9.00    1.90
   3   1  -8    5.50    1.20
  -3   1   8    7.90    1.70
   3  -1  -8    8.30    2.20
   3  -1  -8    7.10    1.30
   3   1   8    7.20    1.60
  -3  -1   8    6.20    2.30
  -3  -1   8    7.80    1.10
   3  -1  -8    8.50    2.00
  -3   1  -8    8.30    1.80
  -3  -1   8    8.30    1.90
  -3   1  -8    8.60    2.00
   3  -1  -8    5.50    2.30
  -3  -1   8    6.40    2.00
   3   1   8    7.30    2.00
  -3   1  -8    6.60    2.20
   3   1   8    7.40    1.80
  -3  -2  -8  306.77   12.30
   3   2  -8  291.47   19.40
   3   2  -8  292.67   19.50
   3  -2   8  283.57   19.50
  -3   2   8  296.47   19.20
  -3   2   8  293.47   19.60
   3  -2   8  301.87   19.50
   3  -2   8  306.77   19.50
   3   2  -8  288.27   12.30
   3   2  -8  294.47   19.30
  -3  -2  -8  304.27   19.60
  -3  -2  -8  288.77   18.90
   3  -2   8  292.37   14.20
   3  -2   8  293.47   19.80
   3  -2  -8  291.57   19.60
   3  -2  -8  293.67   12.50
  -3   2  -8  287.37   19.40
  -3  -2   8  287.97   19.50
  -3  -2   8  289.27   19.50
  -3   2  -8  297.87   19.50
  -3  -2   8  298.57   19.70
  -3  -2   8  288.27   13.90
   3   2   8  289.67   19.10
   3   2   8  302.07   19.10
   3   2   8  306.17   14.30
  -3  -2   8  294.67   19.50
   3  -3   8    6.20    2.00
  -3   3   8    0.10    2.20
   3   3  -8   -0.10    2.60
   3  -3   8    4.10    1.60
   3   3  -8    3.40    1.60
   3  -3   8    9.90    2.40
   3   3  -8    5.10    1.30
   3   3  -8    6.70    2.30
   3  -3   8    4.30    2.60
  -3  -3  -8    6.60    1.20
  -3   3   8    7.50    2.10
   3  -3   8    5.00    2.20
   3  -3   8    5.80    1.70
  -3  -3   8    8.40    2.40
   3   3   8    6.70    1.80
   3  -3  -8    7.30    1.50
   3   3   8    6.40    2.00
  -3  -3   8    8.90    2.30
  -3  -3   8    3.00    2.50
  -3  -3   8    5.50    1.50
   3   3   8    5.30    1.60
  -3  -3   8    2.30    2.00
  -3   4   8  735.03   31.50
   3   4  -8  662.93   44.10
   3  -4   8  659.73   44.40
   3   4  -8  679.13   27.70
  -3  -4  -8  701.03   27.70
   3  -4   8  665.93   32.20
   3  -4   8  705.73   44.40
   3  -4   8  693.63   32.00
   3   4  -8  718.73   44.70
   3  -4   8  692.63   44.00
   3   4  -8  678.23   44.00
  -3  -4   8  657.63   44.00
  -3  -4   8  690.83   44.90
   3  -4  -8  706.23   28.30
  -3  -4   8  647.74   31.80
  -3  -4   8  712.43   44.00
  -3   4  -8  733.83   44.30
   3   4   8  692.63   43.50
   3   4   8  702.03   32.30
   3   5  -8    4.30    1.50
  -3  -5  -8    5.00    1.50
   3  -5   8    6.30    1.80
  -3   5   8    3.40    1.80
   3  -5   8    2.50    2.00
   3   5  -8    3.00    3.00
   3  -5   8    4.90    3.20
   3   5   8    8.20    2.20
   3  -5  -8    7.50    2.50
  -3  -5   8    1.40    2.90
  -3  -5   8    5.40    2.00
   3   6  -8   85.69    4.60
   3  -6   8   88.89    8.30
   3  -6   8   80.89    6.00
  -3  -6   8   83.09   13.70
  -3  -6   8   78.39    5.90
  -3  -6   8   87.89    7.80
   3  -6  -8   78.09    7.30
   3  -7   8    1.10    4.10
   3   7  -8    1.70    1.60
   3  -7   8    5.30    9.80
   3  -7   8    1.30    2.50
  -3  -7   8    2.80    2.70
  -3  -7   8    6.20    8.40
  -3  -7   8   -1.50    3.20
   3  -8   8  104.49   19.90
  -3  -8   8  121.89   18.30
   3  -9   8   -1.20   12.00
  -3  -9   8    3.60   10.80
   3   0   9   94.59    7.70
   3   0   9  103.29    5.90
  -3   0  -9  100.89    8.00
   3   0  -9  109.39    8.10
   3   0  -9  105.89    8.00
  -3   0   9  107.29    7.80
   3   0  -9  101.09    8.10
  -3   0   9  109.49    8.10
   3   0   9   98.99    8.00
   3   0  -9  106.09    5.20
  -3   0  -9  101.99    7.90
  -3   0   9  103.99    8.00
  -3   0  -9  105.99    7.60
  -3   0   9  100.79    5.30
  -3  -1  -9    2.70    1.30
  -3   1   9    0.50    1.30
  -3   1   9   -3.00    1.90
  -3   1   9   -2.40    1.70
   3   1  -9    0.20    1.10
   3  -1   9   -0.20    2.20
  -3  -1  -9    1.60    2.10
  -3  -1  -9   -0.50    1.10
   3  -1   9    0.10    1.50
   3  -1   9   -0.50    1.60
   3   1  -9    0.90    1.50
   3   1  -9    2.40    1.60
  -3  -1  -9    1.70    1.50
   3   1   9   -1.10    1.40
  -3  -1   9    0.70    0.90
  -3  -1   9   -0.80    1.40
   3  -1  -9    0.80    1.10
  -3   1  -9    1.00    1.40
   3  -1  -9    2.00    2.10
   3  -1  -9    1.10    1.70
   3  -1  -9   -2.00    2.10
   3   1   9   -0.70    1.90
  -3  -1   9   -2.90    1.70
  -3   1  -9    3.30    1.80
   3   1   9   -0.10    1.60
  -3  -1   9   -1.50    2.20
  -3   1  -9    0.60    2.20
   3  -2   9  118.39    9.00
   3  -2   9  129.59    9.30
  -3  -2  -9  123.59    9.20
  -3  -2  -9  117.39    5.70
   3   2  -9  113.09    9.20
   3  -2   9  114.79    9.20
  -3  -2  -9  115.99    8.50
   3  -2   9  119.89    6.60
   3   2  -9  120.09    8.90
   3   2  -9  114.09    5.70
   3  -2   9  130.79    9.60
  -3   2   9  114.19    8.80
  -3   2   9  120.79    9.00
   3   2   9  120.69    8.60
   3  -2  -9  122.59    8.70
   3   2   9  120.49    8.80
  -3   2  -9  121.69    8.90
  -3  -2   9  119.79    9.30
   3   2   9  125.49    6.80
  -3  -2   9  131.79    9.30
  -3   2  -9  110.19    9.10
   3  -2  -9  112.49    9.30
   3  -2  -9  121.39    5.90
  -3  -2   9  127.99    9.20
  -3  -2   9  114.39    9.00
  -3  -2   9  113.29    6.30
   3  -3   9    1.20    1.50
  -3   3   9   -2.20    2.00
   3  -3   9   -0.50    2.10
  -3  -3  -9    1.30    1.10
   3   3  -9    1.10    1.30
  -3   3   9   -1.50    2.00
   3  -3   9    3.10    1.90
   3  -3   9   -0.10    2.60
   3  -3   9    0.60    1.60
   3   3  -9    2.50    2.00
  -3  -3   9   -0.70    2.60
  -3   3  -9    1.50    1.80
   3  -3  -9    2.90    1.40
  -3  -3   9    1.30    1.30
   3   3   9    1.50    1.60
   3   3   9    0.50    2.00
  -3   3  -9   -1.00    2.50
   3   3   9    3.60    1.80
  -3  -3   9   -1.30    2.10
  -3  -3   9    3.30    2.00
   3   4  -9   69.89    4.00
  -3  -4  -9   71.29    3.90
   3  -4   9   63.49    4.50
   3  -4   9   65.59    6.70
   3  -4   9   65.19    6.70
   3   4  -9   73.99    7.30
   3  -4   9   62.59    4.90
   3   4  -9   65.19    6.80
  -3   4   9   67.49    6.40
   3   4   9   62.19    5.30
  -3  -4   9   62.09    4.60
  -3  -4   9   75.79    7.00
  -3  -4   9   66.09    6.70
  -3  -4   9   55.99    6.00
   3  -4  -9   67.49    4.50
  -3  -5  -9    0.40    1.50
  -3   5   9   -1.90    1.80
   3  -5   9   -0.70    3.20
   3  -5   9   -0.50    1.70
   3   5  -9    0.10    1.40
   3  -5   9   -0.80    1.80
   3  -5  -9    0.80    2.20
   3   5   9   -1.10    1.50
  -3  -5   9   -2.10    3.10
  -3  -5   9    0.40    1.80
   3  -6   9   50.89    7.00
   3   6  -9   56.59    3.80
   3  -6   9   46.80    4.90
   3  -6  -9   50.39    5.30
  -3  -6   9   56.09   11.50
  -3  -6   9   52.99    6.60
  -3  -6   9   49.60    4.80
   3  -7   9   -0.30    4.20
   3  -7   9    2.70    9.70
   3   7  -9   -1.00    1.70
  -3  -7   9   -0.80    2.50
  -3  -7   9    0.20    8.50
  -3  -7   9   -3.90    3.50
   3  -8   9   12.30   12.30
  -3  -8   9   22.70   11.20
   3  -9   9   -7.00   11.20
  -3  -9   9    6.30   11.70
   3   0  10  228.28   16.00
   3   0 -10  240.58   10.30
   3   0 -10  240.58   16.00
  -3   0  10  227.58   11.20
   3   0 -10  236.28   16.10
   3   0  10  239.58   16.00
  -3   0  10  241.18   16.20
   3   0 -10  229.78   16.20
  -3   0 -10  250.07   10.40
  -3   0 -10  233.28   15.90
  -3   0 -10  223.18   15.80
  -3   0 -10  226.18   16.10
  -3   0  10  243.48   16.10
  -3   0  10  237.78   16.00
   3   1 -10  608.44   25.00
   3   1 -10  617.44   39.40
  -3   1  10  633.54   39.70
   3   1 -10  625.74   39.30
  -3  -1 -10  619.84   25.00
   3  -1  10  607.94   39.40
  -3  -1 -10  602.24   39.40
   3  -1  10  630.24   40.00
   3  -1  10  622.14   39.60
   3   1 -10  630.94   39.70
  -3   1  10  650.13   39.30
  -3  -1 -10  576.34   39.00
  -3   1  10  614.64   39.50
  -3  -1  10  596.84   28.20
   3   1  10  594.34   39.40
   3   1  10  640.34   39.30
  -3  -1  10  635.34   39.80
  -3   1 -10  605.64   39.40
   3  -1 -10  610.44   39.30
   3  -1 -10  631.94   25.10
  -3  -1  10  609.44   39.80
  -3   1 -10  633.54   39.30
  -3   1 -10  603.64   39.50
  -3  -1  10  608.34   39.40
  -3  -2 -10  513.85   20.80
   3  -2  10  485.15   33.00
  -3   2  10  492.05   32.80
  -3   2  10  534.75   33.10
   3   2 -10  536.55   33.10
   3  -2  10  510.35   33.00
   3  -2  10  531.95   33.50
   3   2 -10  508.25   20.90
  -3  -2 -10  498.75   32.40
   3   2 -10  506.95   33.00
  -3  -2 -10  517.15   33.00
  -3   2  10  516.65   32.70
  -3  -2  10  489.45   23.60
  -3  -2  10  517.15   33.20
  -3  -2  10  480.65   33.00
  -3  -2  10  507.75   33.30
   3   2  10  515.15   32.60
   3   2  10  473.35   32.60
   3  -2 -10  545.35   33.00
   3  -2 -10  506.65   21.00
  -3   2 -10  517.15   33.10
   3  -2 -10  509.25   32.50
  -3   2 -10  511.75   32.90
  -3   3  10  502.75   32.80
   3  -3  10  530.15   33.20
  -3  -3 -10  504.95   20.60
   3   3 -10  505.95   32.80
   3  -3  10  480.85   24.00
   3   3 -10  484.75   20.70
   3  -3  10  496.55   32.90
   3  -3  10  514.95   32.80
  -3  -3 -10  494.85   31.90
  -3  -3  10  510.05   32.90
   3   3  10  480.55   32.30
  -3  -3  10  532.75   33.30
  -3   3 -10  511.45   32.70
  -3  -3  10  519.95   33.00
   3  -3 -10  508.35   21.00
  -3  -3  10  497.45   23.50
   3  -4  10  117.49    7.40
   3   4 -10  119.29   10.10
  -3   4  10  127.09    9.50
  -3  -4 -10  133.49    6.20
   3   4 -10  123.69    6.20
   3  -4  10  121.19   10.10
   3  -4  10  120.29   10.00
  -3  -4  10  115.59    9.70
  -3  -4  10  119.89    7.00
   3   4  10  118.89    8.90
  -3  -4  10  117.39   10.00
   3  -4 -10  133.99    6.70
  -3   4 -10  127.89   10.10
   3  -5  10  341.27   23.30
   3  -5  10  339.47   17.30
  -3   5  10  349.96   22.90
   3   5 -10  335.27   14.50
  -3  -5 -10  347.17   14.60
  -3  -5  10  337.17   16.90
   3  -5 -10  364.06   15.50
   3   5  10  342.07   22.20
  -3  -5  10  323.27   23.10
   3  -6  10  156.68   12.50
   3  -6  10  145.09    9.20
   3   6 -10  156.18    7.50
  -3  -6  10  146.39   18.40
  -3  -6  10  157.18    9.10
  -3  -6  10  142.59   12.20
   3   7 -10  214.38    9.60
   3  -7  10  198.78   15.90
  -3  -7  10  211.38   22.90
  -3  -7  10  194.98   15.50
   3  -8  10   13.30   12.80
  -3  -8  10   24.90   11.80
   3  -9  10   67.59   19.40
  -3  -9  10  105.19   19.10
   3   0 -11   -2.20    2.80
   3   0 -11    0.10    1.40
  -3   0 -11    0.60    2.60
  -3   0  11    1.10    1.00
  -3   0 -11    1.40    1.50
  -3   0  11   -1.60    1.50
   3   0 -11    3.10    2.00
   3   0  11   -3.00    2.50
  -3   0  11   -4.80    2.50
   3   0  11   -0.60    2.10
  -3   0 -11   -1.30    1.30
  -3   1  11  153.48   11.30
  -3  -1 -11  148.59   11.20
  -3   1  11  150.98   11.30
  -3   1  11  149.29   11.20
  -3  -1 -11  146.59    7.20
   3   1 -11  151.98   11.50
   3   1 -11  155.08    7.20
   3  -1  11  143.99   11.00
   3  -1  11  148.49   11.40
   3   1 -11  158.28   11.20
  -3  -1  11  159.58   11.50
  -3   1 -11  150.08   11.30
  -3   1 -11  157.68   11.00
  -3  -1  11  141.39   11.20
  -3   1 -11  149.39    7.30
   3  -1 -11  155.88    7.30
   3   1  11  146.09   11.10
  -3  -1  11  141.19    7.70
   3   1  11  148.29   10.90
   3   2 -11   -0.50    1.50
   3   2 -11   -4.90    3.00
   3   2 -11    2.10    1.90
  -3  -2 -11    0.50    1.40
   3  -2  11   -1.10    1.50
  -3   2  11   -2.30    1.60
  -3  -2 -11    2.80    2.80
   3  -2  11   -2.80    3.00
  -3  -2 -11    1.20    1.80
  -3   2  11   -1.60    2.20
  -3  -2  11   -6.20    2.90
   3  -2 -11    3.00    2.40
   3  -2 -11    0.80    1.50
  -3  -2  11    0.00    1.30
  -3   2 -11   -1.20    2.90
   3   2  11   -2.70    1.90
  -3   2 -11    0.60    1.80
   3  -2 -11    2.50    2.30
  -3   3  11  150.48   11.20
   3   3 -11  143.89    7.20
   3  -3  11  162.08   11.60
   3  -3  11  147.09    8.50
   3  -3  11  140.49   11.50
  -3  -3 -11  151.08    7.20
   3   3 -11  140.49   11.80
  -3  -3  11  146.39   11.70
  -3  -3  11  162.08   11.80
   3  -3 -11  154.18    7.50
  -3  -3  11  142.99    8.00
   3   3  11  153.18   10.80
  -3   3 -11  147.39   11.50
   3  -4  11   -1.20    1.90
  -3  -4 -11   -1.10    1.40
   3   4 -11   -0.10    1.60
   3  -4  11   -2.60    3.50
  -3   4  11   -3.60    2.20
   3  -4 -11    0.10    1.80
  -3  -4  11   -3.70    3.50
  -3  -4  11    1.90    1.80
   3   4  11   -0.40    2.00
  -3  -5 -11   61.19    4.30
   3  -5  11   57.49    5.20
   3   5 -11   56.49    4.20
   3  -5  11   60.89    7.30
  -3  -5  11   52.79    7.20
  -3  -5  11   51.89    4.80
   3  -5 -11   61.09    5.20
   3   6 -11   -2.10    1.90
   3  -6  11   -0.80    2.50
   3  -6  11   -4.30    4.30
  -3  -6  11   -8.00    4.10
  -3   6 -11   -0.90    2.10
  -3  -6  11   -1.30    2.40
   3  -7  11   49.99    8.30
   3   7 -11   46.90    4.20
  -3   7 -11   53.39    4.70
  -3  -7  11   55.59   13.40
  -3  -7  11   42.50    7.70
   3  -8  11   -8.70   11.50
  -3  -8  11   -0.90    9.90
  -3   0 -12   -3.40    1.50
  -3   0  12   -0.80    1.10
   3   0 -12    0.30    1.50
  -3   0 -12    2.90    3.00
   3   0  12   -2.90    2.80
  -3   0  12   -0.70    3.00
  -3  -1 -12  104.39    5.70
  -3   1  12  105.29    8.90
   3   1 -12  101.19    5.60
  -3  -1 -12  103.79    8.90
   3   1 -12  103.59    9.30
   3  -1  12  101.79    9.10
   3   1 -12  114.39    8.70
   3  -1 -12  107.19    8.80
  -3  -1  12  101.99    5.90
  -3   1 -12  111.59    8.40
  -3   1 -12  105.09    5.80
   3   1  12  101.99    8.50
  -3  -1  12   96.49    9.20
  -3   1 -12  101.59    8.90
   3  -1 -12  106.19    5.80
   3   2 -12    1.30    3.40
   3   2 -12    0.20    1.60
  -3  -2 -12   -0.40    1.50
   3  -2  12   -0.40    1.70
  -3  -2 -12    2.60    3.00
   3  -2  12   -3.10    3.20
  -3  -2  12   -6.40    3.20
  -3   2 -12   -0.70    1.80
   3  -2 -12    1.70    2.60
   3   2  12   -2.10    2.20
  -3   2 -12   -0.20    3.10
  -3  -2  12   -0.80    1.40
   3  -2 -12    0.10    1.70
   3   3 -12   80.19    4.90
  -3   3  12   79.59    7.30
   3   3 -12   79.39    8.40
   3  -3  12   76.29    5.80
   3  -3  12   79.79    8.10
  -3  -3 -12   80.49    4.90
  -3  -3  12   80.19    8.20
  -3  -3  12   79.99    5.30
   3   3  12   82.79    7.00
   3  -3 -12   82.79    5.20
  -3   3 -12   84.49    8.20
  -3   3 -12   82.99    5.20
   3  -4  12   -2.40    3.80
  -3  -4 -12   -3.40    1.60
   3   4 -12   -1.00    1.80
   3  -4  12   -0.40    2.00
  -3   4 -12   -3.30    1.90
   3   4  12   -2.30    2.20
   3  -4 -12    1.60    2.00
  -3  -4  12    0.30    1.90
  -3  -4  12   -7.20    3.80
   3   5 -12   58.89    4.40
   3  -5  12   54.79    5.40
   3  -5  12   56.69    7.70
   3  -5 -12   61.29    5.20
  -3  -5  12   57.69    5.10
  -3   5 -12   62.29    4.80
  -3  -5  12   53.09    7.70
   3  -6  12   -3.40    4.50
   3   6 -12   -0.40    2.00
  -3   6 -12   -1.40    2.30
  -3  -6  12   -8.90    4.40
   3  -7  12   18.60    6.20
   3   7 -12   27.20    3.20
  -3  -7  12   10.70    5.80
  -3  -7  12   40.30   12.80
  -3   7 -12   27.30    3.50
   3  -8  12  -11.60   11.50
  -3  -8  12   -1.90   10.70
  -3   0  13  454.45   20.70
  -3   0 -13  433.46   29.40
  -3   0 -13  441.26   18.80
   3   0 -13  445.86   18.80
   3   1 -13   72.89    4.60
   3   1 -13   78.29    8.00
  -3  -1 -13   64.19    4.60
   3  -1  13   70.29    7.70
  -3  -1 -13   70.59    7.40
  -3  -1  13   76.89    4.70
  -3   1 -13   66.59    4.70
   3  -1 -13   73.39    4.80
   3  -1 -13   67.39    7.30
  -3   1 -13   67.89    7.40
  -3  -2 -13  410.76   27.20
   3  -2  13  405.16   19.90
  -3  -2 -13  401.16   17.20
   3  -2  13  426.66   27.30
   3   2 -13  397.96   17.20
   3   2 -13  412.56   27.30
  -3  -2  13  395.26   19.20
  -3  -2  13  391.66   27.20
  -3   2 -13  397.76   17.30
  -3   2 -13  403.56   27.10
   3  -2 -13  408.16   17.40
   3  -2 -13  397.86   26.70
   3  -3  13   44.90    4.60
   3  -3  13   40.80    6.50
   3   3 -13   52.09    7.00
  -3   3  13   37.10    5.70
  -3  -3 -13   50.99    3.90
   3   3 -13   45.70    4.00
   3  -3 -13   51.29    4.40
  -3  -3  13   44.00    4.10
  -3  -3  13   41.10    6.80
   3   3  13   46.50    5.50
  -3   3 -13   46.00    4.10
  -3   3 -13   41.70    6.60
   3  -4  13  326.57   22.30
   3   4 -13  305.17   13.80
   3  -4  13  309.07   16.30
  -3  -4 -13  317.27   13.90
  -3   4  13  324.57   21.60
  -3  -4  13  309.87   15.70
  -3   4 -13  303.17   14.10
   3  -4 -13  315.57   14.30
  -3  -4  13  304.77   22.20
   3   4  13  331.87   21.30
   3   5 -13   36.00    4.00
   3  -5  13   39.20    6.60
  -3  -5  13   30.30    6.40
  -3   5 -13   36.80    4.10
   3  -5 -13   33.10    4.00
  -3  -5  13   37.10    4.50
   3   6 -13  201.48    9.90
   3  -6  13  214.88   16.60
  -3   6 -13  208.38   10.30
  -3  -6  13  195.98   16.50
   3   7 -13    8.60    2.80
  -3  -7  13   15.30   11.10
  -3   7 -13   13.10    3.20
  -3   0 -14   75.49    5.10
   3   0 -14   75.89    8.20
  -3   0 -14   75.39    8.10
   3   0 -14   78.69    5.20
  -3  -1 -14    2.00    1.90
  -3  -1 -14    3.70    3.80
   3   1 -14   -0.40    2.00
  -3   1 -14    2.40    3.80
   3  -1 -14    4.20    2.20
  -3   1 -14    0.90    2.00
  -3  -1  14    1.90    1.60
   3  -1 -14    0.20    3.50
   3   2 -14  229.68   16.50
   3  -2  14  220.28   16.30
   3   2 -14  212.78   10.20
  -3  -2 -14  217.68   10.20
  -3  -2 -14  230.78   16.30
   3  -2  14  219.68   11.90
  -3   2 -14  205.58   16.10
   3  -2 -14  213.88   10.40
  -3   2 -14  203.68   10.30
   3  -2 -14  218.58   15.70
  -3  -2  14  210.38   11.10
   3  -3  14   -0.30    2.20
   3   3 -14    3.50    4.60
   3  -3  14   -4.30    4.30
  -3  -3 -14    0.20    1.90
   3   3 -14    2.10    2.20
  -3   3 -14   -2.00    2.20
  -3   3 -14   -2.50    4.10
  -3  -3  14   -6.80    4.40
   3  -3 -14    1.60    2.30
  -3  -3  14    1.70    1.90
   3  -4  14   40.80    7.30
   3  -4  14   42.80    5.00
  -3  -4 -14   47.30    4.30
   3   4 -14   42.10    4.10
   3  -4 -14   37.30    4.00
  -3  -4  14   44.90    4.50
  -3  -4  14   33.90    6.70
  -3   4 -14   41.20    4.30
   3   5 -14   -5.50    2.20
   3  -5  14   -6.80    4.80
  -3   5 -14   -3.60    2.50
   3  -5 -14   -3.40    2.70
   3  -6  14   64.19    9.70
   3   6 -14   71.09    5.40
  -3  -6  14   54.49    9.70
  -3   6 -14   78.69    5.80
   3   7 -14   -6.90    2.60
  -3  -7  14   -1.20   10.30
  -3   7 -14   -2.20    2.80
  -3   0 -15   69.69    5.10
  -3   0 -15   66.19    8.10
   3   0 -15   62.49    8.20
   3   0 -15   65.59    5.10
  -3  -1 -15   -1.10    2.00
   3  -1  15   -1.60    1.90
  -3  -1 -15   -0.80    4.00
   3   1 -15   -1.40    2.10
   3  -1 -15   -6.20    3.70
   3  -1 -15   -2.10    2.20
  -3   1 -15   -2.60    3.90
  -3   1 -15   -0.40    2.10
   3  -2  15   62.09    5.40
  -3  -2 -15   58.09    4.70
  -3  -2 -15   56.09    7.80
   3   2 -15   56.59    4.60
  -3   2 -15   56.69    4.70
   3  -2 -15   54.39    5.00
   3  -2 -15   51.19    7.30
  -3   2 -15   49.00    7.60
  -3  -3 -15   -0.10    2.00
   3  -3  15   -7.00    4.50
   3   3 -15    0.70    2.30
   3  -3  15   -1.10    2.30
   3  -3 -15   -0.90    2.40
  -3  -3  15   -1.30    2.00
  -3   3 -15   -4.30    2.30
   3   4 -15   45.30    4.50
  -3  -4 -15   49.20    4.70
   3  -4  15   44.30    7.30
  -3  -4  15   41.60    7.60
   3  -4 -15   40.70    4.30
  -3   4 -15   46.80    4.90
  -3  -4  15   48.20    4.80
   3   5 -15   -2.70    2.40
   3  -5  15   -6.30    5.30
   3  -5 -15   -3.80    2.90
  -3   5 -15    0.60    2.80
   3   6 -15   24.10    3.60
  -3   6 -15   23.30    3.70
  -3   0 -16   86.99    9.70
   3   0 -16   79.99    9.50
   3   0 -16   96.89    6.20
  -3   0 -16  100.09    6.20
   3   1 -16  260.17   12.30
   3   1 -16  243.38   19.30
   3  -1  16  277.17   14.00
  -3  -1 -16  263.87   19.40
  -3  -1 -16  264.97   12.30
  -3   1 -16  253.27   12.30
   3  -1 -16  258.87   12.50
  -3   1 -16  261.37   19.30
   3  -1 -16  251.87   19.00
   3   2 -16   43.00    4.60
   3  -2  16   52.39    5.20
  -3  -2 -16   46.00    7.80
  -3  -2 -16   47.10    4.70
   3  -2 -16   45.70    4.90
  -3   2 -16   45.50    7.70
   3  -2 -16   36.80    6.30
  -3   2 -16   45.00    4.80
  -3  -3 -16  208.88   10.60
   3   3 -16  222.68   10.70
   3  -3 -16  219.28   11.00
  -3   3 -16  209.78   10.80
   3   4 -16   48.70    5.00
  -3  -4 -16   50.99    5.10
   3  -4  16   40.20    7.90
   3  -4 -16   54.19    5.50
  -3   4 -16   48.80    5.20
   3   5 -16  160.28    8.70
  -3  -5  16  145.39   14.60
  -3   0 -17    0.60    2.50
   3   0 -17   -0.90    2.80
  -3   0 -17   -4.10    4.90
  -3  -1 -17   18.10    5.90
  -3  -1 -17   25.80    3.50
   3   1 -17   11.60    6.10
   3   1 -17   27.10    3.70
   3  -1 -17   21.30    3.50
   3  -1 -17   13.20    5.70
  -3   1 -17   20.00    6.00
  -3   1 -17   23.90    3.50
  -3  -2 -17   -0.30    2.40
   3   2 -17    0.40    2.80
  -3   2 -17   -4.30    4.90
   3  -2 -17   -1.90    2.70
  -3   2 -17   -2.60    2.70
   3   3 -17   14.90    3.30
  -3  -3 -17   14.00    3.30
   3  -3 -17   11.90    3.40
  -3   3 -17   14.40    3.40
   3   4 -17   -3.10    2.80
   3  -4 -17   -3.70    3.00
  -3   4 -17    0.50    3.10
  -3   0 -18   -5.60    2.60
   3   0 -18   -1.40    3.00
   3   1 -18   29.80    4.20
  -3  -1 -18   37.10    4.20
   3  -1 -18   37.20    4.50
  -3   1 -18   28.80    4.00
  -3  -2 -18   -5.00    2.50
   3   2 -18   -2.30    2.90
  -3   2 -18   -1.10    3.00
   3  -2 -18   -1.30    2.90
  -3  -3 -18   28.80    4.10
   3   3 -18   25.60    4.10
  -3   3 -18   24.00    4.20
   3  -3 -18   28.50    4.40
  -4   0   0  327.37   20.90
  -4   0   0  336.47   21.20
   4   0   0  278.87   21.00
   4   0   0  284.47   20.60
  -4   0   0  321.07   20.80
   4   0   0  300.07   21.00
   4   0   0  311.57   20.30
  -4  -1   0  550.84   35.60
  -4   1   0  513.85   35.10
  -4  -1   0  475.35   21.80
  -4  -1   0  619.24   34.50
   4   1   0  465.85   34.50
   4  -1   0  569.74   34.30
   4   1   0  616.34   34.40
  -4   1   0  564.44   34.10
  -4   1   0  475.35   34.40
   4   2   0  363.76   22.90
  -4  -2   0  314.47   23.80
  -4   2   0  388.86   23.00
  -4  -2   0  344.57   25.40
   4  -2   0  374.66   16.60
   4   2   0  360.86   23.40
  -4  -2   0  384.46   22.80
   4  -2   0  385.66   22.80
  -4   2   0  373.36   23.20
   4   2   0  399.46   23.10
   4  -2   0  303.27   24.80
   4   2   0  358.66   17.00
  -4   3   0  629.94   37.20
   4   3   0  581.34   27.40
  -4   3   0  614.34   27.00
   4  -3   0  597.24   27.10
  -4  -3   0  557.44   40.90
  -4   4   0  260.97   11.60
   4   4   0  205.38   16.90
   4  -4   0  192.88   20.60
   4  -4   0  259.47   11.80
  -4   4   0  260.77   15.50
   4   4   0  258.37   12.00
  -4  -4   0  231.68   20.30
   4   5   0  250.37   17.30
  -4   5   0  277.47   16.40
   4  -5   0  261.47   12.60
  -4  -5   0  234.28   22.40
  -4  -5   0  238.28   12.60
   4  -6   0   78.29   15.70
   4  -6   0  131.39    7.30
  -4  -6   0  119.79    6.30
  -4  -6   0  112.79   16.40
   4  -7   0  194.78   11.00
  -4  -7   0  203.88   22.90
   4  -7   0  180.98   25.70
  -4  -8   0   81.89   16.90
   4  -8   0   48.40   17.80
   4  -8   0   65.39    6.50
   4  -9   0   69.99    7.40
  -4  -9   0   73.19   19.20
  -4 -10   0   16.50   16.90
   4 -10   0    7.80   19.20
   4   0  -1  145.29   12.20
  -4   0   1  166.38   12.50
   4   0   1  144.39   12.10
  -4   0   1  178.38   12.10
   4   0  -1  184.88   12.10
  -4   0  -1  178.78   11.90
   4   0   1  169.78   11.90
   4   0  -1  172.68    7.70
   4   0  -1  197.48   12.50
  -4   0  -1  148.69   11.90
   4   0   1  187.48   12.20
  -4   0  -1  201.18   12.20
   4   1  -1 2279.17  127.69
   4   1  -1 2095.99   80.19
   4   1  -1 1678.23  129.99
  -4   1   1 2162.68  127.59
   4   1  -1 2191.58  126.69
   4   1  -1 2014.50   91.49
  -4  -1  -1 2141.69  127.39
  -4   1   1 2052.69  129.19
  -4   1   1 1772.82  126.89
  -4  -1  -1 2095.99  127.79
   4  -1   1 1854.11  126.49
   4   1  -1 1959.90  127.39
   4  -1  -1 2208.18  127.39
  -4   1  -1 2032.80   92.89
  -4  -1   1 1980.20  129.79
  -4   1  -1 2038.20  127.19
   4   1   1 1808.82  126.99
  -4  -1   1 2207.88  127.59
   4  -1  -1 2149.28  126.89
   4   1   1 2089.99  127.59
   4   1   1 1864.91  128.09
  -4  -1   1 2223.18  126.79
  -4   1  -1 2151.68  126.59
  -4  -2  -1  138.19    8.70
   4   2  -1  132.39   10.00
   4  -2   1  135.59    6.40
   4   2  -1  128.09    8.50
  -4  -2  -1  105.49   11.90
  -4  -2  -1  134.79    8.60
  -4   2   1  121.59    8.90
   4   2  -1  136.79    5.50
   4   2  -1  131.59    6.50
   4   2  -1  120.39    8.60
  -4   2  -1  109.99    9.70
   4  -2  -1  135.69    8.40
   4   2   1  111.19    9.20
  -4  -2   1  125.99    8.30
   4   2   1  130.59    8.40
  -4  -2   1  133.89   10.60
   4  -2  -1  128.19    6.20
  -4  -2   1  128.59    8.60
  -4  -2   1  124.39    6.50
  -4  -2   1  133.29    8.80
   4   2   1  114.39    9.60
  -4   2  -1  125.59    6.30
  -4  -2   1  143.09    5.40
   4   2   1  130.49    8.40
   4  -3   1 1572.84   95.09
   4   3  -1 1553.54   96.09
   4   3  -1 1569.44   60.19
   4  -3   1 1571.14   69.09
   4   3  -1 1540.45   95.79
  -4   3   1 1581.94   95.19
  -4  -3  -1 1536.85   70.29
   4   3  -1 1525.85   69.19
  -4   3   1 1587.34   68.79
  -4  -3  -1 1406.66  100.89
  -4  -3   1 1480.15   99.49
  -4   3  -1 1587.84   95.19
  -4  -3   1 1527.05   69.19
   4   3   1 1437.46   69.29
  -4  -3   1 1591.54   95.09
   4  -3  -1 1556.54   68.89
   4   4  -1  110.09    8.60
  -4  -4  -1  116.09   14.40
  -4  -4  -1  111.29    6.20
   4  -4   1  110.79    6.10
  -4   4   1  117.59    5.80
   4   4  -1  111.29    7.40
   4  -4  -1  113.39    6.00
  -4  -4   1  109.49    6.30
  -4   4  -1  115.99    5.90
  -4  -4   1  104.89   11.80
  -4   4  -1  118.69    7.70
   4  -4  -1   87.09   14.90
   4   4   1  109.89    6.30
   4   5  -1  770.82   49.40
  -4   5   1  816.82   35.70
  -4  -5  -1  752.42   56.29
  -4  -5  -1  781.02   36.10
   4  -5   1  775.12   36.00
  -4  -5   1  771.12   36.20
  -4  -5   1  731.43   54.19
   4  -5  -1  792.42   36.10
  -4   5  -1  854.61   48.90
  -4  -6  -1   42.80   11.80
   4  -6   1   49.40    4.10
   4  -6   1   34.60   10.70
  -4  -6  -1   38.20    3.10
   4  -6  -1   41.40    4.30
  -4  -6   1   46.40    4.50
   4  -6  -1   15.30   11.10
  -4  -6   1   53.69   10.30
  -4  -7  -1  403.56   36.20
   4  -7   1  389.46   19.40
  -4  -7   1  359.76   32.90
   4  -7  -1  403.96   19.70
  -4  -8  -1   41.40   14.90
   4  -8   1   32.40    4.30
   4  -8   1   11.90   14.00
  -4  -8   1   40.30   12.80
   4  -8  -1   10.00   16.20
   4  -8  -1   35.50    4.60
  -4  -9  -1  156.08   26.80
   4  -9   1  136.79   10.20
  -4  -9   1  136.09   23.90
   4  -9  -1  156.28   10.70
   4 -10   1   -1.30   17.10
  -4 -10  -1   13.60   16.90
   4 -10  -1    1.40   20.00
  -4 -10   1    9.40   15.20
   4   0   2 2160.68  124.49
   4   0  -2 2028.50   89.09
   4   0  -2 1951.20  123.49
   4   0  -2 1791.62  124.99
   4   0   2 2133.39  123.79
   4   0  -2 2102.79  124.49
  -4   0  -2 2125.39   90.59
  -4   0  -2 1985.10  123.49
   4   0  -2 2045.10   78.19
  -4   0  -2 1977.00  123.69
  -4   0   2 1916.81  125.09
   4   0   2 1954.30  123.49
  -4   0   2 2175.58  123.89
  -4   0   2 1919.61  123.49
  -4   0   2 1802.92  124.39
  -4   0  -2 1910.91  124.79
   4   0  -2 2003.40  123.79
   4   0   2 1917.71   90.49
  -4   1   2  168.58   11.40
   4  -1   2  167.28   11.60
   4  -1   2  180.68   11.40
  -4  -1  -2  182.08    8.60
   4   1  -2  169.88   12.10
  -4  -1  -2  172.08   11.10
  -4   1   2  181.88   11.20
   4   1  -2  174.08    7.20
   4   1  -2  160.88   11.40
   4  -1   2  164.68   11.90
   4   1  -2  178.28   11.70
   4  -1   2  169.48    8.40
   4   1  -2  176.48    8.20
  -4  -1   2  162.58   11.70
  -4   1  -2  172.18    8.30
   4  -1  -2  159.98   11.20
   4  -1  -2  171.18    7.70
  -4  -1   2  163.48    8.10
  -4   1  -2  181.18   11.40
  -4  -1   2  159.08   11.90
  -4  -1   2  178.48   11.50
  -4  -1   2  170.28   11.40
  -4   1  -2  182.78   11.60
   4  -1  -2  173.58   11.10
   4   1   2  167.18   11.20
   4   1   2  176.48   11.40
  -4   1  -2  175.28   11.80
  -4  -2  -2 4419.66  258.27
  -4   2   2 3927.61  258.47
   4  -2   2 3921.91  258.77
  -4  -2  -2 4217.48  190.58
   4  -2   2 4018.70  189.18
  -4  -2  -2 4297.47  257.97
   4   2  -2 3598.44  261.07
   4   2  -2 4211.78  257.97
   4   2  -2 4284.97  186.48
   4   2  -2 4253.07  163.18
  -4   2   2 4441.66  186.08
   4   2  -2 4199.08  258.77
   4   2  -2 4219.08  260.07
   4  -2   2 4530.55  259.97
  -4   2  -2 3945.81  260.77
   4   2   2 4285.07  258.07
   4  -2  -2 4218.08  186.08
   4   2   2 4162.08  259.87
  -4   2  -2 4366.56  188.98
  -4  -2   2 4051.89  264.77
  -4  -2   2 4090.19  186.38
  -4   2  -2 4177.28  257.87
  -4  -2   2 4320.97  257.97
  -4   2  -2 4276.17  258.27
  -4  -2   2 4247.98  259.97
   4  -2  -2 4211.48  257.87
  -4  -3  -2  118.79    5.90
   4   3  -2  115.29    5.90
   4   3  -2  115.59    7.50
  -4   3   2  117.29    5.40
   4  -3   2  115.59    7.50
   4   3  -2  112.59    8.20
   4  -3   2  104.29    8.70
  -4  -3  -2   99.39   13.80
   4  -3   2  109.19    5.90
   4   3  -2  113.19    4.70
   4  -3  -2   77.89   12.80
  -4  -3   2  115.99   10.40
  -4   3  -2  107.49    8.80
  -4   3  -2  110.59    7.60
  -4  -3   2  113.39    7.60
   4   3   2   98.59    6.20
   4   3   2  116.59    8.10
  -4  -3   2  109.19    5.90
  -4  -3   2   90.19    8.80
   4  -3  -2  121.19    5.70
   4   4  -2  988.90   61.89
   4   4  -2  975.50   61.79
   4  -4   2  994.70   44.90
  -4   4   2 1035.20   44.50
  -4  -4  -2  871.21   68.29
   4   4  -2  977.10   38.80
   4  -4   2 1017.70   61.29
  -4  -4  -2  969.90   45.20
  -4   4  -2 1050.39   61.49
  -4   4  -2  952.60   63.29
   4  -4  -2 1023.50   44.80
  -4   4  -2  981.40   61.79
  -4  -4   2  970.00   44.90
  -4  -4   2 1029.00   61.29
  -4  -4   2  982.50   65.89
  -4   5   2   91.49    4.80
   4   5  -2   85.19    3.70
   4   5  -2   84.19    6.80
   4  -5   2   53.89   10.80
  -4  -5  -2   91.39   16.20
  -4  -5  -2   86.09    4.70
   4   5  -2   79.89    5.90
   4  -5   2   86.79    5.30
   4  -5  -2   87.19    5.40
  -4  -5   2   80.59    5.30
  -4   5  -2   81.09    7.80
  -4   5  -2   84.19    5.90
  -4  -5   2   81.89   11.40
   4  -6   2 1066.99   48.40
  -4  -6  -2 1041.50   76.09
  -4  -6  -2 1072.59   48.00
  -4  -6   2 1003.00   71.99
  -4   6  -2 1027.60   67.39
  -4   6  -2 1091.79   65.89
  -4  -6   2 1015.10   48.40
   4  -6  -2 1101.49   48.60
  -4  -7  -2   38.10   14.00
   4   7  -2   54.89    7.60
   4   7  -2   43.00    4.00
   4  -7   2   38.50    4.60
   4  -7   2   36.60   12.60
   4  -7  -2   28.50   16.00
  -4  -7   2   47.10   11.20
  -4  -7   2   51.89    5.00
   4  -7  -2   43.30    5.40
  -4   7  -2   37.90    4.00
  -4  -8  -2  206.08   28.60
   4   8  -2  198.48   13.20
   4  -8   2  196.58   11.60
  -4  -8   2  204.38   23.40
  -4   8  -2  194.38   14.20
   4  -8  -2  145.09   28.10
  -4  -9  -2   28.70   18.00
   4  -9   2    2.50   13.70
  -4  -9   2   18.90   13.40
   4  -9  -2    1.60   18.20
  -4 -10  -2  167.68   30.10
   4 -10  -2   71.49   26.90
  -4 -10   2  122.49   23.30
   4   0   3  645.84   42.40
   4   0   3  646.84   31.10
   4   0   3  716.53   42.60
  -4   0   3  633.74   30.30
   4   0  -3  692.63   42.80
   4   0  -3  700.83   42.40
  -4   0  -3  678.63   42.60
   4   0  -3  681.43   43.30
   4   0  -3  678.03   42.60
   4   0   3  717.93   42.70
  -4   0  -3  668.33   42.40
   4   0  -3  680.83   30.40
  -4   0   3  687.93   42.80
  -4   0   3  718.93   42.70
  -4   0   3  630.74   42.40
  -4   0  -3  674.73   42.70
  -4   0   3  716.23   43.30
   4   0  -3  681.73   26.90
  -4   0  -3  679.43   31.20
   4   1  -3  350.26   14.00
  -4  -1  -3  339.17   21.90
   4   1  -3  343.57   22.20
   4  -1   3  331.27   16.10
   4   1  -3  350.66   15.90
  -4   1   3  345.87   22.00
  -4  -1  -3  350.16   16.30
   4  -1   3  351.96   22.20
  -4   1   3  362.66   22.80
  -4   1   3  349.47   22.00
   4   1  -3  362.96   22.60
   4  -1   3  352.16   22.50
   4  -1   3  366.76   22.10
   4   1  -3  333.67   22.10
   4  -1  -3  343.47   21.90
   4   1   3  357.06   22.00
   4   1   3  361.56   22.60
  -4  -1   3  349.87   22.20
   4   1   3  347.27   16.30
  -4   1  -3  354.96   16.20
   4  -1  -3  356.86   14.30
   4  -1  -3  296.07   22.80
   4   1   3  344.87   22.00
  -4  -1   3  342.97   15.80
  -4  -1   3  366.16   22.60
  -4   1  -3  349.57   22.10
  -4  -1   3  342.87   22.10
  -4   1  -3  350.56   22.20
  -4  -1   3  361.46   22.30
  -4  -2  -3  540.15   32.40
   4   2  -3  506.25   32.70
   4   2  -3  540.95   33.80
  -4  -2  -3  527.05   24.10
   4   2  -3  516.45   33.00
   4   2  -3  526.05   32.90
   4  -2   3  463.55   33.50
   4   2  -3  477.45   20.70
   4  -2   3  523.75   23.90
   4  -2   3  544.25   33.00
   4   2  -3  552.54   23.90
   4  -2   3  539.85   32.90
  -4   2  -3  568.44   33.50
  -4  -2   3  530.45   33.10
  -4   2  -3  534.25   32.90
   4  -2  -3  533.25   21.40
  -4  -2   3  516.55   32.90
  -4  -2   3  541.65   32.80
  -4  -2   3  519.05   23.70
  -4   2  -3  537.05   32.70
   4   2   3  472.85   33.40
   4   2   3  523.85   32.60
  -4  -2   3  447.06   33.60
   4   2   3  526.15   32.60
   4   2   3  542.85   24.30
  -4  -3  -3  252.57   12.30
   4  -3   3  253.17   17.00
   4   3  -3  250.77   16.80
   4  -3   3  251.47   12.30
  -4   3   3  260.57   11.80
   4   3  -3  262.07   10.40
   4   3  -3  260.57   17.90
   4  -3   3  263.87   16.50
  -4  -3  -3  262.57   10.20
   4  -3   3  242.98   12.00
   4   3  -3  258.67   16.60
   4   3  -3  262.57   12.30
   4  -3  -3  268.07   12.20
   4   3   3  264.67   16.40
  -4   3  -3  266.17   17.30
  -4  -3   3  265.87   19.10
  -4  -3   3  260.17   16.50
  -4  -3   3  252.37   17.20
  -4   3  -3  263.97   16.50
   4  -3  -3  211.88   22.90
  -4  -3   3  239.08   12.20
   4  -4   3  355.76   16.90
  -4  -4  -3  301.97   30.80
   4   4  -3  367.26   23.60
  -4   4   3  380.36   16.80
   4  -4   3  374.86   17.40
   4   4  -3  390.66   14.70
   4  -4   3  345.07   24.00
   4   4  -3  373.36   23.30
   4   4  -3  356.56   24.90
   4  -4   3  378.16   23.20
  -4  -4  -3  373.76   17.20
   4  -4  -3  319.67   32.80
   4  -4  -3  398.66   17.50
  -4  -4   3  365.96   26.70
  -4  -4   3  370.96   23.20
  -4  -4   3  356.46   17.30
  -4   4  -3  394.16   24.30
  -4  -4   3  325.87   24.20
  -4   5   3  158.08    7.80
   4   5  -3  149.39   12.40
  -4  -5  -3  125.19   20.50
   4   5  -3  158.18   10.50
  -4  -5  -3  155.38    7.80
   4  -5   3  156.48    8.40
   4  -5   3  116.59   16.30
   4   5  -3  154.78   11.00
   4   5  -3  166.88    6.60
   4  -5  -3  129.69   23.90
  -4   5  -3  169.78   11.60
  -4  -5   3  156.48   15.40
  -4   5  -3  158.18   10.50
  -4  -5   3  149.99    8.40
   4  -5  -3  168.78    8.80
   4   6  -3  208.18    8.50
   4   6  -3  206.68   13.60
   4   6  -3  202.28   15.60
  -4  -6  -3  193.98   25.90
   4  -6   3  154.18   20.70
   4  -6   3  204.08   10.90
   4  -6  -3  159.68   29.30
  -4   6  -3  215.48   14.60
   4  -6  -3  230.88   11.60
  -4  -6   3  197.08   10.90
  -4   6  -3  212.38   13.70
  -4  -6   3  198.58   19.60
   4   7  -3   77.39    8.30
  -4  -7  -3   83.49   19.10
   4   7  -3   80.09    6.20
   4  -7   3   74.39    6.00
   4  -7   3   56.49   14.10
  -4  -7   3   75.69    6.00
  -4  -7   3   82.99   14.30
  -4   7  -3   76.79    7.10
   4  -7  -3   67.69   20.90
  -4   7  -3   81.19    6.30
   4  -8   3   66.39   17.40
   4   8  -3  113.29    8.10
   4  -8   3  102.99    7.80
  -4  -8  -3  118.09   24.10
  -4  -8   3   92.69   16.50
   4  -8  -3  103.69   25.90
  -4  -8   3  107.99    7.80
  -4   8  -3  106.89    8.80
  -4  -9  -3   50.89   20.50
   4  -9   3   12.10   14.40
   4  -9  -3   36.50   22.00
  -4  -9   3   34.40   13.70
  -4 -10  -3   47.90   22.00
   4 -10   3   13.00   17.00
  -4 -10   3   36.80   16.70
   4 -10  -3   47.30   25.90
  -4   0   4 4218.98  261.27
   4   0   4 4085.79  258.97
  -4   0   4 3846.02  259.17
   4   0  -4 4006.10  258.87
  -4   0   4 3698.03  186.68
   4   0   4 4564.84  259.47
  -4   0   4 4669.63  260.97
   4   0   4 4155.98  260.57
  -4   0   4 4441.86  258.77
  -4   0  -4 4072.39  258.97
  -4   0  -4 4327.37  258.57
  -4   0  -4 4083.89  189.88
   4   0  -4 4620.54  261.07
  -4   0  -4 4222.08  261.67
   4   0  -4 3959.00  163.78
   4   0  -4 4303.97  258.47
   4   0  -4 4383.46  260.47
   4   0   4 3845.42  189.98
   4   1  -4  192.58    7.90
  -4   1   4  186.28   12.30
   4  -1   4  185.28   12.60
  -4   1   4  184.08   12.30
   4   1  -4  191.78   12.50
  -4  -1  -4  177.68   12.80
  -4  -1  -4  186.88   12.10
   4  -1   4  190.08   12.50
   4   1  -4  187.28   12.40
   4   1  -4  194.68   12.70
  -4  -1  -4  188.28    9.20
   4   1  -4  193.28   12.60
  -4   1   4  189.28   12.70
   4  -1   4  184.28    9.10
  -4   1   4  164.68   13.40
   4   1  -4  189.98    8.90
   4   1   4  182.78    9.20
   4   1   4  189.28   12.30
  -4  -1   4  188.68   12.50
   4  -1  -4  189.68   12.30
   4  -1  -4  188.28    8.00
  -4  -1   4  193.88   12.60
  -4  -1   4  198.58   12.80
  -4   1  -4  187.78    9.10
   4   1   4  197.68   12.70
  -4  -1   4  182.38    8.80
   4   1   4  191.18   12.30
  -4  -1   4  187.38   12.50
   4  -1  -4  176.88   13.00
  -4   1  -4  199.58   12.50
  -4   1  -4  187.58   12.40
   4   2  -4 1445.86   91.89
   4   2  -4 1452.15   91.39
  -4  -2  -4 1467.95   66.59
   4   2  -4 1445.56   57.39
   4  -2   4 1388.76   66.39
   4   2  -4 1520.35   65.69
  -4  -2  -4 1509.95   90.39
   4  -2   4 1456.95   91.79
   4  -2   4 1466.75   90.89
  -4   2   4 1577.64   91.39
   4  -2   4 1465.45   90.69
   4   2  -4 1401.46   90.89
   4  -2   4 1513.95   91.49
   4   2  -4 1413.06   90.69
  -4  -2   4 1461.05   90.79
  -4  -2   4 1418.46   90.89
   4   2   4 1478.15   91.09
   4   2   4 1427.26   90.49
   4   2   4 1482.55   66.69
   4  -2  -4 1492.55   57.79
  -4   2  -4 1482.75   91.69
   4  -2  -4 1472.75   90.39
  -4   2  -4 1438.86   90.69
  -4  -2   4 1501.55   91.49
  -4  -2   4 1427.86   65.49
  -4   2  -4 1464.35   90.89
  -4  -2   4 1465.85   92.09
   4   3  -4  143.89    9.90
  -4   3   4  149.69    6.90
   4   3  -4  156.28    7.60
   4  -3   4  139.89    7.20
   4   3  -4  157.08   10.90
   4   3  -4  144.69    6.30
   4  -3   4  153.18    9.90
   4  -3   4  132.69    9.90
   4  -3   4  149.59    7.70
   4   3  -4  143.19   10.30
   4  -3   4  117.89   10.60
   4  -3   4  151.38   10.40
  -4  -3  -4  146.89    7.40
  -4  -3  -4  149.69    6.10
  -4  -3   4  148.49   10.00
   4   3   4  149.09    9.70
  -4  -3   4  153.08   12.60
   4   3   4  151.98    7.70
  -4   3  -4  150.58   10.40
  -4   3  -4  143.39   10.00
  -4  -3   4  150.38    9.80
  -4  -3   4  148.39    7.40
   4  -3  -4  152.38    7.40
   4   4  -4 1941.91  121.49
   4  -4   4 1950.40  120.49
   4   4  -4 2014.40  122.59
   4  -4   4 1923.71  120.99
  -4  -4  -4 1938.01   88.39
   4   4  -4 2072.29   76.19
   4   4  -4 1897.91  120.69
  -4   4   4 1963.50   86.89
   4  -4   4 1914.21   88.09
   4  -4   4 1848.52   87.59
   4  -4  -4 1851.11  130.29
  -4  -4   4 1910.61   87.39
   4   4   4 2009.00  120.29
  -4  -4   4 1912.11  125.89
  -4  -4   4 1969.20  121.19
  -4   4  -4 2041.50  121.99
  -4  -4   4 1958.60  120.49
   4  -5   4   82.29    6.50
   4   5  -4   86.29    3.90
   4   5  -4   80.49    7.70
   4  -5   4   87.09    7.80
  -4   5   4   73.69    4.30
  -4   5   4   83.39    4.60
  -4  -5  -4   87.99   18.00
   4  -5   4   81.99    5.30
   4   5  -4   79.89    6.80
   4  -5   4   55.59   10.80
   4   5  -4   80.09    6.10
  -4   5  -4   87.59    6.90
  -4  -5   4   78.79    5.20
  -4  -5   4   80.99    6.30
   4  -5  -4  108.79   19.90
  -4  -5   4   79.69   10.90
   4  -6   4  426.76   21.40
   4   6  -4  470.15   30.10
   4   6  -4  438.76   28.50
  -4  -6  -4  410.46   41.50
   4   6  -4  475.25   17.90
  -4   6  -4  445.26   29.20
  -4  -6   4  433.56   21.40
   4  -6  -4  421.86   44.70
  -4  -6   4  445.56   34.30
  -4  -7  -4   66.49   19.50
   4   7  -4   47.70    6.50
   4  -7   4   24.80   11.40
   4   7  -4   49.80    4.90
   4  -7   4   46.50    4.90
  -4   7  -4   54.39    5.70
   4  -7  -4   68.39   22.20
  -4  -7   4   49.20   10.80
  -4  -7   4   47.30    5.00
   4  -8   4  342.37   18.70
  -4  -8  -4  374.66   41.80
   4  -8  -4  464.75   47.70
  -4  -8   4  369.16   32.50
  -4  -8   4  352.86   18.80
  -4  -9  -4   24.80   20.00
   4  -9   4    0.40   12.50
   4  -9  -4   38.50   23.00
  -4  -9   4   23.10   12.50
  -4 -10  -4  126.19   30.70
   4 -10  -4  113.29   34.70
   4   0  -5   62.09    4.90
  -4   0   5   59.89    4.70
   4   0   5   56.99    4.60
  -4   0   5   56.99    4.90
  -4   0   5   58.99    4.90
   4   0   5   58.99    4.80
   4   0  -5   63.69    5.30
   4   0  -5   56.39    5.00
  -4   0  -5   60.89    4.80
   4   0   5   59.09    3.50
  -4   0   5   61.59    5.10
   4   0  -5   57.79    3.10
  -4   0  -5   68.09    4.70
   4   0  -5   62.49    4.90
  -4   0   5   60.29    3.00
   4   0   5   63.89    5.00
  -4   0  -5   63.49    5.00
  -4  -1  -5 1340.47   84.79
   4  -1   5 1295.57   61.79
   4  -1   5 1337.07   84.49
   4   1  -5 1345.97   53.49
  -4  -1  -5 1439.36   84.79
   4   1  -5 1320.77   84.39
   4   1  -5 1306.57   84.49
  -4   1   5 1362.66   84.49
   4   1  -5 1391.86   85.19
   4  -1   5 1393.96   84.49
   4   1  -5 1350.16   85.29
  -4   1   5 1344.87   84.89
   4   1  -5 1482.35   60.99
  -4   1   5 1493.15   85.99
  -4  -1  -5 1317.57   61.89
   4  -1   5 1372.96   85.19
   4   1   5 1287.47   61.89
   4  -1  -5 1404.66   84.79
  -4  -1   5 1364.06   85.29
  -4  -1   5 1309.57   84.49
   4   1   5 1316.57   84.29
  -4  -1   5 1355.66   84.49
  -4  -1   5 1351.46   60.79
   4   1   5 1403.06   84.89
  -4   1  -5 1374.76   85.19
  -4  -1   5 1396.06   85.29
   4  -1  -5 1345.57   53.59
  -4   1  -5 1377.56   84.49
   4  -1  -5 1339.17   84.29
  -4   1  -5 1311.27   84.39
   4  -2   5  102.09    7.30
   4   2  -5   97.89    7.40
   4   2  -5   98.69    4.50
   4   2  -5   93.29    7.40
  -4   2   5   97.69    7.40
   4  -2   5  100.99    7.30
   4  -2   5   95.89    5.10
   4  -2   5   98.09    7.30
   4  -2   5  103.19    7.40
   4   2  -5  100.39    5.30
  -4  -2  -5   99.69    5.30
  -4  -2  -5   98.69    6.70
   4   2  -5   94.29    7.10
   4   2   5   99.29    6.70
  -4   2  -5   93.59    7.10
   4  -2  -5   99.69    6.70
  -4  -2   5   94.89    7.40
  -4  -2   5   95.99    5.10
  -4   2  -5  100.09    7.30
  -4  -2   5   97.79    7.30
  -4  -2   5  102.49    7.60
   4  -2  -5   94.19    4.80
  -4   2  -5   98.89    7.20
   4   2   5   96.79    6.90
  -4  -2   5   98.19    7.10
   4   2   5  100.99    5.40
   4  -3   5  824.22   40.70
   4   3  -5  893.91   56.79
   4  -3   5  897.31   56.09
   4   3  -5  896.71   55.99
  -4   3   5  938.91   56.19
  -4  -3  -5  908.41   35.20
   4   3  -5  873.71   56.19
   4   3  -5  927.01   40.70
   4  -3   5  880.41   40.80
  -4   3   5  881.11   40.00
   4   3  -5  925.71   35.30
   4  -3   5  833.82   56.69
   4  -3   5  927.31   56.29
  -4  -3  -5  888.51   41.00
  -4  -3   5  917.81   55.89
  -4  -3   5  836.62   56.99
  -4   3  -5  910.91   56.59
   4   3   5  908.41   41.20
  -4   3  -5  898.41   55.89
   4   3   5  890.21   55.49
  -4  -3   5  894.21   56.19
  -4  -3   5  894.81   40.50
   4  -3  -5  915.81   36.00
  -4   4   5   47.00    2.90
   4   4  -5   40.90    4.70
   4  -4   5   47.10    4.50
   4   4  -5   39.30    4.90
   4  -4   5   53.49    5.20
   4   4  -5   42.60    4.10
   4   4  -5   42.10    2.70
  -4  -4  -5   49.70    2.50
   4  -4   5   40.90    3.60
   4  -4   5   43.20    2.90
  -4  -4   5   42.10    3.50
   4  -4  -5   42.90    4.40
  -4  -4   5   44.70    8.20
  -4   4  -5   50.09    4.60
   4   4   5   47.60    3.80
  -4  -4   5   42.50    4.50
  -4  -4   5   44.10    5.50
   4  -5   5  620.34   28.60
   4   5  -5  643.64   24.80
  -4   5   5  636.64   28.40
   4  -5   5  649.93   40.00
   4   5  -5  605.44   39.60
   4  -5   5  654.93   39.40
   4  -5   5  587.44   29.10
   4   5  -5  601.54   39.50
   4   5  -5  616.84   40.50
  -4   5  -5  654.53   40.10
  -4  -5   5  609.94   43.90
  -4  -5   5  618.54   39.30
  -4  -5   5  597.04   28.90
  -4  -5   5  620.34   40.30
   4  -6   5   29.10   10.20
   4   6  -5   39.60    5.80
   4  -6   5   49.30    5.20
   4   6  -5   44.10    4.60
   4  -6   5   42.40    4.40
  -4   6  -5   50.69    5.20
  -4  -6   5   48.70    9.50
  -4  -6   5   42.80    4.20
   4  -7   5  211.28   12.30
   4  -7   5  173.28   23.60
   4   7  -5  218.18   16.60
  -4  -7   5  240.28   22.80
  -4  -7   5  222.38   12.20
  -4   7  -5  255.77   16.20
   4  -7  -5  293.37   38.30
   4  -8   5    0.90   10.70
   4   8  -5   12.10    4.20
   4  -8   5   14.40    3.50
  -4  -8   5   17.50    3.50
   4  -8  -5   28.30   22.60
  -4  -8   5   18.10   10.20
   4  -9   5   44.70   15.80
   4 -10   5   -3.10   14.10
  -4 -10   5    6.80   13.10
  -4   0   6  204.68    9.40
  -4   0   6  203.18   13.60
  -4   0   6  206.98   13.60
  -4   0  -6  201.18   13.70
   4   0   6  206.68   13.60
   4   0   6  202.28   13.50
  -4   0  -6  205.28   13.50
  -4   0   6  195.28   13.50
   4   0   6  195.68   10.00
  -4   0  -6  211.68   13.60
   4   0  -6  204.58   13.70
   4   0  -6  200.18    8.70
   4   0  -6  203.78   13.60
   4   0  -6  218.68   14.10
  -4   0   6  216.28   14.00
   4  -1   6  442.66   29.00
   4   1  -6  475.65   29.00
   4  -1   6  429.96   21.20
  -4   1   6  486.35   29.80
  -4  -1  -6  449.66   28.80
   4   1  -6  452.95   29.10
   4   1  -6  495.55   29.50
   4   1  -6  484.65   29.30
   4  -1   6  448.96   29.10
  -4  -1  -6  448.26   29.20
  -4   1   6  442.16   29.00
  -4   1   6  458.45   29.00
   4   1  -6  450.15   18.40
   4  -1   6  444.46   29.20
   4   1   6  442.16   29.00
  -4  -1   6  477.55   29.10
  -4   1  -6  433.66   29.00
   4  -1  -6  426.36   18.50
  -4  -1   6  494.85   29.40
  -4  -1   6  488.45   20.80
  -4   1  -6  433.76   29.20
   4  -1  -6  459.15   29.20
   4   1   6  434.46   28.80
  -4  -1   6  447.96   29.00
  -4   1  -6  458.45   29.00
   4   1   6  440.66   21.30
  -4  -1   6  506.95   29.50
   4  -1  -6  441.66   28.80
  -4  -2  -6  184.28   11.70
   4   2  -6  182.38   12.20
   4  -2   6  177.38   12.30
  -4   2   6  171.48   12.10
   4   2  -6  184.18    7.70
   4   2  -6  172.48   12.30
   4  -2   6  185.58   12.40
   4  -2   6  181.68    8.80
   4  -2   6  177.68   12.20
   4   2  -6  173.28   12.10
  -4  -2  -6  154.38   12.60
   4  -2   6  188.38   12.30
   4   2  -6  183.48   12.50
   4   2  -6  202.58    9.00
  -4   2   6  169.18   13.10
  -4  -2   6  177.08   12.30
   4   2   6  183.78   11.80
  -4  -2   6  178.58    8.70
   4  -2  -6  182.58    8.00
   4  -2  -6  185.48   11.80
   4   2   6  179.18   11.90
  -4  -2   6  183.68   12.30
  -4   2  -6  191.88   12.30
   4  -2  -6  146.69   13.00
   4   2   6  176.28    9.00
  -4   2  -6  183.98   12.20
  -4  -2   6  178.28   12.30
  -4  -2   6  194.48   12.70
   4  -3   6  283.87   14.40
   4   3  -6  308.27   14.30
   4   3  -6  286.17   19.50
   4  -3   6  285.37   19.50
   4  -3   6  302.07   19.40
   4  -3   6  290.47   19.80
   4  -3   6  300.97   14.00
   4  -3   6  309.57   19.50
   4   3  -6  293.67   19.90
   4   3  -6  305.67   12.20
  -4   3   6  306.47   19.30
   4   3  -6  292.27   19.40
  -4   3   6  296.57   13.50
  -4  -3  -6  298.97   12.10
  -4  -3   6  295.27   20.10
   4  -3  -6  300.57   12.70
  -4   3  -6  301.57   19.40
  -4  -3   6  296.57   14.10
   4   3   6  299.07   19.00
  -4   3  -6  298.97   19.60
  -4  -3   6  290.77   19.60
   4   3   6  281.87   18.80
  -4  -3   6  298.77   19.40
   4   3   6  293.67   14.30
  -4  -3   6  291.37   19.30
   4   4  -6  124.19    5.60
  -4   4   6  123.49    8.80
  -4   4   6  125.59    6.00
   4  -4   6  127.49    9.00
   4   4  -6  116.29    9.40
  -4  -4  -6  122.29    5.30
   4  -4   6  118.49    6.20
   4  -4   6  125.39    8.90
   4  -4   6  113.49    6.90
   4   4  -6  114.99    8.70
   4  -4   6  122.19    9.30
   4   4  -6  119.49    9.10
  -4  -4   6  113.49    8.50
  -4   4  -6  124.89    9.00
  -4   4  -6  127.79    9.10
   4  -4  -6  123.29    6.80
  -4  -4   6  115.99    9.50
   4   4   6  132.59    6.90
  -4  -4   6  120.79    9.00
  -4  -4   6  112.09    6.60
   4   4   6  119.79    8.40
  -4   5   6  272.97   12.40
   4   5  -6  260.57   17.40
   4  -5   6  280.77   17.50
   4   5  -6  256.87   17.70
   4  -5   6  257.67   17.90
   4   5  -6  275.37   11.00
  -4  -5  -6  269.37   11.00
   4  -5   6  248.58   13.20
   4   5  -6  260.47   18.20
   4  -5   6  258.07   12.50
  -4  -5   6  265.97   22.20
  -4  -5   6  264.67   18.30
   4  -5  -6  216.38   12.80
  -4  -5   6  262.67   17.40
   4   5   6  256.87   13.30
  -4  -5   6  246.38   13.00
  -4   5  -6  268.67   17.80
   4   6  -6   77.09    6.60
   4   6  -6   71.39    7.60
   4   6  -6   89.19    4.20
   4  -6   6   87.89    8.20
   4  -6   6   92.69    7.30
   4  -6   6   78.39    5.80
   4  -6   6   50.49   12.60
  -4  -6   6   85.19   12.80
  -4  -6   6   71.49    6.90
  -4  -6   6   77.89    5.60
  -4   6  -6   87.79    7.20
  -4  -6   6   55.79    8.80
   4  -7   6   94.79    6.90
   4   7  -6   99.49    9.00
   4  -7   6   63.19   15.00
  -4  -7   6   97.29    6.80
  -4  -7   6   99.39   15.20
   4  -8   6    9.90   11.40
  -4  -8   6   37.90   11.70
   4  -9   6   30.50   14.70
   4 -10   6    0.40   14.00
  -4 -10   6   10.80   13.30
  -4   0   7  117.59    5.80
   4   0  -7  122.89    5.60
   4   0   7  119.89    8.60
   4   0  -7  124.49    8.80
   4   0   7  115.59    8.60
  -4   0   7  123.39    9.00
   4   0   7  115.99    6.40
  -4   0   7  122.39    8.80
  -4   0  -7  121.09    8.50
  -4   0  -7  124.79    8.70
  -4   0   7  119.79    8.60
   4   0  -7  123.39    8.80
  -4   0  -7  122.89    8.80
   4   0  -7  127.19    9.10
  -4  -1  -7  865.61   55.19
   4  -1   7  874.81   40.40
   4   1  -7  876.11   55.19
   4  -1   7  871.11   55.19
  -4   1   7  895.71   55.89
   4   1  -7  914.01   55.69
  -4   1   7  908.51   55.49
   4   1  -7  859.61   55.09
   4  -1   7  871.61   55.59
  -4  -1  -7  880.61   55.29
   4   1  -7  891.91   35.00
   4  -1   7  846.32   55.19
  -4   1   7  867.51   55.09
   4  -1  -7  879.01   35.10
  -4   1  -7  845.32   55.19
   4  -1  -7  871.11   54.99
  -4  -1   7  925.11   55.79
   4   1   7  895.51   55.39
   4  -1  -7  887.91   55.29
  -4  -1   7  853.61   55.19
  -4   1  -7  878.61   55.59
   4   1   7  902.21   54.99
  -4  -1   7  880.61   39.60
  -4   1  -7  891.11   55.19
  -4  -1   7  909.31   55.79
   4   1   7  846.92   40.50
  -4  -1   7  897.91   55.29
  -4  -2  -7  117.29    8.00
   4   2  -7  106.39    8.90
  -4   2   7  113.69    8.40
  -4   2   7  111.49    8.00
   4  -2   7  111.69    6.10
   4  -2   7  122.29    8.90
   4   2  -7  113.99    8.40
   4  -2   7  114.29    8.50
   4  -2   7  120.39    8.60
   4  -2   7  119.29    8.60
   4   2  -7  120.39    8.50
  -4  -2  -7  110.59    8.90
   4   2  -7  115.29    5.40
   4   2  -7  112.59    8.70
  -4   2   7  116.89    9.10
   4  -2  -7  115.29    8.10
  -4  -2   7  119.59    8.80
   4  -2  -7  101.29    9.20
  -4   2  -7  114.99    8.50
  -4  -2   7  108.79    8.50
   4   2   7  120.49    8.20
   4  -2  -7  112.49    5.60
  -4  -2   7  119.69    8.70
   4   2   7  115.09    6.30
  -4  -2   7  113.59    8.60
  -4   2  -7  114.79    8.40
   4   2   7  115.59    8.00
  -4  -2   7  115.49    6.00
  -4   2  -7  122.39    8.60
   4  -3   7  664.13   42.50
  -4   3   7  668.73   41.70
  -4   3   7  684.03   29.80
   4  -3   7  679.53   42.30
  -4  -3  -7  666.43   26.40
   4  -3   7  657.03   30.60
   4   3  -7  653.03   42.00
   4  -3   7  692.43   42.00
   4  -3   7  651.03   30.80
   4   3  -7  661.83   42.60
  -4   3   7  613.34   43.10
   4  -3   7  661.73   42.10
   4   3  -7  671.43   26.50
   4   3   7  666.53   41.50
  -4  -3   7  660.43   42.20
   4   3   7  634.04   41.60
  -4  -3   7  687.13   42.10
  -4   3  -7  680.83   42.40
  -4  -3   7  673.13   42.80
   4   3   7  661.63   30.80
  -4  -3   7  662.73   42.00
  -4  -3   7  649.93   30.30
   4  -3  -7  647.34   26.90
  -4   3  -7  652.43   41.90
   4  -4   7   72.99    4.40
   4  -4   7   66.09    6.70
   4   4  -7   75.39    4.00
  -4   4   7   70.09    6.10
   4   4  -7   68.69    6.80
   4  -4   7   84.89    6.40
   4  -4   7   81.39    6.80
   4   4  -7   72.99    6.10
  -4   4   7   82.49    4.10
  -4  -4  -7   75.19    3.70
   4  -4   7   67.39    4.90
   4   4  -7   70.29    6.60
  -4  -4   7   67.99    7.10
  -4  -4   7   68.59    6.00
   4  -4  -7   78.79    5.00
  -4   4  -7   75.69    6.30
  -4  -4   7   71.19    6.60
   4   4   7   75.49    5.90
  -4   4  -7   73.89    6.50
   4   4   7   83.29    5.10
  -4  -4   7   68.99    4.70
   4   4   7   67.89    5.30
   4  -5   7  393.56   18.40
   4  -5   7  364.76   19.00
  -4  -5  -7  408.16   16.10
   4   5  -7  383.66   25.50
  -4   5   7  412.76   18.10
   4   5  -7  387.86   16.00
   4  -5   7  388.66   25.90
   4   5  -7  382.66   26.30
   4   5   7  408.16   19.20
   4  -5  -7  381.06   17.70
  -4   5  -7  390.46   25.90
  -4  -5   7  391.66   30.00
  -4  -5   7  385.26   25.50
  -4  -5   7  383.46   18.70
   4  -6   7   46.40    4.60
   4   6  -7   50.19    3.40
   4  -6   7   58.39    6.80
   4   6  -7   46.30    6.40
  -4  -6   7   49.30    4.50
  -4  -6   7   46.30    5.70
  -4  -6   7   45.40    9.90
   4  -7   7  178.98   10.70
   4  -7   7  165.18   22.50
  -4  -7   7  199.68   20.50
  -4  -7   7  187.78   10.60
   4  -8   7   -0.10   10.40
  -4  -8   7   20.70   10.70
   4  -9   7   38.10   16.10
  -4  -9   7   82.39   16.50
   4 -10   7    1.20   14.80
  -4 -10   7   13.70   13.20
   4   0  -8 1586.74  100.09
   4   0  -8 1576.34  100.09
   4   0  -8 1709.93  101.29
  -4   0   8 1725.63  101.19
  -4   0  -8 1614.14   99.99
  -4   0  -8 1608.14  100.19
  -4   0  -8 1578.34  100.69
   4   0   8 1542.65  100.09
  -4   0   8 1547.45  100.09
   4   0  -8 1627.74   63.49
  -4   0   8 1604.14  100.89
   4   0   8 1588.54   73.39
  -4   0   8 1680.73   71.89
   4   0   8 1577.94  100.79
   4   1  -8   55.49    3.30
   4  -1   8   56.09    3.80
  -4  -1  -8   59.19    5.50
  -4   1   8   55.19    5.30
  -4  -1  -8   56.79    4.50
  -4   1   8   57.39    4.70
   4   1  -8   53.69    5.40
   4   1  -8   58.19    5.10
  -4  -1  -8   46.70    4.70
  -4   1   8   54.39    5.30
   4  -1   8   56.59    5.30
   4  -1   8   55.79    5.00
   4   1  -8   61.79    5.40
   4   1   8   56.99    4.80
  -4  -1   8   56.19    3.40
  -4   1  -8   55.99    5.30
   4  -1  -8   59.09    3.50
  -4  -1   8   55.29    5.20
   4  -1  -8   50.79    5.50
  -4   1  -8   57.29    4.90
   4   1   8   52.69    5.00
   4  -1  -8   56.79    5.20
  -4  -1   8   59.99    5.10
  -4  -1   8   54.19    5.40
  -4   1  -8   58.09    5.30
   4   1   8   56.79    3.80
   4  -2   8  591.04   37.70
  -4   2   8  575.04   37.40
   4  -2   8  600.14   38.10
   4  -2   8  586.44   27.50
  -4   2   8  587.34   37.50
   4   2  -8  600.94   38.20
  -4   2   8  626.14   38.30
   4   2  -8  598.94   37.90
   4  -2   8  608.94   37.70
   4   2  -8  588.24   37.60
  -4  -2  -8  596.84   38.00
  -4  -2  -8  570.74   37.10
  -4  -2  -8  599.04   23.80
   4   2  -8  595.44   23.80
   4   2  -8  584.04   37.70
   4  -2   8  587.34   37.90
  -4  -2   8  579.64   27.00
  -4  -2   8  611.74   37.80
  -4   2  -8  554.94   37.60
  -4  -2   8  579.74   38.00
  -4  -2   8  620.64   38.20
   4   2   8  583.74   37.50
   4   2   8  571.04   37.30
   4  -2  -8  572.34   24.00
   4   2   8  590.84   27.70
  -4   2  -8  595.04   37.90
  -4  -2   8  605.14   37.70
   4  -2  -8  613.54   38.10
   4  -3   8   54.19    5.10
  -4   3   8   53.69    5.10
   4   3  -8   49.50    5.60
   4   3  -8   49.30    4.80
   4  -3   8   58.79    5.50
   4  -3   8   52.09    3.70
  -4   3   8   56.29    3.20
  -4  -3  -8   54.49    3.10
  -4   3   8   48.40    5.70
   4  -3   8   49.40    5.40
   4  -3   8   52.49    5.30
   4  -3   8   48.80    4.10
   4   3  -8   52.49    5.90
   4   3  -8   50.09    3.30
   4   3   8   55.29    4.00
  -4  -3   8   49.00    5.50
   4   3   8   49.10    4.90
  -4  -3   8   56.09    5.60
  -4  -3   8   57.89    5.80
   4  -3  -8   55.29    3.70
  -4  -3   8   45.70    5.00
   4   3   8   53.49    4.40
  -4  -3   8   51.29    3.70
  -4   3  -8   49.90    5.40
   4   4  -8  870.61   55.29
  -4  -4  -8  877.41   34.70
   4  -4   8  860.31   55.29
   4  -4   8  802.82   55.79
   4  -4   8  903.01   55.69
   4   4  -8  872.21   55.49
   4  -4   8  882.61   40.20
  -4   4   8  857.31   56.49
   4   4  -8  863.41   34.80
  -4   4   8  917.31   39.40
   4  -4   8  870.11   40.40
   4   4  -8  909.01   56.19
   4  -4  -8  881.41   35.60
  -4  -4   8  848.22   55.39
  -4  -4   8  870.71   56.39
  -4  -4   8  847.72   39.90
  -4  -4   8  888.11   55.29
  -4   4  -8  882.71   55.19
   4   4   8  910.51   40.70
  -4   4  -8  902.91   55.69
   4   4   8  846.72   54.79
   4  -5   8   33.80    5.70
   4   5  -8   39.10    3.00
   4   5  -8   30.00    5.30
   4  -5   8   42.00    3.30
   4  -5   8   29.10    3.80
  -4  -5  -8   38.90    3.00
   4  -5  -8   36.80    4.00
  -4  -5   8   29.80    5.10
  -4  -5   8   35.50    3.70
   4   5   8   42.50    4.20
   4  -6   8  180.78   10.80
   4   6  -8  205.48    8.70
   4  -6   8  201.68   14.70
   4  -6  -8  174.28   11.20
  -4  -6   8  192.28   14.00
  -4  -6   8  188.28   10.50
  -4  -6   8  206.48   20.00
   4  -7   8   27.30    6.10
   4  -7   8   22.30    3.80
   4  -7   8   15.00   11.00
  -4  -7   8   23.50    3.60
  -4  -7   8   21.90    9.60
  -4  -7   8   22.70    4.60
   4  -8   8  142.99   23.30
  -4  -8   8  182.48   21.20
   4  -9   8   -5.20   11.70
  -4  -9   8   12.90   11.20
  -4   0  -9  239.88   16.10
   4   0  -9  243.18   10.50
  -4   0  -9  234.88   16.40
   4   0  -9  239.58   16.30
  -4   0   9  242.78   16.40
   4   0   9  246.88   12.10
   4   0  -9  236.78   16.30
  -4   0  -9  254.67   16.30
   4   0   9  232.78   16.30
  -4   0   9  239.88   11.30
  -4   0   9  243.08   16.30
  -4   0   9  242.88   16.60
   4   0   9  242.88   16.30
   4   0  -9  252.07   16.70
  -4  -1  -9   77.09    6.10
  -4  -1  -9   78.59    5.70
   4   1  -9   77.09    6.40
  -4   1   9   73.49    5.90
   4   1  -9   64.99    6.60
   4   1  -9   76.89    4.10
  -4   1   9   71.79    6.40
   4  -1   9   75.39    6.20
   4   1  -9   80.29    6.70
   4  -1   9   72.79    4.70
  -4   1   9   74.19    6.50
   4  -1   9   71.89    6.50
  -4  -1  -9   75.79    6.60
  -4   1  -9   81.59    6.50
   4  -1  -9   73.49    6.40
  -4  -1   9   72.79    6.40
  -4   1  -9   70.39    6.50
  -4  -1   9   70.49    6.50
   4  -1  -9   70.69    4.20
   4   1   9   71.79    6.00
  -4   1  -9   75.19    6.10
   4  -1  -9   71.49    6.70
  -4  -1   9   76.89    6.30
   4   1   9   67.99    6.30
  -4  -1   9   72.69    4.20
   4   1   9   75.79    4.70
   4  -2   9  245.98   17.30
  -4   2   9  266.17   17.50
  -4  -2  -9  247.68   17.50
   4   2  -9  255.37   17.20
   4  -2   9  261.87   17.70
   4  -2   9  258.27   12.60
   4  -2   9  250.77   17.30
  -4   2   9  262.17   17.10
   4   2  -9  249.88   17.30
  -4  -2  -9  248.58   16.70
   4  -2   9  263.37   17.40
   4   2  -9  256.97   10.90
  -4  -2  -9  255.67   10.90
  -4   2   9  247.98   16.90
   4  -2  -9  252.07   11.10
  -4  -2   9  254.57   12.20
  -4  -2   9  263.67   17.60
  -4   2  -9  250.17   17.20
   4   2   9  253.17   17.00
  -4   2  -9  243.98   17.20
   4   2   9  254.97   16.90
  -4  -2   9  265.77   17.40
  -4  -2   9  247.58   17.40
   4  -2  -9  246.98   17.60
  -4  -2   9  263.37   17.40
   4   2   9  265.27   12.80
  -4   3   9   64.89    3.80
   4  -3   9   58.59    6.10
   4   3  -9   49.50    6.20
   4   3  -9   68.89    6.80
   4  -3   9   63.49    5.80
   4  -3   9   59.49    6.00
   4  -3   9   60.89    4.70
  -4   3   9   57.69    6.00
  -4  -3  -9   66.19    3.60
   4   3  -9   63.29    3.70
   4  -3   9   59.69    4.20
   4   3  -9   63.29    5.70
  -4  -3   9   54.59    4.00
  -4  -3   9   59.59    5.90
  -4  -3   9   67.19    6.30
   4   3   9   50.29    5.00
  -4  -3   9   53.09    6.20
  -4   3  -9   58.19    6.10
  -4   3  -9   65.69    5.80
   4  -3  -9   65.59    4.10
   4   4  -9  165.48    7.60
   4  -4   9  162.18    9.30
   4  -4   9  164.38   12.40
  -4  -4  -9  170.38    7.50
   4  -4   9  171.08    8.70
   4   4  -9  167.38   13.00
   4  -4   9  173.88   12.50
   4   4  -9  163.28   12.30
  -4   4   9  173.58   12.70
  -4   4  -9  164.88   12.20
  -4  -4   9  166.68   12.30
  -4  -4   9  159.18    8.80
   4   4   9  154.98   11.20
  -4  -4   9  150.78   11.90
   4  -4  -9  171.48    8.30
   4  -5   9   33.10    5.70
   4  -5   9   30.60    4.00
  -4  -5  -9   40.60    3.20
  -4   5   9   33.40    3.60
   4  -5   9   45.20    3.50
   4   5  -9   39.80    3.10
  -4  -5   9   29.40    5.40
   4  -5  -9   33.90    3.90
  -4  -5   9   37.80    3.80
   4   5   9   36.30    3.70
   4   6  -9  124.29    6.00
   4  -6   9  107.39    7.60
   4  -6   9  120.29   10.50
  -4  -6   9  108.19    7.20
  -4  -6   9  110.49    9.80
  -4  -6   9  124.09   15.90
   4  -6  -9  105.59    8.30
   4  -7   9   12.60   11.00
   4  -7   9   25.70    6.10
  -4  -7   9   20.80    3.50
  -4  -7   9   25.20   10.00
  -4  -7   9   14.70    4.50
  -4  -8   9   66.39   14.80
   4  -9   9   -2.60   12.00
  -4  -9   9    7.00   11.20
  -4   0  10  484.95   31.00
   4   0 -10  456.45   30.50
   4   0  10  500.85   30.70
   4   0 -10  451.65   30.50
   4   0 -10  468.65   31.00
  -4   0  10  496.15   30.70
  -4   0  10  465.15   30.70
  -4   0 -10  475.25   30.50
  -4   0 -10  473.35   30.50
   4   0 -10  489.05   19.60
  -4   0 -10  463.85   30.60
   4   0  10  465.05   30.70
  -4   0  10  464.75   21.60
  -4   1  10   84.69    4.50
   4  -1  10   88.89    7.40
   4  -1  10   77.09    7.00
   4   1 -10   82.89    7.50
  -4   1  10   86.99    7.30
   4   1 -10   90.99    7.20
  -4   1  10   82.49    6.80
  -4  -1 -10   93.79    7.00
  -4   1  10   83.59    7.30
  -4  -1 -10   85.19    4.70
   4   1 -10   86.49    4.70
  -4  -1 -10   88.59    7.50
  -4  -1  10   88.89    7.20
  -4  -1  10   78.19    7.30
   4  -1 -10   89.69    7.70
  -4  -1  10   81.99    7.50
   4  -1 -10   82.79    4.80
  -4   1 -10   87.09    7.40
   4   1  10   81.09    6.80
  -4  -1  10   85.79    4.80
   4   1  10   83.89    7.20
   4  -1 -10   89.09    7.40
  -4   1 -10   84.99    6.90
  -4   2  10  888.01   54.29
   4  -2  10  847.42   53.79
   4  -2  10  824.52   54.09
   4  -2  10  914.31   54.59
   4   2 -10  833.22   34.00
  -4  -2 -10  821.82   53.19
   4   2 -10  843.82   54.09
   4   2 -10  852.81   53.79
  -4  -2 -10  882.31   53.99
  -4  -2 -10  859.11   34.00
  -4   2  10  842.12   53.79
  -4   2 -10  871.01   54.09
  -4  -2  10  801.42   38.50
  -4  -2  10  876.11   54.39
  -4  -2  10  851.21   53.89
   4  -2 -10  801.12   34.20
  -4  -2  10  870.91   54.29
   4   2  10  808.62   53.69
   4  -2 -10  864.91   53.99
  -4   2 -10  834.92   53.69
  -4   3  10   64.39    6.40
   4   3 -10   60.69    6.90
   4  -3  10   67.39    6.70
  -4   3  10   65.99    5.90
   4  -3  10   64.59    6.40
   4  -3  10   73.19    6.40
   4   3 -10   62.29    4.00
  -4  -3 -10   65.29    3.90
   4  -3  10   64.69    5.00
  -4   3 -10   63.69    6.60
  -4  -3  10   61.59    6.40
  -4  -3  10   58.99    4.30
   4  -3 -10   64.19    4.40
  -4  -3  10   75.79    6.80
  -4  -3  10   64.69    6.90
   4   3  10   64.79    5.60
  -4   4  10  278.67   18.30
  -4  -4 -10  259.47   11.30
   4  -4  10  263.37   13.60
   4  -4  10  259.17   18.50
   4  -4  10  253.57   18.20
   4   4 -10  261.97   18.30
   4   4 -10  256.47   11.40
  -4  -4  10  264.57   18.30
   4  -4 -10  269.07   12.00
   4   4  10  254.77   17.30
  -4  -4  10  259.77   13.00
  -4  -4  10  252.37   18.10
  -4   4 -10  262.97   18.20
   4  -5  10   44.80    4.70
  -4   5  10   40.80    5.90
   4   5 -10   44.70    3.50
   4  -5  10   47.10    6.50
  -4  -5  10   47.10    6.30
   4  -5 -10   52.79    5.00
  -4  -5  10   43.00    4.20
   4   5  10   44.50    4.40
   4  -6  10  269.07   14.90
   4  -6  10  282.87   20.20
   4   6 -10  292.27   12.30
  -4  -6  10  280.57   14.50
  -4  -6  10  287.87   25.60
  -4  -6  10  278.17   19.80
   4  -6 -10  265.17   14.30
   4  -7  10   26.40    6.40
   4  -7  10   16.90   11.80
  -4  -7  10   22.50    5.50
  -4  -7  10   33.40   11.20
   4  -8  10   32.70   15.00
  -4  -8  10   65.69   14.30
   4  -9  10    2.60   12.80
  -4  -9  10   12.10   11.60
   4   0  11   35.50    4.60
  -4   0 -11   38.60    4.30
   4   0 -11   39.40    3.30
   4   0 -11   38.20    5.40
  -4   0  11   35.60    5.10
   4   0 -11   40.00    5.30
  -4   0 -11   39.00    5.20
  -4   0  11   42.10    2.90
  -4   0 -11   39.20    3.30
  -4   0  11   33.40    5.30
   4   0  11   34.20    5.20
  -4  -1 -11  235.78   10.60
   4   1 -11  248.98   16.80
   4   1 -11  236.38   10.60
  -4   1  11  243.88   11.30
  -4   1  11  241.08   16.90
  -4   1  11  243.48   16.50
  -4  -1 -11  237.58   16.80
   4  -1  11  239.38   16.60
   4  -1  11  249.08   16.80
   4   1 -11  240.18   16.80
  -4  -1  11  231.78   11.60
   4   1  11  243.08   16.50
  -4   1 -11  245.68   16.50
  -4   1 -11  235.68   16.70
  -4  -1  11  252.27   16.90
   4  -1 -11  225.98   10.70
  -4  -1  11  239.38   16.90
  -4   2  11   16.20    2.80
   4   2 -11   14.20    4.00
  -4   2  11   12.70    3.20
  -4  -2 -11   14.70    2.00
   4   2 -11   18.90    3.10
   4  -2  11   15.20    3.90
  -4  -2 -11   18.70    3.90
   4   2 -11   12.50    2.00
  -4  -2  11   15.30    2.00
  -4   2 -11   13.20    3.70
   4  -2 -11   15.30    2.30
   4   2  11   14.10    2.90
  -4  -2  11   11.00    3.80
   4  -2 -11   14.40    3.10
   4  -3  11  234.78   16.00
   4   3 -11  214.48    9.90
  -4   3  11  226.98   15.30
   4  -3  11  211.48   11.80
  -4   3  11  222.68   15.70
   4  -3  11  227.68   15.90
  -4  -3 -11  219.08    9.80
   4   3 -11  210.58   15.90
  -4  -3  11  211.08   11.10
  -4   3 -11  217.08   15.70
   4  -3 -11  216.18   10.20
   4   3  11  220.98   15.00
  -4  -3  11  222.28   16.00
   4  -4  11   25.10    4.90
  -4  -4 -11   27.90    3.00
   4  -4  11   23.30    3.30
  -4   4  11   29.50    4.30
   4   4 -11   24.80    2.60
  -4  -4  11   24.80    2.90
   4  -4 -11   29.30    3.20
   4   4  11   24.20    3.90
  -4  -4  11   20.70    4.80
   4  -5  11   94.39    9.50
   4  -5  11   93.89    7.00
   4   5 -11  106.99    5.60
  -4  -5  11   98.19    6.50
  -4  -5  11   93.09    9.30
   4  -5 -11  104.89    6.80
   4   6 -11    7.80    2.20
   4  -6  11    7.30    4.90
  -4  -6  11   13.20    8.80
  -4  -6  11    8.00    4.80
  -4  -6  11    8.40    2.70
   4  -7  11   78.69    9.80
   4   7 -11   74.49    5.20
  -4  -7  11   69.29    9.10
  -4  -7  11   84.19   15.30
   4  -8  11    7.00   13.10
  -4  -8  11   20.60   11.70
   4   0 -12   26.00    4.40
   4   0 -12   20.60    2.50
  -4   0  12   20.80    2.40
  -4   0 -12   20.40    4.00
  -4   0 -12   20.20    2.50
   4   1 -12  144.99    7.20
  -4  -1 -12  137.49   11.20
   4  -1  12  145.19   11.30
   4   1 -12  133.89   11.30
  -4   1  12  144.09    7.20
  -4  -1 -12  147.39    7.10
  -4   1  12  149.59   11.30
   4   1 -12  150.68   11.10
  -4   1 -12  133.59   11.10
  -4   1 -12  138.09    7.20
  -4  -1  12  144.29   11.40
  -4   1 -12  149.19   10.70
  -4  -1  12  140.59    7.40
   4  -1 -12  133.19    7.20
   4   1  12  136.19   10.70
  -4   2  12   14.60    3.50
   4   2 -12   15.70    4.20
   4   2 -12   15.60    2.20
   4  -2  12   16.20    4.10
  -4  -2 -12   21.30    4.20
  -4  -2 -12   15.50    2.20
  -4  -2  12   17.00    2.10
  -4  -2  12   11.70    4.20
  -4   2 -12   14.50    3.90
   4  -2 -12   14.40    3.40
   4   2  12   15.40    3.20
   4  -2 -12   16.30    2.40
   4   3 -12  128.39    6.70
   4   3 -12  127.39   11.20
  -4  -3 -12  130.99    6.70
  -4   3  12  130.19   10.50
   4  -3  12  133.89   11.00
   4  -3  12  133.59    8.20
  -4  -3  12  133.69    7.40
   4   3  12  129.19    9.90
  -4   3 -12  133.59   10.90
   4  -3 -12  133.89    7.10
  -4  -3  12  122.99   11.10
   4  -4  12   16.40    4.60
   4   4 -12   12.20    2.20
   4  -4  12   15.20    2.90
  -4  -4 -12    9.90    2.10
  -4   4  12   10.20    3.50
  -4  -4  12    3.10    4.40
   4   4  12   12.40    2.90
   4  -4 -12   13.00    2.60
  -4  -4  12   10.60    2.30
   4  -5  12   78.49    8.90
   4   5 -12   82.19    5.10
   4  -5  12   77.89    6.40
   4  -5 -12   79.99    6.10
  -4  -5  12   74.59    5.80
  -4  -5  12   64.39    8.60
   4  -6  12    2.70    5.00
   4   6 -12    5.50    2.30
  -4  -6  12   -2.00    4.80
   4  -7  12   61.89    9.50
   4   7 -12   59.69    4.90
  -4  -7  12   64.69   14.40
  -4  -7  12   49.80    8.20
  -4   7 -12   63.19    5.30
   4  -8  12   -8.20   11.80
  -4  -8  12    1.20   10.20
  -4   0 -13   42.30    3.80
  -4   0  13   44.40    3.40
   4   0 -13   40.20    3.80
  -4   0 -13   45.80    6.30
   4   1 -13  111.49    6.20
  -4  -1 -13  112.19    6.20
   4   1 -13  119.69   10.20
  -4  -1 -13  115.29    9.90
  -4   1 -13  117.49    9.90
   4  -1 -13  111.49    6.40
  -4  -1  13  109.69    6.20
  -4   1 -13  108.99    6.20
   4  -1 -13  111.49    9.60
  -4  -2 -13   42.50    6.20
   4   2 -13   36.00    3.60
  -4  -2 -13   31.10    3.50
   4  -2  13   33.90    4.30
   4  -2  13   34.30    6.00
   4   2 -13   40.90    6.50
  -4  -2  13   36.50    5.70
   4  -2 -13   38.60    5.50
  -4   2 -13   33.60    3.80
  -4   2 -13   33.70    6.00
  -4  -2  13   34.00    3.40
   4  -2 -13   34.10    3.90
   4  -3  13   85.09    8.50
   4  -3  13   72.89    6.10
  -4  -3 -13   81.69    5.10
  -4   3  13   85.49    7.90
   4   3 -13   78.79    8.80
   4   3 -13   84.79    5.20
  -4   3 -13   82.29    5.40
  -4   3 -13   79.39    8.40
  -4  -3  13   75.59    5.50
  -4  -3  13   73.19    8.70
   4  -3 -13   87.19    5.60
  -4   4  13   25.00    4.30
  -4  -4 -13   26.30    2.90
   4  -4  13   31.90    5.80
   4  -4  13   28.00    3.80
   4   4 -13   28.50    3.00
   4  -4 -13   28.10    3.40
  -4  -4  13   23.00    3.10
  -4   4 -13   21.50    3.10
  -4  -4  13   21.70    5.70
   4   4  13   26.90    4.00
   4  -5  13   59.69    8.30
   4   5 -13   59.59    4.60
  -4   5 -13   58.69    5.00
  -4  -5  13   43.90    8.00
  -4  -5  13   61.99    5.30
   4  -5 -13   60.29    5.60
   4   6 -13   19.00    3.00
   4  -6  13   11.70    5.80
  -4   6 -13   13.70    3.10
  -4  -6  13    6.50    5.70
  -4   7 -13   24.30    3.70
  -4  -7  13   25.40   11.90
  -4   0 -14   86.39    8.70
  -4   0 -14   81.49    5.30
   4   0 -14   87.19    5.50
   4   1 -14   18.10    2.70
  -4  -1 -14   22.00    2.80
   4   1 -14   20.00    5.20
  -4  -1 -14   18.90    4.80
  -4   1 -14   17.40    4.70
   4  -1 -14   17.10    2.70
   4  -1 -14   13.70    4.40
  -4   1 -14   17.10    2.70
  -4  -2 -14  187.08   14.20
   4   2 -14  170.98    8.80
   4   2 -14  176.08   14.20
  -4  -2 -14  186.08    8.80
   4  -2  14  176.78   10.30
  -4  -2  14  180.48    9.40
   4  -2 -14  167.08    9.00
  -4   2 -14  174.58    8.90
   4  -2 -14  178.68   13.50
  -4   2 -14  175.08   14.00
   4   3 -14   14.20    2.60
   4  -3  14   14.10    3.10
   4  -3  14    7.30    4.90
  -4  -3 -14   14.70    2.50
   4   3 -14   21.20    5.30
  -4   3 -14   11.00    4.80
  -4  -3  14    4.60    5.10
  -4   3 -14   16.80    2.90
  -4  -3  14   16.80    2.60
   4  -3 -14   15.10    2.90
   4  -4  14   43.90    7.60
   4   4 -14   48.20    4.40
  -4  -4 -14   47.10    4.30
  -4  -4  14   43.40    4.50
   4  -4 -14   52.79    5.00
  -4  -4  14   40.60    7.10
  -4   4 -14   50.69    4.80
   4   5 -14   12.10    2.80
   4  -5  14    8.70    5.60
   4  -5 -14   14.10    3.50
  -4   5 -14    8.40    2.90
  -4  -5  14    5.50    5.80
   4  -6  14   56.09    9.30
   4   6 -14   57.79    5.00
  -4  -6  14   46.90    8.40
  -4   6 -14   57.99    5.50
  -4   7 -14    7.30    3.30
  -4  -7  14    7.60   11.10
  -4   0 -15   80.19    9.00
  -4   0 -15   83.59    5.70
   4   0 -15   84.69    9.10
   4   0 -15   83.89    5.80
  -4  -1 -15   -2.80    1.90
   4   1 -15    1.20    2.30
  -4  -1 -15   -0.70    4.20
  -4   1 -15    1.10    4.20
   4  -1 -15    1.20    2.30
   4  -1 -15   -2.60    3.90
  -4   1 -15   -3.40    2.10
  -4  -2 -15   60.99    4.90
  -4  -2 -15   68.19    8.40
   4  -2  15   70.99    5.90
   4   2 -15   67.49    5.10
   4   2 -15   64.69    8.80
   4  -2 -15   62.89    5.30
  -4   2 -15   60.69    8.10
  -4   2 -15   64.29    5.20
   4  -2 -15   53.09    7.60
   4   3 -15    7.20    5.00
   4   3 -15    1.70    2.40
  -4  -3 -15   -0.80    2.00
  -4   3 -15   -1.10    2.50
   4  -3 -15   -1.50    2.50
   4  -4  15   52.89    8.60
   4   4 -15   62.19    5.10
  -4  -4 -15   57.29    5.00
   4  -4 -15   66.79    5.70
  -4   4 -15   65.89    5.50
  -4  -4  15   43.90    8.10
   4   5 -15    0.90    2.60
   4  -5  15   -4.00    5.60
  -4   5 -15   -2.10    2.80
   4  -5 -15   -1.50    3.10
   4   6 -15   30.70    3.90
  -4   6 -15   28.40    4.10
   4   0 -16   83.09    9.80
   4   0 -16   82.29    6.00
  -4   0 -16   91.69    6.20
  -4   0 -16   94.39    9.90
  -4  -1 -16   19.60    3.10
   4   1 -16   20.60    3.20
  -4  -1 -16   19.60    5.60
   4  -1  16   21.50    3.50
   4  -1 -16   12.90    5.10
   4  -1 -16   13.00    3.10
  -4   1 -16   20.20    3.20
  -4   1 -16   16.70    5.40
  -4  -2 -16   33.70    3.60
   4   2 -16   37.20    3.90
  -4  -2 -16   36.20    6.70
  -4   2 -16   31.80    3.80
   4  -2 -16   30.30    3.90
   4  -2 -16   22.20    5.60
  -4   2 -16   30.00    6.30
   4   3 -16   12.30    3.00
  -4  -3 -16   17.10    3.00
   4  -3 -16   15.10    3.40
  -4   3 -16   15.30    3.20
   4   4 -16   44.90    5.00
  -4  -4 -16   51.69    5.10
   4  -4 -16   48.70    5.50
  -4   4 -16   51.29    5.40
   4   5 -16   11.30    3.30
  -4   5 -16    4.60    3.30
   4  -5 -16    4.80    3.60
   4   0 -17    2.20    3.00
  -4   0 -17    4.70    2.70
   4   0 -17   -4.10    5.00
  -4   0 -17    3.00    5.30
  -4  -1 -17    8.80    2.80
   4   1 -17   -2.10    5.40
   4   1 -17    9.90    3.20
  -4  -1 -17    6.40    5.40
   4  -1 -17    8.70    3.10
  -4   1 -17    7.80    3.00
   4  -1 -17   -1.40    5.00
  -4   1 -17    7.00    5.50
  -4  -2 -17   10.30    2.90
   4   2 -17   -0.90    5.70
   4   2 -17   10.50    3.20
   4  -2 -17   10.10    3.30
  -4   2 -17    9.40    3.30
  -4   2 -17    8.40    5.60
  -4  -3 -17    7.70    2.90
   4   3 -17    2.70    2.90
   4  -3 -17    5.20    3.10
  -4   3 -17    2.60    3.10
   4   4 -17   -0.80    3.00
  -4   4 -17    3.90    3.20
   4  -4 -17   -3.50    3.20
  -4   0 -18   -2.20    2.60
   4   0 -18   -2.40    3.00
  -4  -1 -18   32.30    4.10
   4   1 -18   39.50    4.40
   4  -1 -18   32.60    4.40
  -4   1 -18   29.90    4.10
   4   2 -18   -3.40    3.00
  -4  -2 -18   -2.30    2.50
   4  -2 -18   -0.70    3.00
  -4   2 -18   -4.70    2.90
   4   3 -18   27.10    4.20
  -4  -3 -18   33.40    4.30
   4  -3 -18   32.30    4.60
  -4   3 -18   30.50    4.30
   5   0   0   -2.00    3.00
  -5   0   0   -0.10    1.40
  -5   0   0    0.40    2.40
  -5   0   0    1.90    2.60
  -5   0   0    0.00    2.10
   5   0   0    1.60    2.20
   5   0   0    3.80    3.20
   5   0   0    2.80    2.20
  -5   1   0    2.50    1.70
  -5   1   0    2.90    2.60
   5  -1   0   -0.50    1.50
  -5  -1   0    3.50    2.30
  -5  -1   0    1.20    2.20
   5  -1   0   -0.80    3.00
   5   1   0    0.70    1.60
  -5  -1   0    1.50    1.30
  -5   1   0    1.20    1.50
   5   1   0    1.30    2.70
   5   1   0    5.00    2.50
   5  -1   0   -0.10    1.50
   5   1   0    0.70    1.80
  -5  -1   0    0.70    1.50
  -5  -1   0    3.80    2.50
  -5   2   0    0.60    1.20
  -5   2   0   -0.80    3.30
   5  -2   0    2.90    1.10
  -5  -2   0   -2.70    2.40
  -5  -2   0    4.10    0.90
   5  -2   0   10.90    3.30
  -5   2   0    0.30    1.30
  -5  -2   0    2.20    2.70
   5  -2   0   -2.70    2.80
   5   2   0    0.10    3.70
   5   3   0    0.50    1.00
   5   3   0    0.00    0.90
   5   3   0    0.40    1.50
   5   3   0   -5.40    3.80
  -5   3   0    0.20    1.20
  -5  -3   0   -1.90    3.10
   5  -3   0    0.00    0.90
   5  -3   0   -0.10    4.00
  -5  -3   0    0.20    2.00
  -5  -4   0    1.80    3.90
   5   4   0   -1.60    3.70
   5  -4   0    2.50    5.00
   5  -4   0    1.20    1.20
   5   4   0    2.90    1.50
  -5   4   0    2.70    1.40
  -5  -5   0   -1.60    5.00
   5  -5   0   -1.10    1.50
  -5  -5   0   -3.30    1.80
   5  -5   0   -2.40    6.40
  -5   5   0    0.50    1.50
   5   5   0   -5.60    3.10
   5  -6   0    0.90    1.90
  -5  -6   0    0.20    6.40
   5  -6   0  -10.00    8.40
   5  -7   0   -2.10    2.30
  -5  -7   0   -0.90    8.10
   5  -8   0   -1.70    2.90
  -5  -8   0    5.60   10.70
   5  -8   0   10.40   14.60
   5  -9   0  -15.10   14.60
   5  -9   0   -1.60    3.40
  -5  -9   0    7.70   13.30
   5 -10   0   -1.40   20.30
  -5 -10   0   -5.00   14.20
   5   0  -1  223.18   14.40
   5   0  -1  196.28    9.10
   5   0   1  227.68   14.60
   5   0   1  180.38   14.50
  -5   0  -1  171.88   14.00
   5   0   1  212.88   14.20
  -5   0   1  215.28   14.40
  -5   0   1  182.08   14.70
   5   0  -1  232.38   15.10
  -5  -1  -1  262.37   19.40
   5   1  -1  258.27   20.20
   5   1  -1  279.87   12.20
   5   1  -1  306.47   19.20
  -5   1   1  309.27   19.10
   5  -1   1  316.27   19.00
  -5  -1  -1  314.07   18.90
   5   1  -1  328.17   19.20
   5   1  -1  256.87   20.20
  -5   1   1  238.48   19.40
  -5  -1   1  275.17   19.80
   5  -1  -1  292.77   19.70
   5   1   1  246.28   19.50
  -5  -1   1  307.67   19.70
   5   1   1  305.97   19.20
  -5  -1   1  318.67   19.10
   5  -1  -1  325.37   18.80
  -5   1  -1  299.37   19.00
  -5   1  -1  292.57   19.90
  -5  -2  -1  291.77   17.80
   5   2  -1  265.17   12.90
  -5  -2  -1  291.27   17.80
  -5  -2  -1  233.18   20.40
   5   2  -1  225.28   18.90
  -5   2   1  232.98   17.80
   5  -2   1  299.77   17.40
  -5   2   1  291.17   17.40
   5   2  -1  275.57   17.60
   5   2  -1  265.87   11.20
   5   2  -1  276.47   17.40
   5   2  -1  250.97   19.10
  -5   2  -1  265.07   13.00
  -5   2  -1  262.27   19.00
  -5   2  -1  282.17   17.50
   5   2   1  283.17   17.50
   5  -2  -1  291.17   17.80
  -5  -2   1  275.07   17.30
  -5  -2   1  281.17   19.30
   5  -2  -1  289.27   17.40
  -5  -2   1  276.87   17.50
  -5  -2   1  232.28   17.90
  -5   2  -1  262.67   18.60
   5   2   1  291.17   17.60
  -5   3   1  214.88   13.60
   5   3  -1  165.78   14.90
   5  -3   1  213.58   13.20
   5   3  -1  210.88    8.50
   5  -3   1  217.38   10.00
   5  -3   1  175.58   15.00
   5   3  -1  215.48   10.30
   5   3  -1  190.48   15.00
   5   3  -1  208.48   13.30
  -5  -3  -1  202.48   18.20
  -5   3  -1  214.68   13.40
   5   3   1  199.98   10.40
  -5  -3   1  219.08   13.30
  -5   3  -1  222.98    9.70
   5   3   1  217.08   13.30
  -5   3  -1  206.68   14.90
  -5  -3   1  180.58   15.00
   5  -3  -1  215.58    9.80
  -5  -3   1  199.68   16.30
  -5   4   1  164.28    7.70
   5  -4   1  123.59   15.10
  -5  -4  -1  156.78    8.40
   5   4  -1  152.88   10.10
   5   4  -1  154.58   11.80
  -5   4   1  165.98   10.40
  -5  -4  -1  146.89   16.50
   5  -4   1  161.58    8.00
  -5  -4   1  147.49   14.20
  -5   4  -1  133.99   11.60
  -5   4  -1  165.38   10.40
   5  -4  -1  157.38    7.90
  -5  -5  -1  142.49   17.50
   5   5  -1  115.09   11.50
   5   5  -1  137.29   10.60
   5   5  -1  138.89    9.20
  -5  -5  -1  141.79    7.60
  -5   5   1  151.88    7.20
   5  -5   1   95.59   16.70
   5  -5   1  142.99    7.70
   5  -5  -1  119.49   19.30
   5  -5  -1  140.09    7.60
  -5  -5   1  144.49   15.00
  -5   5  -1  154.78    9.70
   5   6  -1  103.69    7.10
   5  -6   1  105.49    6.50
  -5  -6  -1  102.49   17.20
  -5  -6  -1   91.39    5.70
   5  -6  -1  101.99    6.60
  -5  -6   1  105.79   15.00
   5  -7   1   40.70   13.10
   5  -7   1   53.19    5.20
  -5  -7  -1   63.29   14.80
   5  -7  -1   53.59    5.40
  -5  -7   1   50.69   11.60
   5  -7  -1   25.50   14.70
   5  -8   1   48.20    5.70
   5   8  -1   48.10    4.40
  -5  -8  -1   56.49   16.00
   5  -8  -1   40.90    5.10
   5  -8  -1   19.00   15.80
  -5  -8   1   45.80   13.60
   5  -9   1   18.70    4.40
  -5  -9  -1   41.40   16.60
   5  -9   1    4.20   14.70
  -5  -9   1   31.10   14.40
   5  -9  -1   30.90    5.10
   5  -9  -1    4.00   18.00
  -5 -10  -1   15.70   17.00
   5 -10   1   -3.70   18.40
  -5 -10   1   11.90   15.70
   5 -10  -1   21.20   22.30
  -5   0   2  312.87   19.60
  -5   0   2  303.87   20.20
   5   0  -2  294.77   12.50
  -5   0  -2  312.47   19.60
   5   0   2  294.47   19.50
  -5   0  -2  308.47   19.60
  -5   0  -2  307.67   14.50
   5   0  -2  337.97   19.80
   5   0  -2  278.47   19.90
   5   0   2  299.37   19.90
  -5   0  -2  255.87   19.60
   5   0   2  292.07   19.60
   5   0  -2  308.17   19.70
   5   1  -2  454.65   32.80
   5   1  -2  525.55   32.40
   5  -1   2  520.15   31.90
  -5  -1  -2  523.35   23.70
   5  -1   2  491.45   32.20
   5   1  -2  514.85   23.00
   5   1  -2  497.25   20.20
  -5   1   2  487.95   32.00
   5   1  -2  499.35   31.90
  -5  -1  -2  498.55   31.70
  -5   1   2  526.85   31.90
   5  -1  -2  517.15   31.90
   5  -1  -2  449.26   20.70
  -5   1  -2  506.15   32.70
  -5   1  -2  512.45   31.80
  -5   1  -2  540.45   23.50
  -5  -1   2  510.75   32.20
  -5  -1   2  545.15   32.00
  -5   1  -2  527.05   32.20
  -5  -1   2  423.86   32.50
   5   1   2  521.35   31.90
   5   1   2  497.05   32.00
  -5  -1   2  503.55   32.80
   5  -1  -2  520.95   31.70
  -5  -1   2  492.35   32.20
   5   2  -2  781.92   49.20
  -5   2   2  810.62   48.90
  -5  -2  -2  826.82   36.40
   5   2  -2  812.72   48.90
  -5  -2  -2  816.42   48.80
   5   2  -2  794.42   30.90
   5   2  -2  842.32   49.70
   5  -2   2  718.53   49.50
   5   2  -2  834.82   35.60
  -5  -2  -2  674.73   49.50
   5  -2  -2  790.92   35.10
   5   2   2  821.22   49.00
  -5   2  -2  776.32   48.90
  -5  -2   2  807.32   48.90
  -5  -2   2  666.23   50.09
  -5   2  -2  844.62   49.50
  -5  -2   2  759.42   35.40
   5  -2  -2  693.83   49.00
  -5  -2   2  811.72   49.10
   5  -2  -2  746.53   52.29
   5   2   2  840.72   49.60
  -5   2  -2  794.82   35.80
   5  -2  -2  797.92   48.70
  -5   2  -2  758.32   50.39
   5   2   2  774.02   49.30
  -5  -2   2  781.42   50.99
   5   3  -2  418.26   26.60
   5   3  -2  430.86   19.10
  -5  -3  -2  434.96   19.50
   5  -3   2  345.27   26.70
  -5   3   2  425.06   18.50
  -5  -3  -2  337.57   30.80
   5   3  -2  435.26   16.30
   5  -3   2  406.86   19.00
   5   3  -2  410.46   25.90
   5  -3   2  432.06   25.70
  -5   3  -2  422.96   18.70
  -5  -3   2  413.36   28.50
  -5   3  -2  413.16   25.80
   5   3   2  387.76   26.50
   5  -3  -2  431.16   18.70
  -5  -3   2  390.66   19.00
  -5   3  -2  365.26   27.40
  -5  -3   2  425.16   25.80
   5  -3  -2  393.06   31.90
  -5   4   2  146.19   10.40
  -5  -4  -2  148.19    7.80
   5   4  -2  151.58   11.00
  -5   4   2  160.08    7.30
  -5  -4  -2  139.59   17.40
   5   4  -2  158.58    6.30
   5  -4   2  155.98    9.90
   5  -4   2  150.28    7.90
   5  -4   2  114.79   14.80
   5   4  -2  150.48   10.00
   5  -4  -2  121.79   19.80
  -5  -4   2  150.68    8.00
  -5  -4   2  151.08   13.80
   5  -4  -2  156.38    7.70
  -5   4  -2  122.39   11.80
  -5   4  -2  160.48   10.20
  -5  -4   2  153.08   10.00
   5   5  -2  207.48    8.10
  -5  -5  -2  179.78   21.60
   5   5  -2  195.48   13.70
  -5   5   2  209.18    9.70
   5  -5   2  200.08   10.30
  -5  -5  -2  197.08    9.90
   5   5  -2  200.78   13.00
  -5   5  -2  214.48   13.30
  -5  -5   2  182.48   10.30
  -5   5  -2  160.48   14.80
   5  -5  -2  205.38   10.20
  -5  -5   2  203.58   18.00
   5  -5  -2  181.48   24.80
  -5  -6  -2  193.88   23.50
   5   6  -2  193.88   12.70
  -5  -6  -2  191.08    9.60
   5  -6   2  191.98   10.40
  -5  -6   2  196.58   10.60
  -5  -6   2  191.18   19.00
  -5   6  -2  190.98   12.70
   5  -6  -2  200.88   10.60
   5  -6  -2  148.39   27.40
  -5   6  -2  183.88   14.80
   5  -7   2   89.79   17.60
   5   7  -2  101.19   12.30
   5   7  -2  142.79    9.30
  -5  -7  -2  128.79   21.90
   5  -7   2  129.69    8.20
   5  -7  -2  145.79    8.80
  -5  -7   2  145.39   17.70
  -5   7  -2  142.19    9.30
   5  -7  -2  116.69   24.00
  -5   7  -2  127.89   11.20
   5  -8   2   10.90   12.30
   5  -8   2   24.70    4.20
  -5  -8  -2   48.50   15.90
   5   8  -2   40.70    4.10
   5  -8  -2    8.70   16.60
  -5   8  -2   31.20    5.50
  -5  -8   2   27.50   11.30
   5  -8  -2   33.40    4.70
  -5  -9  -2   51.59   19.00
   5  -9  -2   33.20   21.40
  -5  -9   2   54.49   15.50
  -5 -10  -2   21.10   18.10
   5 -10   2  -12.90   16.20
  -5 -10   2   19.00   15.40
   5 -10  -2   14.70   22.70
   5   0   3  104.29    7.40
  -5   0   3  108.49    7.40
   5   0   3  110.29    7.40
  -5   0   3   94.89    8.10
   5   0  -3  101.69    7.50
   5   0  -3  105.79    4.90
   5   0  -3  106.99    7.40
   5   0  -3  106.09    4.80
  -5   0   3   92.89    7.40
   5   0  -3   92.29    8.10
  -5   0  -3  103.29    5.50
   5   0   3  109.49    7.70
   5   0   3  102.69    5.50
   5   0  -3   97.29    7.80
  -5   0  -3   99.49    7.60
  -5   0  -3  105.59    7.40
  -5   0   3  100.89    7.90
  -5   0  -3  105.99    7.30
  -5   1   3   -1.20    2.10
  -5  -1  -3    0.80    0.70
   5   1  -3   -0.10    0.90
   5  -1   3    3.10    1.50
  -5  -1  -3    0.50    1.00
   5  -1   3    0.70    0.90
  -5   1   3    0.50    1.20
   5   1  -3    1.00    0.70
   5   1  -3   -0.70    1.60
   5   1  -3   -1.10    1.10
   5  -1   3    0.60    1.50
   5   1  -3    2.10    1.60
   5  -1   3    2.10    1.30
  -5   1   3    0.80    0.80
   5   1  -3    1.50    0.70
  -5  -1  -3    0.40    1.90
  -5   1   3   -0.30    2.20
   5   1   3    3.80    1.30
  -5  -1   3    0.40    1.40
   5  -1  -3    2.40    0.90
  -5  -1   3    0.50    0.60
   5   1   3   -1.40    2.10
  -5  -1   3    0.80    1.30
   5  -1  -3   -2.70    1.70
   5   1   3    0.50    0.90
   5  -1  -3   -0.30    1.20
   5  -1  -3    1.40    1.00
  -5   1  -3    2.00    1.00
  -5   1  -3    4.40    1.50
  -5  -1   3    2.80    1.50
  -5  -1   3   -0.10    1.20
   5   1   3    4.10    1.20
  -5   1  -3    2.20    1.30
   5  -2   3   51.99    5.80
   5   2  -3   65.49    5.20
   5   2  -3   65.59    3.80
   5   2  -3   64.69    5.70
   5   2  -3   61.99    6.10
  -5  -2  -3   76.19    4.80
   5   2  -3   65.69    3.20
   5  -2   3   61.59    3.70
   5   2  -3   65.19    5.00
   5  -2   3   66.89    5.60
  -5   2   3   65.09    4.50
  -5  -2  -3   65.79    4.00
  -5  -2   3   65.39    4.90
  -5  -2   3   63.99    6.70
   5  -2  -3   63.79    4.80
  -5  -2   3   61.49    5.20
   5   2   3   71.49    5.20
  -5   2  -3   73.79    5.50
  -5   2  -3   73.79    5.70
   5   2   3   65.99    4.60
   5  -2  -3   67.29    4.30
  -5  -2   3   50.79    5.80
  -5  -2   3   59.59    5.80
  -5   2  -3   63.19    5.00
  -5  -2   3   63.99    3.70
  -5   2  -3   65.39    3.60
   5  -3   3    5.40    2.30
   5  -3   3    2.80    1.20
   5   3  -3    3.20    2.70
   5   3  -3    3.80    0.80
  -5   3   3    4.00    0.70
   5  -3   3    5.30    1.60
   5   3  -3    5.00    1.30
   5   3  -3    5.00    1.20
   5  -3   3    3.30    1.10
  -5   3   3    7.60    2.80
   5   3  -3    2.40    2.20
  -5  -3  -3    4.40    1.30
  -5  -3   3    2.10    1.60
   5  -3  -3    3.80    1.10
  -5  -3   3    3.20    1.10
  -5   3  -3    4.50    2.00
   5  -3  -3   -0.30    2.00
   5   3   3    3.90    1.70
  -5  -3   3    1.40    2.20
  -5   3  -3    4.10    1.60
   5   3   3    3.10    0.80
   5  -3  -3    5.20    7.00
  -5  -3   3    2.30    2.00
  -5  -3   3    4.40    3.00
  -5  -3   3    2.70    1.00
  -5  -4  -3   53.79   11.50
   5   4  -3   49.00    4.10
  -5  -4  -3   43.00    3.40
   5   4  -3   54.69    6.80
   5   4  -3   50.89    2.70
   5  -4   3   54.59    6.10
  -5   4   3   48.60    3.10
   5  -4   3   50.99    3.80
   5   4  -3   46.60    5.20
  -5   4  -3   51.79    4.60
  -5   4  -3   56.49    5.60
  -5  -4   3   58.19    8.20
  -5  -4   3   36.70    5.50
  -5  -4   3   51.29    3.70
   5  -4  -3   55.09    3.80
   5   4   3   52.09    5.20
   5  -4  -3   66.89   13.70
  -5  -4   3   48.10    4.40
   5   5  -3   -4.60    3.20
   5   5  -3    1.00    2.40
   5  -5   3    8.70    6.60
  -5  -5  -3    3.20    1.40
   5   5  -3    1.70    1.40
   5  -5   3    1.60    1.60
   5   5  -3    1.10    0.80
  -5   5   3    1.10    1.00
  -5  -5  -3    1.90    7.70
  -5  -5   3    1.60    1.60
  -5  -5   3    2.50    4.40
  -5   5  -3    1.40    2.50
   5  -5  -3    0.10   11.20
  -5  -5   3   -1.90    3.10
   5  -5  -3    3.90    1.90
  -5   5  -3    0.10    1.80
  -5  -6  -3   24.00    2.60
   5   6  -3   19.20    5.30
   5   6  -3   25.40    3.10
  -5  -6  -3   29.80   12.50
   5  -6   3    9.60    8.80
   5  -6   3   15.70    2.80
  -5   6  -3   22.10    3.90
  -5  -6   3   30.50    8.00
  -5  -6   3   16.40    2.90
   5  -6  -3   32.90   16.50
   5  -6  -3   21.70    3.30
   5   7  -3    3.20    4.20
   5   7  -3    3.80    1.90
   5  -7   3   -0.10    9.50
  -5  -7  -3    0.30   11.80
   5  -7   3    1.20    2.30
  -5  -7   3    3.80    7.10
  -5   7  -3    3.40    3.00
  -5  -7   3    3.40    2.50
   5  -7  -3    0.10   16.00
  -5  -8  -3   15.70   15.20
   5  -8   3    6.20    3.10
   5   8  -3   13.20    2.70
   5  -8   3  -10.00   10.20
  -5  -8   3   17.20   10.10
  -5   8  -3    9.00    3.50
   5  -8  -3   10.00   18.40
  -5  -8   3   12.90    3.50
  -5  -9  -3    0.10   16.00
   5  -9   3   -0.80   13.00
   5  -9  -3   -9.90   18.80
  -5  -9   3    5.50   10.80
  -5 -10  -3   18.20   19.10
   5 -10   3  -14.40   14.40
   5 -10  -3   -2.60   22.20
  -5 -10   3    3.40   13.10
  -5   0   4  933.51   58.49
   5   0   4  889.11   58.19
  -5   0  -4  908.31   58.59
   5   0  -4  931.61   37.00
   5   0  -4  929.91   58.69
  -5   0  -4  978.90   58.49
   5   0  -4  973.10   41.70
  -5   0   4  858.01   41.70
   5   0   4  994.30   58.69
   5   0  -4  952.40   59.39
   5   0  -4  945.41   58.49
  -5   0   4  980.20   59.39
   5   0   4  908.01   42.70
  -5   0   4  977.90   58.79
  -5   0  -4  934.01   42.80
  -5   0  -4  939.61   58.29
  -5   0   4  886.41   58.19
   5   0  -4  916.01   58.29
   5   0   4  942.61   58.49
  -5  -1  -4  140.79   11.40
   5  -1   4  154.38   10.40
   5  -1   4  160.48   10.40
  -5  -1  -4  131.19   10.70
  -5   1   4  121.19   11.50
   5   1  -4  160.88    7.30
   5   1  -4  141.69   10.40
  -5   1   4  153.88   11.00
   5   1  -4  150.08    6.50
   5   1  -4  157.48   10.40
   5  -1   4  150.58   10.50
  -5  -1  -4  150.28    9.90
  -5   1   4  159.08   10.10
   5  -1   4  144.39    7.50
   5   1  -4  153.28   10.60
  -5  -1  -4  160.68    7.70
   5   1  -4  144.79   10.30
  -5   1   4  154.98   10.20
  -5  -1   4  172.58   10.70
  -5  -1   4  147.39    7.20
   5   1   4  151.28    7.70
  -5  -1   4  154.98   10.40
  -5   1  -4  161.68   10.40
   5  -1  -4  160.48    6.80
  -5   1  -4  128.59   10.20
   5   1   4  156.58   10.10
  -5   1  -4  153.38    7.50
   5   1   4  148.09   10.10
   5   1   4  157.28   10.80
  -5  -1   4  160.18   10.50
  -5  -1   4  150.28   10.40
  -5   1  -4  152.48   10.30
   5  -1  -4  149.09   10.10
   5   2  -4  241.08   16.10
   5  -2   4  241.78   16.30
   5  -2   4  245.28   11.70
  -5  -2  -4  250.07   12.00
   5   2  -4  237.38   10.10
  -5   2   4  250.27   17.30
   5  -2   4  249.78   16.10
   5   2  -4  248.98   16.40
   5   2  -4  260.87   16.90
   5  -2   4  233.48   16.60
   5   2  -4  241.58   16.10
   5   2  -4  268.27   11.80
  -5   2   4  244.48   15.70
  -5  -2  -4  251.87   15.70
  -5   2  -4  230.98   16.00
  -5  -2   4  244.28   16.20
   5  -2  -4  252.77   15.70
  -5  -2   4  239.88   16.40
  -5   2  -4  254.47   16.50
   5   2   4  256.37   12.10
  -5   2  -4  263.67   16.40
   5  -2  -4  255.87   10.80
  -5  -2   4  233.98   11.60
   5   2   4  247.08   15.90
  -5  -2   4  234.58   16.90
  -5  -2   4  244.18   16.20
   5   2   4  243.48   15.80
   5  -3   4   80.09    4.50
   5   3  -4   84.79    6.20
   5  -3   4   92.89    6.10
   5   3  -4   80.49    3.90
   5   3  -4   82.09    6.80
   5  -3   4   85.59    6.90
  -5   3   4   86.59    4.10
   5   3  -4   78.99    7.40
   5   3  -4   90.29    5.00
   5  -3   4   77.19    5.00
  -5  -3  -4   85.19    4.80
  -5  -3   4   81.49    6.10
  -5   3  -4   91.19    6.90
   5  -3  -4   77.79    5.30
  -5  -3   4   79.89    6.40
   5   3   4   78.49    5.10
   5   3   4   85.49    6.20
  -5  -3   4   90.39    9.00
   5   3   4   82.99    5.60
  -5  -3   4   82.89    4.80
  -5   3  -4   84.89    6.30
   5   4  -4  396.46   16.80
   5  -4   4  404.46   19.90
   5   4  -4  412.46   27.10
   5  -4   4  427.66   27.50
  -5   4   4  431.66   19.10
   5  -4   4  397.86   19.50
   5   4  -4  415.86   28.30
  -5  -4  -4  419.26   19.80
   5   4  -4  398.56   26.80
   5  -4   4  438.66   26.70
   5   4   4  435.76   26.70
  -5   4  -4  457.85   27.70
   5  -4  -4  453.85   36.90
  -5  -4   4  400.76   19.70
  -5  -4   4  421.56   26.70
  -5  -4   4  421.66   30.10
  -5   4  -4  425.46   26.80
  -5  -4   4  397.56   27.70
  -5  -5  -4   77.79    4.70
   5   5  -4   78.19    6.10
  -5   5   4   82.39    4.50
   5  -5   4   56.99   11.10
   5   5  -4   78.79    3.90
   5   5  -4   68.29    6.80
   5  -5   4   76.89    5.30
  -5  -5  -4  105.69   18.80
   5   5  -4   74.49    8.10
   5  -5   4   89.79    6.50
   5  -5   4   70.29    8.00
  -5   5  -4   80.69    6.60
  -5  -5   4   78.89    6.20
  -5  -5   4   78.69   11.00
  -5   5  -4   89.79    7.20
   5  -5  -4  121.19   20.30
  -5  -5   4   77.09    5.20
   5   6  -4   78.49    6.30
  -5  -6  -4   91.09   20.10
   5   6  -4   82.79    4.00
   5  -6   4   73.39    5.80
   5  -6   4   54.99   12.70
   5   6  -4   73.29    8.40
  -5  -6   4   77.09    5.70
  -5   6  -4   80.09    7.30
   5  -6  -4  137.99   23.90
  -5  -6   4   91.79   12.90
   5  -7   4   19.30    3.30
   5   7  -4   18.00    4.90
  -5  -7  -4   18.40   15.90
   5   7  -4   23.20    3.50
   5  -7   4   11.00   10.40
  -5  -7   4   23.50    8.60
   5  -7  -4   26.90   19.00
  -5  -7   4   17.50    3.20
  -5   7  -4   21.60    3.90
  -5  -8  -4  105.19   24.60
   5  -8   4   72.69    6.70
  -5  -8   4   89.39    7.00
  -5  -8   4   75.19   14.20
  -5  -9  -4   55.49   22.90
   5  -9   4   -3.30   11.60
  -5  -9   4   29.70   12.60
   5  -9  -4   53.19   26.40
  -5 -10  -4   44.70   23.60
   5 -10   4   -1.80   15.00
  -5 -10   4    8.60   12.90
   5 -10  -4   19.60   27.30
  -5   0   5  715.23   43.80
   5   0   5  666.63   43.50
  -5   0  -5  715.83   32.10
  -5   0  -5  700.03   43.80
  -5   0   5  659.83   31.10
   5   0  -5  721.83   44.00
   5   0   5  676.73   43.80
   5   0   5  663.83   31.90
  -5   0   5  713.33   44.00
  -5   0  -5  670.33   43.70
   5   0  -5  671.63   43.60
   5   0  -5  688.53   43.70
  -5   0   5  677.63   43.50
   5   0  -5  682.53   27.70
   5   0  -5  732.33   44.60
  -5   0  -5  720.63   43.60
  -5   0   5  738.33   44.50
   5   0   5  706.13   43.80
   5   1  -5  184.68   13.20
   5   1  -5  207.18   13.50
  -5   1   5  182.58   14.20
  -5  -1  -5  202.48   12.90
   5   1  -5  200.68    8.40
   5  -1   5  196.98   13.30
   5   1  -5  204.48    9.40
  -5   1   5  213.18   13.60
   5  -1   5  187.08    9.60
  -5  -1  -5  195.38    9.80
  -5  -1  -5  190.38   13.60
   5  -1   5  193.78   13.20
  -5   1   5  194.88   13.00
   5   1  -5  201.58   13.40
   5   1  -5  204.38   13.40
  -5   1  -5  198.68   13.30
  -5  -1   5  199.98    9.20
  -5  -1   5  203.68   13.30
  -5   1  -5  197.98   13.20
   5   1   5  200.18   13.00
   5   1   5  188.68    9.70
  -5  -1   5  207.88   13.50
  -5  -1   5  189.18   13.30
   5   1   5  197.88   13.00
  -5  -1   5  202.68   13.50
  -5   1  -5  200.08   13.30
   5  -1  -5  196.68   13.00
   5  -1  -5  197.78    8.50
   5   2  -5  462.85   20.20
   5   2  -5  509.65   32.80
   5   2  -5  484.15   32.00
  -5  -2  -5  510.15   23.60
   5   2  -5  534.15   23.30
  -5   2   5  546.65   32.60
  -5  -2  -5  510.35   31.70
   5  -2   5  508.35   32.60
  -5   2   5  504.65   31.90
   5   2  -5  493.95   32.20
   5  -2   5  485.95   23.30
   5  -2   5  502.55   32.20
   5  -2   5  523.15   32.10
   5  -2  -5  501.55   20.70
  -5   2  -5  486.55   32.00
   5   2   5  498.25   23.60
   5  -2  -5  521.95   31.70
  -5   2  -5  527.15   32.20
   5   2   5  493.75   31.90
  -5  -2   5  493.45   32.20
  -5  -2   5  508.85   32.10
   5   2   5  485.35   31.80
  -5  -2   5  508.05   32.80
  -5   2  -5  520.25   32.50
  -5  -2   5  521.85   32.30
  -5  -2   5  504.95   23.00
   5   3  -5  141.29   10.40
  -5   3   5  153.18   11.20
  -5   3   5  148.19    6.70
   5  -3   5  132.69   10.70
  -5  -3  -5  145.59    7.50
   5  -3   5  152.48   10.00
   5  -3   5  149.19    7.80
   5   3  -5  131.59    6.30
   5   3  -5  143.39   10.00
   5  -3   5  146.39    7.30
   5  -3   5  145.39   10.50
   5   3  -5  141.69   10.90
   5   3  -5  155.48    7.70
   5  -3  -5  155.08    7.40
  -5   3  -5  143.89   10.10
  -5  -3   5  124.89   10.90
  -5  -3   5  142.99   10.00
  -5   3  -5  155.18   10.50
   5   3   5  152.48    7.80
  -5  -3   5  141.59    7.40
   5   3   5  142.09    9.50
  -5  -3   5  143.59   10.60
  -5  -3   5  148.79   10.20
   5   3   5  143.79    9.80
   5   4  -5  398.06   26.50
  -5  -4  -5  416.56   19.50
   5  -4   5  433.46   26.50
  -5  -4  -5  408.76   16.40
  -5   4   5  379.56   27.30
   5   4  -5  417.56   27.70
  -5   4   5  433.06   18.80
   5  -4   5  408.56   19.20
   5  -4   5  414.46   27.00
   5   4  -5  404.66   26.70
   5  -4   5  402.56   19.70
   5   4  -5  429.76   16.70
  -5   4  -5  427.76   27.10
   5   4   5  426.96   26.20
  -5  -4   5  416.16   27.20
  -5   4  -5  418.86   26.50
  -5  -4   5  408.76   26.50
   5  -4  -5  357.36   18.20
  -5  -4   5  402.26   19.40
  -5  -4   5  429.46   29.90
   5  -5   5   98.19    7.20
   5   5  -5   84.29    8.40
   5   5  -5   86.79    7.60
   5  -5   5   99.99    8.40
   5  -5   5   86.79    5.80
   5   5  -5   83.19    6.70
   5   5  -5   85.59    4.30
  -5   5   5   94.89    4.90
   5  -5   5   82.59    4.90
  -5  -5   5   92.29    7.10
  -5  -5   5   75.09    8.80
  -5  -5   5   94.79   11.70
  -5   5  -5   91.09    7.30
  -5  -5   5   84.39    5.60
  -5   5  -5   91.49    7.60
   5  -6   5  155.68   21.50
   5  -6   5  221.98   14.40
   5  -6   5  199.18   11.30
   5   6  -5  217.08    9.10
   5   6  -5  211.98   16.00
   5   6  -5  214.08   14.40
  -5  -6   5  210.48   11.20
  -5   6  -5  223.98   15.20
  -5  -6   5  213.38   20.00
   5   7  -5   44.40    6.60
   5  -7   5   36.40   12.40
   5  -7   5   43.30    4.90
  -5  -7   5   43.50    4.80
   5  -7  -5   87.49   24.90
  -5  -7   5   47.80   10.60
   5  -8   5  105.99    8.30
   5   8  -5  112.59   10.80
   5  -8  -5  217.98   37.60
  -5  -8   5  129.59   18.00
  -5  -8   5  123.09    8.40
   5  -9   5    3.70   12.70
  -5  -9   5   17.70   11.60
   5 -10   5    3.60   15.10
  -5 -10   5   45.90   15.60
  -5   0   6    1.00    0.50
  -5   0   6    1.20    1.10
   5   0   6    1.00    1.30
   5   0  -6    1.20    1.50
   5   0   6    1.90    1.60
   5   0  -6    2.30    1.00
  -5   0  -6    3.80    1.20
   5   0   6    1.60    1.10
   5   0  -6    1.10    1.70
  -5   0   6   -0.60    1.60
  -5   0  -6    2.50    1.40
   5   0  -6   -0.10    1.70
  -5   0  -6    2.40    1.70
  -5   0   6    0.30    1.60
   5   0   6    1.00    1.70
   5   1  -6  204.98   13.80
   5   1  -6  196.18   13.80
   5   1  -6  206.48   13.90
   5  -1   6  208.38   13.80
  -5   1   6  203.98   13.50
  -5  -1  -6  199.48   14.10
   5   1  -6  209.28    8.80
   5  -1   6  200.68   10.00
   5  -1   6  211.08   13.80
   5   1  -6  195.98   14.10
  -5   1   6  198.48   13.90
   5  -1   6  201.08   13.90
  -5  -1  -6  202.48   13.30
  -5   1   6  215.98   14.60
  -5  -1   6  206.28   14.00
   5  -1  -6  187.08   14.10
   5  -1  -6  208.28    8.90
   5  -1  -6  209.88   13.60
  -5   1  -6  199.18   13.70
  -5   1  -6  227.18   13.90
   5   1   6  206.38   13.60
  -5  -1   6  194.58    9.60
   5   1   6  205.48   10.10
  -5   1  -6  218.68   13.80
  -5  -1   6  196.78   13.80
   5   1   6  207.28   13.50
  -5  -1   6  216.78   14.00
  -5  -1   6  199.08   13.80
   5   2  -6    5.80    1.80
   5  -2   6    5.60    2.00
   5   2  -6    4.50    1.60
   5   2  -6    3.30    2.20
   5  -2   6    3.00    1.20
  -5   2   6    4.30    1.20
   5   2  -6    5.20    2.10
  -5  -2  -6    4.10    2.40
  -5  -2  -6    6.30    1.40
  -5   2   6    0.70    2.80
   5  -2   6    5.40    2.10
   5   2  -6    4.30    1.10
  -5   2   6    5.90    2.10
   5   2  -6    6.10    1.20
   5   2   6    4.50    1.30
  -5  -2   6    6.70    1.90
  -5  -2   6    4.60    2.10
  -5  -2   6    5.90    2.00
   5  -2  -6   -2.10    2.60
  -5  -2   6    5.50    1.10
   5   2   6    4.80    1.60
   5   2   6    4.90    1.40
  -5  -2   6    5.60    1.90
  -5   2  -6    5.60    1.80
   5  -2  -6    5.40    1.30
   5  -2  -6    6.20    1.70
  -5  -3  -6  160.58    6.80
   5   3  -6  146.19    6.90
   5  -3   6  150.48   11.50
   5   3  -6  163.18   11.00
   5  -3   6  160.68   11.10
  -5   3   6  152.38   11.40
   5  -3   6  152.88    7.90
   5   3  -6  150.28   11.60
   5  -3   6  158.08   11.30
   5  -3   6  156.58    8.50
   5   3  -6  154.78   11.40
   5   3  -6  167.48    8.30
   5  -3   6  172.18   11.20
  -5  -3   6  153.28    8.00
  -5  -3   6  162.68   12.00
   5   3   6  169.18    8.50
  -5   3  -6  162.58   11.30
   5  -3  -6  160.98    7.70
  -5  -3   6  160.28   11.00
   5   3   6  152.58   10.70
  -5  -3   6  165.18   11.60
  -5   3  -6  154.58   11.10
   5   3   6  154.68   10.40
  -5  -3   6  162.08   11.20
   5   4  -6    0.90    1.60
   5  -4   6    1.80    1.30
   5  -4   6    2.30    1.60
   5  -4   6    0.90    1.50
  -5  -4  -6    1.60    0.80
  -5   4   6   -0.30    2.40
  -5   4   6    1.40    0.70
   5  -4   6    3.60    2.60
   5   4  -6   -1.30    2.30
   5   4  -6    1.30    1.00
   5  -4   6   -1.40    2.40
   5  -4   6    1.80    2.00
   5   4  -6   -0.20    2.50
  -5   4  -6    0.40    2.10
   5  -4  -6    2.80    2.20
  -5  -4   6   -0.90    2.10
  -5  -4   6    0.90    2.20
  -5  -4   6   -0.30    3.60
   5   4   6    0.60    1.80
  -5  -4   6    0.00    2.20
  -5  -4   6   -1.10    1.50
  -5  -4   6   -0.20    1.40
   5   4   6    1.00    1.80
  -5   4  -6    1.50    1.80
   5  -5   6   98.99    8.50
   5  -5   6   85.49    6.00
   5  -5   6   94.69    5.20
   5   5  -6   91.29    4.60
  -5   5   6   99.99    5.00
  -5  -5  -6   94.89    4.50
   5  -5   6   97.09    7.70
   5   5  -6   83.49    8.30
   5   5  -6   86.19    7.10
  -5  -5   6  100.29   12.20
  -5  -5   6   96.29    7.60
   5  -5  -6   68.49    7.00
  -5  -5   6   90.79    5.80
  -5   5  -6   99.89    7.90
  -5  -5   6   83.69    9.00
   5   6  -6    1.30    1.30
   5   6  -6   -2.50    3.00
   5  -6   6   -0.10    2.20
   5  -6   6   -5.70    7.90
   5  -6   6    5.90    2.60
   5  -6   6    9.70    4.50
  -5   6  -6    4.40    2.60
  -5  -6   6    4.40    6.00
  -5  -6   6    0.40    2.50
  -5  -6   6   -0.10    2.10
   5  -7   6   25.60   11.50
   5  -7   6   44.70    5.20
   5   7  -6   46.70    6.70
  -5  -7   6   50.69    5.00
  -5  -7   6   59.89   11.80
   5  -8   6   -1.80   10.40
  -5  -8   6    2.80    9.00
   5  -9   6    3.50   13.00
  -5  -9   6   14.60   11.10
   5 -10   6   -5.90   13.60
  -5 -10   6    7.80   12.50
   5   0  -7   35.70    2.60
   5   0  -7   30.10    4.20
   5   0  -7   27.50    4.00
  -5   0  -7   37.80    3.90
  -5   0   7   31.90    4.00
   5   0   7   33.70    3.50
  -5   0   7   34.40    2.10
   5   0   7   33.10    2.80
  -5   0  -7   37.50    4.00
  -5   0  -7   36.70    3.40
  -5   0   7   28.10    4.00
   5   0  -7   29.40    4.30
   5   0   7   31.10    3.70
  -5   0   7   33.40    3.50
   5  -1   7  175.58   12.00
  -5  -1  -7  174.68   11.50
   5   1  -7  174.08   12.30
  -5  -1  -7  171.28   12.20
   5  -1   7  171.48    8.70
   5   1  -7  178.28   12.10
   5   1  -7  180.38    7.70
   5   1  -7  169.68   12.00
   5  -1   7  171.88   12.20
  -5   1   7  172.38   12.00
   5   1  -7  177.08   12.10
   5  -1   7  176.58   12.00
  -5   1   7  184.48   12.60
  -5   1   7  173.38   11.70
  -5   1  -7  176.68   12.00
   5  -1  -7  164.28    7.70
  -5   1  -7  179.38   12.00
   5  -1  -7  167.08   12.30
  -5  -1   7  165.38   12.10
   5   1   7  161.88    8.80
   5  -1  -7  170.68   11.80
   5   1   7  166.78   11.80
  -5   1  -7  172.58   11.90
  -5  -1   7  172.88    8.30
  -5  -1   7  180.48   12.10
   5   1   7  169.28   11.70
  -5  -1   7  171.38   12.20
  -5  -1   7  177.88   12.10
   5  -2   7   31.20    3.90
   5  -2   7   34.40    2.80
   5   2  -7   28.20    4.40
  -5  -2  -7   35.20    3.60
   5   2  -7   32.40    2.50
   5   2  -7   34.20    3.70
   5  -2   7   37.70    4.20
  -5   2   7   30.50    4.80
  -5  -2  -7   32.80    4.80
   5   2  -7   35.40    4.90
  -5   2   7   34.60    4.30
   5  -2   7   41.00    4.50
  -5   2   7   33.90    3.50
   5   2  -7   37.20    4.40
  -5  -2   7   34.70    2.60
   5   2   7   34.20    3.00
   5   2   7   33.90    3.30
  -5   2  -7   32.60    4.10
  -5  -2   7   38.00    4.10
  -5  -2   7   31.30    4.30
   5  -2  -7   35.40    3.80
  -5  -2   7   37.50    4.20
  -5  -2   7   39.80    4.60
   5  -2  -7   36.20    2.80
  -5   2  -7   37.60    3.80
   5   2   7   32.80    3.80
   5  -2  -7   28.90    4.60
   5   3  -7  144.79   11.10
   5   3  -7  141.09   11.30
  -5   3   7  149.39   10.20
   5  -3   7  162.38   11.10
  -5   3   7  128.39   12.30
   5  -3   7  157.78   10.90
   5  -3   7  147.39   11.20
  -5   3   7  154.28   11.00
  -5  -3  -7  155.58    6.70
   5  -3   7  152.48    7.80
   5  -3   7  155.28    8.40
   5  -3   7  151.58   11.10
   5   3  -7  155.28    6.90
  -5  -3   7  149.69   11.20
   5   3   7  151.58   10.50
  -5  -3   7  159.38   11.60
   5   3   7  151.98   10.20
  -5  -3   7  150.58   11.10
  -5  -3   7  157.08   10.90
  -5  -3   7  145.29    7.80
  -5   3  -7  154.88   10.90
   5  -3  -7  155.18    7.40
  -5   3  -7  160.78   11.10
   5   3   7  164.88    8.30
   5  -4   7   26.60    4.50
   5   4  -7   13.70    3.50
  -5   4   7   22.40    2.00
   5   4  -7   20.00    3.60
   5  -4   7   16.10    3.60
  -5  -4  -7   21.60    2.00
  -5   4   7   24.20    3.20
   5  -4   7   20.70    2.50
   5   4  -7   21.50    3.30
   5   4  -7   22.40    2.30
   5  -4   7   29.80    3.70
   5  -4   7   20.40    2.60
   5  -4  -7   23.90    2.90
  -5   4  -7   20.50    3.30
  -5  -4   7   18.70    3.60
   5   4   7   32.30    3.50
  -5  -4   7   15.10    3.60
   5   4   7   17.70    2.40
  -5   4  -7   24.70    3.60
   5   4   7   20.30    2.80
  -5  -4   7   16.00    2.70
  -5  -4   7   20.70    2.60
  -5  -4   7   17.40    2.80
   5  -5   7   70.79    5.50
  -5  -5  -7   84.59    4.10
   5   5  -7   75.99    4.30
   5   5  -7   74.79    6.50
   5  -5   7   82.29    4.70
   5   5  -7   72.59    7.70
   5  -5   7   80.19    7.80
   5  -5  -7   70.99    6.50
  -5   5  -7   77.99    7.00
   5   5   7   75.99    5.70
  -5  -5   7   83.59   11.80
  -5  -5   7   76.09    7.00
  -5  -5   7   77.09    5.30
   5   6  -7   14.40    1.90
   5   6  -7    6.70    3.70
   5  -6   7    8.70    2.60
   5  -6   7   18.40    4.80
  -5  -6   7   18.20    7.50
  -5  -6   7    7.50    3.20
  -5  -6   7   13.60    2.60
   5  -7   7   59.79    5.70
   5  -7   7   35.00   13.50
  -5  -7   7   54.99    5.40
  -5  -7   7   60.69   12.00
   5  -8   7   -1.10   10.70
  -5  -8   7    5.00    9.50
   5  -9   7    3.60   13.40
  -5  -9   7   15.20   11.40
  -5 -10   7   -5.30   11.50
  -5   0   8  330.97   20.80
  -5   0   8  313.97   14.10
  -5   0   8  324.77   20.50
   5   0  -8  306.97   20.30
   5   0   8  300.47   20.30
  -5   0  -8  310.27   20.40
  -5   0   8  309.37   20.40
   5   0  -8  292.57   13.00
  -5   0  -8  318.17   20.30
  -5   0  -8  299.77   20.20
   5   0  -8  311.37   20.90
   5   0   8  293.97   14.90
   5   0  -8  296.27   20.40
   5   0   8  314.57   20.30
   5   1  -8  586.64   38.10
   5  -1   8  592.14   38.00
   5   1  -8  578.74   37.80
   5   1  -8  614.14   37.80
   5  -1   8  587.64   27.60
  -5   1   8  595.34   37.80
  -5   1   8  625.84   38.50
  -5  -1  -8  594.94   38.00
  -5  -1  -8  570.34   37.50
   5   1  -8  599.84   24.00
   5  -1   8  573.64   37.70
  -5   1   8  577.84   37.80
  -5   1  -8  602.74   38.00
   5   1   8  596.34   27.70
  -5  -1   8  603.44   37.90
   5  -1  -8  612.34   38.00
  -5  -1   8  616.14   38.20
   5   1   8  584.44   37.80
   5  -1  -8  566.54   24.10
   5  -1  -8  613.64   37.60
  -5   1  -8  592.34   37.80
  -5  -1   8  614.14   38.30
  -5   1  -8  587.04   37.80
   5   1   8  561.94   37.60
  -5  -1   8  600.94   26.90
   5   2  -8  108.09    8.80
   5  -2   8  109.69    8.90
  -5   2   8   99.79    8.00
   5  -2   8  109.69    8.50
   5   2  -8  111.89    5.30
   5   2  -8  110.29    8.30
  -5  -2  -8  115.59    7.90
  -5   2   8  113.59    9.10
  -5  -2  -8  109.19    9.00
  -5   2   8  103.89    8.40
   5  -2   8  105.59    6.00
   5   2  -8  104.99    8.60
   5  -2   8  115.39    8.70
   5  -2   8  104.69    8.40
  -5  -2   8  114.09    8.70
  -5  -2   8  109.09    8.60
   5   2   8  116.29    6.30
   5  -2  -8   88.19    9.20
   5   2   8  106.29    8.10
  -5   2  -8  115.39    8.30
   5   2   8  107.59    7.80
  -5  -2   8  108.19    5.80
  -5  -2   8  105.39    8.50
   5  -2  -8  112.69    8.00
  -5   2  -8  109.19    8.40
   5  -2  -8  113.59    5.60
  -5  -2   8  106.29    8.70
   5   3  -8  446.76   18.40
  -5   3   8  462.55   30.50
   5   3  -8  461.75   29.90
   5  -3   8  447.36   21.20
   5  -3   8  446.36   29.30
   5   3  -8  441.96   29.30
   5  -3   8  431.96   21.60
   5  -3   8  464.15   29.50
   5   3  -8  455.05   29.30
  -5  -3  -8  443.56   18.30
  -5   3   8  444.76   28.80
   5  -3   8  465.75   29.30
  -5   3   8  450.85   29.00
   5  -3   8  454.55   29.70
  -5  -3   8  459.05   29.40
  -5  -3   8  439.86   21.00
   5   3   8  453.45   28.80
   5   3   8  443.86   28.80
  -5  -3   8  458.05   29.40
  -5  -3   8  463.15   29.40
  -5  -3   8  459.65   30.00
   5  -3  -8  439.46   18.90
   5   3   8  460.65   21.60
  -5   3  -8  438.36   29.20
   5   4  -8  161.88   12.20
   5  -4   8  144.79   12.20
   5   4  -8  173.08    7.50
   5  -4   8  158.48    9.10
   5   4  -8  168.58   11.80
  -5   4   8  139.89   13.30
   5   4  -8  155.88   12.50
   5  -4   8  162.68    8.50
  -5  -4  -8  161.18    7.20
   5  -4   8  167.38   12.20
   5   4   8  164.78   11.00
  -5  -4   8  160.18   11.70
   5  -4  -8  176.68    8.50
  -5   4  -8  175.18   12.10
   5   4   8  177.08    9.20
  -5  -4   8  152.88   12.80
  -5  -4   8  170.78   12.20
  -5  -4   8  161.58    8.60
  -5   4  -8  166.18   12.00
   5  -5   8  319.47   22.10
   5   5  -8  322.87   13.60
   5  -5   8  329.97   15.50
   5   5  -8  328.27   22.60
   5  -5   8  305.77   16.30
  -5  -5   8  339.97   26.20
  -5  -5   8  334.37   21.80
  -5  -5   8  307.87   15.80
   5  -5  -8  319.47   15.30
   5  -6   8   41.30    6.80
   5   6  -8   38.30    3.30
   5  -6   8   34.00    4.50
  -5  -6   8   38.60    4.30
  -5  -6   8   36.90    5.70
  -5  -6   8   44.30    9.70
   5  -6  -8   33.00    5.20
   5  -7   8  163.18   13.70
   5  -7   8  150.18    9.90
  -5  -7   8  153.38   12.10
  -5  -7   8  166.08   18.80
  -5  -7   8  153.98    9.50
   5  -8   8   11.30   11.80
  -5  -8   8   36.40   11.80
   5  -9   8   30.60   15.70
  -5  -9   8  101.09   17.70
   5   0  -9  294.27   12.60
   5   0  -9  295.47   19.70
  -5   0  -9  294.77   19.50
  -5   0  -9  295.97   19.40
   5   0   9  301.27   14.40
   5   0   9  294.27   19.50
   5   0  -9  297.67   20.10
  -5   0   9  291.27   13.50
   5   0   9  288.07   19.50
  -5   0   9  300.17   20.00
   5   0  -9  287.07   19.50
  -5   0   9  290.57   19.60
  -5   0   9  298.17   19.60
  -5   0  -9  283.47   19.60
   5   1  -9    6.00    1.40
  -5   1   9    4.50    1.60
  -5   1   9    5.70    2.50
  -5  -1  -9    6.60    1.50
  -5  -1  -9    8.20    2.70
   5  -1   9    6.00    2.60
   5  -1   9    3.90    2.10
  -5   1   9    4.80    0.80
   5   1  -9    7.00    2.20
   5  -1   9    4.00    1.70
   5   1  -9    6.10    2.10
  -5  -1  -9    4.50    1.70
   5   1  -9    3.40    2.70
  -5   1   9    4.80    2.40
   5  -1  -9    4.60    1.50
  -5  -1   9    5.60    2.40
  -5   1  -9    6.80    2.60
  -5   1  -9    7.10    1.90
   5   1   9    6.10    1.70
   5  -1  -9    4.60    2.30
  -5  -1   9    4.80    1.10
   5  -1  -9    3.60    2.50
  -5   1  -9    5.70    2.10
   5   1   9    3.90    2.30
   5   1   9    5.20    2.00
  -5  -1   9    3.40    2.60
   5  -1  -9    5.30    2.60
  -5  -1   9    5.90    1.90
   5   2  -9  238.38   10.80
   5  -2   9  241.08   17.10
   5  -2   9  263.87   17.30
  -5   2   9  260.27   17.60
  -5   2   9  244.98   17.00
   5  -2   9  260.57   17.60
   5   2  -9  258.87   17.20
   5  -2   9  246.68   12.40
   5   2  -9  248.78   17.30
   5  -2   9  254.47   17.20
  -5   2   9  251.37   16.80
  -5  -2  -9  252.07   10.80
  -5  -2  -9  248.48   16.50
  -5  -2  -9  238.38   17.50
   5   2   9  241.98   16.80
  -5  -2   9  257.17   17.30
   5  -2  -9  243.48   16.70
  -5  -2   9  264.07   17.40
  -5  -2   9  258.47   12.10
  -5   2  -9  257.47   17.20
   5  -2  -9  221.08   17.60
  -5  -2   9  273.27   17.50
  -5   2  -9  243.08   17.10
  -5  -2   9  263.37   17.30
   5   2   9  248.18   16.70
   5  -2  -9  249.08   11.10
   5  -3   9    3.40    2.00
  -5  -3  -9    2.90    1.50
   5  -3   9    3.10    1.70
   5   3  -9    0.90    1.80
   5  -3   9    0.00    1.70
   5  -3   9    4.20    2.90
   5   3  -9    0.30    1.30
  -5   3   9   -1.20    2.50
   5   3  -9   -2.50    2.90
  -5   3   9    1.20    1.40
  -5  -3  -9    1.40    1.20
   5   3  -9    1.90    2.40
   5  -3   9    1.60    2.40
  -5  -3   9    2.20    2.10
  -5  -3   9   -0.70    2.80
   5   3   9    1.00    1.70
  -5  -3   9    0.80    1.40
  -5   3  -9   -0.70    2.60
  -5  -3   9   -0.50    2.20
  -5   3  -9    2.90    2.00
   5  -3  -9    1.90    1.60
   5  -4   9  174.28   10.00
  -5  -4  -9  179.58    8.00
   5   4  -9  175.48    8.20
   5  -4   9  168.88   13.40
   5   4  -9  182.78   13.40
   5  -4   9  189.08    9.40
   5  -4   9  182.08   13.40
  -5   4   9  192.08   14.20
   5  -4  -9  186.38    9.10
  -5   4  -9  174.98   13.20
  -5  -4   9  174.98   12.90
   5   4   9  180.58   12.20
  -5  -4   9  171.48    9.40
  -5  -4   9  188.38   13.40
  -5   5   9   -2.00    3.50
   5   5  -9    3.10    1.60
   5  -5   9    2.80    2.20
   5  -5   9    5.40    3.90
  -5  -5   9    5.10    2.00
   5   5   9    3.10    1.80
  -5  -5   9    0.20    3.30
   5  -5  -9    4.70    2.80
   5  -6   9  100.29   10.00
   5   6  -9  106.59    5.60
   5  -6   9   91.19    7.00
  -5  -6   9  115.69   15.10
  -5  -6   9   94.59    6.70
   5  -6  -9  102.99    8.50
  -5  -6   9   96.29    9.10
   5  -7   9   -3.60    9.70
   5  -7   9    3.40    4.90
  -5  -7   9    1.80    8.20
  -5  -7   9   -1.00    2.60
  -5  -7   9   -2.90    3.70
   5  -8   9   18.20   13.00
  -5  -8   9   51.59   12.70
   5  -9   9   -9.50   11.90
  -5  -9   9   -6.30    9.70
  -5   0  10  131.79    6.60
   5   0 -10  129.79   10.10
  -5   0 -10  140.59    9.60
  -5   0  10  129.99   10.20
   5   0 -10  124.19    6.50
   5   0 -10  135.29   10.50
   5   0  10  133.99   10.10
  -5   0  10  134.89    9.90
  -5   0 -10  134.89   10.20
   5   0  10  128.59    9.80
  -5   0  10  131.69   10.30
   5   1 -10    8.80    3.20
   5  -1  10   10.30    3.20
   5  -1  10    8.90    2.60
  -5  -1 -10   11.80    3.10
  -5   1  10   10.50    2.20
  -5   1  10   11.20    3.10
   5   1 -10    9.00    1.70
  -5  -1 -10   14.80    2.60
  -5   1  10   10.70    1.10
   5   1 -10   10.20    2.60
  -5   1  10    5.90    2.80
  -5  -1  10   11.70    1.50
   5   1  10   11.00    2.50
   5   1  10    9.40    2.90
  -5   1 -10   12.10    2.40
  -5   1 -10   12.20    3.10
   5  -1 -10   10.10    1.80
   5  -1 -10    9.40    3.10
  -5  -1  10    7.90    3.20
  -5  -1  10    6.30    2.80
   5  -1 -10   10.00    2.80
  -5  -1  10   11.40    2.50
  -5  -2 -10  268.47   17.60
   5   2 -10  255.97   11.50
  -5   2  10  257.17   17.70
   5   2 -10  273.87   18.40
  -5  -2 -10  273.17   18.60
   5  -2  10  264.87   18.20
   5  -2  10  270.57   18.80
   5   2 -10  273.07   18.30
  -5   2  10  261.27   18.50
  -5  -2 -10  263.17   11.40
   5  -2  10  252.27   18.20
  -5  -2  10  255.57   12.70
   5   2  10  267.17   17.80
   5  -2 -10  271.97   18.80
  -5  -2  10  278.57   18.60
  -5   2 -10  275.27   18.20
  -5   2 -10  262.17   18.20
  -5  -2  10  254.67   18.30
   5  -2 -10  267.37   11.80
   5   3 -10   12.50    1.90
  -5   3  10   10.80    2.20
   5  -3  10    9.70    2.40
  -5  -3 -10   19.60    3.30
  -5  -3 -10   10.40    1.70
   5  -3  10   10.40    3.50
  -5   3  10   10.70    3.30
   5  -3  10   13.00    2.90
   5   3 -10    5.20    3.70
   5  -3  10    9.20    3.10
   5  -3 -10   10.00    2.10
   5   3  10   11.50    2.40
  -5  -3  10   11.90    1.90
  -5   3 -10   11.80    3.40
  -5  -3  10   13.80    3.10
  -5  -3  10    6.30    3.50
  -5  -3  10    7.90    3.10
  -5  -4 -10   76.09    4.40
  -5   4  10   78.29    6.60
   5  -4  10   79.49    8.00
   5   4 -10   75.59    8.00
   5  -4  10   74.19    7.80
  -5   4  10   80.79    7.90
   5   4 -10   77.39    4.60
   5  -4  10   76.59    5.80
   5   4  10   81.09    6.40
  -5  -4  10   80.09    5.30
   5  -4 -10   75.69    5.30
  -5  -4  10   75.99    7.80
   5   5 -10    1.20    1.70
  -5   5  10    0.20    3.20
   5  -5  10    3.50    3.90
   5  -5  10    2.90    2.40
  -5  -5  10   -1.30    3.60
   5   5  10    2.00    2.00
   5  -5 -10    1.70    2.50
  -5  -5  10    2.00    2.00
   5  -6  10   99.09   10.10
   5   6 -10  105.59    5.80
   5  -6  10   93.39    7.20
   5  -6 -10   89.19    7.90
  -5  -6  10  107.09   15.20
  -5  -6  10   93.79    6.80
  -5  -6  10  100.49    9.50
   5  -7  10    5.60    5.20
   5  -7  10   -4.30    9.90
  -5  -7  10    5.90    8.80
  -5  -7  10   -3.70    4.00
   5  -8  10    2.20   11.90
  -5  -8  10   21.10   11.20
   5  -9  10   -6.30   13.10
  -5  -9  10    6.90   11.50
   5   0 -11  436.56   18.80
   5   0  11  452.05   29.40
  -5   0  11  446.66   20.60
   5   0 -11  447.66   29.40
  -5   0  11  477.55   30.00
   5   0  11  436.06   29.30
  -5   0 -11  437.26   29.20
  -5   0 -11  435.56   29.50
  -5   0  11  476.05   29.60
   5   1 -11   55.89    6.50
   5   1 -11   60.29    4.00
  -5  -1 -11   55.89    6.40
   5  -1  11   55.39    6.30
  -5   1  11   63.59    3.40
  -5   1  11   54.49    6.10
  -5  -1 -11   57.49    3.90
   5   1 -11   65.19    6.10
   5  -1 -11   55.49    4.10
  -5  -1  11   51.79    6.50
   5   1  11   58.59    5.70
   5  -1 -11   56.09    6.30
  -5   1 -11   55.89    6.30
  -5  -1  11   54.49    3.70
  -5   1 -11   55.39    5.60
  -5  -2 -11  446.06   30.30
  -5   2  11  471.15   30.50
  -5  -2 -11  460.95   19.00
   5  -2  11  458.55   30.10
   5   2 -11  452.45   30.10
   5   2 -11  455.85   19.00
  -5   2  11  446.46   29.70
  -5   2 -11  443.66   30.00
  -5  -2  11  452.95   21.30
   5   2  11  484.25   29.80
  -5  -2  11  454.15   30.20
   5  -2 -11  460.65   19.30
  -5   3  11   46.10    5.40
  -5  -3 -11   47.90    3.50
   5   3 -11   37.50    6.40
   5  -3  11   45.50    6.20
  -5  -3 -11   51.39    5.00
   5   3 -11   42.90    3.50
  -5   3  11   48.10    5.90
   5  -3  11   43.20    4.50
   5  -3 -11   51.99    4.10
   5   3  11   46.80    5.00
  -5  -3  11   43.90    6.50
  -5   3 -11   47.50    6.20
  -5  -3  11   43.90    3.80
  -5   4  11  311.27   20.60
   5   4 -11  304.57   13.30
   5  -4  11  305.67   21.40
  -5  -4 -11  300.97   13.20
   5  -4  11  301.47   15.90
  -5   4  11  316.67   21.50
  -5  -4  11  300.17   15.10
   5   4  11  316.67   20.50
   5  -4 -11  310.67   14.00
  -5  -4  11  307.87   21.50
   5  -5  11   24.40    3.60
  -5   5  11   25.20    4.50
   5  -5  11   28.30    5.60
   5   5 -11   24.50    2.80
  -5  -5  11   27.70    3.20
   5  -5 -11   28.40    3.80
  -5  -5  11   20.90    5.10
   5  -6  11  219.78   17.00
   5   6 -11  218.58   10.10
  -5  -6  11  220.98   22.10
  -5  -6  11  207.18   11.90
   5  -6 -11  222.68   12.40
  -5  -6  11  220.18   16.60
   5  -7  11    9.30    5.80
  -5  -7  11   16.90   10.00
  -5  -7  11    5.70    5.00
   5  -8  11   41.80   15.60
  -5   0  12    2.50    1.20
   5   0 -12    4.80    3.50
  -5   0 -12    0.40    1.60
   5   0 -12    3.80    1.80
  -5   0 -12    6.40    3.30
   5  -1  12  224.68   16.10
   5   1 -12  234.88   16.20
  -5   1  12  232.08   16.40
  -5  -1 -12  218.88   10.20
  -5  -1 -12  221.18   16.30
   5   1 -12  220.78   16.20
   5   1 -12  224.38   10.30
  -5   1 -12  220.68   16.10
   5  -1 -12  226.18   10.40
   5  -1 -12  220.18   16.00
  -5  -1  12  216.78   10.90
  -5   1 -12  231.78   15.80
  -5  -1  12  236.18   16.40
   5   2 -12   -0.10    3.60
   5   2 -12    1.80    1.80
   5  -2  12   -0.70    3.40
  -5   2  12   -1.00    2.70
  -5  -2 -12    2.10    1.60
  -5  -2 -12    5.80    3.50
   5  -2 -12    0.70    2.90
   5   2  12    0.60    2.40
  -5  -2  12   -3.40    3.40
  -5  -2  12   -0.60    1.40
  -5   2 -12    0.70    3.30
   5  -2 -12    0.40    1.90
   5   3 -12  171.68    8.40
   5  -3  12  169.88   10.20
  -5  -3 -12  173.88    8.30
  -5   3  12  179.58   13.40
   5  -3  12  181.88   13.60
   5   3 -12  165.78   13.70
   5   3  12  175.58   12.70
  -5  -3  12  178.48   13.80
   5  -3 -12  183.68    8.90
  -5  -3  12  173.28    9.20
  -5   3 -12  173.08   13.50
  -5   4  12   -0.70    2.90
   5  -4  12    2.10    4.00
  -5  -4 -12    0.70    1.70
   5  -4  12   -0.20    2.20
   5   4 -12    1.30    1.90
   5  -4 -12    4.10    2.30
  -5  -4  12   -7.70    3.90
  -5  -4  12   -0.10    1.90
   5   4  12    1.40    2.50
   5   5 -12  115.59    6.40
   5  -5  12  120.59    8.20
   5  -5  12  116.09   11.00
   5  -5 -12  125.89    7.80
  -5  -5  12  116.19   10.90
  -5  -5  12  114.49    7.40
   5  -6  12   -3.90    4.80
   5   6 -12   -0.10    2.20
  -5  -6  12    2.20    8.30
  -5  -6  12   -6.00    4.60
  -5  -7  12   72.99   15.10
   5  -8  12   -8.10   12.30
  -5   8 -12   -2.40    2.80
  -5  -8  12    1.10   10.10
  -5   0 -13    2.70    3.60
  -5   0 -13    3.00    1.90
   5   0 -13    1.80    2.00
   5   0 -13    7.20    3.90
   5   1 -13   62.89    4.50
  -5  -1 -13   63.29    7.30
   5   1 -13   60.49    7.40
  -5  -1 -13   61.69    4.40
  -5  -1  13   58.09    4.10
   5  -1 -13   58.29    4.60
  -5   1 -13   60.69    4.50
  -5   1 -13   56.99    7.10
  -5  -2 -13   -1.30    1.60
  -5  -2 -13    3.00    3.70
   5  -2  13   -0.60    3.70
   5   2 -13    1.10    1.90
   5   2 -13   -3.30    3.80
   5  -2 -13   -2.80    3.10
   5  -2 -13    1.70    2.10
  -5  -2  13   -1.60    3.80
  -5  -2  13   -0.80    1.50
  -5   2 -13   -2.30    3.50
   5   3 -13   36.50    3.70
   5   3 -13   41.00    6.30
   5  -3  13   38.20    6.60
   5  -3  13   39.30    4.70
  -5  -3 -13   40.90    3.80
  -5  -3 -13   32.60    6.10
  -5  -3  13   41.80    3.90
  -5  -3  13   35.80    6.20
   5  -3 -13   44.30    4.30
  -5   3 -13   35.60    5.80
   5   4 -13    1.00    2.10
   5  -4  13    0.00    2.50
   5  -4  13   -2.80    4.30
  -5   4  13   -3.30    2.90
  -5  -4 -13   -0.60    1.80
   5  -4 -13    0.90    2.40
  -5  -4  13   -7.90    4.20
  -5  -4  13   -0.10    2.00
   5   5 -13   39.20    4.10
   5  -5  13   29.10    6.40
  -5  -5  13   38.90    4.50
  -5  -5  13   30.50    6.60
   5  -5 -13   41.00    4.60
   5   6 -13   -2.40    2.30
   5  -6  13   -7.30    5.10
  -5  -6  13   -7.20    5.00
  -5   6 -13   -4.10    2.60
  -5   7 -13    9.60    3.20
  -5  -7  13   11.90   11.10
  -5   0 -14   32.70    5.60
  -5   0 -14   32.70    3.30
   5   0 -14   30.60    3.40
  -5  -1 -14  310.27   13.70
   5   1 -14  313.47   21.70
  -5  -1 -14  303.37   21.70
   5   1 -14  291.87   13.70
  -5   1 -14  313.77   13.90
  -5   1 -14  301.67   21.60
   5  -1 -14  307.27   13.90
   5  -1 -14  304.67   21.30
  -5  -2 -14   58.09    4.40
   5   2 -14   49.80    4.50
   5  -2  14   49.00    5.30
  -5  -2 -14   54.99    7.60
   5   2 -14   51.69    7.70
  -5   2 -14   51.99    7.40
   5  -2 -14   56.79    4.80
  -5   2 -14   50.49    4.60
   5  -2 -14   50.19    6.80
   5  -3  14  265.67   14.50
   5   3 -14  273.57   19.60
   5  -3  14  273.27   19.50
   5   3 -14  252.67   12.20
  -5  -3 -14  275.97   12.20
  -5  -3  14  249.97   13.30
  -5   3 -14  255.37   19.30
  -5  -3  14  276.37   19.80
  -5   3 -14  258.77   12.40
   5  -3 -14  270.27   12.60
  -5  -4 -14   18.70    2.70
   5   4 -14   18.50    2.90
   5  -4  14   16.20    5.70
  -5   4 -14   18.60    3.30
  -5  -4  14   19.70    3.00
  -5  -4  14   15.30    5.80
   5  -4 -14   18.50    3.40
   5  -5  14  173.18   14.80
   5   5 -14  169.08    8.90
  -5  -5  14  172.08   10.00
  -5   5 -14  180.78    9.40
   5  -5 -14  174.48   10.00
  -5  -5  14  170.18   14.90
   5   6 -14   18.70    3.30
  -5   6 -14   12.60    3.40
  -5   7 -14  117.19    7.90
  -5  -7  14  134.39   20.00
   5   0 -15  157.08    8.40
  -5   0 -15  152.98   13.10
  -5   0 -15  155.38    8.30
   5   1 -15    1.40    2.40
  -5  -1 -15   -0.40    2.10
  -5  -1 -15    3.30    4.40
  -5   1 -15   -2.00    2.30
   5  -1 -15    1.60    2.40
  -5   1 -15   -0.20    4.20
   5  -1 -15   -3.00    4.00
  -5  -2 -15  161.88   13.80
   5   2 -15  165.78   13.80
   5  -2  15  161.78   10.00
  -5  -2 -15  160.18    8.40
   5   2 -15  153.68    8.50
   5  -2 -15  156.88   12.90
  -5   2 -15  159.68    8.60
   5  -2 -15  162.38    8.80
  -5   2 -15  159.18   13.40
  -5  -3 -15   -2.30    2.00
   5   3 -15    1.60    2.40
   5  -3 -15    1.20    2.60
  -5   3 -15   -0.50    2.60
   5  -4  15   95.69   10.80
  -5  -4 -15  102.89    6.50
   5   4 -15  105.89    6.50
  -5   4 -15  104.49    6.90
  -5  -4  15   97.99   11.10
   5  -4 -15  104.09    7.20
   5  -5  15   -8.20    5.50
   5   5 -15   -2.60    2.50
   5  -5 -15   -2.80    3.10
  -5   5 -15   -1.40    2.80
   5   6 -15   62.79    5.70
  -5   6 -15   69.39    6.20
   5   0 -16   62.69    5.30
   5   0 -16   60.09    8.70
  -5   0 -16   67.19    5.40
  -5   0 -16   64.49    8.80
   5   1 -16   -0.70    2.60
  -5  -1 -16   -0.10    2.30
  -5  -1 -16   -1.60    4.70
   5  -1 -16   -6.30    4.30
  -5   1 -16   -5.50    4.50
  -5   1 -16   -1.00    2.40
   5  -1 -16    1.10    2.70
  -5  -2 -16   34.50    6.90
   5   2 -16   29.50    3.70
  -5  -2 -16   33.90    3.70
  -5   2 -16   32.70    6.50
  -5   2 -16   31.80    3.90
   5  -2 -16   33.00    3.90
   5  -2 -16   24.70    5.70
   5   3 -16    1.10    2.70
  -5  -3 -16   -3.00    2.20
   5  -3 -16    0.20    2.70
  -5   3 -16   -1.80    2.80
   5   4 -16   35.60    4.10
  -5   4 -16   37.40    4.40
   5  -4 -16   45.60    4.90
   5   5 -16   -6.40    2.70
   5  -5 -16   -5.00    3.30
  -5   5 -16   -1.10    3.20
   5   0 -17  174.78   15.70
  -5   0 -17  189.48   10.00
   5   0 -17  195.58   10.10
  -5   0 -17  190.78   16.00
   5   1 -17   12.20    3.30
   5   1 -17   -1.80    5.40
  -5  -1 -17    9.20    2.90
  -5   1 -17    7.90    5.70
  -5   1 -17    7.40    3.00
   5  -1 -17   10.70    3.40
   5   2 -17  144.49    8.90
  -5  -2 -17  165.78    8.90
  -5   2 -17  157.18   14.30
  -5   2 -17  163.68    9.20
   5  -2 -17  163.78    9.30
   5   3 -17    4.90    3.10
  -5  -3 -17    8.80    2.90
  -5   3 -17    1.60    3.10
   5  -3 -17    8.80    3.40
   5   4 -17  128.29    8.20
   5  -4 -17  141.99    9.00
  -5   4 -17  137.59    8.60
   5   0 -18   -0.10    3.10
  -5   0 -18   -2.40    2.60
   5   1 -18   78.49    6.50
  -5  -1 -18   80.19    6.40
   5  -1 -18   78.69    6.70
  -5  -2 -18   -3.60    2.50
   5   2 -18   -5.20    2.90
  -5   2 -18   -4.40    3.10
   5  -2 -18   -4.00    3.00
   5   3 -18   51.19    5.90
  -5  -3 -18   66.89    5.90
   5  -3 -18   58.59    6.30
  -5   3 -18   55.99    6.10
   6   0   0 1767.62  107.79
  -6   0   0 1759.22  107.99
  -6   0   0 1477.05  107.59
  -6   0   0 1720.43  107.19
   6   0   0 1872.31  108.49
   6   0   0 1539.75  107.49
   6   0   0 1493.65  107.69
  -6   0   0 1942.91  107.89
   6   1   0  121.49   10.70
  -6  -1   0  138.89   11.00
  -6  -1   0  144.09   10.90
   6   1   0  159.58   10.50
  -6   1   0  113.59   10.00
   6  -1   0  130.09   10.20
   6  -1   0  162.18   12.10
   6  -1   0  121.19   10.00
  -6  -1   0  144.29   10.30
   6   1   0  107.69   10.20
  -6   1   0  119.99   10.00
  -6  -2   0  153.08   10.50
  -6  -2   0  161.68   11.10
  -6   2   0  147.19   13.20
  -6   2   0  155.58   11.00
   6   2   0  163.58   10.70
  -6  -2   0  155.68   10.20
  -6   2   0  123.59   11.20
  -6  -2   0  156.68   13.30
   6   2   0  157.38   13.80
   6   2   0  140.49   11.30
   6  -2   0  163.48   10.70
  -6  -3   0  155.68    6.10
  -6  -3   0  142.39   13.30
  -6  -3   0  124.79   11.00
  -6   3   0  125.69   10.30
   6  -3   0  154.68    7.30
   6   3   0  148.29    9.60
  -6   3   0  156.58   10.00
   6   3   0  123.29   10.60
  -6  -3   0  151.38    9.70
   6   3   0  140.09    7.70
  -6   4   0  372.06   22.30
   6   4   0  347.77   22.00
   6  -4   0  370.86   16.40
   6   4   0  292.67   23.00
  -6  -4   0  342.17   26.70
  -6   5   0   97.49    6.80
  -6  -5   0   93.09   13.00
   6   5   0   85.99    6.00
   6   5   0   62.89    8.80
   6  -5   0   93.99    5.50
   6   5   0   75.99    7.50
  -6  -6   0  148.49   18.00
   6  -6   0  158.28    8.40
  -6  -6   0  148.19    8.30
   6  -6   0   95.29   17.80
   6   7   0   45.00    7.10
   6  -7   0   57.19    5.30
  -6  -7   0   52.79   13.00
   6  -7   0   28.10   14.50
   6  -8   0   10.20    3.20
   6  -8   0    4.50   13.90
  -6  -8   0   10.80   11.60
   6  -9   0   17.90   17.90
   6  -9   0   23.10    4.80
  -6  -9   0   30.80   15.00
  -6 -10   0   62.29   19.80
   6 -10   0   50.49   24.40
  -6   0   1   -0.80    2.50
   6   0   1    2.40    1.80
   6   0  -1    3.00    2.30
  -6   0  -1    1.10    1.80
   6   0   1    4.20    2.80
  -6   0  -1    3.60    2.00
   6   0  -1    3.10    2.10
   6   0   1    1.70    2.90
  -6   0   1    3.40    2.20
   6   0  -1    2.50    2.80
   6   0  -1    4.10    3.50
  -6   0   1    2.40    2.20
  -6   0  -1    4.60    3.10
  -6   0  -1    1.60    2.00
   6   1  -1  158.88   14.40
   6  -1   1  177.38   13.40
  -6  -1  -1  201.28   12.50
   6   1  -1  167.48   12.60
   6  -1   1  193.48   12.70
  -6   1   1  183.48   13.60
   6  -1   1  155.28   13.40
  -6   1   1  190.38   12.70
   6   1  -1  181.08   13.00
   6   1  -1  205.08   14.20
  -6  -1  -1  151.48   13.00
   6   1  -1  164.78    8.20
  -6  -1  -1  187.38   13.40
   6   1   1  175.58   12.70
  -6  -1   1  193.88   12.80
  -6  -1   1  205.58   13.60
   6   1   1  183.68   14.60
  -6   1  -1  159.78   13.50
  -6  -1   1  203.28   13.30
  -6   1  -1  185.68   12.60
  -6   1  -1  185.58   14.00
   6  -1  -1  198.38   14.00
   6   1   1  146.49   13.30
  -6  -1   1  206.28   13.10
   6   2  -1   38.90    4.30
   6  -2   1   29.30    4.00
  -6  -2  -1   38.60    6.60
   6   2  -1   32.30    2.70
  -6   2   1   31.70    4.50
   6   2  -1   41.50    3.60
  -6  -2  -1   33.30    4.90
  -6  -2  -1   39.30    4.60
   6   2  -1   39.20    5.80
   6   2  -1   33.00    5.70
   6   2  -1   38.30    3.00
  -6   2   1   39.10    3.70
   6  -2   1   39.10    3.60
  -6   2  -1   41.50    3.30
  -6   2  -1   34.30    5.70
   6   2   1   32.70    5.80
  -6  -2   1   44.90    3.40
   6  -2  -1   51.29    7.80
   6  -2  -1   40.20    4.00
  -6  -2   1   45.60    5.90
  -6   2  -1   51.39    5.80
   6  -2  -1   42.90    2.50
   6   2   1   41.60    3.90
  -6  -2   1   49.10    4.30
  -6   2  -1   46.70    3.90
  -6  -2   1   28.80    4.30
   6   2   1   43.30    4.00
   6  -2  -1   33.20    5.10
   6  -3   1  169.58    8.40
  -6   3   1  158.88   11.60
  -6  -3  -1  158.28   15.80
  -6  -3  -1  166.68    7.20
   6  -3   1  171.78   11.00
  -6  -3  -1  175.98   11.30
   6   3  -1  165.08   11.00
  -6  -3  -1  173.38   11.00
  -6   3   1  170.88   11.00
   6   3  -1  147.39   13.10
   6   3  -1  150.18   13.30
   6   3  -1  168.08    8.70
   6  -3   1  151.78   13.30
  -6   3  -1  160.58    8.20
   6  -3  -1  165.88    8.10
  -6  -3   1  176.88   11.10
  -6  -3   1  188.18   13.50
   6   3   1  141.89    8.70
  -6   3  -1  167.98   11.20
  -6  -3   1  165.88   13.90
  -6   3  -1  176.38   13.00
   6   3   1  169.28   11.30
   6   4  -1   10.90    3.50
  -6   4   1    5.40    1.90
  -6  -4  -1    3.90    5.30
  -6  -4  -1    2.90    2.10
   6   4  -1    3.70    1.30
   6   4  -1   -1.60    3.50
   6   4  -1    2.10    1.00
   6  -4   1    3.30    1.40
   6  -4   1    3.30    5.20
  -6   4  -1    6.70    1.80
  -6  -4   1   11.70    4.70
   6  -4  -1    3.70    1.40
   6   4   1    4.40    1.20
   6  -4  -1    2.00    6.10
  -6   4  -1    9.00    3.00
   6   4   1    5.90    1.60
  -6  -4   1   -4.40    3.10
  -6   5   1   98.49    7.30
   6   5  -1   84.49    6.50
   6   5  -1   98.59    9.70
  -6  -5  -1  104.19   15.10
   6   5  -1   85.59    8.60
   6  -5   1   90.79    5.80
  -6  -5  -1   87.19    5.90
  -6   5  -1   98.09    7.20
  -6   5  -1  117.89    9.50
   6  -5  -1   96.19    5.70
   6  -5  -1   70.89   14.40
  -6  -5   1   92.89   12.60
   6   6  -1   13.50    2.40
  -6  -6  -1   17.30    2.40
   6  -6   1    0.10    8.70
   6   6  -1   21.90    5.60
   6  -6   1   12.90    2.50
  -6  -6  -1   12.00    8.80
  -6  -6   1   17.50    7.30
   6  -6  -1    3.90   10.50
   6  -6  -1   10.30    2.60
   6   7  -1   35.70    7.50
  -6  -7  -1   69.79   14.70
   6   7  -1   57.39    4.60
   6  -7   1   56.09    5.20
   6  -7   1   29.70   13.80
   6  -7  -1   47.50   16.60
   6  -7  -1   51.69    5.30
  -6  -7   1   51.29   11.60
   6  -8   1    1.60    2.90
   6   8  -1    2.30    2.00
  -6  -8  -1   -1.30   11.40
   6  -8   1   -5.50   12.40
   6  -8  -1   -3.80   14.90
  -6  -8   1    8.50    9.90
   6  -8  -1   -1.30    2.80
   6  -9   1   13.90    4.10
  -6  -9  -1   22.60   15.70
   6  -9   1   -2.60   14.70
   6  -9  -1   19.60    4.60
   6  -9  -1   15.40   19.70
  -6  -9   1   16.50   13.00
  -6 -10  -1   -0.10   15.70
   6 -10   1  -12.40   18.70
   6 -10  -1    2.20   20.80
  -6 -10   1   -2.40   14.10
   6   0  -2  180.88   12.50
   6   0   2  167.18   11.90
   6   0  -2  169.18   12.00
   6   0  -2  138.59   12.30
  -6   0   2  165.18   12.10
  -6   0  -2  147.89   12.00
  -6   0   2  154.38   12.80
   6   0   2  178.08   12.50
   6   0   2  173.48   12.10
  -6   0  -2  177.58    9.00
  -6   0  -2  186.08   11.90
  -6   0  -2  191.88   12.20
   6   0  -2  177.68    7.80
  -6   1   2   10.10    3.50
  -6  -1  -2   19.80    2.20
  -6  -1  -2   16.40    3.60
  -6   1   2   19.00    2.90
  -6   1   2   13.60    3.10
   6   1  -2   19.50    2.80
  -6   1   2   18.40    2.40
   6   1  -2   11.70    3.10
   6  -1   2   13.90    2.90
   6   1  -2   15.40    1.90
   6  -1   2   19.80    3.20
   6  -1   2   20.30    2.90
   6   1  -2   17.60    1.90
  -6  -1  -2   18.60    2.50
   6   1  -2   18.50    3.80
  -6   1  -2   22.10    3.70
  -6   1  -2   17.80    2.30
   6  -1  -2   20.10    2.30
  -6  -1   2   13.60    2.80
  -6  -1   2   17.10    3.00
   6  -1  -2   17.60    2.90
  -6   1  -2   21.00    2.80
  -6  -1   2   17.20    3.00
  -6  -1   2   18.90    3.20
  -6  -1   2   17.60    2.80
  -6   1  -2   19.80    3.20
   6   1   2   20.40    2.50
   6   1   2    7.30    4.00
   6  -1  -2   18.20    2.30
   6   1   2   18.00    2.90
   6   2  -2  126.59   10.50
   6   2  -2  132.59    5.80
  -6  -2  -2  136.99    9.10
  -6   2   2  135.49    9.50
   6   2  -2  133.89    9.10
   6   2  -2  141.99    6.90
  -6  -2  -2  134.59    7.50
   6  -2   2  120.59   10.20
   6  -2   2  109.89   10.10
   6   2  -2  130.09    9.30
  -6   2   2  111.19   10.50
  -6   2   2  138.59    8.90
   6  -2  -2  131.39    6.20
  -6  -2   2  131.59   10.40
  -6  -2   2  139.69   10.70
  -6   2  -2  123.09   10.50
  -6   2  -2  143.69   10.10
  -6  -2   2  129.79    8.90
  -6   2  -2  130.39    6.80
   6   2   2  122.29    9.90
  -6   2  -2  134.49    9.20
   6   2   2  133.59    9.00
   6  -2  -2  133.69    9.20
   6   2   2  129.59   10.00
  -6  -2   2  133.79    9.30
  -6   3   2   14.80    3.10
   6   3  -2   22.50    2.40
   6   3  -2   17.60    3.60
  -6  -3  -2   21.80    2.60
   6   3  -2   20.80    1.70
  -6  -3  -2   15.80    6.30
   6  -3   2   21.50    4.30
   6   3  -2   20.40    2.40
   6  -3   2   18.40    2.80
   6  -3   2   20.20    2.30
   6   3   2   16.90    3.50
  -6   3  -2   20.00    2.90
   6   3   2   21.00    2.20
   6  -3  -2   36.10    8.60
  -6   3  -2   11.40    3.60
   6  -3  -2   19.80    1.90
  -6  -3   2   18.60    2.90
   6   3   2   18.90    2.50
  -6   3  -2   17.60    1.80
  -6  -3   2   21.90    4.40
  -6  -3   2   11.30    3.40
  -6  -4  -2  103.19    6.20
   6  -4   2  109.19    7.30
   6   4  -2  104.39    7.30
   6   4  -2   98.59    8.80
   6  -4   2  103.19    5.90
   6  -4   2   70.79   12.30
  -6  -4  -2  100.39   14.70
  -6   4   2   94.99    8.10
   6   4  -2  112.49    4.70
  -6   4  -2   77.99    9.40
   6  -4  -2  106.59    5.70
  -6  -4   2  106.49    6.10
   6   4   2  106.09    7.00
  -6  -4   2  102.99   11.10
  -6   4  -2  111.79    7.60
   6  -4  -2  119.09   18.50
  -6  -4   2  107.89    7.40
   6   5  -2    8.00    1.70
  -6   5   2    8.50    1.40
  -6  -5  -2    9.50    2.00
   6   5  -2    8.40    3.30
   6  -5   2    5.60    6.40
   6   5  -2    3.80    4.20
   6  -5   2    9.70    2.00
  -6  -5  -2    8.40    7.70
   6  -5  -2    9.00    2.00
  -6   5  -2    7.10    2.30
  -6   5  -2   -1.00    3.50
  -6  -5   2    7.60    5.10
  -6  -5   2    6.90    2.10
   6  -5  -2    8.70   10.30
   6   5   2   17.10    4.40
   6  -6   2   20.10   10.00
  -6  -6  -2   55.39   13.20
  -6  -6  -2   47.30    3.70
   6   6  -2   48.60    4.20
   6  -6   2   49.70    4.60
  -6   6  -2   32.30    6.20
  -6  -6   2   67.09   11.50
   6  -6  -2   51.99    4.80
   6  -7   2    5.60    2.60
   6  -7   2   41.30   13.50
  -6  -7  -2   10.40   11.00
   6   7  -2   10.80    2.20
   6   7  -2    5.00    5.30
  -6   7  -2    7.10    4.30
   6  -7  -2    9.50    3.00
   6  -7  -2   18.60   17.60
  -6  -7   2   11.70    8.10
   6   8  -2   34.00    3.80
  -6  -8  -2   44.00   15.80
   6  -8   2   11.20   11.90
   6  -8   2   18.30    3.80
  -6  -8   2   37.60   11.50
   6  -8  -2   24.40   19.00
   6  -8  -2   27.90    4.70
  -6   8  -2   23.50    5.20
   6  -9   2  -21.00   12.30
  -6  -9  -2    5.10   14.50
   6  -9  -2    1.90   19.20
  -6  -9   2    8.80   11.40
   6 -10   2    2.30   17.60
  -6 -10  -2    5.90   17.30
  -6 -10   2   18.30   14.60
   6 -10  -2   15.80   22.40
  -6   0  -3  246.78   17.50
  -6   0  -3  277.47   12.80
  -6   0  -3  274.97   17.30
  -6   0   3  252.57   17.30
  -6   0   3  221.58   17.20
   6   0  -3  284.07   17.50
  -6   0  -3  277.37   17.30
   6   0   3  274.47   17.40
   6   0  -3  270.97   17.40
   6   0  -3  273.57   12.00
  -6   0   3  229.58   18.20
   6   0  -3  268.67   11.10
   6   0   3  259.87   12.70
   6   0   3  264.87   17.70
   6   0  -3  249.58   17.70
   6   0   3  264.87   17.30
   6   0  -3  219.18   18.10
  -6   0   3  277.47   18.00
  -6   1   3  129.09   11.80
   6   1  -3  148.49   10.90
   6   1  -3  138.09   11.00
   6   1  -3  151.58   10.60
  -6  -1  -3  129.89   11.50
   6   1  -3  146.39    6.60
  -6  -1  -3  147.49    7.90
   6  -1   3  150.38   10.70
  -6  -1  -3  143.79    9.90
  -6   1   3  148.39   10.50
  -6   1   3  150.08   10.20
   6  -1   3  134.59   10.70
   6   1  -3  150.68   10.60
   6  -1   3  156.68   10.50
  -6   1   3  137.19   11.90
   6  -1   3  135.49    7.60
   6   1  -3  161.08    7.40
   6   1   3  148.09   10.20
   6   1   3  148.29   10.50
  -6   1  -3  145.99    7.60
   6  -1  -3  149.99   10.30
  -6  -1   3  153.68   10.70
   6  -1  -3  148.09   10.00
  -6   1  -3  163.28   10.80
   6   1   3  122.99   11.40
   6  -1  -3  141.39    7.10
  -6   1  -3  149.09   10.40
  -6  -1   3  151.38   10.80
  -6  -1   3  148.49   10.90
  -6  -1   3  149.49   10.60
  -6  -2  -3  229.08   11.80
  -6   2   3  233.08   15.30
   6   2  -3  247.98   11.50
  -6  -2  -3  249.68   15.40
   6  -2   3  224.18   16.10
   6  -2   3  249.58   15.60
   6   2  -3  210.78   16.90
   6   2  -3  236.78   15.70
   6   2  -3  246.48   16.40
   6   2  -3  227.68   15.70
   6   2  -3  242.48    9.90
   6  -2  -3  206.78   10.90
  -6   2  -3  242.28   15.60
   6  -2  -3  231.38   15.30
  -6  -2   3  241.38   15.60
   6   2   3  240.18   15.40
   6   2   3  238.88   15.80
  -6  -2   3  231.88   11.30
  -6   2  -3  238.88   11.40
  -6   2  -3  251.07   16.10
  -6   2  -3  247.88   16.60
  -6  -2   3  240.28   15.70
  -6  -2   3  223.28   16.30
  -6  -2   3  241.28   17.00
   6  -3   3  103.79    9.20
   6   3  -3  124.99    6.40
   6   3  -3   93.29    9.90
  -6  -3  -3  110.79    6.40
   6  -3   3  118.79    8.10
   6   3  -3  119.19    5.10
   6   3  -3  109.59    8.00
   6  -3   3  116.99    7.70
  -6   3   3  121.99   10.20
   6  -3   3  102.59    6.20
   6   3  -3  111.99    9.00
   6   3   3  127.59    8.80
   6  -3  -3  120.59    5.80
  -6  -3   3   91.39    9.20
  -6  -3   3  116.39    9.40
  -6  -3   3  112.19   10.40
  -6  -3   3  108.69    6.10
   6   3   3  116.19    8.50
  -6   3  -3  112.59    8.10
  -6   3  -3  109.89    5.80
   6   3   3  107.79    7.60
   6  -3  -3  137.89   15.70
  -6  -3   3  112.49    7.80
  -6   3  -3  113.39    9.40
  -6  -3   3  112.09    8.20
   6  -4   3  145.99    8.00
   6  -4   3  126.69   11.70
   6  -4   3  154.18   10.10
   6   4  -3  162.08    6.40
  -6   4   3  153.78    7.20
   6   4  -3  137.39   11.00
   6   4  -3  114.19   12.40
  -6  -4  -3  154.58    7.90
  -6  -4  -3  127.79   18.30
   6   4  -3  145.29   10.10
   6  -4  -3  201.68   22.40
  -6  -4   3  155.68   13.70
  -6  -4   3  144.09    7.90
   6   4   3  136.89   11.20
  -6   4  -3  149.69   11.80
   6  -4  -3  162.88    7.80
  -6  -4   3  144.59   10.20
  -6   4  -3  150.68   10.30
  -6  -5  -3  114.79   19.10
  -6  -5  -3  138.19    7.20
   6  -5   3  127.99    7.50
   6  -5   3  100.69   15.70
   6   5  -3  133.89    5.80
  -6   5   3  140.49    6.70
   6   5  -3  122.09   10.10
   6   5  -3  103.79   11.90
   6  -5   3  136.69    9.10
   6   5  -3  130.29    9.10
   6  -5  -3  175.88   24.90
  -6  -5   3  127.49    7.50
  -6  -5   3  130.89    9.10
   6  -5  -3  140.79    7.60
  -6  -5   3  128.09   13.70
  -6   5  -3  137.89   11.10
  -6   5  -3  135.79    9.60
   6   6  -3   66.19    9.70
  -6  -6  -3   85.89    5.20
   6  -6   3   82.29    6.10
   6   6  -3   81.69    6.40
  -6  -6  -3   95.39   17.70
   6  -6  -3   88.59    6.40
  -6   6  -3   85.09    8.60
  -6  -6   3   95.69   12.90
  -6  -6   3   87.49    6.10
   6   7  -3   83.09    6.60
  -6  -7  -3   87.59   18.80
   6   7  -3   67.49    9.60
   6  -7   3   78.39    6.30
   6  -7  -3   98.29    7.30
  -6   7  -3   79.99    8.30
  -6  -7   3   98.89   14.60
  -6  -7   3   78.49    6.40
   6  -7  -3  121.79   24.60
  -6  -8  -3   56.99   18.30
   6  -8   3   34.40    4.50
   6  -8   3   13.80   12.40
   6  -8  -3   40.00   20.60
  -6  -8   3   47.30   11.90
  -6   8  -3   37.40    6.10
  -6  -9  -3  113.79   24.30
   6  -9  -3  112.59   29.30
  -6  -9   3   68.59   16.20
   6 -10   3   -4.90   16.30
  -6 -10  -3   41.40   21.40
  -6 -10   3   10.40   13.80
   6 -10  -3   12.60   24.30
   6   0  -4  184.28   12.20
  -6   0   4  173.78   13.00
   6   0   4  188.88   12.50
  -6   0  -4  179.38   12.00
   6   0   4  174.98   12.10
  -6   0  -4  179.78    9.00
   6   0  -4  175.38   12.20
   6   0   4  177.28    9.00
  -6   0  -4  192.78   12.20
  -6   0   4  187.68   12.70
   6   0  -4  164.48   13.00
  -6   0   4  183.18   12.20
  -6   0   4  179.28   12.20
  -6   0  -4  176.58   12.40
   6   0   4  171.08   12.10
   6   0  -4  172.08   12.60
   6   0  -4  183.88    7.80
   6   1  -4   22.80    3.00
  -6   1   4   12.30    3.70
   6  -1   4   21.60    3.00
  -6   1   4   20.20    2.40
   6  -1   4   22.40    3.20
   6  -1   4   16.60    2.10
  -6  -1  -4   18.90    2.20
  -6   1   4   19.60    3.50
   6   1  -4   20.90    1.90
  -6  -1  -4   16.40    3.20
  -6  -1  -4   28.50    4.40
   6   1  -4   21.70    3.00
   6   1  -4   19.00    3.20
  -6  -1  -4   18.30    2.20
   6  -1   4   20.20    3.00
   6   1  -4   19.50    2.70
   6   1  -4   20.00    1.80
  -6  -1   4   19.20    3.00
   6   1   4   20.40    2.90
   6   1   4   22.60    2.50
  -6   1  -4   20.50    2.10
  -6  -1   4   18.10    3.00
  -6   1  -4   20.40    3.10
  -6  -1   4   20.10    2.80
  -6   1  -4   20.30    2.70
  -6  -1   4   19.00    1.70
  -6  -1   4   19.60    3.30
   6  -1  -4   23.10    2.20
  -6   1  -4   21.10    3.10
   6  -1  -4   20.50    2.50
   6  -1  -4   16.50    3.00
   6   1   4   17.60    2.10
  -6   2   4  151.28    9.80
   6  -2   4  149.79    7.50
   6   2  -4  142.69   10.70
   6   2  -4  144.49   10.30
  -6  -2  -4  149.49    7.80
  -6   2   4  137.99   11.70
  -6  -2  -4  154.58    9.90
  -6  -2  -4  140.39   11.80
   6   2  -4  132.99   10.10
   6   2  -4  153.08   11.20
   6  -2   4  131.89   10.80
   6   2  -4  159.88    7.60
   6  -2   4  147.69   10.60
   6   2  -4  148.29    6.50
  -6   2   4  134.49   11.90
   6   2   4  144.99    7.90
  -6   2  -4  150.28   10.30
   6  -2  -4  156.98    9.90
  -6  -2   4  142.79   11.00
   6   2   4  147.49    9.90
   6  -2  -4  149.09    7.30
  -6   2  -4  154.38   10.80
  -6  -2   4  150.28   10.90
   6  -2  -4  143.99   12.30
  -6   2  -4  151.08    7.50
  -6  -2   4  153.88   10.30
  -6  -2   4  146.79    7.30
   6   2   4  150.88   10.20
  -6  -2   4  151.58   10.40
  -6   2  -4  157.58   10.60
  -6  -3  -4   12.60    1.90
  -6   3   4    6.30    3.60
   6  -3   4    9.90    3.00
   6  -3   4   14.10    2.20
   6   3  -4   12.20    1.70
   6   3  -4    9.80    1.20
   6  -3   4    7.90    1.50
  -6   3   4   11.90    1.50
   6   3  -4   12.00    2.90
   6   3  -4   11.10    1.90
   6   3  -4    7.70    3.10
   6  -3   4   10.60    1.80
   6  -3   4   12.40    2.80
  -6  -3   4   18.90    3.90
  -6  -3   4   10.30    1.80
   6   3   4    6.70    3.00
  -6  -3   4    9.80    2.30
  -6   3  -4   10.20    2.50
  -6  -3   4    7.50    2.60
   6   3   4   12.20    1.80
   6  -3  -4    8.00    2.40
  -6   3  -4   13.10    2.30
  -6  -3   4   10.80    1.60
   6   3   4   12.70    2.30
   6  -4   4  110.49    9.00
   6   4  -4   94.79    8.20
  -6  -4  -4  102.29    5.80
  -6   4   4  105.09    5.10
  -6   4   4   76.89    9.50
   6   4  -4   99.79    4.70
   6   4  -4  111.49    7.50
   6  -4   4  106.39    7.60
   6  -4   4   95.39    6.10
   6   4  -4  100.59    9.60
  -6   4  -4  108.79    7.90
  -6  -4   4  100.69    7.70
  -6  -4   4  107.89   10.90
  -6  -4   4   96.19    5.90
  -6  -4   4   78.39    9.10
  -6   4  -4  110.59    8.70
   6   4   4  106.19    8.10
   6  -5   4   10.40    7.10
   6  -5   4   13.70    2.40
   6  -5   4   11.10    4.40
   6   5  -4   11.90    3.40
   6   5  -4    9.80    4.20
   6   5  -4   10.60    2.20
   6   5  -4   14.10    1.40
  -6  -5  -4   14.60    2.10
  -6   5   4   17.10    2.00
  -6  -5   4   12.20    2.20
  -6   5  -4   13.30    2.80
  -6  -5   4   10.60    5.50
  -6  -5   4    5.50    4.40
  -6  -5   4   10.70    2.60
  -6   5  -4   15.90    3.40
   6  -5  -4   20.20   13.30
  -6  -6  -4   76.99   18.70
   6   6  -4   58.79    8.20
   6   6  -4   63.59    3.40
   6   6  -4   58.69    5.20
   6  -6   4   33.40   11.10
   6  -6   4   57.39    5.10
  -6  -6  -4   60.29    4.20
  -6  -6   4   63.79   10.40
  -6   6  -4   65.89    6.80
  -6  -6   4   56.59    4.90
   6  -6  -4  105.29   22.10
   6  -7   4    0.40    2.40
  -6  -7  -4    6.10   14.30
   6  -7   4    8.20    9.50
   6   7  -4    2.30    4.20
   6   7  -4    4.80    2.20
  -6   7  -4    4.30    3.20
   6  -7  -4   -1.00   16.60
  -6  -7   4    1.60    2.60
  -6  -7   4    2.90    6.90
   6  -8   4    6.80   11.50
  -6  -8  -4   43.50   19.30
   6  -8   4   24.40    4.20
  -6  -8   4   22.60    3.90
   6  -8  -4   30.40   21.80
  -6  -8   4   28.90   10.60
  -6  -9  -4   10.40   18.00
   6  -9   4   -1.00   12.30
   6  -9  -4    4.30   22.20
  -6  -9   4   11.00   11.00
   6 -10   4   -2.80   15.60
  -6 -10   4   17.50   13.60
   6 -10  -4   18.40   26.30
  -6   0   5   29.50    4.10
  -6   0   5   31.70    3.30
   6   0  -5   31.90    3.30
   6   0  -5   31.60    2.30
   6   0   5   30.40    3.20
   6   0  -5   31.30    4.20
  -6   0   5   29.20    3.80
  -6   0  -5   31.10    3.90
  -6   0   5   28.10    1.80
  -6   0   5   31.30    4.30
   6   0   5   30.50    3.90
   6   0   5   29.70    2.60
   6   0  -5   32.70    5.10
  -6   0  -5   31.80    2.60
  -6   0  -5   31.50    3.10
   6   0   5   29.90    3.50
  -6   0  -5   33.80    3.60
   6   0  -5   32.40    3.80
   6   1  -5   83.49    4.30
  -6   1   5   77.79    7.00
  -6  -1  -5   79.49    5.70
  -6  -1  -5   72.79    6.90
  -6  -1  -5   76.99    4.70
   6   1  -5   76.59    6.50
   6  -1   5   73.69    6.30
   6   1  -5   77.29    4.00
   6  -1   5   85.59    6.50
   6   1  -5   77.09    6.40
   6  -1   5   81.79    6.30
  -6   1   5   86.79    6.00
  -6   1   5   68.49    7.50
   6  -1   5   78.69    4.50
   6   1  -5   81.19    6.50
   6   1  -5   73.29    6.50
   6  -1  -5   73.59    6.10
   6   1   5   79.39    4.70
  -6   1  -5   78.59    6.20
   6  -1  -5   80.89    4.30
  -6   1  -5   90.09    6.50
  -6  -1   5   77.49    4.10
  -6   1  -5   80.09    4.60
  -6  -1   5   82.99    6.60
  -6  -1   5   82.79    6.50
  -6  -1   5   83.99    6.60
   6   1   5   80.49    5.90
  -6   1  -5   92.39    6.50
   6   1   5   75.29    6.10
  -6  -1   5   79.59    6.50
   6   2  -5    5.50    2.30
   6   2  -5    5.90    1.10
  -6  -2  -5    8.00    1.60
   6  -2   5    8.50    2.20
   6  -2   5    8.30    2.30
   6   2  -5    8.20    1.90
  -6   2   5    2.10    3.00
  -6   2   5    7.40    2.80
  -6   2   5    7.50    1.30
   6   2  -5    7.30    1.30
   6  -2   5    7.90    1.40
   6   2  -5    6.30    2.50
  -6  -2  -5    3.40    2.80
   6  -2   5    8.00    2.20
  -6  -2  -5    8.40    1.70
   6   2   5    6.40    1.40
   6  -2  -5    3.00    3.10
  -6  -2   5    7.60    2.30
  -6  -2   5    7.70    2.30
  -6   2  -5    6.20    2.00
   6  -2  -5    8.10    1.60
   6   2   5    7.10    1.70
  -6  -2   5    5.30    1.80
   6  -2  -5    6.00    1.70
  -6  -2   5    7.50    1.20
  -6   2  -5    7.70    1.90
   6   2   5    8.50    1.90
  -6  -2   5    5.60    2.20
   6   3  -5   50.19    5.50
  -6  -3  -5   52.69    3.70
   6   3  -5   55.29    5.90
   6  -3   5   51.59    3.50
   6   3  -5   55.09    4.60
  -6   3   5   53.49    3.90
   6  -3   5   45.90    5.60
   6   3  -5   60.19    4.00
   6   3  -5   55.69    3.10
   6  -3   5   58.79    5.10
   6  -3   5   59.79    5.70
  -6   3   5   40.90    6.70
   6  -3   5   42.10    4.60
   6  -3   5   48.70    4.00
  -6  -3   5   53.59    3.60
  -6  -3   5   51.19    5.90
  -6  -3   5   52.79    7.30
   6   3   5   52.89    4.80
  -6  -3   5   57.99    4.70
   6  -3  -5   54.99    4.30
   6   3   5   51.19    4.10
  -6   3  -5   52.19    4.90
  -6  -3   5   53.09    5.10
  -6   3  -5   60.49    5.30
   6   3   5   53.69    4.10
  -6  -3   5   44.10    5.60
   6  -4   5   18.10    2.50
   6   4  -5   16.50    3.40
  -6   4   5   22.90    1.80
   6  -4   5   20.30    3.90
   6   4  -5   18.60    4.20
   6   4  -5   24.20    3.10
   6   4  -5   21.50    2.20
   6  -4   5   20.10    3.00
  -6   4   5   19.20    4.80
  -6  -4  -5   21.10    2.70
  -6  -4  -5   21.10    1.60
   6  -4   5   18.10    2.40
   6  -4  -5   14.30    3.20
  -6  -4   5   19.70    3.70
   6   4   5   17.30    2.20
   6   4   5   22.10    3.70
  -6   4  -5   23.70    3.80
  -6   4  -5   17.60    3.10
  -6  -4   5   18.10    3.80
  -6  -4   5   17.20    2.20
   6   4   5   12.50    3.60
  -6  -4   5   21.90    5.40
  -6  -4   5   14.90    2.60
  -6  -4   5   24.20    3.80
   6  -5   5   38.60    4.10
   6   5  -5   42.50    6.50
  -6  -5  -5   43.50    3.60
   6   5  -5   43.40    3.00
  -6   5   5   48.10    3.00
   6  -5   5   42.10    6.60
   6   5  -5   44.40    4.40
   6   5  -5   42.60    5.60
   6  -5   5   51.89    5.00
  -6  -5   5   46.10    4.00
  -6   5  -5   49.70    5.50
  -6  -5   5   46.60    5.00
  -6  -5   5   51.19    9.30
  -6  -5   5   37.90    5.90
   6  -6   5    1.30    2.10
   6  -6   5   -0.50    8.30
   6  -6   5   -3.70    4.20
   6   6  -5    1.50    3.90
   6   6  -5    3.90    1.30
   6  -6   5    5.10    2.50
   6   6  -5    3.90    2.20
  -6  -6   5   -3.80    4.30
  -6  -6   5    3.40    2.40
  -6  -6   5    2.60    2.10
  -6  -6   5    3.70    6.20
  -6   6  -5    3.70    2.80
   6  -7   5    8.70   10.00
   6  -7   5   14.70    3.20
   6   7  -5   16.20    4.90
  -6  -7   5   24.10    8.70
  -6  -7   5   15.00    3.10
   6  -8   5    4.60    3.20
   6  -8   5  -11.70    9.60
  -6  -8   5   13.90    9.30
   6  -9   5    2.00   12.90
  -6  -9   5   13.30   11.10
   6 -10   5   -0.90   14.70
  -6 -10   5    1.30   11.90
  -6   0  -6   89.99    6.60
   6   0   6   86.19    6.40
   6   0  -6   83.19    7.00
   6   0   6   79.89    4.80
   6   0  -6   82.49    4.30
  -6   0  -6   85.19    6.90
   6   0  -6   81.89    6.70
  -6   0  -6   81.39    6.30
   6   0  -6   88.09    6.70
   6   0  -6   80.79    7.40
   6   0   6   77.29    6.50
  -6   0   6   80.99    7.10
  -6   0  -6   85.89    4.90
  -6   0   6   80.99    6.40
  -6   0   6   78.09    6.90
  -6   1   6  130.29   10.40
   6  -1   6  126.89    9.30
   6  -1   6  119.49    6.70
   6   1  -6  118.29    5.90
  -6   1   6  132.69    9.00
   6   1  -6  128.29    9.50
   6  -1   6  128.39    9.30
  -6   1   6  127.39    9.70
  -6  -1  -6  128.79    9.80
   6   1  -6  128.89    9.50
   6   1  -6  125.29    9.40
   6   1  -6  130.19    9.50
  -6  -1  -6  122.09    6.90
  -6  -1  -6  127.89    8.80
   6   1  -6  136.89    6.60
  -6  -1   6  126.69    9.50
   6  -1  -6  126.29    9.20
  -6   1  -6  136.19    9.50
  -6  -1   6  130.29    9.50
   6  -1  -6  129.69    6.10
   6   1   6  130.89    9.10
  -6   1  -6  125.79    9.30
  -6   1  -6  129.69    9.20
  -6  -1   6  134.49    9.60
   6   1   6  126.79    9.00
   6   1   6  132.89    6.90
  -6  -1   6  137.99    9.60
  -6  -1   6  124.89    6.30
   6   2  -6  462.95   28.80
  -6  -2  -6  449.56   21.10
   6  -2   6  444.76   20.90
   6  -2   6  450.05   29.10
   6   2  -6  466.05   20.70
  -6   2   6  474.45   29.10
  -6  -2  -6  452.95   28.20
   6   2  -6  439.16   28.80
   6   2  -6  464.65   29.40
   6   2  -6  459.35   18.10
   6  -2   6  427.26   28.70
   6   2  -6  451.45   28.60
  -6   2   6  439.26   28.40
   6  -2   6  464.55   28.70
  -6   2   6  363.56   30.10
   6   2   6  449.86   21.20
   6  -2  -6  464.35   28.20
  -6  -2   6  421.66   20.40
   6   2   6  424.46   28.30
  -6  -2   6  453.85   29.40
  -6  -2   6  436.96   28.70
   6   2   6  440.26   28.40
  -6  -2   6  434.46   28.80
   6  -2  -6  438.36   18.50
  -6  -2   6  459.55   28.90
  -6   2  -6  435.86   28.50
  -6  -3  -6   99.79    5.70
  -6   3   6   99.89    8.50
   6   3  -6   93.29    8.10
   6   3  -6   91.49    8.30
   6  -3   6   94.59    5.40
   6  -3   6  104.39    7.80
   6   3  -6  101.59    7.50
   6  -3   6  100.59    7.90
  -6  -3  -6   96.89    6.80
  -6   3   6   98.19    6.90
  -6   3   6  102.39    9.40
   6   3  -6   91.49    4.80
   6  -3   6   98.49    8.10
   6  -3   6   95.79    8.20
   6  -3  -6   97.39    5.70
  -6   3  -6   97.19    7.70
  -6  -3   6   93.29    8.40
  -6   3  -6   98.59    7.90
  -6  -3   6   88.89    7.70
  -6  -3   6   98.29    8.30
   6   3   6  101.09    7.40
  -6  -3   6  107.39    7.60
  -6  -3   6   92.89    5.50
   6   3   6  110.19    6.10
   6   3   6   94.79    6.90
   6   4  -6   95.89    8.90
  -6   4   6  107.79    5.00
   6  -4   6  108.79    5.70
   6  -4   6  105.49    7.80
   6   4  -6   96.29    5.00
   6  -4   6  107.69    8.80
   6  -4   6   95.79    6.30
   6   4  -6   98.39    7.70
   6   4  -6  100.59    8.50
  -6   4   6   95.69    8.90
   6  -4   6  114.19    8.00
  -6  -4  -6  103.69    6.00
  -6  -4  -6  100.29    4.60
  -6  -4   6   95.89    5.90
   6   4   6  105.59    6.50
  -6  -4   6  101.49    8.10
   6   4   6   97.49    7.00
  -6   4  -6  102.79    8.00
  -6   4  -6  110.89    8.40
  -6  -4   6  100.79   11.30
   6   4   6  100.99    7.80
   6  -4  -6  106.19    6.70
  -6  -4   6   95.49    7.60
   6  -5   6   84.49    8.10
   6   5  -6   77.89    6.40
   6   5  -6   68.39    7.80
   6  -5   6   71.19    4.70
   6  -5   6   70.19    5.40
   6   5  -6   70.29    4.10
   6  -5   6   78.99    6.90
  -6   5   6   80.99    4.20
  -6   5  -6   78.29    7.20
  -6  -5   6   72.49    8.50
  -6  -5   6   71.49    5.20
  -6  -5   6   76.39    6.80
  -6  -5   6   88.09   11.40
   6  -6   6   23.90   10.30
   6  -6   6   39.90    4.50
   6  -6   6   45.00    7.30
   6   6  -6   42.60    3.10
   6   6  -6   38.60    6.40
  -6  -6   6   35.70    5.00
  -6  -6   6   38.00    4.20
  -6  -6   6   47.90    9.30
   6   7  -6   31.60    5.90
   6  -7   6   34.20    4.30
   6  -7   6   11.80   10.20
  -6  -7   6   43.50   10.50
  -6  -7   6   34.00    4.00
   6  -8   6   26.90   12.90
  -6  -8   6   89.99   14.60
   6  -9   6    9.50   13.50
  -6  -9   6   16.80   11.10
   6 -10   6    1.70   14.90
  -6 -10   6   10.60   12.30
  -6   0  -7   31.20    3.80
   6   0  -7   24.90    3.60
   6   0   7   28.70    3.30
  -6   0   7   27.50    1.90
   6   0  -7   24.40    3.50
   6   0   7   27.60    3.70
  -6   0  -7   27.00    3.20
  -6   0   7   31.00    3.40
  -6   0  -7   32.10    4.10
   6   0   7   26.80    2.70
  -6   0   7   23.00    4.10
  -6   0   7   35.90    4.30
   6   0  -7   27.10    2.40
   6  -1   7   96.79    8.00
   6   1  -7   98.49    7.60
  -6  -1  -7   94.89    7.90
   6   1  -7   93.79    7.70
  -6   1   7  102.19    7.10
   6  -1   7   89.19    7.30
   6   1  -7   89.09    7.70
   6  -1   7   93.09    5.40
  -6   1   7   90.19    7.70
   6   1  -7   98.19    4.80
  -6  -1  -7   97.89    6.80
  -6   1   7   97.39    8.30
   6  -1   7   98.59    7.50
   6   1  -7   94.29    7.90
  -6  -1   7   91.99    4.90
   6  -1  -7  100.19    7.40
  -6  -1   7   88.09    7.70
   6   1   7   95.39    7.30
  -6   1  -7   88.19    7.40
   6  -1  -7   77.29    7.80
  -6  -1   7   97.09    7.70
  -6  -1   7   98.49    7.50
   6   1   7   93.69    5.50
  -6  -1   7   88.69    7.60
  -6   1  -7  108.49    7.70
   6  -1  -7   96.39    4.90
  -6   1  -7  103.49    7.40
   6   1   7   98.79    7.10
  -6   2   7    2.90    2.80
  -6  -2  -7    6.60    2.90
   6   2  -7    4.60    2.20
  -6   2   7    6.50    2.40
   6  -2   7    5.80    2.40
   6   2  -7    4.50    2.70
   6   2  -7    4.60    1.20
  -6   2   7    5.40    1.40
   6   2  -7    7.30    1.40
   6  -2   7    6.50    1.50
  -6  -2  -7    7.30    1.70
   6   2  -7    5.00    1.90
   6  -2   7    6.80    2.40
   6  -2   7    5.90    2.20
  -6  -2   7    6.70    1.20
  -6  -2   7    5.90    2.30
   6   2   7    3.80    1.60
  -6  -2   7    6.30    2.10
   6   2   7    6.10    2.00
   6   2   7    4.70    1.70
  -6  -2   7    4.90    2.10
  -6   2  -7    5.90    2.30
   6  -2  -7    5.60    1.50
  -6  -2   7    3.00    2.40
  -6   2  -7    4.10    1.80
   6  -2  -7    3.40    2.00
   6  -2  -7   -1.70    2.80
  -6   3   7   72.59    5.60
   6   3  -7   68.09    6.90
   6  -3   7   74.59    6.80
   6   3  -7   66.59    4.00
   6  -3   7   80.99    6.70
   6  -3   7   71.99    4.50
   6   3  -7   67.79    6.80
   6  -3   7   73.09    6.70
   6  -3   7   73.99    6.80
  -6   3   7   68.89    6.80
   6   3   7   70.69    6.10
  -6  -3   7   74.99    6.30
   6   3   7   67.99    5.50
   6  -3  -7   74.79    4.80
  -6  -3   7   74.49    7.10
  -6  -3   7   77.59    7.20
   6   3   7   75.49    5.00
  -6  -3   7   71.69    4.50
  -6   3  -7   78.39    6.40
  -6  -3   7   71.29    6.60
  -6   3  -7   75.49    6.50
  -6  -4  -7   19.40    1.90
   6  -4   7   16.50    2.60
   6   4  -7   13.10    3.80
   6   4  -7   12.00    3.70
  -6   4   7   23.10    4.70
   6  -4   7   20.30    3.90
   6   4  -7   17.80    2.90
   6  -4   7   12.00    3.50
   6  -4   7   18.30    2.20
   6   4  -7   15.00    1.80
  -6   4   7   17.50    2.50
  -6   4  -7   18.60    3.30
   6   4   7   18.30    2.90
  -6  -4   7   14.00    2.80
  -6  -4   7   16.10    2.20
   6  -4  -7   17.50    2.90
  -6  -4   7   11.30    3.30
   6   4   7   18.80    2.50
  -6   4  -7   23.70    3.80
  -6  -4   7   11.70    3.40
   6  -5   7   61.09    6.90
   6  -5   7   51.59    3.80
   6   5  -7   49.50    3.50
   6  -5   7   44.20    4.50
   6   5  -7   46.60    6.50
   6   5   7   48.80    4.00
  -6  -5   7   57.49   10.30
   6  -5  -7   49.00    5.40
  -6  -5   7   48.40    5.80
  -6  -5   7   46.70    4.20
   6   5   7   31.90    6.60
   6   6  -7    1.90    3.70
   6  -6   7    1.70    2.30
   6  -6   7    8.30    4.80
   6   6  -7    2.80    1.50
  -6  -6   7    1.80    2.20
  -6  -6   7    6.00    6.30
  -6  -6   7    0.60    2.90
   6  -7   7    0.00    9.80
   6  -7   7   19.90    3.70
  -6  -7   7   19.60    3.50
  -6  -7   7   20.80    4.20
  -6  -7   7   23.70    9.20
   6  -8   7   -1.20   10.60
  -6  -8   7    7.50    9.40
   6  -9   7   -7.30   12.00
  -6  -9   7   14.00   10.90
  -6   0  -8   15.50    2.60
  -6   0   8   14.40    2.40
   6   0  -8   11.30    1.70
   6   0  -8   12.60    2.70
   6   0  -8   13.00    3.10
   6   0   8   11.40    1.90
   6   0   8   13.80    2.50
   6   0   8   13.30    2.80
  -6   0   8   13.60    1.50
   6   0  -8    9.30    2.90
  -6   0  -8   17.50    3.10
  -6   0   8   11.30    3.00
  -6   0   8   11.60    2.90
  -6   0  -8   15.20    2.30
  -6   1   8   14.80    2.70
  -6   1   8   13.80    3.00
   6   1  -8   10.80    3.10
  -6  -1  -8   18.20    3.30
   6   1  -8   17.10    2.90
  -6  -1  -8   14.80    2.40
   6  -1   8   14.10    2.70
   6   1  -8   13.30    2.80
   6  -1   8   16.00    2.10
   6   1  -8   15.40    1.80
   6   1  -8   14.30    2.70
  -6   1   8   10.60    3.10
   6  -1   8   13.10    2.90
   6  -1  -8   11.50    3.40
  -6   1  -8   13.70    3.00
   6  -1  -8   13.30    2.90
   6  -1  -8   19.80    3.30
   6  -1  -8   12.90    1.80
  -6  -1   8   10.90    3.00
   6   1   8   15.10    2.10
   6   1   8   15.20    2.80
   6   1   8   12.90    2.40
  -6  -1   8   17.00    2.70
  -6  -1   8   13.50    1.40
  -6   1  -8   14.40    2.40
  -6   1  -8   15.30    2.80
  -6  -1   8   12.10    2.90
   6  -2   8   27.60    3.80
  -6   2   8   20.90    2.80
   6   2  -8   21.20    3.80
  -6   2   8   23.80    4.30
   6  -2   8   22.30    3.80
   6  -2   8   20.30    2.70
   6   2  -8   21.00    3.70
   6   2  -8   22.40    3.60
  -6  -2  -8   27.40    3.50
  -6  -2  -8   23.00    4.10
  -6   2   8   22.90    3.40
   6   2  -8   23.40    2.50
   6  -2   8   22.10    3.60
   6   2   8   22.70    3.70
  -6   2  -8   22.60    4.00
  -6  -2   8   18.10    3.50
  -6  -2   8   21.20    2.40
   6  -2  -8   17.30    4.00
  -6  -2   8   23.70    3.90
  -6  -2   8   24.00    3.50
   6  -2  -8   21.90    3.60
   6   2   8   20.40    3.10
  -6  -2   8   19.60    3.40
   6   2   8   26.20    3.00
  -6   2  -8   23.30    3.50
   6  -2  -8   21.40    2.30
  -6   3   8   11.90    2.80
  -6   3   8   10.70    1.90
   6  -3   8   11.20    3.00
  -6  -3  -8   10.70    1.90
   6   3  -8    9.80    3.10
   6   3  -8    8.80    3.50
  -6  -3  -8    3.60    3.60
   6   3  -8   10.90    1.70
   6  -3   8   15.30    3.20
   6  -3   8   11.30    1.90
   6  -3   8   10.50    3.30
  -6  -3  -8   11.60    1.50
   6   3  -8   13.70    2.60
   6  -3   8   11.40    2.70
  -6   3   8    8.90    3.80
   6   3   8   10.70    2.10
   6  -3  -8   11.10    2.10
  -6  -3   8    8.50    3.10
   6   3   8   13.90    2.40
  -6  -3   8    8.20    1.70
  -6   3  -8    8.80    3.00
  -6  -3   8   12.70    3.00
  -6  -3   8   12.50    3.10
   6   3   8    9.90    2.70
  -6  -3   8    8.40    2.60
   6   4  -8    2.10    3.60
   6  -4   8    5.60    1.90
   6  -4   8    5.70    3.10
   6  -4   8   10.00    3.70
   6   4  -8    9.20    1.70
  -6   4   8    1.00    4.00
   6  -4   8    8.30    2.30
  -6  -4  -8    7.10    1.30
   6   4  -8    6.20    3.30
  -6   4   8    9.10    1.70
  -6  -4   8    3.30    3.20
  -6   4  -8    7.30    3.10
  -6  -4   8    6.20    3.00
   6  -4  -8    8.20    2.40
   6   4   8    8.30    2.00
  -6  -4   8    1.20    2.40
  -6  -4   8    9.50    2.00
   6   5  -8    9.50    1.90
   6  -5   8   14.30    2.10
   6  -5   8   12.90    4.40
   6  -5   8    6.30    2.40
  -6  -5   8   10.70    2.40
  -6  -5   8    8.00    3.50
  -6  -5   8   11.60    6.10
   6  -5  -8   10.30    3.40
   6   5   8    9.70    2.00
   6   6  -8    7.00    1.90
   6  -6   8   10.60    5.10
   6  -6   8    6.00    2.70
  -6  -6   8    4.00    3.50
  -6  -6   8    9.00    2.60
  -6  -6   8   17.90    7.70
   6  -7   8    3.80    2.90
   6  -7   8   -1.00    9.30
   6  -7   8    1.70    5.10
  -6  -7   8    5.00    7.70
  -6  -7   8    0.70    2.80
  -6  -7   8    0.50    3.60
   6  -8   8    1.40   11.40
  -6  -8   8   11.10    9.80
   6  -9   8    2.00   13.10
  -6  -9   8   -0.40    9.90
   6   0  -9  125.09    6.10
  -6   0  -9  117.19    9.60
  -6   0  -9  123.89    9.40
   6   0   9  122.09    9.20
  -6   0   9  121.69    6.00
  -6   0  -9  120.09    9.00
  -6   0   9  129.49    9.90
   6   0  -9  124.29   10.10
   6   0   9  116.29    9.30
  -6   0   9  124.09    9.70
   6   0  -9  132.89    9.80
   6   0  -9  118.09    9.50
  -6   0   9  123.69    9.20
  -6  -1  -9   53.89    5.50
   6  -1   9   68.49    4.50
   6  -1   9   66.89    6.30
  -6   1   9   65.49    5.70
   6   1  -9   66.79    6.60
  -6  -1  -9   67.39    5.40
   6   1  -9   62.99    4.00
  -6  -1  -9   68.89    6.60
   6   1  -9   76.99    6.70
   6  -1   9   65.39    6.00
  -6   1   9   65.29    6.60
  -6   1   9   67.89    6.40
   6   1  -9   70.49    6.30
   6  -1  -9   66.69    6.20
  -6   1  -9   74.19    6.50
  -6   1  -9   66.89    6.40
  -6   1  -9   73.89    6.00
   6  -1  -9   64.49    6.80
   6   1   9   66.89    6.10
  -6  -1   9   67.19    6.40
  -6  -1   9   64.79    3.80
   6   1   9   64.29    5.70
   6  -1  -9   53.19    6.80
   6  -1  -9   70.69    4.20
  -6  -1   9   66.29    6.60
  -6  -1   9   72.69    6.20
   6   2  -9  105.99    8.30
  -6   2   9   98.09    8.40
  -6   2   9   99.49    9.00
   6   2  -9  103.09    5.40
  -6  -2  -9  107.69    7.90
  -6  -2  -9   96.59    9.00
   6  -2   9  117.89    8.90
   6  -2   9  113.39    6.10
  -6   2   9  101.19    7.70
   6   2  -9   87.99    8.60
   6   2  -9  109.69    9.10
   6  -2   9  102.59    8.50
   6  -2   9   97.99    8.30
  -6  -2   9  109.59    8.70
   6   2   9  100.19    8.10
   6  -2  -9   99.69    8.00
  -6   2  -9  105.89    8.30
  -6  -2   9  103.09    8.80
  -6  -2   9   95.89    8.50
  -6  -2   9   97.79    8.70
  -6  -2   9   99.89    5.60
   6  -2  -9  107.69    5.60
  -6   2  -9  105.29    8.50
   6   2   9   95.39    7.70
   6   3  -9   97.59    7.80
   6   3  -9   87.99    8.90
   6  -3   9   90.09    8.20
   6  -3   9   90.09    8.30
   6  -3   9  108.59    8.70
   6   3  -9   85.99    8.40
   6  -3   9   86.49    6.30
  -6  -3  -9   92.89    7.00
  -6   3   9   94.69    7.00
  -6  -3  -9   92.69    4.80
  -6   3   9   88.69    8.90
   6   3  -9   86.89    4.90
   6  -3   9  103.29    5.70
   6   3   9   94.69    7.20
  -6   3  -9  102.29    8.00
  -6  -3   9   91.19    8.30
   6  -3  -9   99.29    5.60
  -6   3  -9   86.69    8.00
  -6  -3   9   88.89    8.00
  -6  -3   9   89.79    5.40
  -6  -3   9   99.69    8.50
  -6   4   9   76.89    8.50
   6  -4   9   80.49    5.10
   6  -4   9   79.59    7.90
  -6   4   9   76.69    6.40
   6   4  -9   86.89    8.00
  -6  -4  -9   81.29    4.30
   6   4  -9   80.49    4.60
   6  -4   9   78.09    5.90
   6  -4   9   75.89    7.70
   6  -4  -9   84.29    5.70
  -6  -4   9   74.39    7.30
  -6  -4   9   75.89    7.70
   6   4   9   73.39    6.20
  -6  -4   9   72.79    5.10
  -6   4  -9   75.79    7.50
  -6   5   9   43.60    6.90
   6  -5   9   44.10    4.70
  -6   5   9   45.90    4.40
   6  -5   9   53.79    6.90
   6   5  -9   44.20    3.50
   6  -5  -9   44.20    4.80
  -6  -5   9   44.60    6.30
   6   5   9   43.10    4.30
  -6  -5   9   53.59    9.30
  -6  -5   9   38.10    4.20
   6  -6   9   50.39    7.70
   6  -6   9   43.50    5.00
   6   6  -9   41.50    3.80
  -6  -6   9   42.20    6.50
   6  -6  -9   36.70    5.60
  -6  -6   9   41.70    4.80
  -6  -6   9   55.19   10.70
   6  -7   9   76.09    9.80
  -6  -7   9   66.49    8.00
  -6  -7   9   79.59   14.20
   6  -8   9   16.00   13.40
  -6  -8   9   26.30   11.20
   6  -9   9   -7.10   13.10
  -6  -9   9   22.80   11.90
   6   0 -10   23.10    4.00
   6   0  10   24.00    3.80
  -6   0  10   22.80    2.10
  -6   0  10   24.20    4.00
   6   0 -10   26.20    2.90
  -6   0  10   23.00    4.00
   6   0  10   21.90    3.80
   6   0 -10   25.40    4.10
  -6   0 -10   24.30    4.00
  -6   0  10   23.90    3.60
  -6   0 -10   27.50    3.50
  -6   1  10    8.60    3.20
   6  -1  10    9.20    2.60
  -6   1  10   10.90    2.30
   6  -1  10    7.20    3.10
   6   1 -10   10.00    2.70
   6   1 -10    6.70    1.70
  -6   1  10    9.90    3.10
   6   1 -10    4.90    3.20
   6  -1 -10    8.10    3.10
  -6  -1  10    5.70    3.20
  -6   1 -10   10.30    3.10
  -6  -1  10    6.40    2.90
  -6  -1  10    9.80    2.50
  -6  -1  10    6.60    1.40
   6   1  10    7.70    2.90
   6   1  10    6.60    2.30
   6  -1 -10    7.60    1.80
  -6   1 -10   11.60    2.40
  -6  -2 -10   25.40    2.40
   6  -2  10   25.60    4.40
   6  -2  10   28.20    4.30
  -6   2  10   25.10    4.30
  -6   2  10   23.60    3.50
  -6  -2 -10   30.90    5.30
   6   2 -10   22.50    4.50
   6   2 -10   26.10    4.40
   6   2 -10   21.90    2.40
   6  -2  10   26.00    4.30
  -6  -2 -10   30.00    4.10
  -6  -2  10   25.60    2.70
   6  -2 -10   26.10    4.60
  -6   2 -10   30.80    4.90
  -6  -2  10   20.00    4.50
  -6  -2  10   15.20    3.80
   6  -2 -10   18.30    4.30
   6   2  10   23.50    3.80
   6  -2 -10   23.50    2.60
  -6  -2  10   28.10    4.60
  -6   2 -10   31.10    4.30
   6   3 -10    9.40    1.90
  -6  -3 -10   12.70    2.20
   6   3 -10    5.30    3.90
  -6   3  10   11.30    2.20
  -6  -3 -10   10.30    1.70
   6  -3  10   13.00    3.00
   6  -3  10   12.20    3.80
   6  -3  10    8.90    2.40
  -6   3  10   12.00    3.60
  -6  -3  10   13.30    3.10
   6  -3 -10   10.60    2.20
   6  -3 -10    8.80    2.50
  -6  -3  10    4.50    3.60
  -6  -3  10    8.80    1.80
   6  -3 -10    2.60    3.90
  -6   3 -10    9.70    3.50
   6   3  10    9.40    2.50
   6   4 -10   15.60    2.20
   6  -4  10   17.40    4.10
  -6  -4 -10   16.40    2.00
   6  -4  10   15.30    2.90
  -6   4  10   19.40    4.50
  -6   4  10   17.10    2.60
   6  -4  10   13.20    4.30
  -6  -4  10   15.70    4.30
   6  -4 -10   18.10    2.90
  -6  -4  10   15.50    2.40
   6   4  10   15.20    2.80
   6   5 -10    3.00    1.80
   6  -5  10    4.90    4.20
  -6   5  10    4.90    1.90
   6  -5  10   -0.70    2.30
   6   5  10    1.80    2.10
  -6  -5  10   -0.80    3.80
  -6  -5  10    3.10    2.10
   6  -5 -10    1.30    2.80
   6  -6  10   11.80    5.60
   6  -6  10    9.30    3.20
   6   6 -10   11.80    2.40
   6  -6 -10    8.20    4.20
  -6  -6  10    5.00    4.40
  -6  -6  10    7.70    2.80
  -6  -6  10   13.20    8.00
   6  -7  10    4.00    5.40
  -6  -7  10   -4.30    4.30
  -6  -7  10    8.70    8.60
   6  -8  10    6.70   12.90
  -6  -8  10    5.60    9.70
  -6  -9  10    9.20   11.10
   6   0  11    6.30    3.20
  -6   0  11    6.80    3.50
   6   0 -11    6.10    3.40
  -6   0  11    6.70    3.20
  -6   0  11    7.80    1.20
   6   0 -11    7.70    1.90
  -6   0 -11   10.60    3.50
  -6   0 -11   10.70    2.30
   6   0  11    5.80    2.70
  -6   1  11   -2.80    2.60
   6   1 -11   -2.20    3.20
   6   1 -11    0.50    1.60
   6   1 -11    2.10    2.30
  -6  -1 -11    1.00    3.10
   6  -1  11   -2.80    3.00
  -6   1 -11    3.10    3.10
   6  -1 -11    0.40    1.70
  -6   1 -11    2.20    1.90
  -6  -1  11   -5.20    3.00
   6   1  11   -1.00    2.20
  -6  -1  11   -0.80    1.10
   6  -1 -11   -1.40    3.10
  -6   2  11   12.50    3.70
  -6  -2 -11   18.30    4.30
   6  -2  11   14.60    3.90
  -6  -2 -11   14.30    2.00
   6   2 -11    9.50    2.10
   6   2 -11   10.90    4.10
  -6  -2  11   13.70    1.90
   6  -2 -11   13.40    2.30
   6   2  11   10.60    2.80
  -6   2 -11   11.90    3.80
  -6  -2  11    8.80    3.90
  -6   3  11    0.90    1.70
   6  -3  11   -0.60    3.50
   6   3 -11   -2.60    3.70
  -6  -3 -11    1.00    1.40
   6   3 -11    2.20    1.70
   6  -3  11   -0.70    2.00
  -6   3  11   -1.60    2.80
   6  -3 -11   -5.50    3.30
   6   3  11    0.20    2.30
  -6  -3  11   -1.70    1.50
   6  -3 -11    1.40    2.00
  -6  -3  11   -5.00    3.50
  -6   3 -11   -1.60    3.30
  -6  -4 -11    4.10    1.60
  -6   4  11    6.50    2.20
   6  -4  11    4.40    2.50
  -6   4  11    2.60    3.40
   6  -4  11    4.90    4.10
   6   4 -11    5.20    2.00
  -6  -4  11    1.70    4.00
   6   4  11    4.60    2.40
   6  -4 -11    4.70    2.50
  -6  -4  11    3.90    2.00
  -6   5  11    1.50    2.00
   6  -5  11   -1.30    2.50
   6   5 -11   -1.20    1.90
   6  -5  11    1.50    4.40
  -6  -5  11   -2.00    2.10
  -6  -5  11   -3.40    4.10
   6  -5 -11    1.90    2.80
   6  -6  11   11.20    5.70
   6   6 -11    7.80    2.40
   6  -6 -11    1.30    3.80
  -6  -6  11    7.50    4.90
  -6  -6  11    7.20    2.90
  -6  -6  11    9.30    8.00
   6  -7  11   -3.20    5.40
  -6  -7  11   -7.70    4.50
  -6  -7  11   -0.90    8.40
   6  -8  11    2.20   13.20
  -6  -8  11   -0.60    9.40
   6   0 -12   93.69    8.80
  -6   0 -12   94.09    8.80
   6   0 -12   97.69    5.70
   6  -1  12   45.40    6.30
  -6  -1 -12   51.59    6.70
  -6  -1 -12   46.20    3.90
   6   1 -12   49.80    4.10
   6   1 -12   45.30    6.60
   6  -1 -12   47.40    4.10
  -6   1 -12   50.89    6.40
  -6  -1  12   53.19    3.60
  -6  -1  12   45.70    6.70
   6  -1 -12   48.90    6.50
  -6   1 -12   57.19    5.60
  -6  -2 -12   26.30    5.00
   6   2 -12   18.40    2.50
  -6  -2 -12   22.60    2.50
  -6   2  12   21.10    4.30
   6  -2  12   22.00    4.60
   6   2 -12   18.60    4.70
  -6  -2  12   22.20    2.30
   6  -2 -12   17.70    2.70
  -6   2 -12   21.60    4.50
  -6  -2  12   15.30    4.50
   6   3 -12   37.70    6.00
  -6   3  12   37.50    6.10
   6  -3  12   43.80    4.70
  -6  -3 -12   38.60    3.60
   6  -3  12   49.30    6.60
   6   3 -12   35.90    3.70
   6   3  12   38.70    5.10
  -6  -3  12   38.40    6.10
  -6  -3  12   40.00    3.80
   6  -3 -12   40.40    4.10
  -6   3 -12   41.30    6.40
  -6   4  12   33.70    5.20
   6  -4  12   26.70    5.70
   6  -4  12   30.50    4.00
  -6  -4 -12   29.70    2.90
   6   4 -12   36.70    3.70
  -6  -4  12   32.90    3.80
   6  -4 -12   30.10    3.70
   6   4  12   34.20    4.80
  -6  -4  12   27.50    5.80
   6   5 -12   26.60    3.10
   6  -5  12   36.70    6.50
   6  -5 -12   31.30    4.20
  -6  -5  12   28.00    3.40
  -6  -5  12   24.20    5.80
   6  -6  12   37.10    7.20
   6   6 -12   25.60    3.20
   6  -6 -12   30.50    5.10
  -6  -6  12   27.10    9.90
  -6  -6  12   20.00    6.00
  -6  -7  12   24.40   11.00
   6  -8  12    3.90   13.40
  -6  -8  12    2.50   10.00
  -6   0 -13    5.30    3.90
   6   0 -13    4.40    2.10
  -6   0 -13    5.40    2.00
   6   0 -13    4.20    3.90
   6   1 -13    2.40    4.10
   6   1 -13    2.30    2.10
  -6  -1 -13    2.80    1.90
  -6  -1 -13    7.90    4.00
   6  -1 -13    5.40    2.20
  -6   1 -13    5.50    3.90
   6   2 -13    5.30    2.20
   6   2 -13    4.20    4.40
  -6  -2 -13    9.30    2.10
  -6  -2 -13    9.60    4.30
   6  -2  13    6.90    4.30
  -6  -2  13    4.00    4.30
   6  -2 -13    8.70    2.40
   6  -2 -13    5.20    3.50
  -6   2 -13    6.60    4.10
  -6  -2  13    6.20    1.80
   6   3 -13    4.20    2.20
  -6  -3 -13    2.70    1.90
   6  -3  13    0.60    4.20
   6   3 -13   -0.10    4.40
   6  -3  13    3.60    2.50
   6  -3 -13    3.70    2.40
  -6  -3  13    1.90    1.90
  -6  -3  13   -2.00    4.30
  -6   3 -13    2.00    4.00
  -6  -4 -13    1.10    1.80
   6  -4  13    1.00    2.60
  -6   4  13    0.30    3.20
   6  -4  13    1.50    4.70
   6   4 -13    3.00    2.30
  -6  -4  13    2.00    2.10
   6  -4 -13    3.10    2.60
  -6  -4  13   -2.80    4.60
   6  -5  13   -4.70    5.10
   6   5 -13    1.30    2.40
  -6  -5  13   -3.30    4.90
   6  -5 -13    2.80    3.10
  -6  -5  13    0.30    2.40
   6  -6  13   -0.20    5.70
   6   6 -13    1.40    2.50
  -6  -6  13   -7.10    5.20
  -6  -6  13    4.70    8.70
  -6  -7  13   -1.90    9.60
  -6   0 -14    1.60    2.10
  -6   0 -14    4.30    4.30
   6   0 -14    2.20    2.30
   6   0 -14    2.80    4.50
  -6  -1 -14    7.60    2.20
  -6  -1 -14    8.10    4.50
   6   1 -14   11.40    4.90
   6   1 -14    8.30    2.50
   6  -1 -14    8.80    2.50
  -6   1 -14    9.10    4.50
  -6   1 -14    6.00    2.30
  -6  -2 -14   11.50    4.90
   6   2 -14    3.50    2.40
  -6  -2 -14    4.30    2.10
   6   2 -14    1.50    4.90
   6  -2 -14    5.80    2.50
  -6   2 -14    6.90    2.50
  -6   2 -14    4.10    4.40
   6  -2 -14    1.80    3.80
   6   3 -14    6.60    2.50
  -6  -3 -14    6.10    2.10
   6   3 -14    5.00    4.90
   6  -3  14    4.00    2.80
   6  -3  14    6.40    4.90
   6  -3 -14    5.60    2.60
  -6  -3  14    3.80    5.00
   6  -4  14   -3.30    5.00
   6   4 -14    1.10    2.40
  -6  -4 -14   -0.80    2.00
   6  -4 -14   -1.50    2.70
  -6  -4  14   -4.40    4.90
   6  -5  14    1.90    5.60
   6   5 -14    4.60    2.60
   6  -5 -14    5.30    3.40
  -6  -5  14    2.40    2.60
  -6  -5  14    1.20    5.50
   6   6 -14    0.00    2.70
  -6   6 -14    0.50    3.00
  -6  -6  14   -3.80    9.00
  -6   7 -14    0.90    3.20
   6   0 -15   34.50    3.80
  -6   0 -15   37.10    4.10
  -6   0 -15   35.70    6.40
   6   1 -15   20.00    3.20
  -6  -1 -15   23.70    3.10
  -6  -1 -15   26.70    5.80
   6   1 -15   26.20    6.00
   6  -1 -15   24.20    3.40
  -6   1 -15   26.60    5.80
   6  -1 -15   23.70    5.40
  -6   1 -15   25.00    3.30
  -6  -2 -15   33.10    3.50
   6   2 -15   37.10    6.70
   6  -2  15   35.90    4.50
  -6  -2 -15   37.90    6.70
   6   2 -15   26.90    3.50
  -6   2 -15   30.90    3.70
   6  -2 -15   31.20    3.80
   6  -2 -15   26.30    5.40
  -6   2 -15   32.50    6.30
   6   3 -15   16.30    3.10
  -6  -3 -15   13.30    2.70
   6  -3 -15   14.30    3.20
  -6   3 -15   12.00    3.20
   6  -4  15   18.30    6.40
   6   4 -15   23.10    3.40
   6  -4 -15   23.90    3.90
  -6  -4  15   20.80    6.70
  -6   4 -15   21.00    3.60
   6  -5  15   22.00    7.10
   6   5 -15   18.20    3.30
   6  -5 -15   24.30    4.40
  -6  -5  15   14.40    6.90
  -6   5 -15   24.30    3.90
   6   6 -15   10.60    3.30
  -6   6 -15    9.90    3.60
   6   0 -16   -0.20    2.60
  -6   0 -16    0.10    2.40
  -6   0 -16   -0.10    4.90
   6   1 -16    1.40    2.70
  -6  -1 -16    3.40    5.00
  -6  -1 -16    2.10    2.40
  -6   1 -16    0.50    2.80
   6  -1 -16    2.30    2.90
   6  -1 -16   -5.40    4.50
  -6   1 -16   -0.70    4.90
   6   2 -16    3.10    5.70
   6   2 -16   -4.60    2.50
  -6  -2 -16   -1.90    2.20
  -6  -2 -16    1.10    5.20
  -6   2 -16   -2.60    4.90
   6  -2 -16    2.60    2.80
   6  -2 -16   -4.10    4.40
  -6   2 -16    0.90    2.80
  -6  -3 -16   -0.40    2.30
   6   3 -16    1.50    2.80
   6  -3 -16    0.10    2.80
  -6   3 -16    2.10    3.00
   6   4 -16   -1.70    2.70
   6  -4 -16   -0.10    3.10
  -6   4 -16   -2.80    3.00
   6   5 -16   -2.90    2.80
   6  -5 -16   -2.00    3.60
  -6   5 -16   -2.20    3.30
   6   0 -17    5.80    3.10
  -6   0 -17    6.60    2.90
   6   0 -17   -1.30    5.30
  -6   0 -17    2.60    5.60
   6   1 -17    8.10    3.20
  -6  -1 -17    7.90    2.80
  -6   1 -17    6.40    3.10
  -6   1 -17    7.60    5.90
   6  -1 -17    7.60    3.30
   6   2 -17    3.80    3.00
  -6  -2 -17    2.20    2.60
  -6   2 -17    2.30    3.10
  -6   2 -17   -0.50    5.50
   6  -2 -17    1.10    3.10
  -6  -3 -17    7.80    2.90
   6   3 -17    6.30    3.30
  -6   3 -17    9.00    3.50
   6  -3 -17    7.30    3.60
   6   4 -17    1.10    3.10
   6  -4 -17    6.10    3.70
  -6   4 -17    6.30    3.60
  -6   0 -18    1.30    2.90
   6   0 -18   -2.10    3.10
  -6  -1 -18    9.10    3.20
   6   1 -18   15.60    3.70
   6  -1 -18   11.70    3.80
  -6   1 -18   11.20    3.50
   6   2 -18    1.20    3.20
  -6  -2 -18    5.40    3.00
   6  -2 -18    5.10    3.50
  -6   2 -18   -0.10    3.30
  -7   0   0    4.00    2.90
   7   0   0    0.00    3.90
   7   0   0    6.10    2.70
  -7   0   0    4.30    3.10
  -7   0   0    4.10    2.30
  -7   0   0    6.00    2.70
   7   0   0   -2.30    3.50
   7   0   0    1.40    2.40
   7   1   0   -0.30    2.10
  -7   1   0    0.50    1.70
   7   1   0    3.60    4.20
  -7  -1   0   -3.30    2.60
  -7  -1   0    2.20    2.90
  -7   1   0    0.50    3.80
   7  -1   0    4.60    4.10
   7   1   0    1.10    2.20
   7  -1   0    1.40    2.10
  -7  -1   0    1.40    1.90
   7   1   0   -1.70    2.80
  -7  -1   0   -2.40    1.60
   7  -1   0   -0.40    2.70
  -7   1   0   -0.90    1.90
  -7  -1   0   -0.80    2.50
   7   2   0   -1.20    2.00
  -7   2   0   -0.10    1.60
   7  -2   0    1.00    1.30
   7  -2   0    1.60    4.00
  -7   2   0    0.90    1.90
  -7  -2   0   -1.20    2.10
  -7  -2   0   -1.50    2.20
  -7  -2   0   -0.10    1.10
   7  -2   0    1.50    1.70
   7  -2   0   -1.70    2.80
  -7  -2   0    0.90    1.30
  -7  -2   0    2.00    3.00
   7   2   0    0.10    1.60
   7  -3   0   -4.50    3.40
  -7   3   0   -2.10    1.60
  -7  -3   0    2.10    3.70
   7   3   0   -4.50    4.40
   7   3   0    0.40    1.40
   7  -3   0    0.80    1.00
  -7   3   0    0.90    1.80
   7  -3   0    3.60    4.30
  -7  -3   0   -0.60    1.70
   7   3   0    1.30    2.30
  -7  -3   0   -5.30    2.50
   7   3   0    0.30    1.20
   7  -3   0    2.40    1.40
  -7   4   0   -2.10    1.60
   7   4   0    0.10    1.20
  -7  -4   0   -2.70    3.90
   7  -4   0   -0.90    1.20
   7   4   0   -0.30    2.30
   7  -4   0   -2.80    5.40
  -7   4   0   -2.40    1.30
  -7  -4   0    0.70    2.20
  -7   4   0    1.80    1.90
   7   4   0   -5.30    4.40
   7  -5   0   -3.10    7.20
   7   5   0    1.40    2.90
  -7  -5   0   -1.60    5.40
   7   5   0    0.70    1.40
   7  -5   0    2.50    1.70
   7   5   0   -3.30    4.20
  -7   5   0    0.30    2.20
   7   6   0   -0.80    1.50
   7  -6   0    1.40    2.10
  -7  -6   0   -1.30    2.30
   7  -6   0    0.40    9.70
   7   6   0   -1.60    3.20
  -7  -6   0    2.30    6.80
   7   7   0    2.60    1.80
   7   7   0    8.80    4.50
  -7  -7   0   -2.20    8.40
   7  -7   0   -0.10    2.30
   7  -7   0   -8.10   12.30
   7  -8   0   -3.40    2.70
  -7  -8   0    0.00   10.20
   7   8   0    1.90    2.00
   7  -8   0  -14.80   13.00
  -7  -9   0    2.70   12.00
   7  -9   0   -3.40    3.40
   7  -9   0   -2.50   17.80
  -7 -10   0    2.10   14.20
   7 -10   0   -2.70   20.80
  -7   0   1   15.30    3.50
  -7   0   1   10.30    2.30
   7   0  -1   12.90    3.80
  -7   0  -1   17.90    3.40
   7   0   1   12.10    3.00
   7   0  -1   15.10    3.50
  -7   0   1   11.50    3.80
   7   0   1   15.30    3.90
  -7   0  -1   13.00    3.10
  -7   0  -1   17.10    4.70
   7   0  -1   21.80    5.10
   7   0   1    4.70    4.00
  -7   0   1   13.70    3.30
  -7   0  -1    9.50    3.00
   7   1  -1  765.72   56.99
   7   1  -1  854.81   55.89
   7  -1   1  890.81   56.89
   7  -1   1  943.31   55.89
  -7   1   1  900.21   56.09
  -7  -1  -1  903.21   56.49
  -7  -1  -1  934.61   56.89
  -7   1   1  713.43   55.99
  -7   1   1  984.50   56.79
   7  -1  -1  815.02   56.69
   7  -1  -1  727.43   56.59
  -7  -1   1  942.41   56.39
  -7   1  -1  889.01   55.69
  -7  -1   1  935.61   56.79
   7   1   1  812.72   56.09
  -7   1  -1  861.71   56.89
  -7  -1   1 1000.00   56.49
   7  -1  -1  947.91   55.99
  -7  -2  -1   46.50    3.80
   7   2  -1   60.49    7.00
   7   2  -1   46.60    3.60
   7   2  -1   41.90    6.90
   7   2  -1   50.89    4.40
   7  -2   1   33.40    6.00
  -7  -2  -1   48.20    3.70
  -7  -2  -1   43.50    7.10
  -7   2   1   41.40    4.50
  -7  -2  -1   58.19    5.80
  -7  -2  -1   38.60    5.90
  -7   2  -1   52.79    4.70
  -7  -2   1   42.60    4.00
   7  -2  -1   40.70    4.90
   7   2   1   42.90    4.60
   7   2   1   45.10    5.00
   7  -2  -1   48.70    6.60
  -7  -2   1   49.00    5.20
  -7  -2   1   51.59    6.40
   7  -2  -1   35.80    6.40
  -7  -2   1   39.30    5.30
  -7   3   1  702.13   42.90
   7   3  -1  711.83   42.70
   7  -3   1  664.63   44.50
   7   3  -1  647.84   31.20
  -7   3   1  615.24   42.90
   7   3  -1  712.83   45.20
  -7  -3  -1  691.93   42.80
   7  -3   1  679.03   30.90
  -7  -3  -1  632.74   46.80
  -7  -3  -1  718.83   42.50
   7   3   1  728.23   42.80
   7   3   1  592.54   31.40
   7   3   1  605.84   44.60
  -7  -3   1  665.93   45.40
   7  -3  -1  696.33   42.70
   7   3   1  669.23   43.20
   7  -3  -1  724.33   42.20
  -7  -3   1  711.33   42.40
  -7   3  -1  713.43   42.60
  -7   3  -1  639.74   31.30
   7  -3  -1  702.03   30.70
   7  -3  -1  585.14   46.20
  -7   4   1   14.50    2.80
  -7  -4  -1   18.10    6.70
   7   4  -1    6.60    4.80
   7  -4   1   18.90    2.60
   7  -4   1    4.20    5.50
   7  -4   1   13.90    2.00
   7   4  -1   16.00    2.40
  -7  -4  -1   10.20    2.80
   7   4  -1   18.70    4.60
  -7   4   1   14.00    2.20
   7   4   1   19.10    2.40
   7   4   1   15.00    5.10
   7  -4  -1   13.20    1.80
  -7   4  -1   12.60    1.50
  -7  -4   1    3.10    3.90
  -7  -4   1   18.70    5.60
   7  -4  -1    9.80    7.50
  -7  -4   1   12.60    2.20
  -7   4  -1   13.80    2.50
  -7   4  -1   19.30    4.10
  -7  -5  -1  491.25   37.90
  -7   5   1  510.75   31.30
  -7  -5  -1  485.55   23.70
   7   5  -1  505.35   34.10
   7   5  -1  473.45   30.80
   7  -5   1  494.75   23.00
   7   5  -1  458.65   32.40
   7   5   1  489.35   30.70
  -7   5  -1  521.45   31.10
   7  -5  -1  495.15   22.90
   7  -5  -1  460.95   39.60
   7   5   1  439.76   31.40
  -7  -5   1  475.25   35.90
  -7  -6  -1   19.90    9.40
   7   6  -1   17.60    2.80
   7  -6   1    6.60    9.50
   7   6  -1   28.00    6.20
   7  -6   1   16.30    2.70
  -7  -6  -1   16.00    2.80
   7  -6  -1   15.30    2.70
   7   6   1   16.00    3.60
  -7   6  -1   19.60    5.50
   7  -6  -1   12.10   12.00
  -7  -6   1   23.50    8.00
   7  -7   1  134.59   24.10
  -7  -7  -1  193.08   23.20
   7   7  -1  166.48   16.30
   7  -7   1  182.18   10.50
   7  -7  -1  243.08   29.40
   7  -7  -1  188.98   10.70
  -7  -7   1  176.38   20.60
   7  -8   1   -9.20   12.30
   7  -8   1    0.80    2.90
   7   8  -1    6.00    2.30
  -7  -8  -1    6.60   11.40
  -7  -8   1   10.00   10.50
   7  -8  -1  -11.90   15.20
   7  -8  -1    1.70    3.20
  -7  -9  -1  150.38   24.00
   7  -9   1  103.69    9.30
   7  -9   1  102.99   24.60
   7  -9  -1  163.48   30.80
   7  -9  -1  108.29    9.50
  -7  -9   1  132.39   22.20
   7 -10   1    2.80   20.00
  -7 -10  -1    1.50   14.80
  -7 -10   1    1.80   14.30
   7 -10  -1    4.00   21.70
   7   0  -2  932.31   59.89
   7   0  -2 1012.30   60.09
  -7   0   2  912.51   60.29
   7   0   2  907.11   59.79
  -7   0  -2 1034.90   59.79
  -7   0  -2 1003.70   59.89
   7   0  -2  913.91   37.80
   7   0   2  849.81   59.79
   7   0   2  886.91   59.39
  -7   0  -2 1026.10   44.00
  -7   0   2  855.41   59.29
   7   1  -2    3.20    2.70
   7   1  -2    3.90    3.70
   7   1  -2    2.80    1.40
  -7   1   2    4.70    3.20
   7  -1   2    8.00    2.30
   7   1  -2    5.40    2.50
  -7  -1  -2    9.10    3.30
   7   1  -2    6.70    1.30
   7   1  -2    6.50    1.40
  -7   1   2    7.40    1.80
  -7  -1  -2    4.10    2.60
  -7   1   2    6.90    2.30
  -7   1   2    8.50    2.90
   7  -1   2    6.20    2.40
  -7  -1  -2    8.20    2.60
  -7  -1  -2    7.00    2.20
  -7  -1  -2   10.60    1.80
  -7  -1   2    3.50    2.50
   7  -1  -2    3.90    1.90
  -7  -1   2    6.90    2.20
  -7   1  -2    6.00    1.80
   7  -1  -2    6.20    3.00
  -7  -1   2    5.40    2.40
  -7  -1   2    4.90    2.20
  -7   1  -2    6.50    2.10
  -7   1  -2    7.10    3.10
   7   1   2    6.10    1.90
   7   1   2    0.10    4.20
   7  -1  -2    5.10    2.90
  -7  -1   2    9.50    2.10
  -7   1  -2    3.70    2.00
   7  -1  -2    6.40    1.70
  -7   2   2 1517.25  100.49
  -7  -2  -2 1526.25   73.49
   7  -2   2 1516.45  100.89
   7   2  -2 1663.43   99.29
  -7   2   2 1659.13   99.79
   7   2  -2 1668.33   99.89
   7   2  -2 1543.65   62.79
   7   2  -2 1580.94   71.79
  -7  -2  -2 1668.83   99.29
   7   2  -2 1542.65  100.49
  -7   2   2 1757.62  101.09
  -7  -2  -2 1608.84   99.19
  -7  -2   2 1642.04   99.79
  -7   2  -2 1592.84   72.79
   7   2   2 1585.24   99.89
  -7  -2   2 1667.13   99.29
   7  -2  -2 1621.14   99.29
  -7  -2   2 1582.74  101.99
  -7   2  -2 1611.94   99.19
   7   2   2 1314.47  100.59
   7  -2  -2 1634.34   71.19
  -7  -3  -2    0.60    1.40
   7  -3   2   -3.50    3.20
   7   3  -2    0.10    1.20
  -7  -3  -2   -4.30    1.90
   7   3  -2   -3.00    3.30
  -7   3   2    7.90    2.70
   7  -3   2   -0.10    1.10
   7   3  -2    1.00    1.30
  -7   3   2    0.50    1.10
  -7  -3  -2    0.00    1.80
  -7  -3  -2    1.90    5.20
   7   3   2    2.00    1.40
  -7   3  -2    0.40    1.20
   7  -3  -2    2.20    1.30
  -7   3  -2   -4.00    2.50
   7   3   2    1.40    3.30
   7   3   2   -2.30    1.70
  -7  -3   2    0.20    1.80
  -7  -3   2    0.50    1.80
  -7  -3   2    0.80    2.70
   7  -3  -2    1.70    0.90
  -7  -3   2    0.90    1.00
  -7   3  -2    0.90    1.60
  -7  -3   2   -2.10    2.40
  -7  -4  -2  557.54   26.40
  -7  -4  -2  492.95   40.70
   7  -4   2  541.95   25.60
   7  -4   2  584.14   34.50
   7  -4   2  452.35   36.40
   7   4  -2  514.85   22.00
   7   4  -2  554.14   36.20
   7   4  -2  553.94   34.90
  -7  -4   2  558.64   34.60
   7  -4  -2  571.44   25.30
  -7   4  -2  584.54   34.90
   7   4   2  592.94   34.80
  -7  -4   2  539.25   38.10
   7   4   2  557.64   34.90
  -7  -4   2  549.95   36.70
  -7   4  -2  548.65   25.20
  -7   5   2    8.20    2.70
   7   5  -2    5.80    1.20
   7  -5   2    4.30    6.80
   7   5  -2    4.30    4.60
   7   5  -2    1.80    3.50
   7  -5   2    6.20    2.00
   7   5  -2    6.40    1.80
  -7  -5  -2    6.90    2.10
  -7  -5  -2    7.50    7.50
  -7   5  -2    4.20    2.30
  -7  -5   2    7.40    5.20
   7  -5  -2    8.00    1.90
   7  -5  -2   17.30   11.40
   7   5   2   13.10    4.80
  -7  -6  -2  458.45   39.50
   7  -6   2  477.05   23.00
  -7  -6  -2  469.85   22.70
  -7  -6   2  488.35   36.30
   7  -6  -2  479.35   22.90
   7  -7   2   -0.60    2.20
   7   7  -2    2.10    2.00
   7   7  -2    1.60    5.20
   7  -7   2  -11.30    8.80
  -7  -7  -2    1.50    9.70
   7  -7  -2   -0.20    2.60
   7  -7  -2   -0.60   14.20
  -7  -7   2   -0.20    7.00
   7  -8   2  117.49    8.70
  -7  -8  -2  137.99   23.30
   7  -8   2   89.89   20.50
  -7   8  -2  103.79   11.50
   7  -8  -2  136.09    9.30
  -7  -8   2  133.09   18.80
   7  -8  -2  194.58   33.50
   7  -9   2  -11.60   14.20
  -7  -9  -2   -2.40   13.90
   7  -9  -2    2.20   19.70
  -7  -9   2    6.70   11.30
   7 -10   2   30.10   21.20
  -7 -10  -2   75.89   22.20
   7 -10  -2   77.69   26.70
  -7 -10   2   80.39   19.50
  -7   0   3   25.70    4.20
  -7   0  -3   34.60    4.00
  -7   0  -3   30.60    3.00
   7   0  -3   33.40    2.20
   7   0  -3   29.40    2.60
   7   0  -3   27.30    3.90
  -7   0   3   24.20    4.30
   7   0   3   30.30    3.50
   7   0   3   28.20    4.50
   7   0  -3   25.00    4.30
   7   0  -3   20.90    4.20
  -7   0   3   23.20    4.20
  -7   0  -3   31.80    3.40
  -7   0  -3   32.80    4.20
   7   0   3   36.00    4.20
   7   0  -3   35.20    3.80
  -7  -1  -3    2.00    1.60
   7  -1   3    3.20    2.20
  -7   1   3    1.40    1.20
  -7   1   3   -0.40    1.60
   7   1  -3    2.40    2.70
  -7  -1  -3    0.90    1.70
   7   1  -3    2.10    1.80
   7  -1   3    1.40    1.80
   7   1  -3    0.20    0.90
   7   1  -3   -0.10    1.90
   7   1  -3    1.00    0.90
   7  -1   3    1.00    1.70
  -7   1   3   -3.40    2.60
  -7  -1  -3   -1.70    2.30
  -7   1   3    2.60    2.70
  -7  -1  -3    2.90    2.60
   7   1  -3   -0.20    1.90
  -7  -1  -3    1.30    1.00
  -7  -1   3   -1.70    1.70
   7  -1  -3   -0.30    1.30
  -7   1  -3   -1.10    1.20
   7  -1  -3    1.10    1.30
   7  -1  -3    2.40    1.30
  -7  -1   3    2.60    1.60
  -7  -1   3    0.60    1.70
  -7  -1   3   -0.90    2.00
   7   1   3    2.10    2.10
   7  -1  -3   -0.90    2.00
  -7   1  -3    1.60    2.20
   7   1   3    1.30    1.40
  -7   1  -3    1.40    1.70
  -7  -1   3    0.70    1.50
  -7   2   3   52.79    4.30
  -7  -2  -3   58.89    4.20
  -7  -2  -3   56.29    4.70
   7   2  -3   42.20    6.20
   7  -2   3   56.69    5.00
   7   2  -3   55.59    3.60
   7   2  -3   55.59    4.80
   7   2  -3   55.09    3.10
   7   2  -3   53.29    5.20
   7  -2   3   49.10    5.80
  -7  -2  -3   47.00    7.00
   7   2  -3   52.19    6.20
  -7   2   3   37.80    7.00
  -7   2  -3   53.39    3.50
  -7   2  -3   51.69    4.90
  -7  -2   3   59.59    4.80
   7  -2  -3   51.19    4.80
   7   2   3   51.49    5.50
  -7  -2   3   44.00    5.90
  -7  -2   3   53.99    6.10
  -7   2  -3   51.89    5.60
  -7  -2   3   56.29    5.20
   7   2   3   56.19    4.50
   7  -2  -3   39.10    4.50
  -7   3   3    1.40    1.00
   7  -3   3    2.50    2.90
   7  -3   3    3.10    2.10
  -7  -3  -3   -4.10    2.20
   7  -3   3    0.00    1.20
   7   3  -3    0.60    1.40
   7   3  -3    0.70    3.00
  -7  -3  -3    2.60    1.30
   7   3  -3   -1.10    3.00
   7   3  -3    1.10    1.30
   7  -3   3    1.70    1.10
  -7  -3  -3    1.70    1.60
   7   3  -3    1.50    0.90
  -7   3   3    8.00    3.30
   7  -3   3    4.30    1.90
   7   3   3    1.00    1.30
  -7   3  -3    2.10    1.20
   7   3   3    3.90    2.70
  -7  -3   3   -0.60    1.90
  -7  -3   3    1.20    2.30
  -7   3  -3    0.10    2.30
   7  -3  -3    1.00    6.30
  -7   3  -3    2.30    1.70
  -7  -3   3    1.00    2.70
   7  -3  -3    1.60    0.90
   7   3   3   -2.80    2.10
  -7  -3   3   -0.70    1.90
  -7  -3   3    0.30    1.20
   7  -4   3   20.10    3.40
   7   4  -3   20.30    1.90
   7   4  -3   17.70    4.10
  -7  -4  -3   18.80    2.60
   7  -4   3   14.70    2.20
  -7   4   3   12.60    3.30
   7   4  -3    8.40    4.60
  -7  -4  -3   22.40    8.90
   7  -4   3   14.10    4.40
   7   4  -3   18.80    2.80
   7   4   3   14.90    3.80
  -7  -4   3   10.60    3.90
   7  -4  -3   15.20    2.00
  -7   4  -3   18.30    2.80
  -7   4  -3   14.00    4.00
  -7  -4   3   13.70    2.20
   7   4   3   20.60    2.40
  -7  -4   3   14.20    2.80
  -7  -4   3   20.40    5.20
   7   4   3   16.90    3.00
   7   5  -3    1.00    1.60
   7   5  -3   -0.50    1.00
  -7  -5  -3   16.60   10.00
   7   5  -3    3.60    3.30
   7  -5   3    2.30    1.80
   7  -5   3   -0.40    1.70
  -7  -5  -3    0.80    1.60
   7   5  -3   17.00    5.50
   7  -5   3    5.40    7.10
   7  -5  -3   -0.80    1.70
  -7   5  -3    4.50    2.30
  -7  -5   3    1.20    1.80
  -7  -5   3    5.80    3.60
   7  -5  -3   -4.20   11.10
   7   5   3    2.10    1.40
  -7   5  -3   -2.80    3.00
  -7  -5   3   -0.10    1.80
   7   5   3    2.10    3.90
  -7  -5   3    0.60    4.50
   7  -6   3    5.00    8.70
   7  -6   3   20.20    3.10
  -7  -6  -3   22.90   11.90
   7   6  -3   22.60    3.30
  -7  -6  -3   20.80    2.60
   7   6  -3   12.90    5.90
   7  -6  -3   18.10    3.20
  -7   6  -3   13.90    4.70
  -7  -6   3   24.40    7.50
   7  -6  -3   38.80   17.10
   7   7  -3    0.20    4.90
  -7  -7  -3   -1.10   10.70
   7  -7   3    0.20    9.80
   7  -7   3   -0.40    2.30
   7   7  -3    3.70    2.10
   7  -7  -3    0.30    2.90
   7  -7  -3    9.60   15.60
  -7   7  -3   -2.40    3.50
  -7  -7   3    2.80    7.00
   7  -8   3   -4.60   10.80
  -7  -8  -3   14.10   14.20
   7  -8   3    1.70    2.90
  -7  -8   3    8.70    9.40
   7  -8  -3    2.30   18.60
   7  -9   3  -12.30   12.80
  -7  -9  -3    8.00   15.80
   7  -9  -3   -9.40   19.70
  -7  -9   3   -4.30    9.70
   7 -10   3  -18.90   15.60
  -7 -10  -3    0.20   18.10
   7 -10  -3    8.50   22.90
  -7 -10   3    6.90   13.20
  -7   0  -4 1811.32  103.99
   7   0  -4 1693.73   65.89
   7   0  -4 1703.93  103.99
  -7   0   4 1809.82  104.59
  -7   0   4 1593.44  105.69
   7   0   4 1650.23  103.89
   7   0   4 1628.54   76.19
   7   0  -4 1767.02   74.49
  -7   0   4 1467.05  104.59
  -7   0  -4 1784.32  104.69
  -7   0  -4 1692.13   76.29
   7   0  -4 1709.23  104.79
   7   0   4 1724.83  104.29
   7   0  -4 1728.43  104.39
   7   0   4 1697.83  104.69
   7   0  -4 1419.76  105.39
  -7   0  -4 1631.14  104.19
  -7   0   4 1584.24  103.89
  -7   1   4  111.59    9.90
  -7   1   4  112.79    8.00
   7   1  -4  120.69    5.80
   7  -1   4  114.59    8.60
  -7  -1  -4  135.79   10.80
   7   1  -4  123.29    8.90
  -7  -1  -4  110.49    6.30
   7   1  -4  101.29    8.70
   7   1  -4  110.89    8.50
   7  -1   4  105.99    6.10
   7   1  -4  114.29    5.30
   7   1  -4  107.99    8.80
   7  -1   4  116.89    8.50
   7  -1   4  102.79    8.40
  -7  -1  -4  107.99    7.70
   7  -1  -4  105.49    5.70
  -7   1  -4  114.39    8.50
   7   1   4  104.19    6.20
  -7  -1   4  107.19    8.60
  -7  -1   4  108.39    8.70
   7  -1  -4  102.29    8.20
   7   1   4  115.49    8.40
  -7   1  -4  111.59    6.10
  -7  -1   4  112.09    8.70
  -7   1  -4  116.69    8.40
  -7  -1   4  105.59    8.60
   7  -1  -4  112.19    7.90
   7   1   4  112.99    8.00
  -7   1  -4  108.99    8.40
   7   2  -4  720.33   44.60
  -7  -2  -4  675.03   45.50
   7   2  -4  639.94   45.30
   7   2  -4  703.13   27.90
   7   2  -4  756.72   32.00
  -7   2   4  712.03   44.00
  -7   2   4  749.42   46.00
   7  -2   4  689.43   32.30
   7  -2   4  716.93   44.50
  -7   2   4  588.04   45.50
  -7  -2  -4  720.03   32.70
  -7  -2  -4  729.13   43.80
   7  -2   4  751.02   44.20
   7  -2  -4  695.43   43.70
   7   2   4  704.93   44.10
  -7  -2   4  731.73   44.30
  -7  -2   4  584.34   45.00
  -7   2  -4  733.93   45.10
   7  -2  -4  720.63   46.20
  -7  -2   4  686.63   31.70
   7   2   4  691.53   44.10
   7  -2  -4  663.23   28.70
  -7   2  -4  707.83   32.30
  -7  -2   4  674.53   44.50
  -7  -2   4  691.13   45.70
  -7  -2   4  714.93   44.50
  -7   2  -4  695.83   44.00
   7   3  -4   96.59    9.80
   7   3  -4  119.49    6.40
   7   3  -4  111.79    8.10
   7  -3   4  107.99    9.10
  -7  -3  -4  113.49    7.50
  -7   3   4  112.69    7.60
  -7  -3  -4  107.29    6.40
   7   3  -4  117.59    5.20
   7   3  -4  115.39    9.20
   7  -3   4  113.89    8.10
  -7  -3   4  110.89    8.40
  -7   3  -4  106.09    8.10
   7   3   4  113.69    7.70
  -7  -3   4  117.79   10.40
  -7  -3   4  104.59    6.00
  -7   3  -4  110.09    5.80
   7  -3  -4   82.29    6.70
  -7   3  -4  107.39    9.10
  -7  -3   4  101.79    7.90
   7   3   4  118.19    8.60
  -7  -4  -4  887.01   40.80
  -7   4   4  875.51   57.09
   7  -4   4  819.92   56.19
   7   4  -4  890.51   55.89
   7   4  -4  801.52   57.59
   7  -4   4  931.01   55.19
   7   4  -4  927.51   34.90
   7  -4   4  880.81   40.60
   7   4  -4  887.91   55.59
  -7  -4   4  859.11   40.20
  -7  -4   4  929.81   55.29
   7   4   4  894.61   56.09
   7   4   4  838.42   55.09
   7  -4  -4  951.60   40.30
  -7  -4   4  772.32   56.19
  -7   4  -4  912.31   56.99
  -7  -4   4  884.41   58.69
   7   4   4  884.31   55.79
  -7   4  -4  887.81   55.29
   7   5  -4   43.60    5.70
   7   5  -4   43.80    4.30
   7  -5   4   50.69    4.80
  -7  -5  -4   44.90    3.80
   7  -5   4   21.20    8.60
   7   5  -4   47.70    2.90
   7   5  -4   40.40    7.40
   7  -5   4   39.70    4.10
   7  -5   4   33.90    6.40
  -7  -5   4   43.50    4.20
   7  -5  -4   58.29    4.70
   7   5   4   42.80    3.60
  -7  -5   4   29.00    6.20
  -7   5  -4   49.20    6.10
  -7  -5   4   42.60    4.70
  -7  -5   4   49.60    8.30
   7  -6   4  236.18   13.00
   7   6  -4  229.18   19.50
  -7  -6  -4  226.18   28.80
   7   6  -4  256.37   10.40
   7   6  -4  240.18   16.50
  -7  -6  -4  254.27   12.40
  -7   6  -4  255.27   18.30
  -7  -6   4  241.58   13.00
  -7  -6   4  240.38   21.70
  -7  -6   4  258.07   18.70
  -7  -7  -4   65.79   18.40
   7   7  -4   40.10    7.40
   7  -7   4   44.50    5.20
  -7   7  -4   43.90    6.60
  -7  -7   4   55.59   10.90
  -7  -7   4   44.50    5.10
   7  -7  -4   85.09   22.70
   7  -8   4  171.18   11.30
  -7  -8  -4  188.78   29.80
  -7  -8   4  211.78   21.80
   7  -9   4    0.70   13.50
  -7  -9   4   18.20   11.30
   7  -9  -4   12.20   23.00
   7 -10   4   17.30   17.50
  -7 -10   4   47.30   15.70
   7 -10  -4   62.29   28.60
  -7   0  -5    7.90    2.50
  -7   0   5    6.80    2.60
  -7   0  -5    9.10    2.20
   7   0  -5    7.50    2.60
  -7   0   5    8.70    1.90
   7   0   5    7.90    2.00
   7   0   5    8.30    1.60
  -7   0   5    8.90    2.10
   7   0  -5    6.50    1.30
   7   0   5    7.80    2.20
   7   0   5    6.70    2.60
   7   0  -5    7.20    2.40
  -7   0  -5    7.60    1.70
   7   0  -5    6.30    2.30
   7   0  -5    7.00    2.00
  -7   0  -5    9.20    1.70
  -7   0   5    6.60    2.70
  -7  -1  -5  646.54   46.20
   7   1  -5  727.53   45.40
  -7  -1  -5  703.53   44.60
   7   1  -5  742.63   32.10
   7  -1   5  707.13   44.80
   7  -1   5  777.92   44.90
   7   1  -5  672.33   45.30
  -7   1   5  723.33   45.50
  -7  -1  -5  720.53   33.00
  -7   1   5  713.93   44.80
   7   1  -5  686.83   44.90
   7  -1   5  715.13   45.20
   7   1  -5  711.93   28.30
   7  -1   5  686.23   32.70
   7   1  -5  701.63   44.80
   7   1   5  723.43   44.80
  -7   1  -5  747.43   44.90
   7   1   5  661.13   44.50
   7  -1  -5  718.63   44.50
  -7   1  -5  703.03   44.80
  -7   1  -5  718.33   32.80
  -7  -1   5  688.43   44.80
   7  -1  -5  694.03   28.60
  -7  -1   5  743.03   45.00
  -7   1  -5  730.43   45.20
  -7  -1   5  716.03   45.40
   7   1   5  678.03   32.90
  -7  -1   5  709.83   45.40
  -7  -1   5  658.13   31.90
  -7   2   5   10.30    3.50
  -7  -2  -5   15.10    2.20
   7  -2   5   14.40    1.90
   7   2  -5   14.60    1.80
   7   2  -5    9.50    2.00
   7   2  -5   13.10    1.50
  -7   2   5   15.70    2.30
   7   2  -5   11.70    3.10
   7  -2   5   12.50    2.80
  -7   2   5   12.30    3.90
   7   2  -5   13.40    3.10
  -7  -2  -5   15.10    2.20
   7  -2   5   15.80    3.00
  -7  -2   5   14.50    2.90
   7   2   5   12.50    2.00
   7  -2  -5    7.20    3.70
  -7  -2   5   12.70    2.40
  -7  -2   5   11.40    1.50
  -7   2  -5   12.90    1.80
  -7  -2   5   14.10    2.90
   7   2   5   13.60    2.10
  -7   2  -5   12.50    2.50
   7   2   5   12.40    2.40
  -7  -2   5   11.80    2.80
   7  -2  -5   12.10    2.20
   7  -2  -5   14.80    2.10
   7   3  -5  572.44   35.70
  -7  -3  -5  573.44   26.30
   7  -3   5  581.64   35.70
   7  -3   5  545.55   36.00
  -7  -3  -5  572.24   34.80
  -7   3   5  559.84   35.20
   7   3  -5  544.75   35.90
   7  -3   5  530.75   25.90
   7   3  -5  555.74   22.40
   7  -3   5  520.75   35.40
   7   3  -5  534.75   36.90
  -7   3   5  532.15   37.00
   7   3  -5  594.54   26.00
  -7  -3   5  578.54   37.90
  -7  -3   5  573.14   36.20
  -7   3  -5  561.44   36.40
   7   3   5  559.44   35.20
   7  -3  -5  534.95   23.60
  -7  -3   5  585.14   35.60
  -7  -3   5  550.54   35.60
   7   3   5  551.44   35.40
  -7   3  -5  556.74   35.40
  -7  -3   5  536.75   25.60
   7   4  -5    5.60    1.90
   7  -4   5    5.40    2.40
  -7  -4  -5    4.90    1.80
   7  -4   5    4.70    1.60
   7   4  -5    2.90    3.00
   7  -4   5    3.70    1.80
   7   4  -5    4.10    1.20
   7  -4   5    5.40    3.40
  -7   4   5    1.50    3.90
   7   4  -5    2.30    3.40
  -7   4  -5    4.80    2.60
  -7  -4   5    2.20    3.00
  -7   4  -5    3.00    2.40
  -7  -4   5    2.80    1.60
   7   4   5    2.50    1.40
   7   4   5    3.80    2.80
  -7  -4   5    6.80    2.90
   7   4   5   -5.00    3.20
  -7  -4   5    3.90    2.40
  -7  -4   5    7.50    4.40
  -7  -4   5    4.70    1.70
   7  -4  -5   -0.40    2.70
   7   5  -5  319.97   12.70
   7  -5   5  278.57   15.30
   7  -5   5  279.87   21.50
  -7  -5  -5  311.77   15.00
   7  -5   5  326.37   20.10
  -7   5   5  329.27   14.20
   7   5  -5  307.17   22.40
   7   5  -5  301.37   20.10
  -7  -5   5  304.17   24.00
  -7  -5   5  302.97   20.10
  -7  -5   5  292.07   15.00
  -7  -5   5  267.87   21.50
  -7   5  -5  325.57   21.40
   7   5   5  294.37   19.40
   7   6  -5    5.70    1.40
   7   6  -5    2.60    4.20
  -7  -6  -5    6.00    2.10
   7  -6   5    5.80    2.40
   7  -6   5   -2.00    4.50
   7  -6   5    9.30    2.70
   7  -6   5    1.30    8.20
  -7   6  -5    5.70    3.20
  -7  -6   5   -1.90    4.30
  -7  -6   5    4.10    2.60
  -7  -6   5    7.60    6.40
  -7  -6   5    8.30    2.50
   7   7  -5  184.58   15.80
   7  -7   5  168.88   10.80
  -7  -7   5  191.18   10.80
  -7  -7   5  194.58   19.50
   7  -8   5   -2.40    3.00
   7  -8   5   -1.20   10.50
  -7  -8   5    3.50    8.60
   7  -9   5   14.00   14.10
  -7  -9   5   71.59   14.90
   7 -10   5   -2.50   15.30
  -7 -10   5    6.00   12.50
   7   0   6    2.40    1.40
  -7   0  -6    2.20    1.30
  -7   0   6    0.00    1.20
   7   0   6    3.30    1.90
  -7   0  -6    0.50    1.30
   7   0  -6    1.80    2.10
   7   0  -6   -1.00    1.90
  -7   0  -6    1.60    1.80
  -7   0   6   -2.90    2.00
   7   0  -6   -1.80    1.90
  -7   0  -6    2.80    2.10
   7   0   6    1.20    1.50
  -7   0   6   -2.40    2.00
   7   0  -6    0.40    1.70
   7   0  -6    1.30    1.10
  -7   1   6  131.79    9.30
  -7  -1  -6  121.09   10.20
   7   1  -6  131.49    9.90
  -7  -1  -6  130.89    9.10
  -7   1   6  125.69   10.90
   7   1  -6  133.99    9.90
   7   1  -6  131.29    6.10
   7  -1   6  131.09    9.70
  -7  -1  -6  132.39    7.20
   7  -1   6  143.69    9.90
   7   1  -6  125.79    9.80
   7   1  -6  135.59    6.70
   7  -1   6  128.79    9.70
   7   1  -6  131.49    9.90
   7  -1   6  126.79    7.00
  -7   1   6  141.39   10.40
   7  -1  -6  132.19    6.40
  -7  -1   6  140.79    9.90
  -7   1  -6  128.99    9.50
  -7  -1   6  133.69    9.90
   7   1   6  134.59    7.20
  -7  -1   6  128.39    6.50
   7   1   6  131.89    9.30
   7   1   6  124.89    9.50
   7  -1  -6  127.19    9.50
  -7   1  -6  139.69    9.80
  -7   1  -6  132.99    7.10
  -7   1  -6  124.89    9.70
  -7  -1   6  132.99   10.00
  -7  -1   6  132.39   10.00
   7   2  -6    1.10    1.70
   7  -2   6    1.60    2.00
   7   2  -6   -0.20    2.00
  -7   2   6   -1.70    2.80
   7   2  -6    2.40    2.70
  -7   2   6    1.30    1.20
  -7  -2  -6   -1.80    2.50
  -7   2   6    1.60    2.70
   7   2  -6    2.10    1.20
   7  -2   6    1.20    1.40
   7  -2   6    0.90    2.30
  -7  -2  -6    1.40    1.50
  -7   2  -6    1.30    1.40
   7  -2  -6   -1.90    2.90
   7   2   6   -0.30    1.50
  -7   2  -6    0.90    2.00
  -7  -2   6    0.10    1.80
   7  -2  -6   -0.30    1.70
  -7  -2   6   -0.10    1.80
   7  -2  -6    2.40    1.50
  -7  -2   6   -1.80    2.20
  -7  -2   6    0.70    2.00
  -7  -2   6    1.10    1.00
   7   2   6    1.60    1.40
   7   3  -6   92.69    8.40
   7  -3   6  103.29    8.10
  -7  -3  -6   98.39    5.90
   7  -3   6   94.79    5.70
  -7   3   6  100.99    7.00
   7   3  -6   94.19    8.80
   7   3  -6   91.89    7.50
   7  -3   6   78.99    8.30
  -7  -3  -6  104.49    7.10
   7  -3   6  109.89    8.60
  -7  -3  -6   95.09    9.70
   7   3  -6   99.09    5.00
  -7   3   6   93.29    9.10
   7  -3   6  106.59    8.10
  -7  -3   6  100.39    5.70
  -7  -3   6  104.49    8.80
   7   3   6   97.29    7.10
   7   3   6   99.49    7.70
   7   3   6  103.69    6.30
  -7  -3   6  101.39    7.80
  -7  -3   6   89.29    8.60
   7  -3  -6   97.89    6.10
  -7   3  -6  101.89    7.90
  -7   3  -6  105.89    8.30
  -7  -3   6  106.09    8.20
   7  -4   6    0.80    3.00
   7  -4   6    0.00    1.50
   7   4  -6   -2.10    2.80
   7  -4   6    2.60    2.70
   7   4  -6    2.90    1.90
   7   4  -6   -2.00    2.80
   7  -4   6    2.60    2.20
  -7  -4  -6    3.30    1.70
  -7   4   6    0.20    2.40
  -7   4   6   -3.90    3.20
   7  -4   6   -1.70    1.60
  -7  -4  -6    0.70    0.80
  -7   4   6    0.40    1.10
   7   4  -6    0.30    1.20
  -7  -4   6    2.60    2.30
   7   4   6   -0.70    1.40
  -7   4  -6    0.60    2.20
  -7  -4   6   -1.00    3.90
  -7   4  -6   -0.90    2.20
   7  -4  -6   -0.70    2.30
  -7  -4   6   -2.00    1.60
  -7  -4   6   -1.50    2.50
   7   4   6    0.30    2.40
  -7  -4   6    0.10    1.50
   7   4   6    3.40    4.10
   7   5  -6   59.69    5.60
  -7  -5  -6   60.49    4.60
   7   5  -6   51.99    7.40
   7  -5   6   56.69    5.00
   7   5  -6   62.79    3.80
   7  -5   6   65.39    7.70
  -7   5  -6   66.19    6.80
  -7  -5   6   64.19   10.40
  -7  -5   6   60.59    4.70
   7   5   6   59.99    4.80
  -7  -5   6   59.49    6.20
   7   6  -6   -2.30    3.70
   7  -6   6   -2.50    2.10
   7   6  -6   -1.40    1.40
   7  -6   6   -1.50    7.70
   7  -6   6    1.40    4.40
   7   6   6    1.00    1.50
  -7  -6   6   -1.60    2.60
  -7  -6   6   -1.80    5.70
  -7  -6   6    0.10    2.10
   7  -7   6   28.20    4.20
   7  -7   6    7.80   10.30
  -7  -7   6   26.30    3.80
  -7  -7   6   40.20   10.10
   7  -8   6   -1.90   10.70
  -7  -8   6   -1.80    8.00
   7  -9   6   -6.00   12.30
  -7  -9   6   14.70   10.80
  -7 -10   6    2.60   11.40
  -7   0  -7  170.78   11.40
   7   0  -7  144.89   12.10
   7   0   7  154.48   11.30
   7   0   7  153.48    8.30
   7   0  -7  150.88   11.40
  -7   0   7  160.28   11.30
   7   0  -7  156.78    7.30
   7   0  -7  148.69   11.80
   7   0  -7  167.68   11.50
  -7   0  -7  163.28   11.70
  -7   0   7  159.08   12.10
   7   0   7  164.08   11.30
  -7   0   7  156.78   11.70
  -7   0  -7  172.18   11.20
  -7   1   7  579.54   36.40
   7  -1   7  530.85   26.30
   7  -1   7  552.94   36.00
   7   1  -7  558.14   22.90
  -7  -1  -7  579.64   26.60
  -7  -1  -7  520.85   36.40
   7   1  -7  557.34   36.10
  -7   1   7  528.55   36.00
  -7   1   7  553.34   37.30
  -7  -1  -7  566.74   35.80
   7   1  -7  564.14   36.60
   7  -1   7  578.04   36.30
   7   1  -7  551.04   36.10
   7   1  -7  596.14   36.70
  -7   1  -7  602.84   36.30
   7   1   7  547.35   35.80
  -7  -1   7  566.24   36.70
   7  -1  -7  561.74   23.00
   7   1   7  562.24   26.50
  -7  -1   7  572.04   36.50
  -7   1  -7  556.24   36.10
   7   1   7  575.24   36.00
  -7  -1   7  547.65   25.50
   7  -1  -7  554.34   35.80
  -7   1  -7  600.74   36.20
  -7  -1   7  570.24   36.10
  -7  -1   7  582.04   36.30
   7   2  -7   90.59    4.70
  -7   2   7   72.19    8.60
   7   2  -7   77.19    7.60
   7  -2   7   90.19    7.50
   7  -2   7   91.19    7.70
   7   2  -7   89.69    7.30
   7  -2   7   88.49    5.20
   7   2  -7   83.99    7.80
  -7   2   7   87.29    6.70
  -7  -2  -7   95.89    5.50
  -7   2   7   88.29    8.00
  -7  -2  -7   91.79    6.80
   7   2  -7  102.49    5.50
   7  -2   7   96.99    7.70
  -7  -2   7   87.39    7.40
   7   2   7   88.39    6.70
  -7  -2   7   89.29    7.70
   7  -2  -7   88.79    7.00
   7   2   7   83.49    7.10
  -7  -2   7   87.69    7.80
  -7  -2   7   83.29    7.60
  -7   2  -7   96.19    7.40
   7   2   7   89.09    5.60
   7  -2  -7   87.69    5.10
  -7  -2   7   87.99    4.90
  -7   2  -7   91.19    7.40
  -7  -3  -7  517.95   23.90
  -7  -3  -7  492.55   31.50
  -7   3   7  488.35   31.90
   7   3  -7  494.45   20.40
  -7  -3  -7  538.85   33.80
   7  -3   7  509.05   23.60
   7  -3   7  465.85   33.00
   7  -3   7  525.95   32.80
   7  -3   7  504.05   32.60
  -7   3   7  535.05   32.90
   7  -3   7  534.95   32.40
   7   3  -7  462.95   33.20
   7   3  -7  486.55   32.60
   7  -3  -7  489.65   21.20
   7   3   7  489.55   31.90
  -7  -3   7  475.15   33.30
   7  -3  -7  534.25   34.20
  -7   3  -7  488.95   32.30
  -7  -3   7  481.65   32.50
   7   3   7  521.35   24.10
  -7  -3   7  494.25   32.70
  -7  -3   7  490.15   23.20
   7   3   7  491.45   32.00
  -7  -3   7  504.35   32.50
  -7   3  -7  520.85   32.90
   7  -4   7  106.19    6.00
   7  -4   7  115.39    9.30
   7   4  -7  105.69    8.10
  -7   4   7  105.09    7.20
  -7  -4  -7   98.89    4.80
   7   4  -7   94.49    9.00
   7   4  -7   92.09    9.30
   7  -4   7   93.79    6.60
   7   4  -7  104.49    5.30
   7   4   7  102.29    6.80
   7  -4  -7  105.19    6.80
   7   4   7  105.29    7.40
  -7   4  -7   99.49    8.40
  -7  -4   7   97.79    8.60
  -7  -4   7  111.19   11.80
  -7  -4   7   99.59    6.10
  -7  -4   7   94.79    8.00
  -7   4  -7  109.39    8.80
   7   5  -7  224.98   17.70
   7  -5   7  243.18   11.80
   7  -5   7  213.38   12.50
   7   5  -7  240.28   10.30
   7  -5   7  243.28   17.40
   7  -5  -7  201.88   12.50
   7   5   7  233.28   15.40
  -7  -5   7  250.27   20.50
  -7  -5   7  253.67   16.60
  -7  -5   7  236.28   12.10
   7  -6   7   50.29    8.00
   7  -6   7   43.40    5.00
   7   6  -7   48.40    3.70
  -7  -6   7   45.80    4.60
  -7  -6   7   57.39   10.10
  -7  -6   7   45.00    5.90
   7   6   7   47.20    4.20
   7  -7   7  165.08   10.80
  -7  -7   7  186.18   20.00
  -7  -7   7  182.48   13.20
  -7  -7   7  177.38   10.50
   7  -8   7   11.80   12.30
  -7  -8   7   48.00   12.00
   7  -9   7   15.70   14.60
  -7  -9   7   44.60   13.60
   7   0  -8  849.72   51.29
  -7   0   8  841.42   52.09
  -7   0   8  790.62   36.20
  -7   0  -8  817.72   51.19
  -7   0   8  859.51   51.39
  -7   0   8  832.52   51.39
  -7   0  -8  797.92   51.29
   7   0  -8  781.52   50.99
   7   0   8  749.53   50.89
  -7   0  -8  806.02   50.99
   7   0   8  835.32   51.39
   7   0  -8  779.12   52.09
   7   0   8  781.62   37.40
   7   0  -8  783.42   32.40
  -7   1   8   38.80    5.30
  -7  -1  -8   41.60    3.90
  -7   1   8   40.20    4.10
   7   1  -8   47.60    5.60
   7   1  -8   42.10    3.10
  -7  -1  -8   50.79    5.60
   7  -1   8   42.20    3.40
   7   1  -8   41.80    5.40
   7  -1   8   41.80    5.00
   7   1  -8   48.50    5.50
   7  -1   8   42.30    4.60
   7   1  -8   42.10    5.00
  -7   1   8   37.60    5.50
   7  -1  -8   38.70    4.90
  -7   1  -8   43.20    5.00
  -7  -1   8   39.30    5.40
  -7  -1   8   40.50    4.60
   7  -1  -8   28.90    5.40
  -7  -1   8   44.10    2.80
   7   1   8   40.50    3.60
   7  -1  -8   29.20    5.40
   7   1   8   44.70    4.40
  -7  -1   8   43.20    5.10
   7  -1  -8   39.60    3.20
  -7   1  -8   42.40    4.50
  -7   1  -8   43.20    5.10
   7   1   8   40.60    4.70
   7  -2   8  484.35   31.50
   7   2  -8  499.95   31.70
  -7  -2  -8  491.55   30.90
  -7   2   8  514.35   31.70
  -7   2   8  489.55   33.00
   7   2  -8  445.26   32.10
   7  -2   8  513.85   31.70
   7   2  -8  479.05   31.60
   7   2  -8  478.85   19.90
   7  -2   8  484.45   22.90
  -7   2   8  490.35   31.20
   7  -2   8  466.25   31.80
  -7   2  -8  470.05   31.40
   7   2   8  495.45   23.20
   7  -2  -8  481.85   31.00
   7   2   8  480.65   31.10
  -7   2  -8  477.65   31.70
  -7  -2   8  493.65   32.10
  -7  -2   8  491.05   31.70
  -7  -2   8  500.85   31.60
  -7  -2   8  465.85   22.30
  -7  -2   8  498.25   31.90
   7  -2  -8  486.15   20.30
   7   2   8  474.85   31.20
   7   3  -8   20.90    2.20
  -7   3   8   21.80    2.90
  -7  -3  -8   26.20    3.40
   7   3  -8   22.20    4.20
  -7  -3  -8   16.30    4.70
  -7   3   8   19.00    4.90
   7  -3   8   25.10    2.90
   7  -3   8   26.30    4.30
   7   3  -8   27.20    4.00
   7  -3   8   25.10    3.60
   7  -3   8   22.10    4.10
   7   3  -8   21.20    4.40
  -7   3  -8   21.50    3.70
   7  -3  -8   22.30    2.80
  -7  -3   8   20.30    4.00
  -7  -3   8   27.50    4.80
  -7  -3   8   22.40    2.80
   7   3   8   20.20    3.20
  -7  -3   8   15.90    3.40
   7  -4   8  463.55   21.30
   7   4  -8  412.16   30.20
   7  -4   8  484.95   29.90
   7   4  -8  454.05   29.70
   7   4  -8  445.86   18.50
   7  -4   8  432.96   22.00
  -7  -4  -8  444.66   18.20
  -7   4   8  443.86   28.60
   7   4   8  453.15   28.70
  -7  -4   8  434.66   21.10
   7  -4  -8  451.75   19.80
  -7   4  -8  440.46   29.30
  -7  -4   8  458.25   29.50
  -7  -4   8  444.66   29.40
  -7   5   8   29.60    3.50
   7  -5   8   31.40    5.60
   7   5  -8   31.00    3.10
   7  -5   8   22.70    3.40
  -7  -5   8   32.20    7.70
   7   5   8   25.10    3.50
  -7  -5   8   24.30    3.00
  -7  -5   8   20.80    4.60
   7  -5  -8   26.90    4.30
   7   6  -8  195.88    8.70
   7  -6   8  183.48   15.20
   7  -6   8  172.98   10.90
  -7  -6   8  178.68   13.80
  -7  -6   8  203.68   19.20
  -7  -6   8  184.58   10.40
   7  -7   8   -1.20   10.00
   7  -7   8    0.70    5.30
  -7  -7   8    8.00    3.00
  -7  -7   8   -0.50    3.60
  -7  -7   8   10.40    8.20
  -7  -8   8  124.39   18.20
   7  -9   8  -11.30   12.00
  -7  -9   8    1.00    9.90
  -7   0  -9  176.38   12.20
  -7   0  -9  183.08   12.60
  -7   0   9  166.08   12.90
   7   0   9  167.98   12.50
   7   0  -9  176.68   12.70
   7   0  -9  177.48    8.20
   7   0   9  175.08   12.40
   7   0  -9  162.68   13.30
  -7   0  -9  182.48   12.90
   7   0  -9  171.58   13.00
  -7   0   9  168.08   12.40
  -7   0   9  181.88   13.20
   7   1  -9    1.40    2.10
  -7  -1  -9    1.40    1.20
  -7  -1  -9    3.90    1.50
  -7   1   9    0.00    2.60
  -7   1   9   -0.70    2.50
   7   1  -9    1.60    2.20
  -7   1   9    2.40    1.60
   7   1  -9    3.00    1.50
   7  -1   9    1.00    2.60
   7   1  -9    0.10    2.80
   7  -1   9    1.80    2.20
  -7  -1  -9    2.80    2.80
   7  -1  -9    2.30    2.70
   7   1   9    2.10    1.90
  -7  -1   9   -0.80    2.30
  -7  -1   9    2.40    1.80
  -7   1  -9    4.80    2.30
  -7   1  -9    4.90    2.70
  -7  -1   9    0.80    1.00
   7   1   9    1.90    2.40
  -7  -1   9   -1.20    2.70
   7  -1  -9    2.80    1.50
  -7   1  -9    1.70    1.70
   7  -1  -9    0.20    2.50
  -7   2   9  120.59    8.90
   7  -2   9  122.19    9.70
   7  -2   9  124.49    9.80
  -7  -2  -9  113.29   10.30
  -7   2   9  125.39    9.90
   7   2  -9  123.19   10.30
   7   2  -9  117.19    6.10
   7   2  -9  114.19   10.00
   7   2  -9  127.29    9.60
  -7  -2  -9  133.29    9.00
  -7   2   9  125.99   10.70
  -7   2  -9  122.49    9.60
   7  -2  -9  121.39    9.20
   7  -2  -9  120.89    6.40
   7   2   9  122.09    9.00
  -7  -2   9  114.49    9.90
  -7  -2   9  127.89    6.40
  -7  -2   9  118.69    9.80
  -7   2  -9  117.69    9.40
   7  -2  -9   99.99   10.80
  -7  -2   9  121.19    9.80
   7   2   9  110.09    9.20
   7  -3   9    1.80    1.70
  -7  -3  -9    3.50    1.30
  -7  -3  -9    2.00    1.70
   7   3  -9   -1.10    2.60
   7   3  -9   -4.20    3.20
   7   3  -9    0.40    1.50
   7  -3   9    1.20    3.10
  -7   3   9    0.50    1.40
   7  -3   9    3.40    2.30
  -7   3   9   -0.50    3.20
   7  -3   9    2.60    2.70
  -7  -3   9   -5.30    2.90
  -7  -3   9   -4.30    2.30
  -7  -3   9    0.80    1.40
   7   3   9    3.30    2.00
   7  -3  -9    3.90    3.70
  -7   3  -9    1.20    2.90
  -7  -3   9    2.60    2.30
   7  -3  -9    2.80    1.90
   7  -4   9  111.89    9.90
   7  -4   9  100.99    9.70
   7  -4   9  107.09    7.40
   7  -4   9  120.39    6.60
  -7   4   9  109.89    8.10
  -7  -4  -9  111.79    5.40
   7   4  -9  104.69    9.70
  -7   4   9  105.39   10.80
   7   4  -9  104.39    5.70
  -7   4  -9  110.89    9.40
   7   4   9  107.99    8.20
  -7  -4   9  114.59    9.80
  -7  -4   9  108.39    6.60
  -7  -4   9  102.69    9.20
   7  -4  -9  123.39    7.20
  -7   5   9   -1.40    3.80
  -7   5   9    0.60    1.60
   7   5  -9    1.70    1.70
   7  -5   9   -0.30    2.20
   7  -5   9    4.60    4.10
   7   5   9   -1.30    1.80
  -7  -5   9    2.80    5.50
  -7  -5   9    1.10    2.00
  -7  -5   9    1.80    3.70
   7  -5  -9    0.70    3.00
   7   6  -9   57.29    4.30
   7  -6   9   47.00    5.50
   7  -6   9   61.89    8.50
  -7  -6   9   51.39    5.20
   7  -6  -9   49.20    6.30
  -7  -6   9   49.70    7.10
  -7  -6   9   54.89   10.90
   7  -7   9    2.20    5.40
   7  -7   9   -0.20   10.30
  -7  -7   9    5.20    7.80
  -7  -7   9   -6.70    3.80
   7  -8   9    2.30   11.80
  -7  -8   9   48.50   12.80
   7  -9   9  -13.20   11.80
  -7  -9   9    4.10   10.40
  -7   0  10  314.87   14.50
   7   0 -10  299.47   22.00
  -7   0 -10  308.77   21.50
   7   0  10  322.77   21.20
  -7   0 -10  321.57   21.00
  -7   0  10  329.17   21.30
   7   0 -10  309.37   21.30
   7   0  10  302.77   21.10
  -7   0  10  326.47   22.00
  -7   0  10  317.07   21.50
   7   0 -10  308.37   13.60
   7   1 -10  144.19   11.50
  -7   1  10  145.59   10.80
   7  -1  10  153.08   11.20
  -7  -1 -10  143.49   11.60
   7   1 -10  140.29    7.20
   7  -1  10  150.08   11.30
   7   1 -10  155.88   11.60
  -7   1  10  147.79   11.50
  -7   1  10  145.39   11.90
   7  -1 -10  140.79   11.00
  -7   1 -10  159.58   11.10
  -7  -1  10  152.58   11.30
  -7  -1  10  149.49   11.70
  -7  -1  10  145.39    7.40
  -7   1 -10  145.09   11.40
   7   1  10  137.09   11.00
  -7  -1  10  153.48   11.70
   7   1  10  148.09   10.90
   7  -1 -10  151.48    7.40
  -7   2  10  530.15   34.20
   7  -2  10  522.95   34.50
   7   2 -10  553.94   34.90
   7   2 -10  535.25   21.90
  -7  -2 -10  464.85   34.90
   7   2 -10  530.85   34.70
  -7   2  10  550.74   35.60
   7  -2 -10  541.25   34.00
   7  -2 -10  533.75   22.20
  -7  -2  10  526.45   24.40
  -7  -2  10  565.14   35.20
  -7   2 -10  536.75   34.50
  -7  -2  10  555.54   34.80
   7   2  10  537.35   34.20
   7  -2 -10  457.75   35.00
  -7  -3 -10  113.39    5.70
   7  -3  10  113.89    9.80
  -7   3  10  117.49    8.50
  -7  -3 -10  112.49    8.40
   7   3 -10  102.69    5.90
   7  -3  10  129.49   10.40
   7   3 -10  104.49    9.90
  -7   3  10  115.19   10.50
   7  -3 -10   92.99   11.10
   7   3  10  111.49    8.60
  -7  -3  10  119.69    9.90
   7  -3 -10  110.59    6.50
  -7  -3  10  111.49    6.40
  -7  -3  10  109.99    9.90
  -7   3 -10  115.49    9.60
   7  -4  10  205.78   15.00
  -7   4  10  208.98   16.00
   7  -4  10  190.68   11.20
  -7   4  10  196.88   13.50
  -7  -4 -10  188.48    8.80
   7   4 -10  171.58    9.00
  -7  -4  10  194.68   10.20
   7   4  10  201.18   13.60
   7  -4 -10  209.58   10.20
  -7  -4  10  194.68   14.90
  -7   5  10   98.09    7.30
   7  -5  10   92.49    7.10
   7   5 -10   88.39    5.50
   7  -5  10   98.59    9.90
   7  -5 -10   92.29    7.30
   7   5  10   99.99    7.60
  -7  -5  10   90.49    6.40
  -7  -5  10   83.19    9.10
  -7  -5  10  103.69   13.70
   7  -6  10  230.48   17.30
   7   6 -10  210.68   10.00
  -7  -6  10  229.28   21.40
  -7  -6  10  203.38   16.30
   7  -6 -10  205.48   12.80
  -7  -6  10  214.18   11.90
   7  -7  10   47.70    8.60
  -7  -7  10   38.30    6.90
  -7  -7  10   52.69   11.70
   7  -8  10    7.80   13.00
  -7  -8  10   58.49   13.40
   7   0  11   53.49    6.30
  -7   0  11   55.99    6.90
  -7   0  11   58.39    3.40
   7   0 -11   56.49    6.50
  -7   0 -11   56.29    6.60
   7   0 -11   51.59    4.00
   7   1 -11  241.38   11.10
   7  -1  11  243.08   17.30
  -7  -1 -11  253.87   17.80
   7   1 -11  245.68   17.50
  -7   1  11  264.47   18.10
   7   1 -11  244.98   17.60
  -7   1 -11  247.48   17.10
  -7   1 -11  246.78   17.40
   7  -1 -11  238.78   17.20
  -7  -1  11  235.88   11.70
   7  -1 -11  241.98   11.20
   7   1  11  241.08   17.00
  -7  -1  11  247.28   17.70
  -7   2  11   45.50    6.50
  -7  -2 -11   46.70    6.80
   7   2 -11   46.20    6.70
  -7  -2 -11   46.80    3.60
   7   2 -11   50.69    4.00
   7  -2  11   46.60    6.20
  -7  -2  11   46.40    3.60
  -7  -2  11   44.90    6.80
  -7   2 -11   48.80    6.30
   7  -2 -11   50.29    6.00
   7   2  11   45.10    5.30
   7  -2 -11   45.50    4.10
   7  -3  11  189.78   11.00
  -7   3  11  184.88   14.70
  -7  -3 -11  183.98    8.60
   7   3 -11  184.28   14.50
   7  -3  11  198.68   14.40
   7   3 -11  176.68    8.80
  -7   3 -11  183.58   14.10
  -7  -3  11  177.08    9.60
  -7  -3  11  193.78   14.50
   7  -3 -11  198.68    9.50
   7   3  11  186.98   13.30
   7  -4  11   31.80    4.20
  -7   4  11   37.00    6.60
   7   4 -11   39.20    3.70
   7  -4  11   43.90    6.90
  -7  -4 -11   35.90    3.30
  -7  -4  11   40.20    3.90
   7  -4 -11   43.80    4.70
  -7  -4  11   30.90    6.00
   7   4  11   37.90    4.90
   7   5 -11  133.19    7.10
   7  -5  11  137.19   12.20
   7  -5  11  125.79    8.90
   7  -5 -11  141.39    8.80
  -7  -5  11  132.69    8.10
  -7  -5  11  129.69   11.80
   7   6 -11   21.20    2.90
   7  -6  11   15.30    5.90
  -7  -6  11   19.20    3.40
   7  -6 -11   24.30    5.00
  -7  -6  11   22.70    9.20
  -7  -6  11   12.70    5.50
   7  -7  11   67.79   10.40
  -7  -7  11   53.79    8.90
  -7  -7  11   73.19   13.60
   7  -8  11   -6.30   12.30
  -7  -8  11   17.00   10.70
   7   0 -12    1.50    1.90
   7   0 -12    0.20    3.60
  -7   0 -12    2.00    3.50
   7  -1  12  143.49   11.70
  -7  -1 -12  162.28   12.30
   7   1 -12  142.79    7.50
   7   1 -12  135.69   11.80
   7  -1 -12  145.19   11.60
   7  -1 -12  151.68    7.70
  -7   1 -12  147.69   11.90
  -7  -1  12  143.39   12.10
  -7  -1  12  151.38    7.60
   7  -2  12   -3.70    3.50
   7   2 -12   -0.30    1.80
   7   2 -12   -4.00    3.90
  -7   2  12   -5.50    3.00
  -7  -2 -12   -1.30    1.50
  -7  -2 -12    3.20    3.90
  -7  -2  12   -5.70    3.60
  -7  -2  12   -0.80    1.50
  -7   2 -12   -0.80    3.40
   7  -2 -12    0.70    2.10
   7  -3  12  121.99   10.60
  -7   3  12  119.99   10.80
   7  -3  12  117.19    8.10
   7   3 -12  108.19    6.40
   7   3 -12  116.89   10.80
  -7  -3 -12  108.89    6.20
   7  -3 -12  119.49    7.00
  -7   3 -12  118.29   10.40
  -7  -3  12  124.49   11.10
   7  -3 -12  116.69    9.30
  -7  -3  12  121.09    6.80
  -7  -4 -12   -0.80    1.60
   7  -4  12   -2.20    2.30
  -7   4  12   -4.30    3.20
   7  -4  12   -3.60    4.30
   7   4 -12   -1.60    2.00
   7   4  12   -1.80    2.50
  -7  -4  12   -1.80    1.90
   7  -4 -12    0.10    2.50
  -7  -4  12   -7.00    4.20
   7  -5  12   80.09    9.70
   7   5 -12   72.49    5.30
  -7  -5  12   68.29    9.20
   7  -5 -12   90.19    7.00
  -7  -5  12   78.99    6.10
   7   6 -12   -1.10    2.30
   7  -6  12   -2.30    5.50
  -7  -6  12    0.00    7.90
   7  -6 -12    4.80    4.10
  -7  -6  12   -7.40    4.80
  -7  -7  12   43.60   12.20
   7  -8  12   -4.20   13.00
  -7  -8  12    0.30    9.80
  -7   0 -13   78.59    8.40
   7   0 -13   74.49    8.20
   7   0 -13   71.39    5.20
   7   1 -13  195.98    9.70
  -7  -1 -13  194.78    9.50
   7   1 -13  190.28   15.20
  -7  -1 -13  217.28   15.60
  -7   1 -13  197.68   15.20
   7  -1 -13  195.88   14.90
   7  -1 -13  199.18    9.80
   7  -2  13  100.69    9.60
   7   2 -13   94.59    9.90
   7   2 -13   94.69    5.90
  -7  -2 -13  102.49    5.80
  -7  -2 -13  103.89   10.30
  -7   2 -13   94.09    9.50
  -7  -2  13   91.79   10.00
   7  -2 -13  104.09    6.30
   7  -3  13  126.09    8.80
   7   3 -13  129.99   11.80
  -7  -3 -13  131.19    6.90
   7   3 -13  120.89    7.00
   7  -3  13  130.69   11.60
  -7   3 -13  131.49   11.40
  -7  -3  13  125.09   12.00
  -7  -3  13  132.29    7.40
   7  -3 -13  127.59    7.60
  -7  -4 -13   55.19    4.30
   7   4 -13   53.09    4.60
   7  -4  13   51.69    8.10
  -7  -4  13   50.59    8.40
   7  -4 -13   59.59    5.50
  -7  -4  13   50.79    4.70
   7   5 -13  113.19    7.00
   7  -5  13  121.69   12.30
  -7  -5  13  124.79   12.00
  -7  -5  13  119.69    7.70
   7  -5 -13  121.29    8.50
   7  -6  13   51.49    8.80
   7   6 -13   46.00    4.90
  -7  -6  13   59.79   12.50
  -7  -6  13   42.00    8.00
  -7  -7  13   55.89   13.50
  -7   0 -14  169.38   14.10
  -7   0 -14  166.88    8.80
   7   0 -14  173.48    9.00
   7   0 -14  173.78   13.90
  -7  -1 -14   55.29    7.70
   7   1 -14   48.90    7.80
   7   1 -14   47.10    4.50
  -7  -1 -14   48.70    4.40
   7  -1 -14   47.90    4.70
  -7   1 -14   48.60    7.40
  -7  -2 -14  175.28   14.90
   7   2 -14  171.18    8.90
   7   2 -14  178.18   14.60
  -7  -2 -14  180.88    8.90
  -7   2 -14  185.28   14.40
   7  -2 -14  164.08   13.50
   7  -2 -14  173.98    9.30
   7  -3  14   42.80    7.00
   7   3 -14   42.30    7.10
   7   3 -14   41.40    4.40
  -7  -3 -14   50.79    4.30
  -7  -3  14   36.70    7.10
   7  -3 -14   43.70    4.90
  -7  -4 -14  108.29    6.40
   7  -4  14  106.29   11.10
   7   4 -14  102.19    6.60
   7  -4 -14  106.19    7.40
  -7  -4  14  110.29   11.50
   7   5 -14   23.40    3.40
   7  -5  14   15.80    6.50
  -7  -5  14   14.20    6.50
   7  -5 -14   24.30    4.40
   7   6 -14   63.29    5.70
  -7  -6  14   84.69   14.50
   7   0 -15   92.89    9.80
  -7   0 -15   84.99    9.70
   7   0 -15   79.49    6.10
  -7   0 -15   84.19    5.80
  -7  -1 -15   -0.60    2.00
  -7  -1 -15    2.20    4.80
   7   1 -15   -0.20    5.10
   7   1 -15    1.40    2.50
  -7   1 -15    1.80    4.70
  -7   1 -15   -2.30    2.50
   7  -1 -15   -0.40    2.50
  -7  -2 -15   83.39   10.40
   7   2 -15   84.39    6.10
   7   2 -15   87.79   10.30
  -7  -2 -15   91.59    5.90
   7  -2 -15   91.79    6.40
   7  -2 -15   87.09    9.20
  -7   2 -15   86.29    9.90
  -7   2 -15   85.09    6.20
   7   3 -15    2.40    2.70
  -7  -3 -15    0.20    2.10
   7  -3 -15   -0.20    2.70
  -7   3 -15   -1.40    2.80
   7  -4  15   50.19    8.30
   7   4 -15   53.49    5.20
  -7   4 -15   55.29    5.50
   7  -4 -15   55.89    5.90
  -7  -4  15   56.49    9.50
   7   5 -15   -1.70    2.80
   7  -5  15   -5.90    5.90
  -7   5 -15   -1.90    3.10
  -7  -5  15  -12.30    5.80
   7  -5 -15    3.00    3.60
   7   6 -15   39.00    4.50
  -7   6 -15   35.30    4.80
  -7  -6  15   51.19   12.90
  -7   0 -16  136.79    8.10
  -7   0 -16  142.39   13.20
   7   0 -16  142.19    8.20
   7   1 -16   83.29    9.90
  -7  -1 -16   64.29    9.50
  -7  -1 -16   69.79    5.50
   7   1 -16   66.39    5.70
   7  -1 -16   73.49    5.90
   7  -1 -16   58.79    8.90
  -7   1 -16   73.59    9.50
  -7   1 -16   66.89    5.70
  -7  -2 -16   69.09   10.30
   7   2 -16   88.49   10.40
  -7  -2 -16   76.89    5.80
   7   2 -16   78.19    5.90
  -7   2 -16   74.69    6.10
   7  -2 -16   72.09    6.20
   7  -2 -16   68.19    9.10
  -7   2 -16   78.09    9.80
  -7  -3 -16   58.39    5.20
   7   3 -16   52.79    5.40
   7  -3 -16   60.19    5.90
  -7   3 -16   53.79    5.60
   7   4 -16   87.79    6.60
   7  -4 -16   96.39    7.50
   7   5 -16   36.70    4.50
  -7   5 -16   32.50    4.70
   7  -5 -16   37.10    5.40
   7   0 -17   32.70    4.20
  -7   0 -17   30.30    4.00
  -7  -1 -17   50.19    5.30
   7   1 -17   49.10    5.50
  -7   1 -17   51.19    9.20
   7  -1 -17   55.59    5.70
  -7   1 -17   47.80    5.40
  -7  -2 -17   26.00    3.70
   7   2 -17   26.20    4.00
   7   2 -17   41.50    7.60
   7  -2 -17   27.70    4.30
  -7   2 -17   25.20    4.00
  -7   2 -17   17.30    6.70
  -7  -3 -17   44.70    4.50
   7   3 -17   37.40    4.60
   7  -3 -17   51.49    5.30
  -7   3 -17   39.50    4.80
   7   4 -17   17.90    3.90
  -7   4 -17   15.50    4.10
   7  -4 -17   19.00    4.40
   7   0 -18   -4.00    3.10
  -7   0 -18    0.40    2.90
   7   1 -18   47.80    5.10
  -7  -1 -18   48.40    5.00
   7  -1 -18   48.80    5.30
  -7   1 -18   56.49    5.90
  -7  -2 -18   -6.70    2.50
   7   2 -18   -2.60    3.20
   7  -2 -18   -3.30    3.20
  -7   2 -18   -1.80    3.40
  -8   0   0   63.99    7.70
   8   0   0   71.49    7.50
  -8   0   0   61.29    6.90
   8   0   0   57.09    9.00
   8   0   0   54.89    9.10
  -8   0   0   60.09    7.10
   8   0   0   48.20    6.80
  -8   0   0   60.09    8.50
  -8  -1   0   15.30    3.50
   8   1   0   18.90    5.60
   8   1   0    8.40    3.00
  -8  -1   0   11.50    3.20
   8   1   0   18.40    4.10
  -8  -1   0    8.70    3.90
  -8   1   0   18.20    3.60
   8  -1   0   10.30    3.30
   8  -1   0    3.70    3.80
  -8   1   0    6.80    3.10
   8   1   0    9.80    4.10
   8   2   0   12.80    3.70
   8  -2   0   12.60    3.00
   8  -2   0   19.80    5.80
  -8   2   0   15.30    3.20
  -8   2   0   14.80    3.30
   8  -2   0   11.20    4.00
  -8  -2   0   21.90    4.90
  -8  -2   0   16.60    4.00
   8  -2   0   19.80    3.10
  -8  -2   0   18.20    2.90
  -8  -2   0   18.30    3.20
   8   2   0   20.20    3.70
   8   2   0   28.10    6.30
  -8  -3   0   22.30    5.70
  -8   3   0   21.00    3.40
   8   3   0   13.20    3.70
   8   3   0   23.50    6.10
   8   3   0   17.30    2.50
  -8   3   0   11.70    3.10
   8  -3   0   11.70    5.60
  -8  -3   0   18.10    3.20
   8  -3   0   24.50    2.50
  -8  -3   0   12.80    4.40
   8  -3   0   25.00    3.30
   8   3   0   23.30    3.20
  -8  -4   0   26.40    3.20
  -8   4   0   14.50    2.40
   8   4   0   12.00    3.60
   8   4   0   19.40    3.00
  -8   4   0   19.70    3.20
  -8  -4   0   17.80    3.70
   8   4   0    9.50    5.90
   8  -4   0   20.30    2.60
   8  -4   0   17.80    7.50
  -8  -4   0   26.50    6.90
   8  -4   0   21.00    2.70
  -8   4   0   13.50    3.20
  -8   5   0    2.40    2.60
   8   5   0    6.10    5.50
  -8   5   0    9.50    2.90
   8  -5   0    8.10    8.90
  -8  -5   0   11.30    6.60
   8   5   0    4.10    1.80
   8  -5   0    7.40    2.00
   8   5   0    2.40    3.40
  -8   6   0    0.40    2.70
   8  -6   0    3.40    2.20
  -8  -6   0    7.70    7.80
  -8  -6   0   -4.40    2.60
   8  -6   0    0.80   10.50
   8   6   0    4.50    3.70
   8   6   0    1.80    1.80
   8   7   0   13.50    2.60
   8  -7   0   11.00    3.10
   8   7   0   20.90    5.60
  -8  -7   0   18.70   10.20
   8  -7   0   20.10   13.70
  -8   7   0   14.30    4.60
   8   8   0    2.50    2.20
   8  -8   0   -4.60    2.80
  -8  -8   0   -0.90   10.40
   8  -8   0  -14.30   14.10
   8  -9   0  -10.60   17.20
   8  -9   0   -1.90    3.70
  -8  -9   0    9.80   12.60
   8 -10   0    0.20   21.10
  -8 -10   0   -4.10   13.80
  -8   0  -1    5.70    2.80
  -8   0   1   11.20    3.40
  -8   0  -1    2.20    2.80
   8   0   1    5.80    2.60
  -8   0   1    8.40    2.40
   8   0  -1    4.50    2.90
   8   0   1   -2.20    3.90
  -8   0   1    6.80    3.60
  -8   0  -1    3.30    2.50
   8   0   1    5.00    3.70
  -8   0  -1    0.70    3.90
   8  -1   1 1673.53   94.59
   8   1  -1 1423.06   94.29
  -8   1   1 1552.94   94.89
  -8  -1  -1 1535.45   95.09
  -8   1   1 1303.87   94.49
   8  -1  -1 1629.04   94.79
  -8  -1   1 1344.97   94.59
   8  -1  -1 1477.35   95.29
  -8  -1   1 1597.94   95.19
   8   1   1 1270.27   94.69
  -8  -1   1 1704.73   95.89
  -8   1  -1 1454.25   95.39
  -8   1  -1 1503.95   94.09
   8   2  -1   12.20    2.10
   8   2  -1   15.60    3.10
  -8   2   1    5.90    3.10
  -8   2   1   13.00    2.80
   8   2  -1   19.60    4.80
  -8  -2  -1   15.10    5.20
   8   2  -1   12.90    6.00
   8  -2   1   21.00    5.20
  -8  -2  -1   16.50    2.70
  -8  -2  -1   18.90    2.50
  -8  -2  -1   12.00    3.90
  -8  -2  -1   12.20    3.80
  -8  -2   1   13.80    3.60
  -8  -2   1   13.40    3.40
   8  -2  -1   12.00    3.30
   8   2   1   18.10    4.00
  -8  -2   1   13.80    3.80
   8   2   1   14.50    3.00
   8  -2  -1    7.50    4.50
  -8   2  -1   13.10    2.80
  -8  -2   1   10.90    2.30
   8   2   1   11.00    4.40
  -8   2  -1   24.60    4.60
  -8  -2   1   20.80    4.00
  -8  -3  -1 1370.76   88.59
   8  -3   1 1515.75   87.89
   8  -3   1 1385.36   63.79
  -8   3   1 1335.17   88.99
   8   3  -1 1531.85   88.79
   8   3  -1 1544.85   91.49
   8  -3   1 1504.45   90.39
  -8  -3  -1 1247.28   92.69
   8   3  -1 1292.97   64.09
  -8  -3  -1 1535.25   88.29
   8   3   1 1516.55   88.99
  -8  -3   1 1296.07   88.39
  -8   3  -1 1245.48   64.79
  -8   3  -1 1399.56   88.19
   8  -3  -1 1449.65   63.49
   8  -3  -1 1576.14   92.89
   8   3   1 1330.17   90.49
   8   3   1 1257.47   89.19
  -8  -3   1 1307.27   91.59
  -8  -3   1 1515.65   88.19
   8  -3  -1 1470.65   87.89
   8  -3  -1 1481.55   88.69
   8  -4   1    4.40    1.80
   8  -4   1    1.30    4.50
  -8  -4  -1    6.20    5.60
  -8   4   1   -1.00    1.70
   8  -4   1    7.80    5.90
   8   4  -1    1.00    1.60
   8   4  -1   -6.30    4.60
  -8   4   1    1.00    2.50
   8  -4   1    1.60    1.50
  -8  -4  -1    4.50    1.90
   8   4  -1    6.10    4.00
   8  -4  -1   -1.60    7.20
   8   4   1   10.30    4.90
   8   4   1    6.10    2.50
  -8   4  -1    4.50    2.20
   8  -4  -1    2.20    1.40
   8   4   1    2.70    1.70
  -8  -4   1   -3.80    3.80
  -8   4  -1    7.00    3.50
  -8  -4   1    5.80    4.30
  -8  -4   1   -0.80    1.90
  -8  -5  -1  874.61   42.80
  -8  -5  -1  900.71   63.69
  -8   5   1  916.81   57.19
   8   5  -1  828.22   58.49
   8  -5   1  775.92   63.09
  -8   5   1  861.51   57.39
   8   5  -1  955.70   56.99
   8   5  -1 1054.79   60.89
   8  -5   1  932.91   41.60
  -8  -5   1  887.11   61.89
  -8   5  -1  994.20   56.99
   8  -5  -1  933.61   41.40
   8   5   1  755.42   57.69
   8   5   1  973.70   56.89
  -8  -6  -1   -0.40    2.50
   8  -6   1    1.50    2.00
   8   6  -1    1.30    1.90
   8  -6   1   -6.20    8.60
   8   6  -1   14.50    5.60
  -8  -6  -1    4.10    7.90
  -8   6  -1    2.60    4.70
   8  -6  -1   -6.60   11.60
  -8  -6   1    8.40    6.70
   8   6   1    1.90    3.00
   8   6   1    6.00    2.00
   8  -6  -1    2.60    2.20
   8  -7   1  405.46   21.20
  -8  -7  -1  450.35   37.40
   8  -7   1  452.45   39.50
   8   7  -1  429.06   31.90
   8   7  -1  425.66   27.50
   8   7   1  440.36   27.40
   8  -7  -1  404.26   21.20
  -8   7  -1  413.96   31.10
  -8  -7   1  436.46   35.70
  -8  -8  -1    0.90   10.70
   8  -8   1    1.60    3.00
   8  -8   1   -9.30   13.50
   8  -8  -1   -4.20   16.00
  -8  -8   1   -0.50    9.80
   8  -8  -1   -1.10    3.00
  -8  -9  -1  229.08   29.10
   8  -9   1  239.68   35.90
   8  -9   1  190.98   13.60
  -8  -9   1  230.68   27.70
   8  -9  -1  324.67   40.50
  -8 -10  -1   11.60   16.10
   8 -10   1  -10.70   19.20
  -8 -10   1   -5.20   12.80
   8 -10  -1   18.50   22.50
   8   0  -2 1346.87   90.49
   8   0  -2 1266.67   91.29
   8   0   2 1528.55   90.29
  -8   0   2 1258.67   91.29
   8   0   2 1421.76   90.79
  -8   0   2 1524.95   90.19
   8   0  -2 1459.65   57.19
   8   0  -2 1560.34   90.99
  -8   0  -2 1275.07   89.89
  -8   0   2 1664.73   91.49
   8   0   2 1436.36   90.69
  -8  -1  -2    0.20    2.70
   8   1  -2    1.30    1.10
   8   1  -2   -1.30    3.90
   8  -1   2    0.20    2.90
   8   1  -2    0.90    2.10
  -8  -1  -2    3.20    3.20
  -8   1   2   -0.80    1.40
  -8   1   2   -1.10    2.80
  -8   1   2    2.30    3.20
  -8   1   2    3.30    2.80
  -8  -1  -2    1.70    3.00
   8   1  -2   -3.50    2.30
  -8  -1  -2    0.80    1.40
   8  -1   2   -1.00    2.10
  -8  -1  -2    0.50    1.90
   8  -1   2    1.30    2.40
  -8  -1   2   -1.60    2.10
  -8   1  -2    2.50    2.00
   8   1   2    0.20    1.70
  -8  -1   2    1.00    1.70
   8  -1  -2   -0.50    1.60
  -8  -1   2    1.50    2.00
  -8  -1   2   -2.10    2.00
   8   1   2    1.40    2.90
   8  -1  -2   -2.50    3.30
   8  -1  -2    5.50    3.90
  -8   1  -2    2.00    1.90
   8   1   2   -3.60    4.10
  -8   1  -2    0.10    1.40
  -8   1  -2   -1.00    3.20
  -8  -1   2   -1.20    2.70
   8  -2   2 3412.26  205.28
  -8   2   2 2918.11  203.88
  -8   2   2 3584.84  204.18
  -8  -2  -2 3279.37  202.68
   8  -2   2 2920.21  202.28
   8   2  -2 3344.17  146.49
   8   2  -2 3063.79  204.08
  -8  -2  -2 3204.98  203.78
  -8  -2  -2 3388.46  203.38
  -8  -2  -2 2979.90  149.19
   8   2  -2 2942.11  128.19
   8   2  -2 3643.84  204.28
  -8   2  -2 3439.76  202.58
  -8   2  -2 3292.37  148.69
   8   2   2 3173.98  204.18
   8  -2  -2 3456.05  145.69
  -8  -2   2 3429.66  203.98
  -8  -2   2 3309.07  207.48
   8  -2  -2 3434.16  202.88
   8  -3   2   -3.10    3.50
   8   3  -2    2.50    1.20
   8   3  -2    4.40    3.70
   8  -3   2    2.40    1.90
  -8   3   2    1.60    2.60
  -8  -3  -2   -1.80    5.40
   8   3  -2    1.60    1.60
  -8  -3  -2    0.10    2.10
  -8   3   2    1.00    1.40
   8   3  -2   -1.00    4.10
  -8  -3  -2   -3.80    2.50
  -8  -3  -2    1.70    1.80
  -8   3  -2    0.60    1.40
   8  -3  -2    2.50    1.00
  -8   3  -2   -2.90    3.00
  -8  -3   2    1.80    3.00
  -8  -3   2    1.70    2.20
   8  -3  -2   -0.40    2.00
  -8  -3   2    0.30    1.20
  -8   3  -2    3.30    2.00
   8  -3  -2   15.20    7.40
  -8  -3   2   -0.80    2.50
   8   3   2    5.00    1.90
   8   3   2   -1.30    2.10
   8   3   2   -1.20    3.60
  -8  -3   2    1.80    2.20
   8  -3  -2    4.40    1.90
   8  -4   2 1161.18   69.09
  -8   4   2 1129.99   69.69
  -8  -4  -2 1018.30   75.59
   8   4  -2  971.00   72.69
   8  -4   2 1014.90   71.19
   8  -4   2 1095.89   50.49
  -8  -4  -2 1100.29   51.79
   8   4  -2 1091.69   70.99
   8   4  -2 1135.19   69.69
  -8  -4   2 1192.48   69.19
   8   4   2 1102.29   69.89
  -8   4  -2 1121.19   69.39
  -8  -4   2 1081.89   73.09
  -8   4  -2 1057.79   72.39
   8   4   2 1193.98   69.89
   8  -4  -2 1141.39   50.09
  -8  -4   2 1244.58   71.59
  -8   4  -2 1080.69   50.49
  -8  -5  -2    2.80    2.20
   8   5  -2    0.10    3.80
  -8  -5  -2    2.00    7.20
  -8   5   2    0.50    2.70
   8  -5   2   -2.60    6.70
   8   5  -2    3.00    1.80
   8   5  -2    2.00    4.70
   8  -5   2    2.20    1.90
   8   5   2    7.90    2.40
  -8  -5   2   -0.30    4.20
   8   5   2   -1.40    1.70
   8   5   2   12.70    5.10
   8  -5  -2    1.90    1.70
  -8  -5   2    8.00    5.20
  -8   5  -2    1.70    2.30
   8  -5  -2    8.30   11.30
  -8  -5   2    2.10    1.80
  -8  -6  -2 1068.19   73.49
   8  -6   2  889.61   71.99
   8   6  -2 1063.19   64.29
   8  -6   2 1021.40   47.20
  -8  -6  -2 1036.30   47.50
   8   6   2  946.91   64.69
  -8  -6   2 1058.89   70.09
   8  -6  -2 1071.19   47.10
   8   7  -2   -1.20    5.30
   8  -7   2   -7.20    9.90
   8   7  -2    1.50    2.10
  -8  -7  -2   -3.90    9.10
   8  -7   2   -0.90    2.40
   8  -7  -2   -4.20   14.90
  -8   7  -2   -8.90    4.40
  -8  -7   2   -0.10    7.10
   8  -7  -2   -1.80    2.60
   8  -8   2  243.78   31.00
  -8  -8  -2  291.77   30.30
   8  -8   2  244.48   13.90
  -8  -8   2  277.27   26.00
  -8   8  -2  198.78   19.00
   8  -9   2   -1.80   15.80
  -8  -9  -2    1.40   14.10
  -8  -9   2   10.70   11.40
   8  -9  -2   -3.00   18.50
  -8 -10  -2  195.68   30.80
   8 -10   2  203.88   36.80
  -8 -10   2  197.38   27.50
   8   0  -3   17.40    2.10
   8   0  -3    9.80    3.90
   8   0   3   13.00    3.80
   8   0   3   19.20    3.20
  -8   0   3   14.20    4.00
  -8   0   3   11.70    4.00
  -8   0   3   18.90    3.30
  -8   0  -3   19.70    2.80
   8   0   3   18.50    3.40
  -8   0  -3   13.00    3.20
  -8   0  -3   20.70    3.20
  -8   0  -3   19.60    3.30
   8   0  -3   17.10    2.10
   8   0  -3   16.80    3.10
   8   0  -3   11.30    3.80
   8   0  -3   14.50    4.00
   8  -1   3   21.90    3.90
  -8  -1  -3   19.80    2.90
   8   1  -3   22.70    2.40
   8  -1   3   13.20    3.10
   8   1  -3   22.20    3.80
  -8  -1  -3   28.60    5.10
  -8  -1  -3   20.50    2.80
  -8   1   3   19.40    3.10
  -8  -1  -3   12.70    3.70
   8  -1   3   22.80    3.90
   8   1  -3   19.80    3.60
  -8   1   3   29.60    5.80
  -8  -1  -3   28.90    3.90
   8   1  -3   16.60    4.30
  -8   1   3    9.10    4.30
  -8  -1   3   16.20    3.70
   8  -1  -3   18.90    2.90
  -8  -1   3   20.40    3.70
  -8  -1   3   23.40    3.60
  -8  -1   3   17.30    3.40
  -8  -1   3   25.40    4.00
  -8   1  -3   27.60    3.00
  -8   1  -3   19.80    3.50
   8  -1  -3   27.40    4.00
   8   1   3   21.70    3.10
  -8   1  -3   22.10    3.60
  -8   1  -3   13.30    2.90
   8  -1  -3   16.30    2.50
   8   1   3   25.20    4.40
   8  -1  -3   14.60    4.00
  -8   2   3   13.20    2.10
  -8  -2  -3   13.70    2.50
   8  -2   3   13.50    3.50
   8   2  -3    5.00    4.00
   8  -2   3    5.20    2.80
   8   2  -3    6.50    3.50
  -8  -2  -3   11.90    2.60
   8   2  -3   10.50    1.70
  -8  -2  -3    9.80    1.80
  -8   2   3    3.90    2.60
   8  -2   3    9.90    2.40
   8   2  -3    9.80    1.50
   8   2  -3    9.30    2.30
  -8   2   3   14.10    4.30
  -8  -2  -3   10.20    2.30
  -8  -2  -3   12.50    4.20
  -8  -2   3    8.80    3.00
   8  -2  -3    5.80    2.50
   8   2   3    5.70    3.80
  -8  -2   3    5.00    2.40
   8  -2  -3    4.80    2.50
  -8   2  -3   12.10    2.60
  -8  -2   3   13.80    3.20
   8   2   3   12.10    2.20
  -8  -2   3   11.80    2.40
  -8   2  -3   11.00    3.10
   8   2   3   11.90    3.10
   8  -2  -3    3.60    4.40
  -8  -2   3    8.60    2.90
  -8   2  -3    9.00    1.90
  -8   3   3   12.70    2.00
   8   3  -3    9.40    4.30
   8  -3   3   16.70    3.50
   8   3  -3   10.90    4.20
  -8  -3  -3   12.00    2.10
   8   3  -3   13.50    1.60
   8   3  -3   11.20    1.90
   8   3  -3   11.40    2.30
  -8  -3  -3    6.60    3.40
   8  -3   3   10.10    3.90
  -8   3   3   16.80    4.30
  -8  -3  -3   11.80    2.50
   8  -3   3   10.50    1.90
  -8  -3   3    8.30    2.60
  -8  -3   3   17.80    3.80
   8   3   3   17.20    2.70
   8  -3  -3   10.00    2.60
   8   3   3    7.80    3.20
  -8   3  -3   16.50    2.80
  -8   3  -3    8.90    3.50
   8  -3  -3   13.60    1.80
  -8  -3   3   11.20    3.80
  -8  -3   3    9.30    2.00
   8   3   3   10.70    3.70
  -8   3  -3   10.80    1.80
   8   4  -3   13.40    1.60
   8   4  -3   10.60    4.40
   8  -4   3   11.00    2.20
  -8   4   3   15.60    4.10
  -8   4   3   11.90    1.90
   8   4  -3   11.80    2.40
  -8  -4  -3    9.80    2.60
   8   4  -3    1.00    4.50
   8  -4   3    2.90    4.20
   8  -4   3   22.20    3.60
  -8   4  -3   12.30    1.70
  -8  -4   3    5.30    3.70
  -8  -4   3   11.00    2.90
   8   4   3   12.70    2.30
  -8   4  -3   10.60    3.90
   8  -4  -3   10.80    1.80
   8   4   3    8.70    4.50
  -8   4  -3   11.80    2.70
   8   4   3    9.60    2.90
  -8  -4   3   17.40    5.00
   8  -4  -3   30.50   10.60
  -8  -5  -3   -1.00    8.50
   8  -5   3    4.90    2.10
  -8  -5  -3    3.10    2.00
   8  -5   3   -0.60    7.10
   8  -5   3    6.80    5.00
   8   5  -3    5.30    1.30
   8   5  -3    3.90    1.90
   8   5  -3    0.40    4.70
   8  -5   3    6.70    2.10
   8  -5  -3    3.50    1.90
  -8   5  -3   -1.90    3.50
  -8  -5   3    3.80    2.20
   8   5   3    8.70    2.10
  -8  -5   3   11.60    4.30
   8   5   3    2.50    2.00
  -8  -5   3    7.30    5.00
   8  -5  -3    6.60   11.70
  -8  -6  -3    7.00    2.30
   8   6  -3    0.00    5.00
   8   6  -3    4.70    2.20
   8  -6   3    6.00    2.40
  -8  -6  -3    4.20   10.10
   8  -6   3    3.40    8.70
  -8   6  -3    0.80    4.40
   8  -6  -3    7.10    2.60
   8  -6  -3   17.30   14.90
   8   6   3    0.90    2.10
   8   6   3    7.80    2.50
  -8  -6   3    8.10    6.10
   8   7  -3    0.60    5.10
   8  -7   3   -0.60    2.40
   8  -7   3    1.70   10.20
  -8  -7  -3   -0.70   11.30
  -8  -7   3    2.00    7.00
   8  -7  -3    0.20    2.80
  -8   7  -3   -3.40    3.90
   8  -7  -3   14.20   15.80
   8  -8   3    1.80    3.10
  -8  -8  -3   -4.20   13.00
   8  -8   3   -0.50   12.20
   8  -8  -3   -2.00   18.20
  -8  -8   3    8.50    9.20
   8  -9   3   -7.70   14.30
  -8  -9  -3   -4.40   15.20
  -8  -9   3    2.40   10.10
   8  -9  -3   23.80   21.40
  -8 -10  -3   17.00   19.00
   8 -10   3    1.50   18.50
  -8 -10   3   -0.80   12.30
   8 -10  -3   -4.40   22.50
   8   0  -4 3298.17  197.48
   8   0  -4 2986.10  197.58
  -8   0   4 2853.21  199.78
  -8   0  -4 3305.77  197.38
  -8   0  -4 3366.76  144.79
   8   0  -4 3190.88  124.99
   8   0   4 2975.60  198.78
  -8   0  -4 2931.31  197.48
  -8   0   4 3579.44  198.28
   8   0  -4 3110.29  198.88
  -8   0   4 2945.61  197.18
  -8   0  -4 3323.07  198.78
   8   0   4 3432.86  197.88
   8   0  -4 3323.27  141.79
   8   0   4 3202.98  197.28
  -8   1   4    0.70    3.30
   8   1  -4    2.70    2.20
   8   1  -4    3.60    2.30
   8  -1   4    5.30    2.20
   8   1  -4    5.10    3.10
   8  -1   4    6.50    2.40
   8   1  -4    7.40    1.20
  -8  -1  -4    6.20    1.90
  -8  -1  -4   10.10    3.50
  -8  -1  -4    7.20    2.10
  -8   1   4    6.40    1.80
   8   1  -4    7.30    1.40
   8   1  -4    3.90    2.60
  -8  -1  -4    1.70    2.60
  -8   1   4    2.80    3.20
  -8  -1  -4    7.30    1.60
   8  -1   4    9.20    2.70
  -8  -1   4    4.60    2.10
   8  -1  -4    3.50    1.60
   8  -1  -4    6.40    1.70
   8   1   4    6.50    1.90
  -8   1  -4    5.20    1.70
  -8   1  -4    7.30    2.30
   8   1   4    7.00    2.30
  -8  -1   4    4.80    2.80
   8  -1  -4    4.20    2.50
  -8  -1   4    4.70    2.40
  -8   1  -4    8.10    2.40
  -8   1  -4    6.20    2.10
  -8  -1   4    5.80    2.40
   8  -1  -4    1.80    1.90
  -8  -2  -4 1258.67   82.49
   8  -2   4 1429.36   82.89
  -8  -2  -4 1479.25   84.59
  -8  -2  -4 1326.87   61.09
   8   2  -4 1098.79   84.29
  -8  -2  -4 1340.07   82.49
  -8   2   4 1361.46   83.09
   8   2  -4 1392.76   83.49
   8  -2   4 1261.57   83.19
   8   2  -4 1405.86   59.89
   8   2  -4 1306.47   52.39
  -8   2  -4 1305.47   82.69
   8  -2  -4 1166.18   53.19
  -8  -2   4 1330.27   85.09
  -8  -2   4 1351.46   83.49
   8  -2  -4 1486.45   85.39
  -8   2  -4 1361.56   84.29
  -8   2  -4 1326.37   60.59
  -8  -2   4 1360.36   82.99
   8  -2  -4 1312.27   82.39
   8   2   4 1305.77   83.09
   8   2   4 1281.77   82.89
  -8  -2   4 1246.98   83.19
   8  -3   4    9.10    2.00
   8   3  -4    7.70    1.30
  -8   3   4    1.80    4.10
  -8   3   4    9.10    1.70
   8  -3   4    4.90    2.80
   8  -3   4   12.00    3.60
  -8  -3  -4    2.90    3.60
   8   3  -4    8.40    2.20
  -8  -3  -4    7.40    2.10
   8   3  -4    3.90    3.50
   8   3  -4    9.70    1.80
   8   3  -4    5.00    3.60
  -8  -3  -4   10.90    1.90
   8  -3  -4    5.60    2.70
   8   3   4    8.00    1.80
   8   3   4    7.60    2.80
  -8  -3   4    6.70    2.70
  -8   3  -4   10.90    2.50
   8  -3  -4    6.10    1.90
   8   3   4    2.90    3.50
  -8   3  -4    9.10    1.70
  -8  -3   4    7.40    2.00
  -8   3  -4    7.00    2.80
  -8  -3   4   11.30    3.60
  -8  -3   4    5.60    2.80
  -8  -3   4    9.90    3.00
   8  -3  -4    2.50    2.80
   8   4  -4 1815.62  110.29
  -8   4   4 1795.72  109.79
   8   4  -4 1824.12   69.29
   8  -4   4 1733.53   79.79
   8   4  -4 1553.14  112.59
   8   4  -4 1878.21  110.49
   8  -4   4 1845.72  109.39
  -8   4   4 2034.60  111.99
  -8  -4  -4 1755.32   80.69
  -8  -4   4 1713.43   79.39
   8   4   4 1589.14  110.09
  -8  -4   4 1472.45  110.39
   8   4   4 1637.14  111.09
  -8  -4   4 1869.61  109.59
   8   4   4 1741.33  109.89
  -8   4  -4 1808.02  109.59
  -8  -4   4 1807.42  114.09
  -8   4  -4 1738.53  111.89
   8  -4  -4 1869.71   79.19
   8  -5   4    3.90    2.20
   8  -5   4   -0.70    1.90
   8   5  -4    1.90    1.20
   8  -5   4   -7.10    6.50
   8   5  -4    1.20    4.50
  -8  -5  -4    0.30    1.90
   8  -5   4    0.50    4.30
   8   5  -4    1.90    1.90
   8  -5  -4    4.90   12.20
  -8  -5   4    6.10    4.80
   8  -5  -4    0.40    2.00
  -8  -5   4   -4.50    3.80
  -8  -5   4   -1.50    2.20
   8   5   4    3.40    1.70
   8   5   4   -2.30    2.20
  -8   5  -4   -1.70    3.00
   8   6  -4  454.75   30.60
   8   6  -4  409.06   33.70
   8  -6   4  516.55   30.30
  -8  -6  -4  478.35   22.80
   8  -6   4  438.66   23.00
  -8   6  -4  449.76   32.50
   8   6   4  484.55   30.60
  -8  -6   4  547.65   33.10
   8  -6  -4  481.35   23.40
  -8  -6   4  464.45   35.40
   8  -7   4    3.80    2.80
   8  -7   4   -1.00    9.30
   8   7  -4    2.90    5.20
   8  -7  -4   -1.00   16.30
  -8  -7   4    9.90    7.30
   8  -8   4  368.66   19.90
   8  -8   4  339.57   36.90
  -8  -8   4  418.66   33.10
   8  -9   4   -0.40   14.20
  -8  -9   4    1.40    9.60
   8  -9  -4   -3.10   21.10
   8 -10   4   64.99   22.80
  -8 -10   4   89.19   18.70
  -8   0  -5   -0.80    1.40
   8   0  -5   -0.40    2.50
  -8   0   5    1.00    1.30
   8   0   5    0.10    2.40
   8   0   5    2.30    1.50
   8   0   5    0.90    1.60
   8   0  -5    0.40    2.30
  -8   0   5   -0.80    2.40
   8   0  -5    1.10    1.80
   8   0  -5    0.60    2.50
  -8   0   5   -1.50    2.40
  -8   0  -5    2.00    2.30
   8   0   5    1.80    2.20
   8   0  -5    1.00    1.10
  -8   0  -5    0.30    1.30
  -8   0  -5    1.30    2.10
  -8   1   5 1374.56   84.79
   8   1  -5 1350.86   52.99
  -8  -1  -5 1360.36   83.79
  -8   1   5 1405.86   84.19
   8   1  -5 1201.58   84.59
   8   1  -5 1383.66   84.79
   8  -1   5 1252.27   84.49
   8  -1   5 1438.16   83.89
  -8  -1  -5 1325.17   61.59
   8   1  -5 1371.36   83.79
   8  -1   5 1267.07   83.69
  -8  -1  -5 1459.75   85.89
   8   1  -5 1326.57   83.89
   8  -1   5 1263.37   61.19
   8   1  -5 1407.36   60.09
  -8   1  -5 1323.37   61.39
   8   1   5 1247.38   61.39
  -8   1  -5 1404.86   83.89
   8   1   5 1277.37   83.59
  -8   1  -5 1333.87   84.49
  -8  -1   5 1417.46   84.09
  -8  -1   5 1409.06   84.79
  -8   1  -5 1281.77   83.69
  -8  -1   5 1351.96   84.79
  -8  -1   5 1351.76   83.89
   8   1   5 1297.47   83.99
   8  -1  -5 1332.37   83.49
   8  -1  -5 1334.17   83.79
   8  -1  -5 1289.17   53.29
   8   2  -5   -0.80    2.80
  -8   2   5   -0.90    3.00
   8   2  -5    1.20    1.10
  -8  -2  -5   -0.90    1.50
   8   2  -5    0.90    1.70
   8  -2   5    1.40    2.10
   8  -2   5    4.20    1.60
   8  -2   5    2.70    2.50
  -8   2   5    5.40    3.30
   8   2  -5    0.20    2.30
  -8  -2  -5    1.80    1.60
  -8  -2  -5   -0.30    3.10
   8   2  -5    0.90    1.20
  -8   2   5    3.30    1.40
  -8  -2   5   -1.10    1.70
   8   2   5    1.40    2.20
  -8  -2   5   -1.90    2.30
   8   2   5    2.90    1.50
  -8  -2   5   -0.10    1.10
  -8   2  -5   -0.10    1.40
   8  -2  -5    0.60    1.60
   8  -2  -5    3.50    4.00
  -8  -2   5   -1.60    2.10
  -8   2  -5   -0.80    0.80
  -8   2  -5    1.10    2.10
   8  -2  -5   -0.30    1.90
  -8  -2   5   -1.10    1.80
  -8  -3  -5 1050.29   63.39
   8   3  -5 1063.19   64.49
   8   3  -5  980.60   65.89
  -8  -3  -5 1050.29   47.30
  -8   3   5  875.91   65.49
   8  -3   5 1067.69   64.39
   8  -3   5 1014.10   64.59
  -8   3   5 1066.19   63.99
  -8   3   5  895.41   65.49
   8   3  -5 1047.70   40.50
   8   3  -5 1007.00   64.59
   8  -3   5 1062.69   63.99
  -8  -3   5 1065.69   66.79
   8  -3  -5 1049.20   63.29
   8   3   5 1001.90   63.99
  -8  -3   5  985.90   64.69
  -8  -3   5  974.20   46.20
  -8   3  -5 1107.69   65.49
  -8  -3   5 1045.00   64.39
   8  -3  -5  910.51   41.70
  -8   3  -5 1019.10   63.99
   8   3   5  995.50   64.09
  -8  -3   5 1095.49   64.19
   8  -4   5    4.60    3.70
   8   4  -5    0.90    1.80
  -8   4   5    1.00    1.20
   8  -4   5    1.30    2.20
   8   4  -5   -1.20    3.20
   8   4  -5   -0.30    3.40
   8   4  -5    1.30    1.20
  -8   4   5    0.30    4.00
  -8  -4  -5    2.10    1.80
   8  -4   5    0.70    1.80
  -8  -4   5    1.00    3.70
  -8   4  -5    1.50    2.60
   8   4   5    1.20    3.10
  -8   4  -5    0.60    2.40
  -8  -4   5   -1.10    2.40
  -8  -4   5   -0.50    3.00
  -8  -4   5    1.40    1.70
  -8  -4   5    3.80    2.90
  -8  -4   5    1.40    1.60
   8   4   5    1.40    1.70
  -8  -5  -5  649.04   29.50
   8   5  -5  636.44   40.00
   8  -5   5  533.15   41.00
   8   5  -5  581.84   42.40
   8  -5   5  594.04   29.60
   8   5  -5  660.43   25.10
   8  -5   5  675.03   39.70
  -8   5  -5  648.74   41.50
  -8  -5   5  656.43   43.90
  -8  -5   5  621.34   29.30
   8   5   5  615.64   39.40
   8   5   5  568.34   40.70
  -8  -5   5  652.63   39.80
   8   6  -5   -0.90    1.30
   8  -6   5   -0.80    2.10
   8  -6   5   -6.80    4.60
   8  -6   5   -2.20    7.80
   8   6  -5   -2.60    4.20
  -8  -6  -5    0.60    2.00
  -8  -6   5   -0.30    2.20
   8   6   5   -0.50    1.80
  -8  -6   5    1.30    5.60
  -8  -6   5   -1.60    2.50
   8   7  -5  316.77   24.70
   8  -7   5  299.47   17.00
  -8  -7   5  361.26   28.00
   8  -8   5   -3.00   11.50
  -8  -8   5   -0.20    8.40
   8  -9   5  116.29   24.30
  -8  -9   5  169.78   21.30
   8 -10   5   -6.10   15.80
  -8 -10   5   -3.50   11.20
  -8   0   6    3.10    1.60
  -8   0  -6    2.40    1.60
   8   0  -6    0.40    2.30
  -8   0  -6    2.80    1.90
  -8   0   6    0.70    2.60
   8   0  -6    3.60    1.30
  -8   0  -6    5.60    2.60
   8   0  -6    1.80    2.70
   8   0  -6    2.50    2.60
  -8   0  -6    5.80    1.70
   8   0   6    3.50    2.30
   8   0   6    3.00    1.80
   8   0   6    2.30    1.60
   8   0  -6    2.60    2.00
   8  -1   6   11.80    2.80
   8   1  -6   11.40    1.40
  -8  -1  -6   13.10    3.40
   8   1  -6   10.50    2.80
   8   1  -6   11.50    2.70
  -8   1   6   10.20    3.40
  -8  -1  -6   10.20    3.50
   8  -1   6   10.60    1.90
   8  -1   6   11.70    2.80
  -8   1   6   10.70    2.10
  -8  -1  -6   11.40    2.20
   8   1  -6    9.80    3.20
   8   1  -6   10.80    2.80
  -8   1   6    7.10    3.40
  -8  -1  -6   13.70    2.40
   8   1  -6   10.60    1.60
   8  -1   6   11.90    2.70
   8   1   6   11.90    2.60
  -8  -1   6    8.30    3.00
   8   1   6   10.30    2.20
   8  -1  -6   11.30    1.80
  -8   1  -6   12.70    2.90
  -8   1  -6   12.60    2.10
  -8   1  -6   12.10    2.70
   8  -1  -6    8.50    2.70
  -8   1  -6   11.10    2.30
  -8  -1   6   12.00    2.80
  -8  -1   6    9.80    2.40
   8   1   6   10.20    2.00
  -8  -1   6    7.40    2.70
   8   2  -6    6.80    1.50
  -8  -2  -6    7.00    1.90
   8  -2   6    5.50    1.70
  -8  -2  -6    6.50    2.00
   8   2  -6    9.00    2.30
   8   2  -6    3.60    3.00
  -8   2   6    2.30    3.30
  -8   2   6    5.20    1.60
  -8  -2  -6    0.60    3.00
   8  -2   6    8.50    2.60
  -8   2   6    4.50    3.50
   8   2  -6    2.30    2.50
   8  -2   6   12.40    3.10
   8   2  -6    6.60    1.40
   8  -2  -6    6.60    1.80
   8   2   6    8.30    2.10
  -8  -2   6    3.60    2.30
  -8   2  -6    5.40    2.10
   8  -2  -6    3.90    2.30
  -8  -2   6   10.20    2.90
  -8   2  -6    6.00    1.80
   8  -2  -6    4.10    4.00
  -8  -2   6    3.70    1.20
  -8  -2   6    2.60    2.70
   8   2   6    7.70    1.90
  -8  -2   6    4.80    2.30
   8   2   6    5.70    2.30
   8  -3   6    4.10    2.80
   8  -3   6    7.90    1.90
  -8   3   6   14.30    4.30
   8   3  -6    3.90    3.40
  -8  -3  -6    5.80    1.80
  -8   3   6    7.60    4.10
   8  -3   6    8.40    2.80
   8  -3   6    5.90    2.20
  -8  -3  -6    4.00    2.00
   8   3  -6    3.10    1.40
  -8   3   6    6.60    1.60
   8   3  -6    2.00    3.00
  -8  -3  -6   16.00    4.50
   8   3  -6    7.50    1.50
   8  -3   6   10.10    3.40
   8  -3  -6   -1.40    4.20
  -8   3  -6    8.40    2.70
  -8  -3   6    1.80    2.70
  -8  -3   6    6.60    3.50
   8   3   6    5.70    1.80
  -8  -3   6    6.40    2.40
  -8  -3   6    4.80    2.90
  -8   3  -6    9.10    2.70
  -8  -3   6    4.10    2.60
  -8  -3   6    4.50    1.60
   8  -3  -6    4.80    2.20
   8   3   6    6.90    2.60
   8  -4   6   -0.10    1.80
   8   4  -6    1.60    1.30
   8  -4   6    3.60    3.40
   8   4  -6    0.50    1.90
   8  -4   6    3.30    2.90
   8   4  -6   -2.70    3.10
  -8  -4  -6    0.70    1.80
   8   4  -6   -2.60    3.10
   8  -4   6    2.70    2.20
  -8   4   6    0.60    1.20
  -8   4   6    2.90    2.90
   8  -4   6    2.20    1.80
  -8   4  -6   -0.30    2.40
   8  -4  -6    3.00    2.80
  -8  -4   6   -2.10    1.70
  -8  -4   6   -1.30    2.60
   8   4   6    1.20    1.60
  -8   4  -6   -0.20    2.50
  -8  -4   6    0.70    3.80
  -8  -4   6    0.90    1.60
   8  -5   6   16.80    5.10
   8   5  -6    7.70    4.40
   8  -5   6    7.50    2.50
   8   5  -6   10.30    1.70
  -8  -5  -6    9.20    2.30
  -8   5   6   10.00    1.80
  -8   5  -6   11.00    3.50
  -8  -5   6   12.50    5.70
  -8  -5   6    9.80    2.40
   8   5   6    8.20    2.10
   8   5   6   -1.90    3.90
  -8  -5   6    6.60    3.20
   8   6  -6   -2.10    1.40
   8  -6   6    0.30    8.20
  -8  -6  -6    3.70    2.20
   8  -6   6   -0.60    2.30
   8  -6   6    1.60    4.80
   8   6  -6   -1.80    4.00
  -8  -6   6   -0.40    2.20
  -8  -6   6   -1.90    2.80
   8   6   6   -5.50    3.30
  -8  -6   6    4.50    6.20
   8   6   6   -0.50    1.80
   8  -7   6   -0.60   10.10
   8  -7   6   -0.10    2.80
  -8  -7   6    2.00    7.20
  -8  -7   6    5.20    3.00
   8  -8   6    4.80   11.90
  -8  -8   6    4.10    8.50
   8  -9   6    4.50   14.20
  -8  -9   6    7.00   10.20
   8   0  -7   22.60    3.40
   8   0  -7   18.30    4.00
   8   0  -7   24.30    2.60
   8   0   7   21.50    3.50
   8   0   7   26.00    4.10
   8   0  -7   18.90    3.70
  -8   0  -7   21.50    2.80
   8   0   7   21.50    2.60
  -8   0  -7   24.70    3.40
  -8   0  -7   28.80    4.50
  -8   0  -7   28.10    4.10
  -8   0   7   19.10    4.00
   8   0  -7   18.30    3.60
  -8   0   7   23.60    4.00
  -8   0   7   23.30    3.40
  -8  -1  -7  945.11   43.50
  -8  -1  -7  844.42   59.49
   8   1  -7  976.60   42.40
   8   1  -7  935.01   59.99
   8   1  -7  978.50   59.29
   8  -1   7  880.01   43.20
   8   1  -7  940.11   59.19
  -8   1   7 1012.00   59.79
   8   1  -7  920.51   59.79
   8   1  -7  936.61   37.50
  -8   1   7  876.91   59.19
  -8   1   7  908.21   60.89
  -8  -1  -7  936.41   58.99
   8  -1   7  915.61   59.59
   8  -1   7  919.51   59.09
   8  -1  -7  940.41   58.89
   8  -1  -7  942.41   37.70
  -8  -1   7  928.31   42.10
   8   1   7  934.51   59.29
  -8  -1   7  949.01   60.09
   8   1   7  907.01   58.89
  -8  -1   7  991.70   59.89
  -8   1  -7  931.11   59.19
   8   1   7  920.81   43.40
  -8  -1   7  963.00   59.49
  -8   1  -7 1003.40   59.29
  -8   1  -7  978.30   59.59
  -8  -2  -7    4.20    3.40
   8  -2   7   13.90    3.30
   8   2  -7   10.90    1.70
   8  -2   7   13.70    2.10
   8  -2   7   13.30    3.00
  -8  -2  -7   15.90    2.40
   8   2  -7   15.40    2.90
  -8   2   7    6.70    3.80
   8   2  -7   12.10    3.70
   8   2  -7   13.50    1.90
  -8   2   7   12.30    2.10
  -8  -2  -7   14.30    2.40
  -8   2   7   13.40    3.80
   8  -2   7   12.20    3.30
   8   2  -7   11.50    3.20
   8   2   7    9.90    2.70
  -8  -2   7   10.00    2.90
  -8   2  -7   16.00    2.90
  -8  -2   7   11.70    1.60
  -8   2  -7   15.60    3.10
   8  -2  -7    9.30    2.00
   8   2   7   11.50    2.30
  -8  -2   7   12.30    3.10
   8   2   7   12.00    2.30
   8  -2  -7   10.40    2.70
  -8  -2   7   15.40    3.20
  -8  -2   7   10.20    3.20
   8  -2  -7    4.40    4.30
   8  -3   7  791.82   51.19
   8   3  -7  749.13   52.09
  -8  -3  -7  933.11   52.69
  -8   3   7  805.52   50.69
   8  -3   7  701.93   51.69
  -8  -3  -7  822.32   37.50
   8   3  -7  812.22   51.19
   8   3  -7  798.62   51.29
   8   3  -7  820.72   32.20
   8  -3   7  847.62   51.39
   8  -3   7  767.82   37.20
   8  -3   7  840.72   50.99
  -8  -3  -7  801.42   50.09
  -8   3   7  803.12   51.59
  -8  -3   7  832.22   51.09
  -8  -3   7  725.83   51.99
   8  -3  -7  778.02   33.10
  -8   3  -7  781.32   50.79
  -8  -3   7  800.72   51.29
   8   3   7  810.12   37.70
   8  -3  -7  902.81   53.19
   8   3   7  788.22   50.69
  -8  -3   7  775.02   36.60
   8   3   7  766.62   50.59
  -8  -3   7  808.62   51.39
  -8  -4  -7   13.60    2.50
   8  -4   7   11.20    2.60
  -8   4   7   11.50    2.00
   8   4  -7   10.90    1.80
   8  -4   7   10.40    2.20
   8   4  -7    8.30    4.10
   8   4  -7    5.20    3.80
  -8   4   7   22.90    5.00
   8  -4   7   14.80    4.30
   8  -4   7    3.40    3.30
   8  -4  -7    7.50    3.00
   8   4   7    9.00    2.20
  -8  -4   7   10.60    2.10
  -8   4  -7   10.90    3.30
  -8  -4   7   27.60    6.00
  -8  -4   7    9.00    3.60
  -8  -4   7    5.10    2.60
  -8   4  -7   10.10    3.10
  -8   5   7  348.27   27.70
   8  -5   7  422.26   27.90
  -8   5   7  416.26   25.90
   8  -5   7  398.76   20.30
   8   5  -7  405.96   28.60
   8   5  -7  431.16   16.90
   8  -5  -7  331.27   19.00
   8   5   7  410.96   26.10
  -8  -5   7  427.46   27.00
  -8  -5   7  408.36   19.60
  -8  -5   7  434.96   30.80
   8  -6   7    4.80    2.70
   8  -6   7    1.10    4.70
   8   6  -7    2.70    1.70
  -8  -6   7   -0.20    3.20
  -8  -6   7    5.20    2.50
   8   6   7    1.30    4.50
  -8  -6   7    4.00    6.10
   8  -7   7  261.47   15.20
  -8  -7   7  266.67   14.70
  -8  -7   7  312.37   25.60
  -8  -7   7  267.07   18.90
   8  -8   7   -9.80   11.10
  -8  -8   7    8.80    9.10
   8  -9   7   15.40   14.60
  -8  -9   7   97.89   17.20
  -8   0   8 1670.53   99.29
   8   0   8 1558.14   72.49
   8   0   8 1544.55   98.79
  -8   0  -8 1638.24   98.89
  -8   0  -8 1642.34   99.49
   8   0  -8 1577.44   98.89
   8   0  -8 1397.16  100.29
  -8   0   8 1623.34  100.49
   8   0  -8 1647.34   99.19
   8   0  -8 1598.84   62.69
  -8   0   8 1600.84   99.69
   8   0   8 1534.75   99.49
  -8   0  -8 1563.84   99.09
   8   1  -8    9.10    3.30
   8   1  -8   10.70    2.80
  -8  -1  -8    1.10    2.90
  -8   1   8    6.70    1.90
   8  -1   8    6.00    1.80
   8  -1   8    6.60    2.50
   8  -1   8    5.50    2.80
  -8  -1  -8    9.90    3.30
  -8   1   8    4.80    3.10
  -8  -1  -8    7.30    1.80
  -8   1   8    7.50    3.10
   8   1  -8    9.20    2.60
  -8  -1   8    6.00    2.80
   8  -1  -8    5.30    1.70
   8  -1  -8    1.00    2.40
  -8  -1   8    7.30    2.30
  -8   1  -8    6.60    2.10
  -8  -1   8    8.00    3.10
   8   1   8    5.70    2.20
  -8   1  -8    9.00    2.60
   8   1   8    5.70    2.60
  -8   1  -8    6.40    2.80
   8  -1  -8    5.70    2.80
   8  -2   8  802.92   53.19
  -8   2   8  845.12   53.09
   8  -2   8  889.31   53.39
   8   2  -8  762.62   53.89
   8   2  -8  846.52   53.39
   8  -2   8  838.02   53.79
  -8   2   8  851.21   53.59
   8   2  -8  861.31   53.69
  -8  -2  -8  880.01   52.69
   8   2  -8  895.91   38.50
   8   2  -8  816.32   33.60
   8  -2   8  835.72   38.90
  -8   2   8  814.42   55.19
  -8   2  -8  852.61   53.69
  -8  -2   8  852.31   53.39
  -8  -2   8  864.21   53.89
  -8  -2   8  859.51   54.09
   8  -2  -8  820.92   34.10
   8   2   8  821.12   53.09
  -8  -2   8  836.32   53.39
  -8  -2   8  803.82   38.00
  -8   2  -8  824.62   53.09
   8  -2  -8  845.42   52.69
   8   2   8  791.22   52.79
  -8  -3  -8    2.90    1.70
   8   3  -8   -4.60    3.20
   8  -3   8    1.00    2.20
   8  -3   8    4.00    3.30
   8  -3   8   -0.30    2.50
   8  -3   8    3.40    1.80
  -8  -3  -8    4.00    4.30
  -8   3   8    0.50    1.50
   8   3  -8   -0.90    2.60
   8   3  -8    1.50    2.30
  -8   3   8    0.30    3.30
   8   3  -8    3.40    1.50
   8  -3  -8    5.40    4.50
   8   3   8    0.10    1.80
  -8  -3   8    1.20    2.30
  -8  -3   8    1.00    1.50
  -8  -3   8   -0.50    2.40
  -8   3  -8   -0.70    2.70
   8  -3  -8    0.40    1.90
  -8   3  -8    0.40    2.10
  -8  -3   8   -2.50    2.90
   8   4  -8  937.61   59.19
  -8   4   8  935.81   58.49
  -8  -4  -8  906.11   36.80
   8  -4   8  899.31   42.90
   8  -4   8  866.41   43.40
   8  -4   8  933.91   59.29
   8   4  -8  928.11   37.20
  -8  -4   8  938.41   62.29
  -8   4  -8  939.11   58.79
   8   4   8  944.31   58.49
   8  -4  -8  914.91   38.50
  -8  -4   8  976.20   59.09
  -8  -4   8  931.21   42.40
  -8  -4   8  930.31   59.09
  -8   5   8   16.60    4.70
  -8   5   8    4.90    1.70
   8   5  -8    3.10    1.70
   8  -5   8    4.00    2.50
   8  -5   8    8.50    4.60
  -8  -5   8    6.80    5.70
   8  -5  -8    4.70    3.50
   8   5   8    2.50    2.00
  -8  -5   8    3.20    2.10
  -8  -5   8    0.80    3.50
   8  -6   8  283.67   16.50
   8  -6   8  313.27   22.90
   8   6  -8  328.07   13.60
  -8  -6   8  325.37   26.30
  -8  -6   8  308.87   21.50
  -8  -6   8  310.97   16.00
   8  -7   8   -1.20    5.70
   8  -7   8   -1.50   10.30
  -8  -7   8   -4.90    3.60
  -8  -7   8    0.30    2.70
  -8  -7   8    1.30    7.70
  -8  -8   8  248.68   25.00
   8  -9   8   -4.50   12.70
  -8  -9   8   -1.80    9.80
  -8   0  -9    2.20    1.70
  -8   0   9    1.00    2.90
  -8   0  -9    5.60    3.10
  -8   0   9    2.00    1.70
   8   0   9    1.50    2.70
   8   0  -9    1.30    2.80
  -8   0   9    1.80    3.00
   8   0  -9    0.00    2.90
   8   0   9    2.70    2.20
   8   0  -9    2.40    1.60
   8  -1   9    3.10    2.90
  -8  -1  -9    3.90    1.60
  -8   1   9    2.40    3.10
   8  -1   9    2.50    2.30
  -8   1   9    3.00    1.80
   8   1  -9    4.30    1.60
   8   1  -9    4.40    2.60
   8   1  -9   -2.20    3.10
  -8  -1  -9    6.00    3.20
  -8  -1  -9    0.50    2.80
  -8   1   9    3.60    2.90
  -8  -1   9    4.10    2.10
   8   1   9    0.90    2.70
   8  -1  -9    4.70    1.70
  -8   1  -9    2.60    1.90
   8  -1  -9    3.40    3.00
  -8   1  -9    5.00    3.00
  -8  -1   9    0.40    2.70
   8  -1  -9    4.20    2.80
  -8  -1   9    0.40    3.00
  -8  -1   9    3.80    1.20
   8   1   9    2.50    2.10
   8   2  -9    6.30    1.70
  -8  -2  -9    7.20    2.20
  -8   2   9    5.40    3.70
  -8  -2  -9    5.70    3.60
   8   2  -9    5.00    2.90
  -8   2   9    9.80    2.20
   8   2  -9    2.50    3.60
   8   2  -9    3.10    2.40
   8  -2   9    8.70    3.00
   8  -2   9    7.70    3.40
  -8  -2   9    2.40    3.50
  -8   2  -9    9.00    2.60
   8  -2  -9    7.70    1.90
   8   2   9    6.20    2.30
  -8  -2   9    0.90    2.80
  -8  -2   9    6.00    1.50
  -8   2  -9    8.80    3.30
   8  -2  -9    4.40    2.90
  -8  -2   9    6.50    2.60
   8   3  -9   -1.30    3.60
  -8  -3  -9   -2.80    3.90
  -8   3   9    3.70    1.70
  -8  -3  -9    5.10    1.90
   8  -3   9    4.90    2.60
   8   3  -9    7.50    1.80
   8  -3   9    2.30    3.40
   8  -3   9    3.10    2.90
  -8   3   9    0.30    3.40
  -8  -3   9    2.20    1.60
   8  -3  -9    4.00    2.20
   8   3   9    3.00    2.10
  -8  -3   9    2.30    2.50
  -8  -3   9   -0.90    3.40
   8  -3  -9   10.50    4.40
  -8  -3   9   -0.80    2.70
  -8   3  -9    2.20    3.00
  -8   4   9    0.20    3.80
   8   4  -9    2.20    1.70
   8  -4   9    1.00    2.30
   8  -4   9   -1.80    3.10
   8  -4   9    3.40    3.90
  -8   4   9    3.50    1.80
  -8  -4  -9    2.20    1.30
   8  -4  -9    5.10    2.70
   8   4   9    1.30    2.10
  -8  -4   9   -2.60    2.70
  -8  -4   9    1.50    1.90
  -8  -4   9   -1.10    3.60
   8  -5   9    1.80    2.50
   8  -5   9    6.00    4.50
  -8   5   9    2.70    4.20
  -8   5   9    4.70    1.90
   8   5  -9    2.80    1.90
  -8  -5   9    6.20    6.00
  -8  -5   9    2.40    2.20
  -8  -5   9    0.10    3.80
   8  -5  -9    5.40    3.40
   8   5   9    3.60    2.20
   8  -6   9    2.40    3.00
   8   6  -9    4.10    2.00
   8  -6   9    6.00    5.10
  -8  -6   9   -1.50    4.10
  -8  -6   9    3.50    2.60
  -8  -6   9    2.40    6.80
   8  -7   9   -3.90   10.10
   8  -7   9   -2.20    5.60
  -8  -7   9   -5.20    4.00
  -8  -7   9    4.00    7.90
   8  -8   9   -0.40   11.70
  -8  -8   9    5.70    9.70
   8  -9   9   -2.70   13.20
  -8  -9   9   -3.30   10.00
   8   0  10  413.06   27.30
  -8   0 -10  420.66   27.10
  -8   0 -10  419.06   27.60
  -8   0  10  428.86   28.30
   8   0  10  395.16   27.10
  -8   0  10  444.16   27.80
   8   0 -10  411.06   27.30
   8   0 -10  367.76   28.10
   8   0 -10  406.96   17.50
   8   1 -10   10.00    2.00
   8  -1  10    4.50    3.30
  -8  -1 -10   -0.10    3.00
   8   1 -10    7.80    3.80
  -8   1  10    2.80    3.40
  -8  -1 -10   11.50    3.90
   8   1 -10   10.10    3.10
  -8  -1  10    7.10    1.40
   8  -1 -10    7.50    2.00
  -8  -1  10    6.00    3.70
   8   1  10    7.50    2.70
  -8   1 -10    8.50    2.50
   8   1  10    6.40    3.20
   8  -1 -10    9.70    3.40
  -8   1 -10    7.60    3.50
   8  -2  10  799.72   51.39
   8   2 -10  824.52   51.59
   8   2 -10  765.32   32.50
  -8   2  10  822.52   52.89
  -8   2  10  787.72   51.19
  -8  -2  10  796.92   36.50
   8  -2 -10  802.12   32.90
  -8  -2  10  818.32   51.69
   8  -2 -10  812.62   50.79
  -8   2 -10  797.82   51.29
   8   2  10  808.12   51.19
  -8   3  10    1.90    3.50
  -8  -3 -10   -4.90    4.00
   8  -3  10    3.30    3.90
   8   3 -10    2.70    1.80
  -8   3  10    4.50    2.00
   8  -3  10    2.90    2.90
  -8  -3 -10    4.90    1.60
   8   3 -10    2.20    4.10
  -8  -3  10    4.00    1.80
  -8  -3  10    2.20    3.90
  -8   3 -10    3.20    3.40
   8  -3 -10    8.70    4.20
   8   3  10    1.60    2.30
   8  -3 -10    6.80    2.40
   8  -4  10  244.88   14.00
  -8   4  10  259.37   17.30
  -8   4  10  249.58   19.90
   8  -4  10  258.97   18.70
   8   4 -10  255.17   11.40
  -8  -4 -10  243.58   11.00
   8   4  10  262.17   17.40
   8  -4 -10  253.07   12.60
  -8  -4  10  256.67   12.90
  -8  -4  10  263.47   18.70
  -8   5  10    6.20    2.10
   8   5 -10    3.40    2.10
   8  -5  10    4.90    4.80
   8  -5  10    3.20    2.70
   8   5  10    2.80    2.50
   8  -5 -10    8.50    3.50
  -8  -5  10    3.10    2.30
  -8  -5  10    2.80    4.40
  -8  -5  10    7.20    6.40
   8  -6  10  326.67   23.70
   8   6 -10  331.77   14.20
  -8  -6  10  353.46   27.80
  -8  -6  10  315.87   16.40
   8  -6 -10  292.57   16.80
  -8  -6  10  307.37   22.70
   8  -7  10    0.40    6.00
  -8  -7  10   -6.20    4.50
  -8  -7  10    7.80    8.50
  -8  -8  10   82.19   15.30
   8   0  11    0.50    3.20
  -8   0 -11    6.50    3.60
   8   0 -11    2.10    1.80
  -8   0  11   -2.40    3.50
   8   0 -11   -0.10    3.40
   8   1 -11  316.07   14.20
   8   1 -11  317.77   22.40
   8   1 -11  337.47   22.90
  -8   1  11  329.27   23.30
   8  -1  11  317.47   22.20
  -8  -1 -11  325.47   22.80
  -8   1 -11  335.17   22.20
  -8  -1  11  333.77   22.70
  -8  -1  11  324.67   15.20
  -8   1 -11  320.47   22.40
   8  -1 -11  329.77   22.10
   8  -1 -11  315.27   14.30
   8  -2  11    1.50    3.60
   8   2 -11    2.30    1.80
  -8  -2 -11    5.30    3.90
  -8   2  11    0.80    3.30
   8   2 -11   -1.10    3.90
  -8  -2  11   -3.00    3.70
   8   2  11   -0.40    2.40
  -8  -2  11    1.30    1.50
   8  -2 -11    3.00    2.10
   8  -2 -11    0.70    3.30
  -8   2 -11    1.50    3.40
  -8   3  11  268.87   20.30
   8   3 -11  271.97   19.60
   8  -3  11  263.97   19.40
  -8  -3 -11  268.47   11.90
   8   3 -11  265.17   12.10
  -8   3 -11  261.27   19.10
  -8  -3  11  275.77   19.60
   8   3  11  284.07   18.50
   8  -3 -11  267.97   12.70
  -8  -3  11  263.97   13.30
  -8  -4 -11    1.10    1.50
   8   4 -11   -0.10    1.90
   8  -4  11    1.70    2.50
   8  -4  11    2.30    4.30
  -8   4  11    0.50    3.60
  -8  -4  11   -6.60    4.10
  -8  -4  11   -1.70    1.90
   8  -4 -11   -0.20    2.50
   8   4  11   -0.30    2.40
   8   5 -11  176.28    8.70
   8  -5  11  188.08   15.00
   8  -5  11  159.88   10.90
  -8  -5  11  173.78   14.50
  -8  -5  11  197.88   18.50
   8  -5 -11  170.48   10.50
  -8  -5  11  171.58   10.00
   8   6 -11   -2.00    2.20
   8  -6  11   -3.60    5.40
   8  -6 -11    4.00    4.30
  -8  -6  11   -3.60    2.60
  -8  -6  11   -7.80    4.60
  -8  -6  11   -1.50    7.10
  -8  -7  11  122.29   17.50
   8  -8  11   -1.00   13.10
  -8  -8  11    1.10    9.30
   8   0 -12   14.20    2.50
   8   0 -12   14.40    4.40
  -8   0 -12   15.70    4.50
   8   1 -12    0.40    4.00
   8  -1  12    1.20    3.70
   8   1 -12    1.40    2.00
  -8  -1 -12    7.70    4.00
  -8  -1  12   -2.30    3.90
   8  -1 -12    3.10    2.10
   8  -1 -12    0.90    3.80
  -8   1 -12    1.80    3.70
   8   2 -12   16.80    2.60
  -8  -2 -12   20.10    5.20
  -8  -2 -12   19.90    2.50
   8   2 -12   14.10    4.90
   8  -2  12   13.80    4.60
   8  -2 -12   15.20    4.30
  -8  -2  12   14.60    5.00
  -8   2 -12   15.00    4.50
  -8  -2  12   13.60    2.10
   8  -2 -12   16.80    2.80
   8   3 -12    2.50    2.10
  -8  -3 -12    2.10    1.70
   8   3 -12   -2.50    4.40
  -8  -3 -12   -4.40    4.30
   8  -3  12   -1.10    4.20
  -8   3  12   -0.90    3.50
   8  -3 -12    4.10    2.40
  -8  -3  12   -3.00    4.20
  -8   3 -12    2.60    4.00
  -8  -3  12    0.90    1.80
  -8   4  12    7.20    4.20
   8  -4  12    9.20    3.10
   8   4 -12    9.10    2.40
   8  -4  12    9.90    5.10
  -8  -4 -12    8.40    2.00
   8  -4 -12   13.50    3.30
  -8  -4  12    1.70    4.90
  -8  -4  12    8.00    2.40
   8   5 -12    0.30    2.20
   8  -5  12    3.10    5.30
   8  -5 -12    2.90    3.30
  -8  -5  12   -5.80    4.90
  -8  -5  12    1.30    2.50
   8  -6  12    1.60    6.00
   8   6 -12    7.90    2.70
  -8  -6  12    9.60    8.40
   8  -6 -12   15.70    4.80
  -8  -6  12    0.80    5.50
  -8  -7  12    1.60    8.90
  -8   0 -13    8.30    4.50
   8   0 -13    7.00    2.40
   8   0 -13    7.20    4.50
  -8  -1 -13  177.38   14.30
   8   1 -13  171.28   14.00
   8   1 -13  172.08    8.80
   8  -1 -13  174.68    8.90
  -8   1 -13  166.58   13.90
   8  -1 -13  179.08   13.70
   8   2 -13    2.20    4.90
  -8  -2 -13    6.40    2.10
   8  -2  13    3.30    4.50
   8   2 -13    9.30    2.50
  -8  -2 -13    8.60    4.80
  -8  -2  13    2.70    4.80
   8  -2 -13    6.90    2.60
  -8   2 -13    5.10    4.40
   8  -3  13  122.09    8.70
  -8  -3 -13  119.29    6.50
   8   3 -13  113.79   11.40
   8   3 -13  119.59    6.80
   8  -3  13  116.19   11.10
  -8  -3  13  121.89   11.90
   8  -3 -13  110.69    9.70
   8  -3 -13  119.39    7.40
  -8  -4 -13    5.80    2.10
   8   4 -13    4.20    2.40
   8  -4  13   -0.40    5.20
   8  -4 -13    5.40    3.20
  -8  -4  13    1.60    5.30
   8   5 -13   94.79    6.40
   8  -5  13  100.49   11.50
  -8  -5  13  102.69    7.20
  -8  -5  13   95.79   11.20
   8  -5 -13  110.49    8.20
   8  -6  13    2.50    6.40
   8   6 -13   -1.20    2.60
  -8  -6  13   -8.90    5.60
   8  -6 -13    0.40    4.30
  -8  -6  13    7.40    8.60
  -8  -7  13   40.70   12.40
   8   0 -14  207.38   15.70
   8   0 -14  189.08    9.90
  -8   0 -14  201.28   15.90
  -8  -1 -14    5.50    4.70
   8   1 -14    4.60    2.50
  -8  -1 -14   -1.10    2.00
   8   1 -14    2.20    4.90
  -8   1 -14    3.60    4.50
   8  -1 -14    0.80    2.40
   8  -1 -14    4.20    4.60
  -8  -2 -14  252.87   11.70
   8   2 -14  255.57   19.10
  -8  -2 -14  231.58   19.30
   8   2 -14  240.58   11.80
  -8   2 -14  252.37   18.80
   8  -2 -14  266.67   12.30
  -8  -3 -14   -0.20    1.90
  -8  -3 -14   -6.30    4.70
   8  -3  14   -1.10    5.00
   8   3 -14    1.60    2.40
   8  -3 -14    2.10    2.80
  -8  -3  14   -5.70    5.00
   8   4 -14  123.19    7.30
   8  -4  14  121.49   12.30
  -8  -4  14  114.09   12.50
   8  -4 -14  129.49    8.30
   8  -5  14   -5.60    5.80
   8   5 -14   -1.50    2.60
   8  -5 -14    3.00    3.70
   8   6 -14  103.19    7.10
  -8  -6  14  117.59   17.60
   8   0 -15    2.40    5.10
   8   0 -15   -1.20    2.40
  -8   0 -15   -3.20    2.50
  -8   0 -15    3.20    5.00
  -8  -1 -15   37.90    7.00
   8   1 -15   31.40    3.80
  -8  -1 -15   27.30    3.40
   8   1 -15   35.60    6.80
  -8   1 -15   27.60    6.40
  -8   1 -15   25.20    3.50
   8  -1 -15   30.60    3.90
  -8  -2 -15    1.60    5.10
  -8  -2 -15    1.60    2.20
   8   2 -15   -5.00    5.30
   8   2 -15   -1.20    2.50
   8  -2 -15   -5.70    4.20
  -8   2 -15   -2.20    4.80
   8  -2 -15    2.60    2.80
  -8  -3 -15   27.00    3.30
   8   3 -15   26.60    3.70
   8  -3 -15   27.30    4.10
   8  -4  15   -5.00    5.70
   8   4 -15   -1.80    2.60
   8  -4 -15    0.30    3.30
  -8  -4  15   -9.40    5.70
   8   5 -15   17.20    3.50
  -8  -5  15    2.90    6.90
   8  -5 -15   17.70    4.60
  -8   0 -16  105.99   11.40
   8   0 -16   96.19    6.90
  -8   0 -16  102.49    6.80
   8   1 -16    2.30    2.80
  -8  -1 -16    0.80    5.40
  -8  -1 -16    0.90    2.40
   8   1 -16    8.30    5.90
  -8   1 -16    2.70    5.40
  -8   1 -16    0.30    2.80
   8  -1 -16    0.40    2.80
   8   2 -16   32.30    4.20
   8   2 -16   38.70    7.60
  -8  -2 -16   40.40    4.00
  -8   2 -16   32.90    4.20
  -8   2 -16   29.10    7.10
   8  -2 -16   41.20    4.60
  -8  -3 -16   -0.40    2.30
   8   3 -16    1.20    2.90
  -8   3 -16   -0.40    3.20
   8  -3 -16    1.00    3.20
   8   4 -16   62.29    5.80
  -8   4 -16   55.39    6.20
   8  -4 -16   63.69    6.80
   8   5 -16   -2.60    3.10
  -8   5 -16    0.00    3.60
   8   0 -17   -0.20    3.10
  -8   0 -17   -2.80    2.60
   8   1 -17   28.10    4.20
  -8  -1 -17   31.00    4.00
   8  -1 -17   31.90    4.40
  -8   1 -17   27.10    7.30
  -8   1 -17   31.40    4.20
  -8  -2 -17   -1.50    2.50
   8   2 -17    3.20    6.20
   8   2 -17   -2.00    2.90
  -8   2 -17   -8.90    5.50
   8  -2 -17   -2.70    3.10
  -8   2 -17    0.60    3.30
  -8  -3 -17   23.20    3.70
   8   3 -17   23.90    4.00
  -8   3 -17   18.90    4.20
   8  -3 -17   25.00    4.50
  -8   0 -18   32.10    4.30
   8   0 -18   34.00    4.60
  -8  -1 -18   -1.00    2.80
   8   1 -18   -1.80    3.20
  -8   1 -18   -3.50    3.30
   8  -1 -18    1.20    3.40
  -9   0   0    1.30    4.50
  -9   0   0    0.70    2.30
  -9   0   0    3.60    3.40
  -9   0   0    3.80    3.50
   9   0   0    0.60    4.70
   9   0   0    3.00    5.00
   9   0   0    3.60    3.20
   9   1   0    4.10    3.80
   9   1   0    3.40    1.20
  -9   1   0    0.00    2.50
   9  -1   0    3.70    2.80
   9  -1   0   -3.30    3.80
   9  -1   0    6.40    5.00
  -9  -1   0    1.60    3.20
  -9   1   0    1.20    4.70
  -9  -1   0   -2.60    2.20
  -9  -1   0   -3.40    3.20
   9   1   0    1.30    2.90
  -9   1   0    2.60    2.40
  -9  -1   0    1.80    3.50
   9   1   0    4.90    5.00
   9   2   0   -0.20    2.30
  -9  -2   0    0.10    1.80
  -9  -2   0   -0.80    3.20
   9  -2   0   -2.20    1.40
   9   2   0    3.90    5.40
  -9   2   0    1.60    2.40
  -9   2   0    0.80    2.10
   9  -2   0    0.30    5.00
   9  -2   0   -0.60    1.70
   9  -2   0    2.00    3.40
  -9  -2   0   -5.80    2.90
  -9  -2   0   -0.20    1.90
   9  -3   0    0.00    1.30
   9   3   0   -1.90    1.90
   9   3   0   -0.60    2.80
  -9  -3   0   -3.60    2.60
  -9   3   0   -1.00    1.90
  -9  -3   0   -4.50    3.40
   9  -3   0   -2.40    4.70
   9   3   0    6.30    5.90
  -9  -3   0    2.60    4.10
   9  -3   0   -0.60    4.60
   9  -3   0    0.60    1.90
  -9   3   0    1.10    2.30
   9  -4   0    0.70    1.50
   9  -4   0   -3.20    6.10
  -9   4   0    3.60    2.50
  -9  -4   0    2.60    5.00
  -9   4   0   -1.40    2.00
   9   4   0    2.30    3.00
  -9  -4   0    0.10    2.10
  -9  -4   0   -6.20    2.90
   9   4   0    0.60    1.80
   9   4   0   12.30    6.40
  -9   5   0   -1.20    2.50
  -9  -5   0    6.10    6.20
   9  -5   0   -5.30    7.90
   9   5   0   -1.50    1.90
   9  -5   0   -0.60    1.80
   9   5   0    2.30    3.50
  -9   6   0    0.00    3.20
   9  -6   0  -13.70    9.90
   9   6   0   -0.40    2.00
   9  -6   0   -1.30    1.90
  -9  -6   0   -0.90    6.70
  -9  -6   0   -6.20    2.60
  -9   7   0    4.30    4.60
   9   7   0    0.80    2.30
   9   7   0    6.40    5.30
   9  -7   0   -1.10    2.40
  -9  -7   0   -0.90    8.30
   9  -7   0  -10.10   11.80
   9  -8   0  -11.70   13.80
   9  -8   0   -3.70    2.90
  -9  -8   0    1.80   10.10
  -9  -9   0    7.70   11.80
   9  -9   0   10.40   17.90
   9 -10   0   -0.50   20.90
  -9 -10   0    5.50   14.50
  -9   0  -1  158.98   12.00
  -9   0   1  119.49   11.40
   9   0   1  122.19   11.00
  -9   0  -1  134.39   11.30
  -9   0  -1  106.39   12.30
   9   0  -1   99.79   13.10
  -9   0   1  157.28   12.70
   9   0  -1  140.59   12.90
  -9   0   1  135.49   10.90
   9   0   1  152.08   12.70
  -9   1   1    0.90    1.90
  -9  -1  -1    4.00    2.30
   9  -1   1    5.10    4.40
  -9   1   1    3.00    3.60
  -9   1   1    6.30    3.60
   9   1  -1    2.80    5.30
   9  -1   1    3.60    3.00
  -9   1   1    4.50    3.70
   9  -1   1   -2.10    3.10
   9   1  -1    0.60    3.30
  -9  -1  -1    9.10    3.90
   9   1  -1    1.30    2.50
   9   1  -1    5.40    3.50
  -9  -1  -1   -3.40    4.20
  -9  -1  -1    2.20    3.00
   9   1   1    1.90    4.20
   9   1   1   16.10    5.60
   9  -1  -1    1.50    4.60
   9   1   1    3.10    2.50
  -9  -1   1   -1.60    3.30
  -9   1  -1    2.90    2.80
  -9  -1   1    2.60    2.80
   9   1   1    2.60    4.50
   9  -1  -1    1.60    4.70
  -9   1  -1    1.80    2.40
  -9  -1   1    3.90    2.80
  -9  -1   1    5.20    2.70
  -9   1  -1   -6.60    4.20
   9  -1  -1    3.10    2.40
  -9  -1   1    6.00    3.20
   9  -2   1  128.89   11.90
   9   2  -1  142.29    8.60
  -9   2   1  132.79   11.60
  -9  -2  -1  165.78   11.00
  -9  -2  -1  151.88   11.20
   9  -2   1  184.88   14.50
   9   2  -1  175.08   11.90
  -9  -2   1  158.68   12.50
   9  -2  -1  137.19   13.80
   9   2   1  165.48   14.30
  -9  -2   1  158.58   11.30
  -9   2  -1  151.88   11.70
   9  -2  -1  163.58   10.80
   9   2   1  132.39   12.20
   9  -2  -1  127.09   12.00
  -9  -2   1  167.08   13.10
  -9  -2   1  179.18   12.70
   9  -3   1    6.90    5.10
  -9   3   1    3.60    2.70
   9  -3   1    1.30    1.50
   9   3  -1    3.80    2.00
  -9  -3  -1    6.80    4.90
   9   3  -1    1.10    5.20
   9  -3   1    5.60    2.10
  -9  -3  -1    4.00    3.00
  -9   3   1    3.70    2.10
   9   3  -1    5.60    4.10
  -9  -3  -1   -1.60    2.90
   9  -3   1    0.90    4.70
   9  -3  -1    4.70    2.20
   9   3   1    2.20    2.30
  -9   3  -1    4.10    2.30
   9  -3  -1    2.60    1.30
   9   3   1    0.80    2.40
  -9  -3   1    3.30    3.70
   9  -3  -1    4.80    3.80
  -9   3  -1    0.50    2.10
  -9  -3   1    3.90    1.40
  -9   3  -1    6.40    3.50
   9  -3  -1   -1.60    5.70
  -9  -3   1   -0.20    2.50
   9   3   1    7.90    4.90
  -9  -3   1    4.00    1.80
  -9  -3   1    6.60    4.00
  -9  -4  -1   78.69   12.80
   9   4  -1   57.79   10.70
   9   4  -1   93.39    7.00
   9  -4   1   84.49   13.00
   9  -4   1   91.49    5.50
   9  -4   1   86.09    6.90
  -9   4   1   73.59    7.40
   9   4  -1  111.99   10.80
  -9  -4  -1   91.89    7.50
   9  -4   1   90.39   11.00
  -9   4   1   77.29    7.80
  -9  -4  -1   87.09    6.90
  -9  -4   1   87.69    7.10
   9  -4  -1  111.29   16.10
   9   4   1   95.59    7.20
   9  -4  -1   93.59    5.30
  -9   4  -1   91.59    7.60
   9   4   1   67.59    7.70
  -9  -4   1   84.79   10.50
  -9   4  -1   72.59    5.20
  -9  -4   1   90.39   11.10
   9   5  -1    9.80    5.00
   9   5  -1    6.40    2.20
  -9  -5  -1    7.50    6.80
  -9   5   1    3.40    2.40
   9  -5   1    5.00    2.10
   9  -5   1    4.20    7.90
  -9  -5  -1    5.20    2.90
   9   5   1    2.00    3.10
  -9  -5   1   -1.80    3.30
  -9   5  -1    7.50    4.60
   9   5   1    6.10    2.20
  -9  -5   1    8.30    5.70
   9  -5  -1    4.00    2.00
   9  -6   1   69.49    5.50
   9  -6   1   57.69   13.80
  -9  -6  -1   80.49   13.80
   9   6  -1   68.99    5.90
  -9  -6  -1   58.99    5.90
  -9   6   1   50.59    6.60
   9  -6  -1   61.09    5.40
  -9  -6   1   79.19   13.60
   9  -6  -1   99.29   17.60
   9   6   1   55.69    7.40
   9  -7   1    5.30    2.70
   9   7  -1   17.50    6.70
  -9  -7  -1    4.60    9.70
   9   7  -1    8.50    2.50
   9   7   1    8.70    2.60
  -9   7  -1   -0.20    5.40
   9   7   1    1.70    4.10
   9  -7  -1    3.50    2.70
  -9  -7   1   15.90    9.10
   9  -7  -1   14.30   13.60
   9  -8   1   24.50    4.40
   9  -8   1   27.70   15.90
  -9  -8  -1   38.40   14.10
   9  -8  -1   36.30   19.10
   9  -8  -1   19.40    4.40
  -9  -8   1   34.80   12.40
  -9  -9  -1    9.20   13.40
   9  -9   1    3.40   16.70
   9  -9  -1   13.20   18.90
  -9  -9   1   11.90   12.40
  -9 -10  -1   21.10   16.60
   9 -10   1   13.30   21.20
   9 -10  -1   20.70   22.50
  -9 -10   1   16.00   14.70
  -9   0   2    7.20    4.00
   9   0  -2    3.30    2.50
   9   0   2    3.50    3.40
  -9   0  -2    0.30    2.60
  -9   0   2   -3.60    3.20
   9   0  -2   -0.90    3.50
   9   0  -2   -0.10    4.10
  -9   0   2    1.80    1.60
  -9   0  -2   -2.80    2.20
   9   0  -2   -0.70    1.80
   9   0  -2   -3.90    4.20
  -9   0  -2    1.80    2.10
  -9   0   2   -1.00    3.10
   9   0   2    5.50    2.50
  -9   0  -2    1.90    3.20
  -9   0  -2   -0.90    3.60
   9   0   2   -7.40    3.50
  -9   1   2   66.29    6.00
   9  -1   2   65.69    6.90
   9  -1   2   43.70    6.30
   9   1  -2   57.79    6.70
   9  -1   2   51.99    7.30
  -9  -1  -2   58.29    5.50
   9   1  -2   55.59    9.20
   9   1  -2   51.29    7.30
   9   1  -2   53.29    4.20
  -9  -1  -2   67.09    7.30
   9   1  -2   52.99    6.90
  -9  -1   2   58.89    6.50
  -9  -1   2   63.69    6.40
   9   1   2   51.99    7.10
  -9  -1   2   60.59    7.90
  -9   1  -2   64.59    6.40
   9  -1  -2   90.19   10.20
  -9  -1   2   52.29    6.90
   9  -1  -2   72.49    6.00
  -9   1  -2   66.59    5.40
  -9   1  -2   67.59    8.00
   9   1   2   59.19    6.10
   9  -1  -2   72.09    8.70
  -9  -1   2   71.99    6.10
  -9  -2  -2  356.36   21.80
  -9  -2  -2  318.97   22.30
   9   2  -2  382.56   22.80
   9   2  -2  277.57   14.30
   9   2  -2  264.67   24.20
  -9  -2  -2  310.37   17.50
   9  -2   2  365.16   22.50
   9   2  -2  349.96   25.20
   9   2  -2  337.67   16.40
  -9  -2  -2  278.67   22.50
  -9   2   2  352.96   22.60
  -9  -2   2  374.06   23.10
   9   2   2  317.27   22.60
  -9   2  -2  352.16   22.50
  -9  -2   2  355.46   23.40
  -9  -2   2  351.56   22.50
  -9   2  -2  323.57   16.90
   9  -2  -2  363.46   23.40
  -9   2  -2  324.47   24.20
  -9   3   2   38.10    6.30
   9  -3   2   36.60    6.90
  -9  -3  -2   52.79    5.50
   9   3  -2   57.09    5.10
  -9  -3  -2   36.80    6.60
  -9   3   2   53.59    5.10
   9   3  -2   39.60    3.50
  -9  -3  -2   42.30    5.00
   9   3  -2   51.19    7.80
   9   3  -2   58.49    8.30
   9  -3   2   60.69    5.30
   9  -3  -2   52.69    5.40
  -9   3  -2   59.79    7.80
  -9  -3   2   37.60    6.40
  -9  -3   2   60.39    7.70
  -9   3  -2   55.49    5.40
  -9  -3   2   53.79    5.70
   9   3   2   55.19    5.30
   9  -3  -2   45.70    5.80
  -9   3  -2   48.60    4.00
  -9  -3   2   53.89    4.50
   9  -3  -2   55.59    3.40
   9   3   2   46.50    5.80
   9   4  -2    2.60    1.90
   9  -4   2   13.30    5.50
  -9  -4  -2    4.00    6.60
   9  -4   2    1.10    5.60
  -9   4   2    1.80    2.80
  -9   4   2    2.20    1.90
  -9  -4  -2    4.20    2.70
   9  -4   2    4.30    2.30
   9   4  -2   -0.60    1.50
   9   4  -2    1.80    4.90
   9   4  -2   12.20    5.10
   9  -4   2    4.80    1.90
  -9  -4   2    0.90    2.50
  -9   4  -2    3.20    1.60
   9   4   2    2.00    2.30
  -9  -4   2    8.90    4.20
  -9   4  -2    5.00    2.50
  -9  -4   2    9.70    4.40
   9   4   2    4.80    2.40
  -9   4  -2   -3.70    3.90
   9  -4  -2    6.60    9.10
   9  -4  -2    2.80    1.50
  -9  -5  -2   33.60    4.20
   9  -5   2   37.30    4.00
   9  -5   2   19.30    8.90
  -9  -5  -2   38.70   10.50
   9   5  -2   38.50    7.80
   9  -5   2   41.30    4.20
   9   5  -2   35.90    4.20
  -9   5   2   28.60    4.20
  -9  -5   2   44.70    6.90
  -9  -5   2   35.40    4.30
   9   5   2   35.20    4.40
   9   5   2   41.00    4.90
  -9   5  -2   23.00    6.40
  -9  -5   2   38.60    7.70
   9  -5  -2   39.00    3.70
  -9  -6  -2   49.10    4.90
   9  -6   2   47.40    5.00
   9   6  -2   54.09    5.30
   9  -6   2   50.69   13.60
  -9  -6  -2   59.79   13.40
   9   6  -2   66.79   10.70
  -9   6   2   44.80    5.30
  -9  -6   2   58.99   10.40
   9  -6  -2   78.89   18.00
   9   6   2   57.59    5.40
   9  -6  -2   45.90    5.00
   9   6   2   45.20    6.10
   9  -7   2    8.90    3.00
  -9  -7  -2   18.40   12.10
   9   7  -2   17.90    7.00
   9  -7   2   12.00   11.80
  -9  -7   2   19.80    8.80
   9   7   2   19.70    3.20
   9  -7  -2   24.30   15.50
   9  -7  -2   12.00    3.30
  -9  -8  -2    9.00   12.70
   9  -8   2   21.50   14.80
  -9  -8   2   19.70   10.50
   9  -8  -2   26.10   18.10
  -9  -9  -2    0.50   14.10
   9  -9   2  -11.20   15.60
  -9  -9   2   15.70   12.40
   9  -9  -2    8.30   19.50
   9 -10   2   -1.30   18.30
  -9 -10  -2   -0.10   16.60
  -9 -10   2   -0.80   12.80
  -9   0  -3    1.20    2.30
   9   0  -3    5.20    1.80
   9   0   3    2.70    3.60
  -9   0  -3    4.60    2.60
  -9   0  -3    6.40    3.20
   9   0  -3   -1.30    3.30
   9   0  -3    1.70    2.20
   9   0   3    9.40    3.10
  -9   0   3    0.70    2.40
  -9   0   3   -2.00    3.50
   9   0  -3   -1.60    3.80
  -9   0   3    2.10    3.00
  -9   0   3    1.80    0.80
   9   0   3    4.90    2.20
   9   0  -3    4.60    3.20
  -9   0  -3    0.30    2.10
  -9   0  -3    5.50    2.10
   9  -1   3    0.40    2.50
   9   1  -3    7.20    1.60
  -9  -1  -3    1.20    2.60
  -9  -1  -3    1.40    1.40
   9   1  -3    5.30    1.50
   9  -1   3   -0.40    2.90
   9   1  -3    0.60    2.70
  -9  -1  -3    1.50    2.10
  -9   1   3    3.40    3.20
  -9  -1  -3    3.60    3.20
   9  -1   3   -2.00    2.00
   9   1  -3    1.50    4.10
   9   1  -3    1.60    2.40
   9   1  -3   -0.90    2.60
  -9   1   3    0.00    1.60
  -9  -1  -3    3.00    3.20
  -9   1   3   -3.10    3.20
  -9  -1   3   -2.00    2.10
  -9  -1   3   -0.30    1.80
  -9   1  -3    0.70    2.00
   9  -1  -3    0.90    1.60
  -9   1  -3   -1.30    1.90
   9   1   3    2.40    1.90
   9   1   3    2.80    3.00
  -9  -1   3    4.20    1.80
  -9  -1   3   -3.10    2.80
  -9   1  -3    0.40    3.20
  -9   1  -3    1.90    2.20
   9  -1  -3    1.30    3.30
   9  -1  -3    4.40    2.10
  -9  -1   3    3.20    2.50
   9  -1  -3    1.30    3.90
  -9  -2  -3   57.49    4.40
   9   2  -3   63.79    4.40
   9  -2   3   59.39    5.70
  -9   2   3   56.59    5.30
   9   2  -3   55.49    8.10
   9   2  -3   47.90    3.70
  -9  -2  -3   46.00    5.20
   9  -2   3   55.19    7.00
  -9  -2  -3   62.59    5.80
  -9  -2  -3   47.20    4.90
  -9  -2   3   62.29    6.60
   9   2   3   56.49    6.70
  -9  -2   3   52.29    6.10
  -9   2  -3   61.79    5.80
  -9  -2   3   37.00    6.70
   9  -2  -3   61.19    9.20
   9  -2  -3   69.49    6.50
  -9   2  -3   48.70    6.40
  -9   2  -3   50.99    4.20
   9   2   3   62.19    5.40
  -9  -2   3   54.39    5.50
   9   2   3   45.80    7.60
  -9  -2   3   47.80    6.30
  -9  -3  -3   -4.70    3.10
   9   3  -3   -2.50    3.70
  -9   3   3    4.80    3.70
  -9   3   3    1.50    1.50
   9   3  -3   -3.70    3.80
   9  -3   3    0.60    3.60
   9  -3   3    3.40    2.80
   9   3  -3    0.70    1.20
  -9  -3  -3   -1.80    2.00
   9   3  -3    0.60    1.80
  -9  -3  -3    4.30    2.00
  -9   3  -3    1.60    2.10
   9  -3  -3    0.10    2.60
  -9  -3   3   -0.70    2.60
   9   3   3   -1.90    3.40
  -9   3  -3   -5.50    2.60
   9   3   3   -2.50    2.80
  -9  -3   3   -1.20    1.60
   9   3   3    2.80    1.90
  -9   3  -3   -0.40    1.50
   9  -3  -3    1.40    1.00
   9  -3  -3   -2.70    2.10
  -9  -3   3    2.20    2.90
  -9  -3   3    2.60    1.00
  -9   4   3    9.10    3.90
   9   4  -3   -1.80    4.40
   9  -4   3    3.20    1.80
  -9  -4  -3   -0.50    2.30
   9   4  -3    3.40    1.40
   9   4  -3   -1.00    2.00
   9  -4   3   -3.00    4.20
   9   4  -3   -2.70    4.30
  -9   4   3    2.30    1.70
   9  -4   3    3.30    2.40
   9   4   3    6.10    2.20
  -9   4  -3    3.10    3.70
  -9  -4   3   -1.30    2.50
  -9   4  -3    3.00    1.60
   9   4   3    4.60    4.30
  -9   4  -3    5.20    2.50
   9  -4  -3    2.10    8.50
  -9  -4   3   -1.90    3.30
   9   4   3   -1.00    2.60
  -9  -4   3    5.60    4.10
   9  -4  -3    1.10    1.50
   9  -5   3    0.50    1.90
   9  -5   3    2.60    5.20
  -9  -5  -3    0.00    2.20
   9   5  -3    0.40    2.00
   9   5  -3   -4.80    4.60
   9   5  -3    1.50    1.40
   9  -5   3   -1.20    7.10
  -9   5   3    1.10    1.60
   9  -5   3    5.00    2.20
  -9  -5  -3   -1.80    8.60
   9   5   3    3.10    2.20
   9  -5  -3    6.30   10.90
  -9  -5   3    0.70    2.30
   9  -5  -3    0.90    1.80
  -9  -5   3    9.50    4.50
   9   5   3    0.00    2.40
  -9   5  -3   -3.80    3.80
  -9  -5   3    3.60    4.90
   9  -6   3   17.10    3.20
   9   6  -3   18.70    7.00
   9  -6   3   10.30    9.40
  -9  -6  -3   19.70    3.10
  -9  -6  -3   30.50   12.60
   9   6  -3   22.20    3.90
  -9  -6   3   13.30    5.80
   9  -6  -3   17.00    3.30
   9   6   3   28.80    4.40
  -9  -6   3   26.70    7.70
   9  -6  -3   34.80   14.90
   9   6   3   23.40    3.50
  -9   6  -3    9.00    5.40
  -9  -7  -3   -4.00   11.40
   9   7  -3    5.80    5.90
   9  -7   3   -8.40   10.20
   9  -7   3   -2.00    2.50
   9   7   3    0.90    2.30
  -9   7  -3   -8.80    4.20
   9  -7  -3    6.50   15.10
  -9  -7   3    4.00    7.30
   9  -7  -3    0.10    3.00
  -9  -8  -3   -0.10   13.60
   9  -8   3    1.70   13.00
   9  -8   3    0.00    3.10
  -9  -8   3    4.00    8.80
   9  -8  -3   10.40   17.60
   9  -9   3    1.90   15.50
  -9  -9  -3    0.40   15.40
  -9  -9   3    0.10   10.50
   9  -9  -3    2.50   20.00
  -9 -10  -3    4.90   18.50
   9 -10   3    2.90   17.90
  -9 -10   3    3.10   13.60
  -9   0   4  249.28   16.70
   9   0  -4  228.48   16.40
   9   0   4  248.28   16.70
   9   0   4  219.88   16.30
  -9   0  -4  247.98   16.30
   9   0  -4  231.78   10.60
   9   0  -4  205.58   16.90
  -9   0  -4  208.58   16.60
  -9   0  -4  259.47   12.50
   9   0   4  225.98   17.10
   9   0  -4  267.77   11.20
  -9   0   4  241.68   17.80
  -9   0   4  192.48   17.30
   9   0  -4  251.87   17.00
  -9   1   4  345.47   25.90
   9   1  -4  357.76   15.30
  -9  -1  -4  383.46   24.10
   9  -1   4  355.06   24.40
   9   1  -4  383.36   25.00
  -9   1   4  367.56   24.00
   9   1  -4  358.66   24.30
  -9  -1  -4  366.06   18.10
   9   1  -4  408.36   17.10
  -9   1   4  333.37   25.80
   9   1  -4  330.07   24.80
   9  -1   4  390.26   24.50
  -9  -1  -4  371.06   23.60
   9   1  -4  351.36   24.60
  -9  -1   4  383.16   24.10
  -9   1  -4  337.47   24.00
  -9  -1   4  380.46   24.90
  -9   1  -4  392.36   24.70
  -9  -1   4  326.17   24.60
   9  -1  -4  411.26   23.80
   9   1   4  351.86   24.20
   9  -1  -4  354.46   15.80
  -9  -1   4  312.87   24.30
  -9  -1   4  329.87   24.30
   9   1   4  365.56   24.00
   9  -1  -4  334.97   25.30
  -9   1  -4  368.36   17.80
  -9   1  -4  369.96   24.50
   9  -1  -4  357.06   24.10
   9   2  -4    2.70    1.40
   9   2  -4    2.40    3.20
   9   2  -4    5.70    1.70
  -9   2   4    2.70    3.70
   9  -2   4    5.50    2.40
  -9  -2  -4   13.80    4.40
  -9   2   4    9.40    3.70
   9   2  -4    6.10    1.40
  -9   2   4    7.40    1.90
   9   2  -4    1.60    3.70
  -9  -2  -4    6.50    1.30
  -9  -2  -4    5.60    2.10
  -9  -2  -4    3.40    2.10
   9  -2   4   13.00    3.60
   9  -2   4    1.60    2.60
  -9  -2  -4    5.40    2.10
   9   2   4    7.30    2.10
   9  -2  -4    4.20    5.20
  -9   2  -4    4.80    1.90
  -9  -2   4    2.80    2.90
  -9  -2   4    5.40    2.40
  -9   2  -4    4.90    2.60
  -9  -2   4    4.00    2.30
   9  -2  -4    5.20    2.60
  -9  -2   4    1.30    2.50
   9   2   4    7.50    2.90
   9  -2  -4    2.80    2.10
  -9  -2   4    7.10    2.70
  -9   2  -4    8.20    2.60
   9   3  -4  232.98   20.90
   9  -3   4  254.77   20.10
   9  -3   4  250.97   19.90
   9   3  -4  293.27   19.00
  -9   3   4  298.07   18.60
  -9  -3  -4  288.87   14.60
  -9   3   4  268.97   21.30
   9   3  -4  280.77   20.30
  -9  -3  -4  297.47   18.40
   9   3  -4  282.17   12.00
  -9   3  -4  260.37   20.20
  -9   3  -4  273.27   13.80
  -9  -3   4  294.77   20.70
  -9  -3   4  307.97   20.50
  -9  -3   4  296.37   19.20
   9   3   4  298.27   18.80
  -9  -3   4  285.57   18.80
   9   3   4  256.97   19.60
  -9   3  -4  281.17   18.90
   9  -3  -4  290.77   18.40
   9   4  -4   59.99    9.40
   9  -4   4   76.59    5.60
   9   4  -4   82.19    6.70
  -9   4   4   83.39    6.10
   9  -4   4   55.69    8.60
   9   4  -4   82.99    4.40
   9  -4   4   89.49    6.90
   9   4  -4   70.59    8.50
  -9  -4  -4   84.29    5.70
   9   4   4   82.69    6.40
  -9  -4   4   96.49   10.20
  -9  -4   4   57.59    8.30
  -9  -4   4   79.09    7.20
  -9   4  -4   80.89    7.00
  -9   4  -4   79.39    4.70
   9   4   4   67.69    8.30
  -9   4  -4   76.59    8.50
   9   4   4   55.79    8.00
   9  -4  -4   75.39    5.00
  -9   5   4  177.78   11.80
   9  -5   4  166.08    9.80
   9  -5   4  132.79   18.80
   9   5  -4  175.98    7.90
   9   5  -4  161.58   16.10
  -9  -5  -4  173.88    9.80
   9  -5   4  181.78   12.30
   9   5  -4  181.88   12.40
   9   5   4  171.98   13.30
  -9  -5   4  178.78   16.30
  -9   5  -4  149.59   14.30
  -9  -5   4  175.88   12.40
   9   5   4  173.08   12.10
   9  -5  -4  185.88    9.60
   9  -6   4    7.30    2.70
   9  -6   4    3.80    9.10
  -9  -6  -4   14.70    2.70
   9   6  -4    5.00    5.70
  -9  -6   4   17.50    6.90
  -9   6  -4    7.50    4.40
  -9  -6   4   12.10    3.20
   9  -6  -4   18.80   14.80
   9   6   4   13.00    2.80
   9  -6  -4   11.80    3.20
   9   6   4    8.90    3.20
   9  -7   4   92.79   17.80
   9   7  -4   82.79   12.10
   9  -7   4   86.29    7.50
   9   7   4  103.89    8.40
  -9  -7   4  104.99   15.10
   9  -7  -4  139.49   24.60
   9  -8   4   -3.30   12.30
   9  -8   4   -2.80    3.00
  -9  -8   4    6.40    8.70
   9  -8  -4   -7.80   18.40
   9  -9   4   29.20   17.00
  -9  -9   4   47.00   13.60
   9 -10   4    2.90   17.80
  -9 -10   4   14.20   13.40
   9   0  -5    2.50    2.70
  -9   0   5   -2.00    2.80
  -9   0  -5   -0.10    1.70
   9   0  -5    0.80    1.90
  -9   0  -5    4.60    2.20
   9   0   5    3.10    2.00
  -9   0  -5    4.50    1.80
  -9   0   5    1.50    2.70
   9   0   5    3.50    2.60
   9   0  -5   -0.20    2.80
   9   0  -5   -1.60    2.60
  -9   0   5    1.00    0.80
   9   0  -5    1.80    1.30
  -9   0  -5    4.70    2.70
  -9  -1  -5    6.30    3.50
  -9  -1  -5    4.20    2.00
   9  -1   5    8.00    2.80
  -9   1   5    0.40    2.90
   9   1  -5    4.60    1.20
  -9   1   5   -0.40    3.30
   9  -1   5    2.50    2.70
  -9  -1  -5    2.90    2.80
   9   1  -5    1.20    2.30
   9   1  -5    2.50    2.40
   9   1  -5    0.00    2.70
   9   1  -5   -0.20    3.10
   9  -1   5    4.90    2.40
  -9   1   5    3.00    1.70
   9   1  -5    5.40    1.40
  -9  -1  -5    2.00    1.80
  -9  -1  -5    3.90    1.50
  -9  -1   5    2.40    2.60
   9  -1  -5    2.00    2.30
  -9  -1   5    2.20    2.00
   9  -1  -5    0.20    2.60
  -9   1  -5    7.00    2.70
   9   1   5    6.60    2.20
   9  -1  -5    5.30    1.80
  -9   1  -5    2.90    2.00
  -9   1  -5    2.80    1.80
   9  -1  -5    3.60    1.90
  -9  -1   5   -3.20    2.80
   9   1   5    4.80    2.50
  -9   1  -5    5.10    2.90
  -9  -1   5    0.90    2.40
  -9  -2  -5    2.70    3.50
   9   2  -5    1.50    1.20
  -9  -2  -5    1.80    1.10
   9   2  -5    1.40    1.40
   9   2  -5   -4.90    3.10
   9  -2   5    2.20    2.40
  -9   2   5    5.00    3.40
   9  -2   5   -0.40    2.20
  -9  -2  -5   -0.80    1.70
   9  -2   5    4.90    2.90
  -9  -2  -5    1.60    1.80
  -9   2   5    0.80    1.40
   9   2  -5   -0.20    2.50
  -9   2   5   -3.30    3.10
   9   2  -5    1.60    2.00
  -9  -2   5    1.80    2.10
  -9   2  -5    2.30    2.30
   9  -2  -5   -0.50    1.70
   9   2   5    0.70    1.60
   9   2   5    1.30    2.50
  -9  -2   5    1.50    2.40
  -9  -2   5   -1.00    2.10
  -9  -2   5   -0.30    2.40
  -9  -2   5   -2.40    2.60
   9  -2  -5   -1.20    2.20
   9  -2  -5    3.20    4.50
  -9   2  -5   -0.50    1.60
  -9  -3  -5    5.70    2.20
   9  -3   5   -2.70    2.40
  -9   3   5   -0.80    4.10
   9   3  -5    2.20    3.50
  -9   3   5    2.50    1.50
   9   3  -5    3.80    1.40
  -9  -3  -5    5.10    1.80
   9  -3   5    0.30    2.60
  -9   3   5    7.90    3.60
   9   3  -5    2.70    2.10
   9   3  -5   -2.70    3.50
   9  -3   5    4.60    3.50
  -9  -3  -5    4.60    4.10
  -9  -3   5    0.20    2.10
  -9  -3   5   -0.40    2.90
   9  -3  -5   -5.20    3.50
  -9  -3   5    5.10    3.30
  -9  -3   5    0.40    2.20
   9  -3  -5    1.50    2.50
  -9   3  -5    2.60    2.50
  -9  -3   5    1.30    2.90
   9  -3  -5    2.10    2.10
   9   3   5    2.70    1.70
  -9   3  -5    3.00    1.80
   9   3   5    2.80    3.00
  -9   3  -5    1.60    2.50
   9   4  -5    3.00    1.40
   9   4  -5    0.40    3.70
  -9  -4  -5    0.80    1.90
   9  -4   5    2.90    2.00
   9  -4   5    5.70    3.90
  -9   4   5    2.40    1.50
   9   4  -5    3.50    2.10
   9   4  -5    1.50    3.80
   9  -4   5    2.50    2.50
   9   4   5    2.90    1.90
   9   4   5    0.80    3.90
  -9   4  -5    1.10    3.00
  -9  -4   5    4.20    4.00
  -9  -4   5   -0.90    2.70
  -9   4  -5    1.60    2.60
  -9  -4   5    2.40    1.80
  -9  -4   5    0.50    3.00
   9   5  -5    3.00    1.50
   9   5  -5   -2.10    4.10
   9  -5   5    2.10    2.30
  -9  -5  -5    3.00    2.30
   9  -5   5    2.80    4.50
   9   5  -5    2.30    2.30
  -9   5   5    3.40    1.60
   9   5   5    3.10    1.90
  -9  -5   5    0.70    2.90
  -9  -5   5    5.10    5.10
  -9   5  -5    0.80    3.30
   9   5   5   -2.90    3.50
   9   6  -5    3.00    5.00
   9  -6   5   -7.90    4.80
  -9  -6  -5    1.90    2.10
   9  -6   5   -8.90    8.10
   9  -6   5   -1.20    2.30
  -9  -6   5   -1.80    2.70
   9   6   5   -4.80    2.90
  -9  -6   5    2.00    5.60
   9   6   5    1.10    2.10
   9  -7   5    2.10    3.00
   9  -7   5    6.20   11.00
  -9  -7   5   15.10    7.90
   9  -8   5    1.90   12.70
  -9  -8   5    7.20    8.80
   9  -9   5   -7.30   14.20
  -9  -9   5    9.30   10.60
  -9   0   6    1.30    3.10
   9   0  -6    3.40    1.40
   9   0   6    2.90    2.40
  -9   0  -6    2.80    1.70
   9   0   6    2.50    2.00
  -9   0  -6    1.20    2.00
   9   0  -6   -0.70    2.40
  -9   0  -6    0.50    1.70
   9   0  -6   -0.80    2.80
   9   0  -6    0.30    1.90
  -9   0   6   -2.00    2.60
  -9   0  -6    4.10    2.70
  -9   0   6    0.70    1.10
   9   0  -6   -1.80    2.70
   9   0   6    0.00    1.60
  -9  -1  -6   62.89    4.70
   9   1  -6   62.09    6.80
   9   1  -6   56.29    6.90
   9  -1   6   58.19    4.50
  -9   1   6   65.49    5.80
   9   1  -6   65.09    3.90
   9   1  -6   56.79    6.50
   9   1  -6   71.29    4.00
  -9  -1  -6   65.79    5.80
  -9  -1  -6   67.59    7.50
  -9  -1  -6   60.29    5.30
  -9   1   6   45.50    7.20
  -9  -1  -6   52.09    6.70
   9  -1   6   70.19    6.70
  -9   1   6   59.99    7.90
   9  -1   6   59.09    6.00
   9   1  -6   56.89    6.40
   9  -1   6   68.39    6.60
   9   1   6   55.29    4.60
   9  -1  -6   60.59    6.30
   9   1   6   68.69    6.40
   9  -1  -6   65.69    4.30
  -9   1  -6   67.79    4.70
   9   1   6   67.49    5.70
  -9   1  -6   69.89    6.40
  -9  -1   6   63.49    6.80
  -9  -1   6   61.59    7.10
   9  -1  -6   70.89    5.80
  -9  -1   6   60.49    6.60
  -9   1  -6   63.09    6.00
  -9   1  -6   74.89    6.60
  -9  -1   6   63.29    6.30
  -9   2   6   -1.90    3.20
   9   2  -6   -1.40    3.20
  -9  -2  -6   -4.20    2.90
   9   2  -6    0.10    2.50
  -9  -2  -6    1.50    1.80
   9   2  -6    2.40    1.50
  -9   2   6   -0.20    1.40
   9  -2   6    4.70    1.80
   9   2  -6    2.70    1.40
  -9  -2  -6    0.80    1.80
   9  -2   6   -0.10    2.30
  -9   2   6    1.40    3.50
   9   2  -6    1.00    2.10
   9  -2   6    2.40    2.90
  -9  -2   6    0.60    2.30
  -9  -2   6   -1.70    2.80
   9  -2  -6   -0.90    2.30
  -9  -2   6   -1.10    1.90
   9   2   6    1.20    1.70
   9   2   6    1.60    2.60
  -9   2  -6    0.20    2.40
   9  -2  -6    3.10    4.20
  -9  -2   6    0.30    2.50
  -9   2  -6    0.80    2.00
   9  -2  -6    0.70    1.70
  -9   2  -6    0.40    1.70
   9   3  -6   41.10    5.90
  -9  -3  -6   43.30    4.10
   9   3  -6   47.40    3.30
  -9   3   6   35.90    6.30
   9  -3   6   38.70    5.70
   9  -3   6   32.00    5.80
  -9  -3  -6   50.49    4.50
  -9   3   6   45.60    4.30
   9  -3   6   38.90    3.90
   9  -3   6   53.19    6.50
   9   3  -6   35.80    6.40
  -9   3  -6   49.90    5.70
   9   3   6   47.00    4.40
  -9  -3   6   38.30    6.50
   9   3   6   46.50    5.70
  -9   3  -6   46.80    5.30
  -9  -3   6   38.20    3.70
  -9  -3   6   41.00    5.10
   9  -3  -6   40.30    4.60
  -9  -3   6   44.70    5.90
   9  -3  -6   31.40    7.00
  -9  -3   6   50.29    7.60
   9  -3  -6   41.80    4.20
  -9  -3   6   31.50    5.50
   9  -4   6    0.90    2.00
   9   4  -6    1.60    2.30
  -9   4   6    6.60    3.60
  -9  -4  -6    1.50    2.10
   9   4  -6   -1.30    3.60
   9   4  -6    0.70    1.40
  -9   4   6    0.80    1.40
   9  -4   6    3.50    3.90
   9   4  -6   -1.90    3.70
  -9  -4   6    1.90    4.00
   9  -4  -6    0.00    2.90
   9   4   6    4.40    2.10
  -9   4  -6    2.40    2.90
  -9  -4   6   -2.00    1.90
  -9  -4   6   -0.40    1.80
  -9   4  -6    5.70    2.90
  -9  -4   6   -1.40    3.00
   9   5  -6   41.10    3.30
   9  -5   6   28.90    3.80
  -9   5   6   39.20    3.90
  -9  -5  -6   35.80    4.20
   9  -5   6   38.00    6.70
   9   5  -6   28.20    6.60
  -9  -5   6   30.80    4.90
   9   5   6   41.10    4.20
  -9  -5   6   41.40    7.80
  -9  -5   6   30.50    3.60
   9  -6   6   -2.40    4.90
  -9  -6  -6    0.90    2.20
   9  -6   6    4.20    9.00
   9  -6   6   -1.70    2.40
   9   6  -6   -1.30    1.60
   9   6   6    1.00    2.10
  -9  -6   6    4.70    6.10
  -9  -6   6    0.40    2.40
   9   6   6   -5.50    3.70
  -9  -6   6   -2.60    3.00
   9  -7   6    7.10    3.30
   9  -7   6    9.70   11.00
  -9  -7   6   17.70    8.30
   9  -8   6   -0.10   12.40
  -9  -8   6    4.70    8.70
   9  -9   6    0.30   14.90
  -9  -9   6    5.90   10.40
  -9   0  -7  408.46   28.00
  -9   0   7  442.56   28.40
  -9   0  -7  432.66   20.50
   9   0  -7  418.06   27.70
  -9   0  -7  457.35   27.70
   9   0   7  413.16   27.70
   9   0  -7  378.96   28.00
  -9   0  -7  429.26   27.60
  -9   0   7  394.46   28.80
   9   0  -7  441.56   27.90
   9   0   7  418.06   20.30
   9   0  -7  408.86   17.60
   9   0   7  421.66   27.60
  -9   1   7   23.50    4.60
  -9  -1  -7   23.10    3.20
  -9  -1  -7   21.70    2.90
   9   1  -7   20.00    4.20
  -9   1   7   22.50    3.40
   9   1  -7   17.30    3.50
  -9   1   7   17.60    4.50
   9  -1   7   23.60    4.00
   9  -1   7   20.20    3.80
  -9  -1  -7   22.10    4.60
   9  -1   7   21.90    2.70
   9   1  -7   15.80    3.60
   9   1  -7   19.10    2.10
   9   1  -7   29.30    2.70
   9   1  -7   20.20    3.90
  -9  -1  -7   22.20    4.30
   9   1   7   19.60    2.80
   9  -1  -7   18.90    2.40
   9  -1  -7   20.50    3.70
  -9   1  -7   23.60    2.90
  -9  -1   7   18.80    4.20
  -9   1  -7   23.60    3.80
   9   1   7   20.70    3.50
  -9  -1   7   22.20    4.00
   9   1   7   17.40    3.00
  -9   1  -7   22.10    3.80
  -9  -1   7   16.10    3.80
  -9   1  -7   23.40    3.80
  -9   2   7  343.37   22.80
   9  -2   7  352.36   23.50
   9   2  -7  357.66   23.70
   9   2  -7  301.27   23.70
   9   2  -7  346.47   14.60
   9   2  -7  360.56   23.50
   9  -2   7  363.46   23.60
  -9  -2  -7  355.56   22.70
  -9   2   7  361.96   24.30
   9  -2   7  307.17   23.40
   9   2  -7  382.56   16.80
  -9  -2  -7  355.16   17.30
   9  -2   7  339.97   16.90
   9  -2  -7  355.66   22.70
  -9  -2   7  353.26   23.90
  -9  -2   7  350.76   23.60
   9   2   7  337.07   23.00
  -9  -2   7  340.77   16.30
   9  -2  -7  328.97   15.20
  -9   2  -7  349.87   23.50
   9   2   7  346.47   22.80
  -9  -2   7  330.07   23.50
  -9  -2   7  345.57   23.50
  -9   2  -7  338.47   23.10
   9  -3   7   11.40    3.10
  -9  -3  -7   22.30    3.40
   9   3  -7   17.00    2.10
  -9   3   7   17.80    3.00
  -9  -3  -7   31.30    5.90
   9  -3   7   14.80    2.50
   9   3  -7    9.20    4.30
   9  -3   7    9.60    3.60
   9   3  -7   15.80    3.10
  -9   3   7   16.30    5.10
  -9  -3  -7   16.50    2.80
   9  -3   7   14.50    4.20
   9   3  -7    7.80    3.70
   9  -3  -7   16.10    2.90
   9  -3  -7   14.40    5.80
  -9  -3   7    9.30    3.20
  -9  -3   7   11.50    3.40
   9  -3  -7   14.90    2.90
  -9  -3   7   15.60    2.10
  -9   3  -7   15.10    3.50
  -9  -3   7    9.00    3.70
   9   3   7   14.50    2.70
  -9  -3   7   21.20    4.70
  -9   4   7  284.37   18.00
   9  -4   7  235.48   14.20
   9   4  -7  237.18   20.10
  -9  -4  -7  274.57   14.00
   9  -4   7  257.87   13.60
   9   4  -7  271.07   19.50
   9  -4   7  284.77   19.70
   9   4  -7  286.77   11.80
   9   4   7  274.47   18.00
   9  -4  -7  241.98   13.50
  -9  -4   7  264.97   13.50
  -9   4  -7  280.17   18.70
  -9  -4   7  268.47   18.50
  -9  -4   7  287.97   21.50
  -9  -4   7  289.27   19.10
   9   5  -7   21.60    2.40
  -9   5   7   28.40    5.30
  -9  -5  -7   25.10    3.20
   9  -5   7   16.10    3.30
   9  -5   7   21.80    5.90
  -9   5   7   24.70    3.30
   9   5   7   18.60    3.00
  -9  -5   7   19.20    2.90
  -9  -5   7   14.80    4.20
  -9  -5   7   28.10    6.80
   9   6  -7  162.88    7.50
  -9   6   7  166.68   10.70
   9  -6   7  133.19    9.60
   9  -6   7  132.59   14.00
  -9  -6   7  149.99   12.10
  -9  -6   7  150.18    9.30
  -9  -6   7  156.68   16.70
   9  -7   7    7.30    3.40
   9  -7   7   10.80   11.20
  -9  -7   7    9.90    3.30
  -9  -7   7    7.00    3.90
  -9  -7   7   15.60    8.30
   9  -8   7   51.39   16.60
  -9  -8   7   88.59   15.40
   9  -9   7   -0.30   14.90
  -9  -9   7   12.90   10.90
   9   0   8  177.08   13.10
   9   0  -8  195.58   13.50
  -9   0   8  176.98   14.00
  -9   0   8  174.18   14.30
   9   0   8  179.58   13.20
  -9   0  -8  173.98   13.60
  -9   0  -8  211.08   13.50
  -9   0  -8  201.88   13.10
   9   0  -8  179.48    8.60
   9   0  -8  168.48   13.90
   9   0  -8  164.88   13.40
  -9   1   8    2.20    1.70
   9  -1   8    2.80    2.40
  -9  -1  -8    4.00    1.60
   9   1  -8   -1.00    3.20
   9   1  -8    3.00    2.60
   9   1  -8    2.00    1.50
   9  -1   8    5.70    2.90
  -9  -1  -8    2.40    2.00
  -9   1   8    3.60    3.20
   9   1  -8    3.50    2.60
   9   1  -8    3.40    2.80
  -9  -1  -8   -1.00    3.30
  -9  -1  -8    5.30    3.30
  -9   1   8    0.20    3.10
  -9  -1  -8   -0.10    1.10
  -9   1  -8    2.80    2.80
  -9   1  -8    3.70    2.40
   9  -1  -8    3.00    1.70
  -9   1  -8    3.20    2.00
   9   1   8    1.30    2.10
  -9  -1   8    1.90    2.00
   9  -1  -8    1.40    1.90
  -9  -1   8    2.70    3.20
   9   1   8    3.20    2.80
  -9  -1   8    2.60    1.20
  -9  -1   8    0.80    2.80
   9  -1  -8    2.10    2.90
   9   2  -8    1.30    2.40
   9   2  -8    1.10    1.50
  -9  -2  -8   -1.00    3.40
   9   2  -8   -3.20    3.50
  -9  -2  -8    3.40    2.10
   9  -2   8    1.70    2.70
   9  -2   8    0.70    3.20
  -9   2   8    1.60    1.70
  -9   2   8   -0.90    3.00
   9   2  -8    0.00    2.70
  -9  -2  -8    1.40    2.10
   9  -2   8    1.20    1.90
  -9   2   8   -1.80    3.30
   9   2  -8    5.20    1.70
  -9  -2   8   -3.70    3.30
  -9   2  -8    0.80    2.90
   9   2   8    2.30    2.10
   9  -2  -8    0.10    2.70
   9  -2  -8   -3.70    4.00
  -9  -2   8   -1.80    2.70
   9  -2  -8    1.60    1.80
   9   2   8    1.50    2.70
  -9  -2   8   -0.30    1.40
  -9   2  -8    0.90    2.20
  -9  -2   8    2.40    2.40
  -9  -3  -8    2.80    2.20
   9  -3   8    3.30    3.60
  -9   3   8    2.00    3.80
  -9   3   8    2.50    1.70
   9   3  -8    0.10    3.80
  -9  -3  -8    1.40    4.50
   9   3  -8   -0.10    3.00
   9   3  -8    3.10    1.60
  -9  -3  -8    3.00    1.90
   9  -3   8    3.80    2.00
   9  -3   8    1.10    2.50
   9  -3   8    0.90    2.80
   9  -3  -8    2.70    2.20
  -9  -3   8    1.70    2.80
  -9   3  -8    3.90    3.00
   9  -3  -8    5.40    4.90
   9   3   8    1.00    2.00
  -9  -3   8    1.50    2.50
  -9  -3   8    1.30    1.60
  -9  -3   8   -1.20    3.30
   9  -3  -8    1.80    2.40
   9  -4   8   81.49    8.70
   9  -4   8   71.49    5.50
   9   4  -8   69.29    8.70
  -9   4   8   80.29   10.10
   9  -4   8   70.19    6.10
  -9   4   8   78.79    6.40
   9   4  -8   80.79    4.80
  -9  -4   8   75.49    8.20
  -9  -4   8   71.19    5.40
  -9  -4   8   87.19   11.00
   9  -4  -8   76.69    6.40
   9   4   8   77.09    6.50
  -9  -4   8   74.09    7.50
  -9   5   8   17.00    5.00
   9  -5   8   -0.60    2.30
   9  -5   8    4.50    4.60
   9   5  -8    2.90    1.80
  -9   5   8    3.70    1.80
  -9  -5   8    0.60    3.60
   9  -5  -8    0.50    3.30
  -9  -5   8    3.20    2.20
   9   5   8    0.90    2.10
  -9  -5   8    4.50    5.60
  -9   6   8    5.70    2.10
   9   6  -8    6.00    2.10
   9  -6   8    7.20    5.50
   9  -6   8    0.60    2.90
  -9  -6   8    6.80    2.80
  -9  -6   8    6.50    6.70
  -9  -6   8    1.10    4.00
   9  -7   8    1.30   10.60
   9  -7   8   -2.70    5.80
  -9  -7   8   -5.40    3.70
  -9  -7   8    2.60    7.80
   9  -8   8    4.90   12.50
  -9  -8   8   13.80    9.70
   9  -9   8    2.50   14.20
  -9  -9   8   -1.20    9.80
   9   0   9  126.69   10.10
   9   0  -9  128.69    6.60
  -9   0   9  120.99   11.00
  -9   0   9  139.39   11.00
   9   0  -9   98.59   10.70
  -9   0  -9  135.49    9.70
  -9   0  -9  125.39   10.50
   9   0  -9  128.39   10.40
   9   0   9  128.79    9.90
  -9  -1  -9   -1.20    3.20
  -9   1   9    0.60    3.10
   9   1  -9    0.40    1.60
  -9   1   9   -0.90    3.00
  -9  -1  -9    4.00    3.50
  -9   1   9    1.10    1.70
   9  -1   9    2.00    3.10
   9  -1   9   -0.60    2.30
   9   1  -9   -0.30    2.50
   9   1  -9   -2.30    3.40
   9   1  -9    1.40    2.80
  -9  -1   9   -0.80    2.90
  -9  -1   9    0.60    1.20
  -9   1  -9    5.50    3.10
   9  -1  -9    1.10    1.70
  -9   1  -9    0.50    1.90
   9  -1  -9    0.80    3.10
  -9  -1   9    1.40    2.10
   9   1   9    2.00    2.30
   9   1   9   -1.40    2.80
  -9  -1   9   -2.80    3.10
   9  -2   9   57.99    6.60
  -9   2   9   64.29    5.70
   9   2  -9   62.49    4.20
  -9   2   9   49.10    7.80
  -9  -2  -9   46.90    7.30
   9   2  -9   64.69    6.70
   9  -2   9   62.19    7.00
   9   2  -9   51.69    7.40
  -9  -2   9   51.39    7.30
   9  -2  -9   40.10    7.00
   9  -2  -9   63.29    4.60
   9   2   9   63.59    5.80
  -9  -2   9   62.79    6.70
  -9  -2   9   62.09    4.10
   9  -2  -9   55.19    6.30
  -9   2  -9   67.89    6.80
   9  -3   9   -0.40    3.00
   9  -3   9    3.90    3.80
  -9  -3  -9    2.90    2.00
   9   3  -9   -1.30    4.00
   9  -3   9    0.20    2.60
  -9   3   9    2.50    1.80
  -9   3   9   -1.50    3.50
   9   3  -9    0.70    1.70
  -9  -3  -9   -2.50    4.40
  -9  -3   9    1.90    2.60
  -9  -3   9   -5.20    3.50
   9  -3  -9    6.20    4.70
   9   3   9    0.70    2.20
  -9  -3   9    0.90    1.70
   9  -3  -9    2.80    2.90
   9  -3  -9    2.70    2.20
  -9   3  -9    0.20    3.20
  -9   4   9   71.99    9.80
   9   4  -9   88.99    5.20
   9  -4   9   99.79    9.50
  -9  -4  -9   86.59    4.70
   9  -4   9   76.09    6.60
  -9   4   9   89.09    7.10
   9  -4  -9   83.19    6.60
   9   4   9   86.19    7.30
  -9  -4   9   92.09   11.50
  -9  -4   9   90.59    9.10
  -9  -4   9   79.49    5.70
  -9   5   9    0.70    4.00
   9   5  -9   -0.20    1.90
  -9   5   9    2.10    1.90
   9  -5   9    4.20    4.80
   9  -5   9   -3.50    2.40
   9  -5  -9    2.50    3.40
   9   5   9   -0.20    2.20
  -9  -5   9    0.30    5.50
  -9  -5   9    1.40    2.20
  -9  -5   9   -3.80    3.90
   9   6  -9   26.70    3.00
   9  -6   9   20.90    4.00
   9  -6   9   30.20    7.20
  -9  -6   9   15.20    5.20
  -9  -6   9   37.90    9.10
  -9  -6   9   21.10    3.50
   9  -7   9   -2.90    6.00
   9  -7   9    2.10   11.30
  -9  -7   9    3.20    8.00
  -9  -7   9   -5.00    4.30
   9  -8   9   20.00   14.50
  -9  -8   9   30.30   11.00
   9   0 -10    6.80    3.80
   9   0  10   11.50    3.60
  -9   0  10    9.60    4.10
   9   0 -10    8.70    2.10
  -9   0  10    6.20    3.80
  -9   0 -10   11.30    2.60
  -9   0 -10   13.40    4.00
   9   1 -10  383.36   25.50
  -9   1  10  381.06   26.50
   9   1 -10  382.06   25.90
   9   1 -10  363.86   16.00
  -9  -1 -10  345.97   25.60
   9  -1  10  356.56   25.10
   9  -1 -10  379.16   25.00
  -9  -1  10  398.56   17.40
  -9   1 -10  383.86   25.20
   9  -1 -10  345.97   16.20
  -9  -1  10  391.96   25.80
  -9   1 -10  374.06   25.40
   9   1  10  367.96   24.90
   9   2 -10   14.40    2.30
   9   2 -10    6.80    4.60
  -9   2  10   11.40    4.50
  -9  -2 -10   11.80    4.40
   9  -2  10   10.40    4.20
   9  -2 -10    8.10    3.70
  -9  -2  10   15.10    2.00
  -9  -2  10    9.30    4.50
   9  -2 -10   15.40    2.60
  -9   2 -10   13.00    4.00
   9   2  10   14.20    3.20
  -9   3  10  317.77   23.60
   9   3 -10  324.57   22.20
   9  -3  10  304.47   21.90
   9   3 -10  313.77   13.70
  -9   3 -10  300.27   21.60
  -9  -3  10  314.97   15.20
  -9  -3  10  319.67   22.20
   9  -3 -10  301.17   14.40
   9   3  10  312.57   21.00
   9  -3 -10  311.77   20.70
   9  -4  10   15.40    5.20
   9   4 -10   11.60    2.30
   9  -4  10    9.30    3.10
  -9  -4 -10   12.70    1.90
  -9   4  10   11.20    4.90
   9   4  10   10.40    3.00
  -9  -4  10    7.20    4.60
  -9  -4  10    7.80    2.30
   9  -4 -10   11.10    3.20
   9  -5  10  217.18   17.00
   9  -5  10  195.38   12.40
   9   5 -10  214.78    9.90
  -9  -5  10  215.18   16.40
  -9  -5  10  222.88   20.00
   9   5  10  205.78   14.70
  -9  -5  10  203.18   11.40
   9  -5 -10  199.98   11.80
   9  -6  10    9.50    6.50
   9   6 -10    1.50    2.20
  -9  -6  10    5.30    7.20
   9  -6 -10    7.10    4.60
  -9  -6  10    2.70    2.70
  -9  -6  10   -3.20    4.60
   9  -7  10  110.99   13.40
  -9  -7  10  111.39   11.40
  -9  -7  10  118.49   16.60
   9  -8  10    1.00   13.40
  -9  -8  10   23.90   11.00
   9   0 -11   28.30    3.10
   9   0 -11   25.90    5.00
  -9   0 -11   37.20    6.10
   9   1 -11   -2.40    3.90
   9  -1  11    4.50    3.70
  -9  -1 -11    8.10    4.10
   9   1 -11    3.40    3.00
   9   1 -11    4.90    2.00
  -9   1 -11    2.50    3.60
   9  -1 -11    2.90    2.10
   9  -1 -11   -1.10    3.50
  -9  -1  11    0.10    4.00
   9  -2  11   22.30    4.90
  -9   2  11   20.20    5.10
   9   2 -11   22.60    2.70
   9   2 -11   15.10    5.10
  -9  -2 -11   19.80    5.20
  -9  -2  11   19.60    5.20
  -9   2 -11   21.90    4.70
   9  -2 -11   21.30    3.00
   9  -2 -11   21.60    4.50
  -9  -2  11   21.60    2.40
   9  -3  11    3.00    4.30
  -9  -3 -11   -1.60    1.50
   9   3 -11   -5.80    4.40
   9   3 -11    2.90    2.00
  -9   3  11   -1.30    3.60
   9  -3 -11    1.20    2.40
  -9  -3  11   -2.60    4.30
  -9   3 -11    1.20    3.70
  -9  -3  11    0.70    1.80
   9  -4  11   21.20    5.70
  -9  -4 -11   17.60    2.20
   9  -4  11   16.50    3.60
  -9   4  11   19.20    5.30
   9   4 -11   17.10    2.70
  -9  -4  11   18.50    2.80
  -9  -4  11   11.20    5.20
   9   4  11   16.80    3.60
   9  -4 -11   17.70    3.60
   9  -5  11    3.00    5.30
   9   5 -11    8.60    2.50
  -9  -5  11   -0.40    4.80
  -9  -5  11    4.70    2.60
   9  -5 -11    4.40    3.60
  -9  -5  11    8.30    6.80
   9  -6  11    9.00    6.10
   9   6 -11    5.10    2.50
  -9  -6  11   -0.40    5.20
  -9  -6  11    7.10    7.70
   9  -6 -11   12.30    4.70
  -9  -6  11    7.10    3.00
  -9  -7  11    4.30    8.80
   9  -8  11   -5.90   13.00
  -9  -8  11    3.00    9.90
  -9   0 -12    1.40    4.00
   9   0 -12   -2.10    3.90
   9   0 -12   -0.90    2.00
   9   1 -12   69.89    5.10
  -9  -1 -12   69.09    8.50
   9  -1  12   65.89    7.90
   9   1 -12   67.69    8.30
   9  -1 -12   72.49    8.00
   9  -1 -12   75.79    5.20
  -9   1 -12   74.99    8.30
   9   2 -12   -1.50    4.50
  -9  -2 -12    3.40    4.40
   9   2 -12    0.80    2.10
   9  -2  12   -1.30    4.20
  -9   2 -12   -2.10    3.90
   9  -2 -12   -2.50    3.80
  -9  -2  12   -1.50    4.30
   9  -2 -12   -0.10    2.20
   9   3 -12   51.79    8.50
   9  -3  12   58.09    8.30
   9   3 -12   66.99    4.90
  -9  -3 -12   63.59    4.40
   9  -3 -12   72.69    5.50
  -9  -3  12   53.59    8.50
  -9   3 -12   64.99    7.90
   9  -4  12   -3.60    4.80
  -9  -4 -12   -1.00    1.60
   9   4 -12   -1.20    2.20
  -9  -4  12   -9.20    4.60
  -9  -4  12   -1.80    2.20
   9  -4 -12   -0.10    2.90
   9  -5  12   42.20    7.80
   9   5 -12   35.50    3.70
   9  -5 -12   41.10    5.30
  -9  -5  12   42.40    9.70
  -9  -5  12   32.70    3.90
  -9  -5  12   36.60    7.30
   9  -6  12   -2.60    6.10
   9   6 -12   -3.20    2.50
   9  -6 -12    2.50    4.40
  -9  -6  12    1.00    7.70
  -9  -6  12   -6.50    5.40
  -9  -7  12   36.60   11.10
   9   0 -13  262.77   12.70
  -9   0 -13  282.17   20.30
   9   0 -13  274.77   19.80
  -9  -1 -13   31.90    6.20
   9   1 -13   25.50    3.30
   9   1 -13   22.40    6.00
   9  -1 -13   26.70    3.40
   9  -1 -13   27.50    5.60
  -9   1 -13   28.00    5.70
   9  -2  13  247.48   18.60
  -9  -2 -13  212.78   19.00
   9   2 -13  248.18   11.80
   9   2 -13  253.87   19.00
  -9  -2 -13  265.07   11.70
   9  -2 -13  246.78   12.20
  -9   2 -13  253.17   18.70
   9  -2 -13  275.47   18.30
   9   3 -13   23.00    3.20
  -9  -3 -13   30.40    3.10
   9  -3  13   32.30    6.50
   9   3 -13   28.20    6.30
   9  -3 -13   17.70    4.40
   9  -3 -13   30.20    3.90
  -9  -3  13   22.50    6.40
   9  -4  13  180.38   15.80
   9   4 -13  182.68    9.50
   9  -4 -13  188.78   10.60
  -9  -4  13  193.78   16.10
   9   5 -13   15.80    3.20
   9  -5  13   15.10    6.50
  -9  -5  13    6.20    6.20
  -9  -5  13   22.80    8.80
   9  -5 -13   15.90    4.30
   9   6 -13  125.89    7.70
   9  -6 -13  116.99   10.00
  -9  -6  13  147.19   18.20
  -9  -7  13   13.60   10.30
   9   0 -14    0.20    2.40
  -9   0 -14    0.50    4.60
   9   0 -14   -0.70    4.80
  -9  -1 -14   16.10    2.80
  -9  -1 -14   19.60    5.70
   9   1 -14   10.80    5.50
   9   1 -14   10.80    2.80
   9  -1 -14   14.70    3.10
  -9   1 -14   14.70    5.40
   9  -1 -14   16.70    5.40
  -9  -2 -14   12.00    5.60
   9   2 -14   15.70    3.00
   9   2 -14   10.70    6.00
  -9  -2 -14   14.20    2.70
   9  -2 -14   12.80    3.10
  -9   2 -14   14.50    5.40
   9   3 -14    8.60    2.80
  -9  -3 -14   12.30    2.50
   9  -3  14    8.10    5.80
  -9  -3 -14   -3.20    5.40
   9  -3 -14    4.40    4.00
   9  -3 -14   11.20    3.30
   9  -4  14    0.50    5.80
   9   4 -14    4.00    2.70
   9  -4 -14    5.80    3.40
  -9  -4  14   -7.00    5.70
   9  -5  14    4.60    6.50
   9   5 -14    4.90    2.90
  -9  -5  14   -1.90    6.30
   9  -5 -14    8.50    4.10
   9   6 -14    0.20    3.00
  -9  -6  14    9.50    9.30
  -9   0 -15   47.00    5.00
   9   0 -15   52.59    5.10
  -9   0 -15   53.79    8.70
   9   0 -15   51.59    8.60
  -9  -1 -15    6.40    5.40
   9   1 -15   -1.20    5.30
  -9  -1 -15   -0.10    2.20
   9   1 -15    0.30    2.60
   9  -1 -15    5.90    5.30
  -9   1 -15   -2.10    4.90
   9  -1 -15    0.40    2.80
   9   2 -15   65.49    5.50
   9   2 -15   67.99    9.80
  -9  -2 -15   51.89    9.40
  -9  -2 -15   62.69    5.20
   9  -2 -15   67.99    6.00
  -9   2 -15   56.59    9.00
  -9  -3 -15   -1.90    2.10
   9   3 -15   -0.10    2.70
   9  -3 -15   -4.20    2.90
   9  -4  15   26.70    7.50
   9   4 -15   35.60    4.10
  -9  -4  15   27.60    8.10
   9  -4 -15   37.00    5.00
   9   5 -15   -2.00    2.90
   9  -5 -15   -0.60    3.90
   9   0 -16    5.00    5.90
   9   0 -16    5.60    3.00
  -9   0 -16    5.50    5.80
  -9   0 -16    0.50    3.10
  -9  -1 -16  169.88    9.20
  -9  -1 -16  151.38   15.20
   9   1 -16  176.08   15.10
   9   1 -16  163.58    9.30
  -9   1 -16  168.18    9.50
   9  -1 -16  166.38    9.50
  -9   1 -16  169.08   15.10
   9   2 -16    9.00    3.30
   9   2 -16   11.70    6.50
  -9  -2 -16   10.10    2.90
  -9   2 -16    8.60    3.50
   9  -2 -16   10.40    3.40
  -9   2 -16    6.50    6.00
   9   3 -16  136.99    8.40
  -9  -3 -16  140.99    8.20
   9  -3 -16  147.19    9.20
   9   4 -16    1.60    3.10
   9  -4 -16   -0.60    3.60
   9   0 -17   15.70    3.70
  -9   0 -17   14.40    3.50
   9   1 -17    0.40    3.10
  -9  -1 -17    4.50    2.80
   9  -1 -17    3.90    3.40
  -9   1 -17    1.70    3.40
   9   2 -17   12.50    3.60
  -9  -2 -17   16.20    3.30
  -9   2 -17    6.80    3.70
   9  -2 -17   13.00    3.90
  -9   2 -17    6.00    6.60
  -9  -3 -17    1.40    2.70
   9   3 -17    5.00    3.40
  -9   3 -17    0.60    3.60
   9  -3 -17    0.70    3.60
   9   0 -18   -3.90    3.20
  -9   0 -18   -1.10    2.90
  10   0   0 1628.84  110.29
  10   0   0 1508.65  109.89
 -10   0   0 1938.11  110.29
 -10   0   0 1766.22  109.99
 -10   0   0 1650.23  109.09
 -10   0   0 1846.72  110.19
 -10   1   0  135.19   13.70
 -10  -1   0  200.08   15.50
  10   1   0  178.88   15.60
  10  -1   0  189.98   14.50
  10   1   0  196.28   15.00
  10   2   0  866.41   56.59
 -10  -2   0  913.01   56.89
 -10  -2   0  868.81   57.79
  10   2   0  850.81   57.39
 -10  -2   0  904.31   55.89
 -10  -2   0  825.22   55.99
  10   3   0  110.29    8.80
 -10  -3   0  100.89    9.30
  10  -3   0  106.19   12.10
  10   3   0   82.99    9.70
  10  -3   0  114.59    8.50
 -10  -3   0   94.89    7.50
  10  -3   0  109.69    6.10
 -10  -3   0  101.69   11.10
 -10   3   0   84.29    8.80
  10   3   0  139.99   14.10
 -10  -3   0   99.59   11.50
 -10   3   0  105.09    9.50
 -10  -4   0  756.02   42.70
  10   4   0  762.52   43.30
  10   4   0  631.14   46.40
 -10  -4   0  561.24   43.60
 -10   4   0  635.94   44.40
  10   4   0  605.84   44.80
 -10   4   0  640.84   43.20
 -10  -4   0  708.93   47.40
  10  -4   0  710.83   31.10
  10   5   0  146.59   10.00
 -10   5   0  130.89   11.60
  10   5   0  111.29   12.10
 -10  -5   0  131.69   16.10
  10  -5   0  129.99    7.80
  10   6   0  405.76   32.40
  10  -6   0  434.16   22.10
 -10  -6   0  419.26   36.00
  10   6   0  481.15   29.60
 -10   6   0  507.65   32.20
  10   7   0   55.99    9.60
 -10   7   0   38.50    7.20
  10  -7   0   27.00    4.20
 -10  -7   0   37.60   11.60
  10   7   0   41.60    5.20
  10  -7   0   58.09   16.70
 -10  -8   0  234.58   25.40
  10  -8   0  179.38   12.20
 -10  -9   0   55.99   16.40
  10  -9   0   72.29   23.80
 -10 -10   0  122.99   23.50
 -10   0  -1  128.69   10.50
 -10   0  -1  108.09   10.20
 -10   0  -1  123.19   10.90
  10   0   1   90.99   11.40
  10   0  -1   94.29   12.80
  10   0   1   86.09    9.70
 -10   0  -1  101.99   12.10
 -10   0   1  115.29    9.80
  10   0  -1  120.59   12.30
 -10   0   1  113.49   10.90
  10   0   1  111.09   13.10
  10   1  -1    1.80    5.70
 -10  -1  -1    7.90    3.70
 -10  -1  -1   13.20    4.50
 -10  -1  -1    0.00    2.20
  10   1  -1   -0.40    3.60
 -10   1   1    0.30    2.00
  10   1  -1    1.40    2.90
  10  -1   1   -4.50    3.70
 -10   1   1    7.70    4.00
  10  -1   1    2.90    4.60
 -10   1   1    2.80    2.90
  10   1  -1    7.50    3.90
 -10  -1  -1   -5.70    4.30
  10  -1   1    4.20    3.30
 -10   1  -1   -0.90    1.80
 -10  -1   1    4.30    2.90
  10  -1  -1   -0.50    5.00
 -10  -1   1    4.50    3.20
 -10  -1   1    4.80    3.40
  10   1   1    1.50    2.60
  10   1   1    3.00    4.80
 -10   1  -1   -2.10    5.40
 -10   1  -1    1.70    2.80
 -10  -1   1   -3.80    3.50
  10  -1  -1   -4.00    5.00
  10  -1  -1    1.00    2.50
 -10  -2  -1  132.09    9.40
 -10   2   1  110.99    9.90
  10  -2   1   96.69    9.70
 -10   2   1   96.29   10.40
  10  -2   1  127.89   10.60
 -10  -2  -1   95.89   11.30
 -10  -2  -1  120.69    9.70
  10   2  -1  158.28   14.70
  10   2  -1  133.89   10.30
  10   2   1  143.29   13.30
  10  -2  -1  130.19    9.20
  10  -2  -1  118.09   12.70
  10   2   1  101.79   10.50
 -10  -2   1  126.09   11.20
 -10  -2   1  121.39    9.50
 -10  -2   1  126.49   11.10
 -10   2  -1  119.49   10.10
  10  -3   1    3.40    2.40
  10   3  -1    0.90    2.20
  10  -3   1    0.40    4.80
  10   3  -1    1.00    6.00
 -10   3   1    3.80    2.90
 -10  -3  -1    3.70    5.00
 -10   3   1    1.60    2.10
 -10  -3  -1    0.40    3.20
  10   3  -1    8.60    4.50
 -10  -3  -1    3.00    3.60
  10  -3   1    7.10    5.60
 -10   3  -1    1.90    2.30
 -10   3  -1    3.50    2.60
  10  -3  -1    4.10    2.70
 -10  -3   1   -1.40    2.90
 -10  -3   1    1.60    1.60
  10   3   1   -0.60    2.50
 -10   3  -1    7.90    3.80
 -10  -3   1    0.50    1.90
  10   3   1    1.00    2.70
  10  -3  -1    1.30    5.70
 -10  -3   1    6.20    4.30
  10  -3  -1    2.70    1.40
  10  -3  -1    0.30    4.40
  10   3   1   10.30    5.30
 -10  -3   1    2.00    3.90
 -10  -4  -1   65.89   10.60
 -10   4   1   46.40    6.70
  10  -4   1   59.99    4.60
  10  -4   1   68.39   10.60
 -10  -4  -1   54.39    6.60
 -10   4   1   46.80    6.20
  10  -4   1   79.59   10.90
 -10  -4  -1   55.39    6.10
  10   4  -1   78.69    9.50
  10   4  -1   43.10    8.60
  10   4  -1   66.99    5.80
 -10  -4   1   56.09   10.10
  10   4   1   87.19   11.90
 -10  -4   1   60.09    6.10
 -10   4  -1   46.30    4.40
 -10   4  -1   60.89    6.50
  10  -4  -1   66.09    4.40
 -10  -4   1   74.19    9.80
  10   4   1   44.00    6.60
  10  -4  -1   65.99    5.40
  10   4   1   56.69    6.20
  10  -4  -1   53.39    6.90
  10  -4  -1   99.89   15.70
  10   5  -1   14.70    5.50
 -10   5   1    2.20    2.70
 -10  -5  -1    4.30    3.00
 -10  -5  -1    6.60    6.90
  10  -5   1   -0.20    7.80
  10   5  -1    8.80    2.60
  10  -5   1    5.30    2.10
  10  -5   1    9.10    2.20
 -10   5  -1    4.90    1.60
  10  -5  -1   12.70    9.70
  10   5   1    9.00    3.80
 -10  -5   1    5.00    2.30
  10   5   1    5.60    2.50
 -10   5  -1   14.00    5.20
 -10  -5   1    8.90    6.30
  10  -5  -1    6.40    2.10
 -10  -6  -1   50.29    5.80
 -10  -6  -1   65.99   13.00
  10   6  -1   64.29    6.20
  10   6  -1   88.69   11.30
  10  -6   1   61.19    5.60
  10  -6   1   63.79   14.30
  10   6   1   62.79    6.20
  10  -6  -1   57.79    5.40
 -10  -6   1   72.09   12.10
  10   7  -1   16.70    6.60
  10  -7   1   -0.30    2.50
 -10  -7  -1    1.30    9.30
  10  -7   1    5.40   11.70
 -10   7   1    3.10    3.20
  10  -7  -1   -0.40    2.60
 -10   7  -1   -4.80    5.50
  10   7   1    6.30    2.80
  10   7   1    1.80    4.50
 -10  -7   1    7.70    8.70
  10  -7  -1    1.90   13.20
 -10  -8  -1   27.30   13.10
  10  -8   1   10.50    3.60
  10  -8   1   16.70   15.70
 -10  -8   1   21.50   11.30
  10  -8  -1   20.70   17.30
 -10  -9  -1   16.20   14.00
  10  -9   1   -2.30   16.10
 -10  -9   1   11.60   12.20
  10  -9  -1    7.50   18.40
 -10 -10  -1    8.90   15.20
 -10 -10   1    0.80   13.70
 -10   0  -2   -4.30    4.10
  10   0  -2    1.80    2.80
 -10   0  -2    0.30    2.30
 -10   0   2    1.20    2.00
 -10   0   2    5.00    3.40
  10   0  -2   -2.80    5.00
 -10   0   2   -2.90    3.60
 -10   0  -2    0.40    2.70
  10   0   2    0.50    3.60
  10   0  -2    5.80    4.10
 -10   0  -2    1.50    2.60
 -10   0  -2    0.90    3.00
 -10   0   2    2.10    3.40
  10   0   2   -5.60    4.40
  10   0   2   -0.80    2.20
  10   1  -2  103.59   11.70
 -10  -1  -2   73.29    6.70
  10   1  -2   83.89    8.90
  10   1  -2   81.39    9.30
  10  -1   2   67.99    9.00
 -10   1   2   89.69    7.70
 -10  -1  -2   85.89    9.10
  10   1  -2   81.49    8.40
  10  -1   2   74.09    8.20
  10  -1   2   80.69    8.80
  10  -1  -2  102.39   10.80
  10   1   2   72.09    7.70
 -10  -1   2   84.99    8.40
 -10  -1   2  104.39    7.80
 -10   1  -2   73.89    9.80
 -10  -1   2   86.99    9.70
  10  -1  -2   98.89    7.90
 -10  -1   2   82.19    8.70
  10   1   2   72.79    9.00
 -10   1  -2   79.79    8.00
 -10   1  -2   87.39    6.70
 -10   2   2  199.48   14.70
 -10  -2  -2  211.58   13.90
 -10  -2  -2  215.38   16.70
  10  -2   2  228.88   15.10
 -10  -2  -2  182.48   12.00
  10   2  -2  217.68   17.40
  10   2  -2  197.38   17.90
  10   2  -2  203.78   10.90
 -10  -2  -2  175.38   14.50
  10   2  -2  198.88   14.80
  10   2   2  172.08   14.70
 -10   2  -2  206.28   14.80
 -10  -2   2  207.78   15.60
  10  -2  -2  220.88   16.20
 -10  -2   2  206.58   14.70
 -10   2  -2  241.28   17.00
 -10  -2   2  201.28   15.30
 -10   2  -2  186.48   11.40
  10  -2  -2  205.48   13.70
 -10   3   2   82.49    7.40
 -10   3   2   77.49    8.90
 -10  -3  -2   75.49    6.80
  10   3  -2   91.09    7.40
  10  -3   2   96.19    7.40
  10   3  -2   75.79   11.90
  10   3  -2  106.59   11.00
 -10  -3  -2   71.89    8.90
  10  -3   2   72.09   10.30
 -10  -3  -2   84.69    7.90
 -10   3  -2   92.69    7.70
 -10  -3   2   82.59    6.70
 -10  -3   2   93.19    9.60
 -10  -3   2   80.09    8.10
  10  -3  -2   76.39    8.30
  10  -3  -2   84.99    7.80
  10  -3  -2   95.39    4.90
 -10   3  -2   78.79    5.80
  10   3   2   78.09    7.60
  10   3   2   74.49    8.20
 -10  -3   2   85.69    8.10
  10   4  -2    0.20    5.70
 -10  -4  -2    5.40    2.30
 -10   4   2    4.60    2.30
 -10  -4  -2    3.60    2.90
  10  -4   2    3.90    6.50
 -10  -4  -2    3.70    2.80
 -10  -4  -2    1.00    6.90
  10   4  -2   11.70    5.50
  10  -4   2    4.30    2.00
 -10   4   2    4.90    3.20
  10   4  -2    3.80    2.30
  10  -4   2    3.40    2.70
  10  -4   2    8.30    5.90
  10   4   2    2.50    2.80
 -10   4  -2    4.60    4.70
  10   4   2   14.60    5.50
 -10   4  -2    7.50    2.90
  10  -4  -2    5.10    1.60
 -10  -4   2    9.60    4.70
  10  -4  -2   10.20    8.80
 -10  -4   2   13.80    4.90
  10   4   2    5.70    2.90
 -10  -4   2    1.50    2.90
 -10   4  -2    3.70    1.80
 -10  -5  -2   63.79   12.60
  10  -5   2   65.59   12.00
  10  -5   2   59.09    5.40
  10  -5   2   55.19    4.80
 -10  -5  -2   47.30    5.60
  10   5  -2   78.29   10.70
  10   5  -2   57.69    5.60
 -10   5   2   43.90    5.70
 -10   5  -2   49.70    3.60
 -10   5  -2   55.09    9.70
 -10  -5   2   72.69   10.10
  10   5   2   58.79    6.10
 -10  -5   2   58.19    9.30
 -10  -5   2   54.89    5.60
  10  -5  -2   53.39    4.50
  10   5   2   48.40    6.40
  10   6  -2   43.30    8.80
 -10   6   2   21.10    3.90
  10  -6   2   26.40   11.70
 -10  -6  -2   29.10   11.20
  10  -6   2   25.70    3.60
  10   6  -2   35.50    4.60
 -10  -6  -2   31.20    4.00
  10   6   2   23.50    4.90
 -10   6  -2   20.90    7.10
  10   6   2   34.50    4.70
 -10  -6   2   48.70    9.60
  10  -6  -2   30.20    3.60
  10  -7   2   23.20    4.10
  10   7  -2   42.90    8.90
  10  -7   2   24.10   13.00
 -10  -7  -2   40.10   13.60
  10   7   2   39.10    5.00
 -10  -7   2   33.80   10.20
  10  -7  -2   28.50    4.20
  10  -7  -2   64.69   19.10
  10  -8   2    2.20    3.30
 -10  -8  -2    8.80   12.70
  10  -8   2    9.80   14.00
  10  -8  -2    4.00   16.50
 -10  -8   2   19.20   10.80
  10  -9   2    5.50   16.20
 -10  -9  -2   12.80   14.80
 -10  -9   2   18.80   12.60
 -10 -10  -2   -5.70   16.10
  10 -10   2   -5.50   18.00
 -10 -10   2    4.40   13.30
 -10   0   3  147.29   11.70
 -10   0   3  114.29   10.60
  10   0  -3  173.58   13.50
  10   0   3  143.39   11.80
 -10   0  -3  162.88   11.40
 -10   0  -3  111.09   11.20
 -10   0   3  132.89   12.30
 -10   0  -3  167.28    9.20
 -10   0  -3  169.08   12.40
  10   0   3  127.59   11.10
  10   0   3  125.09   12.50
 -10   0   3  154.78   13.30
  10   0  -3  141.59    7.70
 -10  -1  -3  987.50   59.19
  10  -1   3  985.00   59.79
  10   1  -3  980.10   42.60
 -10  -1  -3 1056.09   59.79
 -10   1   3  958.90   59.49
 -10  -1  -3  876.41   59.99
  10   1  -3  854.51   59.39
  10   1  -3  845.02   37.50
  10  -1   3  820.62   59.49
  10   1  -3  871.71   59.99
  10   1  -3  994.20   60.89
 -10  -1  -3  977.40   44.40
 -10   1  -3  894.61   59.19
  10   1   3  826.42   59.49
 -10  -1   3 1050.39   59.59
 -10   1  -3  896.71   60.19
 -10  -1   3  825.32   59.39
  10  -1  -3 1039.20   60.09
 -10  -1   3  994.30   60.29
  10   1   3  780.52   59.29
 -10   1  -3 1018.10   60.39
  10  -1  -3  956.80   59.19
 -10  -1   3  849.72   60.09
 -10   1  -3  963.40   44.00
 -10   2   3  157.08   11.00
  10   2  -3  134.29    7.20
  10   2  -3  161.68    8.40
  10  -2   3  160.38   11.40
  10   2  -3  137.89   13.60
  10  -2   3  119.69   12.10
  10  -2   3  124.49   11.80
 -10   2   3  145.79   12.20
 -10  -2  -3  157.18   10.10
 -10  -2  -3  128.29   11.00
 -10  -2  -3  149.39    9.20
 -10  -2  -3  125.59   10.90
  10   2   3  118.09   11.80
 -10   2  -3  150.58    8.60
 -10  -2   3  150.78   11.20
 -10  -2   3  160.98   11.60
 -10   2  -3  126.89   12.10
  10  -2  -3  172.78   14.80
  10  -2  -3  147.59   11.70
 -10   2  -3  148.79   11.10
  10   2   3  150.98   11.10
 -10  -2   3  154.28   12.00
 -10  -2   3  163.88   12.20
 -10  -2   3  121.59   11.90
 -10   3   3  771.82   50.19
  10   3  -3  702.43   31.70
  10   3  -3  858.11   50.49
 -10  -3  -3  826.62   49.90
 -10  -3  -3  627.44   50.79
 -10  -3  -3  771.72   37.80
  10   3  -3  806.02   52.19
  10   3   3  770.12   50.39
 -10   3  -3  787.42   36.70
  10  -3  -3  814.22   49.80
 -10  -3   3  816.82   52.09
  10  -3  -3  817.42   35.50
 -10  -3   3  809.12   50.09
 -10   3  -3  783.32   50.09
 -10  -3   3  817.62   50.29
  10  -4   3  113.49    7.20
  10   4  -3   84.19   12.20
 -10  -4  -3  108.99    7.80
 -10   4   3  118.59    8.90
  10   4  -3  123.09    9.00
 -10   4   3  134.19   11.70
  10  -4   3  118.69    9.00
  10   4  -3  102.79    5.80
  10   4  -3   98.29   11.50
 -10  -4  -3  120.19    8.30
 -10  -4   3  123.19   11.80
 -10  -4   3  111.69    9.30
 -10  -4   3   87.69   10.50
  10   4   3  120.89    9.20
  10  -4  -3  118.69    6.30
 -10   4  -3  106.79    6.30
  10   4   3   95.39    9.80
 -10   4  -3  124.89    9.30
  10  -5   3  485.15   25.10
 -10   5   3  532.95   33.80
  10   5  -3  553.34   33.90
  10  -5   3  556.84   33.40
 -10  -5  -3  481.05   25.60
  10  -5   3  549.85   36.70
  10  -5  -3  501.15   24.50
  10   5   3  509.55   34.20
  10   5   3  522.55   34.50
 -10  -5   3  517.75   37.50
 -10  -5   3  522.85   33.60
 -10   6   3   58.59    6.30
  10  -6   3   70.89    6.10
 -10  -6  -3   71.49    5.80
  10  -6   3   89.29   15.60
 -10  -6  -3   95.19   17.50
  10  -6  -3   69.19    6.00
 -10  -6   3   75.59   12.40
  10   6   3   69.79    7.20
 -10  -6   3   78.49   10.60
  10   6   3   70.59    7.10
 -10   7   3  257.07   18.90
 -10  -7  -3  260.27   29.90
  10  -7   3  247.58   15.00
 -10  -7   3  293.07   25.60
  10   7   3  314.47   19.30
 -10  -8  -3   42.00   17.10
  10  -8   3   38.30   15.40
  10  -8   3   30.60    5.00
  10  -8  -3   54.29   20.30
 -10  -8   3   38.40   11.80
  10  -9   3  156.68   26.90
 -10  -9  -3  149.59   27.00
 -10  -9   3  149.19   22.00
 -10 -10   3   14.50   13.90
  10   0   4  243.78   17.30
 -10   0  -4  199.68   17.00
  10   0  -4  263.07   11.60
  10   0   4  232.88   18.00
 -10   0  -4  255.17   16.90
 -10   0   4  250.87   18.70
  10   0  -4  261.17   17.90
  10   0   4  229.38   16.90
  10   0  -4  242.48   17.10
  10   0  -4  231.38   11.00
  10   0  -4  204.38   17.50
 -10   0  -4  253.97   13.00
  10   1  -4   43.60    6.50
  10  -1   4   56.59    6.80
  10   1  -4   48.50    7.70
 -10  -1  -4   55.89    5.10
 -10   1   4   46.10    8.40
  10   1  -4   64.39    4.10
 -10   1   4   56.79    5.60
 -10  -1  -4   62.09    6.10
  10  -1   4   43.50    5.90
 -10  -1  -4   56.69    5.10
  10   1  -4   53.89    4.00
  10   1  -4   39.70    6.30
  10  -1   4   52.79    6.60
  10   1  -4   43.90    6.10
  10   1   4   56.59    5.60
  10   1   4   55.49    6.60
  10  -1  -4   57.09    6.90
  10  -1  -4   59.09    5.40
 -10   1  -4   48.20    5.90
  10  -1  -4   52.69    4.70
 -10   1  -4   55.79    6.20
 -10  -1   4   66.19    5.60
 -10  -1   4   48.30    6.30
 -10  -1   4   47.70    7.30
 -10   1  -4   56.79    6.90
 -10  -1   4   46.80    5.80
 -10  -1   4   48.50    6.60
  10  -1  -4   68.29    8.40
 -10   1  -4   55.29    4.70
  10   2  -4    1.60    3.30
 -10  -2  -4    5.60    2.40
 -10   2   4    5.60    2.00
  10   2  -4    4.80    1.60
  10  -2   4   -0.70    2.50
 -10  -2  -4    5.90    2.40
 -10  -2  -4    8.40    4.40
  10  -2   4   12.50    4.00
  10   2  -4    2.60    2.50
 -10  -2  -4    4.00    1.40
  10   2  -4    3.80    1.70
 -10  -2  -4    2.50    2.30
 -10   2   4   10.80    4.00
 -10   2   4    0.70    3.80
  10   2  -4   -0.50    4.20
  10  -2   4    3.10    2.70
 -10  -2   4    3.10    3.30
 -10  -2   4    6.30    2.80
  10  -2  -4    5.80    5.40
 -10  -2   4    2.30    2.90
 -10   2  -4    5.10    2.10
 -10   2  -4    8.70    2.90
  10  -2  -4    1.60    2.90
 -10  -2   4    2.80    2.30
  10   2   4    8.10    3.20
  10  -2  -4    1.90    2.30
 -10  -2   4    1.50    2.40
 -10   2  -4    2.60    2.30
  10   2   4    3.60    2.10
 -10  -3  -4   45.50    4.80
 -10  -3  -4   46.20    4.80
 -10   3   4   48.20    4.70
  10   3  -4   42.80    4.90
  10   3  -4   41.90    6.80
 -10   3   4   68.09    9.00
  10   3  -4   30.30    6.70
  10   3  -4   41.60    3.40
  10  -3   4   48.70    6.90
  10  -3   4   39.20    7.10
 -10  -3   4   58.09    6.60
 -10  -3   4   37.90    6.00
  10  -3  -4   41.10    5.10
  10   3   4   33.50    6.80
 -10   3  -4   45.90    5.40
 -10  -3   4   35.40    5.70
  10   3   4   32.40    5.60
 -10  -3   4   52.59    7.40
 -10   3  -4   42.00    3.80
 -10  -3   4   37.80    4.90
  10   3   4   46.30    4.90
 -10   3  -4   36.60    6.20
  10  -4   4   99.39    8.30
  10  -4   4   90.69    6.60
  10   4  -4  107.59    8.20
  10   4  -4  113.69   10.60
 -10   4   4  102.09    7.80
  10   4  -4   69.69   10.90
  10   4  -4   98.69    5.40
 -10  -4  -4  108.79    7.00
 -10  -4   4  116.49   11.20
 -10  -4   4   98.99    8.70
 -10  -4   4   98.19    7.50
 -10   4  -4   80.89    9.90
 -10   4  -4   94.99    5.70
  10   4   4   98.99    8.00
 -10   4  -4  101.99    8.60
  10   5  -4   29.50    3.20
  10   5  -4   34.20    4.70
 -10   5   4   33.60    3.90
 -10  -5  -4   34.50    4.30
  10  -5   4   38.60    5.00
  10  -5   4   27.70    3.60
  10  -5   4   17.70    9.10
  10   5  -4   24.40    7.30
 -10  -5   4   25.40    4.50
  10   5   4   21.20    4.90
 -10   5  -4   19.80    5.50
 -10  -5   4   37.00    7.40
  10  -5  -4   27.00    3.20
  10   5   4   36.30    4.60
 -10  -6  -4    5.40    2.40
  10  -6   4    3.00    2.50
 -10   6   4    4.10    2.00
  10   6  -4    0.50    5.60
  10  -6   4    3.20    9.50
  10   6   4    6.10    2.90
  10   6   4    1.00    3.20
 -10  -6   4    2.30    2.80
 -10  -6   4    6.00    6.20
  10  -7   4    8.40   11.60
  10  -7   4    9.80    3.40
  10   7  -4    9.90    6.80
  10   7   4   10.10    3.70
  10  -7  -4   16.80   16.70
 -10  -7   4   24.80    8.70
  10  -8   4   -2.60   13.00
  10  -8   4   -0.90    3.10
 -10  -8   4   10.60    9.30
  10  -9   4   -1.30   14.80
 -10  -9   4   12.10   11.20
 -10   0  -5  204.28   14.10
  10   0   5  190.68   14.20
  10   0  -5  170.38   14.90
 -10   0   5  202.08   15.80
  10   0  -5  209.98   14.90
 -10   0  -5  178.38   14.50
 -10   0  -5  206.58   10.90
  10   0  -5  197.58    9.40
 -10   0  -5  220.88   14.60
  10   0  -5  215.58    9.50
  10   0   5  209.68   14.60
  10   0  -5  191.38   14.30
 -10   0   5  159.38   15.20
  10  -1   5    7.30    3.20
 -10  -1  -5    1.80    2.20
 -10  -1  -5    6.40    3.80
  10   1  -5    5.90    1.60
  10   1  -5    4.20    1.40
  10  -1   5    3.60    3.20
  10   1  -5    1.30    2.60
  10   1  -5   -1.30    3.50
 -10  -1  -5    6.40    2.80
 -10   1   5    0.50    3.80
  10   1  -5    4.80    3.20
  10  -1   5    3.40    2.50
 -10   1   5    2.70    3.30
  10   1  -5    2.50    2.50
 -10  -1  -5    2.30    3.10
 -10  -1  -5    5.10    1.80
 -10   1   5    4.90    2.00
 -10  -1   5    2.40    2.10
 -10   1  -5    5.60    3.40
 -10  -1   5    2.90    3.60
 -10  -1   5    2.70    2.70
 -10   1  -5    1.00    2.00
  10  -1  -5    2.80    1.90
 -10  -1   5    3.20    2.70
 -10   1  -5    5.30    2.30
  10  -1  -5   -1.10    3.00
  10  -1  -5    2.50    3.50
 -10  -1   5    7.10    2.30
  10   1   5    4.20    2.30
  10  -1  -5    3.90    1.80
 -10   1  -5    7.40    2.90
  10   1   5    5.10    2.90
  10   2  -5  111.49    9.10
  10  -2   5  117.99    9.20
 -10  -2  -5  114.19   10.90
 -10  -2  -5  118.59    8.50
  10   2  -5  107.29    5.60
  10  -2   5  107.99    9.70
 -10   2   5  111.49    8.30
 -10  -2  -5  108.49    7.00
 -10  -2  -5   88.89    7.40
  10   2  -5   84.09    9.70
  10   2  -5  123.39    6.60
  10   2  -5   99.79   10.30
 -10   2   5   88.69   11.20
 -10  -2   5  105.49    9.50
 -10  -2   5  104.09    9.00
  10   2   5  111.19    8.40
 -10  -2   5   89.69    9.00
 -10   2  -5  108.09    6.50
 -10   2  -5  102.39    8.80
  10   2   5   99.59    9.30
  10  -2  -5   90.69    6.50
 -10  -2   5   98.89    9.60
 -10  -2   5  118.59    9.50
  10  -2  -5  132.49   12.80
  10  -2  -5  110.49    8.80
  10   3  -5    5.00    1.50
 -10   3   5    1.90    1.70
 -10  -3  -5    9.90    4.60
 -10  -3  -5    2.10    2.30
 -10   3   5   -2.60    3.70
  10  -3   5    0.00    2.80
  10   3  -5    0.00    3.70
  10   3  -5    0.10    4.20
  10   3  -5    4.50    2.10
 -10  -3  -5    3.60    2.00
  10  -3   5    3.40    3.80
 -10   3   5    4.00    3.70
 -10  -3   5    0.70    2.30
 -10  -3   5    1.60    2.30
  10  -3  -5   -0.10    2.50
  10  -3  -5    0.60    2.40
 -10  -3   5    6.60    3.50
 -10  -3   5    0.50    3.20
  10   3   5    4.60    3.50
 -10   3  -5    7.30    2.90
 -10  -3   5    0.70    3.00
  10   3   5    3.40    2.20
 -10   3  -5    1.60    1.80
 -10   3  -5    0.60    2.80
 -10  -4  -5  130.29    7.90
  10   4  -5   99.49   12.20
  10   4  -5  140.19    9.90
  10   4  -5  128.39    6.30
  10  -4   5  107.99    7.80
  10   4  -5  133.49   11.70
  10  -4   5  110.19   11.60
 -10   4   5  128.99    9.20
 -10  -4   5  122.49    9.30
 -10   4  -5  121.19   10.00
 -10   4  -5  116.79   11.30
 -10  -4   5  127.49   10.30
 -10  -4   5  135.49   13.00
  10   4   5  124.89    9.40
 -10  -5  -5   -0.50    2.30
  10  -5   5   -1.90    4.70
  10  -5   5    0.70    2.20
  10   5  -5    2.70    5.00
  10   5  -5    3.30    1.60
 -10   5   5    3.10    1.80
  10   5   5    2.60    2.30
  10   5   5   -2.60    3.70
 -10  -5   5   -1.80    3.00
 -10  -5   5    3.40    4.90
  10  -6   5   26.20   11.20
  10   6  -5   29.10    7.80
 -10  -6  -5   49.10    4.80
 -10   6   5   44.90    4.50
  10  -6   5   30.70    4.30
  10  -6   5   37.30    8.40
  10   6   5   29.50    5.80
 -10  -6   5   55.39    9.50
  10   6   5   45.10    5.20
 -10  -6   5   39.50    5.80
  10  -7   5   -3.70   10.90
  10  -7   5    1.90    3.10
 -10  -7   5    9.10    7.60
  10   7   5    4.70    3.90
  10  -8   5   26.00   15.30
 -10  -8   5   38.90   11.30
  10  -9   5   -8.10   13.80
 -10  -9   5   -2.50   10.10
  10   0  -6  742.63   29.40
  10   0  -6  694.23   46.30
 -10   0  -6  799.72   46.30
  10   0  -6  637.44   46.40
  10   0   6  695.93   46.00
 -10   0  -6  646.84   46.30
  10   0  -6  748.23   46.30
 -10   0   6  592.94   47.20
  10   0   6  742.53   46.40
 -10   0   6  779.52   47.20
 -10   0  -6  756.52   34.10
 -10   0  -6  778.22   46.20
 -10  -1  -6  143.49   10.20
 -10  -1  -6  138.09    8.30
 -10  -1  -6  172.48   12.80
  10   1  -6  131.19   11.50
  10   1  -6  147.69    7.00
  10   1  -6  133.49   11.30
 -10  -1  -6  145.19   10.80
  10  -1   6  148.59   11.40
  10   1  -6  148.59   11.80
 -10   1   6  129.99   12.50
 -10   1   6  149.69   10.60
  10   1  -6  159.78    7.50
  10  -1   6  150.08   11.40
  10   1  -6  124.79   11.20
  10  -1   6  131.69   10.90
  10  -1  -6  137.19   10.40
 -10  -1   6  128.89   11.50
  10   1   6  132.39   11.00
  10  -1  -6  131.59   11.00
  10   1   6  141.59   10.60
 -10   1  -6  157.58   11.50
 -10  -1   6  139.69   11.90
 -10  -1   6  138.19   11.20
  10  -1  -6  129.09    7.30
 -10   1  -6  139.89   10.90
 -10   1  -6  138.19    8.20
 -10   1  -6  144.29   11.20
 -10   2   6  623.04   43.20
 -10   2   6  655.83   40.50
 -10  -2  -6  627.54   30.20
  10   2  -6  703.23   29.40
 -10  -2  -6  653.53   40.20
  10   2  -6  626.64   25.70
  10  -2   6  709.13   41.00
 -10  -2  -6  623.14   39.70
  10   2  -6  648.74   41.30
  10  -2   6  624.24   41.00
  10   2  -6  640.14   41.10
  10   2  -6  553.04   41.60
 -10   2   6  603.44   42.20
 -10  -2   6  602.94   41.00
 -10  -2   6  661.53   41.10
 -10  -2   6  625.74   41.70
 -10   2  -6  644.84   29.80
  10   2   6  642.14   40.50
 -10   2  -6  610.54   40.50
  10  -2  -6  635.54   40.20
  10  -2  -6  576.94   26.40
 -10   2  -6  642.74   41.40
  10   2   6  640.14   40.70
  10  -2  -6  574.14   42.50
 -10  -2   6  627.84   41.20
 -10  -2   6  561.54   41.30
 -10  -3  -6  157.98   10.60
 -10   3   6  153.58   10.80
  10   3  -6  146.29    7.10
 -10   3   6  132.79   13.60
 -10  -3  -6  157.38    8.90
  10   3  -6  152.68   12.70
  10  -3   6  155.78   12.50
  10   3  -6  125.79   12.80
 -10   3  -6  149.59    8.20
 -10   3  -6  151.48   12.20
  10  -3  -6  142.89   10.70
 -10  -3   6  151.88   11.50
  10  -3  -6  136.89   14.80
 -10  -3   6  159.48   13.10
  10   3   6  141.99   11.80
 -10   3  -6  144.59   11.40
 -10  -3   6  152.98   12.00
  10   3   6  153.18   10.80
  10  -3  -6  136.29    8.60
  10   4  -6  455.55   32.30
  10  -4   6  457.55   32.50
 -10   4   6  547.55   33.60
 -10   4   6  487.05   30.90
  10   4  -6  473.55   19.80
  10   4  -6  386.66   33.30
 -10  -4  -6  491.05   23.60
 -10  -4   6  481.55   33.80
 -10   4  -6  458.95   31.30
  10   4   6  487.05   31.00
 -10  -4   6  514.05   31.80
 -10  -4   6  497.25   31.30
  10   5  -6   60.09    4.10
 -10  -5  -6   63.09    5.30
  10  -5   6   49.00    8.20
 -10   5   6   62.89    5.40
  10   5  -6   51.29    9.40
  10  -5   6   51.29    5.40
 -10  -5   6   58.99   10.60
  10   5   6   62.09    5.70
 -10  -5   6   55.69    7.00
  10  -6   6  255.87   27.60
  10  -6   6  232.98   14.70
 -10  -6  -6  278.57   14.40
 -10   6   6  281.87   18.20
 -10  -6   6  282.97   19.10
 -10  -6   6  293.27   23.70
  10   6   6  272.57   18.50
  10  -7   6   55.19    6.50
  10  -7   6   35.40   14.10
 -10  -7   6   60.89    6.80
  10   7   6   48.10    8.60
 -10  -7   6   76.49   13.20
  10  -8   6  156.78   25.90
 -10  -8   6  151.78   19.20
  10  -9   6    6.20   15.80
 -10  -9   6   22.20   11.60
 -10   0   7   56.09    8.10
 -10   0  -7   64.79    5.00
  10   0  -7   55.59    7.20
 -10   0  -7   67.29    6.00
  10   0  -7   52.19    7.50
 -10   0  -7   62.59    7.00
  10   0   7   78.09    7.00
  10   0   7   62.19    6.20
  10   0  -7   62.09    4.30
 -10   0   7   47.70    7.30
  10   0  -7   67.59    7.20
  10   0   7   60.49    4.90
 -10   0  -7   73.29    6.80
  10   1  -7    2.90    3.10
 -10  -1  -7    2.40    1.60
  10   1  -7    0.90    2.50
  10  -1   7    0.00    1.90
  10   1  -7    2.80    1.20
 -10  -1  -7    4.40    2.10
 -10   1   7    1.90    1.80
  10   1  -7   -1.20    3.40
  10  -1   7    4.80    3.10
 -10   1   7    2.70    3.40
  10   1  -7    1.40    1.50
 -10   1   7    0.50    3.50
 -10  -1  -7    0.60    3.40
  10  -1   7    2.30    2.30
 -10  -1  -7    4.30    2.30
  10   1  -7    1.70    2.60
 -10  -1  -7    3.90    3.30
  10  -1  -7   -1.40    2.90
 -10   1  -7    4.10    3.00
  10  -1  -7    1.20    1.20
 -10  -1   7   -0.80    3.20
 -10   1  -7    2.20    3.00
  10   1   7    2.50    2.90
  10  -1  -7    0.90    1.70
 -10  -1   7    1.70    2.10
 -10  -1   7   -0.10    2.80
  10   1   7    2.60    2.20
 -10   1  -7    1.90    2.00
 -10   1  -7    1.90    2.10
 -10   2   7   42.40    4.50
  10   2  -7   39.10    5.40
 -10  -2  -7   36.90    4.10
  10   2  -7   41.50    3.40
 -10   2   7   40.30    6.40
  10  -2   7   35.10    5.40
  10  -2   7   40.10    6.30
  10   2  -7   34.70    5.90
 -10   2   7   32.30    6.30
  10  -2   7   37.50    4.00
  10   2  -7   43.40    4.00
  10   2  -7   28.70    5.30
 -10  -2  -7   43.10    4.90
  10  -2  -7   35.60    4.10
 -10  -2   7   37.60    6.50
  10   2   7   37.70    4.70
 -10  -2   7   36.70    5.60
 -10   2  -7   39.60    5.60
 -10  -2   7   37.10    6.40
  10  -2  -7   34.80    5.40
  10   2   7   40.40    5.80
 -10   2  -7   43.30    5.40
 -10  -2   7   37.50    5.60
  10  -2  -7   30.50    6.20
 -10   2  -7   39.20    4.00
  10   3  -7    4.10    2.70
  10   3  -7    1.30    3.40
  10   3  -7   -1.60    3.90
 -10  -3  -7   12.60    5.30
  10  -3   7    0.60    2.90
 -10  -3  -7    3.30    2.10
 -10  -3  -7    3.70    2.30
  10  -3   7    1.40    3.70
 -10   3   7    2.50    1.70
  10   3  -7    2.10    1.60
 -10   3   7    5.60    4.10
 -10  -3   7    7.10    3.90
 -10  -3   7   -0.30    2.60
 -10   3  -7    3.60    3.10
 -10  -3   7    0.60    2.40
  10  -3  -7    1.00    2.50
  10   3   7    2.20    2.10
 -10  -3   7   -2.60    3.30
  10  -3  -7    1.00    2.40
  10  -3  -7    1.80    5.30
 -10   4   7   42.40    4.50
 -10  -4  -7   42.80    4.60
  10   4  -7   42.70    3.60
  10  -4   7   47.10    7.60
  10  -4   7   36.90    4.60
  10   4  -7   32.30    6.50
 -10  -4   7   33.80    4.20
  10  -4  -7   31.20    4.60
 -10  -4   7   31.10    5.20
 -10  -4   7   28.30    5.40
  10   4   7   42.80    4.80
 -10  -4   7   50.69    9.00
  10  -5   7   -0.40    2.30
  10  -5   7    3.00    4.80
 -10   5   7    1.90    1.80
 -10  -5  -7    1.70    2.30
  10   5  -7    0.70    1.70
 -10   5   7   11.10    4.50
 -10  -5   7    0.90    2.20
 -10  -5   7   -3.70    3.40
  10   5   7    2.00    2.30
 -10  -5   7    3.00    5.20
  10  -6   7    8.80    6.10
 -10   6   7   23.70    3.70
 -10  -6  -7   16.30    3.30
  10  -6   7   13.10    3.60
 -10  -6   7    9.90    4.30
  10   6   7   19.60    6.20
 -10  -6   7   19.30    7.80
  10  -7   7    1.30   11.20
 -10  -7   7   -1.70    3.70
 -10  -7   7   10.20    7.60
  10  -8   7    6.80   13.30
 -10  -8   7   19.60   10.10
  10  -9   7  -14.50   14.30
 -10  -9   7   -0.40    9.50
 -10   0   8  138.89   12.00
  10   0   8  141.99   10.90
  10   0   8  140.69   11.10
 -10   0  -8  137.99   11.40
  10   0  -8  136.59    7.10
  10   0  -8  133.49   11.30
  10   0  -8  142.69   11.20
 -10   0   8  124.79   12.00
 -10   0  -8  147.19    8.30
 -10   0  -8  146.39   10.60
 -10  -1  -8   94.19    9.90
 -10  -1  -8  103.59    7.90
  10   1  -8  108.39    9.60
 -10  -1  -8  111.69    6.70
 -10   1   8  107.29    8.40
  10   1  -8  100.39    9.60
 -10  -1  -8   88.79    9.40
  10   1  -8   98.99    9.30
  10  -1   8   99.79    9.10
 -10   1   8   96.09   10.10
  10   1  -8  102.59    5.60
 -10   1   8  105.09   10.20
  10  -1   8   97.39    8.70
 -10  -1   8   87.79    9.20
  10   1   8  104.49    8.40
 -10  -1   8  108.29    8.90
  10   1   8   97.79    8.80
 -10   1  -8  104.09    9.10
  10  -1  -8  101.99    8.90
 -10   1  -8  106.89    8.60
  10  -1  -8   94.39    5.90
 -10  -1   8   92.79    9.60
  10  -2   8   -1.60    2.60
  10   2  -8   -0.30    2.50
  10   2  -8   -1.40    2.70
 -10   2   8   -1.40    3.40
 -10  -2  -8    0.90    2.20
  10   2  -8    1.00    1.60
 -10  -2  -8    1.30    2.20
 -10   2   8    0.60    1.70
 -10  -2  -8   -6.00    3.50
  10  -2   8    2.30    3.60
  10   2  -8    1.60    1.60
  10   2  -8   -2.80    3.70
  10  -2  -8    0.50    2.00
 -10  -2   8   -3.30    3.60
 -10  -2   8   -4.50    2.60
  10  -2  -8   -2.60    2.90
 -10   2  -8    1.10    3.00
 -10  -2   8    0.30    2.40
  10   2   8    1.80    2.20
 -10   2  -8    2.70    2.40
  10  -2  -8   -0.10    4.20
 -10  -3  -8   90.09    7.00
  10  -3   8   69.79    8.20
 -10  -3  -8   82.49    6.00
 -10  -3  -8   99.99   10.70
 -10   3   8   82.69    6.90
 -10   3   8   56.89    9.10
  10   3  -8   77.89    4.90
  10   3  -8   77.39    9.00
  10  -3   8   90.99    8.90
  10   3   8   77.29    7.00
 -10  -3   8   74.39    8.10
  10  -3  -8   73.09    5.90
 -10   3  -8   81.89    8.00
 -10  -3   8   81.19    8.10
 -10  -3   8   82.39    8.70
  10  -3  -8   79.69    7.00
 -10  -3   8   84.59    5.40
 -10  -3   8   82.99   10.00
  10   4  -8   66.79    4.50
 -10   4   8   90.39   10.30
  10  -4   8   64.59    8.50
  10  -4   8   70.49    5.30
  10  -4   8   53.89    5.80
 -10  -4  -8   68.59    5.60
 -10   4   8   69.79    6.10
 -10  -4   8   67.79    5.20
 -10  -4   8   88.29   10.80
  10   4   8   70.19    6.30
 -10  -4   8   56.89    7.90
 -10  -4   8   57.19    6.90
  10  -4  -8   55.29    6.00
  10   5  -8   54.29    4.30
  10  -5   8   55.69    8.90
 -10   5   8   56.59    5.30
  10  -5   8   46.00    5.60
  10  -5  -8   36.00    5.60
 -10  -5   8   50.79    5.10
  10   5   8   58.19    5.80
 -10  -5   8   54.19    7.40
 -10  -5   8   59.89   10.70
 -10   6   8    3.10    2.10
  10  -6   8   -3.40    5.50
  10  -6   8   -1.30    2.80
  10   6  -8    2.60    2.10
 -10  -6   8    0.00    2.70
 -10  -6   8   -2.20    6.20
 -10  -6   8   -4.40    4.00
  10  -7   8   17.40   12.30
  10  -7   8    6.50    6.60
 -10  -7   8   18.20    4.90
 -10  -7   8   35.60    9.70
  10  -8   8    5.40   13.40
 -10  -8   8   11.90    9.50
  10  -9   8    5.90   15.50
 -10  -9   8    2.10   10.20
  10   0  -9  119.49   10.50
  10   0  -9   96.99   11.10
 -10   0  -9  134.79    9.80
 -10   0   9  124.39   11.20
  10   0   9  127.29   10.30
  10   0  -9  128.69    6.70
  10   0   9  126.19   10.00
 -10   0   9  122.29   11.40
 -10   0  -9  124.99   10.70
 -10   1   9  392.16   26.00
 -10   1   9  357.06   26.70
 -10  -1  -9  353.26   26.40
 -10  -1  -9  324.87   25.60
  10   1  -9  386.56   16.10
  10  -1   9  386.96   25.30
  10   1  -9  380.76   25.50
  10   1  -9  381.86   25.80
  10   1  -9  370.36   26.00
 -10  -1   9  381.36   25.80
  10   1   9  376.96   24.90
 -10   1  -9  383.36   25.20
 -10  -1   9  365.86   26.10
  10  -1  -9  369.56   16.20
  10   1   9  353.76   24.90
 -10   1  -9  377.96   25.40
  10  -1  -9  382.06   25.00
  10  -2   9  102.99    9.70
 -10   2   9  114.99    8.60
  10   2  -9  101.49   10.10
 -10   2   9   95.99   11.00
  10   2  -9  109.19    5.80
  10   2   9   98.19    8.50
  10  -2  -9   94.69    8.90
 -10  -2   9   98.49   10.10
 -10   2  -9  109.29    9.50
 -10  -2   9  108.19    6.10
  10  -2  -9  102.29    6.40
  10   3  -9  322.47   13.50
  10   3  -9  315.57   22.20
 -10   3   9  322.07   20.80
 -10   3   9  252.97   23.20
  10  -3   9  340.47   22.30
 -10  -3  -9  307.67   23.10
  10  -3   9  308.57   21.90
  10  -3  -9  309.77   20.50
 -10   3  -9  305.97   21.40
 -10  -3   9  314.37   22.00
 -10  -3   9  286.37   22.10
  10   3   9  312.67   20.80
 -10  -3   9  308.87   15.10
  10  -3  -9  293.17   14.40
  10  -4   9   69.99    6.70
 -10   4   9   58.89    9.60
  10   4  -9   89.19    5.30
 -10   4   9   90.49    7.20
  10  -4   9   90.89    9.70
  10   4   9   84.39    7.50
 -10  -4   9   83.59    9.30
 -10  -4   9   97.09   11.80
 -10  -4   9   85.39    6.00
  10  -4  -9   87.69    6.80
  10  -5   9  224.88   17.60
  10  -5   9  189.68   12.70
  10   5  -9  233.08   10.20
  10   5   9  216.18   15.30
 -10  -5   9  237.38   20.00
  10  -5  -9  190.18   12.30
 -10  -5   9  220.08   16.70
 -10  -5   9  214.98   11.80
  10  -6   9   58.09   10.00
  10   6  -9   62.19    4.90
 -10  -6   9   67.09   11.00
 -10  -6   9   49.70    8.20
 -10  -6   9   59.69    6.00
  10  -7   9   81.49   13.00
 -10  -7   9  135.79   17.10
 -10  -7   9  113.79   10.90
  10  -8   9   26.40   15.80
 -10  -8   9   25.00   10.70
 -10   0 -10   23.40    4.10
  10   0  10   19.70    4.30
  10   0 -10   13.10    4.50
  10   0 -10   16.30    2.50
 -10   0  10   16.90    4.70
 -10   0 -10   20.40    4.70
  10  -1  10   18.00    4.40
  10   1 -10   14.50    2.40
 -10   1  10   12.00    4.80
  10   1 -10   11.90    4.00
  10   1 -10    7.70    4.70
 -10  -1 -10   18.50    4.80
  10  -1 -10   10.60    4.20
 -10  -1  10   14.70    5.00
 -10   1 -10   14.20    3.20
  10  -1 -10   13.10    2.50
 -10   1 -10   18.90    4.50
 -10   2  10   92.99   10.50
  10  -2  10   98.89    9.50
  10   2 -10   89.89    9.90
  10   2 -10   99.49    5.80
  10   2  10  106.39    8.50
 -10  -2  10   95.09   10.00
  10  -2 -10   96.69    6.30
 -10  -2  10  102.49    5.90
 -10   2 -10   91.69    9.20
  10  -2 -10   94.09    8.70
  10   3 -10   14.60    2.40
 -10   3  10   11.40    5.10
 -10  -3 -10    0.70    5.20
  10  -3  10   18.30    5.20
  10   3 -10    7.70    5.30
 -10   3 -10   15.20    4.50
 -10  -3  10   13.40    2.30
  10   3  10   11.80    3.30
  10  -3 -10   14.20    3.90
  10  -3 -10   14.00    3.10
 -10  -3  10    7.60    4.80
  10   4 -10    5.90    2.20
  10  -4  10    2.30    4.70
 -10  -4 -10    4.10    1.60
  10  -4  10    4.80    3.00
 -10   4  10    4.20    4.20
  10   4  10    5.60    2.80
 -10  -4  10    2.50    4.60
 -10  -4  10    6.60    5.40
  10  -4 -10    4.20    3.10
 -10  -4  10    3.90    2.20
  10  -5  10   10.70    5.80
  10   5 -10    8.00    2.40
  10  -5  10    9.20    3.50
 -10  -5  10    9.60    2.80
 -10  -5  10   17.50    7.20
 -10  -5  10    1.70    4.90
  10   5  10    8.10    3.10
  10  -5 -10    9.50    4.10
  10  -6  10   19.20    7.40
  10   6 -10   21.30    3.10
 -10  -6  10   11.90    5.60
 -10  -6  10   23.00    8.50
 -10  -6  10   21.20    3.60
 -10  -7  10   10.80    8.80
 -10  -7  10   -1.30    5.10
  10  -8  10   -2.40   13.80
 -10  -8  10    0.00    9.00
 -10   0 -11   74.19    8.30
  10   0 -11   67.29    5.00
  10   0 -11   65.39    8.10
  10  -1  11    4.60    4.00
  10   1 -11    7.00    2.20
 -10  -1 -11    6.20    4.20
  10   1 -11   -0.40    4.30
  10  -1 -11    0.20    3.80
 -10  -1  11    1.60    4.40
 -10   1 -11    7.90    4.10
  10  -1 -11    5.30    2.30
  10  -2  11  101.39   10.10
  10   2 -11  102.19    6.20
  10   2 -11  104.19   10.50
 -10   2 -11  100.79    9.90
  10  -2 -11  102.29    9.30
 -10  -2  11  108.29   10.70
  10  -2 -11  108.09    6.60
 -10  -3 -11   -4.10    4.80
  10   3 -11    1.90    5.10
 -10   3  11    6.80    4.50
  10   3 -11    7.10    2.20
 -10  -3  11   11.60    2.20
  10  -3 -11    5.90    2.90
 -10   3 -11    5.80    4.30
 -10  -3  11    5.10    4.90
  10  -3 -11    7.20    3.80
 -10   4  11   42.00    7.40
  10   4 -11   48.80    4.40
  10  -4  11   31.60    4.80
  10  -4  11   51.29    8.40
 -10  -4 -11   45.20    3.70
  10  -4 -11   41.40    4.90
 -10  -4  11   47.60    8.20
 -10  -4  11   45.50    4.60
  10  -5  11   -0.30    5.50
  10   5 -11   -1.50    2.20
 -10  -5  11   -4.30    6.10
 -10  -5  11   -6.20    4.90
 -10  -5  11   -1.40    2.40
  10  -5 -11   -1.20    3.60
  10   6 -11   43.80    4.90
  10  -6  11   42.40    8.90
 -10  -6  11   50.09    5.70
 -10  -6  11   56.09   11.10
 -10  -6  11   39.20    7.60
  10  -6 -11   34.20    6.10
 -10  -7  11    6.30    8.90
 -10   0 -12  167.88   14.00
  10   0 -12  169.08   13.70
  10   0 -12  166.28    8.70
  10   1 -12   85.99    9.60
 -10  -1 -12   84.49    9.70
  10   1 -12   95.29    5.80
  10  -1 -12   88.59    5.90
 -10   1 -12   85.59    9.30
  10  -1 -12   78.59    8.90
 -10  -2 -12  115.49   13.00
  10  -2  12  149.88   13.00
  10   2 -12  156.68    8.00
  10   2 -12  152.28   13.20
 -10   2 -12  147.69   12.80
  10  -2 -12  152.58    8.40
 -10  -2  12  159.28   13.70
  10  -2 -12  159.68   12.30
  10   3 -12   56.09    8.90
  10   3 -12   63.99    4.90
  10  -3  12   61.19    8.70
 -10  -3 -12   60.39    4.50
 -10  -3  12   57.09    9.10
  10  -3 -12   60.59    5.70
  10  -4  12  116.99   12.10
  10   4 -12  120.29    6.90
 -10  -4  12  106.59   11.90
  10  -4 -12  107.49    8.00
  10   5 -12   55.89    5.10
  10  -5  12   61.49   10.20
  10  -5 -12   61.49    7.00
 -10  -5  12   70.39   11.40
 -10  -5  12   60.69    9.70
  10  -6  12   71.39   11.40
  10   6 -12   78.59    5.90
  10  -6 -12   64.69    7.50
 -10  -6  12   90.89   14.70
 -10  -6  12   66.79   10.30
 -10  -7  12   28.30   10.60
  10   0 -13    7.00    5.10
 -10   0 -13   16.60    5.30
  10   0 -13   10.30    2.80
 -10  -1 -13    5.00    4.90
  10   1 -13   -3.90    4.80
  10   1 -13    3.10    2.50
  10  -1 -13   -0.20    4.60
  10  -1 -13    1.40    2.40
 -10   1 -13    7.30    4.80
  10   2 -13    8.30    5.90
  10   2 -13   15.60    3.00
 -10  -2 -13   10.70    5.50
  10  -2 -13   15.80    3.30
 -10   2 -13   14.20    5.30
  10  -2 -13   11.70    4.90
  10   3 -13    1.40    2.30
  10  -3  13   -0.40    5.10
 -10  -3 -13    0.50    1.90
 -10  -3  13   -5.30    5.20
  10  -3 -13    2.00    3.00
  10  -4  13    2.90    5.80
  10   4 -13    5.60    2.70
  10  -4 -13    8.80    3.70
 -10  -4  13    2.50    6.00
  10   5 -13   -2.90    2.50
  10  -5  13   -4.50    6.10
 -10  -5  13    4.80    7.30
  10  -5 -13   -2.30    3.70
 -10  -5  13   -8.40    5.70
  10   6 -13    5.30    3.00
 -10  -6  13    5.70    8.50
  10  -6 -13    8.80    4.80
  10   0 -14    5.20    5.30
  10   0 -14    7.80    2.90
 -10   0 -14   12.00    5.50
  10   1 -14   38.50    7.30
 -10  -1 -14   45.40    7.70
  10   1 -14   42.30    4.70
  10  -1 -14   52.39    5.10
  10  -1 -14   51.19    8.10
 -10   1 -14   41.00    7.20
  10   2 -14   44.50    7.80
  10   2 -14   51.99    4.90
 -10  -2 -14   32.20    7.30
 -10  -2 -14   53.69    4.60
  10  -2 -14   44.30    4.70
 -10   2 -14   43.30    7.30
  10  -3  14   34.50    7.40
  10   3 -14   34.60    3.90
 -10  -3 -14   31.80    3.50
  10  -3 -14   32.40    4.50
  10   4 -14    2.40    2.70
  10  -4  14   -4.10    5.80
  10  -4 -14    2.20    3.60
 -10  -4  14   -5.90    6.00
  10  -5  14   18.70    7.60
  10   5 -14   17.30    3.50
 -10  -5  14   15.10    7.40
  10  -5 -14   32.00    5.40
 -10  -5  14   31.10    9.60
  10   6 -14    8.60    3.30
 -10  -6  14   16.20    9.50
 -10   0 -15   51.89    9.10
  10   0 -15   50.39    9.00
  10   0 -15   55.19    5.40
  10   1 -15   56.59    5.50
 -10  -1 -15   56.19    9.60
  10   1 -15   56.29    9.50
 -10  -1 -15   61.09    5.40
  10  -1 -15   59.19    5.80
  10  -1 -15   70.49    9.30
 -10   1 -15   66.09    9.40
 -10  -2 -15   58.39    5.10
 -10  -2 -15   44.90    8.30
  10   2 -15   58.99    5.40
  10   2 -15   49.30    8.40
  10  -2 -15   55.89    5.80
 -10   2 -15   54.89    9.10
 -10  -3 -15   46.20    4.70
  10   3 -15   47.50    5.20
  10  -3 -15   48.30    5.30
  10   4 -15   38.80    4.50
  10  -4  15   39.60    8.50
  10  -4 -15   35.60    5.40
  10   5 -15   31.70    4.30
 -10  -5  15   35.80   10.40
  10  -5 -15   27.40    5.40
 -10   0 -16   45.40    8.30
  10   0 -16   47.30    8.10
  10   0 -16   37.60    4.60
 -10   0 -16   44.30    4.60
  10   1 -16    4.70    3.10
 -10  -1 -16    2.20    2.60
  10   1 -16    3.10    6.30
  10  -1 -16    5.30    3.20
 -10   1 -16    4.70    5.80
 -10   1 -16   -2.30    3.20
  10   2 -16   12.50    7.00
 -10  -2 -16   14.20    3.10
  10   2 -16   16.30    3.50
 -10   2 -16   10.20    6.40
  10  -2 -16   17.20    3.90
  10   3 -16    2.50    3.10
 -10  -3 -16    1.00    2.60
  10  -3 -16    0.80    3.50
  10   4 -16   17.50    3.80
  10  -4 -16   22.00    4.80
 -10   0 -17   30.50    4.30
  10   0 -17   32.30    4.50
 -10  -1 -17    9.60    3.20
  10   1 -17    9.40    3.60
  10  -1 -17   10.10    3.80
 -10   1 -17    9.20    3.80
  10   2 -17   20.50    4.00
 -10  -2 -17   17.70    3.60
 -10   2 -17   18.50    4.00
  10  -2 -17   17.10    4.30
 -11   0   0    8.70    4.70
  11   0   0   -0.90    5.80
 -11   0   0    2.10    5.60
 -11   0   0    3.80    3.60
  11   0   0    4.10    3.60
  11   0   0   13.20    6.30
 -11   0   0    4.50    3.20
  11   1   0    1.30    3.50
 -11  -1   0    5.90    5.40
  11  -1   0    3.40    6.10
 -11   1   0    1.20    3.50
 -11  -1   0    3.70    3.10
  11  -1   0   -7.70    4.70
  11   1   0    7.70    6.40
 -11   1   0   -1.90    2.50
 -11  -1   0    1.80    3.90
  11  -1   0   -0.20    3.00
 -11  -1   0   -2.60    2.70
 -11   1   0   -0.30    2.40
  11   1   0    4.70    3.60
 -11  -2   0    0.80    5.20
 -11   2   0    5.20    3.10
 -11  -2   0    4.60    2.60
  11  -2   0    2.50    6.10
  11   2   0   -0.30    3.00
  11  -2   0    1.50    2.40
 -11  -2   0   -2.80    2.10
  11   2   0    4.00    3.70
 -11   2   0   -2.30    2.60
 -11  -2   0   -4.00    3.70
  11   2   0    8.10    6.50
 -11  -3   0    1.30    1.70
 -11  -3   0   -0.80    4.20
  11   3   0    4.30    3.70
  11   3   0   -1.90    2.50
  11  -3   0    6.70    3.00
 -11  -3   0   -0.20    1.60
  11  -3   0   -0.30    5.10
  11   3   0    6.20    6.10
 -11  -3   0   -3.30    4.10
 -11   3   0    1.90    2.70
 -11   3   0    0.80    2.60
 -11  -3   0   -4.40    3.30
  11  -4   0    7.10    2.60
 -11  -4   0    3.70    5.50
  11   4   0    3.20    4.00
 -11  -4   0   -8.00    3.80
  11  -4   0    0.20    1.90
  11  -4   0    3.80    5.30
  11   4   0   13.60    6.40
 -11   4   0    4.60    3.10
  11   4   0    1.40    2.70
 -11   4   0    3.20    3.10
  11  -4   0    1.10    6.70
 -11  -4   0    2.30    3.20
 -11  -5   0   -5.50    3.00
 -11   5   0    0.80    3.40
  11   5   0   -1.20    2.40
  11   5   0    3.00    4.40
  11  -5   0   -3.20    1.90
 -11  -5   0   -1.00    6.00
 -11   5   0   -1.40    1.80
  11  -5   0   -1.10    8.20
 -11  -6   0    3.70    3.10
  11  -6   0    1.10    2.30
  11   6   0    5.80    2.90
 -11  -6   0    7.50    7.70
  11  -6   0    9.60   10.90
 -11   6   0    2.70    4.20
  11   6   0    8.90    5.50
  11  -7   0   -5.90   11.90
 -11   7   0    2.00    5.20
 -11  -7   0   -4.90    8.10
  11   7   0   18.00    6.30
  11  -7   0   -3.20    2.60
  11  -8   0    8.20   14.90
 -11  -8   0    6.50   10.70
 -11  -9   0   -1.20   12.20
 -11 -10   0   19.60   15.30
  11   0  -1  313.97   26.10
 -11   0  -1  286.57   23.80
 -11   0   1  364.06   25.20
 -11   0   1  343.17   23.90
  11   0   1  282.27   23.80
 -11   0  -1  356.46   24.40
 -11   0  -1  329.07   25.50
 -11   0   1  329.57   24.50
  11   0  -1  347.87   25.90
 -11   0   1  388.56   24.80
 -11   0  -1  339.37   24.10
 -11   1   1   12.40    3.90
 -11   1   1   12.80    3.30
 -11  -1  -1    8.00    6.00
  11  -1   1   13.70    5.80
 -11  -1  -1   26.20    5.60
  11  -1   1   16.80    4.40
 -11  -1  -1   12.80    3.60
  11  -1   1    6.70    5.20
 -11   1   1   26.50    5.40
 -11  -1  -1   18.10    4.20
  11   1   1    8.80    3.60
  11  -1  -1    3.80    3.00
  11  -1  -1    7.00    6.50
 -11  -1   1    6.80    4.50
 -11   1  -1    4.80    3.30
 -11  -1   1    9.40    3.30
 -11   1  -1    3.90    2.80
 -11  -1   1   17.60    4.80
  11  -1  -1   22.80    7.10
  11   1   1   18.20    5.90
 -11  -2  -1  146.59   10.70
  11  -2   1  166.18   12.30
 -11  -2  -1  132.19   11.00
 -11   2   1  125.49   11.10
  11   2  -1  137.19   11.40
 -11   2   1  155.78   12.50
  11  -2   1  142.69   11.70
 -11  -2  -1  108.49   12.30
 -11  -2  -1  109.79   12.70
  11  -2  -1  136.09   14.40
 -11  -2   1  144.89   11.10
  11   2   1  114.09   11.80
  11  -2  -1  150.28   10.60
 -11  -2   1  144.19   12.40
 -11   2  -1  125.09   11.20
 -11  -2   1  145.69   12.80
 -11   3   1    4.60    2.60
  11   3  -1    2.50    7.10
  11   3  -1   15.80    5.50
  11  -3   1   11.80    5.60
  11  -3   1   10.10    3.10
 -11  -3  -1    1.90    3.80
 -11  -3  -1    0.20    3.90
 -11   3   1    3.20    3.20
 -11  -3  -1    7.80    1.70
  11   3  -1    9.30    3.20
  11  -3   1   15.90    6.50
  11   3   1   12.90    6.10
 -11  -3   1    8.90    4.50
  11  -3  -1    8.30    5.30
  11   3   1    5.90    3.30
 -11  -3   1   12.30    4.60
 -11  -3   1    4.30    2.50
  11  -3  -1    5.10    3.40
  11  -3  -1    7.60    1.80
 -11   3  -1   15.90    4.70
 -11   3  -1    2.90    2.80
  11   3   1    9.10    3.60
 -11  -3   1    7.10    2.20
 -11   3  -1    9.30    3.30
 -11  -3   1    4.60    3.90
 -11   4   1  125.59   11.80
 -11  -4  -1  136.79   12.10
 -11  -4  -1  137.59   16.40
 -11  -4  -1  158.38   11.80
  11  -4   1  156.58    8.70
  11   4  -1  174.48   11.70
  11   4  -1  109.99   15.20
  11  -4  -1  141.89   12.50
  11  -4  -1  167.18   11.00
 -11  -4   1  167.78   11.80
  11   4   1  160.08   12.00
  11  -4  -1  157.58    8.20
 -11   4  -1  144.29   12.00
 -11  -4   1  158.98   15.70
 -11   4  -1  118.89    8.40
  11   5  -1   13.60    6.10
  11  -5   1    9.90    8.80
 -11  -5  -1    3.70    3.30
  11  -5   1    7.10    2.50
 -11  -5  -1    4.40    7.30
  11   5  -1    3.80    2.60
  11  -5   1    5.50    2.20
 -11   5   1    2.60    2.80
  11   5   1    5.80    3.00
 -11   5  -1    4.10    1.90
  11  -5  -1    5.70    2.30
 -11  -5   1   10.30    6.60
  11   5   1    1.20    3.50
 -11   5  -1   11.50    5.40
  11  -5  -1   12.50    9.80
 -11  -5   1    4.50    2.70
 -11  -5   1   -5.60    4.40
 -11   6   1   56.09    7.70
  11  -6   1  119.19   17.30
  11  -6   1   65.89    6.10
 -11  -6  -1   88.39   14.60
 -11  -6  -1   69.29    6.80
  11   6  -1   89.69    7.30
  11  -6  -1   70.49    6.00
 -11  -6   1   94.29   14.70
  11   6   1   78.89    7.30
 -11  -7  -1    0.40    9.30
 -11   7   1    4.00    3.70
  11  -7   1    0.90    2.70
  11   7  -1   23.10    7.40
  11  -7   1    8.70   12.40
 -11   7  -1   -2.60    6.00
  11   7   1    7.10    4.90
  11  -7  -1   11.20   13.90
  11  -7  -1   -0.90    2.70
 -11  -7   1    5.50    8.50
 -11  -8  -1   59.29   15.80
  11  -8   1   39.20    5.60
  11  -8   1   91.19   20.60
  11  -8  -1  100.39   22.60
 -11  -8   1   55.59   14.20
 -11  -9  -1   -1.70   13.30
 -11  -9   1   -2.40   11.50
 -11 -10   1   21.70   14.50
  11   0   2    6.60    4.60
 -11   0   2   10.20    4.50
 -11   0  -2   18.60    4.30
  11   0   2    1.60    5.80
  11   0  -2   10.40    6.30
  11   0   2    4.10    3.10
 -11   0   2   11.40    3.00
  11   0  -2    9.90    3.50
 -11   0  -2    8.50    3.40
 -11   0   2   22.60    4.60
 -11   0  -2    9.80    3.30
 -11   0  -2    6.10    3.70
 -11   0  -2    2.30    5.40
 -11   0   2   16.00    5.20
  11   0  -2   19.80    5.10
 -11  -1  -2  311.47   19.30
  11   1  -2  236.68   19.70
 -11   1   2  282.07   19.30
  11   1  -2  240.28   19.70
  11  -1   2  276.77   20.40
  11   1  -2  265.07   22.40
  11  -1   2  289.37   20.20
 -11  -1  -2  288.97   20.60
  11   1  -2  264.77   20.80
  11  -1  -2  291.47   19.30
 -11  -1   2  232.48   19.60
 -11  -1   2  298.87   18.90
 -11   1  -2  269.87   15.10
 -11  -1   2  235.58   19.60
 -11   1  -2  218.48   18.90
 -11   1  -2  276.87   20.30
 -11  -1   2  281.77   20.90
  11  -2   2  101.39    9.10
 -11   2   2   88.19    8.20
 -11  -2  -2   97.39    7.50
 -11  -2  -2   70.39    7.20
 -11  -2  -2   83.39    8.20
  11   2  -2   75.79   12.30
  11   2  -2   88.29    6.20
  11  -2   2   71.89   10.30
  11   2  -2  122.99   11.60
  11   2   2   93.69   10.10
 -11  -2   2   98.59    9.40
 -11   2  -2   82.99    6.80
 -11  -2   2   97.59    9.80
 -11  -2   2   98.59    9.90
  11  -2  -2  100.09   11.00
 -11  -2   2   95.99    8.40
  11   2   2   79.59    8.40
 -11   2  -2   92.69    8.50
  11  -2  -2  102.69    7.50
 -11  -3  -2  199.68   13.20
  11  -3   2  245.08   19.00
 -11   3   2  206.88   16.10
  11   3  -2  181.88   19.40
 -11  -3  -2  226.18   16.60
  11  -3   2  269.87   16.30
  11   3  -2  260.37   16.50
 -11  -3  -2  198.98   17.40
 -11   3   2  258.17   18.00
 -11  -3   2  249.28   16.90
  11  -3  -2  249.68   11.10
  11   3   2  197.18   16.40
  11   3   2  188.48   16.90
 -11  -3   2  243.88   18.00
 -11   3  -2  234.98   16.40
  11  -3  -2  199.98   16.40
  11  -3  -2  243.38   17.20
  11   3   2  188.48   18.20
 -11  -3   2  233.78   15.60
 -11   3  -2  201.38   12.20
  11  -4   2    6.10    2.30
  11  -4   2    5.70    6.40
  11   4  -2    3.50    6.20
  11   4  -2    6.60    2.80
 -11  -4  -2    2.70    3.50
 -11  -4  -2    6.60    2.90
  11  -4   2   12.20    7.40
 -11   4   2    5.80    2.60
 -11  -4  -2    5.00    3.10
  11   4  -2   20.10    6.50
 -11   4   2    5.10    3.60
 -11   4  -2    6.10    2.20
 -11   4  -2    7.70    5.10
  11   4   2    7.00    3.60
 -11   4  -2    7.50    3.30
 -11  -4   2    8.40    4.90
 -11  -4   2   17.10    5.30
  11  -4  -2   15.50    8.50
  11  -4  -2    7.70    1.80
  11   4   2    8.20    3.30
 -11  -4   2    6.40    3.60
  11   4   2   16.60    6.10
  11  -4  -2   12.80    2.70
  11  -4  -2    5.90    3.40
  11   5  -2  236.88   15.00
  11  -5   2  195.38   11.30
  11  -5   2  236.18   14.40
 -11   5   2  176.78   15.10
 -11  -5  -2  178.18   21.80
 -11  -5  -2  188.48   12.40
 -11  -5   2  209.08   19.10
  11   5   2  223.38   15.50
 -11  -5   2  216.18   14.70
  11  -5  -2  212.38   11.00
 -11   5  -2  188.18   10.40
  11  -6   2   20.90    3.50
 -11   6   2   21.80    4.20
 -11  -6  -2   29.40    4.20
 -11  -6  -2   33.00   11.80
  11  -6   2   43.60   12.90
  11   6   2   29.50    4.50
  11   6   2   16.50    4.80
 -11  -6   2   30.40    8.70
  11  -6  -2   65.89   15.50
  11  -6  -2   23.20    3.40
 -11   6  -2   20.10    7.30
 -11   7   2   65.49    8.20
  11  -7   2   83.39    7.10
 -11  -7  -2  101.09   18.20
 -11  -7   2  117.39   16.40
  11  -8   2    0.70    3.40
 -11  -8  -2   -3.80   12.20
  11  -8   2  -12.40   12.50
 -11  -8   2   -1.60    9.70
  11  -9   2  106.99   23.80
 -11  -9  -2   79.29   20.20
 -11  -9   2   61.19   16.10
 -11   0  -3    2.20    4.30
  11   0  -3    3.90    2.30
 -11   0   3    5.70    3.50
 -11   0   3    5.60    2.50
  11   0   3    3.60    2.70
  11   0  -3    4.90    5.30
  11   0   3    0.00    4.80
  11   0  -3    2.20    2.80
  11   0  -3    4.10    4.00
 -11   0  -3    7.30    2.70
 -11   0  -3    1.30    2.60
 -11   0  -3    3.40    3.10
 -11   0  -3    0.20    3.10
 -11   0   3    4.20    4.20
  11   0   3    3.20    3.80
 -11   1   3    0.50    1.90
 -11   1   3    4.30    3.70
  11  -1   3    0.40    3.70
 -11  -1  -3    2.40    3.90
  11   1  -3    0.50    1.80
 -11  -1  -3    6.00    2.30
  11   1  -3   -5.40    3.10
 -11   1   3    1.00    4.00
  11   1  -3   -0.70    2.90
  11  -1   3   -2.70    3.50
  11   1  -3    6.50    2.10
  11   1  -3   -4.10    5.00
 -11  -1  -3   -2.60    3.40
 -11  -1  -3   -2.60    2.40
 -11  -1  -3    6.10    3.60
  11   1  -3    1.30    2.70
 -11  -1   3    2.50    2.40
 -11   1  -3    3.40    2.90
 -11   1  -3   -3.10    2.30
  11  -1  -3    0.30    2.20
 -11  -1   3   -3.60    3.60
 -11  -1   3   -1.10    2.50
  11  -1  -3    2.20    4.60
  11  -1  -3    5.50    5.20
  11   1   3   10.10    4.30
 -11  -1   3   -1.80    3.30
 -11   1  -3   -0.20    4.30
 -11   1  -3   -2.30    2.40
 -11  -1   3    2.20    2.10
  11   1   3    0.90    2.40
  11   2  -3   12.70    2.40
 -11  -2  -3   11.30    3.30
 -11   2   3   23.60    5.70
 -11  -2  -3   12.20    2.20
 -11   2   3   11.10    2.80
 -11   2   3   16.30    4.30
  11   2  -3    6.90    2.70
  11  -2   3    4.00    4.30
  11  -2   3   10.70    3.70
 -11  -2  -3   12.40    3.20
 -11  -2  -3   26.00    5.70
  11   2  -3    4.80    4.10
  11   2  -3    8.80    2.10
  11  -2   3    7.90    3.90
  11   2  -3    6.70    6.10
 -11  -2   3   14.40    3.40
 -11  -2   3    9.00    3.10
 -11  -2   3    7.60    4.30
  11  -2  -3    3.00    4.10
 -11  -2   3   17.90    3.80
  11   2   3    7.30    4.50
  11  -2  -3   12.40    6.60
 -11  -2   3    9.10    4.20
  11   2   3   10.90    3.10
  11  -2  -3   12.50    2.30
 -11   2  -3    6.70    2.70
 -11   2  -3   13.10    3.50
 -11   2  -3    2.40    3.40
 -11  -3  -3    4.00    2.70
  11   3  -3    5.80    4.60
  11   3  -3    4.10    5.80
 -11  -3  -3    3.40    4.30
  11   3  -3    1.80    2.50
  11  -3   3   -1.50    4.30
 -11  -3  -3    4.00    3.00
 -11   3   3   14.80    4.90
  11   3  -3    3.70    1.80
  11  -3   3   11.30    4.00
 -11   3   3    1.80    2.10
  11   3   3    5.80    2.80
 -11   3  -3   -3.20    3.50
  11   3   3    5.20    4.40
 -11  -3   3    1.10    3.50
 -11   3  -3    7.40    3.10
 -11  -3   3    0.80    3.50
 -11  -3   3    3.60    2.40
 -11  -3   3    4.10    3.30
  11  -3  -3    3.10    1.30
  11   3   3    7.10    4.20
 -11   3  -3    2.70    2.20
  11  -3  -3    5.10    4.10
  11  -3  -3    1.50    3.30
 -11  -3   3    5.60    3.60
  11  -4   3   -4.40    5.20
 -11  -4  -3    4.20    2.30
 -11  -4  -3    1.30    3.40
  11  -4   3    7.70    2.50
 -11  -4  -3    3.90    2.90
  11  -4   3    3.00    3.10
  11   4  -3   -0.20    1.70
  11   4  -3    3.80    2.50
  11   4  -3   10.00    5.60
  11   4  -3    2.20    5.50
 -11   4   3    2.30    2.20
 -11   4  -3    4.30    2.00
 -11  -4   3    2.30    1.70
  11   4   3    2.90    3.60
 -11  -4   3    2.30    4.20
  11  -4  -3    1.70    1.60
 -11   4  -3   -5.00    3.90
 -11  -4   3    1.50    3.10
 -11  -4   3    6.30    3.90
 -11   4  -3    3.70    3.00
  11   4   3    6.50    2.90
 -11  -5  -3    6.20    2.90
  11  -5   3    6.10    2.80
 -11   5   3    0.00    2.20
  11   5  -3    2.60    2.60
  11  -5   3   -4.30    8.00
  11  -5   3    4.90    6.40
  11  -5   3    0.10    2.20
  11   5  -3    8.30    5.90
 -11   5  -3    2.00    1.80
  11  -5  -3   10.20   10.60
 -11  -5   3    3.60    5.10
  11   5   3    3.90    3.10
  11   5   3   -3.40    3.10
  11  -5  -3    0.30    2.00
 -11  -5   3    2.50    3.00
  11  -6   3    3.40    2.60
  11   6  -3    9.40    6.60
 -11  -6  -3    7.10    2.80
  11  -6   3    3.50    9.50
 -11   6   3    3.10    2.60
  11   6   3    1.70    3.20
 -11  -6   3    4.40    2.80
  11  -6  -3   12.10   12.70
 -11  -6   3    5.40    6.40
  11   6   3    6.90    3.70
  11  -7   3    4.90   12.00
  11   7  -3   12.90    7.10
  11  -7   3    2.50    3.10
 -11  -7   3   13.00    8.10
  11  -7  -3   21.50   14.80
  11  -8   3   -6.90    3.10
  11  -8   3    1.90   12.90
 -11  -8   3   -0.30    9.20
  11  -9   3    0.90   15.40
 -11  -9   3    9.90   11.70
 -11   0   4   69.79    9.00
  11   0   4   89.29    8.30
 -11   0  -4  110.89    8.40
  11   0   4  103.59    9.30
 -11   0  -4  110.89    7.20
  11   0  -4   88.19    9.50
  11   0  -4   88.39    8.50
 -11   0  -4  116.19    9.60
  11   0  -4   96.29    6.00
  11   0  -4   75.69    9.40
 -11   0   4   76.69    7.80
 -11   0   4   96.69   10.80
 -11   0  -4   77.09    8.60
  11  -1   4   44.20    7.00
  11  -1   4   50.69    7.40
 -11  -1  -4   60.79    6.70
  11   1  -4   48.20    7.00
 -11   1   4   56.69    5.80
  11   1  -4   52.79    7.90
  11   1  -4   61.49    4.50
  11   1  -4   49.50    6.90
 -11  -1  -4   56.39    5.40
  11   1  -4   53.09    4.20
  11   1  -4   54.19    6.70
 -11   1   4   43.30    7.70
 -11  -1  -4   50.39    5.40
 -11  -1   4   39.80    6.70
  11  -1  -4   59.09    4.90
 -11   1  -4   49.90    5.00
 -11   1  -4   47.50    6.30
 -11   1  -4   53.09    6.40
  11  -1  -4   57.89    8.50
 -11   1  -4   50.49    7.40
  11  -1  -4   48.00    7.50
 -11  -1   4   52.39    8.00
 -11  -1   4   47.40    6.50
  11   1   4   51.09    5.80
  11   1   4   48.30    6.80
  11  -1  -4   54.39    5.60
 -11  -1   4   57.19    5.50
 -11  -1   4   45.60    5.90
 -11   2   4   14.40    5.30
  11  -2   4    5.50    4.10
  11   2  -4    9.10    3.30
  11   2  -4   10.80    2.40
  11   2  -4    4.40    5.20
 -11  -2  -4   11.10    3.20
  11   2  -4    4.10    3.90
 -11  -2  -4   11.20    2.00
 -11  -2  -4   14.10    3.20
 -11   2   4   12.50    2.70
 -11  -2  -4   24.80    5.80
 -11   2   4   26.30    5.40
  11  -2   4    5.40    3.20
 -11  -2  -4   11.80    3.10
  11  -2   4   11.50    3.70
  11  -2  -4   19.90    6.90
  11   2   4   10.50    2.90
 -11  -2   4    7.90    4.30
 -11   2  -4   13.00    3.40
  11  -2  -4    6.00    3.70
 -11  -2   4    7.20    2.80
  11   2   4   10.20    3.90
 -11  -2   4    7.00    3.20
 -11   2  -4   10.00    2.60
 -11  -2   4    5.60    4.10
  11  -3   4   49.40    6.30
  11  -3   4   47.90    8.40
 -11   3   4   50.49    7.00
  11   3  -4   64.89    9.50
  11  -3   4   71.59    8.10
 -11  -3  -4   53.09    9.10
 -11  -3  -4   56.29    5.80
 -11  -3  -4   65.79    6.20
  11   3  -4   71.39    6.50
  11   3  -4   40.60    8.00
 -11   3   4   69.19    6.10
  11   3  -4   59.99    4.30
 -11  -3   4   63.39    8.10
  11   3   4   45.40    7.60
 -11  -3   4   63.79    6.20
 -11   3  -4   63.59    4.70
  11   3   4   68.29    6.30
  11  -3  -4   61.69    6.50
 -11  -3   4   62.29    7.30
 -11  -3   4   48.90    7.50
 -11   3  -4   63.69    6.80
 -11   3  -4   46.10    7.50
  11  -4   4   36.90    7.70
  11   4  -4   50.39    4.00
  11  -4   4   45.70    4.90
 -11  -4  -4   48.70    7.10
  11   4  -4   53.39    9.00
  11   4  -4   38.40    8.30
 -11  -4  -4   62.79    5.20
 -11  -4  -4   53.69    5.50
 -11   4   4   61.29    5.70
  11   4  -4   59.39    5.90
 -11   4  -4   60.69    6.40
 -11   4  -4   34.90    6.80
 -11   4  -4   52.29    4.10
  11   4   4   58.39    5.90
  11   4   4   35.50    6.90
 -11  -4   4   52.19    6.80
 -11  -4   4   55.19    9.00
 -11  -4   4   51.59    5.20
  11  -5   4    6.30    6.30
  11  -5   4   21.30    9.60
 -11  -5  -4   22.30    3.70
  11   5  -4   22.50    2.60
  11   5  -4   15.70    6.70
 -11   5   4   28.10    4.30
  11  -5   4   20.50    3.50
  11   5   4   32.10    5.00
  11   5   4   17.70    5.10
 -11  -5   4   25.10    4.50
 -11  -5   4   36.60    7.30
  11  -6   4    0.90    2.60
 -11  -6  -4    6.20    2.90
 -11   6   4    1.20    2.30
  11   6  -4    5.80    6.30
  11  -6   4    7.40   10.00
 -11  -6   4    7.80    6.40
  11   6   4   -2.40    3.40
  11   6   4    4.00    3.10
 -11  -6   4    0.40    2.90
  11  -7   4   38.80   13.70
 -11  -7   4   42.20   10.30
  11  -8   4   14.90   14.30
 -11  -8   4   11.60    9.80
  11  -9   4   -3.00   15.20
 -11  -9   4   12.90   11.30
  11   0  -5  375.16   27.40
 -11   0  -5  422.36   27.30
  11   0  -5  442.26   28.20
 -11   0   5  391.76   28.80
  11   0   5  392.56   27.50
 -11   0  -5  410.66   20.50
 -11   0  -5  441.26   27.80
  11   0   5  381.36   27.40
  11   0  -5  405.46   17.70
 -11   1   5   12.20    5.10
 -11  -1  -5   18.30    2.90
 -11  -1  -5   22.60    5.10
 -11  -1  -5   12.20    3.00
  11   1  -5   10.30    3.90
  11  -1   5   11.60    4.10
  11   1  -5   15.70    2.10
 -11   1   5   14.40    2.90
 -11  -1  -5    2.90    3.60
 -11  -1  -5   15.00    3.40
  11  -1   5   15.40    4.20
  11  -1   5   10.90    3.40
  11   1  -5   11.90    3.80
 -11   1   5   16.20    4.60
  11   1  -5    9.40    4.90
  11   1  -5   11.40    3.80
  11   1  -5   14.90    2.30
 -11   1  -5   15.50    4.50
  11  -1  -5   14.30    2.60
 -11  -1   5   21.10    3.10
 -11   1  -5   18.00    3.90
 -11  -1   5   12.30    3.60
  11  -1  -5    9.50    4.60
 -11   1  -5   10.20    2.70
  11  -1  -5   11.70    2.90
  11   1   5   16.20    4.10
  11   1   5   14.10    3.20
 -11  -1   5   12.40    3.20
 -11  -1   5    9.40    3.60
 -11   1  -5   12.30    3.20
 -11  -1   5   10.80    4.50
 -11  -2  -5  479.35   29.20
  11   2  -5  456.05   18.70
 -11  -2  -5  510.45   31.40
 -11  -2  -5  453.45   28.40
 -11   2   5  353.56   31.10
  11  -2   5  465.25   29.70
  11   2  -5  435.96   30.80
  11   2  -5  449.66   29.80
 -11   2   5  456.15   29.30
  11  -2   5  414.06   30.00
 -11  -2  -5  444.56   22.30
  11   2  -5  501.65   21.40
 -11   2  -5  442.16   29.40
  11   2   5  440.06   29.30
  11  -2  -5  353.26   19.30
 -11  -2   5  480.15   30.30
 -11  -2   5  463.75   29.90
 -11  -2   5  421.56   30.00
 -11   2  -5  449.26   21.70
  11   2   5  395.26   29.60
  11  -2  -5  447.16   29.20
 -11  -2   5  407.06   29.80
  11  -3   5    6.10    4.40
 -11   3   5   15.90    4.70
  11   3  -5   12.90    5.00
 -11   3   5    3.40    4.50
 -11  -3  -5   11.00    3.00
 -11   3   5    9.40    2.50
 -11  -3  -5   12.20    2.80
  11  -3   5    4.10    3.50
 -11  -3  -5   21.00    5.70
  11   3  -5    4.40    5.20
  11   3  -5    7.90    1.90
 -11  -3   5    3.80    2.70
  11  -3  -5    6.50    3.10
 -11   3  -5    8.90    2.40
 -11  -3   5    3.10    3.90
 -11  -3   5   12.10    3.40
  11   3   5    8.70    4.30
 -11   3  -5    9.80    3.40
 -11  -3   5   10.70    4.00
 -11   3  -5   10.90    3.90
  11   3   5    9.90    2.90
  11  -4   5  227.48   13.90
  11   4  -5  278.57   11.70
  11   4  -5  256.47   20.20
  11   4  -5  210.28   20.90
 -11   4   5  277.57   17.90
 -11  -4  -5  277.57   14.40
 -11  -4   5  246.28   17.80
 -11   4  -5  245.18   20.10
 -11  -4   5  297.57   19.00
  11   4   5  280.27   18.20
 -11  -4   5  294.27   20.80
  11   4   5  226.18   20.70
 -11   4  -5  265.87   13.10
  11  -5   5   -1.90    5.10
  11  -5   5    4.00    2.60
 -11  -5  -5    6.40    2.80
  11   5  -5    8.60    2.00
  11   5  -5    2.00    5.40
 -11   5   5   10.30    2.50
  11   5   5    5.90    2.80
 -11  -5   5    6.80    3.70
  11   5   5    4.60    4.60
 -11  -5   5   11.50    5.50
  11  -6   5  256.07   25.30
  11  -6   5  183.08   11.80
  11  -6   5  176.18   18.10
 -11   6   5  206.38   14.30
 -11  -6  -5  213.78   11.70
 -11  -6   5  227.08   19.50
  11   6   5  208.88   14.90
 -11  -6   5  207.68   14.80
  11   6   5  160.68   16.10
  11  -7   5   -8.10   11.30
  11  -7   5   -2.00    2.90
 -11  -7   5    3.90    7.50
  11  -8   5  131.69   23.30
 -11  -8   5  111.59   17.80
  11  -9   5  -10.90   14.60
 -11  -9   5    1.70   10.30
  11   0   6    5.50    2.60
  11   0  -6    6.90    2.00
 -11   0   6    2.60    1.20
 -11   0   6    2.50    4.20
 -11   0  -6    9.70    3.20
  11   0  -6    1.20    3.80
  11   0  -6    3.20    3.10
 -11   0  -6    3.80    2.50
 -11   0  -6    4.90    2.20
 -11   0  -6   10.70    3.70
  11   0  -6    4.00    2.70
  11   0   6    9.70    3.60
 -11   0   6    2.00    3.50
  11   0  -6    1.40    3.90
 -11   1   6   36.70    6.60
  11   1  -6   33.70    5.90
 -11  -1  -6   21.90    5.10
  11   1  -6   33.60    5.70
  11  -1   6   37.90    6.20
  11   1  -6   36.50    6.30
 -11   1   6   30.80    4.60
  11  -1   6   31.30    5.10
  11   1  -6   32.40    5.60
  11   1  -6   33.80    3.50
 -11  -1  -6   36.80    4.30
 -11  -1  -6   40.20    5.30
 -11  -1  -6   49.00    7.00
  11   1  -6   42.00    3.50
 -11  -1  -6   41.10    4.20
  11  -1   6   38.10    6.40
 -11  -1   6   23.10    4.90
 -11   1  -6   41.00    6.10
  11   1   6   39.20    6.00
 -11   1  -6   33.50    5.10
 -11  -1   6   35.80    5.30
  11  -1  -6   32.10    5.10
 -11  -1   6   32.70    5.00
  11   1   6   39.30    4.90
  11  -1  -6   38.80    3.90
  11  -1  -6   32.20    5.20
 -11  -1   6   31.00    5.90
 -11   1  -6   33.40    5.50
 -11   1  -6   36.50    4.10
  11  -2   6    4.40    3.50
 -11   2   6    9.50    4.30
  11   2  -6   -1.90    4.60
  11   2  -6    1.90    3.10
  11   2  -6    0.00    3.30
  11  -2   6    3.30    3.10
  11  -2   6    5.10    4.00
 -11   2   6    6.80    2.30
 -11  -2  -6    3.10    2.50
  11   2  -6    2.10    1.70
 -11  -2  -6    9.00    3.30
 -11  -2  -6   -4.60    4.00
 -11   2   6   -2.10    4.00
 -11  -2  -6    1.80    2.50
  11   2  -6    2.20    1.80
 -11  -2   6   -1.90    3.80
 -11  -2   6    2.20    2.60
 -11   2  -6    3.30    2.40
  11  -2  -6    7.00    3.50
 -11   2  -6    0.40    2.70
  11  -2  -6   11.30    5.00
  11   2   6    5.80    3.60
 -11   2  -6    5.30    3.20
 -11  -2   6   -0.70    3.00
 -11  -2   6   -0.90    3.00
  11  -2  -6    0.70    2.30
 -11  -2   6    4.50    2.90
  11   2   6    4.70    2.60
 -11   3   6   30.90    4.20
  11   3  -6   31.40    3.30
  11  -3   6   30.30    6.00
 -11  -3  -6   33.20    4.30
  11   3  -6   23.90    6.10
  11   3  -6   29.50    4.70
  11   3  -6   21.80    5.60
 -11  -3  -6   31.50    3.90
 -11   3  -6   21.70    4.60
  11  -3  -6   26.70    7.30
 -11   3  -6   36.40    5.40
 -11  -3   6   24.70    4.30
 -11  -3   6   34.80    5.50
  11  -3  -6   18.80    3.80
  11   3   6   32.20    4.50
  11  -3  -6   28.00    4.80
 -11  -3   6   24.10    5.20
 -11   3  -6   30.00    3.60
  11   4  -6    0.50    4.60
 -11   4   6   10.20    4.60
  11   4  -6    7.50    2.10
 -11  -4  -6    1.60    2.60
 -11   4   6    4.80    2.20
  11  -4   6    1.70    2.40
  11  -4   6    5.70    4.90
 -11  -4  -6    9.70    2.20
 -11  -4   6   -0.40    3.80
 -11  -4   6    6.10    4.50
 -11  -4   6   -1.20    2.50
  11   4   6    5.80    2.80
  11  -5   6   11.20    5.80
 -11   5   6   24.90    4.00
 -11   5   6   11.80    4.20
 -11  -5  -6   23.40    3.60
  11  -5   6   19.00    3.60
  11   5  -6   22.00    2.60
 -11  -5   6   20.10    5.00
 -11  -5   6   27.80    7.00
  11   5   6   22.70    6.40
  11   5   6   27.20    4.50
  11  -6   6   -6.60    5.60
 -11  -6  -6    3.30    2.80
 -11   6   6    3.20    2.30
  11  -6   6    0.80    2.80
  11  -6   6   -2.10    9.50
 -11  -6   6    4.60    4.00
 -11  -6   6    4.20    6.10
  11   6   6   -2.40    4.50
  11   6   6    3.00    3.00
  11  -7   6   24.00   13.20
  11  -7   6    2.80    3.40
 -11  -7   6   11.30    8.00
 -11  -7   6    8.50    3.90
  11  -8   6    0.70   13.50
 -11  -8   6    6.90    9.00
  11  -9   6   -1.30   14.80
 -11  -9   6   13.80   10.90
  11   0  -7    8.40    4.20
  11   0  -7   14.50    4.50
 -11   0  -7   15.80    4.20
 -11   0   7   10.90    4.20
 -11   0   7   17.20    5.10
  11   0  -7   16.00    3.50
  11   0   7   16.80    4.20
  11   0  -7    9.50    4.00
  11   0   7   14.80    3.50
  11   0  -7   15.50    2.40
 -11   0  -7   14.00    3.00
 -11   0  -7   16.60    3.10
 -11  -1  -7    4.70    4.20
 -11   1   7    3.30    3.60
 -11   1   7   -0.40    3.90
  11   1  -7    5.70    3.30
  11   1  -7    2.60    3.00
 -11  -1  -7    3.40    2.70
  11   1  -7    3.80    1.40
  11  -1   7    4.10    2.80
 -11  -1  -7    5.10    3.70
  11   1  -7    3.30    4.20
 -11   1   7    4.80    2.20
  11  -1   7    7.00    3.80
 -11  -1  -7    3.70    2.50
 -11  -1  -7    4.90    2.00
  11   1  -7    4.60    1.80
  11  -1  -7    3.20    2.60
  11   1   7    5.10    2.70
  11   1   7    4.50    3.50
 -11   1  -7    2.60    2.40
 -11  -1   7    4.50    2.60
 -11   1  -7    3.30    2.40
 -11  -1   7    2.30    3.20
 -11   1  -7    6.10    3.50
  11  -1  -7    0.10    3.40
 -11  -1   7   -0.20    3.90
  11  -1  -7    2.90    2.00
  11   2  -7   16.80    5.40
 -11   2   7   24.20    4.00
 -11   2   7   13.80    4.90
  11   2  -7   19.70    2.70
 -11   2   7   23.60    5.70
  11   2  -7   20.30    4.10
 -11  -2  -7   20.50    3.70
  11   2  -7   16.20    4.50
  11  -2   7   18.40    4.40
  11   2  -7   12.90    2.30
  11  -2   7   20.50    5.10
 -11  -2  -7   22.10    3.40
  11  -2  -7   15.30    3.00
 -11  -2   7   19.40    5.00
 -11  -2   7   24.20    4.50
  11  -2  -7   18.40    4.00
 -11  -2   7   17.60    4.10
 -11   2  -7   19.90    4.50
 -11   2  -7   16.80    3.90
  11   2   7   20.40    3.70
 -11  -2   7   16.40    3.80
  11   2   7   20.70    4.50
  11  -2  -7   22.10    5.60
 -11   2  -7   18.80    3.20
 -11  -3  -7   14.00    6.00
 -11   3   7    4.60    2.10
  11  -3   7    7.10    4.40
 -11   3   7   18.20    5.30
  11   3  -7    2.60    4.70
  11  -3   7   -2.50    3.00
 -11  -3  -7    5.80    2.40
  11   3  -7    4.80    1.90
 -11  -3  -7    4.70    2.60
  11  -3  -7    1.10    2.70
 -11  -3   7    5.00    4.10
  11  -3  -7    3.00    5.90
 -11  -3   7    4.50    3.80
  11  -3  -7    3.60    3.10
  11   3   7    4.50    2.60
 -11   3  -7    4.90    3.40
 -11  -3   7    6.10    3.00
 -11  -3   7    0.40    3.10
 -11   4   7   11.60    2.60
  11   4  -7   11.60    2.20
  11  -4   7   16.60    5.70
 -11   4   7   26.30    5.80
  11  -4   7    7.70    2.90
 -11  -4  -7   12.50    3.20
 -11  -4   7   15.30    5.30
 -11  -4   7    2.70    3.10
  11   4   7   11.60    3.00
 -11  -4   7    2.30    4.20
  11  -4  -7    7.00    3.80
 -11   5   7    9.20    4.60
  11   5  -7    2.30    1.90
 -11   5   7    2.90    2.10
  11  -5   7    3.90    5.20
  11  -5   7    1.20    2.70
 -11  -5  -7    3.10    2.70
 -11  -5   7   -0.80    3.90
 -11  -5   7    1.10    5.40
  11   5   7    1.50    2.50
 -11  -6  -7   12.00    3.30
 -11   6   7   14.20    2.80
  11  -6   7    0.40    5.90
  11  -6   7   10.10    3.50
 -11  -6   7   21.90    7.90
 -11  -6   7    6.50    4.40
  11  -7   7   -7.20    6.60
  11  -7   7   -2.30   11.70
 -11  -7   7    1.90    7.20
 -11  -7   7   -1.80    3.90
  11  -8   7   -0.90   13.10
 -11  -8   7    5.60    9.10
  11  -9   7   -2.60   15.40
 -11  -9   7    3.30   10.20
 -11   0  -8   59.79    7.30
  11   0   8   66.99    7.10
 -11   0  -8   58.29    5.10
 -11   0  -8   58.89    6.00
  11   0  -8   52.59    7.40
 -11   0   8   45.00    7.30
  11   0   8   55.89    6.20
 -11   0   8   53.29    8.30
  11   0  -8   40.00    7.20
  11   0  -8   56.19    4.40
  11   0  -8   53.69    7.10
 -11   1   8  435.26   30.20
  11   1  -8  444.86   29.50
 -11   1   8  452.75   28.90
 -11  -1  -8  437.76   28.30
 -11  -1  -8  457.35   21.70
  11  -1   8  424.56   29.00
  11   1  -8  389.26   29.20
  11   1  -8  395.96   29.60
  11   1  -8  422.36   18.40
 -11   1   8  356.76   30.40
 -11  -1  -8  505.95   30.90
  11  -1   8  400.86   29.00
  11   1   8  455.75   28.90
 -11   1  -8  429.46   29.10
 -11  -1   8  469.45   30.00
 -11   1  -8  441.76   29.10
  11  -1  -8  447.96   28.90
 -11  -1   8  452.75   29.50
 -11   1  -8  457.05   21.50
  11  -1  -8  427.96   18.70
 -11  -1   8  387.96   29.70
  11   1   8  416.46   28.80
  11  -2   8   11.10    4.50
  11  -2   8    6.10    3.40
 -11  -2  -8    7.70    2.80
 -11   2   8   11.00    2.60
 -11   2   8    8.10    4.40
 -11  -2  -8   -3.70    3.90
  11   2  -8    0.10    4.50
  11   2  -8    9.90    2.10
  11   2  -8    7.90    3.40
 -11  -2   8    5.10    4.40
 -11  -2   8    6.00    3.00
  11  -2  -8    7.90    2.60
 -11   2  -8    8.80    3.80
  11  -2  -8    2.40    3.60
  11   2   8    5.40    2.70
  11  -3   8  377.86   26.20
 -11  -3  -8  397.66   19.20
  11   3  -8  376.86   16.10
  11   3  -8  404.96   26.60
 -11   3   8  383.96   25.00
 -11  -3   8  397.56   27.20
 -11   3  -8  365.26   25.40
  11  -3  -8  375.76   24.60
 -11  -3   8  390.36   26.20
 -11  -3   8  304.67   25.90
  11  -3  -8  329.27   17.10
  11   3   8  384.06   25.00
 -11  -4  -8   36.10    4.30
 -11   4   8   33.40    4.60
  11  -4   8   23.40    4.10
  11   4  -8   35.60    3.70
  11  -4   8   37.20    6.90
 -11  -4   8   37.50    7.00
  11  -4  -8   30.70    4.80
 -11  -4   8   28.10    5.90
  11   4   8   32.00    4.80
  11  -5   8  204.78   13.80
 -11  -5  -8  252.07   13.40
  11  -5   8  230.78   19.20
 -11   5   8  253.37   16.80
  11   5  -8  251.37   11.20
  11   5   8  233.28   16.90
 -11  -5   8  252.37   20.80
 -11  -5   8  251.87   18.30
  11  -6   8    0.30    6.00
  11  -6   8   -2.60    3.00
 -11  -6   8   -1.60    4.40
 -11  -6   8    6.70    7.10
  11  -7   8  168.88   26.00
 -11  -7   8  162.18   14.00
 -11  -7   8  191.48   19.70
  11  -8   8   14.70   15.00
 -11  -8   8    3.00    8.80
  11   0  -9   44.90    4.10
  11   0  -9   38.60    6.90
 -11   0   9   45.50    6.90
 -11   0  -9   46.20    6.90
 -11   0  -9   47.30    5.40
  11   0   9   45.20    6.60
 -11  -1  -9    8.40    2.80
 -11   1   9    0.10    3.90
  11   1  -9   -1.40    4.30
  11   1  -9    0.00    3.00
 -11  -1  -9    4.20    4.30
 -11  -1  -9    2.50    3.90
  11  -1   9    3.60    3.80
  11   1  -9    4.40    2.00
  11   1   9    2.20    2.80
  11  -1  -9   -2.00    3.80
 -11   1  -9    3.20    2.50
  11  -1  -9    1.00    2.00
 -11  -1   9   -2.20    4.10
 -11   1  -9    4.20    3.80
  11   2  -9   45.20    4.00
  11  -2   9   51.59    7.20
 -11  -2  -9   49.10    4.80
  11   2  -9   35.50    6.70
 -11   2   9   38.30    7.20
  11  -2  -9   39.10    6.20
 -11   2  -9   45.10    6.60
  11  -2  -9   42.60    4.60
  11   2   9   41.50    5.60
 -11  -2   9   39.50    6.70
  11  -3   9    4.30    4.50
 -11  -3  -9    5.20    2.80
 -11  -3  -9   -1.60    5.50
 -11   3   9    4.20    4.30
  11   3  -9   -5.50    4.70
  11   3  -9    2.80    1.90
 -11   3  -9    4.10    3.70
 -11  -3   9   -2.80    4.30
  11  -3  -9   -1.50    2.50
 -11  -3   9    3.40    4.10
  11  -3  -9    0.60    3.30
  11   3   9    0.50    2.60
 -11   4   9   24.50    6.30
  11  -4   9   25.40    4.30
  11   4  -9   36.40    3.90
  11  -4   9   40.20    7.00
 -11  -4   9   34.70    6.50
  11  -4  -9   30.90    4.70
  11   4   9   34.20    5.10
 -11  -4   9   48.80    7.90
  11  -5   9    1.80    3.00
  11  -5   9    7.10    5.80
  11   5  -9    2.10    2.20
 -11  -5   9    4.10    5.90
 -11  -5   9   -1.80    4.70
  11  -5  -9    1.80    4.00
  11   5   9    1.90    2.90
  11  -6   9   12.40    6.70
 -11  -6   9   30.60    8.70
 -11  -6   9   15.10    5.60
  11  -7   9    8.00   13.10
  11  -7   9   -1.50    6.70
 -11  -7   9   -6.00    4.70
 -11  -7   9    8.80    8.30
  11  -8   9   12.70   14.90
 -11  -8   9   20.60   10.10
 -11   0 -10    9.30    4.30
  11   0  10    5.00    4.00
  11   0 -10    7.60    2.30
  11   0 -10    2.00    4.20
  11   1 -10    1.20    1.90
  11   1 -10   -1.90    2.90
 -11  -1 -10    5.80    4.20
  11  -1  10    0.00    3.90
  11   1 -10   -2.80    4.30
 -11  -1  10   -4.50    4.10
  11  -1 -10    1.10    2.10
 -11   1 -10    4.20    3.90
  11  -1 -10   -5.50    3.70
 -11  -2 -10   16.30    5.50
  11   2 -10   30.60    3.20
 -11   2  10   27.70    6.30
  11   2 -10   34.90    6.40
  11  -2  10   36.40    6.00
  11  -2 -10   28.60    5.10
  11  -2 -10   31.20    3.70
 -11  -2  10   33.20    6.30
 -11   2 -10   37.30    6.40
 -11  -3 -10   -6.60    5.30
  11  -3  10    2.20    4.60
 -11   3  10    0.80    4.10
  11   3 -10    1.70    2.00
  11   3 -10   -4.60    4.80
 -11  -3  10   -5.20    4.40
  11  -3 -10   -1.60    2.60
 -11   3 -10    1.40    4.00
  11  -3 -10    0.10    3.40
  11   4 -10    4.70    2.20
 -11   4  10    5.60    4.40
  11  -4  10    3.80    5.20
  11  -4  10    0.60    3.00
 -11  -4  10    5.60    2.40
 -11  -4  10   14.00    6.10
  11  -4 -10    4.40    3.40
 -11  -4  10   -3.80    4.60
  11   5 -10   -0.60    2.20
  11  -5  10    2.40    5.70
 -11  -5  10    4.80    2.60
 -11  -5  10    3.70    6.10
  11  -5 -10    0.90    3.80
 -11  -5  10   -5.60    4.90
  11  -6  10    4.20    6.40
 -11  -6  10   10.70    7.60
 -11  -6  10    5.90    5.60
 -11  -7  10    1.80    8.10
  11  -8  10    3.30   14.70
 -11  -8  10   -5.40    8.80
  11   0 -11  352.56   24.20
 -11   0 -11  327.37   24.40
  11   0 -11  355.16   15.50
  11  -1  11    7.10    4.50
  11   1 -11    2.40    4.70
  11   1 -11    5.50    2.30
 -11  -1 -11    4.20    4.40
  11  -1 -11    5.10    2.40
 -11   1 -11    8.10    4.40
  11  -1 -11    2.40    4.30
 -11  -1  11    3.40    4.70
  11  -2  11  290.17   21.30
  11   2 -11  283.87   13.30
  11   2 -11  294.17   21.60
 -11   2 -11  285.77   21.10
  11  -2 -11  285.37   13.90
  11  -2 -11  298.27   20.50
 -11  -2  11  311.17   22.00
  11   3 -11    0.50    5.30
  11  -3  11    4.50    5.00
 -11  -3 -11   -5.30    5.40
  11   3 -11    5.60    2.30
  11  -3 -11    6.00    3.00
  11  -3 -11    9.10    4.10
 -11  -3  11    2.20    5.20
  11   4 -11  264.57   12.30
  11  -4  11  261.57   20.50
  11  -4 -11  235.58   13.50
 -11  -4  11  283.87   20.60
 -11  -4  11  275.87   22.30
 -11  -4  11  265.77   13.70
  11   5 -11    0.90    2.40
  11  -5  11    3.50    5.80
 -11  -5  11    7.30    2.90
 -11  -5  11    2.90    6.60
 -11  -5  11   -6.20    5.20
  11  -5 -11    2.40    4.10
  11  -6  11  159.88   16.00
 -11  -6  11  166.18   18.20
 -11  -6  11  149.99   14.60
 -11  -7  11    6.20    8.80
  11   0 -12    4.70    2.50
  11   0 -12   -1.20    4.80
 -11   0 -12    6.50    4.80
  11   1 -12   56.09    4.80
  11   1 -12   50.49    8.40
 -11  -1 -12   54.39    8.40
 -11   1 -12   59.59    8.20
  11  -1 -12   57.19    5.10
  11  -1 -12   49.80    7.70
 -11  -2 -12    0.50    4.80
  11   2 -12    6.50    2.50
  11   2 -12    0.80    5.40
  11  -2  12    4.10    5.00
  11  -2 -12    4.20    4.70
 -11   2 -12   10.20    4.90
  11  -2 -12    6.60    3.00
 -11  -2  12    4.10    5.50
  11   3 -12   51.69    4.80
  11  -3  12   52.99    8.00
  11  -3 -12   52.39    5.70
 -11  -3  12   37.10    7.70
  11   4 -12    0.90    2.50
  11  -4  12    7.20    6.00
  11  -4 -12    1.50    3.40
 -11  -4  12    3.30    6.00
 -11  -4  12   -5.10    5.40
  11  -5  12   37.60    8.40
  11   5 -12   34.50    3.90
 -11  -5  12   27.80    7.60
  11  -5 -12   28.30    5.40
 -11  -5  12   45.10    9.60
 -11  -6  12    3.50    7.70
  11  -6 -12   11.10    4.90
 -11  -7  12   28.50   10.50
 -11   0 -13    2.30    4.90
  11   0 -13   -4.00    4.90
  11   0 -13    1.00    2.40
  11   1 -13    0.70    2.40
  11   1 -13   -4.70    5.00
 -11  -1 -13    5.10    5.10
  11  -1 -13    0.70    2.60
 -11   1 -13    0.10    4.70
  11  -1 -13   -2.50    4.70
  11   2 -13    2.00    2.50
 -11  -2 -13   -4.40    4.80
  11   2 -13   -6.50    5.40
 -11   2 -13   -0.30    4.80
  11  -2 -13   -0.30    4.40
  11  -2 -13   -0.90    2.60
  11  -3  13   -2.60    5.30
 -11  -3 -13   -0.70    2.00
  11   3 -13   -0.10    2.40
 -11  -3 -13  -11.30    5.20
  11  -3 -13   -1.10    3.00
 -11  -3  13   -6.00    5.50
  11   4 -13    0.10    2.60
  11  -4  13    1.00    6.00
  11  -4 -13    1.10    3.50
 -11  -4  13   -9.60    5.60
  11  -5  13    1.70    6.70
  11   5 -13   -0.90    2.80
 -11  -5  13  -10.00    6.00
  11  -5 -13   -1.90    3.80
 -11  -5  13    4.40    7.40
  11  -6 -13    2.90    4.70
 -11  -6  13    1.30    8.10
  11   0 -14    5.00    2.90
 -11   0 -14    3.40    5.40
  11   0 -14    0.80    5.40
 -11  -1 -14  203.48   18.30
  11   1 -14  229.58   11.50
  11   1 -14  243.78   18.50
  11  -1 -14  229.08   11.70
 -11   1 -14  221.48   18.20
  11  -1 -14  237.08   17.90
  11   2 -14   12.00    3.10
 -11  -2 -14    1.80    5.50
  11   2 -14    4.40    6.30
 -11  -2 -14   11.00    2.60
  11  -2 -14   15.80    3.60
 -11   2 -14    9.90    5.60
  11  -2 -14   14.70    5.70
  11   3 -14  194.68   10.00
 -11  -3 -14  194.28    9.70
  11  -3 -14  188.98   10.80
  11  -3 -14  174.38   14.40
  11  -4  14   -2.70    6.40
  11   4 -14    0.50    2.80
  11  -4 -14   -1.40    3.60
 -11  -4  14  -10.60    6.20
  11   5 -14  153.88    8.90
  11  -5 -14  137.19   10.40
 -11  -5  14  166.58   18.50
  11   0 -15   40.00    4.60
 -11   0 -15   45.00    8.10
  11   0 -15   40.90    7.80
  11   1 -15    0.60    2.80
 -11  -1 -15   -3.70    5.50
 -11  -1 -15   -0.60    2.40
  11   1 -15   -2.70    5.90
  11  -1 -15   -0.10    2.90
  11  -1 -15   -0.80    5.50
 -11   1 -15   -0.90    5.50
 -11  -2 -15   31.80    3.70
  11   2 -15   31.50    4.20
 -11  -2 -15   20.20    7.00
  11   2 -15   28.60    7.60
 -11   2 -15   30.50    7.20
  11  -2 -15   35.90    4.70
 -11  -3 -15    0.10    2.30
  11   3 -15   -0.60    2.80
  11  -3 -15    1.00    3.60
  11   4 -15   27.40    4.10
  11  -4  15   26.80    8.20
  11  -4 -15   31.70    5.20
  11   5 -15   -2.20    3.00
  11  -5 -15    2.60    4.30
  11   0 -16    5.00    3.30
 -11   0 -16    1.10    3.40
  11   1 -16    1.00    6.40
 -11  -1 -16    3.70    3.30
  11   1 -16    1.30    3.10
 -11   1 -16    3.20    6.00
  11  -1 -16    3.80    3.40
  11   2 -16   -4.70    6.60
 -11  -2 -16   -1.00    2.50
  11   2 -16    0.60    3.00
  11  -2 -16   -2.50    3.30
 -11   2 -16   -7.00    5.60
  11   3 -16    0.70    3.10
  11  -3 -16    5.00    3.80
  11   4 -16    2.10    3.30
  11   0 -17  122.29    8.50
 -11   0 -17  126.89    8.40
  11   1 -17   -1.70    3.30
 -11  -1 -17    0.80    2.80
 -11   1 -17   -3.90    3.50
  11  -1 -17    1.90    3.50
  11   2 -17  112.79    8.20
 -11  -2 -17  124.79    8.10
 -11   2 -17  126.69    8.70
  11  -2 -17  122.29    8.90
 -12   0   0 7849.01  473.65
  12   0   0 7548.84  474.35
 -12   0   0 7426.06  472.85
 -12   0   0 7803.42  476.65
 -12   0   0 7578.84  476.65
 -12  -1   0  453.65   32.80
  12  -1   0  466.65   33.10
  12   1   0  555.94   36.00
  12   1   0  469.85   33.50
  12  -1   0  470.45   34.60
 -12   1   0  447.26   32.70
 -12  -2   0 1194.68   73.99
  12   2   0 1124.49   74.59
 -12  -2   0 1130.09   74.49
 -12  -3   0  271.07   20.90
  12   3   0  298.47   22.00
  12  -3   0  294.67   20.10
 -12  -3   0  281.27   22.30
 -12  -3   0  257.67   19.00
 -12  -3   0  287.27   18.90
  12   3   0  277.17   20.30
  12  -4   0 2779.32  160.98
  12   4   0 2535.85  164.78
  12  -4   0 2502.35  116.49
 -12  -4   0 2540.25  162.48
 -12  -4   0 2393.76  167.18
 -12  -4   0 2740.93  161.58
  12   4   0 2649.63  162.98
  12  -5   0  227.78   14.90
 -12  -5   0  178.58   16.30
 -12  -5   0  226.78   21.20
  12   5   0  222.98   18.90
  12   5   0  238.88   16.30
  12  -5   0  214.98   11.80
 -12  -5   0  228.08   15.40
 -12  -6   0  538.35   41.90
  12   6   0  608.74   39.70
  12  -6   0  497.45   26.30
 -12  -7   0  120.79   18.00
  12  -7   0   96.89    8.00
 -12  -8   0  571.64   46.40
 -12  -9   0   72.19   18.30
  12   0  -1  140.89   14.90
 -12   0   1  210.68   16.80
 -12   0   1  183.78   15.90
 -12   0  -1  187.58   15.20
 -12   0  -1  181.78   15.30
  12   0  -1  194.48   17.60
  12   0   1  167.98   18.20
 -12   0  -1  161.78   17.20
 -12   0   1  186.38   14.70
 -12   0  -1  152.28   15.40
 -12   0   1  209.68   15.60
  12   0  -1  181.68   18.20
  12   1  -1  295.87   22.80
 -12   1   1  274.17   21.30
  12  -1   1  296.67   22.20
  12  -1   1  282.47   23.50
 -12  -1  -1  236.48   20.90
 -12  -1  -1  320.17   23.50
  12   1  -1  335.77   25.30
 -12   1   1  309.27   22.10
 -12  -1  -1  346.07   22.40
 -12   1  -1  261.77   21.70
  12  -1  -1  321.37   24.60
  12   1   1  268.97   23.30
  12  -1  -1  324.07   24.70
 -12  -2  -1   24.00    4.00
  12  -2   1   22.80    5.50
  12  -2   1   45.80    8.80
 -12  -2  -1   28.90    6.40
 -12   2   1   28.70    4.80
  12   2  -1   20.70    4.30
 -12  -2  -1   25.10    4.40
 -12  -2  -1   32.50    7.80
 -12   2   1   15.60    4.00
  12  -2  -1   15.70    3.50
  12   2   1   17.70    4.90
 -12  -2   1   22.10    4.20
  12   2   1   21.30    5.40
 -12  -2   1   24.00    5.90
  12  -2  -1   42.80    8.40
 -12   2  -1   19.30    4.50
  12  -3   1  175.48   12.60
 -12  -3  -1  159.48   10.90
 -12   3   1  119.89   12.10
 -12  -3  -1  158.08   11.00
  12   3  -1  173.38   12.80
 -12  -3  -1  134.39   13.50
  12  -3  -1  169.98    8.50
  12   3   1  145.29   12.90
  12  -3  -1  146.69   15.00
 -12  -3   1  130.19   11.90
 -12  -3   1  164.08   12.90
 -12   3  -1  146.99   12.50
 -12  -3   1  160.68   13.40
 -12  -3   1  166.78   14.60
  12  -3  -1  152.38   12.70
 -12  -3   1  164.58   11.50
 -12  -4  -1   47.90    8.30
  12  -4   1   80.39    7.40
  12   4  -1   79.79    7.60
  12  -4   1   97.99   14.50
 -12  -4  -1   80.49   12.20
  12   4  -1   69.99   12.40
 -12   4   1   53.49    7.20
  12  -4   1   73.99    5.60
 -12  -4   1   80.99    8.10
  12  -4  -1   65.39    9.40
  12  -4  -1   80.19    7.20
 -12   4  -1   54.39    5.40
 -12  -4   1   76.29   11.90
  12  -4  -1   76.49    5.20
  12   4   1   61.19    7.90
  12  -5   1  119.99    7.60
 -12   5   1   95.59   10.10
  12   5  -1  133.09   10.00
 -12  -5  -1   86.39    8.50
 -12  -5  -1   92.69   15.50
  12  -5   1  104.39   12.70
  12  -5   1  128.29    9.10
 -12  -5   1  114.99   12.30
 -12   5  -1   96.99    6.60
  12  -5  -1  117.39    7.30
  12   5   1  121.49   10.10
 -12  -5   1  133.19    9.70
 -12  -5   1  123.39   15.00
 -12   6   1   13.40    4.20
 -12  -6  -1    9.30    3.60
  12  -6   1   16.10   10.70
  12  -6   1    8.40    2.90
 -12  -6  -1   12.40    9.40
  12   6  -1   31.30    7.90
  12  -6  -1   28.80   12.60
  12   6   1    9.00    5.10
  12  -6  -1    8.40    2.80
 -12   6  -1   21.40    6.90
 -12  -6   1   16.00    8.30
  12  -7   1   90.39   17.80
  12  -7   1   44.80    5.50
 -12  -7  -1   70.79   15.10
 -12  -7   1   73.89   13.60
 -12  -8  -1   16.20   12.80
 -12  -8   1   14.00   11.20
 -12  -9  -1   49.40   17.10
 -12  -9   1   39.50   14.50
  12   0  -2  157.68   14.60
  12   0  -2  192.18   17.90
  12   0   2  194.98   17.50
 -12   0  -2  157.88   15.90
 -12   0  -2  179.78   14.90
 -12   0   2  202.88   14.30
  12   0   2  138.49   15.00
 -12   0  -2  164.28   11.30
 -12   0  -2  203.58   14.80
  12   1  -2   88.49   13.40
  12  -1   2   61.49    9.40
 -12  -1  -2   69.59    6.90
  12   1  -2   62.69    7.80
 -12  -1  -2   70.99    9.60
  12  -1   2   50.49    8.50
 -12   1   2   55.79    6.40
 -12  -1   2   58.49    9.40
  12   1   2   55.79    9.10
  12  -1  -2   66.09   11.30
 -12   1  -2   49.00    6.10
  12  -1  -2   70.79    7.30
  12   1   2   47.60    6.60
 -12   1  -2   43.70    7.00
 -12  -1   2   51.39    7.00
  12  -2   2  218.38   17.40
  12  -2   2  203.98   15.40
  12   2  -2  195.78   18.90
 -12   2   2  178.48   15.10
 -12  -2  -2  162.88   14.40
 -12   2   2  180.48   14.50
 -12  -2  -2  169.48   12.00
 -12   2  -2  177.58   11.50
 -12  -2   2  196.18   14.80
 -12  -2   2  222.38   15.40
  12   2   2  163.18   16.40
 -12   2  -2  189.68   14.80
  12  -2  -2  238.48   17.60
 -12  -2   2  213.18   16.30
  12  -3   2   34.90    5.70
 -12  -3  -2   42.10    7.10
  12  -3   2   58.09    6.50
 -12  -3  -2   40.70    7.30
 -12  -3  -2   40.00    5.60
  12   3  -2   50.69    6.30
  12  -3   2   64.89   10.70
 -12   3   2   41.90    5.90
  12   3  -2   41.60    9.60
  12   3   2   35.30    6.10
  12  -3  -2   39.00    7.00
  12   3   2   37.50    6.60
 -12  -3   2   48.30    5.40
 -12   3  -2   56.79    6.80
  12  -3  -2   54.59    3.90
 -12   3  -2   35.20    4.70
 -12  -3   2   58.09    8.90
 -12  -3   2   47.20    7.40
  12  -3  -2   37.70    6.40
  12   3   2   50.39    8.70
 -12  -3   2   47.90    5.80
  12   4  -2  154.48   10.90
 -12  -4  -2  108.19    9.20
  12   4  -2  102.59   14.50
 -12   4   2  113.89   10.60
 -12  -4  -2  125.19   10.70
  12  -4   2  126.59    8.00
 -12  -4  -2  118.09   11.10
 -12   4  -2  115.79    7.70
  12   4   2  115.69   11.30
 -12  -4   2  132.89   13.80
  12  -4  -2  141.09    7.30
  12  -4  -2  133.69   11.10
 -12  -4   2  144.59   11.20
  12  -4  -2  140.79   10.30
 -12   5   2   32.90    5.70
  12  -5   2   36.00    4.60
  12  -5   2   66.39   12.00
 -12  -5  -2   29.50    4.80
  12  -5  -2   38.70    4.30
 -12   5  -2   30.30    3.50
  12   5   2   44.70    6.50
 -12  -5   2   47.50    9.00
  12   5   2   28.70    5.70
 -12  -5   2   39.40    6.00
 -12  -6  -2   94.79    7.90
  12  -6   2   89.99    7.30
 -12  -6  -2  129.49   18.40
 -12   6   2   79.99    8.90
  12  -6  -2   92.99    6.90
 -12  -6   2  102.29   15.00
  12  -6  -2  149.49   23.10
  12  -7   2   11.10    3.50
 -12   7   2    6.70    3.80
  12  -7   2    9.40   12.20
 -12  -7  -2   28.50   12.80
 -12  -7   2   21.40    9.80
 -12  -8  -2   44.40   16.20
  12  -8   2   40.50   16.20
 -12  -8   2   51.99   13.80
 -12  -9  -2   12.30   15.10
 -12  -9   2   23.70   12.90
 -12   0   3  213.08   18.00
 -12   0   3  201.78   15.70
  12   0  -3  177.58   16.10
 -12   0  -3  234.58   17.60
  12   0   3  175.98   16.40
  12   0  -3  240.28   18.90
 -12   0  -3  226.88   12.90
 -12   0  -3  238.68   16.30
  12   0  -3  193.08   17.00
 -12  -1  -3 1400.56   78.59
  12   1  -3 1368.86   80.79
  12   1  -3 1044.20   49.50
  12   1  -3 1074.19   78.99
 -12  -1  -3 1296.47   58.79
  12  -1   3 1366.36   79.39
  12   1  -3 1345.97   56.39
 -12   1   3 1275.47   78.69
  12   1  -3 1156.48   78.49
 -12  -1   3 1238.98   79.09
 -12  -1   3 1106.69   78.29
  12  -1  -3 1291.77   78.49
 -12  -1   3 1094.89   79.19
 -12   1  -3 1092.19   77.89
 -12   1  -3 1219.48   79.49
 -12   1  -3 1302.27   58.39
 -12  -2  -3  199.78   12.80
 -12  -2  -3  240.88   14.90
  12   2  -3  192.28   17.70
  12   2  -3  169.28   10.00
  12   2  -3  218.78   11.70
  12  -2   3  234.58   16.40
  12   2  -3  229.28   19.50
  12   2  -3  218.98   16.10
 -12   2   3  202.08   15.50
  12  -2   3  242.78   17.20
  12  -2  -3  221.48   14.60
  12  -2  -3  226.38   17.10
 -12   2  -3  209.08   15.80
 -12  -2   3  232.78   17.20
 -12   2  -3  214.48   17.20
 -12  -2   3  230.18   16.00
 -12  -2   3  201.08   15.80
  12   2   3  173.18   15.50
 -12  -2   3  165.38   16.10
 -12   2  -3  201.78   12.10
 -12  -3  -3 1261.27   72.79
  12   3  -3 1163.38   76.29
 -12   3   3 1116.29   72.89
 -12  -3  -3 1056.59   54.39
  12   3  -3 1027.30   74.89
 -12  -3   3  929.91   73.09
 -12  -3   3 1140.29   74.49
 -12   3  -3 1185.98   72.69
 -12   3  -3 1273.67   75.69
  12  -3  -3 1246.58   51.49
  12   3   3 1012.60   73.09
 -12  -3   3 1288.97   73.29
 -12  -3   3 1191.58   72.69
 -12   3  -3 1092.69   53.29
 -12   4   3  170.78   13.40
 -12  -4  -3  192.68   13.20
  12   4  -3  197.28   13.70
  12  -4   3  163.48   10.20
  12   4  -3  144.99   16.60
 -12  -4  -3  166.08   11.40
  12   4  -3  226.18   18.50
 -12  -4  -3  154.68   14.00
  12  -4   3  170.78   16.80
  12  -4  -3  191.38    9.30
 -12   4  -3  207.28   16.90
  12   4   3  163.98   13.80
 -12  -4   3  189.88   16.10
 -12   4  -3  168.78    9.70
 -12  -4   3  189.08   14.10
  12  -4  -3  166.68   12.90
 -12  -5  -3  640.94   32.30
  12  -5   3  642.24   31.30
 -12   5   3  640.24   42.60
 -12  -5   3  768.72   42.40
  12   5   3  550.84   42.80
 -12  -5   3  689.13   46.00
  12   5   3  604.54   43.30
  12  -5  -3  675.73   30.40
 -12   5  -3  648.74   30.40
 -12   6   3  105.59    9.80
 -12  -6  -3  112.79    8.40
  12  -6   3   97.99    8.00
 -12  -6   3  116.89   14.90
 -12  -6   3  126.19    9.40
 -12   7   3  317.67   24.50
  12  -7   3  339.57   18.90
 -12  -7   3  424.66   31.20
  12  -8   3  101.69   20.50
 -12  -8   3   82.49   15.60
 -12  -9   3  169.78   23.80
  12   0   4  157.68   13.50
 -12   0  -4  187.98   13.00
  12   0  -4  173.98    8.90
 -12   0   4  134.49   13.50
  12   0   4  130.99   12.40
  12   0  -4  156.58   13.10
  12   0  -4  125.29   13.40
  12   0  -4  187.68    8.90
 -12   0  -4  175.58   10.50
 -12   0   4  191.68   13.00
 -12   0  -4  126.89   12.80
 -12   0   4  150.28   14.90
  12   0  -4  185.48   15.20
 -12  -1  -4   42.10    6.70
  12   1  -4   40.50    8.00
 -12  -1  -4   37.30    4.90
 -12  -1  -4   34.30    6.30
 -12  -1  -4   45.50    5.20
  12  -1   4   42.80    6.60
  12   1  -4   36.80    4.20
  12  -1   4   37.70    6.40
 -12   1   4   36.40    7.30
 -12   1   4   43.60    5.40
  12   1  -4   32.00    6.10
  12   1  -4   37.80    5.90
  12   1  -4   33.70    6.30
  12   1  -4   46.10    4.50
  12  -1  -4   43.00    5.40
 -12  -1   4   46.60    5.20
 -12  -1   4   40.20    6.20
  12  -1  -4   46.50    7.20
 -12   1  -4   41.20    6.20
 -12  -1   4   37.60    6.60
  12   1   4   43.00    7.00
 -12  -1   4   48.00    7.40
 -12  -1   4   36.90    5.30
  12  -1  -4   36.50    4.30
 -12   1  -4   42.50    6.10
  12   1   4   37.40    5.40
  12  -1  -4   60.19    9.50
 -12   1  -4   43.60    5.00
  12   2  -4  173.78    9.10
  12   2  -4  127.89    7.70
 -12  -2  -4  163.38   10.20
 -12  -2  -4  160.38   10.90
  12   2  -4  153.08   12.40
  12  -2   4  149.19   13.40
  12   2  -4  157.48   15.10
 -12   2   4  153.38   11.70
  12  -2   4  159.98   12.70
 -12  -2   4  167.38   12.10
  12  -2  -4  145.99   10.80
 -12  -2   4  116.69   12.50
 -12  -2   4  135.39   12.10
 -12   2  -4  147.49    9.20
 -12  -2   4  143.19   13.30
  12   2   4  149.79   11.90
 -12   2  -4  146.59   12.00
  12  -2  -4  147.89   12.80
 -12  -2   4  150.38   12.50
  12   3  -4   31.00    7.40
  12  -3   4   65.79    7.80
  12  -3   4   31.60    7.00
 -12   3   4   45.00    5.50
 -12  -3  -4   53.69    6.00
 -12   3   4   50.29    7.10
  12   3  -4   46.20    8.50
  12   3  -4   32.30    4.90
 -12  -3  -4   43.50    5.60
  12   3  -4   40.60    4.00
 -12  -3  -4   64.49    9.50
 -12   3  -4   48.00    6.30
  12   3   4   51.09    5.90
 -12   3  -4   47.60    4.50
 -12  -3   4   45.20    7.30
  12  -3  -4   42.10    6.50
 -12   3  -4   29.10    6.20
 -12  -3   4   48.00    5.60
 -12  -3   4   51.89    7.60
  12   3   4   30.60    6.50
 -12  -4  -4   93.59   10.60
 -12  -4  -4  114.39    8.30
  12   4  -4  102.39    6.30
 -12  -4  -4  125.69    8.90
  12  -4   4   97.99    7.40
  12   4  -4   83.09   12.60
 -12   4   4  125.79    9.40
 -12  -4   4  131.99   12.20
 -12   4  -4   83.19   11.30
  12   4   4  126.69    9.80
  12  -4  -4  101.99    9.00
 -12   4  -4  114.59    6.80
  12   4   4   83.49   11.00
 -12  -4   4  120.69   10.50
  12  -5   4   10.80    3.00
  12  -5   4   20.60    9.80
 -12   5   4   17.30    3.40
  12   5  -4   13.90    2.50
 -12  -5  -4   16.80    3.60
  12  -5   4   10.00    6.70
  12   5  -4   14.70    6.90
 -12  -5   4   25.70    6.80
  12   5   4   19.20    4.20
  12   5   4   11.00    5.00
 -12   5  -4   18.90    2.70
 -12  -5   4   19.50    4.70
  12  -6   4   90.09   15.70
 -12  -6  -4   56.49    6.10
 -12   6   4   61.99    6.90
  12  -6   4   55.19    6.20
  12  -6   4   92.79   13.30
  12   6   4   63.49    7.60
 -12  -6   4   61.09    7.10
 -12  -6   4   72.49   12.60
  12  -7   4   21.40   13.30
 -12  -7   4   24.00    9.00
  12  -8   4   21.70   14.80
 -12  -8   4   44.50   12.10
 -12  -9   4    0.50   11.30
  12   0   5   57.79    7.30
  12   0  -5   50.69    8.40
  12   0  -5   49.90    6.50
 -12   0  -5   54.39    7.10
 -12   0   5   52.29    6.00
 -12   0  -5   42.00    6.80
  12   0  -5   63.29    4.00
  12   0  -5   54.99    7.50
  12   0   5   46.40    6.10
 -12   0  -5   58.59    5.50
  12   0  -5   34.90    6.50
 -12   0  -5   57.09    6.20
 -12   0   5   50.79    9.00
 -12   0   5   40.90    7.00
  12   0  -5   46.80    4.50
  12  -1   5  165.18   13.40
  12   1  -5  130.59   12.90
  12   1  -5  189.38    9.00
  12  -1   5  164.88   13.70
  12   1  -5  139.79   13.10
 -12  -1  -5  173.78   10.20
 -12  -1  -5  180.68   13.10
  12   1  -5  177.98   14.70
  12   1  -5  171.78    8.40
 -12   1   5  164.18   12.40
 -12  -1  -5  175.18   12.00
 -12   1   5  131.99   14.70
  12   1   5  156.58   13.10
  12  -1  -5  160.18   12.00
 -12   1  -5  159.68   12.80
 -12   1  -5  166.48    9.80
  12  -1  -5  174.38   13.60
 -12  -1   5  147.59   12.60
  12   1   5  156.48   12.40
 -12   1  -5  158.78   12.80
 -12  -1   5  132.29   13.00
  12  -1  -5  139.39    8.60
  12  -1  -5  133.99   14.00
 -12  -1   5  156.38   14.20
  12  -2   5   96.39   10.30
  12   2  -5   70.89   10.10
  12   2  -5  109.29   12.10
 -12  -2  -5   96.49    8.90
  12   2  -5  121.49    7.10
 -12  -2  -5  107.69    7.70
  12   2  -5   97.49    6.00
 -12   2   5   78.69   11.60
 -12  -2  -5  100.29    9.30
 -12  -2  -5  133.39   12.20
 -12   2   5  104.89    8.80
  12  -2   5  118.59   10.00
  12   2  -5   95.09    9.30
 -12  -2  -5  109.09    7.90
 -12  -2   5   88.19   10.10
 -12  -2   5  117.09    9.50
 -12  -2   5   97.39   10.60
  12  -2  -5   80.09    7.00
 -12   2  -5   92.89    9.80
  12  -2  -5   89.99    9.60
 -12  -2   5   86.59    9.30
  12   2   5   94.49    9.90
  12   2   5  106.19    8.90
 -12   2  -5   97.49    6.90
 -12   2  -5  110.29    9.40
  12  -3   5  113.79   12.60
 -12   3   5  144.89   10.90
 -12  -3  -5  137.69    9.30
 -12  -3  -5  149.69   10.90
  12   3  -5  139.69    7.40
  12   3  -5  125.49   13.70
  12  -3   5  120.49   12.10
  12  -3  -5  139.99   14.70
  12   3   5  150.38   11.20
 -12   3  -5  151.68   11.60
 -12  -3   5  156.58   12.40
  12  -3  -5  140.09   11.10
 -12  -3   5  154.28   12.50
 -12   3  -5  115.19   12.30
 -12  -3   5  136.09   11.30
 -12   3  -5  138.39    8.30
 -12  -3   5  137.69   12.30
 -12  -4  -5   22.50    5.90
 -12  -4  -5   39.60    4.50
  12  -4   5   21.70    3.80
  12  -4   5   24.40    6.90
  12   4  -5   36.50    3.80
  12   4  -5   27.80    7.30
 -12   4   5   36.90    5.00
 -12  -4  -5   32.80    4.50
 -12   4   5   27.50    5.60
 -12  -4   5   48.30    8.40
 -12  -4   5   29.50    5.80
 -12   4  -5   34.20    3.70
  12   4   5   38.10    5.30
 -12  -4   5   22.40    4.00
  12  -5   5   68.69    6.60
 -12   5   5   88.79    7.60
  12   5  -5   73.49    5.20
 -12  -5  -5   87.09    6.80
 -12  -5   5   86.19   11.40
  12   5   5   62.59    9.80
 -12  -5   5   83.29    8.70
  12   5   5   91.79    8.20
 -12  -6  -5   36.80    4.80
  12  -6   5   48.80   14.20
  12  -6   5   28.90    4.60
  12  -6   5   39.10    9.70
 -12   6   5   43.40    5.80
  12   6   5   46.30    6.60
 -12  -6   5   66.69   11.80
 -12  -6   5   38.10    6.60
  12  -7   5   32.70    5.20
  12  -7   5   67.39   16.80
 -12  -7   5   56.89   11.00
  12  -8   5   16.90   14.80
 -12  -8   5   12.50    9.80
  12  -9   5    7.30   15.50
 -12  -9   5   18.30   12.10
  12   0  -6 1188.08   70.39
  12   0  -6 1075.79   70.19
  12   0   6 1007.60   70.09
 -12   0  -6 1188.78   51.79
  12   0  -6  898.71   69.89
 -12   0  -6 1141.99   70.09
 -12   0   6 1198.78   71.49
  12   0   6 1074.89   69.89
  12   0  -6 1092.09   44.40
  12   1  -6  338.97   22.50
  12   1  -6  297.77   13.40
 -12  -1  -6  319.07   16.10
  12   1  -6  276.87   21.30
 -12   1   6  312.47   20.90
 -12   1   6  300.47   23.00
  12   1  -6  255.57   21.40
 -12  -1  -6  307.87   20.20
  12  -1   6  305.57   21.50
 -12  -1  -6  325.67   21.10
  12   1  -6  247.98   21.30
  12  -1  -6  276.07   13.70
 -12   1  -6  304.97   15.70
 -12   1  -6  318.17   21.70
 -12  -1   6  321.27   22.40
  12  -1  -6  289.67   20.50
  12   1   6  297.07   21.30
 -12  -1   6  331.47   20.50
 -12  -1   6  271.97   21.00
 -12   1  -6  314.87   21.30
  12   1   6  304.47   20.80
 -12   1  -6  276.87   21.00
 -12  -1   6  246.68   21.50
  12  -1  -6  297.67   21.20
 -12  -2  -6 2580.34  153.18
 -12  -2  -6 2486.15  111.99
  12   2  -6 2525.65  152.88
 -12   2   6 2263.37  153.58
  12   2  -6 2767.72  109.69
 -12  -2  -6 2292.17  152.98
 -12  -2  -6 2587.24  151.48
  12   2  -6 2527.15  153.38
  12  -2   6 2292.27  152.08
 -12   2   6 2536.55  152.68
  12   2  -6 2452.35   96.09
  12   2   6 2373.76  152.58
  12  -2  -6 2123.49   96.69
 -12  -2   6 2598.84  152.58
 -12  -2   6 2327.27  153.38
  12  -2  -6 2535.05  151.48
 -12   2  -6 2449.35  111.39
 -12   2  -6 2410.66  151.78
  12   2   6 2136.59  151.68
 -12   2  -6 2326.07  153.58
 -12  -2   6 2490.55  154.68
 -12  -3  -6  263.27   14.60
  12  -3   6  241.58   19.80
  12   3  -6  262.07   20.60
 -12  -3  -6  274.17   18.10
  12   3  -6  253.57   11.90
 -12   3   6  269.87   18.40
 -12  -3   6  278.87   20.00
  12   3   6  264.27   18.50
  12  -3  -6  266.07   18.20
 -12  -3   6  252.77   19.00
 -12  -3   6  271.07   19.70
 -12   3  -6  256.17   13.70
 -12   3  -6  267.57   18.90
  12  -4   6  553.74   44.40
 -12  -4  -6  656.33   32.70
 -12  -4  -6  682.43   42.40
 -12   4   6  680.93   43.40
  12   4  -6  682.63   27.60
  12   4   6  684.43   43.50
 -12  -4   6  696.43   45.80
 -12  -4   6  716.53   44.20
 -12   5   6  170.58   12.00
  12   5  -6  160.98    8.10
  12  -5   6  131.79   10.10
 -12  -5  -6  165.88   10.10
 -12   5   6  139.19   13.50
 -12  -5   6  155.48   13.20
  12   5   6  176.08   12.50
 -12  -5   6  158.58   15.70
 -12  -6  -6  881.81   42.20
 -12   6   6  890.31   56.59
 -12  -6   6  908.21   56.69
 -12  -6   6  885.81   60.89
  12   6   6  851.41   56.89
  12  -7   6  137.89   22.50
 -12  -7   6  110.59   15.80
 -12  -7   6  100.99    9.90
  12  -8   6  208.08   28.30
 -12  -8   6  156.98   20.50
  12  -9   6   39.40   17.90
 -12  -9   6   47.80   13.70
 -12   0   7   13.80    3.20
 -12   0  -7   17.20    3.30
 -12   0  -7   19.10    3.40
 -12   0  -7    7.70    3.60
 -12   0   7   12.30    5.40
  12   0  -7   15.10    3.80
  12   0  -7   10.80    4.90
  12   0   7   17.40    3.90
  12   0  -7   14.20    2.50
  12   0  -7   12.50    4.30
  12   0   7   20.80    4.60
 -12   0   7   12.00    4.60
 -12   0  -7   17.70    4.50
 -12  -1  -7   88.99    7.70
 -12  -1  -7   97.19    6.90
  12   1  -7   75.59    9.00
  12   1  -7   94.09    5.70
 -12   1   7   83.69   10.80
  12   1  -7   91.79   10.20
  12  -1   7   81.49    8.50
  12   1  -7   73.09    9.00
 -12   1   7   95.79    8.30
  12  -1   7   96.69    9.60
  12   1  -7  103.19    5.80
 -12   1  -7   93.89    8.50
 -12  -1   7   95.79    8.50
 -12   1  -7   93.39    6.80
  12  -1  -7   86.29    9.30
  12  -1  -7   84.89    8.30
 -12   1  -7   92.99    9.10
 -12  -1   7   89.39    8.70
  12  -1  -7   87.69    6.10
  12   1   7   96.99    9.30
  12   1   7   97.89    8.50
 -12  -1   7   88.89   10.40
 -12  -1   7   72.89    9.10
  12  -2   7   61.09    8.20
  12   2  -7   59.79    4.50
  12   2  -7   51.49    7.30
 -12  -2  -7   59.29    5.50
  12   2  -7   67.59    5.20
 -12   2   7   52.79    8.40
  12  -2   7   42.70    6.80
 -12   2   7   58.69    6.20
  12   2  -7   63.79    9.00
 -12  -2   7   47.00    6.70
 -12  -2   7   55.19    7.80
 -12  -2   7   48.40    8.20
 -12   2  -7   55.29    5.10
  12  -2  -7   51.39    5.30
 -12  -2   7   51.09    7.20
  12   2   7   63.79    6.50
 -12   2  -7   62.09    7.30
  12  -2  -7   58.19    7.20
  12   3  -7   78.79    5.20
  12  -3   7   77.39    9.40
 -12   3   7   84.39    7.20
 -12  -3  -7   65.29    6.20
  12   3  -7   71.09   10.00
 -12  -3   7   80.19    9.50
  12  -3  -7   92.09   13.80
  12   3   7   75.29    7.30
  12  -3  -7   69.89    7.40
  12  -3  -7   57.19    6.40
 -12   3  -7   76.59    5.80
 -12  -3   7   72.29    9.20
 -12   3  -7   79.99    8.20
  12  -4   7    9.70    5.40
 -12  -4  -7   15.10    3.50
 -12   4   7   12.40    2.90
  12   4  -7   11.60    2.40
 -12  -4  -7   11.60    2.70
 -12   4   7   28.00    6.20
 -12  -4   7    6.40    4.70
 -12  -4   7   19.20    5.70
 -12  -4   7    3.30    3.30
  12   4   7   12.40    3.50
 -12   5   7   48.30    5.60
  12  -5   7   28.90    4.80
  12   5  -7   47.50    4.40
  12  -5   7   35.20    8.20
 -12  -5  -7   48.50    5.60
 -12  -5   7   49.80    8.60
  12   5   7   50.59    6.10
 -12  -5   7   46.60    7.70
  12  -6   7   15.60    4.10
  12  -6   7   11.90    6.90
 -12  -6   7   23.10    5.80
 -12  -6   7   32.90    8.40
  12  -7   7   21.40   14.00
  12  -7   7   11.80    8.00
 -12  -7   7   34.30    9.80
 -12  -7   7   28.80    5.90
  12  -8   7    5.60   13.60
 -12  -8   7    4.20    9.00
 -12   0   8   98.29   11.30
  12   0  -8  104.29   10.40
 -12   0  -8  109.99    9.20
 -12   0  -8  104.29   10.20
  12   0   8  119.89   10.20
  12   0  -8   97.89   10.10
  12   0  -8  100.69    6.30
 -12   0   8   89.39   10.50
 -12   0  -8  112.19    7.50
  12   1  -8   54.79    7.50
 -12   1   8   48.90    8.40
 -12   1   8   61.19    9.60
  12   1  -8   52.79    7.80
  12   1  -8   66.09    4.80
 -12  -1  -8   47.80    7.80
 -12  -1  -8   69.69    5.90
  12   1  -8   55.99    8.70
  12  -1   8   76.89    8.40
 -12   1  -8   66.79    7.70
  12   1   8   65.79    7.90
  12   1   8   69.39    6.90
 -12   1  -8   66.69    7.00
 -12  -1   8   60.49    9.10
  12  -1  -8   59.79    7.90
  12  -1  -8   63.79    5.20
 -12   1  -8   67.49    5.60
  12  -2   8   77.39    8.90
 -12  -2  -8   71.09    6.20
 -12   2   8   53.99    9.00
  12   2  -8   73.29    5.00
  12   2  -8   50.09    9.30
 -12   2  -8   73.59    5.80
 -12  -2   8   78.79    8.70
  12  -2  -8   70.09    7.90
 -12  -2   8   72.09    9.20
  12  -2  -8   65.29    5.60
  12   2   8   76.19    7.30
 -12   2  -8   69.59    8.00
 -12   3   8   66.89    9.10
  12   3  -8   51.19    9.10
  12   3  -8   57.09    4.50
 -12  -3  -8   59.29    5.80
  12  -3   8   63.19    8.70
  12  -3  -8   56.79    6.70
 -12   3  -8   60.89    7.40
 -12  -3   8   52.09    8.50
 -12  -3   8   69.89    9.20
  12   3   8   60.99    6.50
 -12  -3   8   43.40    6.90
  12  -3  -8   43.00    5.10
  12   4  -8   72.89    5.00
 -12  -4  -8   81.79    6.50
  12  -4   8   74.49    9.80
  12  -4   8   47.00    6.30
 -12  -4   8   66.89    9.00
  12  -4  -8   61.79    6.90
 -12  -4   8   73.89   10.40
  12   4   8   67.99    7.00
  12   5  -8   33.10    3.50
  12  -5   8   34.10    7.90
  12  -5   8   17.80    4.10
 -12  -5   8   28.60    6.50
 -12  -5   8   41.80    8.30
  12   5   8   34.00    5.40
  12  -6   8   13.30    7.10
 -12  -6   8   21.30    5.80
 -12  -6   8   42.90    9.20
  12  -7   8    3.50    7.10
  12  -7   8   19.20   13.90
 -12  -7   8   13.60    5.40
 -12  -7   8   26.70    9.20
  12  -8   8   14.40   15.00
 -12  -8   8   17.70    9.80
  12   0  -9  146.69   12.40
 -12   0   9  158.88   13.90
  12   0  -9  153.88   12.70
  12   0  -9  146.69    8.00
  12   0   9  149.88   12.50
 -12   0  -9  167.48    9.40
 -12   0  -9  124.39   11.20
 -12   0  -9  132.19   12.50
  12  -1   9  562.14   36.90
  12   1  -9  547.55   37.20
  12   1  -9  466.55   37.20
 -12  -1  -9  574.14   27.40
  12   1  -9  565.74   23.40
  12  -1  -9  582.04   36.70
 -12  -1   9  602.84   37.90
 -12   1  -9  536.85   36.90
  12  -1  -9  544.95   23.60
  12  -2   9  164.68   13.30
  12   2  -9  151.68   13.80
 -12   2   9  125.99   14.00
  12   2  -9  155.88    7.90
 -12  -2  -9  152.78    9.50
 -12  -2   9  160.18   13.80
 -12   2  -9  144.39   12.50
  12  -2  -9  149.29   12.10
  12  -2  -9  148.39    8.60
  12   3  -9  382.26   17.60
  12   3  -9  427.06   29.20
 -12  -3  -9  480.55   30.30
  12  -3   9  399.96   28.60
 -12  -3   9  438.36   29.50
 -12  -3   9  429.06   28.90
  12  -3  -9  353.56   18.50
  12  -3  -9  391.66   27.00
 -12   3  -9  389.16   27.90
  12  -4   9  120.49   12.00
  12  -4   9   82.69    8.30
 -12   4   9  125.79   12.70
  12   4  -9  110.99    6.50
  12   4   9  108.89    9.40
 -12  -4   9  106.99   11.50
 -12  -4   9  127.39   13.20
  12  -4  -9   94.69    8.10
  12  -5   9  249.58   17.00
  12   5  -9  330.37   14.00
  12  -5   9  305.67   23.70
 -12  -5   9  319.17   25.00
 -12  -5   9  331.47   23.00
  12  -6   9   68.19   11.60
 -12  -6   9   65.19    9.70
 -12  -6   9   89.29   13.90
  12  -7   9  164.18   25.60
 -12  -7   9  143.69   18.20
  12  -8   9   31.90   16.60
 -12  -8   9   42.40   11.80
 -12   0 -10   32.00    6.10
  12   0 -10   34.30    6.30
  12   0 -10   33.80    3.70
  12   1 -10   15.50    5.70
  12   1 -10   20.50    2.90
 -12  -1 -10   21.20    5.50
  12  -1  10   27.10    5.50
 -12   1 -10   24.20    5.30
 -12  -1  10   14.90    5.80
  12  -1 -10   20.80    3.20
  12  -1 -10   16.90    5.10
  12   2 -10   29.60    3.40
 -12  -2 -10   16.50    5.80
  12  -2  10   36.80    6.50
  12   2 -10   21.30    6.50
  12  -2 -10   32.70    4.00
  12  -2 -10   31.00    5.50
 -12   2 -10   40.40    6.80
 -12  -2  10   33.60    6.80
  12   3 -10    5.60    5.80
  12   3 -10   12.40    2.60
  12  -3  10   15.10    5.70
 -12  -3 -10    9.80    6.60
 -12  -3  10   17.20    5.40
  12  -3 -10   10.60    3.40
  12  -3 -10   11.80    4.20
 -12  -3  10    9.70    5.60
  12  -4  10   34.30    7.40
 -12   4  10   16.80    5.70
  12  -4  10   17.90    4.20
  12   4 -10   23.50    3.20
  12  -4 -10   23.70    4.50
 -12  -4  10   20.70    6.30
 -12  -4  10   32.00    7.10
  12   5 -10   13.30    2.90
  12  -5  10   15.60    7.10
 -12  -5  10    6.40    5.80
 -12  -5  10   17.40    7.10
  12  -5 -10    9.70    4.50
  12  -6  10   14.60    8.10
 -12  -6  10    5.10    5.90
 -12  -6  10   22.50    8.60
  12  -7  10   -2.80   13.40
 -12  -7  10    2.40    8.20
  12   0 -11   59.09    8.50
 -12   0 -11   62.09    8.60
  12   0 -11   60.89    5.20
  12  -1  11   31.40    6.00
  12   1 -11   20.00    6.30
 -12  -1 -11   23.60    5.90
  12   1 -11   27.60    3.40
  12  -1 -11   25.90    3.60
 -12   1 -11   34.60    6.20
  12  -1 -11   25.40    5.80
  12   2 -11   41.80    4.40
 -12  -2 -11   19.30    6.20
  12   2 -11   27.40    7.00
  12  -2  11   44.70    7.10
 -12   2 -11   43.90    7.30
  12  -2 -11   32.50    5.80
  12  -2 -11   35.80    4.20
 -12  -2  11   34.40    7.30
  12  -3  11   20.90    6.40
  12   3 -11   17.40    3.10
 -12  -3 -11   16.60    7.20
  12  -3 -11   18.70    4.90
  12  -3 -11   18.90    3.90
 -12  -3  11   16.30    6.30
  12   4 -11   44.40    4.60
  12  -4  11   45.50    8.30
 -12  -4  11   40.50    8.00
  12  -4 -11   32.80    5.10
 -12  -4  11   49.60    8.80
  12   5 -11   17.50    3.30
  12  -5  11   14.10    6.90
 -12  -5  11   21.50    7.70
 -12  -5  11    6.90    6.30
  12  -5 -11   16.50    5.00
  12  -6  11    4.00    7.20
 -12  -6  11    8.80    6.50
 -12  -6  11   20.90    8.50
 -12  -7  11    4.60    8.70
  12   0 -12  660.53   27.70
 -12   0 -12  639.34   43.80
  12   0 -12  667.03   43.50
  12   1 -12  133.69   12.90
  12   1 -12  133.89    7.70
 -12  -1 -12  110.59   12.40
 -12   1 -12  143.69   12.60
  12  -1 -12  139.19    8.00
  12  -1 -12  135.29   12.20
  12   2 -12  251.97   20.20
  12  -2  12  262.17   19.80
  12   2 -12  248.68   12.20
  12  -2 -12  255.77   18.80
 -12   2 -12  263.97   19.60
  12  -2 -12  252.97   12.80
 -12  -3 -12   82.79   12.30
  12   3 -12  102.39    6.80
  12  -3  12  111.29   12.10
  12  -3 -12  117.69   10.20
 -12  -3  12  123.79   12.80
  12  -3 -12  109.19    7.80
  12  -4  12  445.96   30.40
  12   4 -12  406.76   18.40
  12  -4 -12  369.36   19.60
 -12  -4  12  428.06   30.40
 -12  -4  12  438.56   31.90
  12  -5  12   84.29   12.00
  12   5 -12   82.79    6.20
  12  -5 -12   72.29    8.20
 -12  -5  12   80.39   11.60
 -12  -5  12   94.49   14.00
 -12  -6  12  100.29   15.30
  12   0 -13   17.20    3.30
  12   0 -13    9.80    5.80
 -12   0 -13   19.40    6.10
  12   1 -13    6.10    2.80
  12   1 -13    1.90    5.90
 -12  -1 -13    4.60    5.30
  12  -1 -13    6.90    3.00
  12  -1 -13    1.00    5.10
 -12   1 -13    8.20    5.50
 -12  -2 -13   -0.10    5.10
  12   2 -13   -4.40    6.00
  12   2 -13    6.80    2.80
 -12   2 -13   11.50    5.50
  12  -2 -13    6.70    3.20
  12  -2 -13    3.00    4.90
 -12  -3 -13   -8.20    5.90
  12  -3  13   -0.20    5.90
 -12  -3 -13    2.60    2.20
  12   3 -13    3.00    2.70
 -12  -3  13   -1.60    6.20
  12  -3 -13    6.40    3.50
  12  -4  13   10.20    6.80
  12   4 -13   13.60    3.20
  12  -4 -13   11.40    4.20
 -12  -4  13    3.60    6.70
 -12  -4  13   19.20    7.30
  12  -5  13    5.90    7.00
  12   5 -13    2.90    3.00
  12  -5 -13    7.20    4.40
 -12  -5  13   -2.60    6.80
 -12  -5  13    8.70    7.70
  12  -6 -13    8.50    5.00
 -12  -6  13    1.00    8.00
 -12   0 -14    2.20    5.60
  12   0 -14   -2.90    5.70
  12   0 -14    4.40    2.90
  12   1 -14   18.20    7.10
  12   1 -14   31.90    4.10
 -12  -1 -14   28.40    7.10
 -12   1 -14   30.50    7.10
  12  -1 -14   35.40    4.40
  12  -1 -14   30.20    7.00
 -12  -2 -14   -3.50    5.30
  12   2 -14   -0.80    6.40
  12   2 -14    2.80    2.80
  12  -2 -14    2.40    3.20
 -12   2 -14    6.40    5.80
  12  -2 -14    2.30    5.20
 -12  -3 -14   25.80    3.40
 -12  -3 -14    8.30    7.30
  12   3 -14   28.40    4.00
  12  -3 -14   27.10    4.50
  12   4 -14   -1.00    2.90
  12  -4  14   -0.50    6.80
 -12  -4  14   -9.80    6.60
  12  -4 -14   -1.70    3.70
  12   5 -14   16.20    3.60
  12  -5 -14   14.50    5.00
  12   0 -15   62.69    6.10
 -12   0 -15   58.19   10.10
  12   0 -15   60.99   10.30
  12   1 -15   58.09   10.30
 -12  -1 -15   44.20    8.70
  12   1 -15   59.19    5.70
  12  -1 -15   63.59    6.20
 -12   1 -15   64.09   10.10
  12  -1 -15   66.69    9.90
 -12  -2 -15   48.00    5.10
  12   2 -15   53.39    5.80
  12   2 -15   48.20    9.10
  12  -2 -15   57.19    6.20
 -12   2 -15   46.30    8.50
  12   3 -15   57.09    5.90
  12  -3 -15   54.99    6.00
  12   4 -15   44.00    5.00
  12  -4 -15   42.80    5.80
  12   0 -16    1.00    3.20
 -12  -1 -16    4.10    3.50
  12   1 -16    6.00    3.50
  12  -1 -16    2.40    3.60
  12   2 -16   -6.20    6.90
  12   2 -16    1.20    3.20
 -12  -2 -16   -1.10    2.50
  12  -2 -16   -1.20    3.50
  12   3 -16   -1.40    3.20
  12  -3 -16   10.30    4.40
  12   0 -17   20.30    4.40
 -12   0 -17   15.70    3.90
  12   1 -17   -2.80    3.30
  12  -1 -17    0.50    3.60
 -13   0   0   27.80    7.60
  13   0   0   20.10    7.90
  13   0   0    9.90    7.50
  13   0   0   10.80    4.70
 -13  -1   0    2.10    3.40
 -13  -1   0    7.70    3.70
 -13  -1   0    0.20    5.90
 -13  -1   0   12.80    5.10
 -13   1   0   -0.50    3.30
  13   1   0   17.70    7.70
  13  -1   0    7.80    7.00
 -13   1   0   -1.20    1.30
 -13   1   0    2.30    4.30
  13  -1   0   -8.60    5.90
  13  -1   0    5.70    3.90
  13   1   0    2.60    4.00
  13   2   0   28.60    8.70
 -13   2   0    0.10    3.60
 -13  -2   0   -1.40    2.70
  13  -2   0    5.10    3.00
 -13  -2   0    4.80    2.80
 -13   2   0    1.80    3.20
  13  -2   0    9.10    7.00
  13   2   0    1.70    3.10
 -13  -2   0    0.30    4.40
 -13  -2   0    0.50    5.90
  13   3   0    6.20    4.60
  13  -3   0    8.10    7.00
 -13  -3   0   -6.10    4.30
  13  -3   0   -3.80    3.70
 -13  -3   0   -3.20    2.00
  13   3   0    9.70    8.10
 -13  -3   0    0.30    2.20
  13   3   0   -3.50    3.10
 -13   3   0    0.70    3.20
 -13   3   0   -1.40    3.10
 -13  -3   0   -4.40    4.40
 -13  -4   0   -8.90    4.80
  13   4   0   -0.60    3.50
  13  -4   0    0.00    2.20
  13  -4   0    2.30    3.20
 -13  -4   0    3.30    6.00
  13  -4   0    5.40    6.50
 -13   4   0    1.50    3.70
 -13  -4   0   -1.30    3.70
  13  -4   0    8.80    6.90
  13   5   0    4.60    5.30
  13  -5   0   -2.40    2.90
  13  -5   0   -1.60    2.10
 -13   5   0   -0.60    2.10
 -13  -5   0    1.40    6.70
 -13   5   0    0.80    4.10
 -13  -5   0   -0.70    3.10
  13  -5   0   -2.60    8.00
 -13  -6   0    3.60    3.30
  13   6   0   -2.60    5.60
  13  -6   0   -1.00    2.50
 -13  -6   0    1.20    7.90
  13   7   0   14.40    6.80
 -13  -7   0   -3.80    9.00
 -13  -8   0    5.60   11.30
 -13  -9   0   -5.50   12.00
 -13   0  -1  296.17   21.50
 -13   0  -1  286.27   23.30
  13   0  -1  291.27   24.60
 -13   0   1  327.87   22.00
 -13   0   1  332.17   22.90
  13   0  -1  282.17   23.70
 -13   0  -1  287.07   21.40
  13   0   1  251.97   23.90
  13   0   1  220.08   22.50
 -13   0  -1  274.97   21.80
  13   0  -1  234.58   21.30
 -13   0   1  289.07   21.20
 -13  -1  -1   10.10    4.00
 -13  -1  -1   -4.60    5.80
 -13   1   1   16.40    5.50
 -13  -1  -1    1.20    3.10
 -13   1   1    1.90    1.50
  13  -1   1    8.30    6.40
  13  -1   1   -8.70    5.60
  13   1  -1   14.50    7.90
 -13   1   1    6.10    4.10
 -13  -1  -1   18.90    5.70
  13  -1   1    5.80    4.10
  13  -1  -1    5.20    7.00
 -13   1  -1    1.30    3.10
  13   1   1   12.60    6.50
 -13  -1   1    6.70    4.80
 -13  -1   1    5.20    3.40
 -13   1  -1    3.60    3.60
  13  -1  -1    6.20    3.60
 -13  -1   1    5.00    3.50
 -13  -1   1    5.90    5.30
  13  -1  -1   -2.50    6.60
 -13   1  -1    2.40    3.90
  13   1   1   -0.40    3.20
  13  -2   1   92.29   10.10
 -13  -2  -1   77.49    7.70
 -13  -2  -1   69.99    7.70
 -13   2   1   58.19    7.60
  13   2   1   68.69    8.80
 -13   2  -1   63.19    8.10
  13   2   1   88.29    9.60
 -13  -2   1   75.19    7.90
 -13  -2   1   71.99   10.00
  13  -2  -1   82.99    7.70
 -13   3   1    2.30    3.80
  13   3  -1    2.40    3.40
  13   3  -1   25.30    8.70
  13  -3   1    3.70    3.80
  13  -3   1    6.30    5.80
 -13   3   1    2.30    2.70
 -13  -3  -1   -2.40    4.50
 -13  -3  -1    2.70    2.20
  13   3  -1   10.30    5.60
  13  -3   1    5.30    2.50
 -13  -3  -1   -8.70    4.10
  13  -3   1   11.30    8.00
  13   3   1    1.60    3.60
  13  -3  -1    2.30    3.90
 -13  -3   1    5.70    5.40
  13   3   1    3.70    3.70
 -13   3  -1    4.30    3.40
 -13  -3   1   -2.90    2.60
  13   3   1   13.20    7.00
 -13  -3   1    0.60    1.70
 -13  -3   1   -1.40    4.30
 -13  -3   1    3.10    2.60
  13  -3  -1   11.10    6.60
 -13   3  -1    1.60    2.90
 -13   3  -1    6.70    4.40
  13  -4   1  109.09    7.50
  13  -4   1  134.49   10.30
 -13   4   1  109.19   10.50
 -13  -4  -1  100.29   10.80
  13   4  -1  120.09   10.60
 -13  -4   1  111.39   10.80
  13  -4  -1  116.99    7.10
  13   4   1  108.29   10.90
  13  -4  -1  108.79   12.20
  13   4   1  110.49   11.60
 -13  -4   1  121.59   13.90
  13  -4  -1  125.79   10.10
 -13  -5  -1   -2.30    3.30
 -13  -5  -1   -0.10    3.00
  13  -5   1   14.40    7.20
 -13  -5  -1    0.60    3.20
  13  -5   1   -1.50    7.80
 -13  -5  -1   -6.00    7.00
  13  -5   1   -0.60    2.20
 -13   5   1    3.00    3.10
  13   5   1    4.50    4.40
  13  -5  -1    3.60    2.10
 -13  -5   1   -1.20    3.20
 -13   5  -1    1.80    5.10
 -13   5  -1   -2.40    2.00
 -13  -5   1    0.00    5.90
 -13  -6  -1   55.99   12.80
  13  -6   1   78.29   14.40
  13  -6   1   43.90    5.40
 -13  -6  -1   30.40    5.10
  13  -6  -1   44.80    5.50
  13   6   1   37.40    7.90
 -13  -6   1   59.89   11.30
  13  -7   1    2.20    3.20
 -13  -7  -1    1.70   10.30
 -13  -7   1   19.80    9.80
 -13  -8  -1   35.20   14.60
 -13  -8   1   50.99   13.70
 -13  -9  -1    2.80   14.30
 -13  -9   1    8.50   12.60
 -13   0   2   13.10    4.40
  13   0   2  -11.30    6.40
 -13   0  -2    2.50    3.20
 -13   0  -2    0.50    4.20
 -13   0  -2   -1.20    3.00
  13   0  -2    4.10    6.80
 -13   0  -2    6.90    4.10
  13   0   2   -2.80    5.30
  13   0  -2    7.50    5.50
  13   0  -2    4.50    3.70
 -13   0   2    2.40    2.50
  13   0   2   10.70    3.80
 -13   0   2   18.10    5.70
  13   1  -2   27.50    5.60
  13   1  -2   39.20    7.00
 -13  -1  -2   18.50    4.20
 -13  -1  -2   13.40    6.90
  13  -1   2   20.40    6.60
  13  -1   2   35.70    6.30
  13  -1   2    5.70    6.20
  13   1  -2   42.60    9.60
 -13   1   2   21.30    4.00
  13  -1  -2   22.60    7.70
 -13   1  -2   12.20    3.90
 -13  -1   2   21.70    4.70
 -13   1  -2   13.20    4.50
  13  -1  -2   42.20    8.70
  13   1   2   23.10    6.40
  13  -1  -2   22.20    4.60
  13   1   2   14.50    4.40
 -13  -1   2   35.70    5.90
 -13   1  -2   23.70    4.50
 -13  -1   2   20.40    6.10
  13  -2   2   37.50    6.50
 -13  -2  -2   23.80    3.80
  13  -2   2   12.70    5.20
 -13   2   2   23.60    5.10
 -13  -2  -2   25.40    4.60
 -13  -2  -2   11.20    6.10
  13  -2   2   31.90    7.70
  13   2  -2   18.60    4.70
 -13   2   2   19.30    4.00
 -13  -2  -2   19.00    4.00
  13   2  -2   30.50    8.70
 -13   2  -2   19.10    4.40
  13   2   2   13.50    4.50
 -13   2  -2   15.60    4.00
 -13  -2   2   19.00    6.10
 -13  -2   2   36.30    6.20
  13  -2  -2   18.00    6.80
  13   2   2   29.00    7.20
 -13  -2   2   22.60    4.40
 -13  -2   2   33.60    5.50
  13  -2  -2   18.90    3.70
  13   3  -2   33.70    5.90
  13  -3   2   53.79    9.50
 -13  -3  -2   26.80    4.90
  13   3  -2   26.30    9.70
 -13  -3  -2   25.60    6.60
 -13  -3  -2   27.00    5.90
 -13   3   2   21.00    4.30
  13   3   2   28.60    6.10
 -13   3  -2   38.10    6.10
 -13  -3   2   30.30    4.90
  13   3   2   20.10    5.10
  13  -3  -2   39.30    3.60
 -13  -3   2   29.10    6.30
 -13  -3   2   40.60    6.60
  13  -3  -2   32.10    7.20
 -13   3  -2   23.10    4.10
  13  -3  -2   15.50    6.00
  13   3   2   40.60    8.30
  13   4  -2   15.70    6.90
  13  -4   2    5.60    7.40
 -13  -4  -2   -1.80    3.00
  13  -4   2    0.50    2.00
  13  -4   2    4.70    7.10
 -13  -4  -2   -4.50    4.10
 -13   4   2   -0.20    2.40
 -13  -4  -2   -0.60    3.50
  13  -4  -2    1.10    1.90
 -13   4  -2   -0.60    2.40
 -13  -4   2   -1.40    3.80
 -13  -4   2    3.70    5.00
  13  -4  -2   -3.20    4.10
  13  -4  -2    0.40    3.40
 -13   4  -2    1.90    5.10
  13   4   2    2.70    3.60
  13   4   2   -1.80    3.80
  13  -5   2   17.00    8.90
 -13  -5  -2   12.30    3.90
 -13   5   2    8.10    3.40
 -13  -5  -2    9.20    3.20
  13  -5   2    7.20    2.70
  13  -5   2   31.20    9.10
 -13  -5   2   17.80    7.00
 -13   5  -2    6.20    2.40
  13   5   2    7.60    4.30
 -13  -5   2    7.80    3.90
  13  -5  -2    7.80    2.40
  13  -6   2    1.80    2.70
  13  -6   2    0.80    9.60
 -13   6   2    4.60    3.30
 -13  -6  -2   -0.30    3.20
  13   6   2    3.10    4.30
 -13  -6   2    7.80    7.20
  13  -7   2   10.00    3.70
 -13  -7  -2   19.30   13.10
  13  -7   2   25.10   12.70
 -13  -7   2   28.30   10.10
 -13  -8  -2   -5.00   12.80
 -13  -8   2    8.50   10.10
 -13  -9   2    0.70   11.50
 -13   0  -3    5.30    6.00
 -13   0   3   17.70    3.70
 -13   0  -3    7.50    4.30
  13   0  -3    6.70    3.80
 -13   0  -3   26.50    5.10
  13   0   3   12.40    5.30
 -13   0   3   20.10    6.00
  13   0  -3   23.10    5.50
 -13   0  -3   15.40    3.90
  13   0  -3   15.20    7.20
  13   0   3    7.50    3.60
 -13   0  -3   13.00    3.80
 -13  -1  -3    0.70    2.20
 -13  -1  -3    2.70    4.80
  13  -1   3    4.30    3.50
  13   1  -3   -0.20    6.50
 -13   1   3    0.60    2.10
  13   1  -3    5.50    3.80
 -13  -1  -3    8.40    4.30
  13  -1   3    0.90    4.60
  13   1  -3   -0.50    2.20
 -13   1   3    9.50    4.30
 -13  -1  -3   -1.30    2.80
  13   1  -3    2.50    3.60
 -13   1   3   11.90    5.30
 -13  -1   3    0.30    4.50
 -13  -1   3    3.00    3.10
  13   1   3    5.20    4.90
  13   1   3   -0.60    2.80
  13  -1  -3    0.40    5.70
 -13  -1   3    0.80    2.40
 -13   1  -3    0.30    2.90
 -13  -1   3    0.80    3.80
 -13   1  -3   -3.80    2.90
  13  -1  -3    1.80    2.70
 -13   1  -3   -0.20    3.10
  13  -1  -3    5.10    6.10
 -13  -2  -3    5.70    2.30
  13   2  -3    0.10    7.00
  13  -2   3    1.40    4.20
 -13  -2  -3   21.90    6.20
 -13   2   3    8.70    4.30
  13  -2   3   -1.20    4.80
 -13   2   3   17.50    5.70
  13   2  -3   12.80    5.30
 -13  -2  -3    7.20    3.10
  13  -2   3    8.50    4.20
  13   2  -3    6.70    3.70
 -13   2   3    4.00    2.50
 -13  -2  -3    0.20    2.90
 -13  -2   3    7.70    3.90
 -13  -2   3   -3.90    4.50
  13  -2  -3   -3.30    5.30
 -13   2  -3    8.70    3.70
 -13  -2   3    7.30    3.40
 -13  -2   3    4.90    3.30
  13  -2  -3    2.50    2.20
 -13   2  -3   -0.40    3.00
  13  -2  -3   -1.80    5.00
 -13  -2   3    7.80    4.40
  13   2   3    6.90    3.20
  13   2   3    1.80    5.00
  13   3  -3    8.60    5.30
  13   3  -3   -0.80    2.90
 -13  -3  -3   -3.60    2.70
  13  -3   3    9.70    4.40
 -13   3   3   -1.30    2.90
 -13   3   3   12.50    5.20
 -13  -3  -3    3.80    5.00
 -13  -3  -3   -3.10    3.10
  13  -3   3   -0.70    5.50
 -13   3   3   -1.60    2.10
  13   3  -3   -1.30    6.70
 -13   3  -3    2.90    3.30
  13  -3  -3   -0.80    1.50
 -13   3  -3   -2.30    2.50
 -13  -3   3    4.80    3.90
 -13   3  -3   -4.60    4.10
  13   3   3    8.00    4.70
 -13  -3   3    0.20    3.30
  13  -3  -3   -5.70    4.40
 -13  -3   3   -3.00    4.10
  13   3   3   -2.40    4.90
 -13  -3   3    1.60    2.70
  13  -4   3   10.50    7.10
 -13   4   3   13.30    3.40
  13  -4   3    6.10    2.60
 -13  -4  -3   14.50    3.90
 -13  -4  -3    8.30    4.90
  13   4  -3   30.20    7.70
 -13  -4  -3   12.10    3.70
  13   4   3    7.10    4.60
 -13   4  -3   13.80    2.80
  13  -4  -3    6.50    3.90
  13   4   3    8.90    3.90
 -13  -4   3   10.30    4.50
 -13  -4   3   18.10    5.60
 -13   5   3   -0.80    2.50
  13  -5   3   -1.80    2.30
 -13  -5  -3    3.90    3.20
  13   5  -3   21.00    7.30
  13  -5   3   -3.40    8.30
  13  -5   3    9.00    7.30
 -13   5  -3    1.40    2.10
 -13  -5   3    3.40    3.80
  13   5   3    0.70    3.60
 -13  -5   3    8.40    5.80
  13  -6   3    9.30   10.10
 -13   6   3    0.80    2.90
 -13  -6  -3    1.10    3.20
  13  -6   3   -2.80    2.70
 -13  -6   3   10.00    7.20
 -13  -6   3   -0.70    3.40
  13   6   3   -1.80    3.90
  13  -7   3   -2.50    3.00
  13  -7   3    2.20   11.50
 -13  -7   3    1.30    8.00
 -13  -8   3    7.60   10.10
 -13  -9   3    1.70   11.40
 -13   0  -4   19.90    5.10
 -13   0  -4   39.70    7.30
  13   0  -4   23.80    3.60
 -13   0  -4   33.10    4.90
  13   0   4   39.90    6.50
 -13   0   4   34.60    7.30
 -13   0   4   46.80    6.70
 -13   0  -4   36.10    6.00
  13   0   4   19.10    4.70
 -13   0   4   28.80    5.00
  13   0  -4   35.30    4.20
  13   0  -4   28.30    6.00
  13   0  -4   36.40    7.80
  13   0  -4   25.40    5.10
 -13   0  -4   31.80    5.00
  13   1  -4  159.28   15.30
 -13  -1  -4  220.78   16.60
 -13  -1  -4  221.08   14.70
  13  -1   4  174.58   15.80
  13  -1   4  189.48   16.50
 -13  -1  -4  204.48   12.40
  13   1  -4  167.78    9.80
 -13  -1  -4  226.18   16.20
 -13   1   4  234.08   18.20
  13   1  -4  228.38   18.50
 -13   1   4  208.48   15.00
  13  -1  -4  206.78   14.80
 -13   1  -4  222.48   12.30
 -13  -1   4  170.38   15.50
  13   1   4  169.28   14.80
 -13  -1   4  206.58   17.00
  13   1   4  174.98   15.70
 -13  -1   4  173.08   15.40
 -13   1  -4  205.98   15.80
 -13  -1   4  168.88   14.80
 -13   1  -4  174.38   15.10
  13  -1  -4  221.98   17.20
  13   2  -4    1.00    2.10
 -13  -2  -4   11.70    3.40
  13   2  -4    0.50    3.50
 -13  -2  -4   -0.20    3.20
 -13   2   4   10.50    5.40
  13   2  -4    4.30    4.30
 -13  -2  -4   13.00    5.90
 -13  -2  -4    4.20    2.10
 -13   2   4    5.50    4.50
  13  -2   4    2.70    3.60
  13  -2   4    2.30    4.80
 -13   2   4    2.40    2.40
  13   2  -4   -7.10    6.30
  13  -2  -4    0.10    2.00
 -13  -2   4    0.80    4.80
 -13  -2   4    0.30    3.20
 -13  -2   4    5.10    3.00
 -13   2  -4    6.50    3.60
  13   2   4    4.00    4.80
 -13   2  -4   -1.80    2.70
  13  -2  -4   -4.40    4.60
  13   2   4    3.40    3.00
  13  -2  -4    1.30    6.90
 -13  -2   4    6.40    3.00
 -13  -3  -4  171.28   12.40
  13   3  -4  149.99   15.90
  13   3  -4  120.79    7.80
 -13   3   4  158.28   12.00
  13   3  -4  129.09   14.50
 -13  -3  -4  152.08   10.40
 -13   3  -4  122.49   13.60
 -13  -3   4  158.48   13.40
  13  -3  -4  163.08   12.70
 -13  -3   4  152.48   12.10
 -13  -3   4  178.28   13.50
  13   3   4  142.99   12.20
 -13   3  -4  147.99    9.10
 -13   3  -4  157.28   12.50
  13  -3  -4  121.89   14.70
 -13  -4  -4   17.00    3.50
 -13  -4  -4    9.80    3.70
  13   4  -4   12.40    6.60
 -13   4   4    2.60    3.40
  13  -4   4    4.90    6.00
 -13  -4  -4    2.40    4.70
  13  -4   4    7.20    2.80
 -13   4   4   11.60    3.20
  13   4  -4    8.80    2.50
  13   4   4   11.90    5.20
 -13  -4   4    8.90    4.60
  13  -4  -4    7.80    4.20
 -13   4  -4   13.00    2.90
  13   4   4   13.50    4.10
  13  -4  -4   10.40    3.90
 -13  -4   4   17.00    5.30
  13  -5   4  142.99   16.00
  13  -5   4  124.29    9.20
 -13   5   4  140.59   11.50
 -13  -5  -4  134.49    9.80
  13   5   4  129.99   12.00
 -13  -5   4  168.08   15.50
 -13  -5   4  152.88   12.30
 -13  -6  -4    1.90    3.20
  13  -6   4    0.90    2.90
  13  -6   4    8.30   10.70
  13  -6   4    7.80    7.80
 -13  -6   4   -1.30    3.80
  13   6   4    3.60    4.10
 -13  -6   4   13.90    7.20
  13  -7   4  103.19   18.50
 -13  -7   4   77.89   13.50
 -13  -8   4    4.20    9.20
 -13  -9   4   51.79   14.60
 -13   0  -5   -2.10    4.10
 -13   0  -5    1.50    3.50
  13   0   5    0.50    4.10
 -13   0   5   -1.30    3.30
  13   0  -5   -5.80    5.00
  13   0  -5   -2.70    2.90
  13   0  -5   -1.20    2.10
 -13   0  -5    1.90    3.00
 -13   0  -5    2.00    2.50
  13   0   5    0.80    2.80
 -13   0   5   -1.30    2.10
  13   0  -5   -3.50    4.00
  13   0  -5   -0.70    1.60
 -13   0   5   -2.40    4.70
 -13   0  -5    0.00    3.30
  13   1  -5    8.70    2.50
 -13   1   5   10.50    4.50
 -13   1   5   -0.60    4.60
  13   1  -5    5.60    2.30
 -13  -1  -5    0.80    4.10
  13  -1   5    1.40    3.20
 -13  -1  -5    4.70    2.30
  13  -1   5    5.40    4.50
  13   1  -5    3.00    5.90
  13   1  -5   -0.40    3.40
  13   1  -5    1.70    3.50
 -13   1   5    6.00    2.70
  13   1  -5   -1.00    4.10
 -13  -1  -5   14.50    5.00
 -13  -1  -5    2.90    3.00
 -13   1  -5    5.60    3.70
 -13   1  -5    5.40    3.00
 -13  -1   5    3.80    3.60
 -13  -1   5   -1.40    4.60
  13   1   5    4.50    4.40
  13   1   5    3.40    2.90
  13  -1  -5   -0.40    4.80
 -13  -1   5    3.50    2.60
  13  -1  -5    3.00    2.70
 -13   1  -5    1.80    2.90
  13  -1  -5    1.40    2.60
  13  -1  -5   12.00    4.90
  13   2  -5   -0.30    6.60
  13   2  -5    2.30    3.80
 -13   2   5    3.50    2.70
 -13  -2  -5   13.00    6.10
  13   2  -5    4.90    2.40
 -13   2   5   16.50    5.60
  13  -2   5    0.70    3.30
 -13  -2  -5    3.70    3.20
  13   2  -5    0.10    4.40
  13  -2   5    4.10    4.80
 -13   2   5    4.50    5.40
 -13   2  -5    8.40    4.00
 -13  -2   5   12.20    3.30
 -13  -2   5   -3.50    4.90
 -13  -2   5    6.10    3.10
  13  -2  -5   12.30    7.80
 -13   2  -5   -0.20    3.00
  13   2   5    9.00    4.50
  13  -2  -5   -4.60    4.40
 -13  -2   5   -0.10    3.60
 -13   2  -5    3.00    3.60
  13   2   5    8.90    3.40
 -13   3   5   11.20    5.00
 -13   3   5    3.70    2.50
  13   3  -5    0.20    6.20
  13   3  -5    2.70    4.90
 -13  -3  -5    3.60    3.10
  13  -3   5    4.10    4.00
  13  -3   5    0.30    4.90
  13   3  -5    1.90    2.00
 -13  -3   5   -2.20    4.50
 -13  -3   5   -0.40    3.00
  13  -3  -5   -4.70    7.00
 -13   3  -5    4.40    3.60
  13  -3  -5    1.20    3.80
 -13  -3   5    5.90    3.40
 -13  -3   5    8.70    3.80
 -13   3  -5   -1.10    2.60
  13   3   5    5.50    3.20
 -13  -4  -5    1.60    2.60
 -13   4   5    0.30    3.90
 -13  -4  -5   -3.60    2.80
 -13  -4  -5   -4.30    4.20
 -13   4   5    0.40    2.40
  13   4  -5    0.30    2.10
  13  -4   5   -4.90    5.30
  13   4   5    1.10    3.10
 -13   4  -5    3.50    2.40
 -13  -4   5    4.10    4.30
 -13  -4   5   -3.50    4.10
 -13   5   5    6.00    2.90
  13  -5   5   -1.20    6.20
 -13  -5  -5    7.60    3.30
 -13   5   5    1.00    3.40
  13   5  -5    4.80    2.40
  13  -5   5    2.90    2.80
  13   5   5   10.80    3.80
 -13  -5   5   10.00    5.70
 -13  -5   5    8.60    4.70
  13  -6   5    0.10    3.00
 -13  -6  -5    0.70    3.20
  13  -6   5    8.60   10.80
  13  -6   5    6.80    7.70
  13   6   5    5.20    3.80
 -13  -6   5   -4.90    4.10
 -13  -6   5    9.00    6.80
  13  -7   5   -4.70    3.10
  13  -7   5    0.60   11.30
 -13  -7   5    9.00    7.90
  13  -8   5  -11.80   12.70
 -13  -8   5    1.00    9.10
 -13  -9   5   12.20   11.90
  13   0   6   11.70    4.50
  13   0  -6    1.70    3.10
  13   0  -6    9.40    4.10
 -13   0  -6    2.50    3.30
 -13   0  -6    5.50    2.70
 -13   0  -6    4.40    4.00
  13   0   6    4.40    3.20
 -13   0   6    1.90    4.90
  13   0  -6    9.80    2.60
 -13   0  -6    5.80    3.10
  13   0  -6    2.40    5.10
 -13   0   6    6.80    2.90
 -13   1   6   29.90    5.00
 -13  -1  -6   29.80    4.50
  13   1  -6   18.80    5.10
  13   1  -6   24.80    3.20
 -13  -1  -6   47.50    8.00
  13   1  -6   32.10    4.00
  13   1  -6   16.50    6.50
  13   1  -6   22.80    5.10
 -13   1   6   25.50    5.80
 -13   1   6   30.20    7.10
  13  -1   6   29.60    5.90
 -13  -1  -6   31.60    4.50
  13  -1   6   18.30    4.60
 -13   1  -6   20.10    4.40
 -13  -1   6   38.70    5.10
 -13  -1   6   25.90    6.50
  13  -1  -6   19.10    5.50
  13   1   6   26.70    5.50
 -13  -1   6   18.00    4.90
  13  -1  -6   27.10    4.70
 -13   1  -6   24.50    4.00
 -13  -1   6   21.50    4.30
 -13   1  -6   27.00    5.20
  13   1   6   28.80    5.10
  13  -1  -6   21.80    3.60
  13   2  -6    1.30    5.80
 -13  -2  -6    4.60    3.10
  13  -2   6    5.00    4.80
  13  -2   6   -0.80    3.20
  13   2  -6    3.80    2.20
 -13  -2  -6    6.90    5.70
  13   2  -6    5.90    2.50
 -13   2   6    9.30    3.00
  13   2  -6    6.20    4.10
 -13   2   6   16.90    5.30
 -13  -2   6    2.80    2.80
  13   2   6    6.20    3.30
 -13  -2   6    5.50    3.90
 -13   2  -6    1.60    3.00
  13  -2  -6    1.40    2.90
 -13  -2   6   11.10    3.40
 -13  -2   6    5.50    5.10
 -13   2  -6    9.70    4.10
  13   2   6    7.10    4.70
  13  -2  -6    3.30    4.20
  13   3  -6   24.50    3.10
  13  -3   6   24.60    6.50
 -13   3   6   24.40    3.90
 -13  -3  -6   25.30    4.20
  13  -3   6   11.40    4.60
  13   3  -6   15.70    7.10
 -13   3  -6   30.60    5.20
  13  -3  -6   18.70    4.70
  13   3   6   30.00    5.10
 -13  -3   6   17.30    4.50
 -13   3  -6   25.10    3.70
 -13  -3   6   23.40    4.60
 -13  -3   6   31.30    5.40
 -13  -3   6   14.70    5.50
 -13  -4  -6    4.10    3.20
  13   4  -6    4.70    2.30
 -13   4   6   18.60    5.50
 -13  -4  -6    1.70    5.00
  13  -4   6    1.60    5.40
 -13   4   6    4.60    2.60
 -13   4  -6    5.00    2.70
 -13  -4   6    5.30    4.50
  13   4   6    4.40    3.20
 -13  -4   6    1.40    4.60
  13  -5   6    7.00    3.20
 -13  -5  -6   15.10    3.70
  13  -5   6    1.10    6.10
 -13   5   6   17.30    5.30
  13   5  -6   12.40    2.60
 -13  -5   6   29.40    6.90
  13   5   6   15.40    4.20
 -13  -5   6   13.80    5.20
  13  -6   6   -2.10    3.10
  13  -6   6    2.90    7.10
  13  -6   6   22.50   11.60
  13   6   6    1.90    3.60
 -13  -6   6    1.50    4.40
 -13  -6   6    8.70    6.80
  13  -7   6   19.00   13.00
 -13  -7   6    4.00    4.40
 -13  -7   6   16.30    8.50
  13  -8   6    2.40   13.30
 -13  -8   6    5.30    9.10
  13   0  -7  295.77   13.80
 -13   0  -7  310.27   21.00
 -13   0  -7  341.77   16.50
 -13   0   7  300.17   23.20
 -13   0  -7  249.48   21.40
  13   0  -7  247.98   22.00
  13   0  -7  292.87   21.30
  13   0   7  319.77   21.90
  13   0  -7  335.27   22.40
 -13   1   7    0.60    3.70
  13   1  -7   -2.20    3.10
  13   1  -7    1.10    2.00
  13  -1   7    5.00    4.40
  13   1  -7   -5.30    5.10
 -13   1   7    0.00    4.90
 -13  -1  -7    1.60    2.80
 -13  -1  -7    1.10    2.10
  13   1  -7   -2.10    3.30
 -13  -1  -7    1.00    4.30
 -13  -1  -7   -2.20    3.90
 -13  -1   7    4.50    2.60
  13  -1  -7   -1.40    4.30
  13   1   7    4.50    4.30
 -13  -1   7   -5.60    4.60
  13  -1  -7    2.60    2.50
  13  -1  -7    0.40    2.50
 -13   1  -7    2.50    2.80
 -13   1  -7    4.10    3.90
  13   1   7    0.90    3.00
 -13   1  -7    0.60    2.90
 -13  -2  -7  374.26   19.30
 -13  -2  -7  315.87   26.20
  13   2  -7  369.46   26.80
  13  -2   7  357.56   26.00
  13   2  -7  371.16   16.10
 -13   2   7  396.76   27.90
 -13  -2   7  382.06   26.60
 -13   2  -7  334.47   25.10
  13  -2  -7  315.47   16.80
  13  -2  -7  376.56   25.10
 -13   2  -7  380.76   18.80
 -13  -2   7  390.16   25.50
  13   2   7  364.46   25.00
  13   3  -7    2.50    2.10
  13   3  -7   -3.90    5.50
 -13  -3  -7   -0.70    2.90
 -13   3   7   13.10    5.20
 -13  -3  -7   17.70    6.80
  13  -3   7    0.70    4.90
 -13   3  -7    2.50    3.70
 -13   3  -7    3.50    2.80
  13  -3  -7   -1.10    3.10
 -13  -3   7    2.50    3.20
  13   3   7    3.30    3.00
  13  -3  -7   -3.50    3.60
 -13  -3   7   -4.50    4.40
 -13  -3   7    3.40    3.90
 -13  -4  -7  215.48   12.80
  13  -4   7  190.68   17.90
  13   4  -7  222.58   10.50
 -13  -4  -7  204.28   17.50
 -13  -4   7  239.08   18.50
 -13  -4   7  215.88   17.50
  13   4   7  230.18   16.20
  13   5  -7    5.40    2.50
 -13   5   7   17.30    5.80
  13  -5   7   -1.00    5.90
  13  -5   7   -0.40    2.90
 -13  -5   7   -1.40    4.80
  13   5   7    6.90    3.60
 -13  -5   7   10.20    5.90
  13  -6   7  123.69   10.60
 -13  -6   7  187.88   17.90
 -13  -6   7  170.68   13.90
  13  -7   7   -1.00    7.70
  13  -7   7    4.10   12.50
 -13  -7   7    3.90    7.70
 -13  -7   7   -2.60    4.50
  13  -8   7   58.09   17.80
 -13  -8   7   84.69   14.60
 -13   0   8   -0.80    5.00
 -13   0  -8    6.30    2.70
 -13   0  -8    3.50    3.00
  13   0  -8    6.00    2.40
  13   0  -8    4.70    4.90
  13   0   8    8.40    4.50
 -13   0  -8    6.70    4.20
  13   0  -8    2.10    3.20
 -13  -1  -8   -1.50    2.80
  13   1  -8   -3.40    5.00
 -13  -1  -8    7.00    5.40
  13  -1   8    3.70    4.40
  13   1  -8    3.40    2.20
 -13  -1  -8   -1.40    4.00
  13   1  -8    1.20    3.60
 -13  -1   8    4.70    2.90
 -13   1  -8    3.60    3.10
  13  -1  -8   -2.20    4.30
 -13   1  -8    7.50    4.30
 -13  -1   8   -2.80    4.90
  13  -1  -8    3.30    2.40
  13  -2   8    3.30    4.80
 -13  -2  -8   -6.90    4.50
  13   2  -8    3.20    2.10
 -13   2   8    1.40    4.10
 -13  -2  -8    3.70    3.00
  13   2  -8   -4.20    5.30
 -13   2  -8    6.10    4.10
  13  -2  -8    2.30    2.70
 -13  -2   8   -2.50    4.80
 -13   2  -8    3.60    2.90
 -13  -2   8    4.10    3.50
  13  -2  -8   -1.70    3.90
 -13  -3  -8   11.70    6.80
  13   3  -8   -2.90    5.80
  13  -3   8    2.30    5.10
  13   3  -8    3.20    2.20
 -13   3   8   13.30    5.00
 -13  -3   8   -2.20    4.90
 -13  -3   8    7.20    4.20
 -13   3  -8    8.90    4.30
  13  -3  -8    0.60    3.10
  13  -3  -8   -3.50    3.80
  13  -4   8    2.30    5.60
  13   4  -8    2.30    2.30
 -13   4   8   15.70    5.40
 -13  -4   8    4.60    4.90
 -13  -4   8   -2.00    4.90
  13  -4  -8    4.30    3.80
  13  -5   8    0.10    3.10
  13   5  -8    1.50    2.40
  13  -5   8   -5.20    5.80
 -13  -5   8   -7.50    4.90
 -13  -5   8   -0.50    5.50
  13  -6   8   -4.60    6.40
 -13  -6   8    4.50    6.80
 -13  -6   8   -1.90    5.10
  13  -7   8   -2.30    7.20
  13  -7   8    5.10   13.40
 -13  -7   8  -10.10    4.70
 -13  -7   8    7.60    8.00
  13  -8   8    1.30   14.20
 -13  -8   8    8.70    9.60
 -13   0  -9   54.79    5.50
 -13   0  -9   50.59    6.30
  13   0  -9   51.09    4.90
  13   0   9   51.99    8.00
  13   0  -9   42.30    7.20
 -13   0  -9   45.30    7.70
  13   1  -9   -2.10    5.10
  13  -1   9    4.20    4.60
 -13  -1  -9   -2.80    4.00
  13   1  -9    1.90    2.20
  13  -1  -9    4.20    2.50
 -13   1  -9    2.50    3.10
  13  -1  -9    0.00    4.50
 -13  -1   9   -3.10    4.80
 -13   1  -9    3.50    4.30
  13  -2   9   79.99    9.50
  13   2  -9   70.79    5.30
  13   2  -9   65.09   10.10
 -13  -2   9   74.69    9.10
 -13  -2   9   54.79    9.70
  13  -2  -9   65.89    8.30
 -13   2  -9   70.99    8.60
  13  -2  -9   55.59    5.80
 -13  -3  -9    9.80    7.10
  13   3  -9   -0.70    5.90
  13   3  -9    3.90    2.30
  13  -3   9    6.50    5.40
 -13  -3   9   -2.70    5.10
 -13  -3   9    5.80    4.40
  13  -3  -9    1.30    3.90
  13  -3  -9   -0.50    3.00
  13   4  -9   31.60    3.70
  13  -4   9   37.20    8.00
  13  -4  -9   28.10    4.90
 -13  -4   9   25.30    6.90
 -13  -4   9   44.80    7.60
  13   5  -9    2.00    2.50
  13  -5   9    8.50    6.40
 -13  -5   9   -6.40    5.10
 -13  -5   9    5.20    6.30
  13  -6   9   15.90    7.80
 -13  -6   9   17.80    6.50
 -13  -6   9   34.40    9.00
  13  -7   9    4.90   13.30
 -13  -7   9    5.60    8.10
  13  -8   9   -5.50   14.00
 -13  -8   9   15.80   10.10
  13   0 -10    2.50    5.20
  13   0 -10    7.10    2.70
 -13   0 -10    4.00    4.60
  13  -1  10  299.17   21.70
  13   1 -10  287.97   13.60
  13   1 -10  292.87   22.10
  13  -1 -10  280.27   13.90
 -13   1 -10  270.57   21.40
  13  -1 -10  296.47   21.30
 -13  -1  10  323.07   23.00
  13  -2  10   11.00    5.40
  13   2 -10    1.10    5.80
  13   2 -10    6.20    2.50
 -13  -2 -10   -6.20    4.50
 -13   2 -10    6.60    4.70
  13  -2 -10    1.70    4.60
 -13  -2  10   -0.30    5.40
  13  -2 -10    8.10    3.00
 -13  -3 -10  303.67   22.10
  13   3 -10  255.57   12.40
  13  -3  10  249.48   20.50
  13  -3 -10  229.58   13.40
 -13  -3  10  293.27   21.30
 -13  -3  10  268.07   21.10
  13  -3 -10  256.37   18.70
  13   4 -10    6.90    2.60
  13  -4  10    4.90    6.00
 -13  -4  10   10.80    5.70
 -13  -4  10    0.70    5.80
  13  -4 -10    5.00    3.90
  13  -5  10  147.39   15.80
  13   5 -10  169.88    8.90
 -13  -5  10  162.28   15.40
 -13  -5  10  167.18   16.80
  13  -6  10   -5.20    6.70
 -13  -6  10    0.20    7.20
 -13  -6  10   -3.50    5.90
  13  -7  10  147.79   26.20
 -13  -7  10  133.59   18.30
  13   0 -11    7.80    2.80
 -13   0 -11    5.80    5.00
  13   0 -11   -1.30    5.30
 -13  -1 -11    8.90    5.20
  13   1 -11   11.60    2.90
  13   1 -11    4.20    5.90
 -13   1 -11   13.30    5.30
  13  -1 -11   10.40    3.10
  13  -1 -11    2.80    5.10
  13   2 -11   11.50    2.90
  13   2 -11    5.30    6.30
  13  -2  11   10.80    5.80
  13  -2 -11    8.80    5.10
 -13  -2  11    3.20    6.10
 -13   2 -11    9.00    5.10
  13  -2 -11   10.70    3.30
 -13  -3 -11   13.10    7.30
  13  -3  11   11.10    6.00
  13   3 -11   11.10    2.90
  13  -3 -11   10.30    4.80
 -13  -3  11   15.30    5.70
  13  -3 -11    8.80    3.60
 -13  -3  11    4.00    6.20
  13  -4  11    3.20    6.30
  13   4 -11    3.60    2.70
 -13  -4  11    6.70    5.90
 -13  -4  11   -5.20    6.00
  13  -4 -11    1.80    3.80
  13  -5  11   15.60    7.90
  13   5 -11    5.60    2.90
 -13  -5  11    9.20    6.80
 -13  -5  11    0.80    6.30
  13  -5 -11   12.10    4.70
 -13  -6  11    6.50    8.00
 -13  -7  11   13.20    9.30
  13   0 -12    2.80    5.60
  13   0 -12   11.50    3.20
 -13   0 -12   13.60    5.70
  13   1 -12   46.60    5.00
  13   1 -12   36.00    7.70
 -13  -1 -12   27.60    6.90
  13  -1 -12   35.20    4.40
 -13   1 -12   42.40    7.20
  13  -1 -12   36.40    7.00
  13   2 -12    2.10    6.50
  13   2 -12   10.20    3.00
 -13  -2 -12   -6.20    4.90
  13  -2 -12    2.90    5.10
 -13   2 -12   10.00    5.50
  13  -2 -12    5.20    3.20
  13   3 -12   33.10    4.00
  13  -3  12   37.20    7.90
 -13  -3 -12   31.60    8.40
 -13  -3  12   25.80    7.80
  13  -3 -12   30.50    4.80
  13  -3 -12   34.70    6.10
  13  -4  12   12.90    7.20
  13   4 -12    0.60    2.80
 -13  -4  12   -1.50    6.30
  13  -4 -12    4.20    3.90
  13   5 -12   26.80    3.90
  13  -5  12   27.30    8.90
  13  -5 -12   23.40    5.50
 -13  -5  12   18.80    7.80
 -13  -5  12   34.90    8.80
 -13  -6  12    1.90    7.70
 -13   0 -13  258.17   21.30
  13   0 -13  279.97   21.20
  13   0 -13  285.97   13.50
 -13  -1 -13    0.40    5.20
  13   1 -13   -3.00    6.10
  13   1 -13    1.80    2.80
  13  -1 -13    1.30    2.90
  13  -1 -13   -3.10    5.30
 -13   1 -13    4.00    5.40
  13   2 -13  220.58   11.30
  13   2 -13  222.48   19.10
 -13   2 -13  215.38   18.10
  13  -2 -13  221.58   12.10
  13  -2 -13  234.28   17.70
  13   3 -13    3.50    2.80
  13  -3  13    1.00    6.40
 -13  -3 -13   -5.70    6.70
  13  -3 -13    3.70    3.60
  13  -3 -13   -0.10    4.70
  13   4 -13  209.18   10.90
  13  -4  13  210.18   18.60
  13  -4 -13  182.38   12.00
 -13  -4  13  218.78   19.10
  13   5 -13   -1.50    2.90
  13  -5 -13    5.30    4.50
  13   0 -14    4.60    3.10
 -13   0 -14    6.70    6.00
  13   0 -14   -5.60    5.90
 -13  -1 -14    9.10    6.10
  13   1 -14    3.40    6.70
  13   1 -14   12.00    3.40
 -13   1 -14   11.00    6.20
  13  -1 -14    8.10    6.30
  13  -1 -14   11.30    3.60
 -13  -2 -14   -9.90    5.20
  13   2 -14   -9.70    6.50
  13   2 -14    0.60    2.90
  13  -2 -14    3.50    5.60
  13  -2 -14    1.30    3.40
 -13   2 -14   -1.00    5.60
  13   3 -14    4.00    3.10
  13  -3 -14    5.10    4.00
  13  -4  14    4.10    7.30
  13   4 -14    2.10    3.20
 -13  -4  14   -9.20    7.10
  13  -4 -14    3.60    4.10
  13   5 -14    1.80    3.30
  13  -5 -14   11.10    5.00
 -13   0 -15   36.90    8.20
  13   0 -15   44.10    5.00
  13   0 -15   37.20    8.20
  13   1 -15    1.40    3.20
  13   1 -15   -7.40    6.40
 -13   1 -15   -1.10    5.90
  13  -1 -15    1.80    3.30
  13   2 -15   26.90    8.80
 -13  -2 -15   25.70    3.80
  13   2 -15   32.20    4.50
  13  -2 -15   34.40    5.00
  13   3 -15   -2.10    3.00
  13  -3 -15    1.60    3.80
  13   4 -15   20.90    4.10
  13  -4 -15   28.50    5.40
  13   0 -16   -0.80    3.40
  13   1 -16  141.39    9.30
 -13  -1 -16  148.19    9.10
  13  -1 -16  149.59    9.70
  13   2 -16    4.50    3.50
 -13  -2 -16    1.50    3.50
  13  -2 -16    0.90    3.90
 -14   0   0   57.09    8.00
  14   0   0   44.20    8.20
 -14   0   0   70.99   10.20
  14   0   0   48.60   10.20
 -14   0   0   48.90    7.70
  14   0   0   57.39   11.00
  14  -1   0   22.20    6.00
 -14  -1   0   25.50    5.30
 -14  -1   0   20.20    4.80
 -14   1   0   15.50    4.70
  14   1   0   27.60    6.20
 -14  -1   0   28.10    6.70
 -14  -1   0   22.00    7.80
  14  -1   0   24.50    8.80
  14   1   0   25.70    8.80
 -14   1   0   17.50    5.80
  14   2   0   23.00    8.80
  14   2   0   23.40    6.20
 -14  -2   0   10.20    4.00
 -14   2   0   16.90    4.60
 -14   2   0   11.40    5.00
  14  -2   0   29.00    9.00
 -14  -2   0   18.40    6.20
 -14  -2   0   15.70    7.30
  14  -2   0   19.60    4.60
 -14   3   0    5.90    4.10
  14   3   0   11.70    4.70
  14   3   0   16.40    5.80
  14  -3   0   31.60    9.40
 -14   3   0   18.60    4.90
 -14  -3   0    8.80    3.10
 -14  -3   0    5.40    5.40
 -14   4   0   24.60    5.70
  14   4   0   20.70    6.60
  14  -4   0   28.00    8.50
 -14  -4   0   16.50    7.70
 -14  -5   0    8.70    7.60
  14   5   0   12.50    6.10
 -14  -5   0    1.10    3.70
  14  -5   0    7.60    5.80
  14   6   0   12.50    6.70
  14  -6   0   -2.00    2.50
 -14  -6   0   -2.40    8.10
 -14  -7   0   10.20   10.30
 -14  -8   0   -1.80   11.30
 -14  -9   0    1.90   13.30
 -14   0  -1   76.29    9.10
  14   0   1   51.09    8.80
 -14   0  -1   78.49   10.80
 -14   0  -1   61.29    9.90
  14   0   1   52.99   11.80
 -14   0   1   73.59    8.50
  14   0  -1   63.79    9.20
 -14   0   1   84.49    9.30
  14   0   1   57.49   10.40
 -14   0  -1   68.19    8.80
  14   0  -1   82.99   12.80
  14   1  -1  322.17   27.30
  14  -1   1  310.27   26.70
 -14  -1  -1  407.36   27.10
 -14   1   1  384.76   27.20
 -14   1   1  415.76   28.00
 -14  -1  -1  392.06   28.50
  14  -1   1  347.37   28.80
 -14  -1  -1  337.97   26.30
  14   1  -1  416.46   30.70
  14  -1  -1  431.66   30.20
  14   1   1  332.77   28.60
 -14  -1   1  323.87   26.40
 -14  -1   1  431.76   28.30
 -14  -1   1  358.26   27.70
  14  -1  -1  395.96   30.00
 -14  -2  -1   35.50    5.90
  14   2  -1   35.10    6.20
 -14   2   1   40.40    6.50
  14  -2   1   19.40    7.10
 -14  -2  -1   47.90    6.40
 -14  -2   1   38.70    6.10
  14   2   1   44.40    7.40
 -14  -2   1   43.30    7.90
  14  -2  -1   29.90    8.80
 -14   2  -1   31.80    5.80
  14  -2  -1   44.40    6.10
 -14  -3  -1  162.28   16.00
 -14  -3  -1  179.28   13.60
  14   3  -1  186.98   15.20
 -14  -3   1  196.58   14.10
  14   3   1  182.98   16.00
  14   3   1  165.58   15.40
 -14  -3   1  203.48   17.00
 -14  -3   1  200.28   16.20
 -14   3  -1  148.09   14.50
 -14   3  -1  229.78   12.10
  14  -4   1   17.40    3.20
 -14  -4  -1   11.40    4.90
  14   4  -1   37.10    8.10
 -14   4   1   22.10    4.80
 -14   4  -1   13.80    3.30
  14   4   1   16.80    5.60
  14  -4  -1   17.60    2.80
 -14  -4   1   13.20    5.10
 -14  -4   1   27.50    7.40
  14  -4  -1   13.70    6.30
 -14  -5  -1  129.29   11.00
  14  -5   1  111.19    8.30
 -14  -5   1  151.28   11.60
  14   5   1  122.79   13.20
 -14  -5   1  139.39   15.80
  14  -5  -1  120.49    8.10
 -14  -6  -1   13.30    4.10
 -14  -6  -1   28.30   11.20
  14  -6   1   14.20    3.60
 -14  -6   1   22.30    9.00
  14   6   1   30.10    7.20
 -14  -7  -1  114.59   19.90
 -14  -7   1  124.79   18.40
 -14  -8  -1   -4.40   12.20
 -14  -8   1    1.30   10.40
 -14  -9  -1   77.79   18.90
 -14  -9   1   60.99   16.70
 -14   0  -2  331.47   23.00
  14   0  -2  311.87   26.00
  14   0  -2  370.46   25.60
 -14   0  -2  295.17   17.60
  14   0  -2  252.67   22.80
 -14   0  -2  280.97   24.30
 -14   0   2  326.07   22.70
 -14   0  -2  294.07   23.00
  14  -1   2   28.50    6.20
 -14  -1  -2   16.00    7.50
  14   1  -2   27.10    9.10
  14   1  -2   23.20    5.50
  14   1  -2   30.90    6.70
 -14  -1  -2   41.40    7.50
 -14  -1  -2   16.20    4.30
  14  -1   2   19.30    7.10
 -14  -1  -2   32.60    5.00
  14  -1  -2   17.90    4.70
 -14  -1   2   29.30    5.90
 -14  -1   2   38.20    6.50
  14  -1  -2   34.00    9.10
  14  -1  -2   36.80    9.50
  14   1   2   24.50    7.50
 -14   1  -2   23.10    4.70
 -14   1  -2   28.70    5.80
 -14  -1   2   23.50    5.00
 -14  -1   2   22.40    6.50
  14   2  -2   64.69   11.50
 -14  -2  -2   52.19    6.30
 -14  -2  -2   62.39    6.70
 -14  -2  -2   34.40    5.40
 -14   2   2   37.30    5.70
  14   2  -2   35.00    6.30
  14  -2   2   60.59    9.80
 -14   2  -2   32.80    5.20
 -14   2  -2   25.90    5.50
  14   2   2   58.19    9.50
 -14  -2   2   36.10    7.60
 -14  -2   2   47.00    6.70
 -14  -2   2   38.10    6.10
  14  -2  -2   48.40    9.50
  14   2   2   22.90    5.60
  14  -2  -2   37.50    5.60
  14   3  -2   19.10    6.70
 -14  -3  -2    4.70    5.40
 -14   3   2    6.20    3.60
  14   3  -2   16.50    8.80
 -14   3   2    6.00    3.00
 -14  -3  -2   11.20    3.90
  14  -3   2   12.20    8.00
 -14  -3   2    7.60    3.30
 -14   3  -2   15.80    5.60
  14   3   2    2.30    3.60
 -14   3  -2    7.30    3.20
 -14   3  -2   11.50    4.10
  14   3   2    8.00    7.50
 -14  -3   2    4.90    5.10
 -14  -3   2    9.90    4.10
  14  -3  -2    5.30    6.10
  14   3   2    8.70    4.80
 -14  -3   2   11.80    5.40
 -14  -4  -2  156.98   14.20
  14  -4   2  147.29    9.80
 -14   4   2  139.99   13.20
 -14  -4   2  191.08   14.60
  14  -4  -2  194.68   14.80
 -14   4  -2  137.39    9.70
 -14  -4   2  191.88   16.40
  14  -4  -2  168.08   13.40
  14  -4  -2  180.08    9.30
  14  -5   2   28.60    9.70
  14  -5   2   11.60    3.10
 -14  -5  -2   12.80    4.10
 -14  -5  -2   12.90    4.00
 -14  -5   2   19.70    5.20
 -14  -5   2   24.30    7.40
  14   5   2   10.10    4.80
  14  -6   2   32.90    4.60
 -14  -6  -2   31.50    5.20
  14   6   2   27.60    6.80
 -14  -6   2   50.19   10.40
 -14  -6   2   46.70    6.40
  14  -7   2   -2.70    3.10
 -14  -7   2    4.20    8.70
 -14  -8   2  105.89   18.70
 -14  -9   2   12.30   12.50
 -14   0  -3   14.70    4.80
 -14   0   3   19.00    6.00
  14   0   3    3.70    3.50
  14   0   3    0.80    5.00
 -14   0   3   19.60    4.70
 -14   0  -3    6.40    3.60
 -14   0  -3    4.30    4.50
 -14   0   3    7.00    3.00
  14   0  -3   11.20    7.50
 -14   0  -3    0.90    3.10
  14   0  -3    6.00    3.80
  14   0  -3   15.80    5.50
 -14  -1  -3   29.70    6.80
  14   1  -3   12.20    8.30
 -14  -1  -3   15.70    3.80
  14   1  -3   16.60    4.90
 -14   1   3   12.20    3.20
  14  -1   3   16.60    4.90
  14  -1   3    3.90    5.50
  14   1  -3   16.90    3.00
 -14  -1  -3    9.20    3.80
  14   1  -3   25.80    5.90
 -14  -1  -3    1.40    6.00
 -14   1  -3   13.50    4.00
  14  -1  -3   30.80    7.90
 -14   1  -3    8.20    4.20
 -14   1  -3   21.20    5.10
 -14  -1   3   10.10    5.80
 -14  -1   3   14.30    4.50
  14  -1  -3    8.00    3.50
  14  -1  -3    9.20    6.90
 -14  -1   3   13.90    4.30
 -14  -1   3   20.20    4.30
  14   1   3   12.10    3.90
  14   1   3    3.20    5.50
 -14   1  -3    8.20    3.70
 -14  -2  -3   15.80    3.80
  14  -2   3    8.60    4.50
 -14  -2  -3    4.70    2.50
 -14   2   3    5.70    2.80
 -14  -2  -3   19.80    6.50
  14   2  -3   13.80    5.60
 -14   2   3   24.60    6.50
  14   2  -3    2.80    3.70
 -14   2   3   10.60    4.90
 -14  -2  -3    1.00    3.50
  14   2   3    2.90    3.40
 -14   2  -3    6.40    3.80
  14   2   3    2.50    5.60
 -14  -2   3   11.50    4.00
 -14   2  -3   -0.90    3.30
 -14  -2   3    8.50    4.30
 -14  -2   3    3.80    3.40
  14  -2  -3    1.00    5.80
 -14  -2   3    0.00    5.20
  14  -2  -3    4.30    2.60
 -14  -3  -3   30.20    6.90
 -14   3   3    9.00    4.30
  14  -3   3   19.20    5.20
  14   3  -3   11.10    8.30
 -14   3   3    9.00    3.30
 -14  -3  -3    7.80    3.60
  14   3  -3   22.00    6.80
  14  -3   3   11.20    6.80
 -14  -3   3    5.20    5.00
  14   3   3    8.10    4.10
 -14   3  -3   10.60    3.40
 -14  -3   3   22.20    5.10
 -14  -3   3   14.00    4.70
 -14   3  -3   14.30    4.40
  14  -3  -3   12.50    2.00
  14  -3  -3    2.00    5.40
 -14  -3   3   10.10    3.60
  14  -4   3    1.50    2.50
  14  -4   3    8.50    7.50
 -14  -4  -3    6.40    3.70
 -14   4   3    3.90    2.90
  14  -4   3   10.00    7.80
 -14  -4  -3    3.20    4.80
 -14  -4   3    9.50    5.40
  14  -4  -3    4.60    4.40
  14   4   3    4.00    3.80
  14  -4  -3    4.90    4.30
 -14  -4   3    4.20    4.70
 -14   4  -3    2.80    2.50
  14  -5   3    6.40    8.70
  14  -5   3   10.90    8.20
  14  -5   3    0.90    2.60
 -14  -5  -3    4.10    3.30
  14   5   3    5.40    4.20
 -14  -5   3   11.20    6.30
 -14  -5   3    2.60    4.20
  14  -6   3    5.20   10.40
 -14  -6  -3    4.80    3.60
  14  -6   3    1.70    3.00
 -14  -6   3    6.70    7.50
  14   6   3    2.80    4.50
 -14  -6   3    2.50    3.90
  14  -7   3   -1.50    3.20
 -14  -7   3    2.10    8.70
 -14  -8   3    4.60   10.10
 -14  -9   3   -1.70   11.50
 -14   0   4   22.10    6.50
 -14   0  -4    7.90    4.60
  14   0  -4   21.30    5.10
 -14   0  -4   22.80    4.60
 -14   0  -4   20.80    4.50
 -14   0   4   19.70    4.00
  14   0  -4   23.40    3.10
  14   0  -4   16.20    7.40
  14   0   4   11.80    4.20
  14   0   4   19.50    6.00
 -14   0  -4   28.20    5.50
 -14   1   4   22.40    4.20
  14   1  -4   20.60    3.50
  14   1  -4   24.40    5.90
  14   1  -4   23.30    5.30
 -14  -1  -4   16.60    4.30
  14  -1   4   14.90    4.50
 -14   1   4   38.40    7.50
  14  -1   4   12.20    5.70
  14   1  -4   23.70    8.50
 -14  -1  -4   23.50    4.10
 -14  -1  -4   33.40    6.80
  14   1   4   22.60    6.00
 -14  -1   4   27.70    6.90
 -14   1  -4   18.30    4.90
 -14  -1   4   23.40    4.40
 -14  -1   4   19.80    4.80
  14  -1  -4   12.40    3.80
  14   1   4   17.60    4.50
 -14   1  -4   22.00    4.40
 -14   1  -4   16.10    4.70
  14   2  -4  222.48   19.40
  14  -2   4  197.78   15.80
 -14   2   4  200.28   14.60
  14   2  -4  182.28   15.30
  14   2  -4  160.78   16.40
 -14  -2  -4  189.58   12.40
 -14  -2   4  169.98   14.90
 -14   2  -4  175.98   14.80
  14  -2  -4  209.08   16.50
 -14  -2   4  208.88   14.70
 -14   2  -4  170.18   11.40
  14  -2  -4  172.88   13.30
 -14  -2   4  191.48   16.60
  14   2   4  155.48   14.40
 -14   2  -4  187.48   16.00
 -14   3   4   23.70    4.30
  14  -3   4    9.10    6.20
 -14   3   4   37.60    6.60
  14   3  -4   23.10    8.90
  14  -3   4   47.30    7.60
  14   3  -4   31.70    3.70
 -14  -3  -4   25.50    4.90
 -14   3  -4   29.80    5.40
 -14  -3   4   23.40    4.60
 -14  -3   4   36.00    5.70
 -14   3  -4   31.20    4.20
  14  -3  -4   14.70    5.50
 -14  -3   4   22.00    6.20
  14   3   4   24.00    5.10
 -14   4   4   18.20    5.00
 -14  -4  -4   27.10    4.80
 -14  -4  -4   23.20    6.10
  14  -4   4   17.20    7.40
 -14   4  -4   26.00    3.70
  14   4   4   22.00    5.10
 -14  -4   4   36.50    6.70
 -14  -4   4   26.80    6.30
  14  -4  -4   25.10    5.00
  14  -5   4   14.10    9.30
  14  -5   4   19.20    9.10
  14  -5   4    3.20    2.80
 -14  -5  -4    7.40    3.60
  14   5   4    9.60    4.40
 -14  -5   4    6.40    4.70
 -14  -5   4   15.00    6.20
  14  -6   4   87.49    8.20
  14   6   4   93.79   10.70
 -14  -6   4  129.79   10.60
 -14  -7   4   20.90    9.50
 -14  -8   4   33.30   11.80
 -14  -9   4    0.30   11.30
  14   0  -5   21.50    3.50
 -14   0  -5   25.60    5.40
 -14   0  -5   21.10    4.40
  14   0  -5   19.30    4.80
 -14   0   5   25.10    5.50
 -14   0  -5   14.70    4.90
 -14   0   5   20.70    4.10
  14   0  -5   23.90    7.20
  14   0  -5   25.90    2.90
 -14   0  -5   23.00    4.40
 -14   0   5   18.90    6.50
  14   0   5   14.50    4.40
  14   0   5   24.70    5.90
  14  -1   5  167.18   15.80
 -14   1   5  207.18   14.90
  14   1  -5  234.98   18.50
 -14  -1  -5  218.88   12.60
 -14   1   5  187.28   17.50
  14   1  -5  162.58   15.70
  14   1  -5  166.48   15.50
  14   1  -5  183.58    9.90
 -14  -1  -5  186.38   16.10
  14  -1  -5  200.08   14.70
 -14   1  -5  217.18   12.20
 -14  -1   5  221.08   17.50
 -14  -1   5  161.58   15.40
  14   1   5  172.48   15.70
  14   1   5  175.08   14.80
  14  -1  -5  173.18   10.40
  14  -1  -5  225.38   17.00
 -14  -1   5  172.28   14.70
 -14   1  -5  201.98   15.60
 -14   1  -5  178.38   15.10
  14  -2   5    8.80    4.20
 -14  -2  -5    9.70    3.70
 -14   2   5    9.70    3.20
  14   2  -5    9.30    2.70
  14   2  -5    3.60    7.10
 -14  -2  -5   21.80    7.00
  14  -2   5    8.50    5.50
 -14  -2   5    7.00    5.70
 -14   2  -5    7.80    3.50
 -14   2  -5   14.30    4.50
  14   2   5   12.80    4.00
  14   2   5    7.40    5.30
 -14  -2   5    7.70    4.10
 -14  -2   5   13.80    3.60
 -14  -2   5   10.70    3.60
  14  -2  -5    9.00    5.30
  14  -3   5  201.48   15.80
 -14  -3  -5  175.88   11.90
  14   3  -5  180.88   18.10
  14   3  -5  178.28    9.40
 -14  -3   5  204.48   15.30
  14  -3  -5  179.08   14.60
 -14  -3   5  170.58   14.50
  14   3   5  175.58   14.40
 -14   3  -5  179.78   14.70
 -14  -3   5  179.78   15.90
 -14   3  -5  180.18   10.80
 -14  -4  -5   14.40    5.80
  14   4  -5   11.90    2.80
  14  -4   5    3.90    6.30
 -14   4   5   21.80    5.70
 -14  -4  -5   20.00    4.20
 -14  -4   5   10.80    5.40
 -14  -4   5   24.10    5.90
  14   4   5   18.30    4.60
 -14   4  -5   15.70    3.20
 -14  -5  -5  143.99    9.60
  14  -5   5  125.39   15.10
  14  -5   5  112.39    9.00
  14   5  -5  103.19    7.10
 -14   5   5  101.79   11.30
 -14  -5   5  146.79   12.50
  14   5   5  139.09   11.60
  14  -6   5    1.10    3.30
  14  -6   5    5.60   10.60
  14  -6   5    8.20    8.20
 -14  -6   5    8.10    7.10
 -14  -6   5   -1.20    4.50
  14   6   5    3.90    4.30
  14  -7   5  138.59   21.80
 -14  -7   5   97.29   15.40
 -14  -7   5   78.79    9.20
 -14  -8   5    4.10    9.80
  14   0  -6   12.30    6.40
 -14   0  -6   18.20    4.10
 -14   0  -6   17.50    3.80
  14   0   6   20.10    5.80
  14   0  -6   15.60    3.20
 -14   0  -6    9.60    4.40
  14   0  -6    9.90    4.00
 -14   0  -6   12.30    4.70
 -14   0   6   16.70    5.00
 -14   0   6   16.60    6.50
  14   1  -6   -0.80    6.30
 -14  -1  -6    7.00    2.70
  14  -1   6   13.40    5.30
 -14  -1  -6    5.10    3.40
  14   1  -6    5.00    4.30
 -14  -1  -6   17.60    5.40
  14   1  -6    7.40    2.60
 -14  -1  -6   -3.50    4.30
 -14   1   6   18.70    5.20
 -14   1   6    3.00    5.30
 -14   1  -6    5.90    4.20
 -14   1  -6    6.80    3.40
  14  -1  -6    2.50    2.90
  14   1   6    7.80    4.90
 -14   1  -6    4.20    3.30
  14  -1  -6    3.50    5.30
  14   1   6    8.30    3.60
 -14  -1   6    3.10    5.50
  14  -1  -6    6.00    2.90
  14   2  -6   26.70    3.40
 -14  -2  -6   37.90    7.80
  14   2  -6   26.90    8.00
 -14  -2  -6   29.20    4.70
  14  -2   6   29.70    6.70
  14   2   6   27.30    5.00
 -14  -2   6   29.20    7.00
 -14  -2   6   39.30    6.30
 -14   2  -6   27.90    4.30
 -14  -2   6   18.20    4.30
 -14   2  -6   26.40    5.40
  14  -2  -6   17.00    5.60
  14  -2  -6   13.60    3.90
  14   3  -6    4.10    2.30
  14   3  -6   -0.80    6.50
 -14   3   6   18.10    5.70
  14  -3   6    1.40    3.90
 -14  -3  -6    4.10    3.40
  14  -3   6    2.30    5.40
 -14  -3   6    9.20    4.10
 -14   3  -6   10.20    4.40
  14   3   6    7.10    3.70
 -14  -3   6    6.50    3.40
  14  -3  -6    2.80    4.10
 -14  -3   6    1.90    5.00
 -14   3  -6    6.10    3.10
 -14  -4  -6   18.00    6.10
 -14   4   6   17.30    5.80
  14   4  -6   12.30    2.80
 -14  -4  -6    7.00    3.60
  14  -4   6    1.20    5.80
 -14  -4   6    2.20    5.10
 -14   4  -6   10.50    3.20
  14   4   6   13.60    4.20
 -14  -4   6   16.40    5.40
  14  -5   6   -3.90    6.20
 -14   5   6   13.40    5.30
  14  -5   6   -0.20    3.00
  14   5  -6    7.20    2.60
 -14  -5   6   10.10    6.00
  14   5   6    8.40    4.20
 -14  -5   6    1.30    5.00
  14  -6   6    0.50    3.30
  14  -6   6    8.30   11.10
  14  -6   6    4.00    7.70
 -14  -6   6    3.50    5.00
 -14  -6   6   16.10    7.30
  14  -7   6    7.60   12.60
  14  -7   6    6.30    8.60
 -14  -7   6   -0.60    4.50
 -14  -7   6    5.20    7.90
 -14  -8   6    3.30    9.30
  14   0  -7   40.40    6.60
  14   0  -7   43.70    4.70
 -14   0  -7   34.30    6.30
  14   0  -7   40.80    7.80
  14   0   7   48.20    7.90
 -14   0  -7   40.30    5.20
 -14   0  -7   44.90    6.10
 -14   0   7   39.40    8.10
 -14  -1  -7  119.99    8.70
  14   1  -7  125.19   13.00
  14  -1   7  114.89   11.50
  14   1  -7  113.59    7.00
 -14   1  -7  108.59   10.90
 -14  -1   7  112.09   12.90
 -14   1  -7  115.79    8.50
  14  -1  -7  106.99   10.30
  14  -1  -7  104.59    7.30
  14  -1  -7  120.19   11.90
  14   1   7  114.99   11.40
  14   2  -7   33.00    8.10
  14  -2   7   36.30    7.10
 -14  -2  -7   28.00    4.60
  14   2  -7   34.20    3.80
 -14  -2  -7   33.00    7.50
  14  -2  -7   26.60    6.10
 -14  -2   7   29.90    7.30
 -14  -2   7   48.50    7.00
 -14   2  -7   35.40    4.60
 -14   2  -7   32.90    6.00
  14  -2  -7   22.80    4.20
  14   3  -7   80.19    5.90
  14   3  -7   80.89   11.90
  14  -3   7   82.89   10.90
 -14   3  -7   92.19    6.90
 -14  -3   7   75.49   10.80
  14  -3  -7   86.09    9.00
 -14  -3   7   97.69   10.20
  14   4  -7   24.70    3.30
  14  -4   7   17.40    6.80
 -14  -4   7   33.40    6.40
 -14  -4   7   16.20    6.10
  14  -5   7   67.79   12.10
  14   5  -7   98.99    6.40
 -14  -5   7  113.59   13.10
 -14  -5   7   93.09   11.20
  14  -6   7   27.20   12.60
  14  -6   7    7.40    7.50
 -14  -6   7   27.10    8.20
  14  -7   7   28.60   14.00
 -14  -7   7   24.60    6.30
 -14  -7   7   44.70   10.60
 -14  -8   7    5.80    9.50
 -14   0  -8   28.90    4.60
  14   0   8   32.60    6.30
  14   0  -8   27.30    3.60
  14   0  -8   34.60    7.00
 -14   0  -8   25.40    4.50
 -14   0   8   27.90    7.30
 -14   0  -8   23.70    5.80
 -14  -1  -8   -4.30    4.20
  14   1  -8   -1.40    5.60
 -14  -1  -8   -1.30    3.00
 -14  -1  -8    3.90    5.10
  14  -1   8    4.50    4.90
  14   1  -8    1.40    2.40
  14  -1  -8    2.00    2.60
 -14  -1   8   -7.40    4.80
  14  -1  -8   -1.20    4.80
 -14   1  -8    1.00    4.20
 -14   1  -8    0.00    3.20
 -14  -2  -8   69.79   10.90
  14   2  -8   94.19   12.30
  14   2  -8   97.99    6.40
  14  -2   8  105.59   11.20
 -14  -2   8   89.19   11.60
 -14   2  -8  101.79    7.50
 -14   2  -8  102.79   10.30
  14  -2  -8   79.49    6.90
  14  -2  -8   97.39   10.10
  14   3  -8    5.60    2.50
 -14  -3  -8   10.80    7.40
  14   3  -8    0.00    6.40
  14  -3   8    0.50    5.40
  14  -3  -8    7.90    3.60
  14  -3  -8    4.50    4.10
 -14  -3   8    7.50    4.40
 -14  -3   8   -0.50    5.50
  14  -4   8   32.00    8.00
  14   4  -8   29.60    3.70
 -14  -4   8   16.60    6.50
 -14  -4   8   43.80    7.30
  14  -5   8   -5.40    6.30
  14  -5   8   -0.90    3.30
  14   5  -8   -1.80    2.50
 -14  -5   8    2.60    5.70
 -14  -5   8   -9.00    5.10
 -14  -6   8   74.59   13.40
 -14  -6   8   63.79   10.20
  14  -7   8    9.40   13.80
 -14  -7   8   10.00    8.50
 -14  -8   8   27.50   11.00
  14   0  -9   -0.10    5.30
  14   0  -9    1.30    2.60
 -14   0  -9    2.60    4.60
  14  -1   9   34.00    6.70
  14   1  -9   27.80    3.60
  14   1  -9   21.90    7.00
 -14  -1  -9   15.00    5.70
  14  -1  -9   25.60    3.70
 -14  -1   9   27.20    7.30
  14  -1  -9   19.60    5.90
 -14   1  -9   21.30    5.70
 -14  -2  -9   -3.80    5.20
  14   2  -9    5.30    2.60
  14   2  -9   -1.10    6.20
  14  -2   9    8.90    5.50
 -14  -2   9    0.10    5.70
 -14   2  -9    5.10    4.60
  14  -2  -9    3.70    4.70
  14  -2  -9    8.40    3.30
  14   3  -9   23.90    3.50
  14  -3   9   22.40    7.00
 -14  -3  -9   42.70    9.10
 -14  -3   9   19.00    6.90
  14  -3  -9   18.10    4.20
 -14  -3   9   29.50    5.80
  14  -3  -9   13.50    5.00
  14  -4   9    2.10    6.00
  14   4  -9    2.00    2.60
 -14  -4   9    4.90    5.40
  14  -4  -9    0.90    4.00
 -14  -4   9   -1.60    5.70
  14  -5   9    8.00    7.20
  14   5  -9   15.10    3.20
 -14  -5   9   14.80    6.90
 -14  -5   9    8.30    6.30
  14  -6   9   -4.00    6.90
 -14  -6   9    5.00    7.20
 -14  -6   9   -2.00    5.90
  14  -7   9    3.70   13.80
 -14  -7   9   11.90    8.60
 -14   0 -10   70.59    9.30
  14   0 -10   79.39    6.10
  14   0 -10   73.49   10.30
  14   1 -10   15.20    3.20
 -14  -1 -10    6.80    5.30
  14  -1  10   20.70    6.10
  14   1 -10   11.40    6.60
  14  -1 -10   13.60    5.80
  14  -1 -10   18.90    3.50
 -14   1 -10   19.60    5.70
  14   2 -10    0.60    6.40
 -14  -2 -10   -5.30    5.10
  14   2 -10   10.10    2.90
  14  -2  10    8.10    5.80
  14  -2 -10    7.60    3.20
 -14   2 -10    7.50    5.00
 -14  -2  10    2.20    6.10
  14  -2 -10    3.00    5.00
 -14  -3 -10   20.60    8.20
  14   3 -10   13.60    3.10
  14  -3  10   13.00    6.70
  14  -3 -10    8.10    3.70
 -14  -3  10    9.00    6.50
  14  -3 -10    6.50    4.50
  14  -4  10   68.59   11.00
  14   4 -10   70.99    5.70
  14  -4 -10   47.00    6.30
 -14  -4  10   57.49    9.70
  14   5 -10    9.10    3.20
  14  -5  10   11.00    7.30
 -14  -5  10   15.00    7.20
 -14  -5  10    2.00    6.50
 -14  -6  10   -1.00    6.50
 -14  -6  10   11.90    7.80
  14  -7  10   -2.20   13.80
 -14  -7  10    6.10    8.30
 -14   0 -11    3.60    5.10
  14   0 -11   -4.50    5.60
  14   0 -11    5.10    2.80
  14   1 -11   88.59   11.70
  14   1 -11   96.29    6.70
  14  -1 -11   87.59   10.60
  14  -1 -11   93.39    6.90
 -14   1 -11   90.09   10.60
  14  -2  11    5.10    5.90
 -14  -2 -11   -8.60    5.00
  14   2 -11    0.90    6.70
  14   2 -11    3.90    2.70
 -14   2 -11    8.50    5.40
  14  -2 -11    5.50    3.30
 -14  -2  11   -5.10    6.00
  14  -2 -11   -1.10    4.90
  14  -3  11   81.49   11.30
 -14  -3 -11   99.09   13.10
  14   3 -11   80.59    6.20
  14  -3 -11   68.49    7.10
  14  -3 -11   79.49    9.10
 -14  -3  11   77.09   11.80
  14  -4  11    5.80    6.80
  14   4 -11    2.30    2.90
  14  -4 -11   -0.30    3.90
 -14  -4  11  -10.90    6.10
  14   5 -11   56.59    5.70
  14  -5  11   44.60   10.10
 -14  -5  11   41.80    9.20
  14   0 -12   38.50    7.80
 -14   0 -12   43.90    7.80
  14   0 -12   36.80    4.50
 -14  -1 -12   -1.40    5.00
  14   1 -12   -1.90    6.30
  14   1 -12    3.00    2.90
 -14   1 -12    4.00    5.40
  14  -1 -12    4.70    3.10
  14  -1 -12    0.00    5.60
  14   2 -12   20.20    7.90
  14   2 -12   31.20    4.00
  14  -2 -12   26.80    6.60
 -14   2 -12   29.60    6.90
  14  -2 -12   32.50    4.60
  14   3 -12    1.20    2.80
  14  -3  12    4.40    6.50
 -14  -3 -12    2.50    7.50
 -14  -3  12   -3.30    6.60
  14  -3 -12    1.10    4.80
  14  -3 -12    9.60    3.90
  14  -4  12   32.30    8.70
  14   4 -12   28.00    4.00
 -14  -4  12   15.10    8.10
  14  -4 -12   21.00    5.10
  14  -5  12    4.00    7.80
  14   5 -12    2.20    3.20
  14  -5 -12    3.90    4.80
 -14  -5  12  -10.10    6.70
  14   0 -13   15.50    3.70
  14   0 -13    6.80    6.70
 -14   0 -13   16.90    6.50
  14   1 -13   17.00    3.60
 -14  -1 -13   12.80    6.30
  14   1 -13    4.50    6.90
  14  -1 -13   16.00    3.80
  14  -1 -13    8.70    6.20
 -14   1 -13   15.80    6.40
  14   2 -13    7.90    7.50
  14   2 -13   11.70    3.40
 -14  -2 -13   -4.80    5.50
 -14   2 -13   16.50    6.60
  14  -2 -13    7.90    3.70
  14  -2 -13    5.00    5.70
  14   3 -13   19.80    3.80
 -14  -3 -13   19.30    8.40
  14  -3 -13   21.10    4.70
  14  -3 -13   22.30    6.20
  14  -4  13    5.10    7.50
  14   4 -13    5.60    3.30
 -14  -4  13   -2.70    7.20
  14  -4 -13   10.70    4.50
  14   5 -13    7.90    3.50
  14  -5 -13   12.50    5.00
  14   0 -14   10.00    3.60
 -14   0 -14   15.70    6.80
  14   0 -14    5.80    6.80
  14   1 -14   -7.80    6.60
  14   1 -14   -1.30    2.90
 -14  -1 -14   -4.30    5.40
  14  -1 -14    1.20    3.20
  14  -1 -14   -4.90    5.90
 -14   1 -14    0.10    6.00
  14   2 -14    1.10    7.50
  14   2 -14    4.40    3.20
  14  -2 -14    6.70    3.90
  14   3 -14   -0.50    3.00
  14  -3 -14    0.50    3.80
  14   4 -14   12.20    3.70
  14  -4  14    7.80    8.00
  14  -4 -14    8.50    4.60
  14   0 -15    3.50    3.50
  14   1 -15   32.00    4.70
  14   1 -15   20.50    8.40
  14  -1 -15   33.90    5.00
 -14   1 -15   28.80    8.00
  14   2 -15   -0.80    7.70
  14   2 -15    2.40    3.40
  14  -2 -15    2.70    3.90
  14   3 -15   31.70    4.70
  14  -3 -15   24.40    5.30
  14   0 -16   -0.20    3.70
  14   1 -16   -0.20    3.60
  14  -1 -16    4.60    3.90
  15   0   0    9.30    8.20
 -15   0   0    0.60    3.60
 -15   0   0    4.40    4.50
  15   0   0   -6.50    7.60
 -15   0   0    5.10    5.50
  15   0   0    8.20    4.80
  15   1   0    2.00    8.10
 -15   1   0    2.40    5.20
  15   1   0    1.50    4.50
  15  -1   0    6.50    8.00
 -15   1   0   -1.70    4.00
 -15  -1   0   18.20    6.20
 -15  -1   0   -5.90    3.20
 -15  -1   0    7.10    4.10
  15  -1   0    6.60    4.50
 -15   1   0    0.30    3.60
  15   2   0   12.30    9.00
  15   2   0    4.10    4.90
  15  -2   0   10.70    8.10
 -15   2   0    1.60    3.60
 -15  -2   0   -5.00    2.90
 -15   2   0    1.00    3.40
 -15  -2   0   11.60    5.80
  15   2   0    1.60    3.80
 -15   2   0    2.10    4.70
  15   3   0    3.70    5.10
  15  -3   0    3.70    7.90
 -15  -3   0   -5.20    4.80
 -15  -3   0    1.40    2.70
  15  -4   0   11.20    7.20
  15   4   0    8.60    5.70
 -15  -4   0   -1.60    4.30
 -15  -5   0   -3.60    3.90
 -15  -5   0   -1.20    7.80
  15  -5   0   -1.50    2.30
  15  -5   0   11.10    6.20
 -15  -6   0   -4.10    8.50
 -15  -7   0   -0.60    9.80
 -15  -8   0   -8.00   11.60
 -15  -9   0   -0.80   13.60
  15   0   1   10.30    7.50
 -15   0  -1    4.30    4.00
 -15   0   1    4.70    3.60
  15   0  -1   15.80    8.90
  15   0   1    6.60    4.60
 -15   0  -1   11.20    5.80
 -15   0  -1   10.50    4.80
 -15   0   1   18.60    6.30
 -15   0   1    9.60    4.90
  15   0  -1    8.60    5.00
  15   1  -1  479.45   38.30
  15  -1   1  497.35   37.90
 -15   1   1  630.44   38.50
  15   1  -1  637.94   41.80
  15  -1   1  557.34   39.90
 -15  -1  -1  563.24   37.60
 -15   1   1  470.15   37.20
  15   1   1  544.75   40.00
  15  -1  -1  479.85   37.50
 -15  -1   1  638.94   39.30
 -15  -1   1  548.55   37.80
  15   2  -1    4.70    5.40
 -15   2   1    5.20    3.50
  15   2  -1   16.50    9.40
 -15   2   1   -1.10    3.80
  15   2  -1    0.30    3.90
 -15  -2  -1   20.70    6.40
 -15  -2  -1    6.20    3.40
  15  -2   1    6.10    7.80
  15  -2   1   10.70    4.50
 -15   2   1    8.50    5.70
 -15  -2   1   -1.30    3.50
  15   2   1    4.20    7.90
 -15   2  -1   -0.90    3.00
 -15  -2   1   -0.10    5.10
  15   2   1    1.60    4.40
  15  -2  -1    8.40    3.50
 -15   2  -1   -0.60    3.90
  15  -2  -1   12.90    8.30
 -15  -2   1    3.80    3.40
 -15  -3  -1  232.08   17.20
 -15  -3  -1  229.08   19.70
 -15  -3   1  252.67   19.80
 -15  -3   1  250.67   17.80
 -15  -4  -1   -0.10    4.40
  15  -4   1   20.40    9.50
  15  -4   1   -0.20    2.20
 -15  -4   1   -1.10    6.50
  15  -4  -1   -1.60    1.90
 -15  -4   1   -3.10    4.30
  15   4   1    5.40    5.10
 -15   4  -1    5.30    3.00
  15  -4  -1    3.20    6.40
 -15  -5  -1  192.48   14.70
  15  -5   1  161.08   10.70
 -15  -5   1  192.08   19.00
  15  -5  -1  158.88   15.00
 -15  -5   1  205.98   15.10
  15  -6   1   -0.80    2.80
 -15  -6   1   -4.50    7.60
 -15  -7   1  120.39   18.50
 -15  -8   1   -1.80   10.50
 -15  -9   1   63.59   16.80
 -15   0  -2  621.74   38.00
  15   0  -2  492.05   37.70
 -15   0  -2  575.34   37.70
 -15   0   2  548.65   37.30
 -15   0  -2  508.45   28.30
  15   0  -2  553.74   40.50
 -15   0  -2  490.05   37.30
 -15  -1  -2   47.70    7.50
  15   1  -2   35.90   10.00
 -15   1   2   34.20    6.40
  15  -1   2   25.70    6.30
 -15  -1  -2   36.30    7.80
 -15  -1  -2   36.40    5.30
  15  -1   2   18.60    7.70
  15   1  -2   31.10    7.00
 -15  -1   2   26.90    5.50
  15  -1  -2   16.30    5.00
 -15   1  -2   20.70    5.60
 -15  -1   2   29.60    7.30
  15  -1  -2   28.90    9.40
 -15  -1   2   27.40    5.30
 -15   1  -2   27.70    5.00
  15   1   2   16.10    7.80
  15  -2   2  933.41   61.49
  15   2  -2  984.10   62.29
 -15   2   2 1027.40   60.89
 -15  -2  -2 1005.00   45.60
 -15  -2  -2  832.32   59.39
 -15   2  -2  737.03   44.10
  15  -2  -2  944.61   61.69
  15   2   2  838.82   61.19
 -15  -3  -2   21.60    4.70
 -15   3   2    7.90    4.00
  15   3  -2   20.80    9.00
  15  -3   2   14.00    8.10
  15   3   2    7.30    4.40
 -15  -3   2    4.50    5.40
  15  -3  -2    6.50    6.70
 -15  -3   2   13.70    6.00
  15  -3  -2    7.10    2.20
 -15   3  -2    8.00    3.50
 -15  -3   2    7.70    3.60
 -15  -4  -2  226.58   13.30
  15  -4   2  157.68   10.90
 -15  -4  -2  187.28   15.90
 -15  -4   2  229.18   16.60
 -15   4  -2  164.48   10.90
  15  -4  -2  207.48   16.50
  15   4   2  148.39   15.40
  15  -5   2    4.30    2.70
  15  -5   2   35.90   10.20
 -15  -5  -2    1.30    3.90
 -15  -5  -2    9.30    3.70
  15   5   2    7.50    4.70
 -15  -5   2    9.50    6.70
 -15  -5   2    2.10    4.50
 -15  -6   2  309.17   26.60
 -15  -6   2  292.17   21.10
 -15  -7   2    9.20    9.60
 -15  -8   2   76.59   15.40
 -15  -9   2    7.30   12.20
  15   0   3   31.60    7.60
 -15   0  -3   53.49    8.00
  15   0  -3   28.80    9.50
  15   0  -3   34.50    6.70
  15   0   3   26.10    5.80
 -15   0   3   36.70    5.90
 -15   0  -3   31.80    6.90
 -15   0  -3   33.00    5.90
 -15   0  -3   24.30    5.10
 -15   1   3    2.20    1.00
 -15  -1  -3    5.50    4.50
  15  -1   3   -5.40    5.30
 -15  -1  -3   -4.20    2.50
 -15   1   3    6.90    4.80
  15   1  -3    5.00    4.40
 -15  -1  -3    0.60    3.30
  15  -1   3    3.00    4.10
 -15  -1  -3   -1.70    5.60
  15   1  -3   10.20    5.10
  15   1  -3   -5.60    7.60
  15   1   3   -4.40    5.50
 -15   1  -3   -2.10    3.00
 -15  -1   3    4.50    3.50
 -15   1  -3   -3.00    3.20
 -15   1  -3   -4.50    3.40
  15   1   3   -1.70    3.10
 -15  -1   3   -5.00    4.70
 -15   1  -3   -5.40    3.60
  15  -1  -3   -1.60    6.70
  15  -1  -3    3.60    3.40
 -15  -1   3    0.60    2.90
 -15  -2  -3   -0.40    3.40
  15   2  -3    9.10    5.20
 -15   2   3    3.40    4.70
 -15   2   3   14.40    6.20
  15   2  -3   -4.40    8.20
 -15  -2  -3    9.70    6.80
 -15  -2  -3   10.80    3.70
  15  -2   3   -1.40    6.20
 -15  -2   3    0.80    3.40
 -15  -2   3   -4.70    4.10
 -15   2  -3   -4.70    3.10
 -15  -2   3   -3.90    4.90
  15   2   3    0.10    3.40
 -15  -2   3    1.20    3.20
  15  -2  -3   -1.00    2.50
 -15   2  -3    0.70    3.70
  15   2   3   -0.70    6.10
  15  -3   3    7.40    4.30
 -15  -3  -3    0.50    3.20
 -15   3   3    1.50    4.10
  15  -3   3    0.40    6.80
  15   3  -3    0.20    8.00
 -15  -3   3    4.40    3.40
  15  -3  -3    7.50    1.90
 -15   3  -3   -1.80    2.80
 -15  -3   3    2.20    4.80
 -15  -3   3   -4.50    4.60
  15   3   3    0.40    3.60
  15  -3  -3   -1.90    5.50
  15  -4   3   32.00   10.00
 -15  -4  -3   12.80    4.20
 -15   4   3    9.60    4.20
 -15  -4  -3   15.40    5.40
 -15  -4   3   19.00    5.90
 -15  -4   3   27.80    6.90
 -15   4  -3   19.80    3.60
  15   4   3    9.50    4.70
  15  -4  -3   23.70    6.10
  15  -5   3    0.70    2.70
 -15  -5  -3    2.60    3.40
  15  -5   3    8.00    8.30
 -15  -5   3   -0.40    4.50
 -15  -5   3    4.30    6.00
  15  -6   3   21.80    9.60
  15  -6   3   -2.90    2.80
 -15  -6   3   -3.40    7.10
 -15  -6   3   -7.60    4.00
  15  -7   3   -4.10    3.40
 -15  -7   3    4.90    8.60
 -15  -8   3   19.90   11.30
  15   0   4  452.85   36.90
 -15   0  -4  607.14   37.10
 -15   0  -4  507.85   36.70
 -15   0  -4  583.54   28.50
 -15  -1  -4   -3.60    3.20
  15   1  -4    5.70    4.90
 -15  -1  -4   -0.90    2.60
 -15  -1  -4    6.60    5.90
  15   1  -4    6.60    4.70
  15  -1   4   -1.80    5.30
  15  -1   4    2.90    3.80
  15   1  -4    1.90    2.90
 -15  -1  -4   18.90    5.50
  15   1  -4   12.40    8.00
 -15   1   4   15.50    5.50
 -15   1   4   15.70    5.90
  15   1   4    5.20    5.50
 -15   1  -4   -1.50    3.40
 -15  -1   4    1.20    5.20
  15  -1  -4    3.60    3.40
  15   1   4   -3.10    3.20
 -15   1  -4    3.60    4.10
 -15   1  -4   -3.90    3.40
 -15  -1   4    5.50    3.90
  15  -1  -4    6.10    6.50
 -15  -1   4    3.80    3.00
 -15   1  -4   -0.80    3.30
 -15  -2  -4  258.37   16.90
  15   2  -4  337.57   25.90
  15  -2  -4  326.27   23.20
 -15   2  -4  273.77   16.30
 -15  -2   4  293.77   22.90
 -15   2  -4  259.67   21.10
  15  -3   4   -2.60    6.00
 -15   3   4   10.20    5.10
 -15  -3  -4    1.90    3.40
  15  -3   4   12.50    4.80
  15   3  -4    0.90    8.00
 -15  -3   4   -0.80    3.10
  15  -3  -4    3.40    5.30
 -15  -3   4    6.40    4.90
 -15  -3   4   -1.50    5.00
  15   3   4    0.30    3.50
 -15   3  -4    3.60    3.00
 -15   4   4  446.06   31.80
  15  -4   4  478.75   33.70
 -15  -4   4  460.75   32.70
 -15   4  -4  392.86   22.20
 -15  -4   4  483.55   31.90
  15  -4  -4  442.16   30.30
  15  -5   4    9.60    9.20
 -15   5   4    0.50    3.40
  15  -5   4    5.80    8.20
  15  -5   4   -2.70    2.70
 -15  -5   4    5.70    6.10
 -15  -5   4   -3.70    4.70
 -15  -6   4  139.29   12.80
 -15  -6   4  146.49   17.50
  15  -7   4   -6.50    3.20
 -15  -7   4    2.80    8.50
 -15  -8   4  140.59   20.50
  15   0  -5   17.60    7.50
  15   0   5   22.30    6.30
 -15   0  -5    7.60    4.90
 -15   0  -5   19.30    4.50
 -15   0   5   24.20    7.00
 -15   0  -5   20.60    4.60
  15   0  -5   23.70    5.20
  15   1  -5  297.97   22.70
  15   1  -5  228.18   12.50
  15   1  -5  220.08   19.50
 -15  -1  -5  283.47   18.80
  15  -1   5  215.68   19.90
 -15   1   5  316.67   22.50
 -15  -1  -5  279.57   15.70
 -15   1  -5  271.77   15.20
  15  -1  -5  277.57   21.20
 -15  -1   5  281.47   21.60
  15   1   5  205.98   19.60
 -15   1  -5  209.98   18.90
  15  -1  -5  246.18   18.70
  15  -2   5    4.10    5.80
 -15  -2  -5   10.20    3.90
  15   2  -5   10.00    3.00
  15   2  -5    9.70    7.90
 -15  -2   5    8.60    6.00
  15  -2  -5    9.10    5.90
 -15  -2   5   18.40    4.30
 -15   2  -5   13.90    4.80
 -15   2  -5    8.00    3.60
  15   3  -5  166.78   10.30
 -15  -3  -5  194.68   13.30
  15  -3   5  250.67   17.80
  15   3  -5  200.88   20.00
 -15  -3   5  208.18   17.90
  15  -3  -5  209.58   16.60
 -15   3  -5  199.18   12.10
 -15  -3   5  227.28   16.90
  15  -4   5    6.50    6.90
 -15   4   5   26.20    6.10
  15   4  -5   13.50    3.10
 -15  -4  -5   33.00    6.90
  15  -4  -5   16.10    5.00
 -15  -4   5   19.30    5.80
 -15  -4   5   14.00    5.90
 -15   4  -5   17.70    3.70
  15  -5   5  184.88   18.80
 -15   5   5  167.38   15.60
 -15  -5   5  189.38   16.00
 -15  -5   5  199.98   17.90
  15  -6   5   -1.70    3.30
  15  -6   5   13.00    8.90
 -15  -6   5    6.40    7.10
 -15  -6   5    4.50    5.10
 -15  -7   5   97.29   15.70
 -15  -7   5   64.79    8.90
 -15  -8   5   10.00   10.70
 -15   0  -6    5.50    3.80
  15   0  -6    4.80    6.40
 -15   0  -6   -4.40    4.00
  15   0  -6   -2.70    2.60
 -15   0   6   -3.20    5.10
  15   0   6    1.10    5.00
  15   0  -6    3.40    3.90
 -15   0  -6   -2.40    2.60
 -15  -1  -6   21.60    6.50
 -15  -1  -6   37.40    5.50
  15   1  -6   34.90    8.80
  15  -1   6   29.80    6.90
  15   1  -6   35.60    4.20
 -15   1  -6   31.90    5.00
 -15  -1   6   31.80    7.70
  15   1   6   33.60    6.80
 -15   1  -6   25.80    5.80
  15  -1  -6   26.70    7.20
  15  -1  -6   22.90    4.10
  15  -1  -6   34.30    5.80
 -15   2   6   14.10    5.20
  15   2  -6   -0.20    2.50
  15   2  -6    1.00    7.30
 -15  -2  -6   -3.30    6.30
  15  -2   6    2.90    5.50
 -15  -2  -6   -0.90    3.20
  15  -2  -6   -2.20    5.10
 -15   2  -6    2.80    4.10
 -15   2  -6    0.40    3.20
 -15  -2   6   -7.90    5.20
  15  -3   6   28.40    7.80
  15   3  -6   32.90    9.30
  15   3  -6   27.50    3.80
 -15  -3   6   23.20    7.00
 -15   3  -6   32.20    4.70
  15  -3  -6   36.80    6.40
 -15  -3   6   42.80    6.20
 -15  -4  -6   20.40    6.10
 -15   4   6   11.90    5.30
  15   4  -6   -0.60    2.40
  15  -4   6   -6.50    5.70
 -15  -4   6   -3.60    5.10
 -15  -4   6    3.60    4.70
 -15   4  -6   -4.40    2.70
  15  -5   6   10.30    3.90
  15   5  -6   17.00    3.30
  15  -5   6    7.90    7.50
 -15   5   6   23.30    6.20
 -15  -5   6   23.50    7.00
 -15  -5   6   10.10    6.10
  15  -6   6   -0.60    3.30
  15  -6   6    1.40    8.00
  15  -6   6    8.30   11.40
 -15  -6   6    0.70    6.50
 -15  -6   6   -3.80    5.10
 -15  -7   6   18.00    8.90
 -15  -7   6    7.40    5.20
 -15  -8   6    1.40    9.70
  15   0  -7   15.40    3.40
 -15   0  -7   20.00    4.40
  15   0   7   16.70    5.80
 -15   0  -7    8.60    5.00
  15   0  -7   11.40    6.50
 -15   0   7   13.60    6.60
 -15  -1  -7  244.88   14.30
  15  -1   7  222.48   18.80
  15   1  -7  225.18   11.70
  15   1  -7  263.17   20.60
 -15   1  -7  239.88   14.00
 -15   1  -7  203.48   17.90
  15  -1  -7  192.58   11.90
  15  -1  -7  269.37   19.40
 -15  -1   7  254.37   20.50
  15   2  -7   25.60    3.60
  15   2  -7   22.80    8.50
  15  -2   7   30.40    7.20
 -15  -2  -7   28.10    7.80
 -15   2  -7   32.10    6.00
 -15  -2   7   16.60    7.00
 -15   2  -7   22.70    4.50
  15  -2  -7   18.60    6.00
  15  -2  -7   16.50    3.90
  15  -3   7  198.18   17.80
  15   3  -7  197.48   10.50
 -15  -3   7  215.98   18.10
 -15   3  -7  200.68   12.00
  15  -3  -7  208.38   16.00
  15   4  -7   14.10    3.20
  15  -4   7    5.80    6.50
 -15  -4   7    8.20    6.20
 -15  -4   7   25.30    6.10
  15   5  -7  129.09    8.10
 -15  -5   7  151.88   15.20
 -15  -5   7  132.89   13.90
  15  -6   7    1.50    7.90
  15  -6   7   24.60   12.30
 -15  -6   7    6.50    5.90
 -15  -6   7   19.70    7.90
 -15  -7   7  104.19   16.20
 -15  -8   7    0.60    9.70
  15   0   8  455.35   32.60
  15   0  -8  431.06   20.70
  15   0  -8  517.85   33.50
  15   1  -8   54.99    9.80
  15   1  -8   72.19    5.80
  15  -1   8   76.89    9.80
  15  -1  -8   53.99    5.80
 -15   1  -8   56.89    8.60
 -15   1  -8   76.19    7.10
 -15  -1   8   64.29   11.20
  15  -1  -8   59.69    9.80
 -15  -2  -8  164.18   15.90
  15   2  -8  180.78   17.20
  15  -2   8  165.98   15.40
  15   2  -8  175.48    9.40
 -15  -2   8  179.78   16.60
 -15   2  -8  173.78   11.00
  15  -2  -8  179.18   14.70
  15  -2  -8  145.39    9.90
 -15   2  -8  164.18   14.50
  15   3  -8   51.89    5.20
  15  -3   8   57.69   10.00
  15  -3  -8   38.60    5.50
 -15   3  -8   51.69    5.80
 -15  -3   8   38.20    8.40
  15  -3  -8   54.99    7.90
  15  -4   8  252.37   22.50
  15   4  -8  284.17   13.50
 -15  -4   8  306.67   22.80
  15  -5   8   13.40    7.80
  15   5  -8   30.50    4.00
 -15  -5   8   33.40    7.80
 -15  -5   8   25.10    7.40
 -15  -6   8   70.59   11.20
 -15  -6   8   94.39   13.90
 -15  -7   8   24.20    9.50
 -15   0  -9   24.70    6.30
  15   0  -9   23.40    7.40
  15   0  -9   27.60    4.00
  15   1  -9    0.70    2.60
  15   1  -9   -4.30    6.20
  15  -1   9    1.90    5.50
 -15  -1  -9   -7.60    4.40
  15  -1  -9    3.00    2.90
 -15  -1   9   -8.50    5.50
 -15   1  -9    4.20    4.80
  15  -1  -9   -6.50    5.20
  15   2  -9   75.49   12.00
  15   2  -9   66.69    5.80
  15  -2   9   73.09   10.40
 -15  -2  -9   57.69    9.50
  15  -2  -9   60.99    9.40
 -15   2  -9   73.59    9.40
  15  -2  -9   61.19    6.50
 -15  -2   9   73.39   11.40
  15   3  -9    3.40    2.70
  15  -3   9    1.90    6.10
 -15  -3   9   -5.20    5.90
  15  -3  -9    1.70    4.60
  15  -3  -9   -7.70    3.30
  15  -4   9   27.80    8.40
  15   4  -9   19.00    3.50
 -15  -4   9   12.40    7.20
  15   5  -9    0.00    2.90
  15  -5   9   -1.40    7.00
 -15  -5   9   -2.50    6.30
  15  -6   9    8.10    7.90
 -15  -6   9   22.60    7.50
  15   0 -10  230.98   17.90
  15   0 -10  212.98   10.90
 -15   0 -10  160.48   16.30
  15   1 -10   27.90    3.90
  15   1 -10   19.10    7.70
 -15  -1 -10   12.10    5.90
  15  -1 -10   22.40    4.00
  15  -1 -10   17.50    6.60
 -15   1 -10   28.30    6.60
  15   2 -10  319.97   14.70
  15  -2  10  314.67   23.80
  15   2 -10  313.97   24.90
 -15  -2  10  325.67   25.00
 -15   2 -10  290.67   22.90
  15  -2 -10  278.77   15.20
  15  -2 -10  304.77   22.60
 -15  -3 -10   41.90    9.80
  15   3 -10   24.40    3.80
  15  -3  10   30.80    8.10
 -15  -3  10    8.50    7.20
  15  -3 -10   18.80    4.60
  15  -3 -10   12.50    5.30
  15  -4  10  144.09   15.20
  15   4 -10  155.68    8.70
 -15  -4  10  141.39   15.30
  15  -4 -10  105.99    9.70
  15  -5  10    8.70    7.80
  15   5 -10   15.50    3.70
 -15  -5  10    3.90    7.00
  15  -7  10   12.90   14.90
  15   0 -11   27.80    7.80
 -15   0 -11   31.80    7.00
  15   0 -11   31.50    4.30
  15   1 -11  109.29    7.40
  15   1 -11  103.19   13.30
  15  -1 -11  105.09   12.00
  15  -1 -11  101.09    7.50
 -15   1 -11  113.39   11.90
  15   2 -11   44.40    9.50
  15   2 -11   37.60    4.40
  15  -2  11   40.80    8.40
 -15   2 -11   37.70    7.50
  15  -2 -11   38.80    7.30
  15  -2 -11   34.30    4.90
  15  -3  11  111.29   13.20
  15   3 -11  104.89    7.50
 -15  -3 -11  147.29   15.40
 -15  -3  11  101.59   14.30
  15  -3 -11   94.49    8.40
  15  -3 -11  106.69   11.00
  15   4 -11   29.70    4.20
  15  -4  11   37.30    9.00
 -15  -4  11   18.60    8.30
  15  -4 -11   23.40    5.30
  15  -5  11   50.09   10.60
  15   5 -11   49.00    5.10
 -15  -5  11   37.60    9.50
  15   0 -12   -9.50    6.10
 -15   0 -12    2.00    5.40
  15   0 -12    1.60    3.10
  15   1 -12   63.69    5.90
  15   1 -12   54.59    9.90
 -15  -1 -12   38.80    8.20
 -15   1 -12   59.09    9.50
  15  -1 -12   69.79    6.50
  15  -1 -12   51.69    8.80
 -15  -2 -12  -11.50    5.50
  15   2 -12   -9.30    6.90
  15   2 -12    2.50    3.00
  15  -2 -12   -5.20    5.40
  15  -2 -12    5.60    3.60
 -15   2 -12   -1.90    5.60
  15  -3  12   46.70    9.60
 -15  -3 -12   66.09   11.20
  15   3 -12   44.00    4.80
 -15  -3  12   36.70    9.60
  15  -3 -12   42.50    7.30
  15  -3 -12   37.30    5.50
  15  -4  12   -1.00    7.30
  15   4 -12    0.20    3.20
 -15  -4  12   -5.90    7.00
  15  -4 -12   -2.60    4.10
  15   5 -12   36.40    4.80
 -15   0 -13   25.00    7.20
  15   0 -13   18.90    7.80
  15   0 -13   31.90    4.60
  15   1 -13   89.69   12.90
  15   1 -13   94.29    7.40
  15  -1 -13  100.69    7.70
 -15   1 -13   89.99   11.60
  15  -1 -13   90.89   11.90
  15   2 -13   19.20    8.70
  15   2 -13   21.80    4.10
 -15  -2 -13    5.10    6.40
  15  -2 -13   26.10    7.20
  15  -2 -13   28.20    4.80
  15   3 -13   71.69    6.60
  15  -3 -13   73.29    7.50
  15  -4  13   13.70    8.20
  15   4 -13   25.30    4.20
 -15  -4  13    8.60    8.40
  15  -4 -13   22.70    5.40
  15   5 -13   51.49    5.50
  15  -5 -13   52.79    7.20
 -15   0 -14   43.10    8.80
  15   0 -14   59.39    6.50
  15   0 -14   52.59    9.60
  15   1 -14   44.20    5.30
  15   1 -14   36.90    9.30
 -15   1 -14   44.00    8.80
  15  -1 -14   59.99    6.60
  15   2 -14  113.79    8.10
  15   2 -14  120.39   15.10
  15  -2 -14  102.19    8.70
  15   3 -14   46.90    5.30
  15  -3 -14   30.00    5.50
  15   4 -14   32.70    4.70
  15  -4 -14   32.00    5.80
  15   0 -15   37.70    5.30
  15   1 -15    2.20    3.60
  15  -1 -15   -0.10    3.70
  15   2 -15   24.90    4.70
  15  -2 -15   32.70    5.40
  15   3 -15   -3.90    3.30
  15  -3 -15    2.00    4.20
 -16   0   0  942.71   63.09
  16   0   0  834.02   64.29
 -16   0   0  980.80   62.99
 -16   0   0 1028.40   63.09
 -16   1   0   40.00    7.50
 -16  -1   0   64.69    8.50
  16  -1   0   55.99   11.90
  16  -1   0   63.39    9.40
 -16   1   0   41.80    8.50
 -16  -1   0   39.90    6.90
  16   1   0   52.79   11.30
  16   1   0   37.10    7.90
 -16  -2   0  695.93   45.40
  16  -2   0  592.14   43.70
 -16   2   0  576.94   44.10
 -16  -2   0  718.23   44.20
  16   2   0  692.43   47.80
 -16  -3   0   29.20    7.40
 -16  -3   0   33.50    5.50
 -16   4   0  504.75   26.50
  16  -4   0  545.35   38.50
  16  -5   0   11.20    6.90
 -16  -5   0   -1.50    4.40
 -16  -6   0  206.58   23.10
 -16  -7   0   12.10   11.60
 -16  -8   0  135.69   22.20
 -16   0  -1   29.00    6.60
  16   0  -1   29.70    7.00
  16   0  -1   38.90   10.80
  16   0   1   22.00    6.30
 -16   0  -1   22.20    5.70
 -16   0  -1   34.10    7.90
 -16   0   1   20.90    5.20
  16   0   1   27.40    9.40
 -16   1   1  452.65   29.80
  16  -1   1  339.17   28.30
 -16   1   1  431.96   28.90
 -16  -1  -1  438.06   28.60
  16   1  -1  422.06   32.30
 -16  -1  -1  373.26   27.80
  16  -1   1  375.16   30.80
  16  -1  -1  449.66   32.30
  16   1   1  344.37   30.70
 -16  -1   1  445.36   29.90
 -16   1  -1  318.77   27.70
 -16  -1   1  377.46   28.20
  16  -1  -1  332.77   27.90
  16  -2   1   12.50    5.30
 -16   2   1    4.30    6.00
  16  -2   1   10.50    8.60
 -16  -2  -1   13.80    4.10
  16   2  -1   23.60   10.00
 -16  -2  -1   22.90    7.20
 -16  -2   1    1.70    4.00
  16  -2  -1   14.10    4.10
  16  -2  -1   29.20    9.50
 -16  -2   1   13.60    6.10
 -16  -2   1    9.10    3.80
  16   2   1   10.80    9.00
 -16   3   1  121.59   12.40
 -16  -3   1  157.68   12.30
 -16  -3   1  149.49   14.50
  16  -4   1   33.00   10.70
 -16   4  -1   23.70    4.00
  16  -4  -1   22.10    8.50
  16  -5   1   80.89    7.10
 -16  -5  -1   85.39    9.90
 -16  -5   1   87.19   14.50
 -16  -5   1   94.39   10.40
  16  -5  -1   84.99   11.10
 -16  -6   1   -9.20    7.90
 -16  -6   1   -0.30    4.10
 -16  -7   1   83.49   15.50
 -16  -8   1    7.60   11.80
 -16   0   2  390.36   26.30
 -16   0   2  406.06   27.70
 -16   0  -2  357.66   25.90
 -16   0  -2  324.97   19.70
 -16   0  -2  344.27   25.60
 -16   0  -2  311.37   26.10
  16   0  -2  398.66   30.00
  16   0  -2  266.77   25.50
 -16   1   2   32.50    6.70
  16  -1   2   24.10    8.70
 -16  -1  -2   36.90    5.50
  16  -1   2   25.30    6.50
  16   1  -2   44.90   10.80
 -16  -1  -2   44.10    8.50
 -16  -1  -2   29.40    6.10
  16  -1  -2   21.00    5.60
 -16  -1   2   28.50    5.60
 -16   1  -2   32.40    5.40
  16  -1  -2   35.50   10.40
 -16   1  -2   12.40    5.80
  16   1   2   26.10    8.30
 -16   2   2  717.93   47.70
  16   2  -2  767.42   51.29
  16  -2   2  676.53   47.40
 -16  -2  -2  707.43   35.90
  16  -2   2  686.63   49.00
 -16  -2  -2  649.74   46.60
  16  -2  -2  711.93   49.30
  16  -3   2   30.00   10.10
 -16  -3  -2   28.40    4.90
 -16   3   2    9.50    4.80
 -16  -3   2    9.80    3.80
 -16  -3   2    6.60    5.40
 -16   3  -2   17.70    4.00
  16  -3  -2    6.40    7.10
 -16  -4  -2   83.99   10.60
  16  -4   2   87.69    7.20
 -16   4   2   63.29    8.70
  16  -4  -2  105.99   12.20
 -16  -4   2  108.69   11.40
 -16  -4   2  115.09   13.40
 -16   4  -2   72.79    6.70
  16  -5   2   29.40   10.30
 -16  -5   2    5.00    5.20
 -16  -5   2   18.80    8.30
 -16  -6   2  177.48   19.70
 -16  -6   2  171.68   14.40
 -16  -7   2    5.20    9.50
 -16  -8   2   29.60   12.80
  16   0   3   16.60    7.50
 -16   0  -3   32.10    5.50
 -16   0  -3   36.90    7.40
  16   0  -3   46.10   10.70
 -16   0  -3   23.70    5.50
  16   0  -3   44.80    7.80
 -16  -1  -3  491.65   24.50
  16  -1   3  393.96   31.90
 -16  -1  -3  409.56   30.10
  16  -1  -3  511.25   34.30
  16   1   3  366.26   31.60
 -16  -1   3  488.85   32.70
 -16   1  -3  402.56   23.50
  16  -2   3   39.30    7.40
 -16  -2  -3   37.40    5.70
  16   2  -3   40.50   10.70
  16  -2   3   26.90    9.00
 -16   2   3   57.79    8.70
  16   2   3   27.90    8.30
 -16  -2   3   50.69    7.80
  16  -2  -3   18.40    8.10
 -16  -3  -3  351.46   19.80
 -16  -3   3  361.16   25.40
 -16  -3   3  313.57   25.50
  16  -3  -3  325.57   26.00
 -16   4   3    6.80    4.30
 -16  -4  -3   12.90    5.90
  16  -4   3   35.20   10.80
 -16   4  -3   12.40    3.40
 -16  -4   3   17.00    7.00
  16  -4  -3    5.70    5.80
 -16  -4   3   10.00    5.80
  16  -5   3  183.38   13.60
 -16  -5  -3  236.48   18.10
 -16  -5   3  259.07   19.30
 -16  -5   3  280.57   22.10
  16  -6   3    8.40    3.60
  16  -6   3   37.80   10.40
 -16  -6   3   16.40    9.00
 -16  -6   3    3.90    4.90
 -16  -7   3  186.98   21.60
 -16  -8   3   11.90   11.40
 -16   0  -4  415.66   29.70
  16   0  -4  476.85   33.10
 -16   0  -4  354.26   22.70
 -16   0  -4  430.66   30.10
  16   1  -4   14.70    9.00
 -16  -1  -4   28.70    7.50
 -16  -1  -4   12.90    4.50
 -16  -1  -4    9.90    3.70
  16  -1   4    5.00    6.20
 -16   1  -4   10.10    4.30
  16   1   4   -1.60    6.00
  16  -1  -4    8.10    3.90
 -16   1  -4    7.30    4.70
 -16  -1   4   16.60    6.60
  16  -1  -4   15.10    7.90
  16  -2   4  153.58   16.00
 -16  -2  -4  142.39   11.40
  16   2  -4  182.88   18.80
 -16   2  -4  139.39   10.60
 -16   2  -4  136.29   13.50
 -16  -2   4  169.48   15.70
  16  -2  -4  190.28   16.60
  16  -3   4    9.60    7.30
 -16   3   4   28.90    6.50
 -16  -3  -4   12.70    4.20
 -16  -3   4   17.60    5.80
 -16   3  -4    9.90    3.60
 -16  -3   4    9.30    6.10
  16  -3  -4    9.20    6.20
 -16   4   4  325.47   23.00
  16  -4   4  335.17   25.50
 -16  -4  -4  258.07   22.30
 -16  -4   4  314.47   23.70
  16  -4  -4  267.67   21.50
 -16  -4   4  278.97   22.80
  16  -5   4   16.20    9.10
  16  -5   4    2.20    3.20
 -16   5   4    1.70    4.10
 -16  -5   4    5.10    5.60
 -16  -5   4    8.70    7.50
 -16  -6   4   63.59    9.50
 -16  -6   4   76.09   12.20
 -16  -7   4   10.30    9.60
 -16  -8   4   70.19   14.20
  16   0  -5   -0.50    7.00
 -16   0  -5   -8.20    4.20
 -16   0   5    3.20    5.50
 -16   0  -5    2.50    3.60
  16   0   5    3.20    5.30
  16  -1   5  101.99   13.00
  16   1  -5  163.78   16.70
 -16  -1  -5  131.59   10.30
 -16  -1  -5  139.59   11.30
 -16  -1   5  132.39   14.20
 -16   1  -5  129.29    9.80
 -16   1  -5   99.29   11.60
  16  -1  -5  156.78   15.00
  16   1   5   92.29   12.60
 -16  -2  -5   23.30    8.00
 -16  -2  -5   10.90    4.10
  16   2  -5   11.90    8.50
  16  -2   5   -2.40    5.80
 -16   2  -5    6.70    4.60
 -16   2  -5    3.60    3.50
  16  -2  -5   10.20    6.40
 -16  -2   5    6.20    6.20
  16  -3   5   57.69   10.60
 -16  -3   5   98.29   11.70
 -16   3  -5   80.99    7.20
  16  -3  -5   85.79   10.70
  16  -4   5   -5.50    6.70
 -16  -4   5    3.60    5.90
 -16   4  -5    0.70    3.00
  16  -4  -5    2.60    4.70
 -16  -4   5   -5.40    5.30
  16  -5   5   98.09   15.20
 -16  -5   5  103.59   13.70
 -16  -5   5   79.59   11.50
  16  -6   5   -0.80    3.50
  16  -6   5   15.00    9.10
 -16  -6   5   12.50    7.60
 -16  -6   5   -1.50    5.20
 -16  -7   5   23.70    9.90
 -16  -8   5   -1.20   10.20
 -16   0   6  288.97   23.30
  16   0  -6  245.78   13.60
 -16   0  -6  306.17   16.80
  16   0   6  262.57   21.60
 -16  -1  -6   20.30    6.80
  16  -1   6   23.00    6.90
  16   1  -6   18.00    8.50
 -16  -1  -6   18.50    4.60
  16   1  -6   28.90    4.00
  16  -1  -6   14.40    7.10
 -16   1  -6   20.80    4.60
 -16   1  -6   17.20    5.50
  16  -1  -6   11.90    4.00
 -16  -1   6   21.30    7.30
  16   2  -6  280.07   14.20
  16   2  -6  342.17   26.20
  16  -2   6  250.57   22.90
 -16   2  -6  279.17   22.00
  16  -2  -6  335.47   23.20
 -16   2  -6  291.37   16.80
 -16  -2   6  309.97   24.10
  16   3  -6    9.30    3.00
  16  -3   6    5.50    6.50
 -16   3  -6    7.90    3.70
  16  -3  -6    7.60    5.40
 -16  -3   6    1.00    6.00
  16   4  -6  196.28   11.20
 -16  -4   6  246.38   19.50
 -16   4  -6  222.58   12.70
  16  -4  -6  227.28   16.90
  16  -5   6    8.40    8.00
  16  -5   6   11.10    4.10
 -16  -5   6   11.70    6.60
 -16  -5   6   28.10    7.20
  16  -6   6  194.58   20.30
 -16  -6   6  175.38   16.60
 -16  -6   6  202.48   19.70
 -16  -7   6    3.40    9.00
 -16  -8   6  120.39   19.80
  16   0   7    5.30    5.80
 -16   0   7    1.30    5.90
  16   0  -7    3.90    3.10
  16   0  -7   -1.80    6.60
 -16   0  -7   -4.50    4.40
  16  -1   7  100.29   11.70
  16   1  -7  101.99   13.80
  16   1  -7   86.69    6.90
 -16   1  -7  101.79    8.40
 -16   1  -7   79.29   10.20
  16  -1  -7   83.09    7.20
 -16  -1   7   95.09   12.90
  16  -1  -7  101.39   12.40
  16   2  -7    3.30    7.90
  16   2  -7    7.40    3.00
 -16  -2  -7   11.60    7.50
  16  -2   7    7.40    6.20
 -16  -2   7    4.30    6.40
 -16   2  -7    3.40    3.80
  16  -2  -7    3.60    5.70
 -16   2  -7    9.70    5.00
  16  -3   7   67.89   11.30
  16   3  -7   64.79    6.10
 -16  -3   7   75.89   11.60
  16  -3  -7   77.39    9.60
 -16   3  -7   73.39    6.80
  16  -4   7   -6.60    6.30
  16   4  -7    3.00    2.90
  16  -4  -7   -3.30    4.40
 -16  -4   7   -9.10    5.60
 -16   4  -7    0.60    3.30
  16  -5   7   29.30    9.70
 -16  -5   7   48.00    9.10
  16  -6   7    3.50    8.10
 -16  -6   7   -5.10    5.80
 -16  -7   7   27.70    9.80
  16   0  -8  171.08    9.70
 -16   0  -8  128.59   14.10
  16   0  -8  201.68   16.90
  16  -1   8    3.00    5.80
 -16  -1  -8   -7.70    4.80
  16   1  -8    9.10    3.20
  16   1  -8    4.10    7.40
  16  -1  -8    2.60    3.10
  16  -1  -8    2.40    6.20
 -16  -1   8    2.50    6.40
 -16   1  -8    8.20    5.10
  16  -2   8   44.20    8.50
 -16  -2  -8   51.19    9.30
  16   2  -8   40.40    4.50
  16   2  -8   41.90   10.00
 -16   2  -8   40.60    7.20
 -16  -2   8   48.70    9.40
  16  -2  -8   41.20    7.70
  16  -2  -8   33.90    5.20
 -16  -3  -8   22.20    8.50
  16   3  -8    6.10    3.00
  16  -3   8    3.20    6.40
  16  -3  -8   -0.80    4.90
 -16  -3   8   -3.20    6.10
  16  -4   8   97.79   13.50
  16   4  -8  109.09    7.50
 -16  -4   8  115.59   13.90
  16  -5   8    0.80    7.20
  16   5  -8    6.80    3.20
 -16  -5   8   -0.10    6.50
  16  -6   8    3.80    8.10
 -16  -6   8    3.40    6.60
  16   0  -9   11.70    3.40
 -16   0  -9    7.70    5.40
  16   0  -9    9.00    7.20
  16   1  -9  192.28   10.70
  16   1  -9  231.68   19.20
  16  -1   9  213.58   17.60
  16  -1  -9  179.58   11.00
 -16   1  -9  160.78   16.20
  16  -1  -9  210.38   17.60
  16   2  -9   10.50    8.20
  16   2  -9   14.00    3.50
  16  -2   9   17.30    7.00
 -16  -2  -9   -1.20    6.80
  16  -2  -9    8.50    3.80
 -16   2  -9    9.60    5.50
 -16  -2   9    4.90    7.10
  16  -2  -9    2.20    5.70
  16  -3   9  165.28   16.60
  16   3  -9  180.38    9.90
  16  -3  -9  179.58   14.70
 -16  -3   9  196.08   17.90
  16  -3  -9  135.09   10.50
  16  -4   9    7.30    7.30
  16   4  -9   16.50    3.50
 -16  -4   9    2.00    7.00
  16  -5   9  102.19   14.80
  16   5  -9  122.79    8.00
 -16  -5   9  126.29   14.60
  16   0 -10   76.59   11.70
 -16   0 -10   51.09    9.20
  16   0 -10   66.49    6.30
 -16  -1 -10   -1.40    5.20
  16   1 -10    3.80    7.30
  16   1 -10    8.00    3.30
  16  -1 -10    2.50    6.20
 -16   1 -10   12.90    5.80
  16  -1 -10    8.50    3.60
 -16  -2 -10  101.69   13.80
  16  -2  10  147.59   14.40
  16   2 -10  129.99    8.30
  16   2 -10  139.69   16.00
 -16  -2  10  139.79   15.60
  16  -2 -10  117.39    8.90
  16  -2 -10  122.29   13.00
 -16   2 -10  126.99   13.00
  16  -3  10    8.70    7.00
 -16  -3 -10   13.80    8.70
  16   3 -10    6.70    3.20
  16  -3 -10   11.40    4.30
  16  -3 -10    0.70    5.10
 -16  -3  10   -5.30    6.70
  16  -4  10   43.40    9.90
  16   4 -10   40.30    4.80
 -16  -4  10   34.80    9.30
  16   5 -10    6.50    3.40
  16  -5  10    0.40    7.70
 -16  -5  10   -6.00    7.00
  16   0 -11    6.90    3.40
  16   0 -11   -4.50    6.70
 -16   0 -11    5.20    5.60
  16   1 -11   12.40    7.80
 -16  -1 -11    1.60    5.50
  16   1 -11   12.20    3.60
  16  -1 -11    6.50    6.60
  16  -1 -11   12.80    3.80
 -16   1 -11   17.10    6.20
  16   2 -11    3.70    3.10
  16   2 -11   -2.80    7.80
 -16  -2 -11   -7.40    6.20
  16  -2 -11   -3.80    5.60
  16  -2 -11   -0.90    3.50
  16   3 -11   20.40    4.00
 -16  -3 -11   30.50    9.70
  16  -3  11   20.30    8.40
 -16  -3  11    9.90    7.90
  16  -3 -11   19.20    4.80
  16  -3 -11   13.90    5.90
  16  -4  11    0.60    7.40
  16   4 -11    3.30    3.30
 -16  -4  11   -2.90    7.40
  16   5 -11    4.00    3.50
 -16   0 -12   84.79   11.60
  16   0 -12  106.29    7.90
  16   0 -12  114.89   13.40
  16   1 -12    9.10    3.60
 -16  -1 -12   -2.50    5.50
  16   1 -12    0.50    7.60
  16  -1 -12   -0.50    6.50
 -16   1 -12    6.20    6.00
  16  -1 -12    6.50    3.60
  16   2 -12  104.69    7.70
  16   2 -12  106.39   14.70
  16  -2 -12   91.69    8.00
  16  -2 -12   90.69   11.80
  16  -3  12    4.50    7.70
  16   3 -12    9.90    3.60
  16  -3 -12    6.70    4.20
  16  -4  12   80.69   13.40
  16   4 -12   95.89    7.40
  16  -4 -12   67.09    7.80
 -16  -4  12   81.59   14.00
  16   5 -12    3.40    3.60
  16   0 -13    2.30    3.50
 -16   0 -13   -0.20    6.00
  16   0 -13   -5.40    7.00
  16   1 -13    3.60    7.90
 -16  -1 -13   -2.10    5.90
  16   1 -13    3.40    3.50
 -16   1 -13    4.50    6.20
  16  -1 -13    8.00    3.90
  16  -1 -13   -3.50    6.60
  16   2 -13    3.00    3.40
  16  -2 -13    1.10    3.70
  16   3 -13    4.00    3.50
  16  -3 -13    4.20    4.20
  16   4 -13    2.70    3.60
  16  -4 -13    2.40    4.50
  16   0 -14    4.80    3.80
  16   1 -14   -2.20    7.90
  16   1 -14    4.00    3.70
 -16   1 -14   -2.50    6.20
  16  -1 -14   -0.10    3.70
  16   2 -14   10.00    4.00
  16  -2 -14   12.90    4.60
  16   3 -14   -0.30    3.50
  16  -3 -14    1.10    4.40
  16   0 -15    4.10    4.10
  16   1 -15   44.70    5.70
  16  -1 -15   41.60    5.90
 -17   0   0   21.00    7.10
  17   0   0   15.30    9.40
 -17   1   0    4.60    6.10
  17  -1   0   13.70    9.20
  17   1   0   16.60    9.30
 -17  -1   0   25.60    7.40
  17  -2   0    9.90    4.70
  17  -2   0   21.50   10.10
  17   2   0   17.10    9.80
 -17  -3   0    3.80    5.70
  17  -3   0   18.70   10.20
  17  -4   0   12.70    8.40
  17  -4   0    1.10    2.40
 -17  -4   0    2.90    5.10
  17  -5   0   23.30    8.50
 -17  -5   0   -1.30    4.60
 -17  -6   0   -0.90    4.00
 -17   0  -1   81.19   12.50
  17   0   1   64.89   12.80
 -17   0   1  104.09   13.20
  17   0  -1  114.09   16.50
 -17  -1  -1   94.49   10.90
 -17   1   1  120.49   14.20
  17   1  -1  140.39   17.60
  17  -1   1  109.89   16.20
  17   1   1   98.19   15.80
  17  -1  -1  143.99   17.50
  17  -1  -1   99.99   11.50
 -17   1  -1   88.89   12.90
  17  -2   1   88.99   10.50
  17  -2   1  104.39   15.80
  17   2  -1   98.79   16.40
  17  -2  -1  120.79   16.30
 -17  -2   1   86.89   10.10
  17   2   1   94.19   16.00
  17  -2  -1   69.19    9.30
 -17  -2   1  105.89   12.60
  17  -3   1   98.19   16.30
 -17  -3  -1   93.89   12.30
 -17   3  -1   97.49    8.20
  17  -3  -1  111.79   15.60
  17  -4   1   62.79   12.50
 -17   4  -1   56.59    5.90
  17  -4  -1   77.19   12.90
 -17  -5  -1   22.90    6.30
  17  -5  -1   11.80    6.40
 -17  -5   1   20.50    6.10
 -17  -6   1   14.90    5.20
 -17  -6   1   28.20   11.40
 -17  -7   1   13.00   11.60
 -17  -8   1    2.70   11.90
  17   0   2   88.49   14.30
 -17   0  -2  119.49    9.60
 -17   0  -2   96.09   13.30
  17  -1   2  144.49   17.30
 -17  -1  -2  176.68   11.70
 -17  -1  -2  126.09   13.00
  17   1  -2  200.18   20.20
 -17  -1  -2  192.18   16.80
  17  -1  -2  128.89   13.30
 -17   1  -2  176.38   11.60
 -17   1  -2  112.89   13.90
  17   1   2  125.19   16.60
 -17  -2  -2   62.39    7.60
  17  -2   2   43.80   10.90
  17   2  -2   48.30   11.80
 -17  -2  -2   60.09    7.10
 -17   2  -2   55.59    6.70
 -17  -2   2   30.90    6.40
 -17  -2   2   35.10    8.00
  17  -2  -2   46.00   11.10
  17  -3   2  150.88   17.70
  17  -3  -2  131.79   16.00
 -17   3  -2  108.59    9.00
  17  -4   2   18.50    4.00
 -17  -4  -2   31.90    7.20
  17  -4  -2   38.80    8.70
 -17  -4   2   44.40    9.70
 -17   4  -2   29.80    4.40
 -17  -4   2   31.80    7.60
  17  -5   2   20.30    4.30
 -17  -5  -2   32.10    6.70
 -17  -5   2   55.29   10.30
  17  -5  -2   36.60    7.20
 -17  -5   2   36.80    7.50
 -17  -6   2   11.60    9.00
 -17  -6   2    4.60    4.90
 -17  -7   2   57.09   13.30
 -17  -8   2   15.10   12.00
  17   0   3   19.20    8.00
  17   0  -3   50.79   11.50
 -17   0  -3   33.30    5.60
 -17   0  -3   26.90    7.40
 -17   1   3   22.70    6.80
  17   1  -3   13.90    9.40
  17  -1   3    3.50    7.00
 -17  -1  -3    9.20    4.10
 -17  -1  -3   11.20    7.10
  17  -1  -3   11.90    8.40
 -17   1  -3   -1.50    4.90
  17   1   3    5.80    7.20
 -17  -1   3   21.20    6.70
  17  -1  -3    8.20    4.10
  17   2  -3   43.50   11.10
  17  -2   3   23.00    8.90
 -17  -2  -3   25.50    5.00
 -17   2  -3    7.60    4.90
 -17   2  -3   17.90    4.40
 -17  -2   3   12.50    6.50
  17  -2  -3   20.90    9.10
  17  -3   3    4.00    7.80
 -17  -3   3    2.70    5.30
  17  -3  -3    6.90    6.90
 -17   3  -3    6.70    3.50
  17  -4   3   28.70   10.90
 -17  -4  -3   21.20    6.50
 -17  -4   3    7.70    6.10
 -17   4  -3   10.30    3.20
  17  -4  -3   11.60    6.40
 -17  -4   3    8.50    7.00
  17  -5   3   20.30   11.00
 -17  -5  -3    0.00    4.20
  17  -5   3   -4.50    2.60
 -17  -5   3   -0.80    5.30
 -17  -5   3   -4.20    6.70
 -17  -6   3    0.10    5.10
 -17  -6   3    8.30    8.60
 -17  -7   3   -1.60    9.20
 -17  -8   3   -3.00   10.30
  17   0   4    5.30    6.60
 -17   0  -4    9.50    6.10
 -17   0  -4   12.10    4.50
  17   0  -4   14.70    8.70
  17   1  -4   29.00   10.10
 -17  -1  -4    8.60    3.90
 -17  -1  -4   15.50    4.70
  17  -1   4   11.80    7.10
  17   1   4   16.00    6.90
  17  -1  -4    7.10    3.90
 -17   1  -4    8.00    5.10
 -17  -1   4   23.90    7.10
 -17   1  -4   13.40    4.40
  17  -1  -4   14.70    8.30
  17  -2   4   20.70    8.00
 -17  -2   4   28.40    7.50
 -17   2  -4   15.50    5.40
  17  -2  -4   25.40    8.20
 -17   2  -4   22.40    4.70
  17  -3   4    1.90    7.50
 -17  -3   4    7.10    5.90
  17  -3  -4    5.90    6.40
 -17   3  -4    7.60    3.60
  17  -4   4   13.30    8.60
  17  -4  -4    3.90    5.50
 -17  -4   4    7.20    6.00
 -17   4  -4    7.80    3.40
 -17  -5  -4   12.30    5.30
  17  -5   4   27.60   11.40
 -17  -5   4    4.90    6.00
 -17  -5   4   21.50    8.10
  17  -6   4    6.90    3.80
 -17  -6   4   20.00    9.40
 -17  -6   4   11.10    5.90
 -17  -7   4    1.60    9.20
 -17  -8   4   11.00   11.60
 -17   0  -5  119.79   10.10
  17   0   5   87.39   12.80
 -17   0  -5  119.99   12.70
  17   0  -5  159.28   16.50
  17  -1   5   28.90    8.00
 -17  -1  -5   73.29   11.10
  17   1  -5   48.20   10.90
 -17   1  -5   24.40    6.40
 -17   1  -5   40.70    5.90
  17  -1  -5   48.60    9.90
 -17  -1   5   45.70    8.90
  17   2  -5  121.99   16.10
  17  -2   5   65.79   12.00
 -17  -2   5   90.49   12.20
  17  -2  -5  115.19   13.20
 -17   2  -5   85.79    8.10
 -17   2  -5   81.29   10.10
  17  -3   5   41.80    9.70
 -17   3  -5   35.70    5.20
  17  -3  -5   37.20    8.10
 -17  -3   5   43.60    8.80
  17  -4   5  107.89   15.00
 -17  -4   5   93.59   12.60
 -17   4  -5   87.79    7.60
  17  -4  -5  102.09   11.00
  17  -5   5   10.40    3.90
  17  -5   5   39.50   11.30
 -17  -5   5   22.80    7.20
 -17  -6   5   43.80    8.50
 -17   0  -6   -9.70    4.50
  17   0   6   -2.50    5.60
 -17   0   6   -2.90    5.30
  17   0  -6   -6.90    7.50
  17   1  -6   49.00   10.80
 -17  -1  -6   59.19    9.20
  17  -1   6   36.10    8.30
 -17   1  -6   28.70    6.70
  17  -1  -6   45.90    9.50
 -17  -1   6   45.50    9.10
  17   2  -6   -2.30    2.70
  17  -2   6   -2.50    5.90
 -17  -2  -6   10.20    7.60
  17   2  -6   10.00    8.90
 -17  -2   6    1.90    6.00
 -17   2  -6    2.00    3.60
  17  -2  -6   -2.10    6.20
 -17   2  -6    5.70    4.70
  17  -3   6   17.40    7.80
 -17  -3   6   38.70    8.80
 -17   3  -6   34.30    5.20
  17  -3  -6   35.60    7.70
  17  -4   6   -3.90    7.00
 -17  -4   6   -1.80    6.00
 -17   4  -6    2.80    3.30
  17  -4  -6   -2.00    4.90
  17  -5   6    2.80    3.70
  17  -5   6   17.80    9.00
 -17  -5   6   14.30    7.00
  17  -6   6    3.20    9.00
 -17  -6   6   -5.40    5.80
  17   0  -7    2.20    3.20
 -17   0  -7   -6.00    4.50
  17   0  -7   -3.20    7.30
 -17  -1  -7   29.30    7.60
  17   1  -7   24.60    9.30
  17   1  -7   26.80    4.20
  17  -1   7   30.70    7.80
 -17   1  -7   18.70    6.00
 -17  -1   7   32.60    8.20
  17  -1  -7   21.30    7.90
  17   2  -7    1.10    8.20
 -17  -2  -7   -0.90    7.20
  17   2  -7    0.60    2.90
  17  -2   7   -5.10    6.00
  17  -2  -7   -4.70    5.90
 -17  -2   7   -8.50    6.00
 -17   2  -7    0.30    4.60
  17  -3   7   14.40    7.50
  17   3  -7   22.90    3.90
  17  -3  -7   27.50    7.00
 -17  -3   7   22.50    8.00
  17  -4   7   -6.40    6.60
 -17  -4   7   -6.40    6.10
  17  -4  -7   -2.50    4.80
  17  -5   7    5.90    8.10
 -17  -5   7   11.10    7.20
  17   0  -8    9.30    7.70
  17   0  -8   18.40    4.00
 -17   0  -8    6.00    5.40
  17   1  -8  128.89    8.40
  17  -1   8  144.69   14.20
 -17  -1  -8   96.99   12.90
  17  -1  -8  148.39   14.90
  17  -1  -8  119.09    8.70
 -17   1  -8  114.59   12.60
  17   2  -8   38.60    4.70
  17   2  -8   51.09   11.20
  17  -2   8   40.10    8.90
 -17  -2  -8   59.29   10.10
 -17  -2   8   34.80    9.00
  17  -2  -8   36.20    8.20
 -17   2  -8   32.80    7.10
  17  -3   8   99.69   13.80
  17   3  -8  109.19    7.90
  17  -3  -8  121.49   12.30
 -17  -3   8  119.69   14.40
 -17  -4   8    8.80    7.40
  17  -5   8   62.39   12.30
 -17  -5   8   99.09   13.20
  17   0  -9   78.09    6.80
 -17   0  -9   48.40    8.80
  17   0  -9   95.39   13.10
  17   1  -9    6.60    3.40
  17   1  -9    1.70    7.70
 -17  -1  -9   -6.70    5.40
  17  -1  -9    4.70    6.90
 -17   1  -9    4.10    5.40
  17  -1  -9    4.50    3.60
  17   2  -9   70.49    6.60
  17  -2   9   82.39   11.90
 -17  -2  -9   75.29   12.50
  17   2  -9   67.19   12.40
  17  -2  -9   56.09    6.50
  17  -2  -9   76.49   11.20
 -17  -2   9   75.89   12.80
  17   3  -9    2.10    3.10
 -17  -3  -9   13.30    8.80
  17  -3   9    2.00    7.00
 -17  -3   9   -6.90    6.60
  17  -3  -9   -0.90    5.60
  17  -4   9   42.50   10.20
  17   4  -9   54.09    6.10
 -17  -4   9   43.10    9.80
  17  -5   9   -3.80    7.60
 -17  -5   9   -1.50    7.20
  17   0 -10   19.00    4.00
 -17   0 -10    6.60    6.00
  17   0 -10    2.30    7.60
 -17  -1 -10  -10.50    5.10
  17   1 -10    0.10    3.10
  17   1 -10   -1.20    7.80
  17  -1 -10    0.50    3.30
  17  -1 -10   -3.20    6.60
 -17   1 -10   -0.50    5.20
  17  -2  10    3.10    6.90
  17   2 -10    4.50    3.40
  17   2 -10    1.30    8.40
 -17  -2 -10   -4.60    7.10
  17  -2 -10    2.90    3.80
  17  -2 -10    2.50    6.30
  17  -3  10    7.30    7.30
  17   3 -10    1.70    3.20
 -17  -3 -10   10.10    8.80
 -17  -3  10   -4.40    7.10
  17  -3 -10   -4.50    3.90
  17  -3 -10   -2.90    5.50
  17   4 -10   10.50    3.80
  17  -4  10   11.40    8.20
  17   0 -11  152.28   16.30
  17   0 -11  134.09    9.20
 -17  -1 -11    8.30    6.40
  17   1 -11   31.00    4.60
  17   1 -11   17.60    9.00
 -17   1 -11   21.10    6.90
  17  -1 -11   30.30    4.90
  17  -1 -11   26.10    8.20
 -17  -2 -11  130.39   15.50
  17   2 -11  167.48   17.90
  17   2 -11  148.79    9.20
  17  -2 -11  140.49   14.50
  17  -2 -11  122.69    9.50
  17   3 -11   26.40    4.40
  17  -3  11   22.40    8.90
 -17  -3 -11   41.70   10.40
  17  -3 -11   23.30    5.10
  17  -3 -11   11.80    6.30
 -17  -3  11    9.50    8.60
  17   4 -11  101.79    7.90
  17  -4  11  104.99   14.60
 -17  -4  11   93.49   14.90
  17   0 -12   -4.60    7.30
 -17   0 -12    1.40    5.80
  17   0 -12    3.10    3.60
  17   1 -12   75.89    7.10
  17   1 -12   77.89   13.70
 -17   1 -12   65.59   10.70
  17  -1 -12   73.19   12.00
  17  -1 -12   71.09    7.30
  17   2 -12    5.00    3.50
 -17  -2 -12  -11.40    6.70
  17  -2 -12    1.60    3.90
  17   3 -12   67.39    6.90
  17  -3 -12   51.09    6.70
  17   4 -12   -0.20    3.60
 -17  -4  12   -5.90    8.10
 -17   0 -13   -3.10    5.90
  17   0 -13   -1.10    7.70
  17   0 -13    0.20    3.60
  17   1 -13    4.40    8.80
  17   1 -13   18.30    4.30
  17  -1 -13   13.30    4.50
 -17   1 -13   11.50    6.80
  17   2 -13    0.90    3.60
  17  -2 -13   -4.20    3.90
  17   3 -13   11.40    4.20
  17  -3 -13   14.50    5.00
  17   4 -13   -0.60    3.70
  17  -4 -13    3.40    4.80
  17   0 -14   17.20    4.60
  17   1 -14  110.09    8.70
  17  -1 -14   98.29    8.60
  17   2 -14   10.80    4.20
  17  -2 -14    9.60    4.60
  18   0   0  376.46   32.90
 -18   0   0  443.26   31.40
  18  -1   0  255.97   24.50
  18   1   0  264.37   24.80
 -18  -1   0  284.07   22.60
 -18   1   0  234.98   21.80
 -18  -2   0   64.79   11.40
 -18  -3   0  154.28   15.40
  18  -4   0  195.88   20.60
 -18   4   0  205.78   12.40
 -18  -5   0   58.99    9.60
 -18  -6   0   -2.90    4.30
 -18   0  -1    9.90    7.00
 -18   0   1   24.20    7.50
  18   0   1    8.10    9.10
  18   0  -1   15.30    9.90
 -18  -1  -1  324.97   24.80
 -18   1   1  317.27   24.40
  18  -1   1  260.77   25.80
  18   1  -1  290.67   27.00
 -18   1  -1  240.18   23.40
  18   1   1  244.58   25.70
 -18  -1   1  334.37   24.60
  18  -1  -1  325.77   27.10
 -18  -2  -1   72.39   12.10
  18  -2   1   34.80   11.70
  18   2  -1   56.69   12.40
  18  -2  -1   48.30   12.10
 -18   2  -1   69.49    7.10
 -18  -2   1   69.89   10.90
  18  -3   1  242.78   23.60
 -18  -3  -1  241.98   20.50
  18  -3  -1  246.68   23.00
 -18   3  -1  232.88   14.50
  18  -4   1   22.30   10.80
 -18  -4  -1    0.80    4.70
  18  -4   1   -1.60    2.30
  18  -4  -1   22.10    9.50
 -18  -4   1    5.70    5.50
 -18  -5  -1   72.39   10.30
 -18  -5   1   75.39   10.90
  18  -5  -1  106.29   12.50
 -18  -6   1    2.80    4.90
 -18   0  -2  257.17   22.20
  18   0  -2  312.47   26.00
  18   0   2  227.48   23.90
 -18   0  -2  276.57   16.70
 -18   1   2   31.20    7.70
  18   1  -2   26.10   10.50
  18  -1   2    9.80    8.60
 -18  -1  -2   19.50    8.20
  18   1   2    7.90    8.60
 -18   1  -2   26.50    5.00
  18  -1  -2   18.00    9.80
  18   2  -2  231.88   22.70
  18  -2   2  186.88   20.70
  18  -2  -2  223.08   21.10
 -18  -2   2  169.58   17.70
 -18   2  -2  184.98   12.90
 -18  -3  -2   37.80    8.30
  18  -3   2   14.80    9.60
  18  -3  -2   30.60   10.10
 -18   3  -2   30.00    4.80
 -18  -4  -2  107.89   12.20
 -18   4  -2  115.79    8.30
 -18  -4   2   85.69   12.40
  18  -4  -2  129.69   14.70
 -18  -5  -2    0.00    4.70
  18  -5   2   14.70    9.20
  18  -5  -2    5.80    5.90
 -18  -5   2   -4.60    5.20
 -18  -6   2   56.09    9.40
 -18  -6   2   60.89   12.90
 -18  -7   2    5.50   10.50
 -18  -8   2   44.50   15.00
 -18   0  -3  258.47   15.60
  18   0   3  198.78   21.00
 -18   0  -3  244.28   20.70
 -18  -1  -3   13.70    7.80
  18   1  -3   28.80   10.40
  18   1   3    7.20    7.90
 -18   1  -3   19.40    4.80
  18  -1  -3   26.20   10.00
 -18  -1   3   24.90    7.00
  18  -2   3  217.48   20.70
 -18   2  -3  195.98   13.40
 -18  -2   3  170.18   18.00
  18  -2  -3  257.77   21.30
 -18  -3  -3   33.60    8.20
  18  -3   3    1.50    8.40
  18  -3  -3   11.10    8.40
 -18  -3   3    0.20    5.40
 -18   3  -3   11.00    3.60
 -18  -4   3   96.19   12.40
 -18   4  -3   83.89    7.30
  18  -4  -3  101.09   12.70
  18  -5   3   11.80    9.50
  18  -5   3   -1.40    3.00
 -18  -5  -3    4.00    4.50
 -18  -5   3   -4.50    5.50
 -18  -6   3   74.49   10.70
  18   0   4   90.79   14.50
  18   0  -4  173.78   18.20
 -18   0  -4  133.59   14.20
  18  -1   4    2.50    7.20
  18   1  -4   30.10   10.20
 -18  -1  -4   19.50    7.90
 -18   1  -4   -1.80    5.00
  18  -1  -4    9.20    8.50
 -18  -1   4   19.30    6.60
 -18   1  -4   10.10    4.20
  18  -2   4  110.99   15.00
 -18  -2   4   99.59   12.90
 -18   2  -4   93.39    8.90
  18  -2  -4  130.19   15.20
  18  -3   4   -1.40    8.00
  18  -3  -4    3.00    6.80
 -18  -3   4   -1.80    5.40
 -18   3  -4    3.00    3.30
  18  -4   4  115.09   16.50
 -18  -4   4   67.79   11.50
  18  -4  -4   70.09   11.10
 -18  -5  -4    5.80    4.40
  18  -5   4    2.50    3.30
  18  -5   4   22.60    9.80
 -18  -5   4    3.10    6.00
 -18  -6   4   47.50    8.80
  18   0   5    2.80    6.60
  18   0  -5    9.10    8.60
 -18   0  -5    0.10    6.00
 -18   0   5   29.90    7.30
  18   1  -5  125.39   16.50
 -18  -1   5   98.09   13.20
  18  -1  -5  100.49   14.80
 -18  -2  -5    7.10    8.10
  18  -2   5   -1.70    7.10
  18   2  -5    8.30    9.20
 -18  -2   5    1.20    5.80
  18  -2  -5    6.60    7.30
  18  -3   5   68.59   12.00
 -18   3  -5   59.69    7.00
 -18  -3   5   74.49   11.80
  18  -3  -5   76.89   11.70
  18  -4   5    4.30    8.70
  18  -4  -5    3.90    5.70
  18  -5   5   80.39   14.10
 -18  -5   5   51.69    9.90
  18  -6   5    4.10    9.50
 -18  -6   5   -4.10    6.00
 -18   0  -6   -5.70    5.30
  18   0   6    2.70    6.20
  18   0  -6    4.40    8.30
  18  -1   6   62.69   11.70
 -18  -1  -6   94.89   12.70
  18   1  -6  100.69   15.30
  18  -1  -6   86.49   13.60
 -18  -1   6   74.79   12.00
  18  -2   6   77.59   13.00
  18   2  -6  121.89   16.90
 -18  -2   6  109.99   13.80
  18  -2  -6  115.09   13.90
 -18  -3   6   65.89   11.90
  18  -3  -6   73.19   11.40
  18  -4   6    0.10    7.90
  18  -4  -6    1.00    5.50
 -18  -4   6   -1.70    6.20
  18  -5   6   72.39   13.40
 -18  -5   6   52.49   10.20
  18   0  -7    6.30    8.40
 -18   0  -7   -4.50    5.10
 -18  -1  -7   79.09   11.50
  18   1  -7   71.79   12.60
  18  -1   7   49.50    9.80
 -18  -1   7   62.09   10.60
  18  -1  -7   76.49   12.70
 -18   1  -7   42.40    8.20
  18  -2   7   -4.30    6.60
  18   2  -7   -2.70    3.10
  18   2  -7    3.90    9.20
  18  -2  -7   -0.40    6.70
 -18  -2   7   -1.00    6.40
  18   3  -7   43.50    5.20
  18  -3   7   32.20    9.20
  18  -3  -7   66.89   10.50
 -18  -3   7   56.69   10.30
 -18  -4   7    4.30    7.10
  18  -5   7   50.39   11.90
 -18  -5   7   31.40    8.90
  18   0  -8   31.60    9.50
  18   0  -8   28.90    4.70
 -18   0  -8   11.60    6.30
 -18  -1  -8   -2.90    6.40
  18  -1   8   15.10    7.50
  18   1  -8    2.70    3.40
  18   1  -8   -4.60    8.20
  18  -1  -8   -0.60    7.20
 -18   1  -8   -1.30    5.00
  18   2  -8   50.49    5.50
  18  -2   8   46.40   10.00
  18   2  -8   55.79   12.50
 -18  -2  -8   80.79   13.20
  18  -2  -8   47.40    9.60
 -18  -2   8   48.10   10.40
 -18  -3  -8   19.30    9.30
  18   3  -8    2.20    3.30
  18  -3   8    0.00    7.10
  18  -3  -8    4.10    6.10
 -18  -3   8    0.40    6.90
  18  -4   8   16.20    8.50
  18   4  -8   27.90    4.40
 -18  -4   8   27.90    8.80
  18  -5   8   -1.10    8.00
 -18  -5   8   -1.20    7.30
  18   0  -9   85.79    7.70
  18   0  -9  102.69   14.60
 -18  -1  -9  -10.60    5.90
  18   1  -9   -6.50    8.20
  18   1  -9    3.20    3.40
  18  -1  -9    1.90    3.70
  18  -1  -9   -1.50    7.00
 -18   1  -9   -0.70    5.30
  18   2  -9   83.49    7.40
 -18  -2  -9  116.29   14.60
  18   2  -9   75.69   13.70
  18  -2   9   72.49   12.50
  18  -2  -9   89.79   12.60
 -18  -3  -9   12.00    9.20
  18  -3   9   -3.20    7.20
  18   3  -9   -0.50    3.40
 -18  -3   9   -5.70    6.90
  18  -3  -9   -4.60    5.90
  18  -4   9   55.29   11.50
  18   4  -9   68.79    6.80
 -18  -4   9   57.59   11.60
  18   0 -10   20.90    9.00
  18   0 -10   31.40    4.90
 -18   0 -10   16.70    6.60
 -18  -1 -10   -5.20    5.90
  18   1 -10    1.80    3.60
  18   1 -10   -3.40    8.50
 -18   1 -10    1.00    5.50
  18  -1 -10    2.50    3.80
  18  -1 -10   -1.00    7.30
  18   2 -10   30.30    4.70
 -18  -2 -10   32.20    9.40
  18  -2 -10   21.60    5.10
  18  -2 -10   25.80    8.40
  18  -3  10    2.10    7.70
  18   3 -10    6.20    3.60
 -18  -3 -10   18.00    9.30
 -18  -3  10   -4.50    7.40
  18  -3 -10   -2.90    5.90
  18   4 -10   24.50    4.50
  18  -4  10   12.90    8.80
 -18  -4  10   17.60    8.90
 -18   0 -11   -2.30    5.50
  18   0 -11    3.60    3.70
  18   0 -11   -2.10    7.90
  18   1 -11   22.30    4.50
 -18  -1 -11    2.90    6.60
  18   1 -11   12.30    9.50
 -18   1 -11   10.90    6.70
  18  -1 -11   14.70    8.10
  18  -1 -11   22.40    4.80
  18   2 -11    1.20    3.50
 -18  -2 -11    1.50    7.90
  18  -2 -11    0.30    6.90
  18  -2 -11    3.60    4.10
  18  -3  11   15.30    8.80
  18   3 -11   21.50    4.60
  18  -4  11    3.20    8.40
  18   4 -11    1.90    3.70
 -18  -4  11  -13.60    7.50
  18   0 -12   57.59   11.10
 -18   0 -12   40.50    8.70
  18   0 -12   67.39    7.10
  18   1 -12   36.00   10.50
  18   1 -12   34.40    5.10
  18  -1 -12   28.10    9.20
  18  -1 -12   29.00    5.30
 -18   1 -12   24.70    7.70
  18   2 -12    0.20    3.70
  18  -2 -12   11.50    4.50
  18   3 -12   29.80    4.90
  18  -3 -12   32.30    6.00
  18   4 -12   32.60    5.10
  18   0 -13    0.20    4.00
  18   1 -13    7.60    9.50
  18   1 -13   10.20    4.30
  18  -1 -13   14.50    4.70
 -18   1 -13    6.90    6.90
  18   2 -13    4.10    4.00
  18  -2 -13    3.00    4.30
  18   3 -13    9.00    4.20
  18  -3 -13   11.90    5.20
  18   0 -14    5.20    4.20
  18   1 -14    2.50    4.10
  18  -1 -14    2.00    4.30
  19   0   0   27.20   10.80
 -19   0   0   19.80    7.70
 -19   1   0   11.60    7.30
 -19  -1   0   25.90    8.00
  19   1   0   14.20   10.20
  19  -1   0   15.10    9.80
 -19  -2   0   34.00    8.20
  19  -2   0   18.80   10.00
 -19  -3   0   24.80    7.30
  19  -3   0   25.40   11.20
  19  -4   0   19.70    9.30
 -19  -4   0    7.90    5.50
  19  -5   0   14.60    7.90
 -19  -5   0    2.50    5.20
 -19  -6   0   -2.60    4.70
  19   0  -1  192.88   21.90
 -19   0   1  234.68   19.70
  19   0   1  160.48   20.80
 -19   0  -1  195.68   19.10
 -19  -1  -1  108.89   14.70
  19  -1   1   90.59   16.50
  19   1  -1  125.99   18.10
 -19  -1   1  144.49   15.10
  19  -1  -1  116.49   17.80
  19   1   1   70.99   14.40
 -19  -2  -1  254.37   21.60
  19  -2   1  218.98   23.60
  19  -2  -1  249.88   24.00
 -19  -2   1  245.58   21.00
 -19   2  -1  245.28   15.10
 -19  -3  -1   82.49   12.00
  19  -3   1   57.19   13.40
 -19   3  -1   91.29    7.60
  19  -3  -1   64.29   13.00
 -19  -4  -1   82.49   10.40
 -19  -4   1   48.00    9.00
  19  -5   1   60.39   12.00
  19  -5  -1   46.00    9.50
 -19  -6  -1   59.89    8.50
 -19  -6   1   47.50    8.30
 -19   0   2  130.39   14.20
  19   0  -2  119.89   17.50
 -19   0  -2   82.19   13.40
  19   0   2   57.29   12.80
 -19  -1  -2  195.28   19.20
  19   1  -2  202.08   22.20
  19  -1  -2  180.28   21.40
 -19  -1   2  199.18   18.80
 -19  -2  -2  191.18   17.40
  19  -2   2  124.69   18.60
 -19  -2   2  147.79   15.80
 -19   2  -2  136.09   10.80
  19  -2  -2  156.58   18.80
  19  -3   2   91.29   15.60
 -19  -3  -2  143.69   14.80
  19  -3  -2  115.39   16.20
 -19   3  -2  105.39    8.90
 -19  -4  -2   58.99    9.50
  19  -4   2   44.70   12.80
  19  -4  -2   47.10   10.30
 -19  -5  -2   41.50    7.60
 -19  -5   2   38.40    8.50
  19  -6   2   81.09   14.30
  19   0  -3   29.10   11.20
 -19   0  -3   11.90    7.40
  19   0   3    8.50    8.50
 -19  -1  -3   12.70    7.90
  19  -1   3   -0.10    8.10
  19   1  -3   17.70   10.40
  19  -1  -3   15.30    9.40
 -19  -1   3   27.70    7.10
 -19  -2  -3   38.20    9.80
  19  -2   3   12.50    9.20
 -19  -2   3   30.40    7.60
  19  -2  -3   20.10    9.30
  19  -3   3    6.30    9.10
  19  -3  -3    8.30    7.90
 -19  -3   3   -1.80    5.40
  19  -4   3    5.60    9.70
  19  -4  -3    3.00    6.80
 -19  -4   3   -1.90    5.60
 -19  -5  -3    3.90    4.70
  19  -5   3   12.00    9.90
 -19  -5   3   -6.60    5.30
  19  -5  -3    3.60    5.80
  19   0   4   64.89   11.60
 -19   0  -4   69.39   12.20
 -19  -1  -4  284.87   23.20
  19   1  -4  269.97   25.70
  19  -1  -4  244.88   24.10
 -19  -1   4  267.47   22.80
  19  -2   4   10.90    8.80
  19  -2  -4   41.80   10.30
 -19  -2   4   19.40    7.00
  19  -3   4  174.78   18.40
  19  -3  -4  134.09   15.70
 -19  -3   4  115.59   14.50
  19  -4   4   51.99   12.70
  19  -4  -4   28.20    8.10
 -19  -4   4   29.30    8.20
 -19  -5  -4   71.59    9.50
 -19  -5   4   76.69   11.90
 -19   0  -5   33.90    8.40
  19   0   5   23.70    8.70
 -19  -1  -5   43.90    9.70
  19   1  -5   33.40   10.90
  19  -1   5   11.20    8.20
 -19  -1   5   34.00    8.00
  19  -1  -5   23.20    9.40
  19  -2   5    3.00    7.80
  19  -2  -5    6.90    8.10
 -19  -2   5   11.20    6.60
  19  -3   5   13.90    9.00
 -19  -3   5   21.40    7.80
  19  -3  -5   22.20    7.90
  19  -4   5   14.30    9.60
 -19  -5  -5   23.90    5.80
  19  -5   5   12.80   10.20
 -19  -5   5    3.90    6.80
 -19   0  -6   -9.00    5.80
  19   0  -6    2.90    8.50
 -19  -1  -6   19.50    8.40
  19   1  -6   27.00   10.60
  19  -1   6    2.80    7.10
 -19  -1   6   24.80    7.70
  19  -1  -6    4.70    8.30
 -19  -2  -6    5.80    8.50
  19  -2   6    1.90    7.30
  19  -2  -6   -0.10    7.30
 -19  -2   6    1.00    6.30
  19  -3   6    3.40    7.90
  19  -3  -6    6.70    6.90
 -19  -3   6   14.60    7.40
  19  -4   6   -7.10    8.00
 -19  -4   6   -3.80    6.30
  19  -4  -6   -2.80    5.60
  19  -5   6    8.00    9.70
 -19  -5   6    3.10    7.10
  19   0  -7  155.88   17.60
 -19   0  -7  117.99   13.90
 -19  -1  -7   13.10    8.00
  19   1  -7   13.40    9.70
  19  -1   7    3.70    7.20
  19  -1  -7    5.80    8.10
 -19   1  -7    0.70    5.30
  19  -2   7   84.99   13.60
 -19  -2   7  101.79   14.30
  19  -2  -7  121.79   14.60
  19  -3   7   12.40    8.10
  19  -3  -7   12.00    7.00
 -19  -3   7   11.30    7.30
  19  -4   7  106.69   16.10
 -19  -4   7  108.59   14.90
  19  -4  -7  117.69   12.50
  19  -5   7    6.20    9.30
 -19  -5   7   -2.60    7.00
  19   0  -8   27.40   10.00
 -19   0  -8   17.80    7.00
  19   1  -8    8.00    9.30
 -19  -1  -8    2.40    7.30
 -19   1  -8   -0.70    5.40
  19  -1  -8   -1.10    7.80
  19   2  -8   16.70    4.30
  19  -2   8   13.00    8.00
 -19  -2   8   15.10    8.00
  19  -2  -8    9.10    7.90
  19  -3   8   -2.60    7.50
  19  -3  -8    4.70    6.70
 -19  -3   8    3.50    7.30
  19  -4   8   13.60    8.70
 -19  -4   8   15.40    8.40
  19   0  -9   12.80    4.30
 -19   0  -9    2.60    6.10
  19   0  -9   16.20    9.40
  19   1  -9    1.30    9.20
  19   1  -9   -3.40    3.40
 -19  -1  -9  -10.60    6.60
  19  -1  -9   -4.60    7.60
 -19   1  -9   -7.20    5.10
  19  -2   9    9.70    7.90
 -19  -2  -9   19.30    9.40
  19   2  -9   12.40    4.10
  19  -2  -9    5.80    7.60
  19   3  -9    2.60    3.60
 -19  -3  -9   12.80    9.40
  19  -3   9  -11.10    7.30
 -19  -3   9   -4.40    7.40
  19  -3  -9   -1.00    6.40
  19   4  -9   15.60    4.20
  19  -4   9    5.70    8.40
 -19  -4   9    6.20    8.20
  19   0 -10   -1.40    8.30
  19   0 -10    3.50    3.90
 -19   0 -10   -5.90    5.50
  19   1 -10  132.29    9.30
 -19  -1 -10  115.09   14.60
  19   1 -10  170.18   18.50
  19  -1 -10  158.48   16.60
  19  -1 -10  109.09    9.30
 -19   1 -10  105.79   13.30
  19   2 -10   14.30    4.30
 -19  -2 -10   19.90    9.40
  19  -2 -10    5.80    7.80
  19  -3  10   94.39   15.00
  19   3 -10  125.19    8.90
 -19  -3  10  118.49   16.70
  19   4 -10    5.60    3.90
 -19  -4  10   -7.50    7.70
  19   0 -11    0.40    8.60
  19   0 -11   -1.70    3.70
 -19   0 -11   -9.80    5.40
  19   1 -11    1.80    9.50
  19   1 -11    4.90    4.10
 -19  -1 -11   -6.60    6.70
  19  -1 -11    7.90    4.50
  19  -1 -11   -3.30    7.90
 -19   1 -11   -0.80    5.90
  19   2 -11    4.80    3.90
  19  -2 -11   -0.40    4.10
  19   3 -11    7.80    4.10
  19   4 -11    1.60    3.90
  19   0 -12   -0.40    3.90
 -19   0 -12   -6.20    5.80
  19   1 -12   16.30   10.20
  19   1 -12   25.30    5.00
  19  -1 -12   19.80    5.00
 -19   1 -12   12.40    7.10
  19   2 -12    1.50    3.90
  19  -2 -12    2.30    4.30
  19   3 -12   23.50    4.90
  19   0 -13   84.89    8.40
  19   1 -13   -1.20    3.90
  19  -1 -13    4.00    4.40
  19   2 -13   93.29    8.40
  19  -2 -13   84.39    8.80
  20   0   0  211.18   23.20
 -20   0   0  237.18   21.30
  20  -1   0  152.28   20.40
 -20  -1   0  188.58   18.20
  20   1   0  141.49   20.10
 -20  -2   0  181.48   17.80
  20  -2   0  158.98   20.80
 -20  -3   0  117.19   14.00
  20  -3   0  120.39   18.20
 -20  -4   0   81.69   11.00
  20  -5   0  103.59   15.40
  20   0  -1   70.29   13.70
  20   0   1   47.50   12.30
 -20   0  -1   46.70   10.00
  20  -1   1  382.56   34.70
 -20  -1  -1  483.55   33.80
  20   1  -1  441.06   36.00
  20  -1  -1  413.96   35.30
 -20  -1   1  474.85   33.50
  20  -2   1   46.30   13.20
 -20  -2  -1   79.29   13.20
 -20  -2   1   81.49   12.30
  20  -2  -1   48.60   13.10
  20  -3   1  304.07   27.10
 -20  -3  -1  301.37   23.90
  20  -3  -1  320.17   26.60
 -20  -3   1  243.28   22.80
  20  -4   1   48.10   12.80
 -20  -4  -1   55.89    9.60
  20  -4  -1   53.59   11.70
  20  -5   1  268.37   22.90
  20  -5  -1  201.48   20.20
  20   0   2  323.97   31.90
 -20   0  -2  395.16   30.70
  20   0  -2  425.66   33.80
 -20   0   2  460.65   31.50
 -20  -1  -2   98.79   15.60
  20   1  -2  115.29   18.60
 -20  -1   2  130.99   14.90
  20  -1  -2   98.29   17.40
  20  -2   2  551.84   44.10
 -20  -2  -2  694.83   43.30
  20  -2  -2  594.14   44.20
 -20  -2   2  552.54   42.10
  20  -3   2   72.89   14.50
  20  -3  -2  112.79   16.00
 -20  -3   2   68.99   11.00
 -20  -4  -2  219.18   19.40
  20  -4   2  248.48   23.90
  20  -4  -2  227.58   21.30
  20  -5   2   43.10   12.30
  20  -5  -2   31.80    8.40
  20   0   3  101.79   16.70
 -20   0  -3  102.59   14.60
 -20  -1  -3  146.99   17.60
  20   1  -3  166.38   20.90
 -20  -1   3  166.78   16.60
  20  -1  -3  148.99   19.30
 -20  -2  -3  153.38   17.00
 -20  -2   3  123.59   14.60
  20  -2  -3  125.09   17.80
 -20  -3  -3  143.09   15.70
  20  -3   3   99.59   18.00
  20  -3  -3  110.29   15.90
  20  -4   3   99.29   17.90
 -20  -4  -3  119.79   12.90
  20  -4  -3   78.09   13.40
  20  -5   3   62.09   13.40
 -20  -5  -3   36.10    7.00
 -20  -5   3   19.00    7.20
  20   0   4  360.86   33.60
  20   0  -4  531.85   36.70
 -20   0  -4  453.75   33.40
  20   1  -4   67.39   13.30
 -20  -1  -4   44.50   10.30
  20  -1   4   31.10   10.50
  20  -1  -4   52.39   12.10
  20  -2   4  182.78   20.40
  20  -2  -4  208.28   20.50
 -20  -2   4  192.78   18.20
  20  -3   4   14.80   10.00
  20  -3  -4   25.40    9.40
 -20  -3   4   13.90    7.00
  20  -4  -4  175.18   17.00
 -20  -4   4  164.18   17.00
 -20  -5  -4   32.40    6.70
  20  -5   4   39.20   13.00
 -20   0  -5   17.90    8.20
  20   0  -5   45.40   11.70
 -20  -1  -5  237.38   21.30
  20   1  -5  237.68   23.80
  20  -1  -5  213.98   22.20
 -20  -1   5  226.18   20.50
  20  -2   5   29.50   10.70
 -20  -2   5   30.30    8.30
  20  -2  -5   37.70   10.30
 -20  -3   5   90.19   13.20
  20  -3  -5  109.49   14.30
  20  -4   5   10.70    9.90
  20  -4  -5   11.00    6.90
 -20  -5   5   71.99   12.60
 -20   0  -6   27.90    8.50
  20   0  -6   44.30   11.60
  20   1  -6   96.29   16.20
 -20  -1  -6   68.69   11.50
  20  -1  -6   52.89   11.80
  20  -2   6   39.70   10.40
 -20  -2   6   31.40    8.60
  20  -2  -6   20.50    8.90
  20  -3   6   46.10   11.50
 -20  -3   6   34.40    9.00
  20  -3  -6   20.30    8.20
  20  -4   6   18.00   10.20
  20  -4  -6   17.20    7.40
 -20  -4   6    8.40    7.30
  20   0  -7    7.60    9.40
 -20   0  -7    4.30    7.00
  20   1  -7  124.49   18.10
 -20  -1  -7  152.28   16.50
  20  -1  -7  116.09   16.60
  20  -2   7   -3.10    7.40
 -20  -2  -7   12.90    9.30
  20  -2  -7   10.20    8.10
 -20  -2   7    3.80    6.80
  20  -3   7   84.39   14.70
  20  -3  -7   99.59   13.40
 -20  -3   7   87.89   13.60
  20  -4   7    1.50    9.10
  20  -4  -7    3.90    6.40
 -20  -4   7    6.00    7.40
  20   0  -8  181.18   19.30
 -20   0  -8  131.89   15.40
  20   1  -8   30.20   11.30
 -20  -1  -8   36.20    9.50
  20  -1  -8   18.10    9.30
 -20   1  -8   17.50    6.80
  20  -2   8   77.29   13.60
  20  -2  -8   97.49   14.10
  20  -3   8    7.10    8.30
 -20  -3   8   10.90    8.10
  20  -3  -8   22.40    8.40
  20  -4   8   94.39   15.90
 -20  -4   8  106.69   15.20
 -20   0  -9   24.70    8.00
  20   0  -9   49.70   11.70
  20   1  -9    8.10    9.90
 -20  -1  -9    1.00    7.90
  20  -1  -9    9.60    9.00
 -20   1  -9    2.40    6.00
 -20  -2  -9   64.59   11.40
  20  -2  -9   15.00    8.60
  20  -3   9    2.40    8.30
 -20  -3   9    6.50    8.10
 -20  -4   9   22.90    9.30
  20   0 -10   33.10    5.50
 -20   0 -10   24.30    7.80
  20   0 -10   34.70   11.00
  20   1 -10    0.50    9.90
  20   1 -10    2.30    4.00
 -20  -1 -10   -6.70    7.50
 -20   1 -10    0.30    5.90
  20  -1 -10    2.70    8.60
  20   2 -10   80.69    7.90
  20  -3  10   -2.10    8.10
  20   3 -10   10.40    4.20
  20   4 -10   25.90    5.00
  20   0 -11    7.00    9.60
 -20   0 -11    2.90    6.60
  20   0 -11   13.90    4.80
  20   1 -11   25.00   11.30
  20   1 -11   30.40    5.40
  20  -1 -11   23.30    5.20
  20   2 -11   13.50    4.60
  20   3 -11   28.90    5.30
  20   0 -12    5.60    4.40
  20   1 -12   22.50    5.10
  20  -1 -12   17.40    5.20
  20   2 -12    0.60    4.10
 -21   0   0   28.60    9.00
  21   0   0   23.40   11.10
  21  -1   0   16.20   10.50
  21  -2   0   20.00   10.40
  21  -3   0   16.90   10.10
 -21  -3   0   37.10    8.00
  21  -4   0   32.60   11.40
 -21  -4   0   31.60    7.40
  21  -5   0   41.20   10.70
  21   0  -1   58.89   13.60
 -21   0  -1   51.19   10.40
 -21   0   1   79.39   13.50
  21   0   1   53.19   13.00
 -21  -1  -1   88.69   14.20
 -21  -1   1   88.69   13.70
  21  -1  -1   50.99   13.60
 -21  -2  -1   80.49   13.70
  21  -2  -1   50.39   13.40
 -21  -2   1   84.09   12.50
 -21  -3  -1   83.99   12.10
  21  -3   1   43.30   13.20
 -21  -3   1   70.69   11.10
 -21  -4  -1   64.49   10.20
  21  -4   1   52.69   13.30
  21  -4  -1   51.59   11.80
  21  -5   1   43.40   11.40
 -21  -5  -1   11.50    5.50
 -21  -5   1    8.60    5.80
  21   0  -2   36.30   12.10
  21   0   2   26.80   11.00
 -21   0  -2   24.30    9.00
 -21  -1  -2   86.19   14.50
  21   1  -2   69.29   14.90
  21  -1   2   53.19   13.60
 -21  -1   2  113.19   14.20
  21  -1  -2  111.79   17.20
  21  -2   2   26.20   11.90
 -21  -2  -2   38.10    9.60
  21  -2  -2   44.60   12.20
  21  -3   2   56.19   13.70
  21  -3  -2   97.49   15.70
 -21  -3   2   62.19   10.70
  21  -4   2   20.50   10.60
 -21  -4   2   21.20    7.20
  21  -4  -2   36.80   10.20
 -21  -5   2    7.90    6.10
  21   0  -3   35.30   11.90
 -21   0  -3   10.00    8.00
  21   0   3   10.20    9.70
  21   1  -3   45.70   12.50
  21  -1   3    9.30    9.70
 -21  -1  -3   19.70    9.10
  21  -1  -3   21.70   10.60
 -21  -2  -3   89.89   14.70
 -21  -2   3   80.29   11.70
  21  -2  -3   49.40   12.60
  21  -3   3    9.40   10.10
 -21  -3   3   15.50    6.60
  21  -3  -3   24.40   10.30
 -21  -4  -3   32.00    7.60
  21  -4   3   11.50   10.20
 -21  -4   3   -0.30    5.60
  21  -4  -3   15.30    8.00
  21   0  -4   31.70   11.50
 -21   0  -4    3.70    7.90
  21  -1   4    8.90    9.50
 -21  -1  -4    7.90    8.80
  21   1  -4   25.60   11.40
 -21  -1   4   30.40    7.80
  21  -1  -4   30.00   11.20
  21  -2   4   18.70   10.40
 -21  -2  -4   44.60   10.80
 -21  -2   4   62.99   10.60
  21  -2  -4   43.60   11.20
  21  -3   4    5.70   10.00
 -21  -3  -4   34.70    9.60
 -21  -3   4    6.60    6.20
  21  -3  -4   21.70    9.50
  21  -4   4   10.00   10.10
  21  -4  -4   12.50    7.60
 -21  -4   4    4.50    6.30
 -21   0  -5   88.39   14.60
  21   0  -5  131.39   17.70
 -21  -1  -5   11.00    8.90
  21  -1   5    5.70    8.80
  21  -1  -5   27.90   10.70
  21  -2   5   81.99   14.60
  21  -2  -5  108.69   15.60
 -21  -2   5  116.09   13.70
  21  -3   5   14.20    9.90
 -21  -3   5    9.40    6.70
  21  -3  -5   12.10    8.20
  21  -4   5   66.69   14.20
  21  -4  -5   36.20    9.00
 -21  -4   5   31.90    9.00
  21   0  -6   18.20   10.10
 -21   0  -6   -6.20    7.30
  21   1  -6   42.40   12.00
 -21  -1  -6   24.20    9.60
  21  -1  -6   19.00    9.80
 -21  -2  -6   17.00    9.50
  21  -2   6    0.60    8.70
 -21  -2   6    7.70    6.60
  21  -2  -6    6.20    8.50
  21  -3   6   10.80    9.50
  21  -3  -6   15.60    8.80
 -21  -3   6   13.10    7.30
  21  -4   6    4.50    9.80
 -21  -4   6   -0.10    6.50
  21   0  -7    5.70    9.60
 -21   0  -7   -3.90    7.40
 -21  -1  -7   26.90    9.80
  21   1  -7   32.80   11.70
  21  -1  -7   17.90    9.60
 -21  -2  -7   -0.20    9.20
  21  -2   7   -7.10    7.90
  21  -2  -7    1.10    8.10
  21  -3   7    9.60    9.50
  21  -3  -7   11.40    8.00
 -21  -3   7    9.00    7.40
  21  -4   7   -5.20    9.40
 -21  -4   7   -2.70    6.70
  21   0  -8    6.20    9.50
 -21   0  -8   -7.20    7.10
 -21  -1  -8   87.29   14.10
  21   1  -8   53.99   13.20
  21  -1  -8   50.99   12.10
 -21  -2  -8    9.50    9.60
  21  -2  -8    4.70    8.30
  21  -3   8   42.30   11.60
 -21  -3   8   35.80    9.90
  21   0  -9   30.20   11.10
 -21   0  -9   25.90    8.50
 -21  -1  -9   -4.40    8.40
  21   1  -9   -2.30   10.00
  21  -1  -9   -1.10    8.90
  21  -3   9    2.00    8.40
 -21   0 -10    0.10    7.30
  21   0 -10    5.50    9.70
  21   1 -10    5.80   10.60
  21   1 -11    0.70    4.30
  21   2 -11   49.60    6.50
  22   0   0  637.74   47.40
  22  -1   0   64.09   14.10
 -22  -1   0   97.09   14.20
  22  -2   0  613.04   47.00
 -22  -2   0  663.93   45.30
  22  -3   0   75.39   14.70
 -22  -3   0   98.89   12.90
  22  -4   0  382.06   30.10
 -22  -4   0  333.27   27.10
  22   0   1   23.70   11.70
 -22   0  -1   19.50    9.10
  22   0  -1   22.40   11.90
 -22  -1  -1   23.40    9.00
  22  -1   1   21.30   10.40
  22  -1  -1   16.10   10.50
 -22  -2  -1   39.60   10.00
  22  -2   1   16.20   11.10
  22  -2  -1   41.30   12.50
 -22  -2   1   73.29   12.20
 -22  -3  -1   41.20    8.90
  22  -3   1   23.10   11.80
  22  -3  -1   22.30   10.30
 -22  -3   1   32.40    7.80
  22  -4   1   20.80   12.00
 -22  -4  -1   32.20    7.60
  22  -4  -1   39.70   11.20
 -22  -4   1   21.90    7.20
 -22   0  -2    7.90    8.50
  22   0  -2   21.00   10.80
  22  -1   2   22.30   11.70
 -22  -1  -2   25.30    9.80
 -22  -1   2   31.50    8.70
  22  -1  -2   23.10   11.00
 -22  -2  -2   82.79   14.00
  22  -2   2   35.50   13.00
  22  -2  -2   56.09   13.10
 -22  -2   2   73.09   11.90
  22  -3   2   12.50   10.60
 -22  -3  -2   37.40    9.00
 -22  -3   2   25.40    7.60
  22  -3  -2   41.40   11.70
 -22  -4  -2   36.50    7.90
  22  -4   2   17.10   10.60
 -22  -4   2   23.30    7.40
  22  -4  -2   30.10   10.40
  22   0  -3   71.79   14.30
 -22   0  -3   44.70   10.60
  22  -1   3  498.95   42.90
 -22  -1  -3  622.64   42.00
  22  -1  -3  557.14   43.30
 -22  -1   3  624.74   41.90
 -22  -2  -3   94.19   14.60
 -22  -2   3   89.79   12.60
  22  -2  -3   67.29   13.60
  22  -3   3  431.06   33.50
 -22  -3   3  354.76   29.80
  22  -3  -3  408.16   31.80
  22  -4   3   40.60   13.30
 -22  -4   3   27.60    8.00
  22   0  -4   66.59   13.80
  22  -1   4    7.30    9.90
 -22  -1  -4    2.50    9.00
  22  -1  -4   23.80   10.80
  22  -2   4    8.50    9.90
 -22  -2  -4   17.70    9.60
 -22  -2   4   18.20    7.00
  22  -2  -4   34.70   10.70
  22  -3   4    2.80   10.30
 -22  -3  -4   29.70    9.40
 -22  -3   4    8.70    6.40
  22  -3  -4   25.30    9.40
  22  -4   4   10.90   10.70
 -22  -4   4   10.10    6.70
 -22   0  -5    2.20    8.30
  22   0  -5   43.50   12.30
 -22  -1  -5    6.10    9.10
  22  -1  -5   28.60   10.90
  22  -2   5    2.00    9.50
 -22  -2  -5   16.70    9.90
 -22  -2   5   28.20    8.10
  22  -2  -5   25.20   10.40
 -22  -3  -5   29.10    9.60
  22  -3   5    3.50   10.00
  22  -3  -5   21.70    9.50
 -22  -3   5   11.60    6.70
 -22  -4   5    1.20    6.40
 -22   0  -6  323.27   28.40
  22   0  -6  398.16   31.40
 -22  -1  -6   35.40   10.40
  22   1  -6   51.39   12.90
  22  -1  -6   38.20   11.60
  22  -2   6  239.48   23.50
  22  -2  -6  228.98   22.60
  22  -3   6    3.90    9.80
 -22  -3   6   15.80    7.70
 -22   0  -7    0.90    8.20
  22   0  -7   17.60   10.90
 -22  -1  -7   -1.00    8.80
  22   1  -7   23.60   11.20
  22  -1  -7   22.00   10.50
  22  -2   7    0.40    9.30
 -22  -2  -7   15.40   10.00
  22  -2  -7    5.10    8.50
  22  -3   7   -5.80    9.30
 -22  -3   7    4.30    7.10
  22   0  -8   32.10   11.30
 -22   0  -8    3.50    8.10
 -22  -1  -8   -3.20    8.80
  22   1  -8   22.30   11.30
  22  -1  -8   10.70    9.60
  22  -3   8   -3.40    9.10
 -22  -3   8   -0.20    7.10
  22   0  -9   10.90   10.30
 -22   0  -9   -0.30    7.90
  22   1  -9  154.88   20.90
  23   0   0   38.20   12.40
 -23  -1   0   33.80    9.70
  23  -1   0   22.20   11.00
  23  -2   0   40.00   12.60
 -23  -3   0   35.80    8.40
  23  -3   0   31.20   12.30
  23   0  -1   40.00   12.70
 -23  -1  -1  126.29   16.00
  23  -1   1  102.19   18.40
  23  -1  -1   74.19   15.20
 -23  -1   1  117.79   15.30
  23  -2   1   33.70   12.60
 -23  -2  -1   37.00    9.60
  23  -2  -1   30.10   12.10
  23  -3   1   72.79   15.10
 -23  -3  -1  108.49   13.80
 -23  -3   1  101.69   13.10
  23  -3  -1  121.79   18.10
  23   0  -2  134.69   19.60
 -23  -1  -2   35.00   10.40
  23  -1   2   34.90   12.50
  23  -1  -2   46.60   12.90
  23  -2   2  105.29   19.30
 -23  -2  -2  164.48   17.60
  23  -2  -2  149.39   19.50
 -23  -2   2  138.69   15.80
 -23  -3  -2   82.39   12.60
  23  -3   2   27.60   13.10
  23  -3  -2   46.60   12.50
 -23  -3   2   66.09   11.10
  23   0  -3   40.80   12.50
 -23  -1  -3   22.70    9.80
  23  -1   3   15.90   10.90
  23  -1  -3   50.19   12.60
  23  -2   3   14.40   11.00
 -23  -2  -3   32.00   10.00
 -23  -3  -3   36.70    9.60
  23  -3   3   24.00   12.70
  23  -3  -3   52.59   11.60
 -23  -3   3   35.00    8.30
 -23   0  -4   85.09   15.20
 -23  -1  -4   21.30    9.90
  23  -1  -4   35.40   11.50
 -23  -2  -4   94.99   15.50
 -23  -2   4   93.49   13.20
  23  -2  -4  102.99   16.70
 -23  -3  -4   32.50    9.80
  23  -3   4   12.30   11.00
 -23  -3   4   32.30    8.20
  23   0  -5   53.69   13.50
 -23  -1  -5   72.59   13.00
  23  -1  -5   95.59   16.40
  23  -2   5   26.70   12.90
 -23  -2  -5   51.99   11.70
 -23  -2   5   83.29   12.20
  23  -2  -5   50.49   12.20
  23  -3   5   41.00   14.00
 -23  -3   5   77.09   12.30
  23   0  -6   39.20   11.90
 -23   0  -6    2.30    8.80
 -23  -1  -6   14.00    9.90
  23  -1  -6   32.50   11.40
  23  -2   6   -1.80    9.90
 -23  -2  -6   27.30   10.50
  23  -3   6    6.80   10.60
 -23  -3   6   27.60    8.30
 -23   0  -7    4.20    8.90
  23   0  -7   28.10   11.30
 -23  -1  -7   27.70   10.70
  23  -1  -7   37.80   11.60
 -23  -3   7   33.60    9.20
 -23   0  -8   44.40   10.90
  23   0  -8   65.29   13.60
 -24  -1   0  147.49   17.50
  24  -1   0  114.69   19.40
  24  -2   0   64.89   14.70
 -24  -2   0  105.59   14.40
 -24  -3   0  109.49   14.20
 -24  -1  -1  271.37   23.90
  24  -1   1  251.47   26.30
  24  -1  -1  255.27   25.70
 -24  -2  -1   39.40    9.90
  24  -2   1   20.60   11.20
  24  -2  -1   32.10   12.40
 -24  -2   1   39.60    9.40
 -24  -3  -1  229.48   20.20
 -24  -3   1  212.98   19.80
  24   0  -2  245.78   25.50
  24  -1   2   27.60   12.50
 -24  -1  -2   25.70   10.30
  24  -1  -2   43.40   12.80
 -24  -2  -2  307.87   24.40
  24  -2   2  240.38   26.30
 -24  -2   2  263.07   23.00
  24  -2  -2  262.37   25.70
  24   0  -3   63.99   14.30
 -24  -1  -3   53.89   11.80
  24  -1  -3   64.59   13.70
 -24  -2  -3   59.59   11.90
  24  -2   3   39.30   13.90
  24  -2  -3   56.19   13.10
 -24  -2   3   84.19   12.40
 -24  -3   3   68.99   11.70
  24   0  -4  232.88   24.60
 -24  -1  -4   27.50   10.40
  24  -1  -4   39.70   12.20
  24  -2   4  143.29   21.80
 -24  -2  -4  210.78   19.90
  24  -2  -4  176.38   20.70
 -24  -1  -5  200.98   20.70
  24  -1  -5  173.58   21.20
  24  -2   5   20.40   12.60
  24   0  -6   57.09   13.20
 -24  -1  -6   67.19   12.70
  25  -1   0   37.40   13.10
 -25  -2   0   32.80    9.30
  25  -2   0   35.30   12.80
  25  -1   1   81.19   15.80
  25  -1  -1  117.49   18.20
  25  -2   1   59.59   14.60
 -25  -2  -1  110.59   14.60
 -25  -2   1  109.49   14.30
  25  -2  -1   62.69   14.50
 -25  -1  -2   37.20   10.70
  25  -1  -2   47.50   13.00
 -25  -2  -2  134.79   16.30
  25  -2   2   84.29   16.40
 -25  -2   2  123.89   14.80
 -25  -1  -3   29.10   10.60
  25  -1  -3   43.90   12.50
  25  -2   3   17.60   11.30
 -25  -1  -4  136.59   18.00
  25  -1  -4  129.19   18.80
  25  -2   4   51.89   14.30
  25   0  -5   45.00   12.70
  26  -1   0   70.09   14.50
  26  -1  -1   68.59   14.20
   0   0   0    0.00    0.00

_computing_structure_solution     'SHELXT 2014/5 (Sheldrick, 2014)'
;
_shelx_hkl_checksum              54781
_olex2_submission_special_instructions 'No special instructions were received'
loop_
_space_group_symop_operation_xyz
'x, y, z'
'-x+1/2, -y, z+1/2'
'-x, y+1/2, -z'
'x+1/2, -y+1/2, -z+1/2'
'-x, -y, -z'
'x-1/2, y, -z-1/2'
'x, -y-1/2, z'
'-x-1/2, y-1/2, z-1/2'
loop_
_atom_site_label
_atom_site_type_symbol
_atom_site_fract_x
_atom_site_fract_y
_atom_site_fract_z
_atom_site_U_iso_or_equiv
_atom_site_adp_type
_atom_site_occupancy
_atom_site_site_symmetry_order
_atom_site_calc_flag
_atom_site_refinement_flags_posn
_atom_site_refinement_flags_adp
_atom_site_refinement_flags_occupancy
_atom_site_disorder_assembly
_atom_site_disorder_group
Bi01 Bi 0.68344(6) 0.750000 0.58209(7) 0.0195(3) Uiso 1 2 d S T P . .
Bi02 Bi 0.49876(6) 0.250000 0.76372(7) 0.0209(3) Uiso 1 2 d S T P . .
Cs03 Cs 0.91129(13) 1.250000 0.41904(17) 0.0399(6) Uiso 1 2 d S T P . .
Cs04 Cs 0.75175(13) 0.250000 0.7479(2) 0.0431(6) Uiso 1 2 d S T P . .
Cs05 Cs 0.91328(14) 0.750000 0.91073(19) 0.0447(6) Uiso 1 2 d S T P . .
Cl06 Cl 0.4202(4) 0.0078(10) 0.8368(5) 0.0434(14) Uiso 1 1 d . . . . .
Cl07 Cl 0.5799(5) 0.250000 0.9180(7) 0.0410(19) Uiso 1 2 d S T P . .
Cl08 Cl 0.7543(5) 0.750000 0.7491(7) 0.0386(19) Uiso 1 2 d S T P . .
Cl09 Cl 0.7514(4) 1.0028(11) 0.4969(5) 0.0427(14) Uiso 1 1 d . . . . .
Cl0A Cl 0.5889(4) 0.5043(11) 0.6679(6) 0.0530(18) Uiso 1 1 d . . . . .
Cl0B Cl 0.4120(6) 0.250000 0.5839(7) 0.045(2) Uiso 1 2 d S T P . .
loop_
_atom_type_symbol
_atom_type_description
_atom_type_scat_dispersion_real
_atom_type_scat_dispersion_imag
_atom_type_scat_source
Cl Cl 0.1484 0.1585 'International Tables Vol C Tables 4.2.6.8 and 6.1.1.4'
Cs Cs -0.3680 2.1192 'International Tables Vol C Tables 4.2.6.8 and 6.1.1.4'
Bi Bi -4.1077 10.2566 'International Tables Vol C Tables 4.2.6.8 and 6.1.1.4'
loop_
_geom_angle_atom_site_label_1
_geom_angle_atom_site_label_2
_geom_angle_atom_site_label_3
_geom_angle
_geom_angle_site_symmetry_1
_geom_angle_site_symmetry_3
_geom_angle_publ_flag
Cs04 Bi01 Cs04 112.92(6) 1_565 . ?
Cs04 Bi01 Cs04 112.83(3) 2_664 . ?
Cs04 Bi01 Cs04 112.83(3) 2_664 1_565 ?
Cl08 Bi01 Cs04 56.47(3) . . ?
Cl08 Bi01 Cs04 56.47(3) . 1_565 ?
Cl08 Bi01 Cs04 133.9(2) . 2_664 ?
Cl08 Bi01 Cl0A 88.6(2) . . ?
Cl08 Bi01 Cl0A 88.6(2) . 7_575 ?
Cl08 Bi01 Cl0B 171.9(3) . 5_666 ?
Cl09 Bi01 Cs04 134.44(16) . . ?
Cl09 Bi01 Cs04 134.44(16) 7_575 1_565 ?
Cl09 Bi01 Cs04 56.48(17) . 2_664 ?
Cl09 Bi01 Cs04 56.36(17) 7_575 . ?
Cl09 Bi01 Cs04 56.48(17) 7_575 2_664 ?
Cl09 Bi01 Cs04 56.36(17) . 1_565 ?
Cl09 Bi01 Cl08 97.1(2) . . ?
Cl09 Bi01 Cl08 97.1(2) 7_575 . ?
Cl09 Bi01 Cl09 97.6(3) . 7_575 ?
Cl09 Bi01 Cl0A 170.7(2) 7_575 7_575 ?
Cl09 Bi01 Cl0A 89.0(2) 7_575 . ?
Cl09 Bi01 Cl0A 89.0(2) . 7_575 ?
Cl09 Bi01 Cl0A 170.7(2) . . ?
Cl09 Bi01 Cl0B 88.2(2) . 5_666 ?
Cl09 Bi01 Cl0B 88.2(2) 7_575 5_666 ?
Cl0A Bi01 Cs04 123.62(16) 7_575 2_664 ?
Cl0A Bi01 Cs04 54.84(16) . . ?
Cl0A Bi01 Cs04 123.62(16) . 2_664 ?
Cl0A Bi01 Cs04 122.51(17) . 1_565 ?
Cl0A Bi01 Cs04 122.51(17) 7_575 . ?
Cl0A Bi01 Cs04 54.84(17) 7_575 1_565 ?
Cl0A Bi01 Cl0A 83.8(3) 7_575 . ?
Cl0A Bi01 Cl0B 85.4(2) 7_575 5_666 ?
Cl0A Bi01 Cl0B 85.4(2) . 5_666 ?
Cl0B Bi01 Cs04 54.3(2) 5_666 2_664 ?
Cl0B Bi01 Cs04 123.09(4) 5_666 . ?
Cl0B Bi01 Cs04 123.09(4) 5_666 1_565 ?
Cs03 Bi02 Cs03 110.56(5) 2_675 2_665 ?
Cs03 Bi02 Cs03 73.66(4) 6_547 2_665 ?
Cs03 Bi02 Cs03 73.66(4) 6_547 2_675 ?
Cs03 Bi02 Cs04 70.70(5) 6_547 6_557 ?
Cs03 Bi02 Cs04 70.12(4) 2_675 . ?
Cs03 Bi02 Cs04 113.76(5) 6_547 . ?
Cs03 Bi02 Cs04 70.12(4) 2_665 . ?
Cs03 Bi02 Cs05 109.40(4) 6_547 6_547 ?
Cs03 Bi02 Cs05 70.89(4) 2_665 6_547 ?
Cs03 Bi02 Cs05 176.93(5) 2_675 6_547 ?
Cs04 Bi02 Cs03 111.99(4) 6_557 2_665 ?
Cs04 Bi02 Cs03 111.99(4) 6_557 2_675 ?
Cs04 Bi02 Cs04 175.54(2) 6_557 . ?
Cs04 Bi02 Cs05 108.29(4) . 6_547 ?
Cs04 Bi02 Cs05 69.41(4) 6_557 6_547 ?
Cl06 Bi02 Cs03 55.89(15) 7_565 6_547 ?
Cl06 Bi02 Cs03 129.50(16) . 2_675 ?
Cl06 Bi02 Cs03 129.50(16) 7_565 2_665 ?
Cl06 Bi02 Cs03 55.89(15) . 6_547 ?
Cl06 Bi02 Cs03 56.08(16) . 2_665 ?
Cl06 Bi02 Cs03 56.08(16) 7_565 2_675 ?
Cl06 Bi02 Cs04 55.93(16) 7_565 6_557 ?
Cl06 Bi02 Cs04 126.12(16) . . ?
Cl06 Bi02 Cs04 55.93(16) . 6_557 ?
Cl06 Bi02 Cs04 126.12(16) 7_565 . ?
Cl06 Bi02 Cs05 53.56(16) . 6_547 ?
Cl06 Bi02 Cs05 125.31(16) 7_565 6_547 ?
Cl06 Bi02 Cl06 93.2(3) 7_565 . ?
Cl06 Bi02 Cl0A 90.6(2) . 7_565 ?
Cl06 Bi02 Cl0A 90.6(2) 7_565 . ?
Cl06 Bi02 Cl0A 175.4(2) 7_565 7_565 ?
Cl06 Bi02 Cl0A 175.4(2) . . ?
Cl06 Bi02 Cl0B 89.5(2) . . ?
Cl06 Bi02 Cl0B 89.5(2) 7_565 . ?
Cl07 Bi02 Cs03 55.32(3) . 2_665 ?
Cl07 Bi02 Cs03 57.8(2) . 6_547 ?
Cl07 Bi02 Cs03 55.32(3) . 2_675 ?
Cl07 Bi02 Cs04 128.5(2) . 6_557 ?
Cl07 Bi02 Cs04 56.0(2) . . ?
Cl07 Bi02 Cs05 126.21(3) . 6_547 ?
Cl07 Bi02 Cl06 92.1(2) . . ?
Cl07 Bi02 Cl06 92.1(2) . 7_565 ?
Cl07 Bi02 Cl0A 90.4(2) . . ?
Cl07 Bi02 Cl0A 90.4(2) . 7_565 ?
Cl07 Bi02 Cl0B 177.7(3) . . ?
Cl0A Bi02 Cs03 128.64(16) 7_565 6_547 ?
Cl0A Bi02 Cs03 55.00(16) 7_565 2_665 ?
Cl0A Bi02 Cs03 128.64(16) . 6_547 ?
Cl0A Bi02 Cs03 55.00(16) . 2_675 ?
Cl0A Bi02 Cs03 122.86(16) . 2_665 ?
Cl0A Bi02 Cs03 122.86(16) 7_565 2_675 ?
Cl0A Bi02 Cs04 52.79(16) . . ?
Cl0A Bi02 Cs04 124.79(16) . 6_557 ?
Cl0A Bi02 Cs04 124.79(16) 7_565 6_557 ?
Cl0A Bi02 Cs04 52.78(16) 7_565 . ?
Cl0A Bi02 Cs05 121.94(16) . 6_547 ?
Cl0A Bi02 Cs05 55.50(16) 7_565 6_547 ?
Cl0A Bi02 Cl0A 85.5(3) . 7_565 ?
Cl0A Bi02 Cl0B 87.9(2) 7_565 . ?
Cl0A Bi02 Cl0B 87.9(2) . . ?
Cl0B Bi02 Cs03 124.57(3) . 2_675 ?
Cl0B Bi02 Cs03 124.57(3) . 2_665 ?
Cl0B Bi02 Cs03 124.6(2) . 6_547 ?
Cl0B Bi02 Cs04 121.7(2) . . ?
Cl0B Bi02 Cs04 53.9(2) . 6_557 ?
Cl0B Bi02 Cs05 53.76(3) . 6_547 ?
Cl06 Cs03 Cl06 87.35(15) 6_667 2_664 ?
Cl06 Cs03 Cl06 87.35(15) 4_566 8_775 ?
Cl06 Cs03 Cl06 117.49(11) 6_667 8_775 ?
Cl06 Cs03 Cl06 117.49(11) 4_566 2_664 ?
Cl06 Cs03 Cl06 59.6(2) 4_566 6_667 ?
Cl06 Cs03 Cl06 61.4(2) 8_775 2_664 ?
Cl06 Cs03 Cl07 60.30(18) 4_566 2_674 ?
Cl06 Cs03 Cl07 119.86(18) 4_566 2_664 ?
Cl06 Cs03 Cl07 60.30(18) 6_667 2_664 ?
Cl06 Cs03 Cl07 58.18(16) 6_667 6_667 ?
Cl06 Cs03 Cl07 119.86(18) 6_667 2_674 ?
Cl06 Cs03 Cl07 58.18(16) 4_566 6_667 ?
Cl06 Cs03 Cl08 123.13(17) 4_566 2_674 ?
Cl06 Cs03 Cl08 123.13(17) 6_667 2_674 ?
Cl06 Cs03 Cl0A 120.63(17) 4_566 2_674 ?
Cl06 Cs03 Cl0A 120.63(17) 6_667 8_765 ?
Cl06 Cs03 Cl0A 177.46(18) 4_566 8_765 ?
Cl06 Cs03 Cl0A 177.46(18) 6_667 2_674 ?
Cl07 Cs03 Cl06 59.31(15) 6_667 2_664 ?
Cl07 Cs03 Cl06 118.3(2) 2_664 8_775 ?
Cl07 Cs03 Cl06 56.92(19) 2_674 8_775 ?
Cl07 Cs03 Cl06 56.92(19) 2_664 2_664 ?
Cl07 Cs03 Cl06 59.31(15) 6_667 8_775 ?
Cl07 Cs03 Cl06 118.3(2) 2_674 2_664 ?
Cl07 Cs03 Cl07 175.1(3) 2_674 2_664 ?
Cl07 Cs03 Cl07 88.10(15) 6_667 2_674 ?
Cl07 Cs03 Cl07 88.10(15) 6_667 2_664 ?
Cl07 Cs03 Cl08 178.4(2) 6_667 2_674 ?
Cl07 Cs03 Cl0A 119.55(17) 6_667 8_765 ?
Cl07 Cs03 Cl0A 119.55(17) 6_667 2_674 ?
Cl08 Cs03 Cl06 119.38(16) 2_674 8_775 ?
Cl08 Cs03 Cl06 119.38(16) 2_674 2_664 ?
Cl08 Cs03 Cl07 91.85(15) 2_674 2_664 ?
Cl08 Cs03 Cl07 91.85(15) 2_674 2_674 ?
Cl08 Cs03 Cl0A 59.11(17) 2_674 8_765 ?
Cl08 Cs03 Cl0A 59.11(17) 2_674 2_674 ?
Cl09 Cs03 Cl06 179.74(17) 7_585 2_664 ?
Cl09 Cs03 Cl06 179.74(17) . 8_775 ?
Cl09 Cs03 Cl06 92.82(17) . 4_566 ?
Cl09 Cs03 Cl06 118.33(17) . 2_664 ?
Cl09 Cs03 Cl06 118.33(17) 7_585 8_775 ?
Cl09 Cs03 Cl06 62.46(16) 7_585 4_566 ?
Cl09 Cs03 Cl06 92.82(17) 7_585 6_667 ?
Cl09 Cs03 Cl06 62.46(16) . 6_667 ?
Cl09 Cs03 Cl07 120.63(17) 7_585 6_667 ?
Cl09 Cs03 Cl07 61.42(19) . 2_664 ?
Cl09 Cs03 Cl07 123.3(2) 7_585 2_664 ?
Cl09 Cs03 Cl07 120.63(17) . 6_667 ?
Cl09 Cs03 Cl07 61.42(19) 7_585 2_674 ?
Cl09 Cs03 Cl07 123.3(2) . 2_674 ?
Cl09 Cs03 Cl08 60.67(16) . 2_674 ?
Cl09 Cs03 Cl08 60.67(16) 7_585 2_674 ?
Cl09 Cs03 Cl09 61.9(2) 7_585 . ?
Cl09 Cs03 Cl0A 119.78(17) . 2_674 ?
Cl09 Cs03 Cl0A 119.78(17) 7_585 8_765 ?
Cl09 Cs03 Cl0A 89.43(17) 7_585 2_674 ?
Cl09 Cs03 Cl0A 89.43(17) . 8_765 ?
Cl0A Cs03 Cl06 90.40(17) 8_765 8_775 ?
Cl0A Cs03 Cl06 90.40(17) 2_674 2_664 ?
Cl0A Cs03 Cl06 60.27(16) 2_674 8_775 ?
Cl0A Cs03 Cl06 60.27(16) 8_765 2_664 ?
Cl0A Cs03 Cl07 60.33(19) 2_674 2_674 ?
Cl0A Cs03 Cl07 119.26(19) 2_674 2_664 ?
Cl0A Cs03 Cl07 119.26(19) 8_765 2_674 ?
Cl0A Cs03 Cl07 60.33(19) 8_765 2_664 ?
Cl0A Cs03 Cl0A 59.0(3) 8_765 2_674 ?
Cl06 Cs04 Cl06 58.2(2) 4_556 6_657 ?
Cl06 Cs04 Cl07 147.39(13) 6_657 . ?
Cl06 Cs04 Cl07 147.39(13) 4_556 . ?
Cl06 Cs04 Cl08 118.49(18) 6_657 . ?
Cl06 Cs04 Cl08 118.49(18) 4_556 1_545 ?
Cl06 Cs04 Cl08 60.34(17) 6_657 1_545 ?
Cl06 Cs04 Cl08 60.34(17) 4_556 . ?
Cl06 Cs04 Cl09 120.79(16) 4_556 2_665 ?
Cl06 Cs04 Cl09 60.38(15) 4_556 7_575 ?
Cl06 Cs04 Cl09 91.14(16) 4_556 8_756 ?
Cl06 Cs04 Cl09 91.14(16) 6_657 2_665 ?
Cl06 Cs04 Cl09 120.79(16) 6_657 8_756 ?
Cl06 Cs04 Cl09 89.24(16) 4_556 1_545 ?
Cl06 Cs04 Cl09 60.38(15) 6_657 1_545 ?
Cl06 Cs04 Cl09 89.24(16) 6_657 7_575 ?
Cl08 Cs04 Cl07 90.44(14) 1_545 . ?
Cl08 Cs04 Cl07 90.44(14) . . ?
Cl08 Cs04 Cl08 178.5(3) 1_545 . ?
Cl09 Cs04 Cl07 119.88(16) 1_545 . ?
Cl09 Cs04 Cl07 59.45(15) 2_665 . ?
Cl09 Cs04 Cl07 119.88(16) 7_575 . ?
Cl09 Cs04 Cl07 59.45(15) 8_756 . ?
Cl09 Cs04 Cl08 120.19(19) 2_665 . ?
Cl09 Cs04 Cl08 60.58(19) 1_545 1_545 ?
Cl09 Cs04 Cl08 59.36(19) 2_665 1_545 ?
Cl09 Cs04 Cl08 119.91(19) 1_545 . ?
Cl09 Cs04 Cl08 59.36(19) 8_756 . ?
Cl09 Cs04 Cl08 60.58(19) 7_575 . ?
Cl09 Cs04 Cl08 119.91(19) 7_575 1_545 ?
Cl09 Cs04 Cl08 120.19(19) 8_756 1_545 ?
Cl09 Cs04 Cl09 60.8(2) 8_756 2_665 ?
Cl09 Cs04 Cl09 59.3(2) 1_545 7_575 ?
Cl09 Cs04 Cl09 178.77(16) 2_665 7_575 ?
Cl09 Cs04 Cl09 178.77(16) 8_756 1_545 ?
Cl09 Cs04 Cl09 119.907(15) 2_665 1_545 ?
Cl09 Cs04 Cl09 119.907(15) 8_756 7_575 ?
Cl0A Cs04 Cl06 146.47(17) . 6_657 ?
Cl0A Cs04 Cl06 109.28(17) 7_565 6_657 ?
Cl0A Cs04 Cl06 109.28(17) . 4_556 ?
Cl0A Cs04 Cl06 146.47(17) 7_565 4_556 ?
Cl0A Cs04 Cl07 60.10(16) . . ?
Cl0A Cs04 Cl07 60.10(16) 7_565 . ?
Cl0A Cs04 Cl08 59.55(19) 7_565 1_545 ?
Cl0A Cs04 Cl08 121.95(19) . 1_545 ?
Cl0A Cs04 Cl08 59.55(19) . . ?
Cl0A Cs04 Cl08 121.95(19) 7_565 . ?
Cl0A Cs04 Cl09 88.20(17) . 8_756 ?
Cl0A Cs04 Cl09 59.81(16) . 7_575 ?
Cl0A Cs04 Cl09 90.57(17) . 1_545 ?
Cl0A Cs04 Cl09 119.54(17) . 2_665 ?
Cl0A Cs04 Cl09 119.54(17) 7_565 8_756 ?
Cl0A Cs04 Cl09 59.81(16) 7_565 1_545 ?
Cl0A Cs04 Cl09 90.57(17) 7_565 7_575 ?
Cl0A Cs04 Cl09 88.20(17) 7_565 2_665 ?
Cl0A Cs04 Cl0A 62.4(3) 7_565 . ?
Cl0B Cs04 Cl06 61.04(17) 6_657 4_556 ?
Cl0B Cs04 Cl06 61.04(16) 6_657 6_657 ?
Cl0B Cs04 Cl07 108.2(2) 6_657 . ?
Cl0B Cs04 Cl08 89.29(14) 6_657 . ?
Cl0B Cs04 Cl08 89.29(14) 6_657 1_545 ?
Cl0B Cs04 Cl09 121.40(17) 6_657 7_575 ?
Cl0B Cs04 Cl09 121.40(17) 6_657 1_545 ?
Cl0B Cs04 Cl09 59.78(16) 6_657 2_665 ?
Cl0B Cs04 Cl09 59.78(16) 6_657 8_756 ?
Cl0B Cs04 Cl0A 144.68(15) 6_657 . ?
Cl0B Cs04 Cl0A 144.68(15) 6_657 7_565 ?
Cl06 Cs05 Cl06 62.1(2) 4_556 6_667 ?
Cl06 Cs05 Cl0A 119.17(16) 4_556 2_665 ?
Cl06 Cs05 Cl0A 178.13(17) 4_556 8_766 ?
Cl06 Cs05 Cl0A 89.54(17) 6_667 6_657 ?
Cl06 Cs05 Cl0A 119.17(16) 6_667 8_766 ?
Cl06 Cs05 Cl0A 89.54(17) 4_556 4_566 ?
Cl06 Cs05 Cl0A 178.13(17) 6_667 2_665 ?
Cl06 Cs05 Cl0A 59.76(16) 4_556 6_657 ?
Cl06 Cs05 Cl0A 59.76(16) 6_667 4_566 ?
Cl06 Cs05 Cl0B 60.03(18) 6_667 6_667 ?
Cl06 Cs05 Cl0B 122.12(19) 6_667 6_657 ?
Cl06 Cs05 Cl0B 117.71(17) 6_667 2_665 ?
Cl06 Cs05 Cl0B 117.71(17) 4_556 2_665 ?
Cl06 Cs05 Cl0B 60.03(18) 4_556 6_657 ?
Cl06 Cs05 Cl0B 122.12(19) 4_556 6_667 ?
Cl08 Cs05 Cl06 61.73(16) . 6_667 ?
Cl08 Cs05 Cl06 61.73(16) . 4_556 ?
Cl08 Cs05 Cl09 61.23(16) . 8_756 ?
Cl08 Cs05 Cl09 61.23(16) . 2_675 ?
Cl08 Cs05 Cl0A 121.47(18) . 4_566 ?
Cl08 Cs05 Cl0A 119.98(17) . 8_766 ?
Cl08 Cs05 Cl0A 121.47(18) . 6_657 ?
Cl08 Cs05 Cl0A 119.98(18) . 2_665 ?
Cl08 Cs05 Cl0B 90.32(16) . 6_657 ?
Cl08 Cs05 Cl0B 90.32(16) . 6_667 ?
Cl08 Cs05 Cl0B 179.3(2) . 2_665 ?
Cl09 Cs05 Cl06 122.95(17) 2_675 4_556 ?
Cl09 Cs05 Cl06 91.59(16) 8_756 4_556 ?
Cl09 Cs05 Cl06 91.59(16) 2_675 6_667 ?
Cl09 Cs05 Cl06 122.95(17) 8_756 6_667 ?
Cl09 Cs05 Cl09 60.1(2) 8_756 2_675 ?
Cl09 Cs05 Cl0A 121.20(17) 2_675 4_566 ?
Cl09 Cs05 Cl0A 121.20(17) 8_756 6_657 ?
Cl09 Cs05 Cl0A 88.75(17) 8_756 8_766 ?
Cl09 Cs05 Cl0A 58.75(16) 8_756 2_665 ?
Cl09 Cs05 Cl0A 58.75(16) 2_675 8_766 ?
Cl09 Cs05 Cl0A 177.25(18) 2_675 6_657 ?
Cl09 Cs05 Cl0A 177.25(18) 8_756 4_566 ?
Cl09 Cs05 Cl0A 88.75(17) 2_675 2_665 ?
Cl09 Cs05 Cl0B 119.3(2) 8_756 6_667 ?
Cl09 Cs05 Cl0B 119.33(17) 2_675 2_665 ?
Cl09 Cs05 Cl0B 119.33(17) 8_756 2_665 ?
Cl09 Cs05 Cl0B 59.3(2) 2_675 6_667 ?
Cl09 Cs05 Cl0B 119.3(2) 2_675 6_657 ?
Cl09 Cs05 Cl0B 59.3(2) 8_756 6_657 ?
Cl0A Cs05 Cl0A 59.5(2) 8_766 2_665 ?
Cl0A Cs05 Cl0A 90.04(16) 4_566 8_766 ?
Cl0A Cs05 Cl0A 57.4(2) 4_566 6_657 ?
Cl0A Cs05 Cl0A 118.54(11) 6_657 8_766 ?
Cl0A Cs05 Cl0A 90.04(16) 6_657 2_665 ?
Cl0A Cs05 Cl0A 118.54(11) 4_566 2_665 ?
Cl0A Cs05 Cl0B 60.58(17) 2_665 2_665 ?
Cl0A Cs05 Cl0B 60.58(17) 8_766 2_665 ?
Cl0A Cs05 Cl0B 57.96(17) 4_566 2_665 ?
Cl0A Cs05 Cl0B 57.96(17) 6_657 2_665 ?
Cl0B Cs05 Cl0A 118.7(2) 6_657 8_766 ?
Cl0B Cs05 Cl0A 59.16(19) 6_667 8_766 ?
Cl0B Cs05 Cl0A 59.16(19) 6_657 2_665 ?
Cl0B Cs05 Cl0A 119.4(2) 6_667 6_657 ?
Cl0B Cs05 Cl0A 62.0(2) 6_657 6_657 ?
Cl0B Cs05 Cl0A 62.0(2) 6_667 4_566 ?
Cl0B Cs05 Cl0A 118.7(2) 6_667 2_665 ?
Cl0B Cs05 Cl0A 119.4(2) 6_657 4_566 ?
Cl0B Cs05 Cl0B 89.69(16) 6_667 2_665 ?
Cl0B Cs05 Cl0B 177.7(3) 6_667 6_657 ?
Cl0B Cs05 Cl0B 89.69(16) 6_657 2_665 ?
Bi02 Cl06 Cs03 89.6(2) . 6_547 ?
Bi02 Cl06 Cs03 90.69(19) . 2_665 ?
Bi02 Cl06 Cs04 90.4(2) . 6_557 ?
Bi02 Cl06 Cs05 93.99(19) . 6_547 ?
Cs03 Cl06 Cs03 92.65(15) 6_547 2_665 ?
Cs03 Cl06 Cs04 88.64(16) 6_547 6_557 ?
Cs03 Cl06 Cs05 175.3(2) 6_547 6_547 ?
Cs04 Cl06 Cs03 178.3(2) 6_557 2_665 ?
Cs04 Cl06 Cs05 88.34(15) 6_557 6_547 ?
Cs05 Cl06 Cs03 90.30(16) 6_547 2_665 ?
Bi02 Cl07 Cs03 87.9(3) . 6_547 ?
Bi02 Cl07 Cs03 91.62(15) . 2_675 ?
Bi02 Cl07 Cs03 91.62(15) . 2_665 ?
Bi02 Cl07 Cs04 91.4(3) . . ?
Cs03 Cl07 Cs03 175.1(3) 2_675 2_665 ?
Cs03 Cl07 Cs03 91.90(15) 6_547 2_675 ?
Cs03 Cl07 Cs03 91.90(15) 6_547 2_665 ?
Cs03 Cl07 Cs04 88.12(15) 2_675 . ?
Cs03 Cl07 Cs04 88.12(15) 2_665 . ?
Cs03 Cl07 Cs04 179.3(3) 6_547 . ?
Bi01 Cl08 Cs03 95.2(3) . 2_675 ?
Bi01 Cl08 Cs04 89.43(15) . 1_565 ?
Bi01 Cl08 Cs04 89.43(15) . . ?
Bi01 Cl08 Cs05 156.7(3) . . ?
Cs03 Cl08 Cs04 89.57(14) 2_675 1_565 ?
Cs03 Cl08 Cs04 89.57(14) 2_675 . ?
Cs04 Cl08 Cs04 178.5(3) . 1_565 ?
Cs05 Cl08 Cs03 108.1(2) . 2_675 ?
Cs05 Cl08 Cs04 90.72(14) . . ?
Cs05 Cl08 Cs04 90.72(14) . 1_565 ?
Bi01 Cl09 Cs03 155.3(3) . . ?
Bi01 Cl09 Cs04 89.57(19) . 1_565 ?
Bi01 Cl09 Cs04 89.4(2) . 2_664 ?
Bi01 Cl09 Cs05 96.29(19) . 2_674 ?
Cs03 Cl09 Cs04 89.27(17) . 1_565 ?
Cs03 Cl09 Cs04 91.78(16) . 2_664 ?
Cs03 Cl09 Cs05 108.4(2) . 2_674 ?
Cs04 Cl09 Cs04 178.9(2) 2_664 1_565 ?
Cs05 Cl09 Cs04 88.91(15) 2_674 2_664 ?
Cs05 Cl09 Cs04 90.92(17) 2_674 1_565 ?
Bi01 Cl0A Bi02 176.7(3) . . ?
Bi01 Cl0A Cs03 91.3(2) . 2_675 ?
Bi01 Cl0A Cs04 87.38(19) . . ?
Bi01 Cl0A Cs05 95.5(2) . 6_557 ?
Bi01 Cl0A Cs05 89.32(19) . 2_664 ?
Bi02 Cl0A Cs03 87.06(19) . 2_675 ?
Bi02 Cl0A Cs04 89.8(2) . . ?
Bi02 Cl0A Cs05 87.38(19) . 6_557 ?
Bi02 Cl0A Cs05 92.3(2) . 2_664 ?
Cs03 Cl0A Cs05 89.66(18) 2_675 6_557 ?
Cs03 Cl0A Cs05 179.3(2) 2_675 2_664 ?
Cs04 Cl0A Cs03 90.60(17) . 2_675 ?
Cs04 Cl0A Cs05 177.2(2) . 6_557 ?
Cs04 Cl0A Cs05 89.75(18) . 2_664 ?
Cs05 Cl0A Cs05 89.96(16) 6_557 2_664 ?
Bi01 Cl0B Bi02 175.2(4) 5_666 . ?
Bi01 Cl0B Cs04 87.7(3) 5_666 6_557 ?
Bi01 Cl0B Cs05 91.06(16) 5_666 6_557 ?
Bi01 Cl0B Cs05 93.8(3) 5_666 2_664 ?
Bi01 Cl0B Cs05 91.06(16) 5_666 6_547 ?
Bi02 Cl0B Cs04 87.5(2) . 6_557 ?
Bi02 Cl0B Cs05 90.9(3) . 2_664 ?
Bi02 Cl0B Cs05 88.91(16) . 6_547 ?
Bi02 Cl0B Cs05 88.91(16) . 6_557 ?
Cs04 Cl0B Cs05 89.66(16) 6_557 6_547 ?
Cs04 Cl0B Cs05 178.4(3) 6_557 2_664 ?
Cs04 Cl0B Cs05 89.66(16) 6_557 6_557 ?
Cs05 Cl0B Cs05 90.31(16) 6_547 2_664 ?
Cs05 Cl0B Cs05 90.31(16) 6_557 2_664 ?
Cs05 Cl0B Cs05 177.7(3) 6_557 6_547 ?
loop_
_geom_bond_atom_site_label_1
_geom_bond_atom_site_label_2
_geom_bond_distance
_geom_bond_site_symmetry_2
_geom_bond_publ_flag
Bi01 Cs04 4.574(3) 2_664 ?
Bi01 Cs04 4.5808(17) 1_565 ?
Bi01 Cs04 4.5808(17) . ?
Bi01 Cl08 2.569(9) . ?
Bi01 Cl09 2.566(8) . ?
Bi01 Cl09 2.566(8) 7_575 ?
Bi01 Cl0A 2.809(8) . ?
Bi01 Cl0A 2.809(8) 7_575 ?
Bi01 Cl0B 2.819(10) 5_666 ?
Bi02 Cs03 4.6454(16) 2_675 ?
Bi02 Cs03 4.6454(16) 2_665 ?
Bi02 Cs03 4.493(3) 6_547 ?
Bi02 Cs04 4.594(3) 6_557 ?
Bi02 Cs04 4.708(3) . ?
Bi02 Cs05 4.7338(17) 6_547 ?
Bi02 Cl06 2.546(7) 7_565 ?
Bi02 Cl06 2.546(7) . ?
Bi02 Cl07 2.535(9) . ?
Bi02 Cl0A 2.860(8) . ?
Bi02 Cl0A 2.860(8) 7_565 ?
Bi02 Cl0B 2.871(10) . ?
Cs03 Cl06 3.855(7) 2_664 ?
Cs03 Cl06 3.855(7) 8_775 ?
Cs03 Cl06 3.720(7) 4_566 ?
Cs03 Cl06 3.720(7) 6_667 ?
Cs03 Cl07 3.803(10) 6_667 ?
Cs03 Cl07 3.8217(9) 2_674 ?
Cs03 Cl07 3.8217(9) 2_664 ?
Cs03 Cl08 3.809(9) 2_674 ?
Cs03 Cl09 3.669(7) . ?
Cs03 Cl09 3.669(7) 7_585 ?
Cs03 Cl0A 3.810(8) 8_765 ?
Cs03 Cl0A 3.810(8) 2_674 ?
Cs04 Cl06 3.806(7) 4_556 ?
Cs04 Cl06 3.806(7) 6_657 ?
Cs04 Cl07 3.904(10) . ?
Cs04 Cl08 3.8185(8) . ?
Cs04 Cl08 3.8185(8) 1_545 ?
Cs04 Cl09 3.813(8) 8_756 ?
Cs04 Cl09 3.814(8) 7_575 ?
Cs04 Cl09 3.813(8) 2_665 ?
Cs04 Cl09 3.814(8) 1_545 ?
Cs04 Cl0A 3.749(8) 7_565 ?
Cs04 Cl0A 3.749(8) . ?
Cs04 Cl0B 3.715(11) 6_657 ?
Cs05 Cl06 3.818(7) 6_667 ?
Cs05 Cl06 3.818(7) 4_556 ?
Cs05 Cl08 3.645(10) . ?
Cs05 Cl09 3.772(7) 2_675 ?
Cs05 Cl09 3.772(7) 8_756 ?
Cs05 Cl0A 3.905(8) 4_566 ?
Cs05 Cl0A 3.912(8) 2_665 ?
Cs05 Cl0A 3.912(8) 8_766 ?
Cs05 Cl0A 3.905(8) 6_657 ?
Cs05 Cl0B 3.8189(8) 6_657 ?
Cs05 Cl0B 3.973(10) 2_665 ?
Cs05 Cl0B 3.8189(9) 6_667 ?
