#------------------------------------------------------------------------------
#$Date: 2022-03-04 03:33:31 +0200 (Fri, 04 Mar 2022) $
#$Revision: 273312 $
#$URL: file:///home/coder/svn-repositories/cod/cif/8/00/05/8000567.cif $
#------------------------------------------------------------------------------
#
# This file is available in the Crystallography Open Database (COD),
# http://www.crystallography.net/
#
# All data on this site have been placed in the public domain by the
# contributors.
#
data_8000567
loop_
_publ_author_name
'Chen, Yi'
'Xie, Yujun'
'Li, Zhen'
_publ_section_title
;
 Room-Temperature Phosphorescence of Nicotinic Acid and Isonicotinic Acid:
 Efficient Intermolecular Hydrogen-Bond Interaction in Molecular Array.
;
_journal_issue                   7
_journal_name_full               'The journal of physical chemistry letters'
_journal_page_first              1652
_journal_page_last               1659
_journal_paper_doi               10.1021/acs.jpclett.2c00118
_journal_volume                  13
_journal_year                    2022
_chemical_formula_moiety         'C6 H5 N O2'
_chemical_formula_sum            'C6 H5 N O2'
_chemical_formula_weight         123.112
_space_group_crystal_system      triclinic
_space_group_IT_number           2
_space_group_name_Hall           '-P 1'
_space_group_name_H-M_alt        'P -1'
_symmetry_Int_Tables_number      2
_atom_sites_solution_primary     iterative
_audit_creation_date             2020-10-20
_audit_creation_method
;
Olex2 1.3
(compiled 2020.07.31 svn.rc2a77460 for OlexSys, GUI svn.r6145)
;
_cell_angle_alpha                103.707(10)
_cell_angle_beta                 114.869(11)
_cell_angle_gamma                106.137(10)
_cell_formula_units_Z            2
_cell_length_a                   6.3923(7)
_cell_length_b                   7.2424(9)
_cell_length_c                   7.4683(8)
_cell_measurement_reflns_used    1075
_cell_measurement_temperature    293
_cell_measurement_theta_max      72.9420
_cell_measurement_theta_min      6.9450
_cell_volume                     275.38(8)
_computing_cell_refinement       'CrysAlisPro 1.171.39.46e (Rigaku OD, 2018)'
_computing_data_collection       'CrysAlisPro 1.171.39.46e (Rigaku OD, 2018)'
_computing_data_reduction        'CrysAlisPro 1.171.39.46e (Rigaku OD, 2018)'
_computing_molecular_graphics    'Olex2 1.3 (Dolomanov et al., 2009)'
_computing_publication_material  'Olex2 1.3 (Dolomanov et al., 2009)'
_computing_structure_refinement  'olex2.refine 1.3 (Bourhis et al., 2015)'
_computing_structure_solution    'olex2.solve 1.3 (Bourhis et al., 2015)'
_diffrn_ambient_temperature      293
_diffrn_detector                 'CCD plate'
_diffrn_detector_area_resol_mean 5.1975
_diffrn_detector_type            AtlasS2
_diffrn_measured_fraction_theta_full 0.9753
_diffrn_measured_fraction_theta_max 0.9754
_diffrn_measurement_details
;
List of Runs (angles in degrees, time in seconds):

  # Type    Start    End  Width  t~exp~   \w     \q     \k     \f   Frames
--------------------------------------------------------------------------
  1  \w    -88.00  -4.00   1.00    1.00    --  -41.12 125.00   0.00   84
  2  \w   -108.00 -76.00   1.00    1.00    --  -41.12 -37.00 -90.00   32
  3  \w    -75.00 -17.00   1.00    1.00    --  -41.12 -37.00 -90.00   58
  4  \w     17.00  54.00   1.00    1.00    --   41.12 -57.00 150.00   37
  5  \w    -27.00  15.00   1.00    1.00    --   41.12 -57.00 150.00   42
  6  \w     18.00  53.00   1.00    1.00    --   41.12  37.00 -60.00   35
  7  \w    106.00 178.00   1.00    1.00    --  105.32  61.00   0.00   72
  8  \w     96.00 168.00   1.00    1.00    --  105.32 125.00-180.00   72
  9  \w     48.00 131.00   1.00    1.00    --  105.32 -61.00-120.00   83
 10  \w     52.00 110.00   1.00    1.00    --  105.32-125.00  60.00   58
 11  \w     77.00 168.00   1.00    1.00    --  105.32  77.00-120.00   91
 12  \w     83.00 163.00   1.00    1.00    --  105.32  30.00 -30.00   80
 13  \w     64.00 109.00   1.00    1.00    --  105.32 -94.00-150.00   45
 14  \w    127.00 152.00   1.00    1.00    --  105.32 125.00-150.00   25
 15  \w     23.00  63.00   1.00    1.00    --  105.32 -94.00-150.00   40
 16  \w     35.00 111.00   1.00    1.00    --  105.32-125.00-180.00   76
;
_diffrn_measurement_device       'four-circle diffractometer'
_diffrn_measurement_device_type  'SuperNova, Dual, Cu at home/near, AtlasS2'
_diffrn_measurement_method       '\w scans'
_diffrn_orient_matrix_type
'CrysAlisPro convention (1999,Acta A55,543-557)'
_diffrn_orient_matrix_UB_11      0.0905934000
_diffrn_orient_matrix_UB_12      -0.1079097000
_diffrn_orient_matrix_UB_13      0.1532040000
_diffrn_orient_matrix_UB_21      -0.1281574000
_diffrn_orient_matrix_UB_22      -0.2102013000
_diffrn_orient_matrix_UB_23      -0.1959943000
_diffrn_orient_matrix_UB_31      0.2485780000
_diffrn_orient_matrix_UB_32      0.0537168000
_diffrn_orient_matrix_UB_33      -0.0035264000
_diffrn_radiation_monochromator  mirror
_diffrn_radiation_probe          x-ray
_diffrn_radiation_type           'Cu K\a'
_diffrn_radiation_wavelength     1.54184
_diffrn_reflns_av_R_equivalents  0.0135
_diffrn_reflns_av_unetI/netI     0.0183
_diffrn_reflns_Laue_measured_fraction_full 0.9753
_diffrn_reflns_Laue_measured_fraction_max 0.9754
_diffrn_reflns_limit_h_max       7
_diffrn_reflns_limit_h_min       -5
_diffrn_reflns_limit_k_max       8
_diffrn_reflns_limit_k_min       -8
_diffrn_reflns_limit_l_max       5
_diffrn_reflns_limit_l_min       -8
_diffrn_reflns_number            1470
_diffrn_reflns_point_group_measured_fraction_full 0.9753
_diffrn_reflns_point_group_measured_fraction_max 0.9754
_diffrn_reflns_theta_full        66.9339
_diffrn_reflns_theta_max         66.93
_diffrn_reflns_theta_min         6.96
_diffrn_source                   'micro-focus sealed X-ray tube'
_diffrn_source_type              'SuperNova (Cu) X-ray Source'
_exptl_absorpt_coefficient_mu    0.961
_exptl_absorpt_correction_T_max  1.00000
_exptl_absorpt_correction_T_min  0.35325
_exptl_absorpt_correction_type   multi-scan
_exptl_absorpt_process_details
;
CrysAlisPro 1.171.39.46e (Rigaku Oxford Diffraction, 2018)
Empirical absorption correction using spherical harmonics,
 implemented in SCALE3 ABSPACK scaling algorithm.
;
_exptl_crystal_density_diffrn    1.485
_exptl_crystal_description       block
_exptl_crystal_F_000             128.482
_exptl_crystal_size_max          0.4
_exptl_crystal_size_mid          0.3
_exptl_crystal_size_min          0.2
_refine_diff_density_max         0.2680
_refine_diff_density_min         -0.2998
_refine_diff_density_rms         0.0803
_refine_ls_d_res_high            0.8379
_refine_ls_d_res_low             6.3579
_refine_ls_goodness_of_fit_ref   1.0905
_refine_ls_hydrogen_treatment    refall
_refine_ls_matrix_type           full
_refine_ls_number_constraints    0
_refine_ls_number_parameters     102
_refine_ls_number_reflns         950
_refine_ls_number_restraints     0
_refine_ls_restrained_S_all      1.0905
_refine_ls_R_factor_all          0.0597
_refine_ls_R_factor_gt           0.0521
_refine_ls_shift/su_max          0.0000
_refine_ls_shift/su_mean         0.0000
_refine_ls_structure_factor_coef Fsqd
_refine_ls_weighting_details
'w=1/[\s^2^(Fo^2^)+(0.1531P)^2^] where P=(Fo^2^+2Fc^2^)/3'
_refine_ls_weighting_scheme      calc
_refine_ls_wR_factor_gt          0.1619
_refine_ls_wR_factor_ref         0.1890
_reflns_Friedel_coverage         0.0
_reflns_limit_h_max              6
_reflns_limit_h_min              -7
_reflns_limit_k_max              8
_reflns_limit_k_min              -8
_reflns_limit_l_max              8
_reflns_limit_l_min              0
_reflns_number_gt                859
_reflns_number_total             950
_reflns_threshold_expression     I>=2u(I)
_iucr_refine_instructions_details
;
TITL p-sa_a.res in P-1
REM Old TITL p-sa_a.res in P-1
REM SHELXT solution in P-1: R1 0.182, Rweak 0.004, Alpha 0.079
REM <I/s> 0.000 for 0 systematic absences, Orientation as input
REM Formula found by SHELXT: C6 N O2
CELL 1.54184 6.3923 7.2424 7.4683 103.707 114.869 106.137
ZERR 2 0.0007 0.0009 0.0008 0.01 0.011 0.01
LATT 1
SFAC C H N O
UNIT 12 10 2 4

L.S. 10
PLAN  20
CONF
BOND 
FMAP 2
list 4
MORE -1
BOND $H
ACTA 
WGHT 0.153094 0
FVAR 2.570128
REM <olex2.extras>
REM <HklSrc "%.\\p-SA.hkl">
REM </olex2.extras>

O001  4     0.62740  0.78182  0.71110  11.00000  0.06630  0.09294  0.04459 =
 0.04162  0.03670  0.05139 
O002  4     0.94483  0.68618  0.77112  11.00000  0.06745  0.09829  0.04750 =
 0.04515  0.03109  0.05423 
N003  3     0.68894  0.76230  0.06946  11.00000  0.04703  0.05331  0.03543 =
 0.02011  0.02178  0.02035 
C004  1     0.55914  0.79341  0.32643  11.00000  0.04297  0.05678  0.03806 =
 0.02184  0.02163  0.02616 
C005  1     0.74869  0.74469  0.45305  11.00000  0.03941  0.03891  0.03239 =
 0.01443  0.01722  0.01513 
C006  1     0.78469  0.73484  0.66283  11.00000  0.04256  0.04750  0.03659 =
 0.02000  0.01906  0.02019 
C007  1     0.90711  0.70399  0.38346  11.00000  0.04338  0.05084  0.04067 =
 0.02230  0.02093  0.02544 
C008  1     0.86936  0.71307  0.19023  11.00000  0.04695  0.05647  0.04019 =
 0.02223  0.02626  0.02451 
C009  1     0.53566  0.80103  0.13634  11.00000  0.04543  0.06132  0.03935 =
 0.02681  0.01976  0.02866 
H009  2     0.41166  0.83328  0.04764  11.00000  0.06679 
H007  2     1.03622  0.67868  0.46028  11.00000  0.05857 
H001  2     0.66067  0.77262  0.85782  11.00000  0.08497 
H008  2     0.97259  0.68247  0.12894  11.00000  0.07078 
H004  2     0.44146  0.82318  0.37057  11.00000  0.07109 
HKLF 4

END
Q1 1 0.95 0.666667 0.916667 11 0.05 0.27

  REM The information below was added by Olex2.
  REM
  REM R1 = 0.0521 for 859 Fo > 4sig(Fo) and 0.0597 for all 950 data
  REM 102 parameters refined using 0 restraints
  REM Highest difference peak 0.2680, deepest hole -0.2998
  REM Mean Shift 0.0000, Max Shift 0.0000.

  REM +++ Tabular Listing of Refinement Information +++
  REM R1_all = 0.0597
  REM R1_gt = 0.0521
  REM wR_ref = 0.1890
  REM GOOF = 1.0905
  REM Shift_max = 0.0000
  REM Shift_mean = 0.0000
  REM Reflections_all = 950
  REM Reflections_gt = 859
  REM Parameters = 102
  REM Hole = -0.2998
  REM Peak = 0.2680
  REM Flack = n/a

  
;
_cod_data_source_file            jz2c00118_si_003.cif
_cod_data_source_block           p-SA
_cod_database_code               8000567
_chemical_oxdiff_formula         C6H5NO2
_reflns_odcompleteness_completeness 97.44
_reflns_odcompleteness_iscentric 1
_reflns_odcompleteness_theta     66.97
_olex2_refinement_description
;
;
_iucr_refine_fcf_details
;
data_p-SA
_computing_structure_refinement   'olex2.refine 1.3 (Bourhis et al., 2015)'
_shelx_refln_list_code            4
loop_
  _space_group_symop_id
  _space_group_symop_operation_xyz
  1  x,y,z
  2  -x,-y,-z

_space_group_crystal_system       triclinic
_space_group_IT_number            2
_space_group_name_H-M_alt         'P -1'
_space_group_name_Hall            '-P 1'
_symmetry_space_group_name_H-M    'P -1'
_symmetry_space_group_name_Hall   '-P 1'
_symmetry_Int_Tables_number       2
_cell_length_a                    6.3923(7)
_cell_length_b                    7.2424(9)
_cell_length_c                    7.4683(8)
_cell_angle_alpha                 103.707(10)
_cell_angle_beta                  114.869(11)
_cell_angle_gamma                 106.137(10)
_cell_volume                      275.38(8)
loop_
  _refln_index_h
  _refln_index_k
  _refln_index_l
  _refln_F_squared_calc
  _refln_F_squared_meas
  _refln_F_squared_sigma
  _refln_F_squared_weight
  _refln_observed_status
-7 -1 4 0.622 0.513 0.073 101.780 o
-7 0 4 14.850 13.151 0.356 0.276 o
-7 0 5 2.211 2.298 0.213 8.304 o
-7 0 6 5.634 6.716 0.350 1.405 o
-7 1 2 0.860 0.945 0.124 39.978 o
-7 1 3 1.462 1.456 0.180 16.440 o
-7 1 4 0.726 0.920 0.154 35.192 o
-7 1 5 2.414 1.945 0.206 8.369 o
-7 1 6 0.272 0.250 0.071 202.215 o
-7 2 1 0.699 0.680 0.106 60.275 o
-7 2 2 0.029 -0.008 0.051 509.804 o
-7 2 3 4.815 4.996 0.398 1.893 o
-7 2 4 16.211 18.904 0.908 0.176 o
-7 2 5 3.611 3.700 0.182 3.940 o
-7 2 6 4.404 4.505 0.257 2.567 o
-7 3 1 3.170 3.073 0.260 4.538 o
-7 3 2 1.017 0.911 0.179 24.863 o
-7 3 3 0.087 0.227 0.086 172.308 o
-7 3 4 0.155 0.189 0.056 358.194 o
-7 4 1 0.177 0.245 0.073 217.957 o
-7 4 2 0.380 0.601 0.184 35.052 o
-7 4 3 3.389 3.771 0.500 2.512 o
-7 4 4 5.133 6.251 0.474 1.449 o
-7 4 5 1.418 1.647 0.192 15.169 o
-7 5 1 2.622 2.272 0.220 6.937 o
-7 5 2 0.055 0.077 0.029 1483.590 o
-7 5 3 5.226 7.574 0.448 1.294 o
-6 -3 4 1.133 1.247 0.124 28.483 o
-6 -3 5 1.170 1.102 0.123 29.519 o
-6 -3 6 18.610 18.242 0.516 0.164 o
-6 -2 2 0.085 0.103 0.047 565.692 o
-6 -2 3 0.185 0.101 0.048 462.978 o
-6 -2 4 3.953 3.711 0.272 3.184 o
-6 -2 5 1.437 1.465 0.128 20.735 o
-6 -2 6 0.267 0.264 0.049 336.185 o
-6 -2 7 1.316 1.585 0.171 17.927 o
-6 -1 1 3.322 3.020 0.253 4.411 o
-6 -1 2 3.218 2.969 0.235 4.748 o
-6 -1 3 0.431 0.364 0.065 167.080 o
-6 -1 4 9.647 9.833 0.355 0.580 o
-6 -1 5 0.702 0.588 0.086 76.466 o
-6 -1 6 6.156 6.484 0.441 1.216 o
-6 -1 7 0.145 0.083 0.045 558.512 o
-6 0 1 97.366 97.526 2.882 0.006 o
-6 0 2 0.009 0.008 0.028 1729.140 o
-6 0 3 3.077 3.560 0.183 4.855 o
-6 0 4 6.318 5.855 0.229 1.437 o
-6 0 5 6.286 6.621 0.319 1.277 o
-6 0 6 0.556 0.646 0.162 39.520 o
-6 0 7 4.581 7.544 0.522 1.356 o
-6 1 1 7.600 6.810 0.303 1.001 o
-6 1 2 3.734 3.811 0.221 3.566 o
-6 1 3 2.796 2.408 0.143 7.237 o
-6 1 4 38.578 35.676 0.780 0.040 o
-6 1 5 1.138 1.026 0.134 29.301 o
-6 1 6 2.225 2.598 0.316 5.904 o
-6 1 7 0.268 0.348 0.114 90.783 o
-6 2 1 169.763 169.745 1.660 0.002 o
-6 2 2 0.152 0.096 0.056 381.421 o
-6 2 3 15.893 17.511 0.592 0.203 o
-6 2 4 7.556 7.003 0.420 0.934 o
-6 2 5 5.662 5.134 0.250 1.764 o
-6 2 6 1.021 0.952 0.174 25.246 o
-6 2 7 3.485 4.864 0.335 2.843 o
-6 3 1 9.719 10.898 0.360 0.536 o
-6 3 2 1.432 1.461 0.175 17.053 o
-6 3 3 7.482 6.594 0.830 0.714 o
-6 3 4 46.188 43.265 0.721 0.028 o
-6 3 5 2.653 2.714 0.229 6.160 o
-6 3 6 9.921 9.630 0.622 0.512 o
-6 4 1 94.390 98.279 3.735 0.006 o
-6 4 2 1.487 1.275 0.173 17.618 o
-6 4 3 7.815 8.498 0.326 0.835 o
-6 4 4 4.474 3.910 0.305 2.588 o
-6 4 5 3.519 2.714 0.210 4.644 o
-6 4 6 0.705 0.751 0.145 40.701 o
-6 5 1 4.498 4.964 0.484 1.826 o
-6 5 2 0.556 0.489 0.093 88.120 o
-6 5 3 5.439 4.869 0.733 1.146 o
-6 5 4 15.781 14.698 0.562 0.230 o
-6 5 5 1.699 1.729 0.134 15.678 o
-6 6 1 9.964 10.194 1.710 0.256 o
-6 6 2 0.936 0.551 0.144 37.668 o
-6 6 3 0.002 -0.038 0.042 781.761 o
-6 6 4 0.548 0.369 0.070 128.501 o
-6 7 1 0.444 0.162 0.061 207.307 o
-5 -4 3 0.000 0.015 0.030 1477.040 o
-5 -4 4 0.480 0.424 0.091 102.340 o
-5 -4 5 10.090 10.564 0.462 0.507 o
-5 -4 6 60.319 60.688 1.105 0.016 o
-5 -4 7 1.450 1.205 0.147 20.710 o
-5 -3 1 1.580 1.677 0.216 12.605 o
-5 -3 2 4.240 4.193 0.214 2.920 o
-5 -3 3 9.578 10.420 0.522 0.531 o
-5 -3 4 6.422 6.069 0.410 1.232 o
-5 -3 5 6.654 6.782 0.488 1.051 o
-5 -3 6 0.203 0.173 0.083 173.579 o
-5 -3 7 0.478 0.478 0.098 90.069 o
-5 -2 1 1.981 1.881 0.223 9.763 o
-5 -2 2 0.750 0.726 0.170 32.338 o
-5 -2 3 0.198 0.254 0.066 246.163 o
-5 -2 4 2.191 1.913 0.179 10.024 o
-5 -2 5 15.138 18.017 0.813 0.201 o
-5 -2 6 148.788 174.444 2.489 0.002 o
-5 -2 7 3.343 3.836 0.353 3.283 o
-5 -2 8 6.659 7.992 0.447 0.980 o
-5 -1 1 23.776 25.374 0.592 0.095 o
-5 -1 2 3.081 2.650 0.188 5.704 o
-5 -1 3 19.370 20.644 0.460 0.144 o
-5 -1 4 19.435 19.990 0.763 0.141 o
-5 -1 5 0.078 0.165 0.260 20.022 o
-5 -1 6 0.057 0.065 0.091 162.575 o
-5 -1 7 0.302 0.441 0.135 64.543 o
-5 -1 8 0.645 0.716 0.163 36.416 o
-5 0 1 12.747 11.411 0.331 0.371 o
-5 0 2 0.586 0.438 0.065 122.806 o
-5 0 3 0.664 0.796 0.092 67.226 o
-5 0 4 0.016 0.243 0.059 374.055 o
-5 0 5 6.670 7.625 0.351 1.068 o
-5 0 6 130.561 143.222 2.484 0.003 o
-5 0 7 1.420 1.521 0.266 11.243 o
-5 0 8 6.167 7.099 0.518 1.083 o
-5 1 1 160.099 157.135 1.221 0.002 o
-5 1 2 0.033 0.007 0.020 3140.060 o
-5 1 3 2.308 3.335 0.173 6.968 o
-5 1 4 21.916 20.540 0.385 0.124 o
-5 1 5 3.271 3.546 0.176 4.577 o
-5 1 6 0.007 0.027 0.034 1181.060 o
-5 1 7 1.986 1.670 0.269 8.712 o
-5 1 8 1.271 1.609 0.213 14.980 o
-5 2 1 30.252 30.497 0.436 0.062 o
-5 2 2 1.252 1.158 0.098 30.398 o
-5 2 3 1.693 2.216 0.127 13.864 o
-5 2 4 15.611 11.020 0.289 0.286 o
-5 2 5 0.933 0.987 0.102 42.800 o
-5 2 6 24.116 24.822 0.595 0.095 o
-5 2 7 0.075 0.030 0.054 455.781 o
-5 3 1 357.746 339.932 1.815 0.000 o
-5 3 2 0.822 0.769 0.088 59.010 o
-5 3 3 9.050 8.984 0.370 0.662 o
-5 3 4 15.833 13.653 0.566 0.239 o
-5 3 5 4.573 4.001 0.302 2.502 o
-5 3 6 0.283 0.180 0.061 260.791 o
-5 3 7 1.790 1.957 0.148 13.330 o
-5 4 1 37.460 35.488 0.734 0.042 o
-5 4 2 1.460 1.502 0.166 17.287 o
-5 4 3 3.937 3.773 0.310 3.018 o
-5 4 4 30.213 31.912 0.891 0.059 o
-5 4 5 0.373 0.262 0.069 182.571 o
-5 4 6 0.000 0.019 0.030 1481.030 o
-5 5 1 233.119 255.845 2.462 0.001 o
-5 5 2 0.002 0.077 0.059 386.800 o
-5 5 3 9.483 10.769 0.543 0.522 o
-5 5 4 7.848 6.757 0.376 0.932 o
-5 5 5 4.101 3.870 0.246 3.079 o
-5 6 1 19.204 22.899 1.048 0.124 o
-5 6 2 2.992 2.826 0.243 5.191 o
-5 6 3 2.732 3.099 0.242 5.431 o
-5 6 4 11.715 10.263 1.238 0.302 o
-5 7 1 49.752 53.815 1.349 0.021 o
-5 7 2 0.197 0.226 0.089 150.936 o
-5 7 3 0.987 0.937 0.102 41.814 o
-4 -5 2 5.404 4.001 0.670 1.329 o
-4 -5 3 0.381 0.212 0.067 196.242 o
-4 -5 4 0.067 0.012 0.029 1535.460 o
-4 -5 6 11.506 11.829 0.545 0.392 o
-4 -5 7 0.095 0.109 0.056 401.957 o
-4 -4 1 0.366 0.280 0.043 301.993 o
-4 -4 2 9.095 10.148 0.477 0.584 o
-4 -4 3 5.376 5.302 0.389 1.647 o
-4 -4 4 1.718 1.844 0.260 9.649 o
-4 -4 5 16.376 16.986 0.771 0.193 o
-4 -4 6 1.533 1.257 0.221 13.899 o
-4 -4 7 0.011 0.026 0.067 304.976 o
-4 -4 8 0.010 0.038 0.038 940.106 o
-4 -3 1 0.370 0.431 0.115 80.581 o
-4 -3 2 14.581 15.269 0.705 0.240 o
-4 -3 3 0.028 0.147 0.070 273.380 o
-4 -3 4 4.818 5.261 0.297 2.033 o
-4 -3 5 43.529 47.834 0.946 0.028 o
-4 -3 6 94.482 101.316 1.382 0.006 o
-4 -3 7 1.749 1.710 0.301 8.419 o
-4 -3 8 0.153 0.401 0.098 123.314 o
-4 -2 1 4.798 5.108 0.388 1.900 o
-4 -2 2 51.170 51.796 0.760 0.022 o
-4 -2 3 51.894 54.825 1.117 0.020 o
-4 -2 4 19.786 19.759 0.476 0.144 o
-4 -2 5 24.153 24.413 0.540 0.096 o
-4 -2 6 4.568 4.480 0.293 2.383 o
-4 -2 7 0.018 -0.035 0.067 305.156 o
-4 -2 8 0.005 0.030 0.035 1113.920 o
-4 -1 1 3.658 2.739 0.190 4.528 o
-4 -1 2 9.268 9.221 0.277 0.651 o
-4 -1 3 2.257 2.495 0.156 8.889 o
-4 -1 4 42.586 43.302 0.556 0.031 o
-4 -1 5 96.078 94.949 1.886 0.006 o
-4 -1 6 308.203 297.080 3.488 0.001 o
-4 -1 7 9.233 9.424 0.672 0.547 o
-4 -1 8 3.617 3.329 0.362 3.215 o
-4 0 1 3.976 4.932 1.011 0.932 o
-4 0 2 88.511 91.835 1.555 0.007 o
-4 0 3 177.331 184.772 2.160 0.002 o
-4 0 4 55.367 55.843 0.713 0.019 o
-4 0 5 5.898 5.224 0.196 1.709 o
-4 0 6 6.464 6.790 0.300 1.229 o
-4 0 7 0.069 -0.024 0.062 347.262 o
-4 0 8 0.110 0.070 0.045 594.279 o
-4 1 1 25.790 25.951 0.861 0.083 o
-4 1 2 0.228 0.383 0.100 114.648 o
-4 1 3 1.552 1.332 0.194 15.261 o
-4 1 4 47.648 44.631 0.828 0.026 o
-4 1 5 58.444 58.674 1.237 0.017 o
-4 1 6 319.634 334.675 2.699 0.001 o
-4 1 7 6.083 5.989 0.504 1.218 o
-4 1 8 7.111 7.607 0.474 0.925 o
-4 2 1 27.631 23.343 0.839 0.081 o
-4 2 2 24.614 28.184 0.919 0.082 o
-4 2 3 107.735 126.568 2.007 0.004 o
-4 2 4 36.919 40.197 0.590 0.040 o
-4 2 5 0.034 -0.019 0.035 1109.360 o
-4 2 6 4.651 4.489 0.373 2.136 o
-4 2 7 0.010 0.078 0.065 317.841 o
-4 3 1 39.040 36.088 1.072 0.039 o
-4 3 2 0.024 0.032 0.038 934.916 o
-4 3 3 0.125 0.202 0.064 290.960 o
-4 3 4 2.650 2.634 0.295 5.393 o
-4 3 5 10.658 10.164 0.761 0.429 o
-4 3 6 102.136 103.988 1.596 0.005 o
-4 3 7 0.732 0.874 0.156 35.150 o
-4 4 1 163.343 155.934 2.876 0.002 o
-4 4 2 0.274 0.411 0.100 110.182 o
-4 4 3 6.447 6.721 0.426 1.145 o
-4 4 4 13.090 10.096 0.476 0.371 o
-4 4 5 0.237 0.218 0.111 100.671 o
-4 4 6 1.048 1.238 0.141 27.746 o
-4 5 1 37.200 38.680 1.012 0.039 o
-4 5 2 0.362 0.277 0.136 64.008 o
-4 5 3 0.233 0.096 0.117 94.011 o
-4 5 4 3.047 2.934 0.433 3.390 o
-4 5 5 1.033 1.007 0.191 22.221 o
-4 6 1 129.372 142.038 2.710 0.003 o
-4 6 2 0.045 0.032 0.097 143.756 o
-4 6 3 0.193 0.336 0.118 88.555 o
-4 6 4 4.702 5.038 0.378 1.974 o
-4 7 1 19.922 21.203 0.931 0.128 o
-4 7 2 2.183 2.428 0.312 6.231 o
-4 7 3 0.258 0.179 0.085 160.481 o
-4 8 1 35.683 43.632 1.063 0.038 o
-3 -6 2 1.539 1.372 0.195 15.104 o
-3 -6 4 5.652 4.610 0.229 1.903 o
-3 -6 5 0.462 0.481 0.074 127.241 o
-3 -6 6 1.240 1.355 0.179 19.297 o
-3 -6 7 4.998 4.751 0.303 2.059 o
-3 -5 1 1.539 1.297 0.215 14.107 o
-3 -5 2 0.000 0.041 0.042 752.224 o
-3 -5 3 0.258 0.312 0.103 109.428 o
-3 -5 4 1.207 1.335 0.151 22.750 o
-3 -5 5 1.524 1.453 0.241 12.240 o
-3 -5 6 0.007 0.026 0.073 256.407 o
-3 -5 7 4.470 4.490 0.385 2.194 o
-3 -5 8 0.058 0.041 0.026 1865.700 o
-3 -4 1 0.379 0.223 0.080 151.567 o
-3 -4 2 13.267 11.839 0.425 0.337 o
-3 -4 3 10.136 11.368 0.482 0.477 o
-3 -4 4 9.300 8.952 0.292 0.657 o
-3 -4 5 0.017 0.036 0.074 245.662 o
-3 -4 6 0.429 0.388 0.147 52.918 o
-3 -4 7 11.380 9.901 0.672 0.420 o
-3 -4 8 9.367 9.186 0.466 0.603 o
-3 -3 1 0.016 0.054 0.048 572.567 o
-3 -3 2 12.501 16.015 0.418 0.297 o
-3 -3 3 2.729 3.127 0.185 5.990 o
-3 -3 4 1.974 2.056 0.207 9.918 o
-3 -3 5 19.399 19.653 0.489 0.148 o
-3 -3 6 3.234 3.445 0.307 3.872 o
-3 -3 7 2.033 1.416 0.168 12.709 o
-3 -3 8 0.489 0.389 0.100 91.223 o
-3 -2 1 0.768 1.011 0.179 27.766 o
-3 -2 2 45.263 51.697 1.234 0.025 o
-3 -2 3 1.203 1.767 0.212 15.009 o
-3 -2 4 0.023 0.032 0.050 539.541 o
-3 -2 5 30.325 30.794 0.589 0.061 o
-3 -2 6 15.316 13.336 1.152 0.213 o
-3 -2 7 3.323 2.442 0.321 4.260 o
-3 -2 8 9.626 10.671 0.609 0.501 o
-3 -1 1 37.484 35.219 0.804 0.042 o
-3 -1 2 216.058 222.214 1.413 0.001 o
-3 -1 3 64.811 71.226 1.194 0.013 o
-3 -1 4 20.646 17.596 0.636 0.144 o
-3 -1 5 38.178 37.497 1.819 0.037 o
-3 -1 6 8.841 8.686 0.439 0.676 o
-3 -1 7 0.758 0.506 0.159 37.741 o
-3 -1 8 0.049 0.047 0.076 234.284 o
-3 0 1 5.170 5.051 0.197 2.066 o
-3 0 2 36.896 37.336 0.498 0.042 o
-3 0 3 7.097 4.987 0.396 1.215 o
-3 0 4 49.805 54.841 0.833 0.022 o
-3 0 5 137.157 138.138 1.217 0.003 o
-3 0 6 132.244 133.573 1.881 0.003 o
-3 0 7 1.371 1.523 0.199 15.596 o
-3 0 8 0.851 1.255 0.209 20.398 o
-3 1 1 163.053 155.646 1.739 0.002 o
-3 1 2 500.215 496.992 3.091 0.000 o
-3 1 3 273.391 291.341 2.448 0.001 o
-3 1 4 47.708 50.880 1.035 0.024 o
-3 1 5 16.460 15.422 0.769 0.203 o
-3 1 6 12.273 12.234 0.743 0.332 o
-3 1 7 0.236 0.304 0.091 138.425 o
-3 1 8 0.005 0.065 0.056 429.903 o
-3 2 1 22.543 25.753 0.742 0.099 o
-3 2 2 3.651 5.536 0.348 2.462 o
-3 2 3 2.668 1.951 0.223 7.214 o
-3 2 4 71.469 74.945 1.397 0.011 o
-3 2 5 103.033 103.531 2.132 0.005 o
-3 2 6 172.994 181.629 2.872 0.002 o
-3 2 7 3.649 4.609 0.347 2.768 o
-3 3 1 47.753 46.771 1.101 0.025 o
-3 3 2 170.960 172.886 2.421 0.002 o
-3 3 3 166.770 172.465 2.452 0.002 o
-3 3 4 19.570 18.917 0.919 0.141 o
-3 3 5 4.514 3.764 0.278 2.692 o
-3 3 6 10.108 10.278 0.451 0.516 o
-3 3 7 0.112 0.104 0.058 377.329 o
-3 4 1 12.206 15.069 0.795 0.289 o
-3 4 2 0.752 1.058 0.168 29.905 o
-3 4 3 0.165 0.180 0.048 450.520 o
-3 4 4 12.517 11.010 0.704 0.349 o
-3 4 5 26.684 24.891 1.007 0.080 o
-3 4 6 69.546 86.728 1.664 0.010 o
-3 5 1 4.486 5.380 0.431 1.875 o
-3 5 2 16.447 16.617 0.687 0.198 o
-3 5 3 24.116 23.096 0.811 0.097 o
-3 5 4 4.023 4.160 0.425 2.382 o
-3 5 5 1.136 1.002 0.185 21.846 o
-3 6 1 8.508 8.488 0.684 0.627 o
-3 6 2 0.188 0.262 0.102 117.783 o
-3 6 3 0.231 0.183 0.050 382.302 o
-3 6 4 0.040 -0.039 0.053 479.813 o
-3 7 1 19.339 27.095 1.129 0.108 o
-3 7 2 0.955 0.943 0.119 38.256 o
-3 7 3 1.412 1.270 0.165 19.111 o
-3 8 1 6.117 6.024 0.394 1.325 o
-2 -7 2 0.229 0.159 0.071 223.702 o
-2 -7 3 9.349 9.394 0.433 0.604 o
-2 -7 4 4.175 3.668 0.268 3.025 o
-2 -7 5 0.000 0.014 0.017 4610.470 o
-2 -7 6 0.366 0.380 0.085 130.176 o
-2 -6 1 3.423 3.173 0.350 3.531 o
-2 -6 2 1.979 2.166 0.260 8.189 o
-2 -6 3 0.061 0.103 0.047 584.435 o
-2 -6 4 3.913 4.054 0.258 3.120 o
-2 -6 5 0.053 0.071 0.028 1562.010 o
-2 -6 6 1.872 1.948 0.248 9.277 o
-2 -6 7 4.373 4.782 0.357 2.243 o
-2 -5 1 4.016 3.885 0.362 2.706 o
-2 -5 2 3.033 3.061 0.221 5.095 o
-2 -5 3 60.552 64.502 1.277 0.015 o
-2 -5 4 21.403 22.010 0.637 0.119 o
-2 -5 5 12.991 15.293 0.544 0.286 o
-2 -5 6 6.051 6.611 0.530 1.136 o
-2 -5 7 12.992 11.489 0.669 0.330 o
-2 -5 8 1.983 2.013 0.218 9.635 o
-2 -4 1 13.503 13.860 0.508 0.294 o
-2 -4 2 24.251 24.856 0.785 0.093 o
-2 -4 3 0.023 0.011 0.020 3448.220 o
-2 -4 4 4.575 5.102 0.238 2.313 o
-2 -4 5 1.010 0.863 0.179 25.298 o
-2 -4 6 0.030 0.098 0.070 275.702 o
-2 -4 7 7.554 6.563 0.466 0.941 o
-2 -4 8 0.013 0.129 0.058 401.920 o
-2 -3 1 1.197 1.629 0.238 13.736 o
-2 -3 2 36.891 31.913 0.630 0.046 o
-2 -3 3 212.618 215.549 2.287 0.001 o
-2 -3 4 81.955 88.862 1.637 0.008 o
-2 -3 5 59.144 57.314 1.367 0.016 o
-2 -3 6 25.341 21.197 2.444 0.070 o
-2 -3 7 44.973 37.224 0.811 0.032 o
-2 -2 1 30.156 36.985 0.591 0.054 o
-2 -2 2 33.753 30.617 0.748 0.053 o
-2 -2 3 3.116 3.208 0.254 4.566 o
-2 -2 4 2.397 3.483 0.321 4.814 o
-2 -2 5 16.326 15.342 0.704 0.209 o
-2 -2 6 2.875 3.512 0.265 4.612 o
-2 -2 7 4.203 2.725 0.353 3.031 o
-2 -2 8 0.563 0.659 0.153 42.783 o
-2 -1 1 0.643 0.508 0.052 122.206 o
-2 -1 2 155.584 153.863 1.465 0.002 o
-2 -1 3 162.280 201.488 1.889 0.002 o
-2 -1 4 91.466 87.782 1.376 0.007 o
-2 -1 5 17.260 15.454 0.668 0.195 o
-2 -1 6 15.657 14.995 0.535 0.231 o
-2 -1 8 14.221 14.196 0.702 0.259 o
-2 0 1 0.064 0.066 0.016 3886.140 o
-2 0 2 71.621 57.184 3.078 0.012 o
-2 0 3 0.537 0.578 0.060 126.946 o
-2 0 4 8.977 7.074 0.386 0.761 o
-2 0 5 26.343 22.475 0.872 0.088 o
-2 0 6 2.848 2.526 0.234 5.872 o
-2 0 7 2.167 1.652 0.238 9.045 o
-2 0 8 0.024 0.095 0.074 243.851 o
-2 1 1 0.130 0.101 0.042 633.766 o
-2 1 2 105.800 97.131 0.661 0.005 o
-2 1 3 4.617 6.262 0.311 1.877 o
-2 1 4 2.657 2.057 0.203 7.418 o
-2 1 5 16.483 18.218 0.736 0.184 o
-2 1 6 2.682 3.318 0.374 4.031 o
-2 1 7 3.805 2.990 0.301 3.535 o
-2 2 1 108.499 108.581 1.337 0.005 o
-2 2 2 343.541 347.388 2.624 0.000 o
-2 2 3 46.013 50.306 1.004 0.025 o
-2 2 4 13.133 11.390 0.551 0.339 o
-2 2 5 10.058 9.182 0.613 0.519 o
-2 2 6 2.965 2.878 0.359 4.097 o
-2 2 7 0.951 1.261 0.186 22.311 o
-2 3 1 0.901 0.966 0.124 38.328 o
-2 3 2 12.836 12.824 0.683 0.313 o
-2 3 3 0.147 0.445 0.115 92.435 o
-2 3 4 6.841 6.893 0.519 0.988 o
-2 3 5 37.344 40.611 1.331 0.037 o
-2 3 6 23.186 29.558 1.078 0.084 o
-2 4 1 53.711 50.523 0.785 0.021 o
-2 4 2 127.406 132.796 2.407 0.003 o
-2 4 3 38.042 34.971 1.182 0.040 o
-2 4 4 3.508 3.833 0.412 2.846 o
-2 4 5 3.425 3.839 0.400 2.963 o
-2 4 6 3.656 4.028 0.310 3.142 o
-2 5 1 0.075 0.252 0.082 190.539 o
-2 5 2 3.448 3.708 0.481 2.587 o
-2 5 3 0.352 0.315 0.135 64.975 o
-2 5 4 2.369 2.816 0.357 4.905 o
-2 5 5 15.603 17.467 0.686 0.204 o
-2 6 1 1.737 1.939 0.301 8.111 o
-2 6 2 20.453 22.905 0.738 0.122 o
-2 6 3 8.317 9.194 0.622 0.638 o
-2 6 4 0.429 0.365 0.100 97.618 o
-2 7 1 0.000 0.069 0.053 472.809 o
-2 7 2 1.102 1.082 0.179 22.565 o
-1 -7 1 0.497 0.295 0.060 170.118 o
-1 -7 2 0.633 0.768 0.107 60.690 o
-1 -7 3 0.187 0.339 0.107 105.219 o
-1 -7 4 0.071 0.068 0.036 944.617 o
-1 -7 5 4.998 5.486 0.267 1.949 o
-1 -7 6 0.099 0.215 0.047 519.204 o
-1 -6 1 1.064 0.922 0.133 32.394 o
-1 -6 2 1.202 1.241 0.244 14.411 o
-1 -6 3 21.060 22.806 0.942 0.114 o
-1 -6 4 3.870 3.998 0.275 3.119 o
-1 -6 5 18.895 21.520 0.617 0.142 o
-1 -6 6 0.107 0.143 0.073 236.776 o
-1 -6 7 2.296 2.831 0.291 5.944 o
-1 -5 1 1.816 1.400 0.173 14.117 o
-1 -5 2 3.930 4.257 0.357 2.657 o
-1 -5 3 0.173 0.184 0.054 375.072 o
-1 -5 4 2.728 2.901 0.313 4.837 o
-1 -5 5 4.855 4.730 0.288 2.164 o
-1 -5 6 2.175 2.116 0.289 7.039 o
-1 -5 7 2.730 2.404 0.286 5.577 o
-1 -5 8 16.334 20.994 0.680 0.170 o
-1 -4 1 7.904 7.884 0.525 0.780 o
-1 -4 2 7.438 7.102 0.410 0.950 o
-1 -4 3 244.928 249.084 2.604 0.001 o
-1 -4 4 19.257 21.025 0.597 0.141 o
-1 -4 5 0.868 0.796 0.126 41.692 o
-1 -4 6 0.707 0.896 0.197 25.741 o
-1 -4 7 1.616 1.608 0.254 10.782 o
-1 -4 8 0.181 0.391 0.106 106.674 o
-1 -3 1 20.446 32.865 0.869 0.091 o
-1 -3 2 167.997 139.940 1.561 0.002 o
-1 -3 3 1.296 1.258 0.168 20.275 o
-1 -3 4 6.588 8.295 0.513 0.926 o
-1 -3 5 5.011 4.928 0.306 2.006 o
-1 -3 6 0.598 0.416 0.096 85.183 o
-1 -3 7 6.392 5.451 0.477 1.239 o
-1 -3 8 5.226 5.943 0.415 1.554 o
-1 -2 1 23.943 19.972 0.321 0.112 o
-1 -2 2 86.855 74.129 0.981 0.008 o
-1 -2 3 1164.020 1201.830 2.462 0.000 o
-1 -2 4 107.837 112.042 1.624 0.005 o
-1 -2 5 90.509 85.826 1.647 0.007 o
-1 -2 6 13.374 13.959 0.540 0.294 o
-1 -2 7 27.413 21.624 0.943 0.084 o
-1 -2 8 1.930 1.771 0.156 12.677 o
-1 -1 1 221.651 174.491 0.761 0.001 o
-1 -1 2 613.353 571.408 1.149 0.000 o
-1 -1 3 21.199 21.983 0.399 0.124 o
-1 -1 4 8.669 12.073 0.484 0.545 o
-1 -1 5 11.077 11.194 0.631 0.411 o
-1 -1 6 0.013 0.091 0.044 676.492 o
-1 -1 7 4.434 3.698 0.392 2.398 o
-1 -1 8 0.422 0.494 0.082 119.556 o
-1 0 1 47.490 41.320 1.033 0.027 o
-1 0 2 258.747 208.154 0.735 0.001 o
-1 0 3 949.374 753.596 1.650 0.000 o
-1 0 4 151.154 129.889 1.482 0.003 o
-1 0 5 81.562 80.043 0.962 0.009 o
-1 0 6 18.705 18.341 0.937 0.151 o
-1 0 7 28.411 24.260 0.961 0.075 o
-1 1 1 209.667 193.098 0.842 0.001 o
-1 1 2 135.076 131.409 0.838 0.003 o
-1 1 3 19.531 16.574 0.321 0.166 o
-1 1 4 13.711 14.992 0.631 0.267 o
-1 1 5 7.387 5.943 0.277 1.135 o
-1 1 6 0.396 0.447 0.097 100.837 o
-1 1 7 2.644 3.320 0.324 4.549 o
-1 2 1 11.919 12.834 0.274 0.379 o
-1 2 2 98.701 93.877 1.332 0.006 o
-1 2 3 112.816 102.144 1.018 0.005 o
-1 2 4 35.914 34.530 0.790 0.045 o
-1 2 5 4.396 3.932 0.294 2.668 o
-1 2 6 2.349 2.511 0.219 7.398 o
-1 3 1 4.932 6.914 0.362 1.568 o
-1 3 2 7.593 8.547 0.494 0.792 o
-1 3 3 0.058 0.022 0.028 1601.510 o
-1 3 4 9.297 10.130 0.567 0.549 o
-1 3 5 1.386 1.289 0.175 18.412 o
-1 3 6 0.208 0.281 0.060 279.142 o
-1 4 1 0.728 1.393 0.195 22.855 o
-1 4 2 11.864 11.581 0.634 0.371 o
-1 4 3 5.104 6.090 0.530 1.393 o
-1 4 4 1.755 1.490 0.279 9.495 o
-1 4 5 2.262 2.533 0.198 8.027 o
-1 5 1 0.847 0.863 0.189 25.648 o
-1 5 2 18.230 21.063 1.007 0.141 o
-1 5 3 1.606 1.932 0.322 7.839 o
-1 5 4 1.832 2.233 0.265 8.430 o
-1 6 1 0.655 0.577 0.171 35.170 o
-1 6 2 2.362 2.191 0.316 6.032 o
-1 6 3 0.681 0.495 0.130 52.254 o
-1 7 1 0.043 0.067 0.044 681.602 o
-1 7 2 5.975 5.285 0.342 1.521 o
0 -8 2 3.743 3.912 0.198 3.590 o
0 -8 3 0.855 1.232 0.168 26.686 o
0 -8 4 9.481 10.941 0.484 0.529 o
0 -8 5 5.631 6.958 0.345 1.378 o
0 -7 1 4.983 4.932 0.272 2.078 o
0 -7 2 1.939 1.963 0.192 10.796 o
0 -7 3 0.105 0.163 0.112 104.928 o
0 -7 4 4.189 4.752 0.274 2.587 o
0 -7 5 95.309 104.268 1.210 0.006 o
0 -7 6 0.184 0.259 0.070 226.524 o
0 -6 1 0.632 0.745 0.165 35.901 o
0 -6 2 17.404 22.369 0.939 0.144 o
0 -6 3 5.508 6.815 0.349 1.427 o
0 -6 4 7.335 7.040 0.484 0.927 o
0 -6 5 18.007 16.215 0.705 0.178 o
0 -6 6 0.018 -0.012 0.045 655.797 o
0 -5 1 4.391 4.231 0.277 2.617 o
0 -5 2 8.101 8.114 0.495 0.759 o
0 -5 3 0.419 0.399 0.081 128.221 o
0 -5 4 6.205 6.843 0.354 1.242 o
0 -5 5 225.689 211.034 2.970 0.001 o
0 -5 6 0.026 0.045 0.073 255.414 o
0 -5 7 21.772 19.729 0.833 0.122 o
0 -4 1 0.226 0.097 0.056 345.694 o
0 -4 2 12.895 16.050 0.593 0.276 o
0 -4 3 8.677 10.608 0.521 0.587 o
0 -4 4 0.240 0.309 0.085 153.049 o
0 -4 5 22.395 20.364 1.449 0.103 o
0 -4 6 1.639 1.182 0.229 13.022 o
0 -4 7 0.577 0.478 0.148 46.794 o
0 -4 8 43.979 53.207 1.087 0.026 o
0 -3 1 3.526 2.294 0.173 5.268 o
0 -3 2 18.670 18.843 0.545 0.159 o
0 -3 3 122.466 124.501 1.620 0.004 o
0 -3 4 4.759 5.098 0.453 1.780 o
0 -3 5 142.537 118.470 1.943 0.003 o
0 -3 6 1.124 1.531 0.262 12.809 o
0 -3 7 10.551 9.845 0.628 0.469 o
0 -3 8 0.006 -0.029 0.045 656.809 o
0 -2 1 1.604 1.773 0.120 17.174 o
0 -2 2 83.954 78.231 0.984 0.009 o
0 -2 3 8.488 11.010 0.439 0.607 o
0 -2 4 0.613 0.725 0.203 26.534 o
0 -2 5 12.964 14.000 0.669 0.295 o
0 -2 6 1.210 1.143 0.233 15.504 o
0 -2 7 2.600 2.083 0.286 6.160 o
0 -1 1 10.985 8.444 0.216 0.552 o
0 -1 2 71.222 52.686 0.619 0.014 o
0 -1 3 802.407 726.738 3.053 0.000 o
0 -1 4 16.336 18.029 0.634 0.191 o
0 -1 5 2.096 1.566 0.171 11.709 o
0 -1 6 0.040 0.147 0.117 98.737 o
0 -1 7 0.381 0.177 0.088 135.441 o
0 0 1 44.614 41.813 0.460 0.030 o
0 0 2 428.218 418.215 2.198 0.000 o
0 0 3 19.478 21.331 0.636 0.137 o
0 0 4 4.184 4.586 0.348 2.427 o
0 0 5 6.640 7.927 0.603 0.883 o
0 0 6 0.643 0.751 0.198 27.026 o
0 0 7 2.014 1.924 0.245 8.892 o
0 1 0 4.051 3.709 0.089 3.649 o
0 1 1 60.824 48.220 0.640 0.018 o
0 1 2 101.172 82.338 1.107 0.006 o
0 1 3 559.822 483.328 3.329 0.000 o
0 1 4 29.225 30.872 1.066 0.062 o
0 1 5 10.024 8.326 0.610 0.549 o
0 1 6 0.791 0.724 0.183 28.591 o
0 2 1 73.985 72.843 0.757 0.011 o
0 2 2 126.210 120.889 1.697 0.004 o
0 2 3 13.186 12.842 0.671 0.304 o
0 2 4 11.966 12.624 0.497 0.363 o
0 2 5 1.677 1.459 0.266 10.318 o
0 2 6 1.638 1.820 0.257 10.121 o
0 3 0 4.073 4.590 0.304 2.631 o
0 3 1 32.622 36.609 0.690 0.049 o
0 3 2 29.272 29.628 0.999 0.064 o
0 3 3 88.678 91.402 1.445 0.007 o
0 3 4 12.104 12.305 0.721 0.340 o
0 3 5 2.963 2.796 0.215 5.545 o
0 4 0 336.286 340.901 3.178 0.001 o
0 4 1 15.876 16.648 0.713 0.205 o
0 4 2 4.026 4.077 0.409 2.463 o
0 4 3 1.752 1.709 0.298 8.484 o
0 4 4 8.009 7.924 0.507 0.774 o
0 5 0 0.355 0.362 0.114 84.407 o
0 5 1 7.525 7.518 0.606 0.800 o
0 5 2 3.522 3.921 0.425 2.742 o
0 5 3 7.460 6.791 0.494 0.921 o
0 6 0 11.768 11.469 0.430 0.401 o
0 6 1 1.855 1.485 0.251 10.153 o
0 6 2 0.477 0.603 0.148 47.844 o
0 7 0 0.181 0.126 0.059 330.156 o
0 7 1 0.304 0.360 0.106 99.084 o
1 -8 0 0.269 0.191 0.044 411.642 o
1 -8 1 6.690 7.545 0.380 1.055 o
1 -8 2 0.132 0.170 0.071 243.996 o
1 -8 3 0.036 0.012 0.033 1201.180 o
1 -8 4 4.024 4.244 0.236 3.015 o
1 -8 5 19.041 19.555 0.586 0.151 o
1 -7 0 2.683 2.650 0.199 6.548 o
1 -7 1 3.683 4.493 0.280 3.048 o
1 -7 2 12.660 14.854 0.757 0.284 o
1 -7 3 5.495 6.049 0.454 1.408 o
1 -7 4 21.762 22.328 0.821 0.113 o
1 -7 5 4.672 4.894 0.359 2.063 o
1 -7 6 0.005 -0.009 0.030 1477.680 o
1 -6 0 0.018 0.026 0.028 1674.270 o
1 -6 1 21.117 23.399 0.519 0.118 o
1 -6 2 7.031 7.471 0.373 1.006 o
1 -6 3 8.792 7.597 0.516 0.707 o
1 -6 5 159.501 150.280 2.433 0.002 o
1 -6 6 4.966 3.649 0.767 1.268 o
1 -5 0 13.726 13.757 0.367 0.297 o
1 -5 1 21.085 23.695 0.579 0.116 o
1 -5 2 112.264 0.151 0.115 0.010 o
1 -5 3 36.014 38.519 1.225 0.041 o
1 -5 4 24.759 24.952 1.019 0.088 o
1 -5 5 17.610 16.176 0.827 0.179 o
1 -5 6 0.005 -0.005 0.045 656.842 o
1 -5 7 0.181 0.409 0.117 89.519 o
1 -4 0 2.190 2.347 0.233 7.871 o
1 -4 1 40.215 54.182 1.017 0.028 o
1 -4 2 36.841 40.504 0.886 0.039 o
1 -4 3 56.375 32.529 0.989 0.024 o
1 -4 4 38.088 36.950 0.705 0.040 o
1 -4 5 471.523 408.856 4.000 0.000 o
1 -4 6 4.434 3.602 0.394 2.420 o
1 -4 7 16.517 15.829 0.746 0.200 o
1 -3 0 6.098 6.540 0.298 1.351 o
1 -3 1 20.000 24.911 0.547 0.120 o
1 -3 2 297.502 340.949 2.275 0.001 o
1 -3 3 50.939 49.420 0.990 0.022 o
1 -3 4 9.061 8.274 0.611 0.619 o
1 -3 5 19.540 18.193 0.702 0.150 o
1 -3 6 0.121 0.071 0.059 362.260 o
1 -3 7 0.012 0.095 0.067 302.884 o
1 -2 0 1.123 0.854 0.047 49.760 o
1 -2 1 105.501 88.108 0.824 0.006 o
1 -2 2 40.626 36.748 0.428 0.037 o
1 -2 3 19.979 18.560 0.624 0.146 o
1 -2 4 14.421 15.408 0.654 0.245 o
1 -2 5 412.697 417.121 2.480 0.000 o
1 -2 6 0.009 0.070 0.077 226.550 o
1 -2 7 15.706 13.979 0.627 0.235 o
1 -1 1 2.810 4.143 0.160 4.945 o
1 -1 2 75.597 77.382 1.048 0.010 o
1 -1 3 17.347 18.612 0.627 0.174 o
1 -1 4 3.422 4.149 0.278 3.458 o
1 -1 5 7.811 8.376 0.444 0.798 o
1 -1 6 0.102 0.054 0.077 220.901 o
1 -1 7 0.450 0.360 0.091 109.390 o
1 0 0 12.552 11.173 0.142 0.393 o
1 0 1 60.896 55.747 0.787 0.016 o
1 0 2 21.865 19.706 0.606 0.125 o
1 0 3 38.759 35.490 0.963 0.040 o
1 0 4 3.224 3.025 0.321 4.025 o
1 0 5 98.981 91.774 2.163 0.006 o
1 0 6 0.750 0.662 0.160 35.728 o
1 1 1 4.226 3.441 0.236 3.195 o
1 1 2 5.638 6.280 0.404 1.403 o
1 1 3 6.988 6.152 0.441 1.085 o
1 1 4 0.088 0.159 0.095 144.342 o
1 1 5 2.504 2.309 0.341 5.304 o
1 1 6 0.125 0.033 0.038 825.948 o
1 2 0 27.280 28.280 0.504 0.075 o
1 2 1 0.019 0.024 0.027 1800.130 o
1 2 2 13.627 13.832 0.712 0.276 o
1 2 3 66.457 64.910 1.714 0.013 o
1 2 5 7.168 10.526 0.675 0.656 o
1 3 0 1376.410 1511.950 4.680 0.000 o
1 3 1 1.259 1.862 0.244 12.390 o
1 3 2 7.465 7.660 0.395 0.913 o
1 3 3 3.450 3.667 0.385 3.089 o
1 4 0 9.822 11.237 0.455 0.504 o
1 4 1 10.871 10.384 0.402 0.475 o
1 4 2 4.065 3.744 0.391 2.607 o
1 4 3 19.179 16.552 0.714 0.162 o
1 4 4 1.634 1.534 0.209 13.069 o
1 5 0 192.390 184.976 1.809 0.002 o
1 5 1 2.172 2.027 0.291 7.125 o
1 5 2 0.692 0.677 0.165 35.390 o
1 5 3 0.777 0.621 0.103 59.122 o
1 6 0 1.728 2.110 0.292 8.161 o
1 6 1 5.945 7.029 0.512 1.135 o
2 -8 0 0.374 0.510 0.126 68.067 o
2 -8 1 0.096 0.121 0.040 721.192 o
2 -8 2 0.389 0.454 0.085 121.358 o
2 -8 3 0.270 0.159 0.076 193.594 o
2 -8 4 2.482 2.518 0.221 6.963 o
2 -7 1 7.576 11.024 0.625 0.623 o
2 -7 2 0.780 0.598 0.159 36.236 o
2 -7 3 2.660 2.699 0.295 5.321 o
2 -7 4 1.845 1.252 0.191 13.550 o
2 -7 5 0.097 0.029 0.036 934.963 o
2 -6 0 3.899 3.913 0.273 3.138 o
2 -6 1 12.498 14.652 1.207 0.244 o
2 -6 2 11.226 15.122 0.877 0.305 o
2 -6 4 18.325 19.873 0.931 0.147 o
2 -6 5 0.606 0.736 0.171 34.622 o
2 -6 6 1.593 0.722 1.475 0.612 o
2 -5 0 3.397 2.622 0.322 4.047 o
2 -5 1 27.415 37.989 1.232 0.057 o
2 -5 2 4.855 5.173 0.396 1.846 o
2 -5 3 3.029 3.553 0.274 4.292 o
2 -5 4 28.683 30.314 0.815 0.066 o
2 -5 5 43.918 52.337 1.012 0.026 o
2 -5 6 3.742 4.959 0.444 2.258 o
2 -4 0 104.324 107.378 1.091 0.005 o
2 -4 1 123.539 147.060 2.006 0.003 o
2 -4 2 152.608 217.314 2.336 0.002 o
2 -4 3 57.399 59.697 1.028 0.017 o
2 -4 4 30.279 30.968 0.622 0.061 o
2 -4 5 3.735 3.829 0.275 3.320 o
2 -4 6 0.884 1.167 0.226 18.478 o
2 -3 0 22.519 22.838 0.690 0.109 o
2 -3 1 46.072 59.692 1.060 0.022 o
2 -3 2 36.477 35.044 0.522 0.044 o
2 -3 3 58.590 53.184 1.104 0.018 o
2 -3 4 64.421 67.613 0.915 0.013 o
2 -3 5 208.078 241.047 3.620 0.001 o
2 -3 6 7.723 9.357 0.640 0.673 o
2 -2 0 342.972 356.577 2.280 0.000 o
2 -2 1 205.792 230.368 1.792 0.001 o
2 -2 2 400.456 513.857 3.605 0.000 o
2 -2 3 63.325 78.024 1.643 0.012 o
2 -2 4 21.064 26.356 0.616 0.108 o
2 -2 5 3.007 3.944 0.516 2.582 o
2 -2 6 0.026 0.036 0.051 507.583 o
2 -1 0 4.037 4.548 0.239 2.870 o
2 -1 1 65.653 72.302 0.723 0.012 o
2 -1 2 21.880 23.025 0.769 0.111 o
2 -1 3 52.565 57.306 1.114 0.019 o
2 -1 4 32.459 40.769 0.811 0.046 o
2 -1 5 216.834 240.943 3.718 0.001 o
2 -1 6 1.917 1.853 0.236 9.677 o
2 0 0 15.497 15.313 0.447 0.234 o
2 0 1 34.244 37.755 0.864 0.045 o
2 0 2 169.002 188.522 2.377 0.002 o
2 0 3 13.975 16.535 0.743 0.237 o
2 0 4 13.357 13.776 0.623 0.291 o
2 0 5 0.598 0.917 0.220 22.656 o
2 1 0 0.678 0.710 0.077 79.831 o
2 1 1 40.089 40.168 1.016 0.035 o
2 1 2 3.490 3.456 0.345 3.365 o
2 1 3 1.511 1.526 0.213 13.627 o
2 1 4 7.141 6.317 0.328 1.118 o
2 1 5 77.241 83.907 1.791 0.009 o
2 2 0 136.194 146.067 1.327 0.003 o
2 2 1 0.355 0.498 0.138 59.483 o
2 2 2 16.416 19.735 0.955 0.167 o
2 2 3 2.134 2.009 0.244 8.365 o
2 2 4 4.064 3.273 0.394 2.746 o
2 3 0 4.024 3.793 0.238 3.214 o
2 3 1 4.213 3.475 0.250 3.141 o
2 3 2 1.084 0.731 0.176 25.702 o
2 3 3 2.860 2.127 0.238 6.250 o
2 4 0 121.016 122.683 2.018 0.004 o
2 4 1 0.103 0.054 0.053 454.062 o
2 4 2 0.807 0.979 0.179 27.421 o
2 4 3 0.639 0.578 0.127 53.879 o
2 5 0 3.365 3.396 0.378 3.303 o
2 5 1 0.500 0.416 0.121 68.112 o
2 6 0 35.945 42.516 1.185 0.038 o
3 -8 0 0.026 -0.086 0.058 408.574 o
3 -8 1 0.111 0.197 0.083 183.419 o
3 -8 2 12.087 15.099 1.034 0.266 o
3 -8 3 13.279 13.224 0.530 0.308 o
3 -7 0 10.365 11.705 0.730 0.414 o
3 -7 1 4.174 5.732 0.324 2.180 o
3 -7 2 0.001 0.025 0.045 656.363 o
3 -7 3 0.026 -0.053 0.050 541.332 o
3 -7 5 0.046 0.020 0.038 925.300 o
3 -6 0 0.024 -0.042 0.086 181.827 o
3 -6 1 4.147 1.643 2.873 0.159 o
3 -6 2 20.883 19.543 0.911 0.128 o
3 -6 4 4.988 4.775 0.395 1.875 o
3 -6 5 15.105 16.156 0.665 0.224 o
3 -5 0 6.253 6.675 0.548 1.077 o
3 -5 1 0.156 0.278 0.063 280.769 o
3 -5 2 0.067 0.095 0.092 156.397 o
3 -5 3 1.337 1.471 0.250 12.643 o
3 -5 4 4.342 4.653 0.307 2.431 o
3 -5 5 0.009 0.006 0.030 1528.840 o
3 -4 0 7.447 7.801 0.494 0.855 o
3 -4 1 18.864 24.398 0.842 0.126 o
3 -4 2 4.414 2.826 0.327 2.942 o
3 -4 3 13.251 8.956 0.334 0.400 o
3 -4 4 1.317 1.610 0.184 16.747 o
3 -4 5 2.095 2.356 0.204 8.834 o
3 -3 0 18.655 21.191 0.712 0.144 o
3 -3 1 68.065 81.627 1.400 0.011 o
3 -3 2 22.120 28.779 1.471 0.084 o
3 -3 3 18.271 21.578 0.531 0.149 o
3 -3 4 11.200 12.700 0.533 0.388 o
3 -3 5 0.293 0.339 0.075 171.473 o
3 -2 0 27.996 31.863 0.842 0.065 o
3 -2 1 21.110 28.838 0.977 0.096 o
3 -2 2 1.698 1.664 0.167 14.319 o
3 -2 3 0.975 1.334 0.147 27.197 o
3 -2 4 19.809 24.187 0.753 0.121 o
3 -2 5 12.678 18.539 0.834 0.237 o
3 -1 0 136.928 139.981 1.174 0.003 o
3 -1 1 124.014 141.850 1.257 0.003 o
3 -1 2 75.169 93.825 1.876 0.009 o
3 -1 3 18.910 23.948 0.787 0.128 o
3 -1 4 11.270 12.621 0.500 0.391 o
3 -1 5 0.103 0.035 0.035 994.100 o
3 0 0 3.041 2.993 0.256 4.840 o
3 0 1 18.078 23.423 0.870 0.135 o
3 0 2 1.200 1.160 0.156 23.608 o
3 0 3 6.250 5.701 0.352 1.374 o
3 0 4 16.836 15.598 0.487 0.207 o
3 1 0 53.094 49.254 1.082 0.021 o
3 1 1 35.208 32.316 0.608 0.049 o
3 1 2 39.572 37.432 1.126 0.037 o
3 1 3 3.852 3.578 0.380 2.847 o
3 1 4 8.324 8.162 0.306 0.799 o
3 2 0 0.696 0.645 0.120 53.963 o
3 2 1 15.070 14.377 0.509 0.250 o
3 2 2 0.025 -0.018 0.048 575.795 o
3 2 3 0.817 1.169 0.135 34.959 o
3 3 0 0.068 0.201 0.077 216.492 o
3 3 2 7.847 8.556 0.498 0.761 o
3 4 0 0.028 0.041 0.041 799.458 o
3 4 1 4.234 3.960 0.332 2.646 o
3 5 0 4.705 3.910 0.298 2.459 o
4 -8 0 4.197 4.153 0.335 2.596 o
4 -8 1 4.406 4.682 0.347 2.280 o
4 -8 2 1.122 1.244 0.144 25.878 o
4 -7 0 0.058 -0.002 0.042 739.874 o
4 -7 1 0.157 0.193 0.073 227.801 o
4 -7 2 34.011 0.035 0.092 0.112 o
4 -6 0 23.028 24.174 1.079 0.097 o
4 -6 1 30.017 32.657 1.179 0.057 o
4 -6 2 0.187 0.120 0.059 329.050 o
4 -6 3 0.471 0.777 0.173 36.154 o
4 -5 0 0.001 0.063 0.044 701.935 o
4 -5 1 2.259 2.124 0.211 8.503 o
4 -5 2 70.191 68.576 1.749 0.012 o
4 -5 3 40.574 38.857 1.229 0.035 o
4 -5 4 18.350 21.291 0.861 0.143 o
4 -4 0 51.105 44.823 1.090 0.024 o
4 -4 1 34.557 36.590 1.205 0.044 o
4 -4 2 1.036 1.471 0.239 15.069 o
4 -4 3 0.001 0.061 0.061 368.512 o
4 -4 4 0.133 0.201 0.098 132.191 o
4 -3 0 2.243 3.390 0.233 6.281 o
4 -3 1 8.002 8.176 0.487 0.770 o
4 -3 2 38.876 33.572 0.814 0.041 o
4 -3 3 37.403 40.062 1.294 0.038 o
4 -3 4 5.829 6.086 0.430 1.349 o
4 -2 0 20.757 17.558 0.510 0.145 o
4 -2 1 0.293 0.221 0.070 207.075 o
4 -2 2 0.114 0.094 0.063 321.326 o
4 -2 3 3.135 3.611 0.397 3.292 o
4 -2 4 0.525 0.718 0.127 55.739 o
4 -1 0 6.887 7.589 0.204 1.102 o
4 -1 1 6.575 7.783 0.241 1.130 o
4 -1 2 5.557 5.992 0.512 1.323 o
4 -1 3 8.278 9.138 0.563 0.665 o
4 -1 4 0.272 0.126 0.045 419.019 o
4 0 0 0.177 0.091 0.033 832.530 o
4 0 1 10.210 10.100 1.327 0.324 o
4 0 2 2.034 1.914 0.269 8.172 o
4 0 3 3.728 3.102 0.282 3.667 o
4 1 0 0.162 0.078 0.078 208.529 o
4 1 1 4.838 5.145 0.257 2.123 o
4 1 2 0.682 0.878 0.168 32.783 o
4 1 3 0.333 0.619 0.112 80.380 o
4 2 0 2.293 2.259 0.180 8.766 o
4 2 1 7.337 7.074 0.487 0.922 o
4 2 2 2.539 2.459 0.242 6.558 o
4 3 0 1.021 0.875 0.094 43.702 o
4 3 1 3.772 3.611 0.294 3.303 o
4 4 0 0.169 0.171 0.067 265.137 o
5 -7 0 0.111 0.091 0.058 380.146 o
5 -7 1 1.316 0.919 0.157 23.512 o
5 -7 2 1.228 0.541 0.506 4.842 o
5 -6 0 0.367 0.364 0.082 137.422 o
5 -6 2 25.349 25.165 0.877 0.086 o
5 -6 3 2.923 2.589 0.274 5.205 o
5 -5 0 6.046 6.506 0.354 1.320 o
5 -5 1 22.968 24.360 1.002 0.098 o
5 -5 2 1.297 1.361 0.215 15.581 o
5 -5 3 0.440 1.019 0.184 31.340 o
5 -4 0 0.083 0.013 0.047 589.377 o
5 -4 1 2.411 2.465 0.309 5.798 o
5 -4 2 55.924 52.612 0.983 0.019 o
5 -4 3 12.712 12.090 0.835 0.311 o
5 -3 0 29.026 30.941 0.827 0.064 o
5 -3 1 37.841 37.851 0.859 0.039 o
5 -3 2 0.003 0.031 0.093 156.251 o
5 -3 3 0.043 -0.026 0.051 507.683 o
5 -2 0 1.776 1.836 0.185 12.352 o
5 -2 1 2.906 2.660 0.221 5.747 o
5 -2 2 34.236 37.178 1.148 0.045 o
5 -2 3 15.816 14.539 0.557 0.231 o
5 -1 0 28.210 29.070 0.529 0.070 o
5 -1 1 10.190 11.754 0.677 0.431 o
5 -1 2 0.150 0.107 0.074 228.223 o
5 0 0 4.120 3.612 0.216 3.285 o
5 0 1 1.174 1.408 0.224 15.584 o
5 0 2 7.791 8.562 0.444 0.790 o
5 1 0 7.615 9.345 0.344 0.801 o
5 1 1 0.082 0.283 0.097 136.789 o
5 2 0 0.638 0.577 0.130 52.355 o
6 -6 0 1.019 1.046 0.116 35.388 o
6 -6 1 1.935 2.534 0.254 7.901 o
6 -5 0 3.193 4.360 0.276 3.593 o
6 -5 1 2.823 3.076 0.209 5.605 o
6 -4 0 0.289 0.251 0.062 237.997 o
6 -4 1 0.583 0.552 0.091 84.863 o
6 -4 2 0.484 0.460 0.064 144.674 o
6 -3 0 0.734 0.808 0.117 49.761 o
6 -3 1 2.537 2.376 0.171 7.801 o
6 -2 0 1.622 1.566 0.148 16.518 o
6 -2 1 4.653 4.389 0.338 2.249 o
6 -1 0 0.883 0.757 0.144 36.366 o
6 -1 1 1.513 1.544 0.185 15.311 o
6 0 0 4.845 4.781 0.335 2.062 o
;
_olex2_submission_special_instructions 'No special instructions were received'
_oxdiff_exptl_absorpt_empirical_details
;
Empirical correction (ABSPACK) includes:
- Absorption correction using spherical harmonics
- Frame scaling
;
_oxdiff_exptl_absorpt_empirical_full_max 1.687
_oxdiff_exptl_absorpt_empirical_full_min 0.427
loop_
_space_group_symop_id
_space_group_symop_operation_xyz
1 x,y,z
2 -x,-y,-z
loop_
_atom_site_label
_atom_site_type_symbol
_atom_site_fract_x
_atom_site_fract_y
_atom_site_fract_z
_atom_site_U_iso_or_equiv
_atom_site_adp_type
_atom_site_occupancy
_atom_site_refinement_flags_posn
O001 O 0.6274(3) 0.7818(2) 0.7111(2) 0.0573(6) Uani 1.000000 .
O002 O 0.9448(3) 0.6862(3) 0.7711(2) 0.0624(6) Uani 1.000000 .
N003 N 0.6889(2) 0.7623(2) 0.0695(2) 0.0450(6) Uani 1.000000 .
C004 C 0.5591(3) 0.7934(3) 0.3264(3) 0.0439(6) Uani 1.000000 .
C005 C 0.7487(3) 0.7447(2) 0.4531(2) 0.0380(6) Uani 1.000000 .
C006 C 0.7847(3) 0.7348(2) 0.6628(3) 0.0420(6) Uani 1.000000 .
C007 C 0.9071(3) 0.7040(3) 0.3835(3) 0.0432(5) Uani 1.000000 .
C008 C 0.8694(3) 0.7131(3) 0.1902(3) 0.0452(6) Uani 1.000000 .
C009 C 0.5357(3) 0.8010(3) 0.1363(3) 0.0468(6) Uani 1.000000 .
H009 H 0.412(4) 0.833(3) 0.048(4) 0.067(6) Uiso 1.000000 .
H007 H 1.036(4) 0.679(3) 0.460(4) 0.059(6) Uiso 1.000000 .
H001 H 0.661(5) 0.773(4) 0.858(5) 0.085(8) Uiso 1.000000 .
H008 H 0.973(4) 0.682(4) 0.129(5) 0.071(6) Uiso 1.000000 .
H004 H 0.441(5) 0.823(4) 0.371(5) 0.071(7) Uiso 1.000000 .
loop_
_atom_site_aniso_label
_atom_site_aniso_U_11
_atom_site_aniso_U_22
_atom_site_aniso_U_33
_atom_site_aniso_U_12
_atom_site_aniso_U_13
_atom_site_aniso_U_23
O001 0.0663(9) 0.0929(10) 0.0446(9) 0.0514(8) 0.0367(7) 0.0416(7)
O002 0.0675(9) 0.0983(11) 0.0475(9) 0.0542(8) 0.0311(7) 0.0452(8)
N003 0.0470(9) 0.0533(9) 0.0354(8) 0.0203(7) 0.0218(7) 0.0201(6)
C004 0.0430(9) 0.0568(9) 0.0381(9) 0.0262(7) 0.0216(7) 0.0218(7)
C005 0.0394(9) 0.0389(8) 0.0324(10) 0.0151(7) 0.0172(8) 0.0144(7)
C006 0.0426(9) 0.0475(9) 0.0366(10) 0.0202(7) 0.0191(7) 0.0200(7)
C007 0.0434(9) 0.0508(9) 0.0407(10) 0.0254(7) 0.0209(8) 0.0223(7)
C008 0.0469(9) 0.0565(9) 0.0402(10) 0.0245(7) 0.0263(8) 0.0222(7)
C009 0.0454(9) 0.0613(10) 0.0393(10) 0.0287(8) 0.0198(8) 0.0268(8)
loop_
_atom_type_symbol
_atom_type_scat_dispersion_real
_atom_type_scat_dispersion_imag
_atom_type_scat_Cromer_Mann_a1
_atom_type_scat_Cromer_Mann_a2
_atom_type_scat_Cromer_Mann_a3
_atom_type_scat_Cromer_Mann_a4
_atom_type_scat_Cromer_Mann_b1
_atom_type_scat_Cromer_Mann_b2
_atom_type_scat_Cromer_Mann_b3
_atom_type_scat_Cromer_Mann_b4
_atom_type_scat_Cromer_Mann_c
_atom_type_scat_source
_atom_type_scat_dispersion_source
H 0.00000 0.00000 0.49300 0.32291 0.14019 0.04081 10.51090 26.12570 3.14236
57.79970 0.0030380000826
'International Tables Volume C Table 6.1.1.4 (pp. 500-502)'
'Henke, Gullikson and Davis, At. Data and Nucl. Data Tables, 1993, 54, 2'
C 0.01920 0.00962 2.31000 1.02000 1.58860 0.86500 20.84390 10.20750 0.56870
51.65120 0.215599998832
'International Tables Volume C Table 6.1.1.4 (pp. 500-502)'
'Henke, Gullikson and Davis, At. Data and Nucl. Data Tables, 1993, 54, 2'
O 0.05239 0.03377 3.04850 2.28680 1.54630 0.86700 13.27710 5.70110 0.32390
32.90890 0.250800013542
'International Tables Volume C Table 6.1.1.4 (pp. 500-502)'
'Henke, Gullikson and Davis, At. Data and Nucl. Data Tables, 1993, 54, 2'
N 0.03256 0.01839 12.21260 3.13220 2.01250 1.16630 0.00570 9.89330 28.99750
0.58260 -11.5290002823
'International Tables Volume C Table 6.1.1.4 (pp. 500-502)'
'Henke, Gullikson and Davis, At. Data and Nucl. Data Tables, 1993, 54, 2'
loop_
_diffrn_refln_index_h
_diffrn_refln_index_k
_diffrn_refln_index_l
_diffrn_refln_intensity_net
_diffrn_refln_intensity_u
0 0 -1 276.2 3.04
0 0 -2 2762.54 14.52
0 0 -3 140.9 4.2
0 0 -4 30.29 2.3
0 0 -5 52.36 3.98
0 0 -6 4.96 1.31
0 0 -7 12.71 1.62
0 1 -7 1.17 0.58
0 1 -6 0.97 0.77
0 1 -5 9.47 1.43
0 1 -5 11.55 1.85
0 1 -4 119.09 4.19
0 1 -3 4800.51 20.17
0 1 -2 348.02 4.09
0 1 -1 55.78 1.43
0 1 0 24.87 0.79
0 -1 0 24.01 0.89
0 -1 -1 318.52 4.23
0 -1 -2 543.89 7.31
0 -1 -3 3192.65 21.99
0 -1 -4 203.93 7.04
0 -1 -5 55 4.03
0 -1 -6 4.78 1.21
0 2 -7 13.76 1.89
0 2 -6 7.55 1.54
0 2 -5 87.74 4.72
0 2 -5 86.73 4.62
0 2 -5 100.73 4.45
0 2 -4 5.93 0.86
0 2 -4 3.25 0.74
0 2 -3 72.73 2.9
0 2 -2 516.76 6.5
0 2 -1 11.71 0.79
0 -2 -1 485.42 7.34
0 -2 -1 477.42 6.83
0 -2 -2 798.54 11.21
0 -2 -3 84.83 4.43
0 -2 -4 81.11 4.43
0 -2 -4 86.02 4.9
0 -2 -5 9.64 1.76
0 -2 -6 12.02 1.7
0 3 -8 -0.19 0.3
0 3 -7 65.03 4.15
0 3 -6 10.11 1.73
0 3 -5 769.23 13.29
0 3 -5 794.9 13
0 3 -4 30.28 2.22
0 3 -4 36.26 2.12
0 3 -3 822.4 10.7
0 3 -2 124.47 3.6
0 3 -1 15.15 1.14
0 -3 0 30.32 2.01
0 -3 -1 244.24 6.66
0 -3 -1 239.65 6.25
0 -3 -2 195.71 6.6
0 -3 -3 596.56 13.65
0 -3 -3 610.5 13.36
0 -3 -4 81.28 4.76
0 -3 -5 18.89 1.86
0 -3 -5 17.84 2.2
0 4 -8 351.46 7.18
0 4 -7 3.16 0.98
0 4 -6 7.81 1.51
0 4 -5 144.23 6.03
0 4 -5 125.09 5.53
0 4 -4 2.13 0.78
0 4 -4 1.95 0.81
0 4 -3 70.07 3.44
0 4 -2 106.02 3.92
0 -4 1 0.64 0.37
0 -4 0 2251.84 20.99
0 -4 -1 109.97 4.71
0 -4 -2 26.93 2.7
0 -4 -3 11.29 1.97
0 -4 -4 52.34 3.35
0 5 -7 130.32 5.5
0 5 -6 0.99 0.62
0 5 -6 0.03 0.24
0 5 -5 1394 19.62
0 5 -4 44.73 3.46
0 5 -4 45.59 3.18
0 5 -3 2.72 0.79
0 5 -3 2.56 0.73
0 5 -2 53.6 3.27
0 -5 1 29.57 2.87
0 5 -1 26.71 2.38
0 5 0 3.16 0.88
0 -5 0 1.65 0.71
0 -5 -1 54.47 3.83
0 5 1 46.47 2.88
0 -5 -2 25.9 2.81
0 -5 -3 44.86 3.26
0 6 -6 -0.08 0.3
0 6 -5 107.11 4.66
0 6 -4 46.5 3.2
0 6 -3 45.43 3.31
0 6 -3 44.62 3.21
0 6 -2 147.76 6.2
0 6 -1 4.92 1.09
0 -6 0 77.32 4.39
0 6 0 74.59 3.73
0 -6 -1 9.81 1.66
0 -6 -2 3.98 0.98
0 7 -6 1.36 0.41
0 7 -6 2.29 0.68
0 7 -5 684.3 11.34
0 7 -5 693.08 11.26
0 7 -4 30.81 2.44
0 7 -4 32.07 2.69
0 7 -3 1.08 0.74
0 7 -2 14.37 1.93
0 -7 2 11.84 1.57
0 7 -1 34.05 2.54
0 -7 1 30.95 2.55
0 -7 0 1.34 0.58
0 7 0 0.56 0.31
0 -7 -1 2.38 0.7
0 8 -5 45.96 2.28
0 8 -4 72.27 3.2
0 8 -3 8.14 1.11
0 8 -2 25.97 1.83
0 -8 2 25.7 1.87
1 -8 0 1.14 0.46
1 -8 0 1.34 0.37
-1 8 -1 49.84 2.51
-1 8 -2 1.12 0.47
-1 8 -3 0.08 0.22
1 -8 4 26.44 2.35
-1 8 -4 29.18 2.09
-1 8 -5 129.17 3.87
1 -7 -2 34.91 2.26
1 -7 -1 0.44 0.29
-1 7 0 17.46 1.72
1 -7 0 17.56 2.04
1 -7 1 28.1 2.49
-1 7 -1 31.42 2.76
-1 7 -2 98.12 5
-1 7 -3 39.96 3
-1 7 -4 147.49 5.42
-1 7 -5 32.33 2.37
-1 7 -6 -0.06 0.2
1 -6 -3 3.27 0.86
1 -6 -2 14.47 2.09
1 -6 -1 3.81 1.13
-1 6 0 0.06 0.23
1 -6 0 0.32 0.32
1 -6 1 152.16 5.61
-1 6 -1 158.79 5.91
1 -6 1 152.56 6.36
-1 6 -2 48.07 3.38
1 -6 2 50.72 3.59
-1 6 -3 50.18 3.41
-1 6 -5 992.68 16.07
-1 6 -6 29.82 2.55
-1 6 -6 19.69 1.82
1 -5 -4 14.75 1.75
1 -5 -3 12.76 2.13
1 -5 -2 139.13 6.65
1 -5 -1 5.7 1.25
-1 5 0 87.75 3.88
1 -5 0 92.23 4.45
1 -5 0 93.28 4.35
-1 5 -1 156.77 5.22
1 -5 1 156.22 5.63
-1 5 -2 1 0.76
-1 5 -3 254.44 8.09
-1 5 -4 164.82 6.73
-1 5 -5 106.85 5.46
-1 5 -6 -0.03 0.3
-1 5 -7 2.7 0.77
1 -4 -5 16.21 1.79
1 -4 -5 17.29 1.91
1 -4 -4 9.84 1.84
1 -4 -3 40.23 3.5
1 -4 -2 76.5 4.19
1 -4 -1 9.2 1.29
1 -4 0 15.5 1.54
-1 4 -1 357.9 6.72
-1 4 -2 267.55 5.85
-1 4 -3 214.87 6.53
-1 4 -4 252.54 6.59
-1 4 -4 238.04 7.45
1 -4 4 238.82 7.34
-1 4 -5 2700.72 26.42
-1 4 -6 23.79 2.6
-1 4 -7 104.56 4.93
1 -3 -6 1.65 0.55
1 -3 -6 2.03 0.57
1 -3 -5 8.11 1.63
1 -3 -5 8.89 1.64
1 -3 -4 63.13 4.43
1 -3 -4 70.62 4.64
1 -3 -3 0.01 0.28
1 -3 -3 0.26 0.25
1 -3 -2 56.46 3.26
1 -3 -1 45.67 2.39
1 -3 0 43.2 1.97
-1 3 -1 164.55 3.61
-1 3 -2 2252.16 15.03
-1 3 -3 326.45 6.54
-1 3 -4 50.17 3.29
-1 3 -4 58.24 3.17
-1 3 -5 129.57 5.39
-1 3 -5 117.89 5.68
-1 3 -5 112.18 5.17
-1 3 -6 0.47 0.39
-1 3 -7 0.63 0.44
1 -2 -6 15.62 1.84
1 -2 -6 17.94 2.33
1 -2 -5 24.5 2.79
1 -2 -5 27.22 2.7
1 -2 -4 224.38 7.28
1 -2 -4 231.88 7.48
1 -2 -3 676.15 10.37
1 -2 -3 673.67 8.84
1 -2 -2 620.11 8.8
1 -2 -1 83.05 2.72
1 -2 -1 86.1 2.43
-1 2 0 5.64 0.31
-1 2 -1 582 5.44
1 -2 2 244.41 3.6
-1 2 -2 239.99 4.58
-1 2 -3 122.6 4.12
-1 2 -4 101.78 4.32
-1 2 -5 2735.26 26.28
-1 2 -5 2780.82 30.42
-1 2 -5 2756.16 28.89
-1 2 -6 0.46 0.51
-1 2 -7 92.34 4.14
1 -1 -7 21.93 2.14
1 -1 -6 2.57 0.95
1 -1 -6 3.24 0.87
1 -1 -5 42.46 3.25
1 -1 -5 37.36 3.28
1 -1 -5 37.77 2.99
1 -1 -4 99.03 4.17
1 -1 -3 110.57 2.67
1 -1 -3 107.57 3.48
1 -1 -2 871.3 8.07
1 -1 -2 865.11 7.6
1 -1 -1 1277.85 7.69
1 -1 -1 1272.96 8.05
1 -1 1 27.37 1.06
-1 1 -2 511.15 6.92
-1 1 -3 122.94 4.14
-1 1 -4 28.82 2.93
-1 1 -4 26.42 2.35
-1 1 -5 53.72 3.78
-1 1 -5 57.6 4.66
-1 1 -6 0.36 0.51
-1 1 -7 2.38 0.6
1 0 -7 160.25 6.35
1 0 -6 121.15 6.19
1 0 -5 521.11 10.57
1 0 -5 534.91 10.68
1 0 -5 530.47 11.92
1 0 -4 857.99 9.79
1 0 -3 4973.13 13.65
1 0 -3 4986.32 18.1
1 0 -2 1376.23 7.03
1 0 -2 1373.83 6.71
1 0 -1 279.07 2.86
1 0 -1 265.42 3.09
-1 0 0 73.88 1.63
1 0 0 73.64 1.72
-1 0 0 73.87 1.54
-1 0 -1 368.24 5.2
-1 0 -2 130.17 4
-1 0 -3 234.43 6.36
-1 0 -4 22.44 2.65
-1 0 -4 18.2 2.03
-1 0 -5 606.22 14.29
-1 0 -6 4.37 1.06
1 1 -8 3.42 0.71
1 1 -8 3.02 0.83
1 1 -7 24.43 2.59
1 1 -6 0.88 0.46
1 1 -6 0.37 0.38
1 1 -5 73.94 4.17
1 1 -4 75.79 3.48
1 1 -4 82.18 2.84
1 1 -3 143.55 2.66
1 1 -3 148.82 4
1 1 -2 3774.47 7.59
-1 -1 1 1152.61 5.03
-1 -1 -1 22.73 1.56
-1 -1 -2 41.48 2.67
-1 -1 -3 40.64 2.91
-1 -1 -4 1.05 0.63
-1 -1 -5 15.25 2.25
-1 -1 -6 0.22 0.25
1 2 -8 11.99 1.51
1 2 -8 11.43 1.41
1 2 -7 142.84 6.23
1 2 -6 92.73 5.12
1 2 -6 91.7 4.98
1 2 -5 566.93 10.88
1 2 -4 740.1 10.73
1 2 -3 7938.45 18.98
1 2 -3 7939.65 31.53
1 2 -2 489.66 6.48
-1 -2 1 133.18 2.82
1 2 -1 130.26 3.21
-1 -2 0 188.09 4.61
-1 -2 0 185.39 4.81
-1 -2 -1 0.16 0.18
-1 -2 -2 91.37 4.7
-1 -2 -3 428.77 11.32
-1 -2 -5 69.53 4.46
1 3 -8 39.26 2.74
1 3 -7 36.01 3.15
1 3 -6 2.4 0.86
1 3 -6 3.09 0.93
1 3 -5 30.58 2.57
1 3 -5 34.62 2.8
1 3 -4 54.79 3.39
1 3 -3 8.31 1.11
1 3 -2 924.38 10.31
-1 -3 1 217.09 5.74
-1 -3 0 9976.07 43.25
-1 -3 0 9999 44.2
-1 -3 -1 12.3 1.61
-1 -3 -2 49.28 3.45
-1 -3 -2 52.26 3.98
-1 -3 -3 24.22 2.54
1 4 -8 2.58 0.7
1 4 -7 10.62 1.68
1 4 -6 5.92 1.3
1 4 -5 5.27 1.11
1 4 -5 5.25 1.25
1 4 -4 141.25 5.48
1 4 -4 136.25 5.68
1 4 -3 1645.34 17.2
1 4 -2 46.91 2.71
-1 -4 1 52.08 3.47
1 4 0 75.83 4.21
-1 -4 0 72.48 4.3
1 4 1 68.13 3.62
-1 -4 -1 69.13 3.91
-1 -4 -2 24.73 2.58
-1 -4 -3 114.87 4.99
1 4 3 105.44 4.01
-1 -4 -4 10.13 1.38
1 5 -8 138.68 4.49
1 5 -7 15.88 1.89
1 5 -6 13.98 1.91
1 5 -5 31.07 2.88
1 5 -5 31.38 2.54
1 5 -4 17.25 1.88
1 5 -4 21.39 2.26
1 5 -3 1.18 0.61
1 5 -3 1.71 0.66
1 5 -3 0.82 0.58
1 5 -2 26.08 2.57
-1 -5 2 30.8 3.2
1 5 -1 9.25 1.54
-1 -5 1 9.25 1.71
1 5 0 1225.33 16.77
-1 -5 0 1218.27 17.04
-1 -5 -1 13.39 1.92
-1 -5 -2 4.47 1.09
-1 -5 -3 4.1 0.68
1 6 -7 18.7 1.92
1 6 -6 0.45 0.57
1 6 -6 1.42 0.55
1 6 -5 140.35 5.46
1 6 -5 144.36 6.13
1 6 -4 26.53 2.52
1 6 -4 26.27 2.62
1 6 -3 157.52 6.47
1 6 -3 145.07 5.59
1 6 -2 8.2 1.61
-1 -6 1 6.28 1.27
1 6 -1 5.91 1.21
-1 -6 0 13.94 1.93
-1 -6 -1 46.43 3.38
1 7 -6 1.45 0.4
1 7 -6 1.38 0.48
1 7 -5 36.78 2.51
1 7 -5 35.7 2.47
1 7 -4 0.73 0.37
1 7 -4 0.25 0.26
1 7 -3 2.24 0.71
-1 -7 2 4.38 0.91
1 7 -2 5.8 1.07
-1 -7 1 1.91 0.64
1 7 -1 1.97 0.51
2 -8 0 3.37 0.83
-2 8 -1 0.71 0.32
2 -8 1 0.93 0.48
-2 8 -2 3.22 0.74
2 -8 2 2.64 0.86
-2 8 -3 1.65 0.54
2 -8 3 0.65 0.35
-2 8 -4 16.63 1.46
2 -7 -2 7.15 1.18
2 -7 -1 0.43 0.46
2 -7 -1 0.48 0.55
-2 7 -1 72.82 4.13
-2 7 -2 3.95 1.05
-2 7 -3 17.83 1.95
-2 7 -4 8.27 1.26
-2 7 -5 0.19 0.24
2 -6 -4 2.41 0.66
2 -6 -3 60.73 4.11
2 -6 -2 152.21 7.08
2 -6 -2 150.47 6.73
2 -6 -1 12.81 1.99
-2 6 0 26.1 2.3
2 -6 0 25.44 2.91
2 -6 1 106.38 5.93
-2 6 -1 90.43 4.45
2 -6 2 99.89 5.79
-2 6 -4 131.27 6.15
-2 6 -5 4.86 1.13
-2 6 -6 -0.13 0.2
-2 6 -6 19.35 1.96
2 -5 -5 115.38 4.53
2 -5 -4 18.6 2.36
2 -5 -3 2.08 0.89
2 -5 -2 27.85 3.16
2 -5 -2 21.5 2.62
2 -5 -1 1.63 0.68
2 -5 -1 1.71 0.89
2 -5 0 17.32 2.13
2 -5 1 250.94 8.14
2 -5 2 38.54 3.09
-2 5 -2 34.97 2.85
2 -5 2 28.23 2.82
2 -5 3 24.51 2.69
-2 5 -3 22.53 2.45
2 -5 4 198.19 7.34
-2 5 -4 202.59 7.93
2 -5 5 346.84 8.84
-2 5 -5 344.21 10.21
-2 5 -6 32.76 2.93
2 -4 -6 26.61 2.05
2 -4 -5 25.36 2.64
2 -4 -4 25.32 2.72
2 -4 -3 231 7.81
2 -4 -2 877.19 15.9
2 -4 -1 333.85 9.27
2 -4 -1 333.68 6.26
2 -4 0 714.34 11.98
2 -4 0 706.4 9.02
2 -4 1 971.41 13.25
2 -4 2 1435.48 15.43
2 -4 3 390.97 9.49
-2 4 -3 397.81 9.73
-2 4 -4 200.36 6.77
2 -4 4 203.65 6.92
-2 4 -4 210.93 7.78
2 -4 5 26.06 2.42
-2 4 -5 24.22 2.75
-2 4 -6 7.71 1.49
2 -3 -6 195.25 7.12
2 -3 -5 268.26 8.79
2 -3 -4 45.53 3.43
2 -3 -3 2.94 0.76
2 -3 -2 84.71 4.51
2 -3 -1 5.97 0.64
2 -3 -1 7.61 1.25
2 -3 0 150.86 4.56
2 -3 1 394.3 7
2 -3 2 232.13 4.97
-2 3 -2 230.88 4.78
-2 3 -3 343.23 8.16
-2 3 -3 357.82 7.48
-2 3 -4 448.21 10.38
2 -3 4 446.44 9.72
-2 3 -4 444.91 11.53
-2 3 -5 1592.25 23.91
-2 3 -6 61.81 4.23
2 -2 -7 8.33 1.23
2 -2 -6 19.01 2.37
2 -2 -5 60.65 4.05
2 -2 -4 75.24 3.64
2 -2 -3 332.3 6.63
2 -2 -2 2294.69 17.33
2 -2 -1 717.24 8.83
2 -2 0 2355.39 15.06
2 -2 1 1521.71 11.84
-2 2 -2 3394.31 23.81
-2 2 -3 515.39 10.85
-2 2 -4 177.18 7.28
2 -2 4 170.21 6.17
-2 2 -4 176.74 8.12
-2 2 -5 26.05 3.41
-2 2 -6 0.24 0.34
2 -1 -7 19.75 1.99
2 -1 -6 21.92 2.47
2 -1 -5 115.87 5.36
2 -1 -5 125.59 6.05
2 -1 -4 13.59 1.34
2 -1 -3 43.42 2.03
2 -1 -3 39.31 1.93
2 -1 -2 642.13 5.46
2 -1 -2 640.66 7.28
2 -1 -1 0.67 0.28
2 -1 0 30.04 1.58
-2 1 -1 479.36 7.42
2 -1 1 476.34 6.24
-2 1 -2 152.09 5.08
-2 1 -3 375 9.78
-2 1 -3 383.06 11.18
2 -1 4 269.77 7.97
-2 1 -4 271.79 9.72
-2 1 -4 265.27 10.81
-2 1 -5 1591.56 24.56
-2 1 -6 12.24 1.56
2 0 -8 0.63 0.49
2 0 -7 10.91 1.57
2 0 -6 17.98 2.35
2 0 -6 15.55 2.05
2 0 -5 148.46 5.76
2 0 -4 46.73 2.55
2 0 -3 3.79 0.53
2 0 -3 3.85 0.59
2 0 -2 395.55 5.22
2 0 -2 354.88 5.6
2 0 -1 0.53 0.16
2 0 -1 0.23 0.12
-2 0 1 0.58 0.16
2 0 0 98.11 2.86
-2 0 0 104.02 2.86
-2 0 -1 249.39 5.71
-2 0 -2 1245.29 15.7
-2 0 -3 103.72 5.37
2 0 3 113.54 4.98
2 0 4 93.83 4.33
-2 0 -4 85.6 5.71
-2 0 -5 6.06 1.45
2 1 -8 93.77 4.64
2 1 -6 97.01 4.8
2 1 -6 101.37 5.23
2 1 -5 102.08 4.41
2 1 -4 579.85 9.09
2 1 -3 1330.94 12.48
2 1 -2 1016.35 9.68
-2 -1 1 3.19 0.55
-2 -1 1 3.45 0.44
-2 -1 0 4.47 0.72
-2 -1 0 4.89 0.71
-2 -1 -1 265.33 6.71
-2 -1 -2 22.83 2.28
2 1 3 10.08 1.41
2 1 4 42.78 2.68
-2 -1 -4 39.59 3.67
-2 -1 -5 554.25 11.83
2 2 -8 4.35 1.01
2 2 -7 18 2.33
2 2 -6 23.36 2.48
2 2 -6 23.03 2.48
2 2 -5 101.34 4.65
2 2 -4 23.01 2.12
2 2 -3 21.19 1.68
2 2 -2 202.24 4.94
-2 -2 1 241.59 6.11
-2 -2 1 246.14 5.07
-2 -2 0 969.56 12.92
-2 -2 0 960.8 11.93
-2 -2 -1 3.29 0.91
-2 -2 -2 130.36 6.31
2 2 3 13.27 1.61
-2 -2 -4 21.62 2.6
2 3 -7 242.2 7.41
2 3 -7 249.8 7.75
2 3 -6 119.96 6.73
2 3 -6 152.25 5.92
2 3 -5 378.59 9.03
2 3 -4 586.98 10.81
2 3 -3 1423.82 15.11
2 3 -2 207.72 5.61
-2 -3 2 214.46 6.21
-2 -3 1 10.76 1.57
2 3 0 24.23 2.14
-2 -3 0 25.95 2.31
-2 -3 -1 23.99 2.62
-2 -3 -1 22.22 2.13
-2 -3 -2 4.83 1.16
2 3 3 14.05 1.57
2 4 -8 0.85 0.38
2 4 -7 43.35 3.08
2 4 -6 0.65 0.46
2 4 -5 5.7 1.18
2 4 -4 33.97 2.6
2 4 -4 33.68 2.82
2 4 -4 33.41 2.77
2 4 -3 0.15 0.17
2 4 -3 -0.02 0.2
2 4 -2 173.28 6.1
-2 -4 2 152.12 6.3
2 4 -2 165.02 5.91
2 4 -1 93.68 4.54
-2 -4 1 88.85 4.99
2 4 0 810.39 13.33
-2 -4 -1 0.36 0.35
-2 -4 -2 6.47 1.18
-2 -4 -3 3.82 0.84
2 5 -8 13.3 1.44
2 5 -7 75.89 4.42
2 5 -6 43.67 3.5
2 5 -5 104.16 5.06
2 5 -5 97.61 5.1
2 5 -4 144.36 5.69
2 5 -4 146.6 6.24
2 5 -3 434.43 10.03
2 5 -3 417.56 9.92
2 5 -2 21.22 2.29
2 5 -2 19.47 1.9
2 5 -1 25.66 2.39
-2 -5 0 22.43 2.5
-2 -5 -1 2.75 0.8
2 6 -7 31.59 2.36
2 6 -6 12.87 1.64
2 6 -5 0.41 0.2
2 6 -5 0.61 0.49
2 6 -4 26.98 2.36
2 6 -4 26.55 2.47
2 6 -3 0.47 0.53
2 6 -3 0.83 0.38
2 6 -2 14.31 1.72
-2 -6 1 20.96 2.31
-2 -6 0 280.84 7.83
2 7 -6 2.51 0.56
2 7 -5 0.13 0.16
2 7 -5 0.05 0.16
2 7 -4 24.23 1.77
2 7 -3 59.49 2.76
-2 -7 3 65.21 3.21
-2 -7 2 1.05 0.47
3 -8 -1 39.79 2.6
3 -8 0 -0.57 0.38
3 -8 1 1.3 0.55
-3 8 -2 105.77 4.02
3 -8 2 92.11 4.22
-3 8 -3 87.35 3.5
3 -7 -3 8.39 1.09
3 -7 -2 5.9 1.01
3 -7 -2 6.68 1.26
3 -7 -1 178.98 7.46
3 -7 0 77.32 4.82
-3 7 -1 36.73 2.75
3 -7 1 39.49 3.42
3 -7 2 0.52 0.53
-3 7 -2 -0.08 0.36
-3 7 -3 -0.35 0.33
-3 7 -5 0.13 0.25
3 -6 -4 -0.26 0.35
3 -6 -3 1.18 0.49
3 -6 -3 1.24 0.44
3 -6 -2 1.21 0.65
3 -6 -2 2.56 1.04
3 -6 -1 56.07 4.52
3 -6 0 -0.28 0.57
-3 6 -1 -0.48 0.42
3 -6 1 37.47 3.51
3 -6 2 129.09 6.02
-3 6 -4 31.54 2.61
-3 6 -5 106.72 4.39
3 -5 -5 6.62 1.22
3 -5 -4 27.48 2.81
3 -5 -3 158.47 7.02
3 -5 -3 147.76 6.11
3 -5 -2 100.92 5.38
3 -5 -2 111.37 6.51
3 -5 -2 118.57 6.26
3 -5 -1 38.26 3.71
3 -5 -1 32.56 3.58
3 -5 0 44.09 3.62
3 -5 1 1.7 0.62
3 -5 1 2.65 0.89
3 -5 1 1.34 0.71
3 -5 2 0.63 0.61
3 -5 3 9.72 1.65
3 -5 4 28.98 2.74
-3 5 -4 32.62 3.01
3 -5 5 0.08 0.3
-3 5 -5 0 0.26
3 -4 -6 572.89 10.99
3 -4 -5 164.42 6.65
3 -4 -4 72.73 4.65
3 -4 -3 1.27 0.62
3 -4 -3 1.77 0.74
3 -4 -3 0.79 0.43
3 -4 -2 7.66 1.6
3 -4 -2 6.22 1.54
3 -4 -1 99.54 5.25
3 -4 0 51.53 3.26
3 -4 1 161.16 5.56
3 -4 2 18.67 2.16
-3 4 -3 58 3.81
-3 4 -3 59.78 3.84
3 -4 3 59.67 3.82
3 -4 4 10.72 1.67
-3 4 -4 10.53 1.78
3 -4 5 15.66 1.77
-3 4 -5 15.42 2.09
3 -3 -7 0.69 0.38
3 -3 -6 67.15 4.27
3 -3 -6 68.58 4.16
3 -3 -5 23.17 2.61
3 -3 -5 26.32 2.58
3 -3 -4 124.96 6.07
3 -3 -3 1139.23 16.2
3 -3 -2 1142.01 15.99
3 -3 -1 308.95 7.27
3 -3 0 139.98 4.7
3 -3 1 539.19 9.25
-3 3 -2 180.59 6.01
3 -3 2 200.02 6.46
-3 3 -3 140.75 6
3 -3 3 141.29 5.81
-3 3 -3 146.02 6.46
3 -3 4 83.96 4.69
-3 3 -4 83.8 5.33
3 -3 5 2.15 0.6
-3 3 -5 2.39 0.89
3 -2 -7 32.64 2.8
3 -2 -7 28.06 2.71
3 -2 -6 1199.76 18.97
3 -2 -5 683.88 14.08
3 -2 -4 495.05 9.23
3 -2 -3 12.89 1.47
3 -2 -2 36.57 2.3
3 -2 -1 170.11 4.9
3 -2 0 210.47 5.56
-3 2 -1 198.04 5.89
3 -2 1 185.13 4.8
-3 2 -2 10.62 1.62
3 -2 2 11.3 1.51
3 -2 3 8.87 1.57
-3 2 -3 9.11 1.73
-3 2 -3 8.4 1.78
3 -2 4 159.94 6.34
-3 2 -4 159.5 8.01
-3 2 -5 122.46 5.51
3 -1 -8 0.43 0.37
3 -1 -7 1.8 0.74
3 -1 -7 2.3 1.02
3 -1 -6 80.81 4.91
3 -1 -5 101.87 5.08
3 -1 -4 336.09 6.84
3 -1 -3 1924.47 16.17
3 -1 -2 3282.91 20.42
3 -1 -1 1028.13 11.49
-3 1 0 917.21 10.76
3 -1 0 932.55 11.18
-3 1 -1 935.18 12.98
3 -1 1 938.25 10.8
-3 1 -2 606.59 12.8
3 -1 2 631.38 12.26
3 -1 3 159.32 6.74
-3 1 -3 156.5 8.16
3 -1 4 84.88 4.15
-3 1 -4 80.62 5.46
-3 1 -5 0.23 0.23
3 0 -8 8.29 1.38
3 0 -7 10.43 1.71
3 0 -7 9.47 2.05
3 0 -6 907.04 15.55
3 0 -6 876.8 18.4
3 0 -6 859.85 15.7
3 0 -5 902.62 13.86
3 0 -5 916.61 12.89
3 0 -5 918.51 15.35
3 0 -4 356.94 6.73
3 0 -4 367.95 7.07
3 0 -3 35.35 1.87
3 0 -3 30.12 1.87
3 0 -2 244.63 5.35
3 0 -2 247.82 4.17
-3 0 1 34.02 1.68
3 0 -1 32.32 2.06
-3 0 0 19.77 1.69
-3 0 -1 154.72 5.75
-3 0 -2 6.77 1.43
3 0 2 8.44 1.49
3 0 3 38.75 3.01
-3 0 -3 35.92 3.65
3 0 4 102.48 4
-3 0 -4 104.03 5.42
3 1 -8 0.31 0.5
3 1 -7 3.34 1.05
3 1 -6 54.36 4.12
3 1 -6 60.05 4.08
3 1 -5 259.17 7.4
3 1 -5 235.14 7.37
3 1 -4 116.23 4.2
3 1 -3 470.49 7.89
-3 -1 2 1466.63 13.05
3 1 -2 1469.12 13.36
-3 -1 1 232.64 5.31
-3 -1 0 325.35 7.15
-3 -1 -1 211.96 6.95
3 1 1 214.21 4.92
3 1 2 247.26 7.44
3 1 3 25.52 2.24
-3 -1 -3 20.5 2.59
3 1 4 54.13 2.5
-3 -1 -4 53.5 3.44
3 2 -8 70.49 4.02
3 2 -7 16.13 2.12
3 2 -6 95.41 4.9
3 2 -6 80.19 4.67
3 2 -5 199.71 6.47
3 2 -5 202.15 6.76
3 2 -5 208.89 7.02
3 2 -4 0.21 0.33
3 2 -3 11.67 1.4
-3 -2 2 341.49 8.15
-3 -2 1 6.68 1.18
3 2 0 4.26 0.79
3 2 1 94.97 3.36
3 2 2 -0.12 0.32
3 2 3 7.7 1.14
-3 -2 -3 7.75 1.44
3 3 -8 2.57 0.66
3 3 -7 9.23 1.43
3 3 -7 9.54 1.77
3 3 -6 21.09 2.17
3 3 -6 25.14 2.83
3 3 -5 128.03 5.35
3 3 -5 129.78 5.64
3 3 -5 131.91 5.82
3 3 -4 12.19 1.67
3 3 -4 14.92 1.81
3 3 -3 19.47 1.84
-3 -3 3 22.08 2.46
3 3 -3 21.02 2.19
3 3 -2 103.53 4.21
-3 -3 2 107.85 5.41
3 3 -2 107.07 4.97
3 3 -1 0.36 0.32
3 3 0 1.33 0.51
3 3 2 56.52 3.29
3 4 -8 60.68 3.08
3 4 -7 65.4 4.44
3 4 -6 2.56 0.97
3 4 -5 0.24 0.49
3 4 -4 60.3 3.53
-3 -4 4 55.77 4.18
3 4 -4 59.87 3.95
3 4 -4 59.69 3.86
3 4 -3 69.25 3.72
-3 -4 3 76.42 5.13
3 4 -3 81.43 4.51
3 4 -2 79.08 4.07
3 4 -2 77.39 3.88
3 4 -1 1.47 0.53
-3 -4 0 0.27 0.27
3 4 1 26.16 2.19
3 5 -8 0.27 0.17
3 5 -7 29.66 2.54
3 5 -6 0.17 0.48
3 5 -5 9.6 1.59
3 5 -4 8.6 1.31
3 5 -4 9.11 1.55
3 5 -3 2.06 0.68
3 5 -2 0.27 0.28
-3 -5 1 8.57 1.42
-3 -5 0 25.83 1.97
3 6 -7 31.38 2
3 6 -6 8.95 1.18
3 6 -5 3.1 0.63
3 6 -5 3.29 0.78
3 6 -4 28.96 1.94
3 6 -4 31.99 2.07
-3 -6 2 9.06 1.29
4 -8 -1 288.21 7.02
4 -8 0 27.43 2.21
4 -8 1 30.93 2.29
-4 8 -2 8.22 0.95
4 -7 -3 1.18 0.56
4 -7 -2 16.04 2.06
4 -7 -1 140.06 6.15
4 -7 0 -0.01 0.28
4 -7 1 1.86 0.7
-4 7 -1 0.9 0.45
-4 7 -2 0.23 0.61
4 -6 -4 33.28 2.5
4 -6 -3 2.22 0.78
4 -6 -2 0.21 0.64
4 -6 -1 938.24 17.9
4 -6 0 159.68 7.13
4 -6 1 215.72 7.79
4 -6 2 0.79 0.39
4 -6 3 5.13 1.14
4 -5 -5 6.65 1.26
4 -5 -4 22.58 2.54
4 -5 -4 16.86 1.95
4 -5 -3 0.16 0.35
4 -5 -3 1.7 0.79
4 -5 -2 1.83 0.9
4 -5 -1 249.87 9.15
4 -5 -1 261.65 9.78
4 -5 0 0.68 0.6
4 -5 0 -0.04 0.44
4 -5 0 0.72 0.5
4 -5 1 14.48 2.1
4 -5 1 13.66 1.86
4 -5 2 452.98 11.55
4 -5 3 256.67 8.12
4 -5 4 140.64 5.69
4 -4 -6 8.62 1.37
4 -4 -6 7.75 1.27
4 -4 -5 1.44 0.73
4 -4 -4 70.05 5.1
4 -4 -4 64.44 4
4 -4 -3 41.91 3.78
4 -4 -3 47.14 4.21
4 -4 -2 2.23 0.86
4 -4 -2 3.25 1.02
4 -4 -1 1049.82 17.21
4 -4 -1 1011.82 16.21
4 -4 0 298.69 8.45
4 -4 0 308.52 8.26
4 -4 0 280.57 8.05
4 -4 1 241.7 7.96
4 -4 2 9.72 1.58
4 -4 3 0.4 0.4
4 -4 4 1.33 0.65
4 -3 -7 5.77 1.03
4 -3 -6 711.14 14.14
4 -3 -6 667.63 11.9
4 -3 -6 688.13 13.52
4 -3 -5 67.14 5.03
4 -3 -4 18.23 2.43
4 -3 -4 20.8 2.34
4 -3 -4 13.35 1.87
4 -3 -3 1.7 0.65
4 -3 -3 1.02 0.56
4 -3 -2 0.47 0.25
4 -3 -2 -0.03 0.23
4 -3 -1 238.38 7.08
4 -3 0 21.39 2.17
4 -3 0 23.32 2.18
-4 3 -1 50.77 3.45
4 -3 1 57.2 3.64
-4 3 -2 216.15 7.62
4 -3 2 226.91 7.48
4 -3 3 264.63 8.55
4 -3 4 40.2 2.84
4 -2 -7 0.2 0.4
4 -2 -7 1.06 0.68
4 -2 -6 34.89 3.43
4 -2 -6 29.99 2.96
4 -2 -6 24.78 2.69
4 -2 -5 -0.15 0.32
4 -2 -5 -0.1 0.33
4 -2 -4 253.59 7.53
4 -2 -4 265.24 7.89
4 -2 -4 272.03 7.74
4 -2 -4 271.52 8.06
4 -2 -3 836.05 13.26
4 -2 -2 186.17 6.07
4 -2 -1 154.19 5.54
-4 2 0 117.7 4.85
4 -2 0 114.33 4.69
4 -2 1 1.99 0.7
-4 2 -1 1.07 0.51
4 -2 2 0.17 0.52
4 -2 2 1 0.44
4 -2 3 23.85 2.62
4 -2 4 4.74 0.84
4 -1 -8 50.25 3.13
4 -1 -7 42.53 3.47
4 -1 -7 35.87 3.55
4 -1 -6 2212.91 27.67
4 -1 -6 2209.15 23.31
4 -1 -5 403.45 9.89
4 -1 -5 370.12 9.58
4 -1 -5 388.9 10.25
4 -1 -4 305.78 7.71
4 -1 -4 294.1 8.12
4 -1 -4 283.3 7.83
4 -1 -3 8.8 1.28
4 -1 -2 2.53 0.66
4 -1 -1 171.42 5.69
4 -1 0 49.07 3.26
-4 1 0 50.01 3.21
4 -1 0 47.51 3.02
4 -1 0 51.11 2.64
4 -1 0 52.23 3.04
-4 1 -1 54.78 3.99
4 -1 1 52.06 3.38
4 -1 1 51.36 3.47
4 -1 1 49.62 2.49
4 -1 2 39.58 3.38
4 -1 3 60.36 3.72
4 -1 4 0.83 0.3
4 0 -8 0.46 0.3
4 0 -7 -0.16 0.41
4 0 -6 44.16 3.4
4 0 -6 43.85 3.8
4 0 -6 46.11 3.19
4 0 -5 32.69 2.7
4 0 -5 37.35 2.27
4 0 -5 33.11 2.88
4 0 -5 33.07 2.63
4 0 -4 366.75 7.48
4 0 -4 371.56 9.14
4 0 -4 372.97 8.62
4 0 -4 385.19 8.18
4 0 -4 347.01 8.21
4 0 -3 1220.52 14.27
4 0 -2 606.62 10.27
4 0 -1 39.64 2.59
4 0 -1 26.29 1.99
4 0 0 0.86 0.35
4 0 0 0.42 0.25
4 0 1 61.12 2.71
4 0 1 78.65 4.49
4 0 2 12.64 1.78
4 0 3 20.49 1.86
4 1 -8 21.99 2.39
4 1 -7 62.25 4.44
4 1 -6 1962.38 23.04
4 1 -5 627.19 12.46
4 1 -4 293.93 6.97
4 1 -4 282.94 7.68
4 1 -4 276.8 8.09
4 1 -4 287.03 6.87
4 1 -3 15.54 1.63
4 1 -3 17.38 1.88
4 1 -3 16.72 1.9
4 1 -2 63.16 3.11
4 1 -2 60.39 3.29
4 1 -2 58.97 3.11
4 1 -1 17.41 1.85
4 1 -1 18.63 1.7
4 1 0 1.23 0.57
4 1 0 0.2 0.25
4 1 1 34.02 2.94
4 1 1 33.97 2.08
4 1 2 5.8 1.11
4 1 3 4.09 0.74
4 2 -8 0.2 0.23
4 2 -7 -0.23 0.44
4 2 -6 28.76 2.72
4 2 -6 30.4 2.75
4 2 -5 160.33 6.25
4 2 -5 167.97 6.66
4 2 -5 156.74 5.73
4 2 -4 128.74 5.58
4 2 -4 131.93 5.65
4 2 -4 130.83 5.14
4 2 -3 363.91 7.25
4 2 -3 347.4 8.19
4 2 -3 376.95 9.32
4 2 -2 345.17 6.62
4 2 -2 337.96 7.7
4 2 -1 33.74 2.56
4 2 0 14.78 1.94
4 2 0 15.01 1.51
4 2 1 46.73 3.22
4 2 2 16.24 1.6
4 3 -8 2.65 0.65
4 3 -7 13 1.59
4 3 -7 9.03 1.53
4 3 -6 673.26 13.57
4 3 -6 665.89 12.34
4 3 -5 309.33 8.92
4 3 -5 321.83 8.55
4 3 -4 35.97 2.67
4 3 -4 33.2 2.9
4 3 -3 0.97 0.46
4 3 -2 100.86 4.66
4 3 -1 2.85 0.76
4 3 0 5 1.03
4 3 0 6.14 0.78
4 3 1 23.85 1.94
4 4 -8 0.25 0.25
4 4 -7 0.17 0.44
4 4 -6 8.3 1.46
4 4 -5 112.2 5.09
4 4 -4 12.18 1.72
4 4 -3 35.02 2.57
4 4 -2 67.03 3.15
-4 -4 1 1.5 0.47
4 4 -1 1.55 0.59
4 4 -1 2.19 0.44
4 4 0 1.13 0.44
4 5 -7 0.72 0.37
4 5 -6 78.14 3.6
4 5 -4 0.08 0.19
4 5 -3 1.4 0.44
-4 -5 2 31.35 2.1
4 5 -2 22.5 1.59
5 -7 -3 6.07 0.83
5 -7 -3 6.41 1.14
5 -7 -2 1.49 0.59
5 -7 -1 355.48 8.91
5 -7 0 0.6 0.38
5 -7 1 7.04 1.15
5 -7 1 4.96 1.03
5 -7 2 7.14 1.08
-5 7 -2 0.45 0.43
5 -6 -4 76.67 3.88
5 -6 -4 60.31 3.16
5 -6 -3 19.96 2.11
5 -6 -3 21.12 2.45
5 -6 -2 19.39 2.12
5 -6 -2 17.61 2.45
5 -6 -1 151.26 6.92
5 -6 0 3 0.98
5 -6 0 2.01 0.65
5 -6 2 166.23 5.79
5 -6 3 17.1 1.81
5 -5 -5 26.49 2.13
5 -5 -5 24.14 2.52
5 -5 -4 45.82 3.84
5 -5 -4 43.74 3.25
5 -5 -3 74.23 4.74
5 -5 -3 67.06 5.17
5 -5 -2 0.87 0.43
5 -5 -2 0.09 0.5
5 -5 -1 1686.19 22.72
5 -5 -1 1693.98 23.29
5 -5 0 42.74 3.27
5 -5 0 43.22 3.35
5 -5 1 160.91 6.62
5 -5 2 8.99 1.42
5 -5 3 5.48 1.04
5 -5 3 7.91 1.21
5 -4 -6 0.14 0.24
5 -4 -6 0.11 0.36
5 -4 -5 2 0.83
5 -4 -5 1.1 0.81
5 -4 -5 2.07 0.74
5 -4 -4 204.83 8.82
5 -4 -4 215.35 7.9
5 -4 -3 25.5 2.7
5 -4 -3 24.11 3.13
5 -4 -2 9.51 1.57
5 -4 -2 8.44 1.42
5 -4 -2 12.67 2.11
5 -4 -1 241.11 9.21
5 -4 -1 238.12 8.23
5 -4 -1 225.53 7.91
5 -4 0 0.08 0.43
5 -4 0 0.09 0.45
5 -4 1 16.28 2.04
5 -4 2 340.86 9.32
5 -4 2 353.6 9.05
5 -4 3 74.94 3.51
5 -4 3 85.97 4.19
5 -3 -7 13.53 1.49
5 -3 -7 12.44 1.29
5 -3 -6 1.24 0.61
5 -3 -6 1.15 0.54
5 -3 -5 30.51 3.07
5 -3 -5 23.3 3.07
5 -3 -5 25.17 2.41
5 -3 -4 92.91 5.42
5 -3 -4 87.56 5.16
5 -3 -3 60.24 3.74
5 -3 -3 64.1 4.45
5 -3 -3 54.62 3.66
5 -3 -2 5.1 1.21
5 -3 -2 5.36 1.17
5 -3 -2 5.34 1.09
5 -3 -2 4.29 1.21
5 -3 -1 2241.66 28.6
5 -3 -1 2236.12 23.95
5 -3 -1 2252.52 21.07
5 -3 -1 2248.2 23.96
5 -3 0 208.82 8.87
5 -3 0 201.57 6.94
5 -3 1 253.5 8.48
5 -3 1 247.14 7.64
5 -3 2 -0.4 0.45
5 -3 2 0.83 0.47
5 -3 3 -0.17 0.34
5 -2 -7 0.59 0.4
5 -2 -7 -0.12 0.33
5 -2 -6 169.35 7.34
5 -2 -6 164.27 6.42
5 -2 -6 158.76 6.74
5 -2 -5 5.72 1.27
5 -2 -5 6.13 1.35
5 -2 -5 6.67 1.47
5 -2 -5 7.41 1.34
5 -2 -4 76.8 4.05
5 -2 -4 71.06 4.3
5 -2 -4 67.59 4.16
5 -2 -4 76.25 4.5
5 -2 -4 71.51 4.38
5 -2 -3 16.47 1.86
5 -2 -3 14.89 1.9
5 -2 -3 14.34 1.84
5 -2 -3 14.4 1.93
5 -2 -3 12.61 1.83
5 -2 -2 9.04 1.62
5 -2 -2 6.22 1.02
5 -2 -2 7.33 1.36
5 -2 -2 8.8 1.42
5 -2 -1 204.97 7.25
5 -2 -1 204.94 7.89
5 -2 -1 198.91 6.49
5 -2 -1 197.41 4.98
5 -2 -1 205.78 6.85
5 -2 0 11.08 1.71
5 -2 0 13.05 1.74
5 -2 1 18.01 2.06
5 -2 1 17.11 2.07
5 -2 2 245.58 7.58
5 -2 3 96.04 3.68
5 -1 -8 10.63 1.41
5 -1 -7 11.03 1.78
5 -1 -6 0.05 0.35
5 -1 -6 0.28 0.29
5 -1 -5 26.58 2.16
5 -1 -5 22.02 2.5
5 -1 -5 20.15 2.26
5 -1 -5 23.4 2.43
5 -1 -4 131.98 5.23
5 -1 -4 134.18 5.69
5 -1 -4 137.96 6.02
5 -1 -4 133.55 5.79
5 -1 -4 141.34 5.8
5 -1 -3 21.8 2.28
5 -1 -3 20.29 2.17
5 -1 -3 23.92 2.41
5 -1 -3 22.19 2.28
5 -1 -2 -0.37 0.58
5 -1 -2 0.16 0.33
5 -1 -2 -0.02 0.46
5 -1 -2 0.1 0.22
5 -1 -2 0.12 0.24
5 -1 -1 1013.44 15.75
5 -1 -1 1041.93 14.95
5 -1 -1 1028.91 15.37
5 -1 -1 1056.28 12.64
5 -1 0 185.68 6.37
5 -1 0 192.56 6.7
5 -1 0 195.92 5.35
5 -1 1 77.64 4.47
5 -1 2 0.71 0.49
5 0 -8 46.89 3.42
5 0 -7 10.05 1.76
5 0 -6 946.06 16.41
5 0 -5 50.52 2.99
5 0 -5 50.14 3.68
5 0 -4 1.52 0.63
5 0 -4 1.38 0.64
5 0 -4 1.97 0.76
5 0 -3 4.68 0.99
5 0 -3 6.33 1.29
5 0 -3 5.03 0.95
5 0 -2 2.09 0.64
5 0 -2 3.35 0.86
5 0 -2 3.28 0.8
5 0 -1 76.3 3.82
5 0 -1 70.12 3.86
5 0 -1 78.46 3.49
5 0 0 25.62 2.52
5 0 0 22.93 1.73
5 0 1 9.3 1.48
5 0 2 56.56 2.93
5 1 -8 4.73 1.08
5 1 -7 2.91 0.89
5 1 -6 0.43 0.6
5 1 -5 3.43 0.94
5 1 -5 0 0.36
5 1 -4 139.02 5.17
5 1 -4 135.99 5.91
5 1 -4 121.59 4.96
5 1 -3 142.11 5.12
5 1 -3 130.12 5.19
5 1 -3 136.15 5.5
5 1 -2 18.41 1.73
5 1 -2 14.78 1.69
5 1 -2 19.14 1.92
5 1 -1 171.87 6.15
5 1 -1 164.59 5.07
5 1 0 58.96 3.7
5 1 0 63.29 2.88
5 1 1 1.87 0.64
5 2 -8 52.79 2.95
5 2 -7 25.34 2.33
5 2 -6 1152.3 16.44
5 2 -5 119.01 5.37
5 2 -4 12.95 1.68
5 2 -4 12.32 1.66
5 2 -3 1.56 0.63
5 2 -3 1.79 0.61
5 2 -2 3.6 0.9
5 2 -2 5.85 1.08
5 2 -1 10.68 1.48
5 2 -1 13.63 1.39
5 2 0 3.81 0.86
5 3 -7 3.16 0.65
5 3 -6 1.14 0.55
5 3 -5 47.92 2.84
5 3 -5 41.47 2.73
5 3 -4 40.09 2.71
5 3 -3 68.83 3.45
5 3 -2 28.05 2.16
5 3 -2 27.43 1.87
5 3 -1 9.27 1.13
5 3 -1 12.12 0.98
5 4 -7 7.96 0.97
5 4 -6 400.88 7.3
5 4 -5 69.78 3.05
5 4 -4 2.8 0.6
5 4 -3 0.1 0.2
6 -7 -1 1.07 0.4
6 -6 -4 2.87 0.57
6 -6 -4 1.94 0.5
6 -6 -3 -0.53 0.29
6 -6 -3 0.02 0.28
6 -6 -2 3.64 0.95
6 -6 -1 77.99 3.89
6 -6 -1 55.4 3.47
6 -6 0 6.89 1.2
6 -6 0 6.92 1
6 -6 1 16.74 1.68
6 -5 -5 10.64 1.37
6 -5 -5 11.92 1.16
6 -5 -4 100.56 4.52
6 -5 -4 93.14 4.64
6 -5 -3 35.6 2.68
6 -5 -3 25.92 3.08
6 -5 -2 3.78 0.92
6 -5 -2 2.58 0.83
6 -5 -1 36.31 3.25
6 -5 -1 29.91 2.67
6 -5 0 29.17 2.96
6 -5 0 28.57 2.32
6 -5 1 21.48 2.18
6 -5 1 19.47 1.78
6 -4 -6 4.96 0.96
6 -4 -5 16.81 2.16
6 -4 -5 18.64 1.81
6 -4 -4 27.6 2.62
6 -4 -4 23.57 2.73
6 -4 -3 53.12 3.24
6 -4 -3 58.88 3.67
6 -4 -3 57.35 4.64
6 -4 -2 9.01 1.63
6 -4 -2 7.76 1.6
6 -4 -1 617.41 15.53
6 -4 -1 666.76 12
6 -4 0 2.08 0.64
6 -4 0 1.27 0.54
6 -4 1 3.28 0.85
6 -4 1 3.95 0.85
6 -4 2 2.93 0.54
6 -4 2 3.19 0.67
6 -3 -6 63.61 4.11
6 -3 -5 18.39 2.31
6 -3 -5 17.57 2
6 -3 -4 285.97 7.26
6 -3 -4 279.73 8.47
6 -3 -4 292.75 9.48
6 -3 -3 38.69 2.99
6 -3 -3 49.65 3.79
6 -3 -2 10.51 1.84
6 -3 -2 8.99 1.49
6 -3 -1 72.44 5.05
6 -3 -1 69.51 3.69
6 -3 -1 74.36 3.94
6 -3 0 5.59 1.19
6 -3 0 5.13 1.02
6 -3 1 15.62 1.57
6 -3 1 15.77 1.62
6 -2 -7 32.13 2.21
6 -2 -6 6.29 1.15
6 -2 -5 32.75 2.38
6 -2 -5 31.88 2.78
6 -2 -5 37.73 3.09
6 -2 -4 40.85 2.94
6 -2 -4 48.9 3.33
6 -2 -4 49.98 3.66
6 -2 -3 108.35 5.17
6 -2 -3 114.88 4.63
6 -2 -3 124.14 5.57
6 -2 -2 0.34 0.42
6 -2 -2 1.08 0.64
6 -2 -1 1123.78 16.68
6 -2 -1 1119.33 14.55
6 -2 0 10.01 1.35
6 -2 0 10.69 1.41
6 -2 1 28.99 2.23
6 -1 -7 2.3 0.75
6 -1 -6 17.16 2.09
6 -1 -5 6.98 1.18
6 -1 -5 6.5 1.33
6 -1 -4 234.17 7.13
6 -1 -4 237.27 7.45
6 -1 -3 15.83 1.89
6 -1 -3 16.85 1.87
6 -1 -3 15.41 1.35
6 -1 -2 25.33 2.35
6 -1 -2 25.07 1.86
6 -1 -1 44.08 2.79
6 -1 -1 45.91 2.88
6 -1 0 5 0.95
6 -1 1 10.2 1.22
6 0 -7 49.83 3.45
6 0 -6 4.27 1.07
6 0 -5 45.16 2.87
6 0 -5 41.94 3.1
6 0 -4 41.76 2.9
6 0 -4 38.73 2.97
6 0 -4 36.6 2.21
6 0 -3 24.45 2.22
6 0 -3 25.39 2.38
6 0 -3 21.56 1.8
6 0 -2 0.25 0.34
6 0 -2 -0.08 0.22
6 0 -1 621.2 10.39
6 0 -1 659.28 8.66
6 0 0 31.58 2.21
6 1 -7 0.55 0.3
6 1 -6 42.83 2.91
6 1 -5 4.16 0.97
6 1 -5 3.72 0.7
6 1 -4 66.39 3.59
6 1 -4 63.84 3.1
6 1 -3 2.41 0.6
6 1 -3 2.4 0.61
6 1 -2 19.61 1.55
6 1 -1 19.95 1.67
6 2 -7 10.47 1.13
6 2 -6 1.84 0.54
6 2 -6 1.69 0.4
6 2 -5 9.9 1.27
6 2 -5 9.49 1.13
6 2 -4 24.51 1.8
6 2 -3 0.67 0.32
6 2 -2 0.68 0.31
6 3 -6 120.5 3.41
6 3 -5 7.28 0.81
6 3 -4 8.24 0.82
7 -5 -3 50.03 2.96
7 -5 -2 0.48 0.25
7 -5 -2 0.54 0.29
7 -5 -1 15.01 1.45
7 -4 -5 10.88 1.27
7 -4 -4 41.29 3.13
7 -4 -3 22.05 1.85
7 -4 -3 28.65 2.41
7 -4 -2 2.66 0.72
7 -4 -2 5.09 0.92
7 -4 -1 1.62 0.48
7 -3 -4 1.44 0.45
7 -3 -4 0.95 0.65
7 -3 -3 1 0.49
7 -3 -3 2.14 0.67
7 -3 -2 6.02 1.18
7 -3 -1 20.3 1.72
7 -2 -6 29.76 1.7
7 -2 -5 25.22 1.68
7 -2 -5 23.55 1.73
7 -2 -4 118.48 4.43
7 -2 -4 130.47 4.35
7 -2 -3 33 2.63
7 -2 -2 -0.05 0.34
7 -2 -1 4.49 0.7
7 -1 -6 1.65 0.47
7 -1 -5 12.85 1.36
7 -1 -4 6.08 1.02
7 -1 -3 9.62 1.19
7 -1 -2 6.24 0.82
7 0 -6 44.36 2.31
7 0 -5 15.18 1.41
7 0 -4 86.87 2.35
7 1 -4 3.39 0.48
0 0 -1 276.2 3.04
0 0 -2 2762.54 14.52
0 0 -3 140.9 4.2
0 0 -4 30.29 2.3
0 0 -5 52.36 3.98
0 0 -6 4.96 1.31
0 0 -7 12.71 1.62
0 1 -7 1.17 0.58
0 1 -6 0.97 0.77
0 1 -5 9.47 1.43
0 1 -5 11.55 1.85
0 1 -4 119.09 4.19
0 1 -3 4800.51 20.17
0 1 -2 348.02 4.09
0 1 -1 55.78 1.43
0 1 0 24.87 0.79
0 -1 0 24.01 0.89
0 -1 -1 318.52 4.23
0 -1 -2 543.89 7.31
0 -1 -3 3192.65 21.99
0 -1 -4 203.93 7.04
0 -1 -5 55 4.03
0 -1 -6 4.78 1.21
0 2 -7 13.76 1.89
0 2 -6 7.55 1.54
0 2 -5 87.74 4.72
0 2 -5 86.73 4.62
0 2 -5 100.73 4.45
0 2 -4 5.93 0.86
0 2 -4 3.25 0.74
0 2 -3 72.73 2.9
0 2 -2 516.76 6.5
0 2 -1 11.71 0.79
0 -2 -1 485.42 7.34
0 -2 -1 477.42 6.83
0 -2 -2 798.54 11.21
0 -2 -3 84.83 4.43
0 -2 -4 81.11 4.43
0 -2 -4 86.02 4.9
0 -2 -5 9.64 1.76
0 -2 -6 12.02 1.7
0 3 -8 -0.19 0.3
0 3 -7 65.03 4.15
0 3 -6 10.11 1.73
0 3 -5 769.23 13.29
0 3 -5 794.9 13
0 3 -4 30.28 2.22
0 3 -4 36.26 2.12
0 3 -3 822.4 10.7
0 3 -2 124.47 3.6
0 3 -1 15.15 1.14
0 -3 0 30.32 2.01
0 -3 -1 244.24 6.66
0 -3 -1 239.65 6.25
0 -3 -2 195.71 6.6
0 -3 -3 596.56 13.65
0 -3 -3 610.5 13.36
0 -3 -4 81.28 4.76
0 -3 -5 18.89 1.86
0 -3 -5 17.84 2.2
0 4 -8 351.46 7.18
0 4 -7 3.16 0.98
0 4 -6 7.81 1.51
0 4 -5 144.23 6.03
0 4 -5 125.09 5.53
0 4 -4 2.13 0.78
0 4 -4 1.95 0.81
0 4 -3 70.07 3.44
0 4 -2 106.02 3.92
0 -4 1 0.64 0.37
0 -4 0 2251.84 20.99
0 -4 -1 109.97 4.71
0 -4 -2 26.93 2.7
0 -4 -3 11.29 1.97
0 -4 -4 52.34 3.35
0 5 -7 130.32 5.5
0 5 -6 0.99 0.62
0 5 -6 0.03 0.24
0 5 -5 1394 19.62
0 5 -4 44.73 3.46
0 5 -4 45.59 3.18
0 5 -3 2.72 0.79
0 5 -3 2.56 0.73
0 5 -2 53.6 3.27
0 -5 1 29.57 2.87
0 5 -1 26.71 2.38
0 5 0 3.16 0.88
0 -5 0 1.65 0.71
0 -5 -1 54.47 3.83
0 5 1 46.47 2.88
0 -5 -2 25.9 2.81
0 -5 -3 44.86 3.26
0 6 -6 -0.08 0.3
0 6 -5 107.11 4.66
0 6 -4 46.5 3.2
0 6 -3 45.43 3.31
0 6 -3 44.62 3.21
0 6 -2 147.76 6.2
0 6 -1 4.92 1.09
0 -6 0 77.32 4.39
0 6 0 74.59 3.73
0 -6 -1 9.81 1.66
0 -6 -2 3.98 0.98
0 7 -6 1.36 0.41
0 7 -6 2.29 0.68
0 7 -5 684.3 11.34
0 7 -5 693.08 11.26
0 7 -4 30.81 2.44
0 7 -4 32.07 2.69
0 7 -3 1.08 0.74
0 7 -2 14.37 1.93
0 -7 2 11.84 1.57
0 7 -1 34.05 2.54
0 -7 1 30.95 2.55
0 -7 0 1.34 0.58
0 7 0 0.56 0.31
0 -7 -1 2.38 0.7
0 8 -5 45.96 2.28
0 8 -4 72.27 3.2
0 8 -3 8.14 1.11
0 8 -2 25.97 1.83
0 -8 2 25.7 1.87
1 -8 0 1.14 0.46
1 -8 0 1.34 0.37
-1 8 -1 49.84 2.51
-1 8 -2 1.12 0.47
-1 8 -3 0.08 0.22
1 -8 4 26.44 2.35
-1 8 -4 29.18 2.09
-1 8 -5 129.17 3.87
1 -7 -2 34.91 2.26
1 -7 -1 0.44 0.29
-1 7 0 17.46 1.72
1 -7 0 17.56 2.04
1 -7 1 28.1 2.49
-1 7 -1 31.42 2.76
-1 7 -2 98.12 5
-1 7 -3 39.96 3
-1 7 -4 147.49 5.42
-1 7 -5 32.33 2.37
-1 7 -6 -0.06 0.2
1 -6 -3 3.27 0.86
1 -6 -2 14.47 2.09
1 -6 -1 3.81 1.13
-1 6 0 0.06 0.23
1 -6 0 0.32 0.32
1 -6 1 152.16 5.61
-1 6 -1 158.79 5.91
1 -6 1 152.56 6.36
-1 6 -2 48.07 3.38
1 -6 2 50.72 3.59
-1 6 -3 50.18 3.41
-1 6 -5 992.68 16.07
-1 6 -6 29.82 2.55
-1 6 -6 19.69 1.82
1 -5 -4 14.75 1.75
1 -5 -3 12.76 2.13
1 -5 -2 139.13 6.65
1 -5 -1 5.7 1.25
-1 5 0 87.75 3.88
1 -5 0 92.23 4.45
1 -5 0 93.28 4.35
-1 5 -1 156.77 5.22
1 -5 1 156.22 5.63
-1 5 -2 1 0.76
-1 5 -3 254.44 8.09
-1 5 -4 164.82 6.73
-1 5 -5 106.85 5.46
-1 5 -6 -0.03 0.3
-1 5 -7 2.7 0.77
1 -4 -5 16.21 1.79
1 -4 -5 17.29 1.91
1 -4 -4 9.84 1.84
1 -4 -3 40.23 3.5
1 -4 -2 76.5 4.19
1 -4 -1 9.2 1.29
1 -4 0 15.5 1.54
-1 4 -1 357.9 6.72
-1 4 -2 267.55 5.85
-1 4 -3 214.87 6.53
-1 4 -4 252.54 6.59
-1 4 -4 238.04 7.45
1 -4 4 238.82 7.34
-1 4 -5 2700.72 26.42
-1 4 -6 23.79 2.6
-1 4 -7 104.56 4.93
1 -3 -6 1.65 0.55
1 -3 -6 2.03 0.57
1 -3 -5 8.11 1.63
1 -3 -5 8.89 1.64
1 -3 -4 63.13 4.43
1 -3 -4 70.62 4.64
1 -3 -3 0.01 0.28
1 -3 -3 0.26 0.25
1 -3 -2 56.46 3.26
1 -3 -1 45.67 2.39
1 -3 0 43.2 1.97
-1 3 -1 164.55 3.61
-1 3 -2 2252.16 15.03
-1 3 -3 326.45 6.54
-1 3 -4 50.17 3.29
-1 3 -4 58.24 3.17
-1 3 -5 129.57 5.39
-1 3 -5 117.89 5.68
-1 3 -5 112.18 5.17
-1 3 -6 0.47 0.39
-1 3 -7 0.63 0.44
1 -2 -6 15.62 1.84
1 -2 -6 17.94 2.33
1 -2 -5 24.5 2.79
1 -2 -5 27.22 2.7
1 -2 -4 224.38 7.28
1 -2 -4 231.88 7.48
1 -2 -3 676.15 10.37
1 -2 -3 673.67 8.84
1 -2 -2 620.11 8.8
1 -2 -1 83.05 2.72
1 -2 -1 86.1 2.43
-1 2 0 5.64 0.31
-1 2 -1 582 5.44
1 -2 2 244.41 3.6
-1 2 -2 239.99 4.58
-1 2 -3 122.6 4.12
-1 2 -4 101.78 4.32
-1 2 -5 2735.26 26.28
-1 2 -5 2780.82 30.42
-1 2 -5 2756.16 28.89
-1 2 -6 0.46 0.51
-1 2 -7 92.34 4.14
1 -1 -7 21.93 2.14
1 -1 -6 2.57 0.95
1 -1 -6 3.24 0.87
1 -1 -5 42.46 3.25
1 -1 -5 37.36 3.28
1 -1 -5 37.77 2.99
1 -1 -4 99.03 4.17
1 -1 -3 110.57 2.67
1 -1 -3 107.57 3.48
1 -1 -2 871.3 8.07
1 -1 -2 865.11 7.6
1 -1 -1 1277.85 7.69
1 -1 -1 1272.96 8.05
1 -1 1 27.37 1.06
-1 1 -2 511.15 6.92
-1 1 -3 122.94 4.14
-1 1 -4 28.82 2.93
-1 1 -4 26.42 2.35
-1 1 -5 53.72 3.78
-1 1 -5 57.6 4.66
-1 1 -6 0.36 0.51
-1 1 -7 2.38 0.6
1 0 -7 160.25 6.35
1 0 -6 121.15 6.19
1 0 -5 521.11 10.57
1 0 -5 534.91 10.68
1 0 -5 530.47 11.92
1 0 -4 857.99 9.79
1 0 -3 4973.13 13.65
1 0 -3 4986.32 18.1
1 0 -2 1376.23 7.03
1 0 -2 1373.83 6.71
1 0 -1 279.07 2.86
1 0 -1 265.42 3.09
-1 0 0 73.88 1.63
1 0 0 73.64 1.72
-1 0 0 73.87 1.54
-1 0 -1 368.24 5.2
-1 0 -2 130.17 4
-1 0 -3 234.43 6.36
-1 0 -4 22.44 2.65
-1 0 -4 18.2 2.03
-1 0 -5 606.22 14.29
-1 0 -6 4.37 1.06
1 1 -8 3.42 0.71
1 1 -8 3.02 0.83
1 1 -7 24.43 2.59
1 1 -6 0.88 0.46
1 1 -6 0.37 0.38
1 1 -5 73.94 4.17
1 1 -4 75.79 3.48
1 1 -4 82.18 2.84
1 1 -3 143.55 2.66
1 1 -3 148.82 4
1 1 -2 3774.47 7.59
-1 -1 1 1152.61 5.03
-1 -1 -1 22.73 1.56
-1 -1 -2 41.48 2.67
-1 -1 -3 40.64 2.91
-1 -1 -4 1.05 0.63
-1 -1 -5 15.25 2.25
-1 -1 -6 0.22 0.25
1 2 -8 11.99 1.51
1 2 -8 11.43 1.41
1 2 -7 142.84 6.23
1 2 -6 92.73 5.12
1 2 -6 91.7 4.98
1 2 -5 566.93 10.88
1 2 -4 740.1 10.73
1 2 -3 7938.45 18.98
1 2 -3 7939.65 31.53
1 2 -2 489.66 6.48
-1 -2 1 133.18 2.82
1 2 -1 130.26 3.21
-1 -2 0 188.09 4.61
-1 -2 0 185.39 4.81
-1 -2 -1 0.16 0.18
-1 -2 -2 91.37 4.7
-1 -2 -3 428.77 11.32
-1 -2 -5 69.53 4.46
1 3 -8 39.26 2.74
1 3 -7 36.01 3.15
1 3 -6 2.4 0.86
1 3 -6 3.09 0.93
1 3 -5 30.58 2.57
1 3 -5 34.62 2.8
1 3 -4 54.79 3.39
1 3 -3 8.31 1.11
1 3 -2 924.38 10.31
-1 -3 1 217.09 5.74
-1 -3 0 9976.07 43.25
-1 -3 0 9999 44.2
-1 -3 -1 12.3 1.61
-1 -3 -2 49.28 3.45
-1 -3 -2 52.26 3.98
-1 -3 -3 24.22 2.54
1 4 -8 2.58 0.7
1 4 -7 10.62 1.68
1 4 -6 5.92 1.3
1 4 -5 5.27 1.11
1 4 -5 5.25 1.25
1 4 -4 141.25 5.48
1 4 -4 136.25 5.68
1 4 -3 1645.34 17.2
1 4 -2 46.91 2.71
-1 -4 1 52.08 3.47
1 4 0 75.83 4.21
-1 -4 0 72.48 4.3
1 4 1 68.13 3.62
-1 -4 -1 69.13 3.91
-1 -4 -2 24.73 2.58
-1 -4 -3 114.87 4.99
1 4 3 105.44 4.01
-1 -4 -4 10.13 1.38
1 5 -8 138.68 4.49
1 5 -7 15.88 1.89
1 5 -6 13.98 1.91
1 5 -5 31.07 2.88
1 5 -5 31.38 2.54
1 5 -4 17.25 1.88
1 5 -4 21.39 2.26
1 5 -3 1.18 0.61
1 5 -3 1.71 0.66
1 5 -3 0.82 0.58
1 5 -2 26.08 2.57
-1 -5 2 30.8 3.2
1 5 -1 9.25 1.54
-1 -5 1 9.25 1.71
1 5 0 1225.33 16.77
-1 -5 0 1218.27 17.04
-1 -5 -1 13.39 1.92
-1 -5 -2 4.47 1.09
-1 -5 -3 4.1 0.68
1 6 -7 18.7 1.92
1 6 -6 0.45 0.57
1 6 -6 1.42 0.55
1 6 -5 140.35 5.46
1 6 -5 144.36 6.13
1 6 -4 26.53 2.52
1 6 -4 26.27 2.62
1 6 -3 157.52 6.47
1 6 -3 145.07 5.59
1 6 -2 8.2 1.61
-1 -6 1 6.28 1.27
1 6 -1 5.91 1.21
-1 -6 0 13.94 1.93
-1 -6 -1 46.43 3.38
1 7 -6 1.45 0.4
1 7 -6 1.38 0.48
1 7 -5 36.78 2.51
1 7 -5 35.7 2.47
1 7 -4 0.73 0.37
1 7 -4 0.25 0.26
1 7 -3 2.24 0.71
-1 -7 2 4.38 0.91
1 7 -2 5.8 1.07
-1 -7 1 1.91 0.64
1 7 -1 1.97 0.51
2 -8 0 3.37 0.83
-2 8 -1 0.71 0.32
2 -8 1 0.93 0.48
-2 8 -2 3.22 0.74
2 -8 2 2.64 0.86
-2 8 -3 1.65 0.54
2 -8 3 0.65 0.35
-2 8 -4 16.63 1.46
2 -7 -2 7.15 1.18
2 -7 -1 0.43 0.46
2 -7 -1 0.48 0.55
-2 7 -1 72.82 4.13
-2 7 -2 3.95 1.05
-2 7 -3 17.83 1.95
-2 7 -4 8.27 1.26
-2 7 -5 0.19 0.24
2 -6 -4 2.41 0.66
2 -6 -3 60.73 4.11
2 -6 -2 152.21 7.08
2 -6 -2 150.47 6.73
2 -6 -1 12.81 1.99
-2 6 0 26.1 2.3
2 -6 0 25.44 2.91
2 -6 1 106.38 5.93
-2 6 -1 90.43 4.45
2 -6 2 99.89 5.79
-2 6 -4 131.27 6.15
-2 6 -5 4.86 1.13
-2 6 -6 -0.13 0.2
-2 6 -6 19.35 1.96
2 -5 -5 115.38 4.53
2 -5 -4 18.6 2.36
2 -5 -3 2.08 0.89
2 -5 -2 27.85 3.16
2 -5 -2 21.5 2.62
2 -5 -1 1.63 0.68
2 -5 -1 1.71 0.89
2 -5 0 17.32 2.13
2 -5 1 250.94 8.14
2 -5 2 38.54 3.09
-2 5 -2 34.97 2.85
2 -5 2 28.23 2.82
2 -5 3 24.51 2.69
-2 5 -3 22.53 2.45
2 -5 4 198.19 7.34
-2 5 -4 202.59 7.93
2 -5 5 346.84 8.84
-2 5 -5 344.21 10.21
-2 5 -6 32.76 2.93
2 -4 -6 26.61 2.05
2 -4 -5 25.36 2.64
2 -4 -4 25.32 2.72
2 -4 -3 231 7.81
2 -4 -2 877.19 15.9
2 -4 -1 333.85 9.27
2 -4 -1 333.68 6.26
2 -4 0 714.34 11.98
2 -4 0 706.4 9.02
2 -4 1 971.41 13.25
2 -4 2 1435.48 15.43
2 -4 3 390.97 9.49
-2 4 -3 397.81 9.73
-2 4 -4 200.36 6.77
2 -4 4 203.65 6.92
-2 4 -4 210.93 7.78
2 -4 5 26.06 2.42
-2 4 -5 24.22 2.75
-2 4 -6 7.71 1.49
2 -3 -6 195.25 7.12
2 -3 -5 268.26 8.79
2 -3 -4 45.53 3.43
2 -3 -3 2.94 0.76
2 -3 -2 84.71 4.51
2 -3 -1 5.97 0.64
2 -3 -1 7.61 1.25
2 -3 0 150.86 4.56
2 -3 1 394.3 7
2 -3 2 232.13 4.97
-2 3 -2 230.88 4.78
-2 3 -3 343.23 8.16
-2 3 -3 357.82 7.48
-2 3 -4 448.21 10.38
2 -3 4 446.44 9.72
-2 3 -4 444.91 11.53
-2 3 -5 1592.25 23.91
-2 3 -6 61.81 4.23
2 -2 -7 8.33 1.23
2 -2 -6 19.01 2.37
2 -2 -5 60.65 4.05
2 -2 -4 75.24 3.64
2 -2 -3 332.3 6.63
2 -2 -2 2294.69 17.33
2 -2 -1 717.24 8.83
2 -2 0 2355.39 15.06
2 -2 1 1521.71 11.84
-2 2 -2 3394.31 23.81
-2 2 -3 515.39 10.85
-2 2 -4 177.18 7.28
2 -2 4 170.21 6.17
-2 2 -4 176.74 8.12
-2 2 -5 26.05 3.41
-2 2 -6 0.24 0.34
2 -1 -7 19.75 1.99
2 -1 -6 21.92 2.47
2 -1 -5 115.87 5.36
2 -1 -5 125.59 6.05
2 -1 -4 13.59 1.34
2 -1 -3 43.42 2.03
2 -1 -3 39.31 1.93
2 -1 -2 642.13 5.46
2 -1 -2 640.66 7.28
2 -1 -1 0.67 0.28
2 -1 0 30.04 1.58
-2 1 -1 479.36 7.42
2 -1 1 476.34 6.24
-2 1 -2 152.09 5.08
-2 1 -3 375 9.78
-2 1 -3 383.06 11.18
2 -1 4 269.77 7.97
-2 1 -4 271.79 9.72
-2 1 -4 265.27 10.81
-2 1 -5 1591.56 24.56
-2 1 -6 12.24 1.56
2 0 -8 0.63 0.49
2 0 -7 10.91 1.57
2 0 -6 17.98 2.35
2 0 -6 15.55 2.05
2 0 -5 148.46 5.76
2 0 -4 46.73 2.55
2 0 -3 3.79 0.53
2 0 -3 3.85 0.59
2 0 -2 395.55 5.22
2 0 -2 354.88 5.6
2 0 -1 0.53 0.16
2 0 -1 0.23 0.12
-2 0 1 0.58 0.16
2 0 0 98.11 2.86
-2 0 0 104.02 2.86
-2 0 -1 249.39 5.71
-2 0 -2 1245.29 15.7
-2 0 -3 103.72 5.37
2 0 3 113.54 4.98
2 0 4 93.83 4.33
-2 0 -4 85.6 5.71
-2 0 -5 6.06 1.45
2 1 -8 93.77 4.64
2 1 -6 97.01 4.8
2 1 -6 101.37 5.23
2 1 -5 102.08 4.41
2 1 -4 579.85 9.09
2 1 -3 1330.94 12.48
2 1 -2 1016.35 9.68
-2 -1 1 3.19 0.55
-2 -1 1 3.45 0.44
-2 -1 0 4.47 0.72
-2 -1 0 4.89 0.71
-2 -1 -1 265.33 6.71
-2 -1 -2 22.83 2.28
2 1 3 10.08 1.41
2 1 4 42.78 2.68
-2 -1 -4 39.59 3.67
-2 -1 -5 554.25 11.83
2 2 -8 4.35 1.01
2 2 -7 18 2.33
2 2 -6 23.36 2.48
2 2 -6 23.03 2.48
2 2 -5 101.34 4.65
2 2 -4 23.01 2.12
2 2 -3 21.19 1.68
2 2 -2 202.24 4.94
-2 -2 1 241.59 6.11
-2 -2 1 246.14 5.07
-2 -2 0 969.56 12.92
-2 -2 0 960.8 11.93
-2 -2 -1 3.29 0.91
-2 -2 -2 130.36 6.31
2 2 3 13.27 1.61
-2 -2 -4 21.62 2.6
2 3 -7 242.2 7.41
2 3 -7 249.8 7.75
2 3 -6 119.96 6.73
2 3 -6 152.25 5.92
2 3 -5 378.59 9.03
2 3 -4 586.98 10.81
2 3 -3 1423.82 15.11
2 3 -2 207.72 5.61
-2 -3 2 214.46 6.21
-2 -3 1 10.76 1.57
2 3 0 24.23 2.14
-2 -3 0 25.95 2.31
-2 -3 -1 23.99 2.62
-2 -3 -1 22.22 2.13
-2 -3 -2 4.83 1.16
2 3 3 14.05 1.57
2 4 -8 0.85 0.38
2 4 -7 43.35 3.08
2 4 -6 0.65 0.46
2 4 -5 5.7 1.18
2 4 -4 33.97 2.6
2 4 -4 33.68 2.82
2 4 -4 33.41 2.77
2 4 -3 0.15 0.17
2 4 -3 -0.02 0.2
2 4 -2 173.28 6.1
-2 -4 2 152.12 6.3
2 4 -2 165.02 5.91
2 4 -1 93.68 4.54
-2 -4 1 88.85 4.99
2 4 0 810.39 13.33
-2 -4 -1 0.36 0.35
-2 -4 -2 6.47 1.18
-2 -4 -3 3.82 0.84
2 5 -8 13.3 1.44
2 5 -7 75.89 4.42
2 5 -6 43.67 3.5
2 5 -5 104.16 5.06
2 5 -5 97.61 5.1
2 5 -4 144.36 5.69
2 5 -4 146.6 6.24
2 5 -3 434.43 10.03
2 5 -3 417.56 9.92
2 5 -2 21.22 2.29
2 5 -2 19.47 1.9
2 5 -1 25.66 2.39
-2 -5 0 22.43 2.5
-2 -5 -1 2.75 0.8
2 6 -7 31.59 2.36
2 6 -6 12.87 1.64
2 6 -5 0.41 0.2
2 6 -5 0.61 0.49
2 6 -4 26.98 2.36
2 6 -4 26.55 2.47
2 6 -3 0.47 0.53
2 6 -3 0.83 0.38
2 6 -2 14.31 1.72
-2 -6 1 20.96 2.31
-2 -6 0 280.84 7.83
2 7 -6 2.51 0.56
2 7 -5 0.13 0.16
2 7 -5 0.05 0.16
2 7 -4 24.23 1.77
2 7 -3 59.49 2.76
-2 -7 3 65.21 3.21
-2 -7 2 1.05 0.47
3 -8 -1 39.79 2.6
3 -8 0 -0.57 0.38
3 -8 1 1.3 0.55
-3 8 -2 105.77 4.02
3 -8 2 92.11 4.22
-3 8 -3 87.35 3.5
3 -7 -3 8.39 1.09
3 -7 -2 5.9 1.01
3 -7 -2 6.68 1.26
3 -7 -1 178.98 7.46
3 -7 0 77.32 4.82
-3 7 -1 36.73 2.75
3 -7 1 39.49 3.42
3 -7 2 0.52 0.53
-3 7 -2 -0.08 0.36
-3 7 -3 -0.35 0.33
-3 7 -5 0.13 0.25
3 -6 -4 -0.26 0.35
3 -6 -3 1.18 0.49
3 -6 -3 1.24 0.44
3 -6 -2 1.21 0.65
3 -6 -2 2.56 1.04
3 -6 -1 56.07 4.52
3 -6 0 -0.28 0.57
-3 6 -1 -0.48 0.42
3 -6 1 37.47 3.51
3 -6 2 129.09 6.02
-3 6 -4 31.54 2.61
-3 6 -5 106.72 4.39
3 -5 -5 6.62 1.22
3 -5 -4 27.48 2.81
3 -5 -3 158.47 7.02
3 -5 -3 147.76 6.11
3 -5 -2 100.92 5.38
3 -5 -2 111.37 6.51
3 -5 -2 118.57 6.26
3 -5 -1 38.26 3.71
3 -5 -1 32.56 3.58
3 -5 0 44.09 3.62
3 -5 1 1.7 0.62
3 -5 1 2.65 0.89
3 -5 1 1.34 0.71
3 -5 2 0.63 0.61
3 -5 3 9.72 1.65
3 -5 4 28.98 2.74
-3 5 -4 32.62 3.01
3 -5 5 0.08 0.3
-3 5 -5 0 0.26
3 -4 -6 572.89 10.99
3 -4 -5 164.42 6.65
3 -4 -4 72.73 4.65
3 -4 -3 1.27 0.62
3 -4 -3 1.77 0.74
3 -4 -3 0.79 0.43
3 -4 -2 7.66 1.6
3 -4 -2 6.22 1.54
3 -4 -1 99.54 5.25
3 -4 0 51.53 3.26
3 -4 1 161.16 5.56
3 -4 2 18.67 2.16
-3 4 -3 58 3.81
-3 4 -3 59.78 3.84
3 -4 3 59.67 3.82
3 -4 4 10.72 1.67
-3 4 -4 10.53 1.78
3 -4 5 15.66 1.77
-3 4 -5 15.42 2.09
3 -3 -7 0.69 0.38
3 -3 -6 67.15 4.27
3 -3 -6 68.58 4.16
3 -3 -5 23.17 2.61
3 -3 -5 26.32 2.58
3 -3 -4 124.96 6.07
3 -3 -3 1139.23 16.2
3 -3 -2 1142.01 15.99
3 -3 -1 308.95 7.27
3 -3 0 139.98 4.7
3 -3 1 539.19 9.25
-3 3 -2 180.59 6.01
3 -3 2 200.02 6.46
-3 3 -3 140.75 6
3 -3 3 141.29 5.81
-3 3 -3 146.02 6.46
3 -3 4 83.96 4.69
-3 3 -4 83.8 5.33
3 -3 5 2.15 0.6
-3 3 -5 2.39 0.89
3 -2 -7 32.64 2.8
3 -2 -7 28.06 2.71
3 -2 -6 1199.76 18.97
3 -2 -5 683.88 14.08
3 -2 -4 495.05 9.23
3 -2 -3 12.89 1.47
3 -2 -2 36.57 2.3
3 -2 -1 170.11 4.9
3 -2 0 210.47 5.56
-3 2 -1 198.04 5.89
3 -2 1 185.13 4.8
-3 2 -2 10.62 1.62
3 -2 2 11.3 1.51
3 -2 3 8.87 1.57
-3 2 -3 9.11 1.73
-3 2 -3 8.4 1.78
3 -2 4 159.94 6.34
-3 2 -4 159.5 8.01
-3 2 -5 122.46 5.51
3 -1 -8 0.43 0.37
3 -1 -7 1.8 0.74
3 -1 -7 2.3 1.02
3 -1 -6 80.81 4.91
3 -1 -5 101.87 5.08
3 -1 -4 336.09 6.84
3 -1 -3 1924.47 16.17
3 -1 -2 3282.91 20.42
3 -1 -1 1028.13 11.49
-3 1 0 917.21 10.76
3 -1 0 932.55 11.18
-3 1 -1 935.18 12.98
3 -1 1 938.25 10.8
-3 1 -2 606.59 12.8
3 -1 2 631.38 12.26
3 -1 3 159.32 6.74
-3 1 -3 156.5 8.16
3 -1 4 84.88 4.15
-3 1 -4 80.62 5.46
-3 1 -5 0.23 0.23
3 0 -8 8.29 1.38
3 0 -7 10.43 1.71
3 0 -7 9.47 2.05
3 0 -6 907.04 15.55
3 0 -6 876.8 18.4
3 0 -6 859.85 15.7
3 0 -5 902.62 13.86
3 0 -5 916.61 12.89
3 0 -5 918.51 15.35
3 0 -4 356.94 6.73
3 0 -4 367.95 7.07
3 0 -3 35.35 1.87
3 0 -3 30.12 1.87
3 0 -2 244.63 5.35
3 0 -2 247.82 4.17
-3 0 1 34.02 1.68
3 0 -1 32.32 2.06
-3 0 0 19.77 1.69
-3 0 -1 154.72 5.75
-3 0 -2 6.77 1.43
3 0 2 8.44 1.49
3 0 3 38.75 3.01
-3 0 -3 35.92 3.65
3 0 4 102.48 4
-3 0 -4 104.03 5.42
3 1 -8 0.31 0.5
3 1 -7 3.34 1.05
3 1 -6 54.36 4.12
3 1 -6 60.05 4.08
3 1 -5 259.17 7.4
3 1 -5 235.14 7.37
3 1 -4 116.23 4.2
3 1 -3 470.49 7.89
-3 -1 2 1466.63 13.05
3 1 -2 1469.12 13.36
-3 -1 1 232.64 5.31
-3 -1 0 325.35 7.15
-3 -1 -1 211.96 6.95
3 1 1 214.21 4.92
3 1 2 247.26 7.44
3 1 3 25.52 2.24
-3 -1 -3 20.5 2.59
3 1 4 54.13 2.5
-3 -1 -4 53.5 3.44
3 2 -8 70.49 4.02
3 2 -7 16.13 2.12
3 2 -6 95.41 4.9
3 2 -6 80.19 4.67
3 2 -5 199.71 6.47
3 2 -5 202.15 6.76
3 2 -5 208.89 7.02
3 2 -4 0.21 0.33
3 2 -3 11.67 1.4
-3 -2 2 341.49 8.15
-3 -2 1 6.68 1.18
3 2 0 4.26 0.79
3 2 1 94.97 3.36
3 2 2 -0.12 0.32
3 2 3 7.7 1.14
-3 -2 -3 7.75 1.44
3 3 -8 2.57 0.66
3 3 -7 9.23 1.43
3 3 -7 9.54 1.77
3 3 -6 21.09 2.17
3 3 -6 25.14 2.83
3 3 -5 128.03 5.35
3 3 -5 129.78 5.64
3 3 -5 131.91 5.82
3 3 -4 12.19 1.67
3 3 -4 14.92 1.81
3 3 -3 19.47 1.84
-3 -3 3 22.08 2.46
3 3 -3 21.02 2.19
3 3 -2 103.53 4.21
-3 -3 2 107.85 5.41
3 3 -2 107.07 4.97
3 3 -1 0.36 0.32
3 3 0 1.33 0.51
3 3 2 56.52 3.29
3 4 -8 60.68 3.08
3 4 -7 65.4 4.44
3 4 -6 2.56 0.97
3 4 -5 0.24 0.49
3 4 -4 60.3 3.53
-3 -4 4 55.77 4.18
3 4 -4 59.87 3.95
3 4 -4 59.69 3.86
3 4 -3 69.25 3.72
-3 -4 3 76.42 5.13
3 4 -3 81.43 4.51
3 4 -2 79.08 4.07
3 4 -2 77.39 3.88
3 4 -1 1.47 0.53
-3 -4 0 0.27 0.27
3 4 1 26.16 2.19
3 5 -8 0.27 0.17
3 5 -7 29.66 2.54
3 5 -6 0.17 0.48
3 5 -5 9.6 1.59
3 5 -4 8.6 1.31
3 5 -4 9.11 1.55
3 5 -3 2.06 0.68
3 5 -2 0.27 0.28
-3 -5 1 8.57 1.42
-3 -5 0 25.83 1.97
3 6 -7 31.38 2
3 6 -6 8.95 1.18
3 6 -5 3.1 0.63
3 6 -5 3.29 0.78
3 6 -4 28.96 1.94
3 6 -4 31.99 2.07
-3 -6 2 9.06 1.29
4 -8 -1 288.21 7.02
4 -8 0 27.43 2.21
4 -8 1 30.93 2.29
-4 8 -2 8.22 0.95
4 -7 -3 1.18 0.56
4 -7 -2 16.04 2.06
4 -7 -1 140.06 6.15
4 -7 0 -0.01 0.28
4 -7 1 1.86 0.7
-4 7 -1 0.9 0.45
-4 7 -2 0.23 0.61
4 -6 -4 33.28 2.5
4 -6 -3 2.22 0.78
4 -6 -2 0.21 0.64
4 -6 -1 938.24 17.9
4 -6 0 159.68 7.13
4 -6 1 215.72 7.79
4 -6 2 0.79 0.39
4 -6 3 5.13 1.14
4 -5 -5 6.65 1.26
4 -5 -4 22.58 2.54
4 -5 -4 16.86 1.95
4 -5 -3 0.16 0.35
4 -5 -3 1.7 0.79
4 -5 -2 1.83 0.9
4 -5 -1 249.87 9.15
4 -5 -1 261.65 9.78
4 -5 0 0.68 0.6
4 -5 0 -0.04 0.44
4 -5 0 0.72 0.5
4 -5 1 14.48 2.1
4 -5 1 13.66 1.86
4 -5 2 452.98 11.55
4 -5 3 256.67 8.12
4 -5 4 140.64 5.69
4 -4 -6 8.62 1.37
4 -4 -6 7.75 1.27
4 -4 -5 1.44 0.73
4 -4 -4 70.05 5.1
4 -4 -4 64.44 4
4 -4 -3 41.91 3.78
4 -4 -3 47.14 4.21
4 -4 -2 2.23 0.86
4 -4 -2 3.25 1.02
4 -4 -1 1049.82 17.21
4 -4 -1 1011.82 16.21
4 -4 0 298.69 8.45
4 -4 0 308.52 8.26
4 -4 0 280.57 8.05
4 -4 1 241.7 7.96
4 -4 2 9.72 1.58
4 -4 3 0.4 0.4
4 -4 4 1.33 0.65
4 -3 -7 5.77 1.03
4 -3 -6 711.14 14.14
4 -3 -6 667.63 11.9
4 -3 -6 688.13 13.52
4 -3 -5 67.14 5.03
4 -3 -4 18.23 2.43
4 -3 -4 20.8 2.34
4 -3 -4 13.35 1.87
4 -3 -3 1.7 0.65
4 -3 -3 1.02 0.56
4 -3 -2 0.47 0.25
4 -3 -2 -0.03 0.23
4 -3 -1 238.38 7.08
4 -3 0 21.39 2.17
4 -3 0 23.32 2.18
-4 3 -1 50.77 3.45
4 -3 1 57.2 3.64
-4 3 -2 216.15 7.62
4 -3 2 226.91 7.48
4 -3 3 264.63 8.55
4 -3 4 40.2 2.84
4 -2 -7 0.2 0.4
4 -2 -7 1.06 0.68
4 -2 -6 34.89 3.43
4 -2 -6 29.99 2.96
4 -2 -6 24.78 2.69
4 -2 -5 -0.15 0.32
4 -2 -5 -0.1 0.33
4 -2 -4 253.59 7.53
4 -2 -4 265.24 7.89
4 -2 -4 272.03 7.74
4 -2 -4 271.52 8.06
4 -2 -3 836.05 13.26
4 -2 -2 186.17 6.07
4 -2 -1 154.19 5.54
-4 2 0 117.7 4.85
4 -2 0 114.33 4.69
4 -2 1 1.99 0.7
-4 2 -1 1.07 0.51
4 -2 2 0.17 0.52
4 -2 2 1 0.44
4 -2 3 23.85 2.62
4 -2 4 4.74 0.84
4 -1 -8 50.25 3.13
4 -1 -7 42.53 3.47
4 -1 -7 35.87 3.55
4 -1 -6 2212.91 27.67
4 -1 -6 2209.15 23.31
4 -1 -5 403.45 9.89
4 -1 -5 370.12 9.58
4 -1 -5 388.9 10.25
4 -1 -4 305.78 7.71
4 -1 -4 294.1 8.12
4 -1 -4 283.3 7.83
4 -1 -3 8.8 1.28
4 -1 -2 2.53 0.66
4 -1 -1 171.42 5.69
4 -1 0 49.07 3.26
-4 1 0 50.01 3.21
4 -1 0 47.51 3.02
4 -1 0 51.11 2.64
4 -1 0 52.23 3.04
-4 1 -1 54.78 3.99
4 -1 1 52.06 3.38
4 -1 1 51.36 3.47
4 -1 1 49.62 2.49
4 -1 2 39.58 3.38
4 -1 3 60.36 3.72
4 -1 4 0.83 0.3
4 0 -8 0.46 0.3
4 0 -7 -0.16 0.41
4 0 -6 44.16 3.4
4 0 -6 43.85 3.8
4 0 -6 46.11 3.19
4 0 -5 32.69 2.7
4 0 -5 37.35 2.27
4 0 -5 33.11 2.88
4 0 -5 33.07 2.63
4 0 -4 366.75 7.48
4 0 -4 371.56 9.14
4 0 -4 372.97 8.62
4 0 -4 385.19 8.18
4 0 -4 347.01 8.21
4 0 -3 1220.52 14.27
4 0 -2 606.62 10.27
4 0 -1 39.64 2.59
4 0 -1 26.29 1.99
4 0 0 0.86 0.35
4 0 0 0.42 0.25
4 0 1 61.12 2.71
4 0 1 78.65 4.49
4 0 2 12.64 1.78
4 0 3 20.49 1.86
4 1 -8 21.99 2.39
4 1 -7 62.25 4.44
4 1 -6 1962.38 23.04
4 1 -5 627.19 12.46
4 1 -4 293.93 6.97
4 1 -4 282.94 7.68
4 1 -4 276.8 8.09
4 1 -4 287.03 6.87
4 1 -3 15.54 1.63
4 1 -3 17.38 1.88
4 1 -3 16.72 1.9
4 1 -2 63.16 3.11
4 1 -2 60.39 3.29
4 1 -2 58.97 3.11
4 1 -1 17.41 1.85
4 1 -1 18.63 1.7
4 1 0 1.23 0.57
4 1 0 0.2 0.25
4 1 1 34.02 2.94
4 1 1 33.97 2.08
4 1 2 5.8 1.11
4 1 3 4.09 0.74
4 2 -8 0.2 0.23
4 2 -7 -0.23 0.44
4 2 -6 28.76 2.72
4 2 -6 30.4 2.75
4 2 -5 160.33 6.25
4 2 -5 167.97 6.66
4 2 -5 156.74 5.73
4 2 -4 128.74 5.58
4 2 -4 131.93 5.65
4 2 -4 130.83 5.14
4 2 -3 363.91 7.25
4 2 -3 347.4 8.19
4 2 -3 376.95 9.32
4 2 -2 345.17 6.62
4 2 -2 337.96 7.7
4 2 -1 33.74 2.56
4 2 0 14.78 1.94
4 2 0 15.01 1.51
4 2 1 46.73 3.22
4 2 2 16.24 1.6
4 3 -8 2.65 0.65
4 3 -7 13 1.59
4 3 -7 9.03 1.53
4 3 -6 673.26 13.57
4 3 -6 665.89 12.34
4 3 -5 309.33 8.92
4 3 -5 321.83 8.55
4 3 -4 35.97 2.67
4 3 -4 33.2 2.9
4 3 -3 0.97 0.46
4 3 -2 100.86 4.66
4 3 -1 2.85 0.76
4 3 0 5 1.03
4 3 0 6.14 0.78
4 3 1 23.85 1.94
4 4 -8 0.25 0.25
4 4 -7 0.17 0.44
4 4 -6 8.3 1.46
4 4 -5 112.2 5.09
4 4 -4 12.18 1.72
4 4 -3 35.02 2.57
4 4 -2 67.03 3.15
-4 -4 1 1.5 0.47
4 4 -1 1.55 0.59
4 4 -1 2.19 0.44
4 4 0 1.13 0.44
4 5 -7 0.72 0.37
4 5 -6 78.14 3.6
4 5 -4 0.08 0.19
4 5 -3 1.4 0.44
-4 -5 2 31.35 2.1
4 5 -2 22.5 1.59
5 -7 -3 6.07 0.83
5 -7 -3 6.41 1.14
5 -7 -2 1.49 0.59
5 -7 -1 355.48 8.91
5 -7 0 0.6 0.38
5 -7 1 7.04 1.15
5 -7 1 4.96 1.03
5 -7 2 7.14 1.08
-5 7 -2 0.45 0.43
5 -6 -4 76.67 3.88
5 -6 -4 60.31 3.16
5 -6 -3 19.96 2.11
5 -6 -3 21.12 2.45
5 -6 -2 19.39 2.12
5 -6 -2 17.61 2.45
5 -6 -1 151.26 6.92
5 -6 0 3 0.98
5 -6 0 2.01 0.65
5 -6 2 166.23 5.79
5 -6 3 17.1 1.81
5 -5 -5 26.49 2.13
5 -5 -5 24.14 2.52
5 -5 -4 45.82 3.84
5 -5 -4 43.74 3.25
5 -5 -3 74.23 4.74
5 -5 -3 67.06 5.17
5 -5 -2 0.87 0.43
5 -5 -2 0.09 0.5
5 -5 -1 1686.19 22.72
5 -5 -1 1693.98 23.29
5 -5 0 42.74 3.27
5 -5 0 43.22 3.35
5 -5 1 160.91 6.62
5 -5 2 8.99 1.42
5 -5 3 5.48 1.04
5 -5 3 7.91 1.21
5 -4 -6 0.14 0.24
5 -4 -6 0.11 0.36
5 -4 -5 2 0.83
5 -4 -5 1.1 0.81
5 -4 -5 2.07 0.74
5 -4 -4 204.83 8.82
5 -4 -4 215.35 7.9
5 -4 -3 25.5 2.7
5 -4 -3 24.11 3.13
5 -4 -2 9.51 1.57
5 -4 -2 8.44 1.42
5 -4 -2 12.67 2.11
5 -4 -1 241.11 9.21
5 -4 -1 238.12 8.23
5 -4 -1 225.53 7.91
5 -4 0 0.08 0.43
5 -4 0 0.09 0.45
5 -4 1 16.28 2.04
5 -4 2 340.86 9.32
5 -4 2 353.6 9.05
5 -4 3 74.94 3.51
5 -4 3 85.97 4.19
5 -3 -7 13.53 1.49
5 -3 -7 12.44 1.29
5 -3 -6 1.24 0.61
5 -3 -6 1.15 0.54
5 -3 -5 30.51 3.07
5 -3 -5 23.3 3.07
5 -3 -5 25.17 2.41
5 -3 -4 92.91 5.42
5 -3 -4 87.56 5.16
5 -3 -3 60.24 3.74
5 -3 -3 64.1 4.45
5 -3 -3 54.62 3.66
5 -3 -2 5.1 1.21
5 -3 -2 5.36 1.17
5 -3 -2 5.34 1.09
5 -3 -2 4.29 1.21
5 -3 -1 2241.66 28.6
5 -3 -1 2236.12 23.95
5 -3 -1 2252.52 21.07
5 -3 -1 2248.2 23.96
5 -3 0 208.82 8.87
5 -3 0 201.57 6.94
5 -3 1 253.5 8.48
5 -3 1 247.14 7.64
5 -3 2 -0.4 0.45
5 -3 2 0.83 0.47
5 -3 3 -0.17 0.34
5 -2 -7 0.59 0.4
5 -2 -7 -0.12 0.33
5 -2 -6 169.35 7.34
5 -2 -6 164.27 6.42
5 -2 -6 158.76 6.74
5 -2 -5 5.72 1.27
5 -2 -5 6.13 1.35
5 -2 -5 6.67 1.47
5 -2 -5 7.41 1.34
5 -2 -4 76.8 4.05
5 -2 -4 71.06 4.3
5 -2 -4 67.59 4.16
5 -2 -4 76.25 4.5
5 -2 -4 71.51 4.38
5 -2 -3 16.47 1.86
5 -2 -3 14.89 1.9
5 -2 -3 14.34 1.84
5 -2 -3 14.4 1.93
5 -2 -3 12.61 1.83
5 -2 -2 9.04 1.62
5 -2 -2 6.22 1.02
5 -2 -2 7.33 1.36
5 -2 -2 8.8 1.42
5 -2 -1 204.97 7.25
5 -2 -1 204.94 7.89
5 -2 -1 198.91 6.49
5 -2 -1 197.41 4.98
5 -2 -1 205.78 6.85
5 -2 0 11.08 1.71
5 -2 0 13.05 1.74
5 -2 1 18.01 2.06
5 -2 1 17.11 2.07
5 -2 2 245.58 7.58
5 -2 3 96.04 3.68
5 -1 -8 10.63 1.41
5 -1 -7 11.03 1.78
5 -1 -6 0.05 0.35
5 -1 -6 0.28 0.29
5 -1 -5 26.58 2.16
5 -1 -5 22.02 2.5
5 -1 -5 20.15 2.26
5 -1 -5 23.4 2.43
5 -1 -4 131.98 5.23
5 -1 -4 134.18 5.69
5 -1 -4 137.96 6.02
5 -1 -4 133.55 5.79
5 -1 -4 141.34 5.8
5 -1 -3 21.8 2.28
5 -1 -3 20.29 2.17
5 -1 -3 23.92 2.41
5 -1 -3 22.19 2.28
5 -1 -2 -0.37 0.58
5 -1 -2 0.16 0.33
5 -1 -2 -0.02 0.46
5 -1 -2 0.1 0.22
5 -1 -2 0.12 0.24
5 -1 -1 1013.44 15.75
5 -1 -1 1041.93 14.95
5 -1 -1 1028.91 15.37
5 -1 -1 1056.28 12.64
5 -1 0 185.68 6.37
5 -1 0 192.56 6.7
5 -1 0 195.92 5.35
5 -1 1 77.64 4.47
5 -1 2 0.71 0.49
5 0 -8 46.89 3.42
5 0 -7 10.05 1.76
5 0 -6 946.06 16.41
5 0 -5 50.52 2.99
5 0 -5 50.14 3.68
5 0 -4 1.52 0.63
5 0 -4 1.38 0.64
5 0 -4 1.97 0.76
5 0 -3 4.68 0.99
5 0 -3 6.33 1.29
5 0 -3 5.03 0.95
5 0 -2 2.09 0.64
5 0 -2 3.35 0.86
5 0 -2 3.28 0.8
5 0 -1 76.3 3.82
5 0 -1 70.12 3.86
5 0 -1 78.46 3.49
5 0 0 25.62 2.52
5 0 0 22.93 1.73
5 0 1 9.3 1.48
5 0 2 56.56 2.93
5 1 -8 4.73 1.08
5 1 -7 2.91 0.89
5 1 -6 0.43 0.6
5 1 -5 3.43 0.94
5 1 -5 0 0.36
5 1 -4 139.02 5.17
5 1 -4 135.99 5.91
5 1 -4 121.59 4.96
5 1 -3 142.11 5.12
5 1 -3 130.12 5.19
5 1 -3 136.15 5.5
5 1 -2 18.41 1.73
5 1 -2 14.78 1.69
5 1 -2 19.14 1.92
5 1 -1 171.87 6.15
5 1 -1 164.59 5.07
5 1 0 58.96 3.7
5 1 0 63.29 2.88
5 1 1 1.87 0.64
5 2 -8 52.79 2.95
5 2 -7 25.34 2.33
5 2 -6 1152.3 16.44
5 2 -5 119.01 5.37
5 2 -4 12.95 1.68
5 2 -4 12.32 1.66
5 2 -3 1.56 0.63
5 2 -3 1.79 0.61
5 2 -2 3.6 0.9
5 2 -2 5.85 1.08
5 2 -1 10.68 1.48
5 2 -1 13.63 1.39
5 2 0 3.81 0.86
5 3 -7 3.16 0.65
5 3 -6 1.14 0.55
5 3 -5 47.92 2.84
5 3 -5 41.47 2.73
5 3 -4 40.09 2.71
5 3 -3 68.83 3.45
5 3 -2 28.05 2.16
5 3 -2 27.43 1.87
5 3 -1 9.27 1.13
5 3 -1 12.12 0.98
5 4 -7 7.96 0.97
5 4 -6 400.88 7.3
5 4 -5 69.78 3.05
5 4 -4 2.8 0.6
5 4 -3 0.1 0.2
6 -7 -1 1.07 0.4
6 -6 -4 2.87 0.57
6 -6 -4 1.94 0.5
6 -6 -3 -0.53 0.29
6 -6 -3 0.02 0.28
6 -6 -2 3.64 0.95
6 -6 -1 77.99 3.89
6 -6 -1 55.4 3.47
6 -6 0 6.89 1.2
6 -6 0 6.92 1
6 -6 1 16.74 1.68
6 -5 -5 10.64 1.37
6 -5 -5 11.92 1.16
6 -5 -4 100.56 4.52
6 -5 -4 93.14 4.64
6 -5 -3 35.6 2.68
6 -5 -3 25.92 3.08
6 -5 -2 3.78 0.92
6 -5 -2 2.58 0.83
6 -5 -1 36.31 3.25
6 -5 -1 29.91 2.67
6 -5 0 29.17 2.96
6 -5 0 28.57 2.32
6 -5 1 21.48 2.18
6 -5 1 19.47 1.78
6 -4 -6 4.96 0.96
6 -4 -5 16.81 2.16
6 -4 -5 18.64 1.81
6 -4 -4 27.6 2.62
6 -4 -4 23.57 2.73
6 -4 -3 53.12 3.24
6 -4 -3 58.88 3.67
6 -4 -3 57.35 4.64
6 -4 -2 9.01 1.63
6 -4 -2 7.76 1.6
6 -4 -1 617.41 15.53
6 -4 -1 666.76 12
6 -4 0 2.08 0.64
6 -4 0 1.27 0.54
6 -4 1 3.28 0.85
6 -4 1 3.95 0.85
6 -4 2 2.93 0.54
6 -4 2 3.19 0.67
6 -3 -6 63.61 4.11
6 -3 -5 18.39 2.31
6 -3 -5 17.57 2
6 -3 -4 285.97 7.26
6 -3 -4 279.73 8.47
6 -3 -4 292.75 9.48
6 -3 -3 38.69 2.99
6 -3 -3 49.65 3.79
6 -3 -2 10.51 1.84
6 -3 -2 8.99 1.49
6 -3 -1 72.44 5.05
6 -3 -1 69.51 3.69
6 -3 -1 74.36 3.94
6 -3 0 5.59 1.19
6 -3 0 5.13 1.02
6 -3 1 15.62 1.57
6 -3 1 15.77 1.62
6 -2 -7 32.13 2.21
6 -2 -6 6.29 1.15
6 -2 -5 32.75 2.38
6 -2 -5 31.88 2.78
6 -2 -5 37.73 3.09
6 -2 -4 40.85 2.94
6 -2 -4 48.9 3.33
6 -2 -4 49.98 3.66
6 -2 -3 108.35 5.17
6 -2 -3 114.88 4.63
6 -2 -3 124.14 5.57
6 -2 -2 0.34 0.42
6 -2 -2 1.08 0.64
6 -2 -1 1123.78 16.68
6 -2 -1 1119.33 14.55
6 -2 0 10.01 1.35
6 -2 0 10.69 1.41
6 -2 1 28.99 2.23
6 -1 -7 2.3 0.75
6 -1 -6 17.16 2.09
6 -1 -5 6.98 1.18
6 -1 -5 6.5 1.33
6 -1 -4 234.17 7.13
6 -1 -4 237.27 7.45
6 -1 -3 15.83 1.89
6 -1 -3 16.85 1.87
6 -1 -3 15.41 1.35
6 -1 -2 25.33 2.35
6 -1 -2 25.07 1.86
6 -1 -1 44.08 2.79
6 -1 -1 45.91 2.88
6 -1 0 5 0.95
6 -1 1 10.2 1.22
6 0 -7 49.83 3.45
6 0 -6 4.27 1.07
6 0 -5 45.16 2.87
6 0 -5 41.94 3.1
6 0 -4 41.76 2.9
6 0 -4 38.73 2.97
6 0 -4 36.6 2.21
6 0 -3 24.45 2.22
6 0 -3 25.39 2.38
6 0 -3 21.56 1.8
6 0 -2 0.25 0.34
6 0 -2 -0.08 0.22
6 0 -1 621.2 10.39
6 0 -1 659.28 8.66
6 0 0 31.58 2.21
6 1 -7 0.55 0.3
6 1 -6 42.83 2.91
6 1 -5 4.16 0.97
6 1 -5 3.72 0.7
6 1 -4 66.39 3.59
6 1 -4 63.84 3.1
6 1 -3 2.41 0.6
6 1 -3 2.4 0.61
6 1 -2 19.61 1.55
6 1 -1 19.95 1.67
6 2 -7 10.47 1.13
6 2 -6 1.84 0.54
6 2 -6 1.69 0.4
6 2 -5 9.9 1.27
6 2 -5 9.49 1.13
6 2 -4 24.51 1.8
6 2 -3 0.67 0.32
6 2 -2 0.68 0.31
6 3 -6 120.5 3.41
6 3 -5 7.28 0.81
6 3 -4 8.24 0.82
7 -5 -3 50.03 2.96
7 -5 -2 0.48 0.25
7 -5 -2 0.54 0.29
7 -5 -1 15.01 1.45
7 -4 -5 10.88 1.27
7 -4 -4 41.29 3.13
7 -4 -3 22.05 1.85
7 -4 -3 28.65 2.41
7 -4 -2 2.66 0.72
7 -4 -2 5.09 0.92
7 -4 -1 1.62 0.48
7 -3 -4 1.44 0.45
7 -3 -4 0.95 0.65
7 -3 -3 1 0.49
7 -3 -3 2.14 0.67
7 -3 -2 6.02 1.18
7 -3 -1 20.3 1.72
7 -2 -6 29.76 1.7
7 -2 -5 25.22 1.68
7 -2 -5 23.55 1.73
7 -2 -4 118.48 4.43
7 -2 -4 130.47 4.35
7 -2 -3 33 2.63
7 -2 -2 -0.05 0.34
7 -2 -1 4.49 0.7
7 -1 -6 1.65 0.47
7 -1 -5 12.85 1.36
7 -1 -4 6.08 1.02
7 -1 -3 9.62 1.19
7 -1 -2 6.24 0.82
7 0 -6 44.36 2.31
7 0 -5 15.18 1.41
7 0 -4 86.87 2.35
7 1 -4 3.39 0.48
loop_
_geom_angle_atom_site_label_1
_geom_angle_atom_site_label_2
_geom_angle_atom_site_label_3
_geom_angle
_geom_angle_site_symmetry_1
_geom_angle_site_symmetry_3
_geom_angle_publ_flag
C009 N003 C008 118.68(14) . . ?
C009 C004 C005 118.95(16) . . ?
C006 C005 C004 121.45(16) . . ?
C007 C005 C004 118.75(17) . . ?
C007 C005 C006 119.81(16) . . ?
O002 C006 O001 124.89(16) . . ?
C005 C006 O001 113.27(15) . . ?
C005 C006 O002 121.83(15) . . ?
C008 C007 C005 118.66(17) . . ?
C007 C008 N003 122.65(15) . . ?
C004 C009 N003 122.31(16) . . ?
loop_
_geom_bond_atom_site_label_1
_geom_bond_atom_site_label_2
_geom_bond_distance
_geom_bond_site_symmetry_2
_geom_bond_publ_flag
O001 C006 1.301(2) . ?
O002 C006 1.211(2) . ?
N003 C008 1.333(2) . ?
N003 C009 1.336(2) . ?
C004 C005 1.385(3) . ?
C004 C009 1.380(3) . ?
C005 C006 1.507(2) . ?
C005 C007 1.385(2) . ?
C007 C008 1.381(3) . ?
loop_
_geom_torsion_atom_site_label_1
_geom_torsion_atom_site_label_2
_geom_torsion_atom_site_label_3
_geom_torsion_atom_site_label_4
_geom_torsion
_geom_torsion_site_symmetry_1
_geom_torsion_site_symmetry_2
_geom_torsion_site_symmetry_3
_geom_torsion_site_symmetry_4
_geom_torsion_publ_flag
O001 C006 C005 C004 -1.83(15) . . . . ?
O001 C006 C005 C007 178.30(17) . . . . ?
O002 C006 C005 C004 177.7(2) . . . . ?
O002 C006 C005 C007 -2.14(18) . . . . ?
N003 C008 C007 C005 0.97(18) . . . . ?
N003 C009 C004 C005 0.24(17) . . . . ?
C004 C005 C007 C008 -0.17(16) . . . . ?
