#------------------------------------------------------------------------------
#$Date: 2021-06-04 04:05:48 +0300 (Fri, 04 Jun 2021) $
#$Revision: 265767 $
#$URL: file:///home/coder/svn-repositories/cod/cif/8/00/05/8000504.cif $
#------------------------------------------------------------------------------
#
# This file is available in the Crystallography Open Database (COD),
# http://www.crystallography.net/
#
# All data on this site have been placed in the public domain by the
# contributors.
#
data_8000504
loop_
_publ_author_name
'Huang, Xue-Qin'
'Zhang, Hua'
'Wang, Fang'
'Gan, Tian'
'Xu, Zhe-Kun'
'Wang, Zhong-Xia'
_publ_section_title
;
 A Photoluminescent Lead Bromide Hybrid Perovskite Molecular Ferroelastic
 Semiconductor with Sequential High-<i>T</i><sub>c</sub> Phase
 Transitions.
;
_journal_issue                   21
_journal_name_full               'The journal of physical chemistry letters'
_journal_page_first              5221
_journal_page_last               5227
_journal_paper_doi               10.1021/acs.jpclett.1c01473
_journal_volume                  12
_journal_year                    2021
_chemical_formula_sum            'C3.2 H8 Br1.2 N0.4 O0.4 Pb0.4'
_chemical_formula_weight         237.27
_space_group_crystal_system      hexagonal
_space_group_IT_number           194
_space_group_name_Hall           '-P 6c 2c'
_space_group_name_H-M_alt        'P 63/m m c'
_audit_creation_method           SHELXL-2014/7
_cell_angle_alpha                90
_cell_angle_beta                 90
_cell_angle_gamma                120
_cell_formula_units_Z            5
_cell_length_a                   9.556(4)
_cell_length_b                   9.556(4)
_cell_length_c                   7.900(2)
_cell_measurement_reflns_used    198
_cell_measurement_temperature    473(2)
_cell_measurement_theta_max      17.3960
_cell_measurement_theta_min      2.4070
_cell_volume                     624.8(4)
_computing_cell_refinement       'CrysAlisPro 1.171.40.14e (Rigaku OD, 2018)'
_computing_data_collection       'CrysAlisPro 1.171.40.14e (Rigaku OD, 2018)'
_computing_data_reduction        'CrysAlisPro 1.171.40.14e (Rigaku OD, 2018)'
_computing_molecular_graphics    'Bruker SHELXTL'
_computing_publication_material  'Bruker SHELXTL'
_computing_structure_refinement  'SHELXL-2014/7 (Sheldrick, 2014)'
_diffrn_ambient_temperature      473(2)
_diffrn_measured_fraction_theta_full 1.000
_diffrn_measured_fraction_theta_max 0.905
_diffrn_measurement_device_type  'XtaLAB Synergy R, DW system, HyPix'
_diffrn_measurement_method       \w
_diffrn_radiation_type           MoK\a
_diffrn_radiation_wavelength     0.71073
_diffrn_reflns_av_R_equivalents  0.2741
_diffrn_reflns_av_unetI/netI     0.1253
_diffrn_reflns_Laue_measured_fraction_full 1.000
_diffrn_reflns_Laue_measured_fraction_max 0.905
_diffrn_reflns_limit_h_max       12
_diffrn_reflns_limit_h_min       -13
_diffrn_reflns_limit_k_max       13
_diffrn_reflns_limit_k_min       -12
_diffrn_reflns_limit_l_max       9
_diffrn_reflns_limit_l_min       -10
_diffrn_reflns_number            3009
_diffrn_reflns_point_group_measured_fraction_full 1.000
_diffrn_reflns_point_group_measured_fraction_max 0.905
_diffrn_reflns_theta_full        25.242
_diffrn_reflns_theta_max         30.548
_diffrn_reflns_theta_min         2.461
_diffrn_source                   'Rotating-anode X-ray tube'
_exptl_absorpt_coefficient_mu    23.068
_exptl_absorpt_correction_T_max  0.026
_exptl_absorpt_correction_T_min  0.017
_exptl_absorpt_process_details   'CrysAlisPro 1.171.40.14e (Rigaku OD, 2018)'
_exptl_crystal_colour            Colorless
_exptl_crystal_density_diffrn    3.153
_exptl_crystal_density_method    'not measured'
_exptl_crystal_description       Block
_exptl_crystal_F_000             540
_exptl_crystal_size_max          0.3
_exptl_crystal_size_mid          0.2
_exptl_crystal_size_min          0.2
_refine_diff_density_max         0.490
_refine_diff_density_min         -0.545
_refine_diff_density_rms         0.116
_refine_ls_extinction_method     none
_refine_ls_goodness_of_fit_ref   1.273
_refine_ls_hydrogen_treatment    undef
_refine_ls_matrix_type           full
_refine_ls_number_parameters     19
_refine_ls_number_reflns         363
_refine_ls_number_restraints     54
_refine_ls_restrained_S_all      1.183
_refine_ls_R_factor_all          0.4816
_refine_ls_R_factor_gt           0.3061
_refine_ls_shift/su_max          0.012
_refine_ls_shift/su_mean         0.005
_refine_ls_structure_factor_coef Fsqd
_refine_ls_weighting_details
'w=1/[\s^2^(Fo^2^)+38.1180P] where P=(Fo^2^+2Fc^2^)/3'
_refine_ls_weighting_scheme      calc
_refine_ls_wR_factor_gt          0.3010
_refine_ls_wR_factor_ref         0.3588
_reflns_Friedel_coverage         0.000
_reflns_number_gt                158
_reflns_number_total             363
_reflns_threshold_expression     'I > 2\s(I)'
_cod_data_source_file            jz1c01473_si_003.cif
_cod_data_source_block           DeanolPbBr3_463K
_cod_depositor_comments
'Adding full bibliography for 8000502--8000504.cif.'
_cod_original_cell_volume        624.7(5)
_cod_original_formula_sum        'C3.20 H8 Br1.20 N0.40 O0.40 Pb0.40'
_cod_database_code               8000504
_shelx_shelxl_version_number     2014/7
_shelx_space_group_comment
;
The symmetry employed for this shelxl refinement is uniquely defined
by the following loop, which should always be used as a source of
symmetry information in preference to the above space-group names.
They are only intended as comments.
;
_shelx_res_file
;

    p63mmc.res created by SHELXL-2014/7

TITL p63mmc in P6(3)/mmc
CELL 0.71073   9.5560   9.5560   7.8997  90.000  90.000 120.000
ZERR    5.00   0.0038   0.0038   0.0020   0.000   0.000   0.000
LATT 1
SYMM -Y, X-Y, Z
SYMM -X+Y, -X, Z
SYMM -X, -Y, 0.5+Z
SYMM Y, -X+Y, 0.5+Z
SYMM X-Y, X, 0.5+Z
SYMM Y, X, -Z
SYMM X-Y, -Y, -Z
SYMM -X, -X+Y, -Z
SYMM -Y, -X, 0.5-Z
SYMM -X+Y, Y, 0.5-Z
SYMM X, X-Y, 0.5-Z
SFAC C  H  N  Br Pb O
UNIT 16 40 2 6 2 2
L.S. 80
ACTA
BOND $H
FMAP 2
PLAN 100
SIMU 0.01 O1 C3
isor 0.01 $c
simu 0.02 0.04  $n $c
temp 200
WGHT    0.000000   38.117996
FVAR       0.24685
PB1   5    0.000000    0.000000    0.500000    10.08333    0.28146    0.28146 =
         0.09556    0.00000    0.00000    0.14073
BR1   4    0.136735    0.273469    0.250000    10.25000    0.52050    0.26319 =
         0.19892    0.00000    0.00000    0.13160
AFIX   3
C1    1    0.666773    0.333333    0.250000    10.08333    1.37780    1.37780 =
         1.37785    0.00000    0.00000    0.68890
C2    1    0.584659    0.415447    0.250000    10.25000    1.37782    1.37782 =
         1.37791    0.00000    0.00000    0.68886
C3    1    0.617612    0.382494    0.061416    10.50000    1.37755    1.37755 =
         1.37753   -0.00006    0.00006    0.68882
C6    1    0.456495    0.228195    0.250000    10.25000    1.37805    1.37797 =
         1.37811    0.00000    0.00000    0.68903
AFIX   0
HKLF 4

REM  p63mmc in P6(3)/mmc
REM R1 =  0.3061 for     158 Fo > 4sig(Fo)  and  0.4816 for all     363 data
REM     19 parameters refined using     54 restraints

END

WGHT      0.0000     36.5051

REM Highest difference peak  0.490,  deepest hole -0.545,  1-sigma level  0.116
Q1    1  -0.0389  0.1003  0.5807  11.00000  0.05    0.49
Q2    1  -0.0167  0.1982  0.2500  10.50000  0.05    0.32
Q3    1   0.2440  0.4881  0.2500  10.25000  0.05    0.29
Q4    1   0.6667  0.3333 -0.0029  10.16667  0.05    0.23
Q5    1   0.2601  0.3420  0.1224  11.00000  0.05    0.18
Q6    1   0.5392  0.6000  0.2500  10.50000  0.05    0.18
Q7    1   0.5039  0.4961  0.0575  10.50000  0.05    0.10
Q8    1   0.6614  0.5139  0.0057  11.00000  0.05    0.05
;
_shelx_res_checksum              67154
_shelx_hkl_file
;
   0   0  -8   16.34    6.96
   0   0  -7    1.78    4.58
   0   0  -6   18.37    4.09
   0   0  -5    1.51    2.92
   0   0  -5    2.39    3.04
   0   0  -4 1102.81   15.62
   0   0  -4 1073.89   15.65
   0   0  -3   15.86    1.83
   0   0  -3    8.44    1.68
   0   0  -2   19.34    1.30
   0   0  -2   19.26    1.37
   0   0  -1    0.32    0.49
  -1   0  -9    3.10    7.50
   0  -1  -9   -7.96    7.90
  -1   1  -9   -2.31    7.94
  -1   1  -8    4.25    7.17
  -1   0  -8    9.48    6.23
   0  -1  -8    5.38    6.01
   1  -1  -8    6.91    6.57
  -1   0  -7    7.07    5.16
   0  -1  -7    3.80    4.42
   0  -1  -7    2.26    4.87
   1  -1  -7    4.78    4.49
  -1   0  -7   -0.97    4.40
  -1   1  -7    3.40    5.08
  -1   0  -6   31.84    4.55
  -1   0  -6   40.12    4.85
   0  -1  -6   34.14    4.13
   0   1  -6   34.34    4.98
  -1   1  -6   31.97    4.69
   0  -1  -6   36.91    4.47
   1  -1  -6   33.76    4.02
   1  -1  -6   35.42    3.95
   1   0  -5   -2.32    2.97
  -1   1  -5    1.13    3.23
   0   1  -5    2.04    3.43
   1  -1  -5    1.44    2.71
  -1   0  -5    2.03    3.23
   1  -1  -5    1.85    2.70
  -1   0  -5    0.20    3.30
   0  -1  -5    3.88    2.88
   0   1  -4  471.15    8.91
   1   0  -4  458.31    7.86
  -1   1  -4  471.68    8.95
  -1   0  -4  476.64    8.87
  -1   0  -4  472.36    8.80
  -1   1  -4  482.83    8.79
   1  -1  -4  451.52    7.47
   0  -1  -3   10.45    2.57
  -1   1  -3    8.88    2.07
  -1   1  -3    9.29    2.24
   0   1  -3    8.81    2.36
  -1   0  -3   10.45    2.22
  -1   1  -2  350.83    6.19
  -1   1  -2  355.86    6.17
   0  -1  -2  345.01    6.26
  -1   1  -1    1.32    0.96
   0  -1  -1    0.25    1.29
  -1   0  -1    1.91    1.06
   0  -1   0 1761.74   24.18
  -1   1   0 1818.04   22.19
   1  -1   0 1792.71   22.28
   1  -1   1    0.55    1.04
   1  -1   1    1.35    1.09
   0   1   1    0.90    1.22
  -1   0   2  332.70    4.63
   0  -1   3   10.09    2.08
   0  -1   3    8.67    2.04
   1  -1   3    9.40    2.13
   0  -1   4  521.95    8.89
  -2   1  -9    1.83    8.27
  -1  -1  -9    8.97    7.21
  -1  -1  -9    1.84    5.72
   1  -2  -8    8.32    6.22
   1  -2  -8   22.10    7.58
  -1  -1  -8    5.38    6.56
  -2   1  -8    4.72    6.21
  -1  -1  -8    7.84    5.48
   1  -2  -8    7.86    5.34
   1  -2  -7    0.05    3.92
  -2   1  -7    4.77    4.77
  -1  -1  -7    0.72    4.49
  -1  -1  -7    5.56    6.79
   1  -2  -7    0.61    6.19
   1  -2  -7    1.23    4.54
  -1  -1  -7    1.28    5.19
  -2   1  -6   45.63    5.00
   1  -2  -6   42.35    4.10
  -2   1  -6   50.60    5.41
  -1  -1  -6   42.11    4.91
  -1   2  -6   40.97    5.73
  -1  -1  -5    0.18    3.43
  -1   2  -5   -4.44    3.98
  -2   1  -5   -0.05    3.64
  -1  -1  -5    0.06    4.86
  -2   1  -5   -0.57    3.66
  -2   1  -4  153.96    5.28
  -2   1  -4  146.93    5.18
  -1   2  -4  142.87    5.48
  -1   2  -3   -2.83    2.71
  -2   1  -3    0.06    2.25
  -1  -1  -3    1.22    2.93
  -2   1  -3   -0.70    2.44
  -2   1  -2 1094.79   15.62
  -2   1  -2 1086.62   15.65
  -1  -1  -2 1098.00   15.85
  -2   1  -1   -0.11    1.41
  -1  -1  -1    1.93    1.94
  -2   1  -1   -0.41    1.44
  -1  -1   0  534.97   11.96
   2  -1   0  606.85    8.63
   1  -2   1   -2.19    2.00
   2  -1   1    0.16    1.27
  -1   2   1   -0.88    1.84
   1   1   1   -0.69    1.86
   1   1   2  914.03   13.81
   2  -1   2  972.02   14.05
   1  -2   3   -1.21    2.56
   1  -2   3   -0.46    2.59
  -1  -1   3   -1.34    1.91
  -1  -1   4  156.99    4.37
   1  -2   4  155.91    5.29
  -1  -1   4  138.96    4.15
   1  -2   4  154.10    5.44
  -1  -1   5    1.99    2.67
   1  -2   5    4.34    3.64
   1  -2   6   51.17    4.88
  -2   2  -9   -2.55    8.03
  -2   0  -9    3.80    7.19
   0  -2  -9   -0.18    8.21
   0  -2  -8    6.77    5.06
   0  -2  -8    3.49    6.14
  -2   0  -8    4.81    6.47
  -2   2  -8    1.18    7.07
   2  -2  -8   12.62    6.82
  -2   0  -8    5.39    5.41
   2  -2  -7    0.52    3.99
  -2   0  -7    4.37    6.61
  -2   0  -7   -0.92    4.83
   0  -2  -7   -1.47    4.30
  -2   2  -7    4.94    5.89
  -2   0  -7    3.39    5.23
   2  -2  -7   -2.97    5.71
   0  -2  -6   35.39    4.48
  -2   0  -6   43.43    5.18
   2  -2  -6   45.22    3.90
   2  -2  -6   46.37    4.08
  -2   0  -6   55.30    6.72
   2  -2  -6   49.13    5.59
  -2   0  -6   46.50    5.59
  -2   2  -6   37.13    5.26
   2  -2  -5    8.09    2.37
  -2   2  -5    5.29    3.75
  -2   0  -5    3.71    3.74
   0  -2  -5   10.64    4.86
  -2   0  -5    9.55    3.95
   2  -2  -4   89.79    4.45
  -2   2  -4   86.08    4.30
   0  -2  -4  102.93    5.28
  -2   0  -4   95.93    4.84
  -2   0  -3   96.06    4.39
   0  -2  -3   99.75    4.56
   2  -2  -3   95.59    3.70
  -2   2  -3   94.37    3.86
  -2   0  -3   95.07    4.10
   0  -2  -2 1012.91   14.85
  -2   2  -2 1007.36   14.65
  -2   0  -2  969.59   14.29
   2  -2  -2  993.32   13.63
   0  -2  -1  413.59    7.93
  -2   0  -1  401.31    6.68
  -2   2  -1  401.63    7.06
   2  -2   0  119.51    3.37
   0   2   0  121.00    6.41
  -2   2   1  452.33    6.52
   2  -2   1  409.42    7.62
   2  -2   1  437.39    7.80
   0   2   1  423.77    8.23
   0   2   2  878.80   13.15
  -2   0   3   88.51    2.04
   0  -2   3   75.97    4.03
   0  -2   4   97.16    4.48
   0  -2   4   89.73    4.64
   0  -2   5    7.24    3.66
   2  -2   5    6.37    3.75
   0  -2   5    9.12    3.83
   0  -2   6   52.84    4.96
  -3   2 -10    3.07    9.62
  -3   1 -10    7.22    8.76
  -3   1  -9    1.41    7.12
  -2  -1  -9   -0.09    5.51
  -2  -1  -9    2.68    7.73
  -1  -2  -9    1.79    7.73
  -3   2  -9   11.38    8.17
  -3   2  -8    9.10    6.63
  -1  -2  -8   -0.84    5.41
  -2  -1  -8    3.81    6.57
  -2  -1  -8    1.91    5.19
   2  -3  -8    8.49    5.52
  -3   1  -8    5.29    6.18
   1  -3  -8    5.50    6.57
  -3   1  -8    3.50    5.22
   2  -3  -8   16.61    7.04
   1  -3  -8    3.71    5.13
  -1  -2  -8    1.61    6.44
   3  -2  -8    9.66    6.37
   1  -3  -7   -1.82    3.97
  -3   2  -7    4.10    5.43
  -2  -1  -7    6.56    7.45
  -3   1  -7   -0.86    5.04
   2  -3  -7    5.62    5.87
  -1  -2  -7    6.56    7.30
  -2  -1  -7   -4.74    5.75
  -1  -2  -7   -0.07    4.84
  -2  -1  -7    0.50    5.04
  -3   1  -7    2.64    5.70
   2  -3  -7   -0.99    3.98
   2  -3  -7    0.75    4.62
   1  -3  -7   -0.94    6.91
   2  -3  -6   43.34    5.62
  -3   2  -6   27.57    4.98
   2  -3  -6   21.00    3.34
  -1  -2  -6   19.43    4.94
  -2  -1  -6   40.31    7.18
  -1  -2  -6   31.87    7.68
  -3   1  -6   28.47    5.39
  -2  -1  -6   25.39    5.19
  -3   1  -6   22.77    5.23
  -2   3  -6   21.55    5.57
  -3   2  -5    4.52    3.85
   2  -3  -5    3.82    4.19
  -2  -1  -5    1.79    4.27
  -1  -2  -5    4.76    5.79
  -3   1  -5    1.42    3.96
  -2   3  -5    2.87    4.43
  -2  -1  -5    7.46    5.44
  -3   1  -5    1.21    4.08
  -3   2  -5    2.52    3.98
  -1  -2  -4   81.79    5.86
  -3   1  -4   63.32    4.70
  -2  -1  -4   68.19    5.32
  -2   3  -4   56.31    4.74
   2  -3  -4   85.34    4.95
  -3   1  -4   71.11    4.83
  -3   2  -4   71.13    4.72
  -3   2  -4   53.19    4.45
  -1  -2  -3   15.47    4.05
  -3   1  -3   16.83    3.19
  -2   3  -3   11.48    3.40
  -3   2  -3   14.31    3.23
   2  -3  -3   18.48    3.46
  -3   1  -3   11.36    3.23
  -3   2  -3   15.09    3.30
  -2  -1  -3   16.47    4.08
   2  -3  -2  494.19    8.23
  -2  -1  -2  426.44    8.69
   3  -2  -2  462.70    6.81
  -3   2  -2  431.88    8.65
   3  -2  -2  459.89    7.05
   3  -2  -2  444.12    6.88
  -3   2  -2  461.07    8.64
  -3   1  -2  460.79    8.81
  -1  -2  -2  443.42    9.05
  -3   2  -1   46.76    2.77
   3  -2  -1   54.06    2.29
   3  -2  -1   52.53    1.79
  -3   1  -1   44.61    2.13
   3  -2  -1   49.85    2.37
  -1  -2  -1   46.43    4.69
  -3   1  -1   49.82    2.85
  -2  -1  -1   43.40    3.75
  -3   2  -1   47.55    2.89
   3  -2   0  121.89    3.84
  -2   3   0  125.39    9.04
   3  -2   0  134.33    3.89
  -3   1   1   52.19    2.07
   3  -2   1   50.98    3.00
   1   2   1   48.15    3.97
  -1   3   1   57.30    4.29
   3  -2   1   51.47    2.88
   2  -3   1   49.94    3.85
  -3   2   1   53.05    2.55
  -1   3   2  457.20    8.94
  -3   1   2  425.04    6.26
   1   2   2  406.47    8.58
  -2   3   2  468.70    8.00
   3  -2   2  431.44    8.67
  -3   1   2  445.79    6.21
   1  -3   3   14.52    3.56
  -1   3   3   20.78    3.25
   1   2   3   14.84    3.04
  -1  -2   4   50.43    4.10
   1  -3   4   58.43    4.99
  -2  -1   4   68.28    3.37
   3  -2   4   53.57    4.33
   2  -3   4   55.31    4.83
   1  -3   4   66.98    4.48
   2  -3   4   60.75    4.70
  -1  -2   5   -0.66    4.04
   1  -3   5    0.92    4.69
   2  -3   5    3.52    4.36
   1  -3   5    4.20    4.41
  -2  -1   5    2.69    2.75
  -2  -1   5    2.42    2.70
   2  -3   5    6.34    4.67
  -1  -2   5    1.98    3.76
  -1  -2   6   40.46    4.72
   1  -3   6   35.10    5.69
   2  -3   6   32.30    5.71
  -1  -2   6   31.02    4.66
   1  -3   6   32.03    5.24
  -1  -2   7    2.37    4.11
   1  -3   7    8.59    5.60
  -3   0 -10    6.77    8.73
  -3   0  -9    7.55    7.98
  -3   0  -9    0.09    5.67
   0  -3  -9    6.08    8.06
  -3   0  -8    9.14    6.87
  -3   0  -8    3.30    5.71
  -3   3  -8   -1.34    7.20
   0  -3  -8   -0.94    5.19
   3  -3  -8   15.43    6.48
  -3   0  -7    3.21    5.20
   0  -3  -7   -2.91    4.53
  -3   0  -7    8.07    7.34
   3  -3  -7   -0.46    5.45
  -3   3  -7   -0.16    6.39
  -3   0  -7    2.51    5.91
  -3   0  -6   28.91    6.97
   3  -3  -6   12.73    3.02
  -3   3  -6   19.69    5.90
  -3   0  -6   14.98    5.70
   3  -3  -6   26.82    4.96
   3  -3  -6   12.46    2.93
  -3   0  -6   23.28    5.52
   0  -3  -5    5.83    6.05
  -3   0  -5    7.74    5.60
   3  -3  -5    2.27    3.77
  -3   3  -5    4.36    4.11
  -3   0  -5    0.75    4.58
  -3   0  -4   58.10    5.30
  -3   0  -4   62.66    5.42
  -3   3  -4   53.96    4.50
   0  -3  -4   63.22    5.59
   3  -3  -4   56.98    3.85
  -3   3  -3   20.85    3.43
   0  -3  -3   22.06    3.84
   3  -3  -3   25.11    3.12
  -3   0  -3   23.15    3.87
  -3   3  -2  271.39    7.00
  -3   0  -2  268.96    6.56
   3  -3  -2  265.23    5.57
   0  -3  -2  259.99    7.23
  -3   3  -1   69.08    3.77
   3  -3  -1   68.88    3.49
  -3   0  -1   58.86    3.52
   0  -3  -1   59.18    5.50
   3  -3  -1   59.40    3.79
   0   3   0  164.50    8.96
   3  -3   0  162.49    4.93
  -3   3   1   74.27    3.04
   0   3   1   58.54    5.10
   3  -3   1   58.44    3.70
   3   0   1   57.22    2.48
   3  -3   1   69.02    3.61
   3  -3   2  239.14    6.83
   3  -3   2  257.40    7.29
   0   3   2  239.78    7.27
   0   3   3   28.32    3.54
   3  -3   4   44.92    4.82
   3  -3   4   51.34    4.60
  -3   0   4   38.44    1.70
   0  -3   4   46.86    4.76
   3  -3   5    9.34    4.72
   0  -3   5   -2.23    4.97
   0  -3   5    8.29    4.65
   0  -3   6   22.76    5.52
   0  -3   6   18.53    5.70
   3  -3   6   26.05    5.51
   0  -3   7   12.81    5.88
  -4   2 -10   12.56    9.63
  -2  -2  -9   -0.09    5.61
  -2  -2  -9    3.09    8.02
  -4   2  -9    6.09    7.67
  -2  -2  -8    0.81    5.94
   2  -4  -8   -0.18    4.97
  -4   2  -8    8.79    6.44
  -4   2  -7    7.10    5.66
  -2  -2  -7    0.99    5.50
  -4   2  -7    2.90    4.95
  -2  -2  -7   -9.27    9.02
   2  -4  -7    2.26    6.71
  -4   2  -6    9.16    5.06
   2  -4  -6   15.45    6.41
  -2  -2  -6   19.84    8.17
  -4   2  -6   12.20    5.63
  -4   2  -5    1.79    4.37
  -2  -2  -5   -5.30    7.06
  -4   2  -5    3.37    4.60
   2  -4  -5   -2.02    5.46
   2  -4  -4   76.58    5.37
  -2  -2  -4   75.29    6.78
  -4   2  -4   56.26    5.14
  -4   2  -4   58.68    5.05
   2  -4  -3    5.89    3.72
  -2  -2  -3    5.18    3.95
  -4   2  -3   -0.79    3.18
  -4   2  -3    0.71    3.28
  -4   2  -2   41.46    3.59
   2  -4  -2   51.68    4.41
  -2  -2  -2   50.93    4.65
  -4   2  -2   44.84    3.62
  -2   4  -1    1.29    2.92
  -4   2  -1    2.07    1.62
   2  -4  -1    1.00    4.47
  -4   2   0  319.20    6.58
  -4   2   0  306.79    6.32
  -2   4   0  310.00   14.20
  -4   2   1    0.87    2.03
  -4   2   1    2.66    2.03
  -2   4   2   42.40    4.49
  -4   2   2   46.62    2.43
  -2   4   3    6.94    3.32
   2  -4   4   48.78    6.09
   2  -4   4   62.81    5.46
   2  -4   5    0.07    5.76
   2  -4   5   -1.32    5.28
  -2  -2   5    5.68    3.88
  -2  -2   6   12.60    4.61
  -2  -2   6   11.10    4.53
   2  -4   6   13.78    6.37
   2  -4   6   18.95    6.35
   2  -4   7   12.15    6.67
  -2  -2   7    3.67    4.10
   2  -4   8    8.43    6.83
  -4   1 -10    2.62    8.53
  -3  -1 -10   11.83    9.71
  -4   3 -10    3.78    9.44
  -4   3  -9    6.32    8.58
  -1  -3  -9   -2.88    8.13
  -3  -1  -9    3.33    8.08
  -4   1  -9    0.09    7.26
  -4   3  -8    0.18    7.34
   1  -4  -8    1.30    5.00
  -3  -1  -8    2.78    6.29
  -1  -3  -8    3.32    5.50
   3  -4  -8   15.89    7.11
  -3  -1  -8   -0.29    7.59
  -4   1  -8    6.16    5.85
   4  -3  -8    7.50    5.96
  -4   1  -8   13.93    7.43
  -3  -1  -7   -0.97    5.96
  -4   1  -7   -2.45    5.55
   4  -3  -7   -0.88    4.89
  -1  -3  -7  -10.75    9.39
  -4   3  -7    5.50    5.99
  -4   1  -7    4.85    7.15
  -4   1  -7    1.60    6.31
   1  -4  -7    2.24    8.07
   3  -4  -7    1.80    3.78
  -3  -1  -7    4.31    8.88
   3  -4  -7   -1.86    6.03
   4  -3  -6    6.55    4.30
  -3  -1  -6    8.31    5.98
  -4   1  -6    3.59    5.72
  -1  -3  -6   15.67    8.50
  -4   3  -6   14.35    5.32
  -3  -1  -6   12.43    8.11
  -4   1  -6   13.99    6.47
   3  -4  -6   16.44    5.65
  -4   1  -6    3.90    5.01
   4  -3  -5    2.64    3.50
  -4   1  -5    4.04    5.41
  -4   1  -5    2.06    4.79
  -3  -1  -5    3.74    6.60
   3  -4  -5   -0.05    4.56
  -1  -3  -5   -5.35    6.83
  -4   1  -5   -0.07    5.16
  -4   3  -5   -0.17    4.16
  -3   4  -5   -3.19    4.81
  -4   1  -4   53.79    5.41
  -3  -1  -4   59.12    6.60
  -4   1  -4   49.64    5.61
  -4   1  -4   44.53    5.45
  -4   3  -4   44.49    4.54
  -1  -3  -4   54.09    6.16
  -3   4  -4   49.09    5.31
   4  -3  -4   52.99    3.68
   3  -4  -4   56.42    4.83
  -4   3  -3    1.14    3.08
  -1  -3  -3    5.80    4.42
   4  -3  -3    0.87    2.08
   3  -4  -3    1.58    2.98
  -4   1  -3    3.89    3.45
  -3  -1  -3   -2.93    4.25
   4  -3  -3    0.37    2.34
  -4   1  -3    0.31    3.81
   4  -3  -3   -0.71    2.10
   3  -4  -2   50.12    4.08
  -4   1  -2   42.97    3.62
   4  -3  -2   47.83    2.77
   4  -3  -2   56.70    3.16
  -4   1  -2   52.00    4.36
  -4   3  -2   46.20    3.64
   4  -3  -2   48.77    3.28
  -3  -1  -2   52.91    4.61
  -1  -3  -2   54.02    5.28
   4  -3  -1    4.24    2.97
   4  -3  -1    1.14    2.75
   3  -4  -1   -0.79    4.35
  -4   1  -1    7.46    2.44
   4  -3  -1   -0.57    2.58
  -1  -3  -1    9.01    5.33
   4  -3   0  195.87    5.85
  -4   3   0  171.23    5.84
   4  -3   0  211.62    5.72
   4  -1   0  181.08    3.64
  -4   1   0  195.31    5.19
  -1   4   0  205.11   11.26
  -4   3   0  192.02    5.18
   3  -4   0  209.86    6.60
   3   1   0  205.82    7.71
   1   3   1    3.43    4.73
  -4   1   1    0.26    1.92
  -1   4   1    6.21    5.10
   3  -4   1    1.06    3.72
  -4   3   1   -1.06    2.64
  -3   4   1    8.87    3.67
   4  -3   1    3.18    2.98
   4  -3   1   -0.04    2.87
   3   1   2   38.80    3.40
  -1   4   2   39.33    5.15
   3  -4   2   50.22    4.45
  -4   1   2   51.76    2.40
   1   3   2   36.64    4.77
   4  -3   2   43.68    4.28
  -3   4   2   53.41    3.43
   4  -3   2   46.62    4.01
   1  -4   3   -3.54    4.80
  -4   1   3    0.62    1.46
   4  -3   3    5.30    3.82
   1   3   3    6.49    3.56
  -1   4   3    7.88    3.51
  -4   1   3    0.03    1.39
  -1  -3   4   32.26    5.46
  -1   4   4   55.52    4.75
   3  -4   4   44.00    6.07
   1  -4   4   41.42    5.64
   3  -4   4   46.17    5.54
  -1  -3   5   -1.18    4.60
  -3  -1   5    7.89    3.00
   4  -3   5    0.61    4.58
   1  -4   5   13.81    5.27
   3  -4   5    2.86    5.53
   1  -4   5   -1.31    5.74
   3  -4   5    7.05    5.24
  -1  -3   6    8.60    6.07
  -3  -1   6    7.85    2.48
  -1  -3   6    6.98    5.83
   1  -4   6    8.31    6.78
   1  -4   6   11.07    6.32
   3  -4   6   16.00    6.10
  -1  -3   7    5.09    5.89
  -1  -3   7   11.19    6.09
   3  -4   7    5.89    6.47
   1  -4   7    6.56    6.95
   1  -4   7   12.58    6.73
  -1  -3   8    3.17    5.48
   1  -4   8   10.22    7.48
  -4   0 -10    8.64    8.85
  -4   0  -9    1.17    8.43
  -4   0  -8    1.88    6.15
  -4   4  -8   -1.68    7.28
   0  -4  -8    0.08    5.13
  -4   0  -8    1.54    7.56
  -4   0  -7   -1.32    7.39
  -4   0  -7   -1.75    8.00
  -4   4  -7   -4.79    6.61
  -4   0  -7    1.65    6.11
   4  -4  -7    5.55    5.63
  -4   4  -6    3.27    5.92
  -4   0  -6    7.59    6.41
  -4   0  -6   10.36    7.32
   4  -4  -6    8.29    4.95
  -4   0  -5    3.13    5.72
  -4   4  -5    3.55    5.15
  -4   0  -5    2.16    6.59
   4  -4  -5    1.61    4.21
  -4   0  -4   31.00    6.01
  -4   4  -4   29.13    5.00
   0  -4  -4   37.36    5.90
  -4   0  -4   29.29    5.82
   4  -4  -4   30.91    4.26
   4  -4  -4   21.74    3.19
   4  -4  -3    3.04    3.08
  -4   4  -3    2.30    3.91
   0  -4  -3    7.66    4.73
   4  -4  -3    1.15    3.22
  -4   0  -3    0.86    4.74
  -4   0  -2   38.88    4.03
   4  -4  -2   31.97    3.65
   4  -4  -2   38.98    3.80
   0  -4  -2   32.53    5.78
  -4   4  -2   38.04    4.40
  -4   0  -1   -5.37    5.03
   4   0  -1    0.93    3.63
   4  -4  -1    8.74    3.01
   4  -4  -1    1.13    4.54
   0  -4   0  127.67    9.02
   4  -4   0   95.99    4.72
   0   4   0   74.43    8.45
  -4   0   0   56.98   11.40
   4   0   0  105.61    4.79
  -4   4   0   76.53   11.05
  -4   4   1    4.40    2.82
   4  -4   1    3.61    3.82
   0   4   1    7.25    6.03
   4  -4   1    9.39    3.77
   4   0   1    2.98    2.52
   4  -4   2   35.02    4.71
  -4   4   2   42.96    2.94
   4  -4   2   30.86    5.02
   0   4   3    3.03    4.37
   4  -4   3   -0.32    4.38
   0  -4   4   15.94    6.12
   0   4   4   36.75    4.71
   0  -4   5    9.45    5.67
   4  -4   5    5.56    5.77
   4  -4   6    4.01    6.12
   0  -4   6   12.11    7.00
   0  -4   6    0.56    6.82
   0  -4   7    7.07    7.23
   0  -4   7    4.99    7.29
   0  -4   8   12.69    7.71
  -5   2 -10   16.99    9.05
  -5   3 -10    5.09    9.75
  -5   3  -9    5.99    8.52
  -3  -2  -9   -2.44    9.24
  -2  -3  -9   -9.55    8.84
  -5   2  -9    4.99    7.49
   5  -3  -8    3.45    5.45
  -5   3  -8    4.79    6.81
  -3  -2  -8    0.43    6.49
  -2  -3  -8    1.12    6.23
  -5   2  -8    7.39    6.99
  -3  -2  -7    3.94   10.59
   3  -5  -7   -1.07    6.61
  -5   2  -7    8.58    6.96
  -5   3  -7    7.30    6.03
   2  -5  -7   -3.43    7.05
   5  -3  -7    1.20    4.68
  -3  -2  -7    1.98    6.80
  -5   2  -7    5.26    6.96
  -5   2  -7   -2.44    5.30
  -5   3  -6    8.41    5.33
  -3  -2  -6   10.48    8.89
   2  -5  -6    8.98    6.53
  -5   2  -6    4.75    5.64
  -5   2  -6   -1.11    6.10
   3  -5  -6    0.30    5.64
   5  -3  -6    7.39    4.07
  -2  -3  -6   11.00    8.58
  -5   2  -6    5.16    6.29
  -5   3  -5   -0.45    4.68
  -5   3  -5    7.33    4.69
  -2  -3  -5   -6.13    6.82
  -5   2  -5    2.63    5.23
   2  -5  -5   11.27    5.22
   5  -3  -5    2.85    3.32
  -5   2  -5    1.20    5.44
  -5   2  -5   -1.44    4.99
  -3  -2  -5   -6.93    7.48
   3  -5  -5   -4.27    4.74
  -5   2  -4   16.48    4.91
   5  -3  -4   20.51    3.14
  -2  -3  -4   38.49    6.51
  -3  -2  -4   30.16    6.01
  -5   3  -4   16.11    4.68
  -5   2  -4   18.45    4.84
  -5   3  -4   27.08    5.09
  -5   2  -4   21.14    5.19
   2  -5  -4   38.17    5.51
   3  -5  -4   36.16    5.05
  -5   2  -3    3.98    3.54
   2  -5  -3   -0.39    4.83
   3  -5  -3   -0.05    4.34
  -5   2  -3    2.33    4.14
  -5   3  -3    1.93    4.02
  -5   3  -3   -0.36    3.82
  -3  -2  -3    8.17    5.36
  -5   2  -3    4.57    4.34
   5  -3  -3    1.79    2.18
  -2  -3  -3   -0.07    5.23
   3  -5  -2    3.56    5.30
   2  -5  -2    1.37    5.55
  -3  -2  -2    5.58    5.21
  -2  -3  -2    6.71    6.04
  -5   2  -2    7.31    2.71
   5  -3  -2    9.16    2.08
  -3  -2  -1   14.45    7.04
   3  -5  -1    0.41    5.52
   2  -5  -1   -2.37    6.09
   5  -3  -1    2.88    2.88
   3   2  -1    1.39    4.98
  -5   2  -1    8.19    2.23
  -2  -3  -1   13.01    7.01
   3   2   0   79.73    8.00
  -5   2   0   84.60    4.34
  -2  -3   0  106.26   11.65
  -5   2   0   87.17    4.19
  -3   5   0   85.57   13.60
  -5   3   0   97.71    4.01
  -3  -2   0   88.38   13.07
   5  -3   0   65.13    4.38
  -2   5   0   84.23   11.75
  -5   3   1    1.53    2.60
   3   2   1    3.31    4.63
   3  -5   1    0.71    4.60
  -3   5   1    8.03    6.18
  -2   5   1    3.23    6.74
  -5   2   1    0.03    2.28
  -5   2   1    0.45    2.36
   5  -3   1    2.23    3.37
  -2   5   2   -2.84    5.56
  -5   3   2    7.76    2.89
  -3   5   2    8.18    4.73
   3   2   2    6.85    4.24
   5  -3   2    8.11    3.75
  -5   2   2    9.21    2.49
  -5   2   2    7.47    2.55
   3  -5   2    8.06    5.33
  -5   2   3   -0.02    2.26
   3   2   3    2.82    3.73
   5  -3   3    1.63    3.88
  -2   5   3    7.27    4.24
  -3   5   3   10.32    3.91
   2  -5   4   21.98    6.14
   3  -5   4   16.06    6.66
   3  -5   4   39.88    6.31
  -2   5   4   37.35    4.82
   2  -5   5   12.42    6.14
  -3  -2   5   -2.41    5.14
  -2  -3   5   -2.25    6.09
   3  -5   5   -1.22    6.86
   3  -5   5    5.10    6.36
   2  -5   6    5.40    7.90
   3  -5   6   10.56    7.21
  -2  -3   6   11.93    5.68
   3  -5   6    9.12    7.32
  -3  -2   6   -2.59    5.10
  -3  -2   6   10.80    5.22
   2  -5   6    6.38    7.25
  -2  -3   7    3.95    6.29
   3  -5   7    6.75    7.73
  -3  -2   7    4.18    3.95
   2  -5   7   18.69    8.38
   2  -5   7   13.61    8.10
  -2  -3   7    8.63    6.68
   2  -5   8    6.93    8.40
  -2  -3   8    2.18    5.48
   3  -5   8    8.48    8.21
   2  -5   9   12.93    8.28
  -4  -1 -10   11.08    9.95
  -5   1  -9    7.86    8.76
  -5   4  -9    1.83    8.51
  -4  -1  -9   -0.69    9.07
  -5   4  -8   -0.91    7.80
  -4  -1  -8   -0.23    9.05
   5  -4  -8    1.41    5.95
  -1  -4  -8   -0.18    5.90
  -5   1  -8    5.21    8.12
   4  -5  -7    0.85    6.22
   4  -5  -7   -0.72    3.46
  -5   4  -7    2.58    6.78
  -4  -1  -7   -0.11    7.01
  -5   1  -7   -0.74    5.69
   5  -4  -7    1.02    4.71
  -5   1  -7    0.08    7.48
  -5   1  -7   -0.48    7.30
  -4  -1  -7   10.71   10.35
  -4  -1  -6    8.98    9.30
   4  -5  -6    6.58    5.42
  -5   4  -6    6.47    5.66
  -1  -4  -6   19.87    7.71
   1  -5  -6   24.26    6.79
  -5   1  -6    4.38    7.35
  -5   1  -6    6.60    6.53
  -4  -1  -6    2.47    7.45
  -5   1  -6    2.68    6.81
   5  -4  -6    4.43    4.50
   4  -5  -5   -1.74    4.67
  -5   4  -5    3.98    5.07
   5  -4  -5    1.15    3.87
  -5   1  -5   -0.66    6.35
  -1  -4  -5   11.54    7.08
  -5   1  -5    3.26    5.99
  -4  -1  -5   -4.88    7.64
  -5   1  -5    5.57    5.70
   4  -5  -4   23.26    4.41
  -5   4  -4    7.30    4.33
  -1  -4  -4   16.59    6.53
   5  -4  -4   21.00    3.79
   5  -4  -4    6.99    2.96
  -4  -1  -4    3.35    6.29
  -5   1  -4   10.81    5.72
  -5   1  -4    7.01    5.68
  -5   1  -3    0.79    4.79
  -4  -1  -3   12.11    5.37
   5  -4  -3    3.07    3.22
   5  -4  -3    0.71    3.36
   4  -5  -3    4.54    4.23
   5  -4  -3   -0.44    2.94
  -1  -4  -3    1.26    5.74
  -5   4  -3    5.67    3.74
  -5   1  -3    4.83    4.62
   5  -4  -2   12.40    3.58
  -1   5  -2   10.62    3.33
  -5   4  -2   18.68    3.98
   4  -5  -2    6.07    5.50
   5  -4  -2   13.27    4.02
  -1  -4  -2   11.52    6.60
   4   1  -2    3.16    3.32
  -5   1  -2   20.19    3.42
  -4  -1  -2   16.26    5.28
   5  -4  -2   18.43    3.69
  -1   5  -1    0.34    4.83
  -4  -1  -1   21.55    6.92
   4   1  -1    8.68    5.35
  -1  -4  -1   10.43    7.24
   4  -5  -1    3.07    4.06
   5  -1  -1    6.04    4.59
   5  -4  -1    5.28    3.88
   5  -4  -1    8.64    3.68
  -1  -4   0   47.44    9.37
   4   1   0   42.36    5.72
   5  -1   0   31.08    2.44
  -5   4   0   34.72    3.63
  -5   1   0   33.45    3.81
  -4  -1   0   37.12   13.98
  -1   5   0   24.49    9.09
   5  -4   0   32.19    4.54
   5  -4   0   41.13    4.45
   4  -5   0   39.65    5.14
  -5   4   0   38.73    4.18
   5  -4   1    3.61    4.08
   5  -4   1    6.42    4.08
  -5   1   1    5.92    2.77
   4   1   1    6.69    4.31
   4  -5   1    6.67    4.16
   1   4   1   12.18    6.47
  -4   5   1   25.04    4.95
  -1   5   1    1.39    6.88
   4  -5   2   24.05    5.01
   5  -4   2   15.06    4.80
   1   4   2    5.79    5.54
  -5   1   2   15.22    2.65
  -4   5   2   17.78    3.80
   5  -4   2   22.22    4.49
   4   1   2   14.13    3.54
   5  -4   3    6.61    4.85
  -4   5   3   11.48    3.52
   1   4   3    2.32    5.03
  -5   1   3    3.23    2.14
  -1   5   3    7.17    5.23
  -1   5   4   33.62    5.17
   1   4   4   19.21    4.83
   5  -4   5    7.01    5.90
   4  -5   5    5.67    6.54
  -4  -1   5   -1.34    4.19
  -1  -4   5   -7.42    7.21
   1  -5   5    9.80    6.59
   4  -5   5    3.69    6.37
   1  -5   6    8.73    7.83
  -4  -1   6    4.18    2.08
   4  -5   6   18.25    7.41
  -1  -4   6   14.62    6.79
   4  -5   7    0.50    7.58
   1  -5   7   -3.29    8.24
  -1  -4   7    0.64    8.20
  -1  -4   7    3.31    8.17
   1  -5   7    2.06    8.19
   4  -5   8   11.55    7.66
   1  -5   8   14.35    9.22
  -1  -4   8   11.72    8.12
   1  -5   9    1.40    8.48
  -1  -4   9   -0.07    6.44
  -5   0  -9    7.80    9.65
  -5   0  -8   -3.16    9.15
  -5   0  -7    3.26    7.63
   5  -5  -7    3.74    5.74
  -5   0  -7    5.78    8.93
  -5   5  -7   -8.60    7.21
  -5   0  -7   11.82    9.72
  -5   5  -6    4.08    6.48
  -5   0  -6   -5.22    8.63
   5  -5  -6    2.49    4.82
  -5   0  -6    1.58    7.48
   5  -5  -5    1.40    3.59
  -5   0  -5   -1.06    7.54
   5  -5  -5   -3.49    4.20
  -5   0  -5    4.67    7.48
  -5   5  -5   -1.07    5.73
   5  -5  -4    4.68    3.50
  -5   0  -4   -0.13    6.27
  -5   5  -4    3.26    5.12
   5  -5  -4   10.43    3.87
  -5   0  -4    5.61    7.14
   0  -5  -4    8.76    6.55
   5  -5  -3    3.34    3.53
  -5   5  -3   -1.75    4.74
  -5   0  -3   12.75    4.88
   5  -5  -3   -2.19    4.08
   0  -5  -3   -8.28    6.85
   5  -5  -2   14.61    4.02
  -5   5  -2   10.67    4.55
   0   5  -2    6.25    3.70
   5   0  -2   -0.82    3.60
   5  -5  -2   20.19    5.83
  -5   0  -2   16.10    4.93
   0  -5  -1   -4.15    6.62
   5  -5  -1   -4.58    5.06
   5   0  -1   -0.47    5.88
   5  -5  -1    0.40    3.90
   0   5  -1    1.83    5.91
  -5   5   0   -6.28    8.57
   5  -5   0   10.04    4.21
   5  -5   0    5.34    4.52
   5   0   0   17.36    4.13
   0   5   0    0.39    8.13
   0  -5   0    2.75    8.07
  -5   5   1   -2.44    3.43
   5  -5   1   -1.54    4.84
   5  -5   1   -0.58    4.86
   0   5   1    2.80    7.26
   5   0   1    1.04    3.24
  -5   5   2   22.54    2.94
   5  -5   2   12.48    5.73
   5  -5   2   20.16    5.35
   5  -5   3    3.90    5.23
   5  -5   3    0.24    5.52
   0   5   3    3.35    5.88
   0   5   4   16.31    5.27
   5  -5   5    6.86    6.43
   0  -5   5   -3.43    7.90
   0  -5   6   23.81    7.76
   5  -5   6    7.29    7.26
   5  -5   7   10.61    7.30
   0  -5   7    0.70    9.61
   0  -5   7   -0.10    9.36
   0  -5   8    3.62    9.74
   0  -5   8   10.26   10.80
   0  -5   9    0.22    9.20
  -6   3  -9    4.86    7.92
  -6   3  -8    5.62    7.30
   6  -3  -8    9.72    5.20
  -6   3  -7    8.73    6.72
  -6   3  -7    2.23    6.56
   6  -3  -7    6.87    4.43
  -6   3  -6    9.06    6.65
   6  -3  -6    3.38    3.80
  -3  -3  -6   30.40    8.97
  -6   3  -6    3.66    5.98
   3  -6  -6   23.12    6.34
  -6   3  -6   -0.57    5.60
  -6   3  -5    0.37    5.15
   6  -3  -5    0.06    3.12
   3  -6  -5    2.76    5.70
  -6   3  -5   -1.47    5.96
   3  -6  -4    5.53    5.52
  -3  -3  -4   11.94    7.25
   6  -3  -4    4.69    2.72
  -6   3  -4    7.85    5.20
  -6   3  -4    3.41    5.30
  -6   3  -3    3.08    4.57
   6  -3  -3    0.45    2.09
  -6   3  -3   -0.25    4.63
  -6   3  -3    3.27    3.54
  -3  -3  -3   -4.04    6.80
  -6   3  -2    8.42    2.81
   6  -3  -2    7.65    1.96
  -3   6  -2    6.87    3.59
  -3   6  -1   -0.54    5.71
  -6   3  -1    6.78    2.01
   3   3  -1    7.35    5.85
  -3  -3  -1    6.77    8.95
  -6   3  -1    0.94    3.68
  -6   3  -1   -0.68    3.59
   3   3   0    5.14    7.38
  -3  -3   0  -15.38   12.87
  -6   3   0    8.64    3.55
  -6   3   0    8.07    3.48
  -3   6   0  -11.45   12.85
  -6   3   1    2.03    2.90
  -3   6   1    5.69    8.50
   3   3   1   11.90    6.25
  -6   3   1   -2.69    2.96
  -3   6   2   -4.62    6.56
   3  -6   2    2.41    6.66
   3   3   2    7.95    5.86
  -6   3   2    9.99    3.18
   3   3   3   -2.32    4.77
  -3   6   3    1.07    5.42
  -3   6   4   16.54    4.96
   3  -6   4   11.56    6.84
   3   3   4    1.68    4.79
   3  -6   5    8.40    7.69
   3  -6   6    0.37    9.13
  -3  -3   6   11.93    6.72
   3  -6   6    9.81    8.45
   3  -6   7    5.30    9.16
  -3  -3   7    4.34    7.11
   3  -6   7   12.01    9.19
  -3  -3   7    4.22    7.92
  -3  -3   8   -0.04    5.06
   3  -6   8    7.12    9.47
   3  -6   9    5.07    9.18
  -6   2  -9    5.39    8.53
  -6   4  -9    9.68    8.77
  -4  -2  -9   -1.62   10.47
  -6   2  -8   14.79    8.78
  -6   4  -8   -4.41    7.41
   6  -4  -8    5.89    4.97
   6  -4  -7    3.84    4.37
  -6   4  -7   11.47    6.92
   4  -6  -7   11.86    5.68
  -4  -2  -7    0.81    8.11
  -6   2  -7   12.25    7.43
  -6   2  -7    1.74    7.88
   4  -6  -6   21.77    5.78
  -6   4  -6    4.62    5.93
  -4  -2  -6   11.54    8.70
  -2  -4  -6   20.86    9.43
   2  -6  -6   25.00    7.16
  -6   2  -6    2.67    6.58
  -6   2  -6    5.35    6.66
   6  -4  -6    3.31    3.78
  -6   2  -6    4.80    7.44
  -6   2  -5    4.83    6.54
  -6   4  -5    4.02    5.34
   6  -4  -5    1.35    3.67
  -2  -4  -5   20.70    8.42
  -4  -2  -5   19.36    8.04
   4  -6  -5   11.17    5.25
  -6   2  -5   -2.57    5.63
  -6   2  -5    8.91    5.70
   2  -6  -5    7.17    6.33
  -6   4  -4    2.84    4.75
  -6   2  -4    4.33    5.74
   2  -6  -4   -1.30    6.24
  -6   2  -4    0.56    4.81
   6  -4  -4   -0.21    3.27
   4  -6  -4    6.30    5.05
  -2  -4  -4    8.77    7.25
  -6   2  -4    3.65    6.31
  -4  -2  -4   18.16    7.04
  -6   4  -3    1.11    4.13
  -2  -4  -3   -3.61    7.53
   4  -6  -3   -5.77    6.02
   6  -4  -3    1.75    2.96
   2  -6  -3   -9.87    6.61
  -4  -2  -3   -0.89    6.30
  -6   2  -3   -0.28    5.22
  -6   2  -3    0.07    4.97
  -6   2  -3   -1.06    4.20
   6  -4  -2   -2.98    4.31
  -6   2  -2    9.88    3.16
  -2   6  -2    3.45    3.66
   6  -4  -2    5.77    3.88
  -2  -4  -2   34.18    7.74
  -4  -2  -2   -2.07    7.46
   2  -6  -2   34.50    7.16
   4  -6  -2   29.80    6.90
  -6   4  -1    4.16    3.53
  -2  -4  -1    1.15    7.89
  -4   6  -1   -2.74    6.61
  -6   2  -1   11.78    5.09
   6  -4  -1    2.35    3.89
  -6   2  -1    0.34    3.89
  -4  -2  -1    4.91    9.23
   4   2  -1    9.29    6.14
  -6   2  -1    2.15    3.85
  -2   6  -1    0.35    6.38
  -6   4   0    3.95    3.55
  -4   6   0  -21.16   15.10
   4  -6   0    3.98    5.21
  -4  -2   0  -16.13   14.63
   6  -4   0    9.30    4.36
  -6   2   0    5.59    3.58
  -2   6   0    1.43   10.46
  -6   2   0    7.72    3.51
  -2  -4   0   -2.13   10.57
   4   2   0    4.16    6.73
   4  -6   1   -0.43    5.73
  -6   4   1    0.21    3.72
   4   2   1    3.92    5.11
   6  -4   1    0.06    4.21
  -4   6   1   17.12    7.16
  -2   6   1   -5.35    8.62
  -6   2   1    0.68    2.98
  -6   2   1    1.11    2.95
  -4   6   2    9.18    5.60
   4  -6   2   22.97    6.42
  -6   2   2    5.97    2.95
   4   2   2    6.32    5.22
   6  -4   2    4.49    4.80
  -6   2   2    8.11    3.13
  -6   2   3    2.11    2.61
   4   2   3    1.01    4.61
   2  -6   3   -9.70    8.25
   6  -4   3    2.05    4.89
  -4   6   3    3.30    4.28
  -2   6   3    3.95    6.09
   2  -6   4    5.40    8.34
   6  -4   4    3.84    5.33
  -2   6   4   16.08    5.27
   2  -6   5    6.39    7.49
   4  -6   5    1.71    7.30
   4  -6   5   -6.15    8.39
   2  -6   6    2.62    8.91
  -4  -2   6   12.03    5.66
  -2  -4   6    6.22    7.64
   2  -6   6   -9.17    9.45
   4  -6   6   13.58    8.75
   4  -6   6   19.38    8.52
  -2  -4   7   -5.12    8.72
  -4  -2   7    1.72    3.76
   4  -6   7    8.14    8.97
  -2  -4   7    4.62    9.47
   2  -6   7    5.00    9.43
   2  -6   7    6.42    9.36
  -2  -4   8   20.15   10.38
  -2  -4   8   -0.09    8.33
   2  -6   8   13.06   10.21
   2  -6   8    7.01   10.24
   4  -6   8    1.96    9.17
   2  -6   9    1.19    9.27
   4  -6   9    6.23    8.59
  -6   5  -9    3.80    8.65
  -6   1  -9    7.70   10.29
  -5  -1  -9   -4.60   10.87
  -6   5  -8   12.63    8.22
  -5  -1  -8   -9.96   11.18
  -6   1  -8    5.19    9.75
   6  -5  -7    0.99    5.22
  -6   1  -7   -0.47    9.07
   5  -6  -7    4.53    5.11
  -6   5  -7   -0.88    7.55
  -6   1  -7   14.69    9.08
  -5  -1  -6   -9.02    9.25
   5  -6  -6    4.28    4.25
   5  -6  -6   14.54    4.80
  -5  -1  -6    1.42    9.48
  -6   5  -6    4.06    6.88
  -6   1  -6    6.01    7.67
   1  -6  -6   15.81    7.76
   6  -5  -6    0.44    4.74
  -1  -5  -6   29.62    9.53
  -6   1  -6    2.23    9.29
  -6   1  -6    1.67    8.00
   6  -5  -5    0.78    3.93
  -6   1  -5    4.09    8.10
  -6   1  -5    3.38    7.23
  -5  -1  -5   13.29    9.34
  -6   5  -5   -4.61    6.11
   5  -6  -5   -1.83    3.97
  -5  -1  -5    7.06    7.07
   5  -6  -5    6.72    4.90
  -1  -5  -5    7.40    7.90
  -6   1  -5    3.68    7.25
  -1  -5  -4   -0.65    7.50
  -6   1  -4   -4.75    5.99
   5  -6  -4   -1.48    3.94
   6  -5  -4   12.77    3.67
  -5  -1  -4   21.47    6.86
   6  -5  -4    4.91    4.37
  -6   1  -4   -0.10    6.90
  -6   5  -4   -0.80    5.39
   5  -6  -4    4.00    4.95
   5  -6  -3   -0.34    4.28
   5  -6  -3   -3.65    6.10
  -6   5  -3    2.50    5.01
  -6   1  -3    7.28    4.26
  -1  -5  -3  -10.42    7.88
  -6   1  -3    3.63    6.19
   6  -5  -3    0.05    4.36
   6  -5  -3   -0.53    4.29
  -5  -1  -3    0.41    5.86
   6  -5  -3    0.62    4.38
   5  -6  -2   17.78    7.38
   6  -5  -2    1.37    4.87
   5  -6  -2    6.54    4.80
  -6   1  -2    2.17    4.57
   6  -5  -2    9.50    4.61
   6  -5  -2   15.50    6.66
  -1  -5  -2   27.86    7.82
   5  -6  -1  -10.38    6.63
  -6   1  -1   18.60    7.87
   5  -6  -1    1.73    4.81
  -6   5  -1    0.67    4.56
  -6   1  -1   -2.18    4.39
  -1   6  -1    4.43    6.63
   6  -5  -1    0.79    4.68
  -5  -1  -1   11.85   10.05
   6  -1  -1    2.63    4.62
   6  -5  -1   -1.40    4.36
  -1  -5  -1   -5.22    8.13
  -5   6  -1    3.92    7.23
  -6   5   0   -2.16    4.17
  -1  -5   0  -15.64   10.06
   5  -6   0    5.98    5.07
   5   1   0   11.72    5.87
  -1   6   0   -3.96    9.52
  -6   1   0    1.53    3.87
  -6   5   0   16.25    3.02
   1   5   0   -4.78    8.46
   6  -5   0   -1.00    4.78
   6  -1   0    3.64    2.57
   6  -5   0    4.35    4.64
   5   1   1   -0.76    4.93
   5  -6   1    0.22    5.08
  -5   6   1    6.85    4.75
   1   5   1    4.82    7.50
  -1   6   1    6.50    8.59
   6  -5   1    4.99    5.05
  -6   1   1    0.97    3.30
   6  -5   1   -2.63    5.23
   5  -6   2   18.29    5.94
   6  -5   2    3.96    6.00
   1   5   2   -0.53    6.59
  -1   6   2   -2.80    6.87
   5   1   2    6.90    4.28
  -6   1   2    4.56    2.98
   5  -6   2    0.09    6.51
  -5   6   2   13.78    4.19
   6  -5   2   12.85    5.43
  -5   6   3    5.85    3.77
  -6   1   3    0.80    2.62
   5  -6   3   -5.73    7.56
   6  -5   3    1.56    6.01
   1   5   3   -2.76    6.49
   5  -6   3   -1.02    6.56
  -1   6   3   -5.10    6.61
   6  -5   4   12.36    6.43
  -6   1   4    0.16    2.51
   1   5   4    5.65    5.59
  -1   6   4   16.88    5.72
  -6   1   4    1.66    2.60
   1  -6   5    9.78    8.36
   5  -6   5   11.17    7.42
   1   5   5   14.39    5.76
  -1   6   5   22.75    5.86
   5  -6   5    4.36    7.92
   1  -6   6   13.43    9.06
   6  -5   6    5.26    6.85
  -1  -5   6    6.51    8.75
  -5  -1   6   -0.20    2.27
   5  -6   6   15.76    8.71
   5  -6   6   20.51    7.67
  -5  -1   6    3.77    2.74
  -1  -5   7   22.28   10.29
   5  -6   7    2.54    8.32
  -1  -5   7  -10.56    9.87
   1  -6   7   -0.37   10.42
   1  -6   7    2.67   10.76
  -1  -5   8    4.07   10.16
   5  -6   8    7.02    8.57
   1  -6   8    6.43   10.77
   1  -6   8   18.27   11.99
  -1  -5   8   19.79   11.77
  -1  -5   9    0.12    9.39
   1  -6   9    0.43   10.68
  -6   0  -8   -2.36   11.38
  -6   0  -7   -6.27   11.57
   6  -6  -7    2.31    4.64
  -6   0  -6    0.81    8.38
   6  -6  -6   13.49    4.50
   6  -6  -6   -0.03    4.49
  -6   6  -6    0.80    6.71
  -6   0  -5   -2.03    9.26
  -6   0  -5    0.57    6.71
  -6   6  -5   -4.87    6.43
   6  -6  -5    7.75    4.74
   6  -6  -5    3.11    5.18
   6  -6  -5    8.30    5.44
   6  -6  -4    7.20    4.62
  -6   6  -4   -3.95    5.77
  -6   0  -4   -2.21    8.85
   6  -6  -4    0.67    4.81
   6  -6  -3    3.19    4.47
  -6   6  -3   -2.86    5.41
   0  -6  -3   -5.49    7.99
  -6   0  -3    5.20    5.52
   0   6  -3    0.55    3.76
   6  -6  -2    0.49    7.49
   6  -6  -2    9.06    4.74
   6   0  -2    6.63    6.66
   6  -6  -1    3.29    4.78
   0   6  -1    9.09    7.01
  -6   0  -1   -1.10    9.22
  -6   6  -1   -1.18    8.16
   6  -6  -1   -0.71    5.53
   6   0  -1   -1.44    7.18
   6  -6   0    1.79    5.55
   6   0   0    1.57    4.69
   0   6   0   -3.13    9.09
  -6   6   0    5.60    5.96
   6  -6   0    0.64    5.86
   6  -6   1   -0.18    6.54
   0   6   1    5.13    8.52
   6   0   1    2.93    3.51
  -6   6   1    2.08    3.66
   6  -6   1    2.27    6.08
   0   6   2   -1.39    6.88
  -6   6   2   14.75    3.09
   6  -6   2   -0.39    6.75
   6  -6   2    2.32    6.19
   0   6   3   -6.10    7.36
   6  -6   3   -3.17    6.73
   6  -6   3    3.83    6.31
   6  -6   4    2.05    7.68
   0   6   4   14.79    6.21
   0  -6   5   -9.90   10.05
  -6   0   5    2.35    2.13
   0  -6   6   13.98    9.45
   6  -6   6   12.97    8.15
   0  -6   7   21.02   11.29
   6  -6   7    6.38    8.08
   0  -6   7   -6.07   11.32
   0  -6   8    1.65   11.30
   0  -6   8   11.14   12.75
   0  -6   9    0.16   11.59
  -7   3  -8    7.21    8.62
   7  -3  -8   -0.69    4.73
  -7   4  -8    7.10    8.34
   7  -4  -8    5.07    4.65
  -7   3  -7    5.16    7.91
  -7   4  -7    5.21    7.36
  -7   4  -7    0.78    6.35
   7  -3  -7    3.97    4.20
  -7   3  -7    7.35    7.08
   7  -4  -7    1.71    4.06
  -7   3  -6   -2.02    7.92
  -7   4  -6    6.41    6.76
   7  -3  -6    2.76    3.54
   4  -7  -6   11.92    6.28
  -7   3  -6    5.67    6.28
   3  -7  -6   13.75    6.98
   7  -4  -6    4.82    3.56
  -4  -3  -6   28.38   10.60
  -7   4  -5    2.20    5.85
   7  -3  -5   -0.32    2.96
  -7   3  -5    1.83    6.15
  -4  -3  -5    6.02    8.90
  -7   3  -5    8.73    5.54
  -3  -4  -5   -2.19    9.08
   7  -4  -5    2.66    3.47
   4  -7  -5    2.75    6.12
  -7   3  -5    4.18    7.28
   3  -7  -5    3.75    6.77
  -3  -4  -4   -4.60    8.81
  -7   4  -4    2.48    5.17
   4  -7  -4   -3.49    6.65
   3  -7  -4  -10.07    7.39
  -7   4  -4   -0.21    4.93
  -7   3  -4    3.07    5.64
  -7   3  -4    4.83    4.42
   7  -4  -4    2.07    3.21
  -7   3  -4    3.18    6.35
  -4  -3  -4   -0.10    8.41
   7  -3  -4    0.53    2.46
   3  -7  -3   23.41    7.08
   7  -4  -3    8.21    3.01
  -3  -4  -3  -16.15    9.36
  -7   4  -3    4.50    3.49
   7  -3  -3   -0.17    2.02
   4  -7  -3   12.10    6.82
  -7   3  -3    1.02    3.98
   4   3  -3   -2.74    4.38
   3   4  -3   -5.03    4.28
  -7   4  -2    5.03    2.65
  -3  -4  -2   20.99    8.93
   4   3  -2   -0.42    5.37
  -7   3  -2   11.23    2.90
   3   4  -2    1.02    5.25
  -7   3  -2    5.47    5.07
  -7   4  -2    0.17    4.39
   3  -7  -2    9.29    7.89
  -4  -3  -2   30.63    8.80
   4  -7  -2    9.44    7.56
  -7   4  -1    0.53    4.00
  -3   7  -1   -4.77    8.15
  -4   7  -1   -2.33    8.43
   4  -7  -1   -5.52    7.82
   4   3  -1   -0.19    7.32
  -7   3  -1    0.11    4.25
   3  -7  -1   -6.17    7.59
   3   4  -1   14.59    7.21
  -7   3  -1    2.85    4.35
   3   4   0   -3.96    8.26
  -7   4   0    5.01    3.75
  -4   7   0  -16.73   14.39
  -3   7   0  -17.53   12.62
  -7   3   0   -1.72    3.80
   4   3   0    7.79    7.81
  -7   3   0    1.38    3.92
  -7   4   1    0.75    3.80
   4  -7   1    0.83    7.06
  -4   7   1   21.68    9.83
  -3   7   1   18.49   10.66
  -7   3   1   -0.28    3.45
   4   3   1   12.03    7.11
   3   4   1   12.30    7.40
  -7   3   1    0.92    3.74
   4   3   2    0.86    7.10
  -4   7   2   -2.10    7.74
   3   4   2    8.10    7.30
  -7   3   2    4.93    3.57
   4  -7   2    6.31    7.97
  -7   4   2   -1.18    4.42
   3  -7   2   -7.38    8.42
  -7   3   3    4.12    3.95
  -4   7   3    4.11    5.98
   4   3   3    6.61    5.68
   3   4   3   -3.20    6.76
  -3   7   3    5.83    6.99
   4  -7   4   10.17    8.12
   3  -7   4    0.13    8.88
  -4   7   4   17.74    5.48
   4   3   4   -0.33    5.72
  -3   7   4   15.51    5.87
   3   4   4    0.51    5.97
   4  -7   5   -9.74   10.24
   4  -7   5   -8.63    9.56
  -4  -3   6    2.55    8.53
  -3  -4   6   -4.56    9.53
   4  -7   6   -4.63   10.52
   3  -7   6  -12.93   11.06
   4  -7   6    9.66    9.97
   3  -7   6    2.92   10.62
  -3  -4   7   13.75    9.46
   3  -7   7    2.10   10.81
   4  -7   7    4.57   10.35
  -4  -3   7   -1.31    7.76
  -4  -3   7   16.48    9.33
   4  -7   8   16.80   10.87
   3  -7   8    9.30   11.11
  -3  -4   8   -0.10    8.72
   3  -7   9    2.66   10.52
   4  -7   9    0.44    9.49
  -7   2  -8   10.05   10.50
  -7   5  -8    2.29    8.92
   7  -5  -7    6.69    4.86
  -7   5  -7    7.41    8.10
  -7   2  -7   14.32    8.38
  -7   2  -7    4.16    9.71
  -5  -2  -6   22.33   10.35
   7  -5  -6    3.84    4.25
  -7   5  -6    0.43    6.66
   5  -7  -6    5.19    5.74
  -7   2  -6    1.86    9.24
  -7   2  -6    5.51    7.38
   2  -7  -5   -3.93    7.55
   7  -5  -5    0.19    3.79
  -7   5  -5    5.21    6.22
  -7   2  -5   -0.20    6.91
  -5  -2  -5   14.79    8.65
  -7   2  -5   -0.10    8.38
   5  -7  -5    0.06    5.76
  -2  -5  -5   -2.07    9.41
  -7   2  -5    8.19    6.76
  -7   2  -4   -0.66    5.36
   5  -7  -4   -8.37    6.55
  -2  -5  -4   -4.37    9.01
  -7   5  -4    1.59    5.64
   2  -7  -4  -11.24    7.79
   7  -5  -4    9.62    3.94
  -7   2  -4    3.96    6.77
  -7   2  -4    9.88    7.72
  -5  -2  -4    2.53    7.76
  -5  -2  -3   -6.81    8.39
  -7   2  -3   11.83    3.92
   7  -5  -3    2.94    4.37
   5  -7  -3   24.41    7.01
   2  -7  -3   19.19    7.27
  -2  -5  -3   -0.11    8.76
   7  -5  -3   -5.28    5.48
  -2   7  -3    1.50    3.79
   7  -2  -2   -5.91    6.26
   5  -7  -2    6.44    8.15
  -2  -5  -2   14.91    8.95
   5  -7  -2   -6.29    5.04
   7  -5  -2    0.06    4.94
  -7   2  -2    1.40    5.61
  -7   2  -2    3.38    5.82
  -5  -2  -2   27.56    8.36
   2  -7  -2   10.83    8.04
  -7   2  -2   -5.48    4.35
   5   2  -2    1.40    6.46
  -2   7  -1   -0.13    7.91
  -5   7  -1   -2.17    8.91
  -7   5  -1   -3.79    4.79
  -7   5  -1    2.65    4.79
   5  -7  -1    0.61    5.59
   7  -5  -1    1.24    5.15
  -7   2  -1    0.82    4.63
  -7   2  -1   -0.11    4.91
  -5   7   0  -19.48   14.01
   5  -7   0    2.00    5.97
  -2   7   0   10.07   10.89
  -7   5   0   -0.28    4.72
   7  -5   0    0.36    5.37
  -7   2   0    3.22    4.08
   5   2   0    8.72    7.61
  -7   2   0    4.82    4.19
   5   2   1   -3.10    6.45
   5  -7   1    2.41    6.24
  -5   7   1   17.51    7.48
  -7   5   1   -2.15    4.53
   7  -5   1    1.46    5.52
  -7   2   1    1.48    3.64
  -2   7   1  -14.18   10.07
  -7   2   1   -0.91    3.71
   5  -7   2   11.48    7.11
  -2   7   2  -13.44    8.12
   7  -5   2    1.38    5.94
  -7   2   2    1.96    3.22
  -7   2   2    0.75    3.36
   5   2   2    6.49    6.06
  -5   7   2   -0.29    5.97
   5  -7   3    2.24    7.21
   2  -7   3  -10.14    9.71
  -5   7   3   10.47    4.66
  -7   2   3   -0.27    3.31
   5  -7   3   -6.19    8.69
   5   2   3    2.66    5.21
   7  -5   3    2.85    6.23
  -7   2   3    1.14    3.51
  -2   7   3   -8.66    7.92
  -7   2   4    2.01    3.57
   2  -7   4  -10.67   10.63
   7  -5   4    5.35    6.32
   2  -7   5   10.52   10.14
  -2   7   5   20.61    6.32
   5  -7   5   -6.23    9.72
   5  -7   5   -2.93    8.87
   2  -7   6   22.64   10.19
  -5  -2   6    1.68    7.25
  -2  -5   6    2.60    9.97
   5  -7   6    1.55    9.87
   2  -7   6  -15.52   11.38
  -2  -5   7   25.53   10.66
   2  -7   7    2.53   12.26
  -5  -2   7   -0.02    2.99
   5  -7   7   15.58   10.26
   2  -7   7    4.39   11.72
   5  -7   8    7.29    9.86
   2  -7   8    1.18   11.81
  -2  -5   8    0.29   11.72
  -2  -5   8   19.73   14.06
   2  -7   9    0.17   11.77
  -7   6  -8   -0.33    8.53
  -6  -1  -8    1.11   14.36
  -7   1  -8    6.66   12.29
   7  -6  -7    2.68    4.29
  -7   6  -7   -2.25    7.85
   6  -7  -7    9.20    5.56
  -7   1  -7   -1.96   11.70
   6  -7  -6    7.54    5.19
  -7   1  -6    0.76    8.22
  -7   6  -6   -2.58    7.42
   7  -6  -6   19.37    4.62
  -6  -1  -6   25.83    9.71
   6  -7  -6    7.54    5.44
  -7   1  -6    2.42   11.98
  -1  -6  -5   -8.42   10.13
   6  -7  -5    3.62    4.68
  -7   1  -5   -1.57    6.85
  -7   6  -5    1.86    6.77
   7  -6  -5    1.05    4.26
  -6  -1  -5    4.62   12.11
   7  -6  -5    5.29    4.55
  -6  -1  -5   25.29    8.36
  -7   1  -5    8.47    9.54
  -7   1  -5    4.04   10.74
   6  -7  -5   -1.74    5.50
   6  -7  -4    1.61    4.41
   6  -7  -4  -10.43    6.87
  -7   6  -4    0.82    6.27
  -7   1  -4   17.96    5.83
   7  -6  -4    6.82    5.81
  -7   1  -4    3.86    8.41
  -6  -1  -4    3.54    7.15
   7  -6  -4    1.44    5.12
  -6  -1  -3   -9.35    7.81
   6  -7  -3    2.78    4.65
   7  -6  -3    0.07    5.84
   7  -6  -3   18.90    7.12
  -7   1  -3    4.96    5.12
  -1  -6  -3   23.74    8.49
   7  -6  -3    3.91    5.95
   6  -7  -3    8.82    7.70
   6  -7  -2    8.49    5.14
  -1   7  -2   -0.62    5.37
   7  -1  -2   -3.82    8.13
  -7   1  -2   -0.06    6.17
  -7   1  -2    0.17    6.47
  -6  -1  -2   25.28    8.15
  -1  -6  -2   11.74    8.98
   7  -6  -2    0.07    5.91
   7  -6  -2    1.87    5.48
   6   1  -2   11.55    7.69
   6   1  -1   -8.14    8.86
   6  -7  -1    3.39    5.20
   7  -1  -1   12.75    4.39
  -7   6  -1   -2.33    5.12
  -7   6  -1    4.72    6.36
   7  -6  -1   -0.08    5.86
  -6   7  -1    4.21    9.15
  -7   1  -1    4.33    5.54
   7  -6  -1    4.52    5.74
  -1   7  -1    2.54    7.76
   6  -7   0    1.64    5.70
   1   6   0  -10.84    9.75
  -1   7   0   -0.84   10.05
   6   1   0   15.12    6.93
   7  -6   0    1.20    6.45
   7  -1   0    1.38    2.61
  -7   1   0    1.76    4.64
  -6   7   0   10.34    8.55
   7  -6   0    8.18    6.20
   6  -7   1    6.91    6.37
  -7   1   1    3.20    3.96
  -1   7   1   11.06    9.95
   7  -6   1    9.30    6.42
   7  -6   1    0.09    6.47
   1   6   1   -0.13    8.90
   6  -7   1    0.10    7.10
   6   1   1   -1.16    5.73
   6  -7   2   -1.57    7.31
   1   6   2    0.85    7.70
  -7   1   2    2.39    3.42
   7  -6   2    2.35    6.83
   6   1   2    5.53    4.86
   6  -7   2   -0.57    8.00
  -6   7   2    4.99    3.79
   7  -6   2   10.64    6.41
   1   6   3   -1.25    7.81
  -1   7   3   -9.55    8.59
  -7   1   3    3.27    3.12
   7  -6   3    3.03    7.33
   6  -7   3   -3.22    8.93
   6  -7   3    4.69    7.81
   1  -7   4   -3.69   10.84
   7  -6   4    0.11    7.27
  -7   1   4   -0.37    2.82
   1   6   4   -1.30    6.50
  -1   7   4   14.71    6.74
  -7   1   4    2.46    3.21
   1  -7   5    3.11   11.14
  -1   7   5   28.53    6.85
  -1  -6   5  -14.96   10.55
   1   6   5    7.29    6.85
   6  -7   5   15.35    8.95
   1  -7   6   16.45   10.87
  -1  -6   6   -0.55   11.21
  -6  -1   6   -0.01    1.64
   7  -6   6    9.20    7.89
   6  -7   6    9.99    9.75
  -6  -1   6   11.77    3.92
   1  -7   7   18.37   12.62
  -1  -6   7   33.02   11.99
   1  -7   7  -11.50   12.63
   6  -7   7    4.08    9.52
   1  -7   8   -0.74   12.84
   6  -7   8    3.81    9.34
  -1  -6   8    0.18   13.43
  -1  -6   8   17.23   15.49
   1  -7   9    0.19   12.83
  -7   0  -7   22.10   16.07
   7  -7  -7   10.01    5.22
  -7   0  -6   29.02    8.61
   7  -7  -6    5.92    5.14
   7  -7  -5    2.16    6.75
  -7   0  -5    9.33    7.22
   7  -7  -5    4.44    7.33
   7  -7  -5   -0.16    5.64
  -7   0  -4    9.07   11.06
   0   7  -4   -0.59    4.28
   7  -7  -4    1.06    6.26
   7   0  -4   -5.55    5.19
  -7   0  -4    9.56    6.56
   7  -7  -4    5.00    6.35
   7   0  -3    3.35    6.43
   0  -7  -3   11.36    8.78
   7  -7  -3    1.57    8.76
   7  -7  -3    0.07    5.93
   7  -7  -3    0.27    6.05
  -7   0  -2   14.97    7.27
   7   0  -2   -9.67    9.81
   0  -7  -2   -2.35    8.32
   0   7  -2   -0.40    6.23
   7  -7  -2    0.08    6.16
   7  -7  -2    2.76    6.03
   7  -7  -1   -0.09    6.64
  -7   0  -1   -7.77    8.25
   7   0  -1    9.79    7.12
   0   7  -1    1.22    7.77
   7  -7  -1   -1.26    6.15
   0  -7  -1   -6.29    8.85
   7   0   0    1.68    5.41
   0   7   0    6.78   10.22
  -7   7   0   22.13    4.80
   7  -7   0    0.10    7.18
   7  -7   0    2.53    6.45
   7  -7   1    0.76    7.69
   7   0   1   -0.58    4.05
   0   7   1    3.95    9.71
  -7   7   1    1.59    3.42
   7  -7   1    1.78    7.00
   0   7   2   -1.88    8.39
   7  -7   2    0.11    7.72
   7  -7   2    6.20    7.15
   0   7   3   -9.61    9.05
   7  -7   3   -9.08    8.73
   7  -7   3    7.20    8.00
   7  -7   4    6.28    8.60
   7  -7   4   14.86    7.97
   0   7   4    1.29    7.13
  -7   0   4    1.97    2.79
   0  -7   5  -12.25   12.18
  -7   0   5    0.81    2.70
   0  -7   6    3.87   11.60
   7  -7   6    8.15    9.30
   0  -7   7   34.73   12.91
   7  -7   7    3.58    8.92
   0  -7   8   -0.20   14.78
  -8   4  -7    9.80    8.36
  -8   4  -7    2.77    6.54
   8  -4  -7    2.66    4.03
  -8   4  -6    4.93    7.70
  -8   4  -6    3.45    5.87
   8  -4  -6    4.45    3.66
  -8   4  -5   11.46    7.22
  -4  -4  -5   -6.37   10.94
  -8   4  -5    2.34    4.96
   8  -4  -5   -0.85    3.29
   8  -4  -4    0.81    3.02
  -8   4  -4    8.16    7.05
   4  -8  -4   14.58    7.65
  -8   4  -4    2.61    4.13
   4  -8  -3    7.02    7.89
  -4  -4  -3   17.76    9.25
  -4   8  -3    1.19    3.87
  -8   4  -3   -2.47    3.66
  -8   4  -2    6.89    5.58
   4   4  -2    9.83    6.96
  -4   8  -2    0.09    5.56
  -8   4  -2    9.64    2.58
  -4  -4  -2    8.74   10.04
  -8   4  -2    0.06    4.89
  -8   4  -1    4.76    4.82
   4   4  -1  -13.47    9.07
  -8   4  -1    0.06    4.49
  -4   8  -1   -7.56    9.07
  -8   4   0    3.64    4.22
  -4   8   0  -12.49   13.97
   4   4   0   -0.41    8.79
  -8   4   1    1.86    4.27
   4  -8   1   -5.95    8.22
   4   4   1   22.30    8.62
  -4   8   1   15.56   11.49
   4   4   2    0.46    8.16
  -8   4   2    4.26    4.94
   4  -8   2    1.87    9.46
   4   4   3    0.35    7.45
  -4   8   3   10.18    7.76
   4  -8   4   14.81   10.32
   4   4   4    2.78    6.92
  -4   8   4   19.74    6.49
   4  -8   5    8.54   10.64
   4  -8   5   -9.08   12.53
  -4  -4   6  -10.34   10.17
   4  -8   6   -9.19   13.07
  -4  -4   7   17.80   11.14
   4  -8   7    2.86   11.77
   4  -8   8    1.29   11.72
  -8   3  -7   10.64   10.35
   8  -5  -7   -2.96    4.29
  -8   5  -7    2.07    8.06
  -8   5  -7    4.22    6.16
   8  -3  -7    2.34    3.81
   5  -8  -6    1.68    6.77
   8  -5  -6    4.58    4.07
  -8   5  -6    3.92    7.06
   8  -3  -6    2.42    3.36
  -8   5  -6    9.07    5.50
  -8   3  -6    4.49    6.73
  -8   3  -6    4.07    9.43
  -8   5  -5    3.28    6.65
   8  -5  -5    6.29    3.45
   5  -8  -5   -7.61    7.24
   3  -8  -5  -13.19    8.49
   8  -3  -5    2.44    2.82
  -8   3  -5    3.83    8.85
  -8   3  -5    6.10    6.11
  -5  -3  -5    0.37   10.51
   5   3  -4   -3.02    5.07
  -3   8  -4    3.35    3.72
  -8   3  -4   -5.18    4.91
  -8   5  -4    5.06    6.41
   3   5  -4   -5.27    4.74
  -3  -5  -4  -17.31   11.00
   8  -5  -4   10.27    3.99
   8  -3  -4    1.46    2.32
   5  -8  -4   19.97    7.56
   3  -8  -4   18.95    7.90
  -8   3  -4    1.14    7.89
  -5   8  -3    1.28    3.58
  -5  -3  -3   16.71    9.12
  -8   3  -3   11.98    3.77
   3  -8  -3    3.05    7.96
   5  -8  -3    8.25    8.24
   8  -5  -3    2.68    5.22
   8  -3  -3    2.08    1.99
   8  -3  -3    1.72    5.39
  -8   5  -3    7.46    3.33
  -3   8  -2    0.87    5.74
  -5  -3  -2    4.83    9.57
  -8   5  -2    0.62    4.84
   3   5  -2    5.63    6.68
  -5   8  -2    1.52    5.33
  -8   3  -2    4.68    5.55
  -8   5  -2    3.83    2.25
  -8   3  -2   -1.32    5.90
  -3  -5  -2   -1.40    9.30
   5   3  -2   12.96    7.54
  -8   5  -1    2.42    4.83
   5   3  -1  -13.70    9.65
   5  -8  -1    0.42    6.01
   3  -8  -1   -6.27    8.45
  -8   3  -1   -2.96    4.76
  -5   8  -1   -2.65    9.23
  -3   8  -1   -0.15    8.87
  -8   3  -1   -1.14    5.14
  -5   8   0    0.78   12.80
  -3   8   0    4.01   12.12
  -8   5   0    0.59    5.12
   5  -8   0    1.82    7.02
  -8   3   0   -0.64    4.34
   5   3   0    5.88    8.79
  -8   3   0    2.66    4.64
   3   5   0   10.56    9.14
   5  -8   1    1.76    7.95
   5   3   1   -2.19    7.49
  -8   5   1   -4.63    5.21
  -5   8   1   28.18   10.04
   3   5   1   19.76    8.89
  -3   8   1   -1.35   10.88
  -8   3   1    3.91    4.13
  -8   3   1   -0.05    4.35
  -8   3   2    1.41    3.87
   3   5   2    2.82    8.34
   5  -8   2    0.75    8.22
  -8   3   2    0.56    3.70
   5   3   2    0.97    7.86
   5  -8   3   10.88    8.91
  -8   3   3    4.17    4.02
   5   3   3   -2.19    6.66
  -5   8   3    8.68    5.88
   3   5   3    1.89    8.09
  -3   8   3   -2.23    8.86
   3  -8   4    5.55   12.43
   5   3   4    2.33    6.51
  -5   8   4   13.73    5.74
   3   5   4   -2.48    7.46
  -3   8   4   19.09    7.14
   3   5   5    4.31    7.20
   3  -8   5   13.91   11.49
  -3   8   5   17.25    7.08
   5  -8   5    6.67   11.99
  -3  -5   6   -4.94   10.95
   5  -8   6    0.17   11.35
   3  -8   6  -21.80   13.73
  -5  -3   7   26.62    9.99
  -3  -5   7   21.88   11.86
   5  -8   7    3.32   11.53
   3  -8   7    0.20   13.71
   5  -8   8    5.58   11.49
   3  -8   8    0.59   13.12
  -8   6  -7    8.51    8.83
   8  -6  -7   13.15    4.14
  -8   2  -7    6.80   12.12
   6  -8  -6   -8.83    6.54
  -8   2  -6   -0.54    6.96
  -8   6  -6    5.25    8.09
   8  -6  -6   11.97    4.42
  -8   2  -6   -2.49   11.59
  -8   2  -5    3.63    5.39
  -8   6  -5    2.60    7.29
   6  -8  -5    5.05    5.00
   6  -8  -5   -7.88    7.14
   8  -6  -5    5.65    4.61
   2   6  -5   -2.56    4.64
  -8   2  -5    6.93   10.63
  -6  -2  -5    6.38    9.28
  -8   6  -4   -4.78    6.86
   6  -8  -4   -1.78    4.91
  -8   2  -4   16.78    5.13
  -2  -6  -4    7.17   10.39
  -2   8  -4    2.81    4.03
   6  -8  -4   25.27    7.61
   2  -8  -4   32.99    8.28
   6   2  -3    3.21    6.39
  -2  -6  -3   19.55    9.58
  -6   8  -3    1.94    3.39
   6  -8  -3    0.72    5.16
   8  -6  -3    2.81    5.71
   2  -8  -3   10.06    8.39
  -8   2  -3    5.82    7.32
   6  -8  -3    1.34    8.26
  -8   2  -3    1.42    4.45
   8  -2  -3   21.74    7.82
  -6  -2  -3    7.14    8.58
   8  -2  -2   12.37    3.32
  -6   8  -2   -1.40    5.33
   6  -8  -2    3.48    5.56
  -8   6  -2   -5.60    6.14
  -2  -6  -2    3.05    9.09
   8  -6  -2    0.07    6.03
  -8   2  -2   -0.08    6.06
  -6  -2  -2    6.16    9.39
   6   2  -2   18.60    8.39
  -8   2  -2   16.90    4.89
  -2   8  -2   -0.65    6.52
   6  -8  -2   -8.56    9.42
  -8   2  -2    6.92    6.95
   6   2  -1    0.78    9.53
   2  -8  -1   -9.61    8.68
   6  -8  -1    6.47    6.34
  -8   6  -1    9.63    2.04
  -8   6  -1   -0.75    5.67
  -6   8  -1   -0.71    9.63
   8  -6  -1    0.08    6.11
  -8   2  -1    0.81    5.31
  -2   8  -1    6.57    8.64
  -8   2  -1    6.73    5.80
  -2  -6  -1   -5.39    9.91
  -2   8   0   32.33   11.58
   6  -8   0    4.05    6.57
  -8   6   0   -1.82    5.39
   6   2   0   26.62    8.97
   8  -6   0    1.84    6.79
  -8   2   0    4.44    4.78
  -8   2   0    3.35    5.09
  -6   8   0    3.84    9.64
   6   2   1    2.29    7.60
   6  -8   1    2.90    7.36
  -6   8   1    6.33    6.47
   8  -6   1   14.21    6.97
  -8   2   1    1.45    4.07
  -2   8   1   -1.84   10.56
  -8   2   1    0.32    4.35
   6  -8   2    8.45    7.69
   8  -6   2    0.10    6.93
  -8   2   2   -1.74    3.58
   6   2   2   -0.40    6.86
  -8   2   2    1.07    4.00
  -6   8   2    5.83    5.79
   6  -8   3    4.47    9.38
  -2   8   3  -11.07    9.93
   8  -6   3    0.62    7.22
   6   2   3    6.81    5.84
  -8   2   3    1.32    3.67
  -6   8   3   15.83    4.87
   6  -8   3    0.15   10.02
  -8   2   3    0.73    4.12
  -8   2   4    8.98    4.14
   2  -8   4   -4.27   12.63
   8  -6   4    4.22    7.49
  -2   8   4   13.09    7.60
  -2   8   5   29.46    7.35
   2  -8   5    6.00   12.00
  -2  -6   6   -9.38   12.21
   6  -8   6    7.53   11.16
  -2  -6   7   29.32   12.72
   6  -8   7    3.56   11.30
   2  -8   7  -16.46   14.53
   2  -8   8    0.21   14.58
  -2  -6   8    0.19   13.73
   8  -7  -7    8.10    4.82
   7  -8  -6   -4.43    6.44
  -8   7  -6   -0.81    7.80
  -8   1  -6   24.75    7.52
   8  -7  -6    1.27    4.94
  -8   1  -6   -3.37   15.66
   7  -8  -5    9.17    5.78
  -1   8  -5   -5.76    4.39
  -8   7  -5   -2.55    7.45
   8  -7  -5    0.40    5.94
   7   1  -5   -7.04    5.75
  -8   1  -5    9.98    6.43
  -8   1  -5   25.65   14.31
  -7  -1  -5   11.54    8.40
   7  -8  -4    7.65    5.37
  -7  -1  -4  -14.49    8.61
  -8   7  -4   -1.93    6.97
   8  -7  -4    7.45    7.25
   8  -7  -4   30.37    7.60
  -8   1  -4    7.17    5.80
   7  -8  -4   19.54    8.04
   7  -8  -3    1.99    5.26
   7   1  -3   14.17    8.10
  -1  -7  -3   14.64    9.61
  -8   1  -3    8.43    9.06
   8  -7  -3    0.17    7.10
  -7  -1  -3   22.45    7.70
   8  -1  -3   23.68    8.92
  -7   8  -3   -0.79    3.19
   8  -7  -3    4.65    6.94
   7  -8  -2    2.51    5.49
   7   1  -2  -17.98   11.03
  -1   8  -2    6.35    6.94
  -8   1  -2    2.42    5.82
  -8   1  -2    1.17    7.43
  -8   7  -2    2.55    3.74
   8  -7  -2    0.09    7.13
   8  -1  -2    9.58    7.40
  -7   8  -2    5.10    5.51
   8  -7  -2    2.77    6.87
  -7  -1  -2   -5.42    7.84
   7  -8  -1    3.39    5.77
  -8   1  -1    1.39    6.02
  -1   8  -1    7.19    8.90
   8  -7  -1   -0.09    7.00
  -1  -7  -1   -6.46    9.73
   7   1  -1   10.93    9.18
  -8   7  -1   -0.44    4.29
   8  -7  -1    1.81    6.78
  -7  -1  -1  -14.38    9.45
   8  -1  -1   -1.54    4.24
   7  -8   0   10.60    6.81
  -1   8   0   21.38   10.76
   7   1   0   -4.42    7.44
  -8   1   0    2.22    5.07
   8  -1   0    1.64    2.75
  -7   8   0   11.06    6.30
   8  -7   0    0.10    7.26
   7  -8   0    0.21    7.49
  -8   7   0    1.53    2.48
   8  -7   0    8.92    7.26
   7  -8   1    5.43    7.82
  -7   8   1   -2.27    5.00
   8  -7   1   -0.11    7.59
   1   7   1   11.94    9.85
  -1   8   1    9.71   10.78
   7  -8   1   -4.54    8.22
   8  -7   1    6.85    7.19
   7   1   1    0.50    6.33
  -8   1   1    3.66    4.31
   1   7   2    4.47    8.72
  -1   8   2   -4.23    9.39
  -8   1   2    1.88    3.76
   8  -7   2    0.46    7.96
   7   1   2    3.86    5.28
   7  -8   2   -1.53    9.10
  -7   8   2    9.17    3.86
   8  -7   2    0.90    7.10
   7  -8   2    3.71    8.59
   1   7   3    8.47    9.65
  -8   1   3    0.63    3.37
   8  -7   3    3.06    8.43
   7  -8   3   -0.45   10.20
   7  -8   3    6.00    9.16
   8  -7   4    3.25    8.51
  -8   1   4    1.18    3.22
   7  -8   4    0.30   10.03
   1   7   4    3.50    8.81
  -8   1   4    3.71    3.87
  -1   8   4    7.66    8.57
  -8   1   5    4.89    3.42
   1  -8   5    1.38   13.94
   8  -7   5    6.44    8.80
   1   7   5  -10.36    8.08
  -1   8   5   26.62    7.90
  -7  -1   6    2.93    6.34
  -1  -7   6   -3.98   13.65
  -7  -1   6   -0.01    2.17
   7  -8   6   10.41   10.79
   7  -8   7    6.80   10.68
   1  -8   7   -7.62   14.38
   1  -8   8    0.23   14.98
  -1  -7   8   -0.21   14.77
   8  -8  -6   -8.17    6.40
   0   8  -6   -5.76    4.80
   0   8  -5   -4.26    4.84
   8  -8  -5   21.97    7.00
   8  -8  -5    2.93    8.19
   8   0  -5   -5.18    6.15
  -8   0  -5    4.84    7.41
   8   0  -4    1.81    7.37
   8  -8  -4    3.28    8.74
   8  -8  -4    2.38    7.27
   8  -8  -4    1.64    7.67
   0   8  -3    4.88    5.72
   8   0  -3   22.32    9.99
   8  -8  -3   -7.93    9.40
   8  -8  -3   -0.09    7.08
  -8   0  -3   17.95    6.49
   8  -8  -3    1.56    6.94
   0   8  -2    8.27    7.32
  -8   0  -2   11.24    9.05
   8  -8  -2    0.10    7.54
   8   0  -2    6.61    9.54
   8  -8  -2    5.09    6.93
  -8   8  -2   10.59    4.87
   0  -8  -1   -5.87    9.60
   8   0  -1    5.68    6.42
  -8   0  -1    1.34    7.00
   0   8  -1  -10.94    9.65
   8  -8  -1    0.10    7.68
  -8   8  -1   -1.40    5.40
   8  -8  -1   -0.71    7.10
   0   8   0    6.56   10.32
  -8   8   0   -4.19    3.89
   8  -8   0    0.11    8.14
   8   0   0    7.24    5.46
   8  -8   0    8.31    7.38
   8   0   1    1.58    4.19
   0   8   1    9.41   10.74
   8  -8   1    0.12    8.21
  -8   8   1    6.78    2.93
   8  -8   1    4.43    7.71
   0   8   2    3.18    9.27
  -8   0   2    0.96    3.91
   8  -8   2    2.31    8.93
   8  -8   2   -2.17    8.20
   0   8   3    8.17   10.69
  -8   0   3    2.04    3.41
   8  -8   3    0.14    9.66
  -8   0   4    0.64    3.06
   8  -8   4    8.91   10.02
   0   8   4    0.55    9.35
  -8   0   5    0.03    2.96
   8  -8   5   14.13   10.31
   0   8   5    0.49    8.15
  -8   0   5    7.60    4.13
   0  -8   8   -0.24   15.09
  -9   4  -6    6.41    9.06
  -9   5  -6    6.91    8.27
   9  -5  -6    2.94    3.59
   5   4  -6   -7.36    5.72
   9  -4  -6    4.14    3.41
   4   5  -6   -1.22    5.33
  -9   4  -5    2.76    5.40
  -9   4  -5   14.09    8.88
  -9   5  -5    3.62    7.38
   9  -5  -5   12.00    3.62
  -4   9  -5   -0.25    3.84
   5  -9  -5   16.20    7.51
  -9   5  -5    2.39    4.48
   5   4  -5   -8.70    5.75
   4   5  -5   -4.20    5.43
   9  -4  -5    2.98    3.28
  -9   4  -4   -3.19    4.02
   9  -4  -4   12.66    2.94
   4  -9  -4   13.21    8.47
   5  -9  -4    4.80    8.30
  -5   9  -4    1.48    3.78
  -5  -4  -4   12.56   10.88
  -9   5  -4    5.40    4.11
  -4   9  -4    0.73    3.96
   9  -5  -4    6.26    4.51
  -9   4  -3    0.26    7.33
  -9   5  -3    2.94    6.03
  -5  -4  -3   18.97   10.59
   4  -9  -3    5.01    8.24
  -4  -5  -3   25.37   11.05
   5  -9  -3   -3.97    8.72
   5   4  -3    5.54    7.31
  -9   4  -3    5.32    3.08
   4   5  -3    5.98    6.93
  -9   4  -3   -0.08    5.79
  -9   5  -3   -0.32    3.07
  -9   4  -2    1.13    6.28
  -9   5  -2    4.29    5.57
  -4   9  -2   10.70    7.17
   5  -9  -2    0.44    9.04
  -5   9  -2    1.58    6.47
   5   4  -2    6.03    8.20
  -9   4  -2    0.43    5.28
   4   5  -2   15.90    7.62
  -9   4  -1    2.74    5.66
   5   4  -1   -9.88   10.19
  -9   5  -1    8.53    5.44
   4   5  -1   -8.44    9.78
  -5   9  -1  -12.38   10.47
  -4   9  -1   -1.65    9.20
  -4  -5  -1   -3.07   11.95
  -9   4  -1   -1.64    4.82
  -5  -4  -1  -18.63   12.38
  -4   9   0   13.08   12.15
  -9   4   0    1.83    4.88
  -9   5   0    4.59    5.30
   5  -9   0   -3.57    7.87
   5   4   0   15.34    9.60
  -9   4   0   -1.34    4.44
   4   5   0   13.54    9.57
  -5   9   0    6.22   11.92
  -9   4   1    2.07    4.61
  -9   5   1   -0.59    5.60
   5   4   1    8.09    8.70
   5  -9   1   -7.29    9.44
   4   5   1   27.32    9.58
  -5   9   1   14.74   11.06
  -4   9   1    5.90   11.87
   5   4   2    2.77    9.59
   4   5   2   -3.84    9.53
  -9   4   2    2.95    4.94
   5  -9   2    9.14   10.92
  -9   5   2   -2.98    5.85
   4  -9   2   -5.49   11.19
   5  -9   3   -0.32   10.59
  -9   4   3    0.69    5.54
   5   4   3   -3.15    7.96
  -5   9   3    5.22    8.05
   4   5   3    6.19    9.11
  -4   9   3    3.46    9.50
   5   4   4   -1.86    7.66
  -5   9   4   19.20    7.04
   4   5   4    0.75    8.32
  -4   9   4   19.95    8.18
   4   5   5    0.56    8.12
  -4   9   5   19.35    7.62
   5  -9   5  -10.07   14.66
   5  -9   6    2.09   15.06
   4  -9   6   -8.40   15.46
   5  -9   7    3.40   13.97
   4  -9   7   -0.24   15.43
   6   3  -6   -5.71    5.94
  -9   6  -6    4.58    8.76
   9  -6  -6    9.37    4.17
   9  -3  -6    3.75    3.11
   3   6  -6   -6.89    5.41
  -9   3  -6    7.33   11.86
  -3   9  -5   -1.38    4.10
  -9   6  -5    2.59    8.04
  -9   3  -5   15.89    4.76
   6  -9  -5   -0.38    4.75
  -9   6  -5    3.71    4.46
   9  -3  -5    4.28    2.67
   6  -9  -5   21.97    7.51
   9  -6  -5   -5.45    4.98
  -9   3  -5   11.52   10.90
   9  -3  -4   -3.45    6.33
   6  -9  -4   -0.89    4.94
   6  -9  -4   15.60    8.65
  -6   9  -4   -1.75    3.47
  -9   3  -4    7.45    4.21
  -6  -3  -4    2.71   10.10
  -9   6  -4    4.81    3.81
   9  -6  -4   11.42    6.52
   9  -3  -4    1.08    2.17
  -6  -3  -3   18.45    9.92
   6   3  -3   14.72    8.13
  -9   6  -3    3.79    7.01
   6  -9  -3   -3.24    5.36
   3  -9  -3    5.18    8.10
  -3   9  -3    1.04    5.18
  -3  -6  -3   10.18   10.87
  -9   6  -3    6.28    2.89
  -9   3  -3   -1.65    6.58
   3   6  -3    4.98    6.69
  -9   3  -3   -5.96    8.01
  -9   6  -2    0.17    2.07
  -3   9  -2    2.38    7.19
  -6   9  -2    5.54    6.40
  -9   6  -2   -0.70    6.32
   6  -9  -2    2.23    6.01
  -9   3  -2    3.03    5.66
   3   6  -2   23.10    7.63
  -9   6  -2   -0.96    1.63
  -9   3  -2    5.34    6.80
  -3  -6  -1   -6.35   11.14
  -6  -3  -1   -4.52   11.67
  -9   6  -1   -0.07    5.97
   6  -9  -1    1.62    6.94
   3   6  -1  -12.24    9.75
  -6   9  -1  -15.14   10.07
  -3   9  -1    9.88    9.56
  -9   3  -1    1.53    5.38
  -9   3  -1    0.68    5.94
   6   3  -1    0.43   10.19
  -3   9   0   13.85   11.61
   6  -9   0    4.21    8.05
  -9   6   0   -1.22    6.07
   6   3   0   21.64    9.92
  -9   3   0   -2.20    4.82
  -6   9   0    7.15   10.35
   3   6   0    4.32    9.30
  -9   3   0    0.40    5.25
   6   3   1   -0.19    9.53
   6  -9   1   -1.21    8.17
  -6   9   1   23.83    7.76
   3   6   1   10.67    9.74
  -3   9   1  -11.49   11.83
  -9   3   1   -0.11    4.39
  -9   3   1   -1.07    4.99
  -6   9   2    0.67    7.74
   6  -9   2   12.33    9.42
   3   6   2   -4.48    9.50
  -3   9   2  -17.34   11.31
  -9   3   2    0.68    4.03
   6   3   2    4.87    8.65
  -9   3   2   -2.94    4.82
  -3   9   3   -6.29   10.71
  -9   3   3    6.56    4.80
   6   3   3    2.41    7.73
  -6   9   3   14.48    5.97
   3   6   3    7.57    9.87
  -6   9   4   14.51    5.84
   3   6   4   -5.88    8.39
  -3   9   4   13.29    8.62
   3   6   5   -6.98    8.56
  -3   9   5   21.01    8.26
   6  -9   5    2.13   13.84
  -3  -6   6  -10.44   12.65
   6  -9   6    0.41   13.71
   3  -9   7    0.50   16.40
  -9   7  -6    3.16    8.52
   2   7  -6   -7.30    5.46
  -2   9  -6   -2.73    4.46
   7   2  -6    0.21    6.17
  -9   2  -6    0.93   14.96
  -2   9  -5   -3.43    4.60
  -7  -2  -5  -16.04   10.47
  -9   7  -5   -9.03    8.08
   9  -7  -5    3.34    6.20
   9  -2  -5   -5.84    5.99
   7  -9  -5   17.12    7.71
  -9   2  -5    9.90   13.31
   9  -2  -4   21.18    8.37
   7  -9  -4    4.28    5.27
  -7   9  -4    2.74    3.34
  -7  -2  -4   16.43    9.17
   7  -9  -4    3.12    8.21
  -9   2  -4    0.47    4.97
   7   2  -4    2.99    7.33
  -2   9  -3    3.42    5.71
   7  -9  -3    6.85    5.48
  -7  -2  -3   11.95    8.94
  -9   7  -3   -6.67    7.19
   9  -7  -3    1.07    6.86
  -9   2  -3   14.37    4.47
  -9   7  -3   -2.09    2.39
   9  -2  -3    6.23    5.98
   2   7  -3   11.53    6.74
   7   2  -3   21.86    9.14
  -9   2  -3    9.85   10.16
  -7   9  -2    8.22    6.07
  -2   9  -2    0.48    7.24
   7  -9  -2    9.86    5.61
   7   2  -2  -16.89   11.74
  -9   7  -2   -0.16    3.19
  -9   7  -2   -1.60    6.35
   9  -7  -2    0.92    7.49
  -9   2  -2    0.47    6.93
  -9   2  -2    8.23    8.07
   7  -9  -1    9.40    6.32
  -7   9  -1  -11.65    8.62
  -2   9  -1   10.07    9.97
   9  -7  -1    0.10    7.41
  -9   2  -1    0.08    5.79
  -2  -7  -1   -3.96   10.80
   7   2  -1    6.77   10.23
  -9   2  -1    2.65    6.84
  -2   9   0   11.15   11.26
   7  -9   0    2.89    6.89
   7   2   0    3.99    8.39
   9  -7   0    0.41    7.60
  -9   2   0    1.63    5.06
  -7   9   0   18.24    7.62
  -9   2   0   -0.25    5.74
   7  -9   1   13.62    8.03
  -7   9   1   -8.69    6.40
   9  -7   1    0.43    8.02
  -9   2   1    0.57    4.20
  -2   9   1  -12.46   11.77
  -9   2   1    1.01    5.22
   7   2   1    5.02    8.62
   7  -9   2    8.83    9.70
   9  -7   2    0.12    7.91
  -9   2   2    1.40    3.82
   7  -9   2   -9.82   10.65
   7   2   2   -0.95    6.87
  -7   9   2    6.85    5.36
  -9   2   2    4.07    4.48
  -2   9   3   -1.93   11.25
   9  -7   3    5.96    8.49
   7   2   3    1.02    6.83
  -7   9   3   19.03    4.71
  -9   2   3    0.08    3.99
   7  -9   3   -5.77   12.17
  -9   2   3    2.44    4.62
  -9   2   4    9.50    4.78
   9  -7   4    1.10    8.05
   7  -9   4   -9.83   12.93
  -2   9   4   13.48    9.69
  -2   9   5   24.01    8.61
   7  -9   6    5.77   12.21
   2  -9   7   -0.25   15.81
   9  -1  -6  -10.40    6.41
   8   1  -6   -9.97    6.82
   8  -9  -5    9.12    7.69
  -9   1  -5   30.88   18.43
   9  -8  -5   16.40    7.10
   8   1  -4   11.39    9.22
   9  -8  -4    6.84    8.36
  -1   9  -4    3.35    5.48
  -8  -1  -4   25.10    7.56
   8  -9  -4    1.04    6.29
  -8   9  -4   -0.53    3.11
   9  -1  -4   31.54    9.42
   8  -9  -4    8.62    6.91
   8  -9  -3    8.28    6.54
  -9   1  -3   11.15    5.25
  -8   9  -3    1.94    3.85
  -8  -1  -3    9.20    7.41
   9  -8  -3    0.10    8.00
  -1   9  -3    6.92    6.85
   8  -9  -3   -5.89    6.42
   9  -1  -3   -2.69    9.48
   8  -9  -2    5.92    6.70
   9  -1  -2    9.27    4.89
  -9   1  -2    0.22    7.85
  -9   1  -2   -5.06    4.42
   9  -8  -2    2.37    7.86
  -8   9  -2    9.87    5.39
   8  -9  -2   -0.09    6.76
   9  -8  -2    6.89    7.84
  -1   9  -2   17.66    7.95
   8   1  -2    0.75   10.95
   8  -9  -1    6.28    7.21
  -9   8  -1   11.95    2.84
  -1   9  -1   -7.20    9.96
   8   1  -1   27.86    9.41
  -9   1  -1    7.42    6.82
   9  -8  -1    0.11    8.11
   9  -1  -1    4.77    3.12
   8  -9  -1  -12.86    7.75
   9  -8  -1    6.36    7.72
  -8   9  -1    2.37    5.93
   8   1   0    1.13    8.25
  -8   9   0   18.10    4.69
  -9   1   0    2.19    5.29
   9  -8   0    0.12    8.46
   8  -9   0    0.12    8.29
   9  -8   0    6.03    7.73
  -1   9   0    3.74   10.77
   8  -9   0    1.82    8.13
  -9   1   1    1.06    4.52
   9  -8   1   -0.12    8.57
   1   8   1   13.90   10.87
  -1   9   1   -1.37   11.28
   8  -9   1    0.14    9.61
   8   1   1    5.12    6.17
   9  -8   1    9.79    8.00
  -8   9   1    0.41    4.30
   8  -9   1   -1.56    8.75
   1   8   2   10.03   10.82
  -1   9   2    4.67   10.21
  -9   1   2    3.05    4.07
   9  -8   2    0.13    9.15
   8   1   2    0.53    5.65
  -8   9   2   11.69    3.69
   8  -9   2   -9.00   10.61
   1   8   3    9.78   11.18
  -1   9   3   -4.38   11.19
   9  -8   3    0.14    9.41
  -9   1   3    1.28    3.58
   8  -9   3    1.13   10.76
  -9   1   3    6.74    4.44
   9  -8   4   -4.14    9.55
   8  -9   4    0.18   11.58
  -9   1   4   -0.04    3.63
   1   8   4    0.14   10.17
  -1   9   4  -10.30   10.07
  -9   1   4    0.76    4.53
  -9   1   5   11.02    5.07
   9  -8   5    2.06    9.35
  -8  -1   5   -0.03    2.63
   1   8   5   -6.05    9.30
  -1   9   5    2.72    8.69
   9   0  -5    7.73    8.82
   9  -9  -4    1.66    7.93
   9  -9  -4   -7.74    8.42
   0   9  -4    7.01    5.93
   0   9  -3   12.17    7.25
  -9   9  -3    2.88    3.70
   9  -9  -3    0.10    7.45
   9  -9  -3    1.33    7.83
   9   0  -3   -3.15   10.80
  -9   0  -3   -1.23    5.30
   9   0  -2   27.46    8.43
   0   9  -2   11.61    8.37
   9  -9  -2    0.10    7.51
   9  -9  -2   -1.64    7.58
   0   9  -1   -5.56   10.09
  -9   0  -1    0.59    7.05
  -9   9  -1   15.14    3.82
   9  -9  -1    0.11    7.87
   9  -9  -1    8.17    7.89
   9   0  -1    1.25    6.57
  -9   0   0    0.68    5.60
   9  -9   0    0.12    8.47
   9   0   0    2.83    4.62
   0   9   0   22.45   10.82
   9  -9   0    8.69    8.23
  -9   9   0    0.82    3.31
  -9   0   1    1.31    4.84
   0   9   1   13.22   11.26
  -9   9   1    8.90    2.67
   9  -9   1    0.14    9.23
  -9   0   2    0.68    4.02
   9  -9   2    0.15   10.20
   0   9   3   16.37   11.72
  -9   0   3    0.65    3.51
   9  -9   3    1.13   10.66
  -9   0   4    0.04    3.19
   9  -9   4    3.26   10.94
   0   9   4    0.62   10.63
   0   9   5  -14.19    9.93
  -9   0   5    7.45    4.70
  -5  10  -6   -2.38    4.06
  -5  10  -5   -2.45    3.99
 -10   5  -4    0.10    7.87
   5   5  -4    8.99    7.52
 -10   5  -3    2.36    6.93
  -5  10  -3    7.98    6.01
   5   5  -3   11.89    8.07
 -10   5  -2    8.84    6.34
  -5  10  -2    3.76    7.61
 -10   5  -1    3.67    5.76
  -5  10  -1   -0.81   10.12
   5   5  -1    4.02   10.42
 -10   5   0    3.75    5.49
   5 -10   0   -5.64    8.76
   5   5   0   17.80   10.37
  -5  10   0    0.36   11.23
 -10   5   1    0.17    5.53
   5   5   1    9.01    9.66
   5   5   2    4.74   11.08
  -5  10   2  -15.52   11.83
 -10   5   2   -3.37    6.47
   5   5   3   -0.65   10.09
  -5  10   3    4.57    9.76
   5   5   4   -2.88    9.23
  -5  10   4   15.63    8.26
  -5  10   5   19.77    7.85
   5 -10   5  -11.95   17.91
  -6  10  -5   -1.25    3.75
  10  -4  -5    5.40    5.11
 -10   4  -4    0.80    9.43
 -10   6  -4   10.79    7.92
   6 -10  -4   -5.61    5.10
   6 -10  -4    1.67    8.47
   6   4  -4    6.92    7.89
   4   6  -4    3.68    7.13
   4   6  -3   12.70    7.72
  -6  -4  -3    6.84   10.12
 -10   6  -3    4.23    7.00
   6 -10  -3   -2.87    5.57
  -4  10  -3    4.77    6.14
   6 -10  -3   -6.36    9.42
  -6  10  -3    2.40    5.48
   6   4  -3   18.59    8.84
 -10   4  -3   -6.68    8.37
 -10   6  -2    1.67    6.50
   6   4  -2  -11.16   11.04
   6 -10  -2    0.17    6.22
  -6  10  -2    2.91    7.03
  -4  10  -2    2.88    7.69
   4 -10  -2   -0.46    9.31
 -10   4  -2   -0.42    7.18
 -10   4  -1    4.76    6.24
   4   6  -1  -12.56   10.03
  -6  10  -1   -7.59    9.86
 -10   6  -1   -2.40    6.69
  -4  10  -1   10.76   10.15
   6 -10  -1    1.11    7.30
 -10   4  -1   -0.07    4.92
   6   4  -1   12.42   10.69
 -10   4   0    6.49    5.39
   6 -10   0    0.83    8.46
 -10   6   0    1.48    6.51
   6   4   0   24.61   11.15
   4   6   0    8.57   10.02
 -10   4   0    0.24    4.82
  -6  10   0    4.42   10.27
  -4  10   0    1.14   11.19
 -10   4   1    1.25    5.26
   6   4   1    2.71   10.20
  -6  10   1   27.28    9.04
 -10   6   1   -1.90    6.44
   4   6   1   30.03   10.46
  -4  10   1   10.30   12.04
  -6  10   2   -5.16    9.49
   4   6   2    1.84   10.89
 -10   4   2    0.86    5.24
   6   4   2    5.38   10.51
 -10   4   3   -2.60    6.50
   6   4   3    0.98    8.76
  -6  10   3    5.79    7.15
   4   6   3   10.53   10.75
  -4  10   3    4.15   11.32
   6   4   4    5.42    8.87
  -6  10   4   17.34    7.01
   4   6   4    5.60    9.61
  -4  10   4    9.43    9.25
   4   6   5   -3.31    9.48
  -4  10   5   16.32    8.84
   6 -10   5    6.24   16.80
   4 -10   6   -2.91   17.73
   7   3  -7   -6.89    7.04
  -7  10  -5    1.14    3.56
   7   3  -5    2.83    7.37
   7 -10  -5    1.17    8.25
  10  -3  -5   20.74    6.85
   7   3  -4   17.26    8.92
   7 -10  -4    0.60    5.56
 -10   7  -4    2.15    8.53
  -3  10  -4    2.52    5.30
   3   7  -4    3.44    7.02
 -10   3  -4    5.93   11.05
   3   7  -3   21.87    7.63
   7 -10  -3    2.76    6.01
  -7  -3  -3   -1.35    8.80
 -10   7  -3   -2.63    7.83
  -3  10  -3    2.31    6.53
   7   3  -3  -12.25   10.60
  -7  10  -3    2.53    5.20
   7 -10  -3   -5.38   10.28
 -10   3  -3   -4.16    9.34
   7   3  -2   -2.21   11.97
   7 -10  -2    4.23    5.87
 -10   7  -2   -9.63    7.31
  -7  10  -2    8.64    6.54
  -3  10  -2   15.87    8.14
 -10   3  -2   -2.08    7.81
  -7  10  -1   -1.18    8.40
   7 -10  -1    5.12    6.80
  -3  10  -1   14.45   10.29
 -10   7  -1    0.55    6.85
 -10   3  -1    0.08    5.73
   7   3  -1   18.57   11.32
 -10   3  -1    0.75    6.60
   7 -10   0    1.67    7.56
   7   3   0   15.79   10.03
  -7  10   0   14.89    8.23
 -10   3   0    1.23    4.91
   3   7   0   11.17   10.12
  -3  10   0   16.97   11.19
 -10   3   0    3.60    5.83
   7   3   1    8.71   11.06
  -7  10   1  -10.68    7.95
 -10   3   1   -0.34    4.63
 -10   3   1    0.50    5.45
   3   7   2   10.60   10.72
 -10   3   2    0.05    4.23
   7   3   2    2.38    8.81
  -7  10   2   -1.65    6.75
 -10   3   2    2.17    5.20
  -3  10   3   -3.79   12.20
 -10   3   3    9.31    5.22
   7   3   3    2.79    8.38
  -7  10   3   16.15    5.75
   7 -10   3   -8.98   13.60
   3   7   3    0.13   10.89
 -10   3   4   -6.84    6.72
   7 -10   4  -10.73   15.29
   3   7   4    6.53    9.80
  -3  10   4   15.68    9.85
   3   7   5   -5.52    9.70
  -3  10   5   23.32    9.46
   8 -10  -5    1.72    7.63
   8   2  -5   11.42    8.95
  -8  10  -5   -0.34    3.31
  -2  10  -4    5.10    5.72
  -8  -2  -4   22.69    8.52
  10  -2  -4    0.23    6.37
   2   8  -4   12.68    7.19
   8   2  -4   31.16   10.02
 -10   2  -4   15.29   14.59
   8 -10  -3    7.92    5.88
  -2  10  -3    7.57    7.09
  -8  10  -3    6.92    4.67
  10  -8  -3    2.95    7.74
 -10   2  -3   13.63   11.90
   2   8  -3   18.91    7.67
   8 -10  -2    9.72    6.32
  -8  -2  -2   -6.75    7.79
  10  -8  -2    0.63    8.09
   2   8  -2  -15.09    9.60
  -2  10  -2    4.86    8.37
   8   2  -2    5.64   11.91
 -10   2  -2    5.86    9.53
   8 -10  -1   11.70    6.66
  -2  10  -1    3.73   10.26
   8   2  -1   18.81   10.87
  10  -8  -1    0.11    8.30
 -10   2  -1    6.63    7.62
  -8  10  -1    9.25    6.33
   8   2   0   -1.13   10.23
  -8  10   0   24.52    6.01
  10  -8   0    0.12    8.45
 -10   2   0    1.34    5.16
   8 -10   0  -11.12    8.59
 -10   2   0    9.21    6.55
  -2  10   0    2.70   11.13
  -8  10   1   -3.52    5.87
  10  -8   1    0.12    8.77
  -2  10   1   -2.76   11.99
 -10   2   1    0.85    4.44
   8 -10   1   -8.30    9.81
 -10   2   1    3.82    5.81
   8   2   1    5.59    9.04
  -2  10   2    2.81   11.88
  10  -8   2    0.78    9.05
 -10   2   2   -0.05    3.88
   8   2   2   11.07    7.77
   8 -10   2    0.18   11.88
  -8  10   2    6.95    4.40
 -10   2   2    7.48    5.17
  -2  10   3  -17.01   12.43
  10  -8   3    1.34    8.85
 -10   2   3    0.05    3.99
   8 -10   3  -11.96   13.19
 -10   2   3   -3.52    5.19
 -10   2   4    9.77    5.37
  10  -8   4    8.39    9.05
   8 -10   4    0.21   12.88
  -2  10   4    2.24   10.80
  -2  10   5    9.60    9.72
   9   1  -6    6.14    8.08
   9   1  -5   29.29    9.77
  -1  10  -4    8.70    7.01
 -10   1  -4   24.90   18.52
  10  -1  -4   -9.08    8.57
  10  -1  -3   20.84    5.21
  10  -9  -3    0.11    8.49
   9 -10  -3    1.09    6.96
 -10   1  -3   24.37   13.65
  -9  10  -3    7.16    4.19
   9   1  -3    6.71   11.64
  -1  10  -3   24.38    7.61
   9 -10  -3    4.40    7.64
  -9  10  -2   -7.74    5.13
  10  -9  -2    1.28    8.53
   9 -10  -2    0.11    7.50
  10  -1  -2    5.11    3.46
   9 -10  -2    4.11    7.59
   9   1  -1    1.71    9.14
  -1  10  -1    6.18   10.41
  -9  10  -1   13.15    4.45
  10  -9  -1    0.24    8.78
   9 -10  -1    0.12    8.14
   9 -10  -1    4.74    8.08
  -9  10   0   -7.30    4.42
 -10   1   0    0.07    5.43
  10  -9   0    0.13    9.21
   9 -10   0    0.13    9.07
  -1  10   0   17.61   11.27
   9   1   0    8.31    7.45
   1   9   1   22.39   11.58
  -1  10   1    5.88   11.96
  10  -9   1    0.14    9.37
 -10   1   1    0.06    4.48
   9   1   1    6.21    6.22
   9 -10   1    0.60   10.37
  -9  10   1    6.16    3.44
   1   9   2   27.90   11.52
  -1  10   2   40.89   12.07
  10  -9   2    0.73    9.69
 -10   1   2   -0.15    4.05
   9 -10   2    0.16   10.47
 -10   1   2    2.78    5.14
   1   9   3   14.16   12.32
  -1  10   3    9.53   12.24
  -9  -1   3   -0.04    3.44
  10  -9   3    0.15   10.06
 -10   1   3   -0.04    3.35
   9 -10   3    0.93   11.98
 -10   1   3    9.49    5.21
  10  -9   4    7.30   10.81
 -10   1   4    7.59    5.23
  10   0  -3   36.82    8.03
  10 -10  -3    0.11    7.81
  10   0  -2    1.52    6.47
   0  10  -2  -12.77    9.80
  10 -10  -2    0.11    8.00
  10 -10  -2   10.22    8.92
   0  10  -1   10.07   10.26
  10 -10  -1   -0.12    8.49
  10   0  -1    4.00    4.51
  10 -10   0    0.13    8.86
   0  10   0   17.73   11.23
   0  10   1   16.44   11.93
  10 -10   1    1.74    9.84
 -10   0   2   -0.05    3.89
  10 -10   2    1.45   10.28
 -10   0   3    0.04    3.15
  10 -10   3    1.42   10.94
 -10   0   4   12.54    4.94
   6   5  -5   10.93    8.57
   5   6  -5    8.82    8.05
   5   6  -4   17.81    8.33
 -11   5  -4    3.11    8.92
 -11   6  -4    9.15    8.63
  -5  11  -4    0.81    5.65
  -6  11  -4    4.97    4.90
   6   5  -4   27.88    8.91
  -6  11  -3    1.45    6.17
  -5  11  -3    8.66    6.58
 -11   5  -3    9.60    8.00
 -11   6  -3    3.98    7.86
   5   6  -3   -4.59    9.41
   6   5  -2   -4.06   11.17
 -11   5  -2    5.02    6.90
   5   6  -2  -12.37   10.91
 -11   6  -2    3.55    6.97
  -6  11  -2   -3.79    7.84
  -5  11  -2    4.09    8.10
  -6  11  -1    1.98    9.31
  -5  11  -1   -5.59   10.06
 -11   5  -1    7.43    6.25
 -11   6  -1    2.37    6.48
   6   5  -1    2.93   11.03
   5   6  -1    5.64   10.53
 -11   5   0    3.90    6.04
 -11   6   0    3.17    6.84
   6   5   0   25.50   11.55
   5   6   0   18.12   10.91
  -6  11   0   18.57   10.18
  -5  11   0    9.23   11.29
   6   5   1   -1.72   11.27
 -11   5   1    3.13    6.06
   5   6   1    0.99   10.40
  -6  11   1    6.89    9.30
 -11   6   1   -5.03    7.04
  -5  11   1   12.29   11.74
   5   6   2   17.72   12.43
  -6  11   2   -6.45   10.93
  -5  11   2  -14.25   12.58
 -11   5   2   -0.20    7.13
   6   5   2   12.97   12.05
   6   5   3    8.36   10.30
  -6  11   3   14.38    9.26
   5   6   3   10.61   11.62
  -5  11   3   11.73   11.14
   6   5   4   -0.72   10.09
  -6  11   4   12.14    7.84
   5   6   4   -4.98   10.41
  -5  11   4   12.37    9.30
  -5  11   5   25.61    9.19
   7   4  -6    7.56    7.93
   7   4  -5    5.33    9.04
   4   7  -4   28.93    8.29
  -4  11  -4   10.91    6.23
   7   4  -4   26.76    9.67
  -7  11  -4    5.76    4.95
 -11   4  -3    2.61    9.43
 -11   7  -3   -1.32    8.57
   7   4  -3  -14.53   11.79
   4   7  -3   19.81    8.96
  -7  11  -3    2.86    5.68
  -4  11  -3   13.06    7.05
 -11   4  -2    2.29    8.05
   4   7  -2  -14.47   10.34
 -11   7  -2    3.88    7.89
  -7  11  -2   -5.74    7.41
  -4  11  -2   15.71    8.47
   7   4  -2    5.30   11.81
 -11   4  -1    3.42    6.99
  -4  11  -1   17.94   10.53
 -11   7  -1   -1.18    7.40
   7   4  -1   26.48   12.19
   4   7  -1    5.49   10.29
  -7  11  -1    0.81    8.09
 -11   4   0    6.20    5.88
   7   4   0   14.73   11.05
 -11   7   0   -5.68    7.24
  -7  11   0    9.14    8.33
   4   7   0   24.23   10.88
 -11   4   0   -0.13    4.70
  -4  11   0    8.15   11.32
 -11   4   1    4.35    5.73
   7   4   1    0.47   12.61
  -7  11   1   -5.01    8.62
   4   7   1   31.94   10.38
  -4  11   1   -0.20   12.21
   4   7   2   13.64   11.85
 -11   4   2    0.33    5.76
  -4  11   2  -18.10   12.82
   7   4   2    6.30   11.32
  -7  11   2    6.49    7.99
 -11   4   3    2.73    6.90
   7   4   3    5.01    9.93
   7 -11   3   -6.32   15.25
  -7  11   3   12.99    6.51
   4   7   3    8.93   11.61
  -4  11   3   -8.89   12.53
   7   4   4    7.27    9.87
  -7  11   4   18.68    6.55
   4   7   4   -1.85   10.40
  -4  11   4   15.15   10.34
   8   3  -6   12.94    9.32
   8   3  -5   30.63    9.83
   8 -11  -4    4.78    9.23
   8   3  -4  -14.44   11.39
  -8  11  -4    4.10    4.59
   8   3  -3  -16.50   12.78
 -11   8  -3   -3.14    8.20
   3   8  -3    9.44    8.59
  -8  11  -3   13.36    5.26
  -3  11  -3   10.61    7.25
 -11   3  -3    7.50   10.65
  -8  11  -2   -4.00    6.42
   3   8  -2  -12.51    9.98
  -3  11  -2    4.02    9.00
   8   3  -2   13.51   11.97
 -11   3  -2    7.94    8.80
  -3  11  -1   21.94   10.75
   8   3  -1   31.47   12.20
  -8  11  -1    5.15    6.49
 -11   3  -1    7.24    7.62
   3   8  -1   11.10   10.24
   8   3   0   -6.97   12.06
  -8  11   0   21.90    6.60
   3   8   0   25.78   10.68
  -3  11   0   28.73   11.86
 -11   3   0   -0.94    6.51
  -8  11   1   -4.47    6.48
   3   8   1   29.39   11.27
  -3  11   1   -7.38   12.66
 -11   3   1   -0.06    4.48
   8 -11   1    0.15    9.99
   8   3   1    3.94   10.91
 -11   3   1    3.75    6.03
 -11   3   2   11.84    5.89
   3   8   2   16.08   12.32
 -11   3   2    0.05    3.86
   8 -11   2  -11.89   12.58
   8   3   2   10.05    9.62
  -8  11   2    6.12    5.72
 -11   3   3    5.11    5.58
   8   3   3    1.14    8.96
  -8  11   3   15.36    5.23
   8 -11   3    0.23   14.49
   3   8   3   10.58   12.13
  -3  11   3    8.92   12.90
   9   2  -5   33.15   10.50
   9 -11  -3    0.09    6.15
   9   2  -3    5.16   11.86
 -11   2  -3   15.38   12.62
   2   9  -2  -13.65   10.06
  -2  11  -2   -4.49    9.33
  11  -9  -2    0.12    8.31
   9   2  -2   26.74   11.39
   9 -11  -2    0.10    6.91
 -11   2  -2   16.67   10.58
  -2  11  -1   13.40   10.43
   9   2  -1   -9.98   10.87
  11  -9  -1    0.12    8.63
   9 -11  -1    0.11    7.51
 -11   2  -1    6.05    8.53
   2   9  -1    2.39   10.20
  11  -9   0    0.13    8.80
   9 -11   0    0.68    9.10
  -2  11   0   21.81   11.72
 -11   2   0    5.71    6.93
   9   2   0    6.45    9.94
  11  -9   1    0.40    9.19
  -2  11   1    6.73   12.68
 -11   2   1    0.06    4.11
   9 -11   1    1.45   10.34
   9   2   1    3.98    8.22
 -11   2   1    4.84    5.97
  -2  11   2   26.21   12.01
  11  -9   2    5.32    9.53
   9   2   2   -0.32    7.80
 -11   2   2    0.05    3.83
   9 -11   2    0.37   12.31
 -11   2   2   -1.13    5.57
 -11   2   3    4.10    5.87
  10   1  -2   -1.24    8.63
  11 -10  -2    0.37    8.57
  10 -11  -2    0.11    7.14
 -11   1  -2    6.84   11.25
  11 -10  -1    0.13    8.81
  10 -11  -1    0.23    7.79
 -11   1  -1    2.37    8.89
  10   1  -1    8.02    7.59
  11 -10   0    0.40    9.22
  10 -11   0    0.13    8.44
  10   1   0    9.23    6.10
 -11   1   0   12.50    7.43
  11 -10   1    0.57    9.78
  10 -11   1   -0.15    9.50
 -11   1   1   -0.06    6.31
  11 -10   2    0.77   10.22
 -11   1   2    0.05    2.98
 -11   1   2    8.79    5.77
 -11   1   3    5.12    5.30
  11 -11  -2    0.12    7.46
  11 -11  -1    0.13    8.05
  11 -11   0    0.14    8.74
   6   6  -4   -7.51   10.17
   6   6  -3  -18.53   11.31
  -6  12  -3    3.41    6.86
 -12   6  -2   -1.14    7.66
  -6  12  -2    1.35    8.20
   6   6  -2    3.20   11.18
 -12   6  -1    2.03    7.08
   6   6  -1   18.29   11.28
  -6  12  -1    6.60    8.98
 -12   6   0    4.45    7.59
  -6  12   0   16.36    9.97
   6   6   1    3.89   12.94
  -6  12   1   -1.23    9.81
 -12   6   1   -4.68    7.58
  -6  12   2   -1.55   11.40
   6   6   2   12.13   12.72
   6   6   3    0.23   11.37
  -6  12   3    1.23   10.00
  -6  12   4   12.63    8.89
  -7  12  -4    7.10    5.56
   7   5  -3   -2.90   12.09
  -7  12  -3    1.29    6.35
  -5  12  -3    6.43    7.24
   5   7  -2    3.17   10.78
 -12   5  -2    7.85    7.60
  -7  12  -2    1.61    7.62
  -5  12  -2   14.11    8.80
 -12   7  -2   -1.76    8.64
   7   5  -2   14.20   11.64
 -12   5  -1    7.47    6.81
 -12   7  -1   -5.97    7.98
   7   5  -1   27.52   12.24
   5   7  -1    7.25   10.77
  -7  12  -1    3.99    7.94
  -5  12  -1    9.49    9.59
 -12   5   0    4.99    6.36
   7   5   0   -7.40   11.40
 -12   7   0   -1.07    7.58
   5   7   0   34.45   11.76
  -7  12   0   12.98    8.73
  -5  12   0   15.38   10.96
   7   5   1    1.55   13.57
  -7  12   1   -6.09    9.16
 -12   5   1    1.84    6.40
   5   7   1    2.13   11.97
  -5  12   1   13.13   10.85
   5   7   2  -15.27   13.30
  -5  12   2   -8.13   12.61
 -12   5   2    4.43    7.48
   7   5   2    6.97   12.69
  -7  12   2    9.73    8.92
   7   5   3   -0.32   11.27
  -7  12   3   15.69    7.41
  -5  12   3    8.66   11.82
   7   5   4    4.60   11.13
  -7  12   4   11.45    7.46
   8   4  -5   23.08   10.88
  -8  12  -3   -8.57    6.11
   8   4  -3    9.98   12.62
 -12   4  -2    3.49    8.58
  -8  12  -2   -1.87    6.49
 -12   8  -2   -5.54    8.44
 -12   4  -1   12.80    7.56
   8   4  -1   44.10   12.72
  -8  12  -1    9.86    6.76
   4   8  -1   18.91   10.63
  -4  12  -1   10.03   10.45
 -12   4   0   18.42    6.49
   8   4   0   -4.73   13.26
  -8  12   0   21.85    6.57
   4   8   0   19.38   10.97
  -4  12   0    3.87   11.17
  -8  12   1   -3.77    7.05
 -12   4   1    2.05    6.03
   4   8   1    3.30   10.70
  -4  12   1   -4.14   11.28
   8   4   1    6.50   12.61
  -4  12   2  -11.17   13.21
 -12   4   2    5.18    6.16
   8   4   2    0.97   10.68
   8   4   3    2.69   10.53
   9   3  -4   -7.82   12.59
   9 -12  -3    0.09    5.17
   9   3  -3   16.76   12.13
   9   3  -2   32.13   12.44
   9 -12  -2   -0.10    6.33
   9   3  -1    2.78   12.11
   9 -12  -1   -0.11    6.80
 -12   3  -1    4.44    8.16
   9 -12   0    0.13    8.60
   9   3   0   11.32   12.17
 -12   3   0    2.07    7.07
   9   3   1    9.05    9.94
 -12   3   1    1.01    6.53
 -12   3   2    9.89    5.80
   9   3   2   13.92    9.66
  10 -12  -2    0.11    6.74
  12 -10  -1    0.13    8.14
  10 -12  -1   -0.12    7.60
 -12   2  -1   15.38    8.67
  12 -10   0    0.13    8.14
  10   2   0    1.18    7.97
 -12   2   0   -0.14    7.10
  10   2   1   13.15    7.65
 -12   2   1    1.04    6.36
 -12   2   2    2.73    6.07
  12 -11  -1    0.13    8.30
 -12   1   1    8.54    6.82
   7   6  -2   15.80   12.03
  -7  13  -2    0.83    7.40
   7   6  -1   36.91   12.63
  -7  13  -1    9.53    7.99
   7   6   0   -1.86   13.04
 -13   6   0    5.23    7.94
 -13   7   0   -9.07    8.25
  -7  13   0   22.33    8.76
  -6  13   0   18.63   10.18
   7   6   1   12.21   14.48
  -7  13   1    0.49    9.45
 -13   6   1   -0.24    7.98
  -7  13   2   12.20    9.28
   8   5  -3   11.57   11.94
   8   5  -2   31.19   12.82
   8   5  -1   34.79   12.24
   8   5   0    4.76   13.99
 -13   5   0    4.76    6.79
 -13   5   1    2.82    6.85
   8   5   1   11.15   13.69
   8   5   2    6.93   11.90
   9   4  -2   59.10   13.05
   9   4  -1    3.56   12.95
 -13   4   0    9.05    6.51
   9   4   0    9.21   13.55
 -13   4   1   10.36    6.38
   9   4   1   -0.39   11.27
   9   4   2   20.16   11.28
 -13   3   1    8.18    6.61
   0   0   0    0.00    0.00
;
_shelx_hkl_checksum              90291
loop_
_space_group_symop_operation_xyz
'x, y, z'
'-y, x-y, z'
'-x+y, -x, z'
'-x, -y, z+1/2'
'y, -x+y, z+1/2'
'x-y, x, z+1/2'
'y, x, -z'
'x-y, -y, -z'
'-x, -x+y, -z'
'-y, -x, -z+1/2'
'-x+y, y, -z+1/2'
'x, x-y, -z+1/2'
'-x, -y, -z'
'y, -x+y, -z'
'x-y, x, -z'
'x, y, -z-1/2'
'-y, x-y, -z-1/2'
'-x+y, -x, -z-1/2'
'-y, -x, z'
'-x+y, y, z'
'x, x-y, z'
'y, x, z-1/2'
'x-y, -y, z-1/2'
'-x, -x+y, z-1/2'
loop_
_atom_site_label
_atom_site_type_symbol
_atom_site_fract_x
_atom_site_fract_y
_atom_site_fract_z
_atom_site_U_iso_or_equiv
_atom_site_adp_type
_atom_site_occupancy
_atom_site_site_symmetry_order
_atom_site_calc_flag
_atom_site_refinement_flags_posn
_atom_site_refinement_flags_adp
_atom_site_refinement_flags_occupancy
_atom_site_disorder_assembly
_atom_site_disorder_group
Pb1 Pb 0.0000 0.0000 0.5000 0.219(6) Uani 1 12 d S T P . .
Br1 Br 0.1367(11) 0.273(2) 0.2500 0.356(13) Uani 1 4 d S T P . .
C1 C 0.6668(11) 0.333(2) 0.2500 1.378(10) Uani 1 12 d R TU P . .
C2 C 0.5847(11) 0.415(2) 0.2500 1.378(11) Uani 1 4 d R TU P . .
C3 C 0.6176(11) 0.382(2) 0.0614 1.378(12) Uani 1 2 d R TU P . .
C6 C 0.4565(11) 0.228(2) 0.2500 1.378(12) Uani 1 4 d R TU P . .
loop_
_atom_site_aniso_label
_atom_site_aniso_U_11
_atom_site_aniso_U_22
_atom_site_aniso_U_33
_atom_site_aniso_U_23
_atom_site_aniso_U_13
_atom_site_aniso_U_12
Pb1 0.281(8) 0.281(8) 0.096(4) 0.000 0.000 0.141(4)
Br1 0.52(3) 0.263(19) 0.199(10) 0.000 0.000 0.132(10)
C1 1.378(9) 1.378(9) 1.378(13) 0.000 0.000 0.689(5)
C2 1.378(11) 1.378(11) 1.378(13) 0.000 0.000 0.689(8)
C3 1.378(11) 1.378(11) 1.378(14) 0.000(6) 0.000(6) 0.689(8)
C6 1.378(12) 1.378(13) 1.378(14) 0.000 0.000 0.689(6)
loop_
_atom_type_symbol
_atom_type_description
_atom_type_scat_dispersion_real
_atom_type_scat_dispersion_imag
_atom_type_scat_source
C C 0.0033 0.0016 'International Tables Vol C Tables 4.2.6.8 and 6.1.1.4'
H H 0.0000 0.0000 'International Tables Vol C Tables 4.2.6.8 and 6.1.1.4'
N N 0.0061 0.0033 'International Tables Vol C Tables 4.2.6.8 and 6.1.1.4'
Br Br -0.2901 2.4595 'International Tables Vol C Tables 4.2.6.8 and 6.1.1.4'
Pb Pb -3.3944 10.1111 'International Tables Vol C Tables 4.2.6.8 and 6.1.1.4'
O O 0.0106 0.0060 'International Tables Vol C Tables 4.2.6.8 and 6.1.1.4'
loop_
_geom_angle_atom_site_label_1
_geom_angle_atom_site_label_2
_geom_angle_atom_site_label_3
_geom_angle
_geom_angle_site_symmetry_1
_geom_angle_site_symmetry_3
_geom_angle_publ_flag
Br1 Pb1 Br1 180.0 14_556 2 ?
Br1 Pb1 Br1 81.5(3) 14_556 15_556 ?
Br1 Pb1 Br1 98.5(3) 2 15_556 ?
Br1 Pb1 Br1 98.5(3) 14_556 3 ?
Br1 Pb1 Br1 81.5(3) 2 3 ?
Br1 Pb1 Br1 180.0 15_556 3 ?
Br1 Pb1 Br1 81.5(3) 14_556 13_556 ?
Br1 Pb1 Br1 98.5(4) 2 13_556 ?
Br1 Pb1 Br1 81.5(3) 15_556 13_556 ?
Br1 Pb1 Br1 98.5(3) 3 13_556 ?
Br1 Pb1 Br1 98.5(4) 14_556 . ?
Br1 Pb1 Br1 81.5(3) 2 . ?
Br1 Pb1 Br1 98.5(3) 15_556 . ?
Br1 Pb1 Br1 81.5(3) 3 . ?
Br1 Pb1 Br1 180.0 13_556 . ?
Pb1 Br1 Pb1 82.2(5) 4_554 . ?
C2 C1 C2 120.1(7) 3_665 2_655 ?
C2 C1 C2 120.0(13) 3_665 . ?
C2 C1 C2 119.9(7) 2_655 . ?
C2 C1 C3 61.4 3_665 18_666 ?
C2 C1 C3 103.9(7) 2_655 18_666 ?
C2 C1 C3 103.8(10) . 18_666 ?
C2 C1 C3 61.4 3_665 3_665 ?
C2 C1 C3 103.9(7) 2_655 3_665 ?
C2 C1 C3 103.8(10) . 3_665 ?
C3 C1 C3 122.8 18_666 3_665 ?
C2 C1 C3 103.9(3) 3_665 2_655 ?
C2 C1 C3 61.4(8) 2_655 2_655 ?
C2 C1 C3 103.81(11) . 2_655 ?
C3 C1 C3 152.3(9) 18_666 2_655 ?
C3 C1 C3 49.0(4) 3_665 2_655 ?
C2 C1 C3 103.9(3) 3_665 17_656 ?
C2 C1 C3 61.4(8) 2_655 17_656 ?
C2 C1 C3 103.81(11) . 17_656 ?
C3 C1 C3 49.0(4) 18_666 17_656 ?
C3 C1 C3 152.3(9) 3_665 17_656 ?
C3 C1 C3 122.8(16) 2_655 17_656 ?
C2 C1 C3 103.9(6) 3_665 16_556 ?
C2 C1 C3 103.8(3) 2_655 16_556 ?
C2 C1 C3 61.4 . 16_556 ?
C3 C1 C3 49.0(6) 18_666 16_556 ?
C3 C1 C3 152.3(10) 3_665 16_556 ?
C3 C1 C3 152.2(8) 2_655 16_556 ?
C3 C1 C3 49.0(4) 17_656 16_556 ?
C2 C1 C3 103.9(6) 3_665 . ?
C2 C1 C3 103.8(3) 2_655 . ?
C2 C1 C3 61.4 . . ?
C3 C1 C3 152.3(10) 18_666 . ?
C3 C1 C3 49.0(6) 3_665 . ?
C3 C1 C3 49.0(4) 2_655 . ?
C3 C1 C3 152.2(8) 17_656 . ?
C3 C1 C3 122.7 16_556 . ?
C2 C1 C6 60.0(3) 3_665 2_655 ?
C2 C1 C6 60.1(4) 2_655 2_655 ?
C2 C1 C6 180.0(11) . 2_655 ?
C3 C1 C6 76.2(5) 18_666 2_655 ?
C3 C1 C6 76.2(5) 3_665 2_655 ?
C3 C1 C6 76.2(3) 2_655 2_655 ?
C3 C1 C6 76.2(3) 17_656 2_655 ?
C3 C1 C6 118.6 16_556 2_655 ?
C3 C1 C6 118.6 . 2_655 ?
C2 C1 C6 60.0(8) 3_665 3_665 ?
C2 C1 C6 179.89(14) 2_655 3_665 ?
C2 C1 C6 59.9(5) . 3_665 ?
C3 C1 C6 76.2(7) 18_666 3_665 ?
C3 C1 C6 76.2(7) 3_665 3_665 ?
C3 C1 C6 118.6(8) 2_655 3_665 ?
C3 C1 C6 118.6(8) 17_656 3_665 ?
C3 C1 C6 76.1(2) 16_556 3_665 ?
C3 C1 C6 76.1(2) . 3_665 ?
C6 C1 C6 120.0(5) 2_655 3_665 ?
C2 C1 C6 180.0(13) 3_665 . ?
C2 C1 C6 59.9(7) 2_655 . ?
C2 C1 C6 60.0 . . ?
C3 C1 C6 118.6 18_666 . ?
C3 C1 C6 118.6 3_665 . ?
C3 C1 C6 76.1(9) 2_655 . ?
C3 C1 C6 76.1(9) 17_656 . ?
C3 C1 C6 76.1 16_556 . ?
C3 C1 C6 76.1 . . ?
C6 C1 C6 120.0(11) 2_655 . ?
C6 C1 C6 119.9(5) 3_665 . ?
C1 C2 C6 72.0(11) . 3_665 ?
C1 C2 C3 69.9 . . ?
C6 C2 C3 83.9(4) 3_665 . ?
C1 C2 C3 69.9 . 16_556 ?
C6 C2 C3 83.9(4) 3_665 16_556 ?
C3 C2 C3 139.8 . 16_556 ?
C1 C2 C6 72.0 . . ?
C6 C2 C6 144.1(11) 3_665 . ?
C3 C2 C6 83.9 . . ?
C3 C2 C6 83.9 16_556 . ?
C3 C3 C3 60.0 2_655 3_665 ?
C3 C3 C2 107.3(2) 2_655 . ?
C3 C3 C2 107.3(2) 3_665 . ?
C3 C3 C1 65.5(3) 2_655 . ?
C3 C3 C1 65.5(3) 3_665 . ?
C2 C3 C1 48.8 . . ?
C2 C6 C2 95.9(11) 2_655 . ?
C2 C6 C1 48.0(11) 2_655 . ?
C2 C6 C1 48.0 . . ?
loop_
_geom_bond_atom_site_label_1
_geom_bond_atom_site_label_2
_geom_bond_distance
_geom_bond_site_symmetry_2
_geom_bond_publ_flag
Pb1 Br1 3.004(14) 14_556 ?
Pb1 Br1 3.004(14) 2 ?
Pb1 Br1 3.004(14) 15_556 ?
Pb1 Br1 3.004(14) 3 ?
Pb1 Br1 3.004(14) 13_556 ?
Pb1 Br1 3.004(14) . ?
Br1 Pb1 3.004(14) 4_554 ?
C1 C2 1.3574 3_665 ?
C1 C2 1.36(3) 2_655 ?
C1 C2 1.3591 . ?
C1 C3 1.6966 18_666 ?
C1 C3 1.6966 3_665 ?
C1 C3 1.697(13) 2_655 ?
C1 C3 1.697(13) 17_656 ?
C1 C3 1.6975 16_556 ?
C1 C3 1.6975 . ?
C1 C6 1.7384 2_655 ?
C1 C6 1.74(3) 3_665 ?
C1 C6 1.7402 . ?
C2 C6 1.583(7) 3_665 ?
C2 C3 1.5865 . ?
C2 C3 1.5865 16_556 ?
C2 C6 1.5844 . ?
C3 C3 1.408(16) 2_655 ?
C3 C3 1.408(16) 3_665 ?
C6 C2 1.583(7) 2_655 ?
