#------------------------------------------------------------------------------
#$Date: 2018-09-26 06:29:44 +0300 (Wed, 26 Sep 2018) $
#$Revision: 211175 $
#$URL: file:///home/coder/svn-repositories/cod/cif/8/00/02/8000234.cif $
#------------------------------------------------------------------------------
#
# This file is available in the Crystallography Open Database (COD),
# http://www.crystallography.net/
#
# All data on this site have been placed in the public domain by the
# contributors.
#
data_8000234
loop_
_publ_author_name
'G, Sharada'
'Mahale, Pratibha'
'Kore, Bhushan P.'
'Mukherjee, Somdutta'
'Pavan, Mysore S.'
'De, Chandan'
'Ghara, Somnath'
'Sundaresan, A.'
'Pandey, Anshu'
'Guru Row, Tayur N.'
'Sarma, D. D.'
_publ_section_title
;
 Is CH3NH3PbI3 Polar?
;
_journal_issue                   13
_journal_name_full               'The journal of physical chemistry letters'
_journal_page_first              2412
_journal_page_last               2419
_journal_paper_doi               10.1021/acs.jpclett.6b00803
_journal_volume                  7
_journal_year                    2016
_chemical_formula_sum            'C H6 I3 N Pb'
_chemical_formula_weight         619.96
_space_group_crystal_system      orthorhombic
_space_group_IT_number           62
_space_group_name_Hall           '-P 2ac 2n'
_space_group_name_H-M_alt        'P n m a'
_symmetry_space_group_name_Hall  '-P 2ac 2n'
_symmetry_space_group_name_H-M   'P n m a'
_atom_sites_solution_hydrogens   geom
_audit_creation_method           SHELXL-2013
_cell_angle_alpha                90
_cell_angle_beta                 90
_cell_angle_gamma                90
_cell_formula_units_Z            4
_cell_length_a                   8.8767(9)
_cell_length_b                   12.6400(14)
_cell_length_c                   8.5879(10)
_cell_measurement_reflns_used    1968
_cell_measurement_temperature    100(2)
_cell_measurement_theta_max      30.4630
_cell_measurement_theta_min      3.2500
_cell_volume                     963.58(18)
_computing_cell_refinement
;
CrysAlisPro, Agilent Technologies,
Version 1.171.37.31 (release 14-01-2014 CrysAlis171 .NET)
(compiled Jan 14 2014,18:38:05)
;
_computing_data_collection
;
CrysAlisPro, Agilent Technologies,
Version 1.171.37.31 (release 14-01-2014 CrysAlis171 .NET)
(compiled Jan 14 2014,18:38:05)
;
_computing_data_reduction
;
CrysAlisPro, Agilent Technologies,
Version 1.171.37.31 (release 14-01-2014 CrysAlis171 .NET)
(compiled Jan 14 2014,18:38:05)
;
_computing_structure_refinement  'SHELXL-2013 (Sheldrick, 2013)'
_diffrn_ambient_temperature      100(2)
_diffrn_detector                 'CCD plate'
_diffrn_detector_area_resol_mean 8.0419
_diffrn_detector_type            Eos
_diffrn_measured_fraction_theta_full 0.999
_diffrn_measured_fraction_theta_max 0.999
_diffrn_measurement_device       'four-circle diffractometer'
_diffrn_measurement_device_type  'Xcalibur, Eos, Nova'
_diffrn_radiation_monochromator  mirror
_diffrn_radiation_type           MoK\a
_diffrn_radiation_wavelength     0.71073
_diffrn_reflns_av_unetI/netI     0.0561
_diffrn_reflns_Laue_measured_fraction_full 0.999
_diffrn_reflns_Laue_measured_fraction_max 0.999
_diffrn_reflns_limit_h_max       12
_diffrn_reflns_limit_h_min       -12
_diffrn_reflns_limit_k_max       17
_diffrn_reflns_limit_k_min       -18
_diffrn_reflns_limit_l_max       12
_diffrn_reflns_limit_l_min       -11
_diffrn_reflns_number            3304
_diffrn_reflns_point_group_measured_fraction_full 0.999
_diffrn_reflns_point_group_measured_fraction_max 0.999
_diffrn_reflns_theta_full        25.242
_diffrn_reflns_theta_max         30.515
_diffrn_reflns_theta_min         2.868
_exptl_absorpt_coefficient_mu    27.035
_exptl_absorpt_correction_T_max  1.00000
_exptl_absorpt_correction_T_min  0.72921
_exptl_absorpt_correction_type   multi-scan
_exptl_absorpt_process_details
;
CrysAlisPro, Agilent Technologies,
Version 1.171.37.31 (release 14-01-2014 CrysAlis171 .NET)
(compiled Jan 14 2014,18:38:05)
Empirical absorption correction using spherical harmonics,
 implemented in SCALE3 ABSPACK scaling algorithm.
;
_exptl_crystal_colour            black
_exptl_crystal_density_diffrn    4.274
_exptl_crystal_description       block
_exptl_crystal_F_000             1040
_exptl_crystal_size_max          0.0966
_exptl_crystal_size_mid          0.0598
_exptl_crystal_size_min          0.0418
_refine_diff_density_max         5.688
_refine_diff_density_min         -2.594
_refine_diff_density_rms         0.676
_refine_ls_extinction_method     none
_refine_ls_goodness_of_fit_ref   1.068
_refine_ls_hydrogen_treatment    constr
_refine_ls_matrix_type           full
_refine_ls_number_parameters     37
_refine_ls_number_reflns         3304
_refine_ls_number_restraints     0
_refine_ls_restrained_S_all      1.068
_refine_ls_R_factor_all          0.0918
_refine_ls_R_factor_gt           0.0688
_refine_ls_shift/su_max          0.000
_refine_ls_shift/su_mean         0.000
_refine_ls_structure_factor_coef Fsqd
_refine_ls_weighting_details
;
 w=1/[\s^2^(Fo^2^)+(0.1518P)^2^]
 where P=(Fo^2^+2Fc^2^)/3
;
_refine_ls_weighting_scheme      calc
_refine_ls_wR_factor_gt          0.2354
_refine_ls_wR_factor_ref         0.2437
_reflns_Friedel_coverage         0.000
_reflns_number_gt                2186
_reflns_number_total             3304
_reflns_threshold_expression     'I > 2\s(I)'
_cod_data_source_file            jz6b00803_si_002.cif
_cod_data_source_block           shelx
_cod_database_code               8000234
_shelx_space_group_comment
;
The symmetry employed for this shelxl refinement is uniquely defined
by the following loop, which should always be used as a source of
symmetry information in preference to the above space-group names.
They are only intended as comments.
;
_shelxl_version_number           2013-2
_shelx_res_file
;
TITL new_twin1_hklf4 in Pnma
CELL  0.71073   8.8767  12.6400   8.5879   90.000   90.000   90.000
ZERR     4.00   0.0009   0.0014   0.0010    0.000    0.000    0.000
LATT   1
SYMM  1/2 - X, - Y, 1/2 + Z
SYMM  - X, 1/2 + Y, - Z
SYMM  1/2 + X, 1/2 - Y, 1/2 - Z
SFAC  C    H    N    I    PB
UNIT  4    24   4    12   4
MERG   2
FMAP   2
acta
PLAN   10
BOND
LIST   3
L.S.  10
WGHT    0.151800
BASF   0.27797
FVAR       0.67128
C1A   1   -0.068535    0.750000    0.028508    10.50000    0.04150    0.01661 =
         0.02531    0.00000    0.01296    0.00000
AFIX 137
H1A1  2   -0.098457    0.821566    0.049583    10.50000   -1.50000
H1A2  2   -0.058291    0.712150    0.124842    10.50000   -1.50000
H1A3  2   -0.143550    0.716285   -0.034906    10.50000   -1.50000
AFIX   0
N1    3    0.083859    0.750000   -0.058388    10.50000    0.06149    0.03546 =
         0.05668    0.00000    0.00719    0.00000
AFIX 137
H1A   2    0.149332    0.709559   -0.007229    10.50000   -1.50000
H1B   2    0.119106    0.815812   -0.063862    10.50000   -1.50000
H1C   2    0.070928    0.724629   -0.154133    10.50000   -1.50000
AFIX   0
I1    4    0.189563    0.482787    0.185589    11.00000    0.02298    0.02932 =
         0.02650   -0.00051    0.00777   -0.00070
I2    4    0.514673    0.750000    0.053605    10.50000    0.02532    0.01296 =
         0.03170    0.00000    0.00058    0.00000
PB1   5    0.500000    0.500000    0.000000    10.50000    0.01392    0.01410 =
         0.02268   -0.00031   -0.00015    0.00009
HKLF    5

REM  new_twin1_hklf4 in Pnma
REM R1 =  0.0688 for    2186 Fo > 4sig(Fo)  and  0.0918 for all    3304 data
REM     37 parameters refined using      0 restraints

END

WGHT      0.1493      0.0000

REM Highest difference peak  5.688,  deepest hole -2.594,  1-sigma level  0.676
Q1    1   0.5002  0.5015  0.0930  11.00000  0.05    5.69
Q2    1   0.5606  0.7500 -0.0495  10.50000  0.05    4.70
Q3    1   0.2550  0.5019  0.2707  11.00000  0.05    3.89
Q4    1   0.4184  0.7500 -0.0238  10.50000  0.05    3.35
Q5    1   0.4123  0.7500  0.0426  10.50000  0.05    3.35
Q6    1   0.5119  0.7500  0.1547  10.50000  0.05    3.26
Q7    1   0.1943  0.4828  0.0888  11.00000  0.05    3.13
Q8    1  -0.1280  0.7500 -0.0646  10.50000  0.05    2.75
Q9    1   0.3722  0.7500  0.1851  10.50000  0.05    2.20
Q10   1   0.6181  0.7500  0.1223  10.50000  0.05    2.17
;
_shelx_res_checksum              2125
_shelx_hkl_file
;
   0   0   1 117.884 36.6000   1
  -1  -2  -1 16775.5 200.303  -2
   0   0   2 16775.5 200.303   1
   0   0   3 44.6830 48.5163   1
   0   0   4 20557.4 385.070   1
   2   4   2 60234.6 811.987  -2
   0   0  -4 60234.6 811.987   1
   0   0   5-15.7986 58.0908   1
   0   0   6 25159.9 513.967   1
   0   0   7 98.3726 97.8618   1
   0   0   8 2149.09 312.823   1
   0   0   9-29.2207 204.376   1
   0   0  10 3833.17 441.105   1
   0   0  11 85.9949 255.633   1
   0   0  12 1321.37 366.539   1
   0   1   1 141.281 25.6951   1
   0  -1  -1 275.276 64.8500  -2
   0  -1   1 275.276 64.8500   1
   0   1   2 44.1662 35.9393   1
   0   1   3 6741.02 248.280   1
  -1  -3  -2 7073.73 318.532  -2
   0  -1   3 7073.73 318.532   1
   2   3   1 5840.93 273.109  -2
   0  -1  -3 5840.93 273.109   1
   0   1   4 16.0672 39.5269   1
   0  -1   5 4842.07 133.667   1
   0   1  -6 27.6536 52.2749   1
   0   1  -7 627.714 81.9587   1
   0  -1  -8 15.7870 94.3132   1
   0   1   9 182.256 123.534   1
   0   1  10 25.4550 157.919   1
   0   1  11 139.750 181.828   1
   0   1  12-38.2943 179.982   1
   1   0  -1 96974.7 751.947  -2
   0  -2   0 96974.7 751.947   1
   0  -2  -1 25.3316 17.0065   1
   0  -2  -2 6718.16 164.514   1
   0  -2  -3 53.4620 46.3152   1
   0  -2  -4 9005.26 256.296   1
  -1  -4  -3 32077.0 760.145  -2
   0  -2   4 32077.0 760.145   1
   0   2   5 57.3176 49.0739   1
   0   2   6 40541.7 404.937   1
   0  -2  -7-4.85219 54.2902   1
   0  -2  -8 983.637 128.419   1
   0  -2   9-11.7690 137.116   1
   0   2  10 14289.2 568.546   1
   0  -2  11 31.4416 152.885   1
   0   2  12 3738.04 500.628   1
   0  -3   0-0.10927 88.2974   1
   0   3   1 8021.67 163.298   1
   1  -1  -2 11789.8 310.174  -2
   0  -3   1 11789.8 310.174   1
   0  -3  -2 24.6023 24.3005   1
   0   3   3 2777.40 138.282   1
   0  -3  -4 50.9709 53.5248   1
   0  -3  -5 1938.15 149.720   1
  -1  -5  -4 3046.00 290.781  -2
   0  -3   5 3046.00 290.781   1
   0  -3   6 39.7368 49.4505   1
   0  -3   7 4152.70 175.802   1
   0  -3  -8 32.5383 82.8815   1
   0  -3  -9 93.3683 113.145   1
   0   3  10 19.2943 147.602   1
   0  -3  11-66.9867 161.221   1
   0   3  12-207.772 268.416   1
   0  -4   0 215498. 1519.25   1
   0  -4   1 17.8370 42.9484   1
   0  -4  -2 14317.0 183.661   1
   0   4   3 26.6773 33.2044   1
   0  -4  -4 17330.0 376.993   1
   0  -4  -5 30.0305 69.5518   1
   0   4   6 21309.8 503.543   1
   0   4   7 31.0669 69.6704   1
   0  -4  -8 1432.66 128.484   1
   0  -4   9 46.3503 88.6684   1
   0   4  10 4284.70 457.083   1
   0   4  11 25.6504 219.856   1
   0  -5   0 6.83057 87.2467   1
   0  -5  -1 2853.04 114.864   1
   0   5   2 54.2350 41.9529   1
   0  -5  -3 8100.18 159.377   1
   0  -5  -4 41.4139 36.2001   1
   0   5   5 7156.58 277.548   1
   0  -5  -6 19.2961 87.0046   1
   0   5   7 200.084 94.8697   1
   0   5   8 27.4874 105.117   1
   0  -5  -9 1049.04 147.093   1
   0   5  10-63.2495 280.573   1
   0   5  11 190.262 283.488   1
   0  -6   0 28177.9 712.223   1
   0  -6   1 35.4694 46.5997   1
   0  -6  -2 1084.46 80.8569   1
   0  -6  -3 4.09820 60.5422   1
   0   6   4 6431.92 158.197   1
   0  -6  -5 14.3904 37.7917   1
   0  -6  -6 27032.6 586.106   1
   0  -6  -7 73.5828 99.3582   1
   0  -6  -8 1818.35 198.339   1
   0   6   9 8.84635 122.404   1
   0   6  10 11056.4 548.565   1
   0   6  11-39.0382 282.792   1
   0  -7   0 17.7492 137.050   1
   0  -7  -1 13242.5 273.476   1
   0  -7  -2 81.7557 84.8620   1
   0   7   3 709.930 88.8812   1
   0   7   4-11.6899 69.0487   1
   0   7   5 569.670 113.985   1
   0  -7  -6 3.51943 82.9781   1
   0   7   7 6579.79 335.289   1
   0   7   8 36.6388 125.860   1
   0   7   9 787.677 203.756   1
   0  -7 -10 3.22403 186.567   1
   0   7  11 63.0375 297.365   1
   0  -8   0 78587.5 1383.14   1
   0   8   1 7.89619 60.2548   1
   0  -8   2 14704.8 298.859   1
   0   8   3-0.35864 67.2692   1
   0   8   4 11924.0 355.368   1
   0  -8  -5 35.9953 94.6437   1
   0  -8  -6 9702.25 379.816   1
   0  -8  -7-29.3907 96.6402   1
   0  -8  -8 224.804 243.445   1
   0  -8  -9 25.1745 294.705   1
   0   8  10 1700.92 278.062   1
   0   9   0 34.6953 68.5049   1
   0   9   1 4238.37 187.322   1
   0  -9   2 67.1319 60.0534   1
   0   9   3 6436.39 265.514   1
   0  -9  -4-4.43892 78.7342   1
   0   9   5 6896.67 295.983   1
   0   9   6 72.0327 97.9454   1
   0  -9  -7 670.564 268.850   1
   0  -9  -8-71.3328 262.582   1
   0  -9  -9 1401.11 411.208   1
   0   9  10 72.6294 200.208   1
   0 -10   0 6225.86 278.556   1
   0 -10   1 38.2927 75.6914   1
   0 -10  -2 410.944 80.4371   1
   0 -10  -3-19.7431 82.0718   1
   0 -10  -4 5181.20 259.642   1
   0 -10  -5 44.6403 96.6210   1
   0 -10  -6 11719.8 818.844   1
   0 -10  -7 410.898 304.264   1
   0 -10  -8 3155.91 512.133   1
   0 -10  -9-100.367 315.978   1
   0 -10 -10 5967.16 465.208   1
   0 -11   0 23.4057 91.1318   1
   0 -11  -1 8512.18 276.611   1
   0  11   2 214.129 86.7408   1
   0 -11  -3 213.751 87.7879   1
   0 -11  -4 34.4633 92.5376   1
   0 -11  -5 376.946 256.501   1
   0 -11  -6 245.953 326.145   1
   0 -11  -7 4534.40 600.325   1
   0 -11  -8 50.6604 334.996   1
   0 -11  -9 1161.40 423.813   1
   0  12   0 27454.2 623.891   1
   0 -12   1 14.0802 79.5618   1
   0 -12  -2 12434.7 344.235   1
   0  12   3 69.2652 92.7398   1
   0 -12  -4 7839.10 686.434   1
   0 -12  -5 131.833 326.096   1
   0 -12  -6 3901.38 534.569   1
   0 -12  -7-64.4068 302.376   1
   0 -12  -8 333.351 374.288   1
   0 -12  -9-239.422 342.782   1
   0  13   0-5.44923 106.945   1
   0 -13  -1 1634.10 126.800   1
   0 -13  -2 94.5290 81.4631   1
   0 -13  -3 2700.97 435.104   1
   0 -13  -4 83.0881 247.373   1
   0 -13  -5 3918.33 526.399   1
   0 -13  -6-118.202 343.807   1
   0 -13  -7 483.066 341.335   1
   0 -13  -8 103.435 390.031   1
   0 -14   0 1017.32 174.598   1
   0 -14   1 7.50298 79.3897   1
   0 -14   2 1050.69 198.734   1
   0 -14  -3 19.0715 260.625   1
   0 -14  -4 2588.04 490.384   1
   0 -14  -5 182.423 313.565   1
   0 -14  -6 4698.07 651.740   1
   0 -14  -7 225.609 389.555   1
   0 -15   0 14.2578 273.701   1
   0 -15   1 3938.51 256.652   1
   0 -15   2 18.3336 119.969   1
   0 -15  -3 137.020 357.631   1
   0 -15  -4-127.379 365.020   1
   0 -15  -5 261.632 398.388   1
   0 -15  -6 179.016 325.971   1
   0 -16   0 11060.8 781.725   1
   0 -16   1-34.2604 191.864   1
   0 -16  -2 8072.65 448.872   1
   0 -16  -3-44.7756 331.303   1
   0 -16  -4 3623.33 547.455   1
   0 -16  -5 216.994 350.672   1
   0 -17   0 25.9114 261.090   1
   0 -17   1 440.814 220.904   1
   0 -17  -2 283.392 353.569   1
   0 -17  -3 1244.89 371.132   1
   0 -17  -4 184.015 350.933   1
   0 -18   0 375.123 274.713   1
   1   0   0 4.25555 22.8379   1
   1   0   1 52843.8 457.001   1
   0   2   0 82553.3 576.279  -2
  -1   0  -1 82553.3 576.279   1
  -1   0  -1 69787.6 772.632  -2
  -1   0   1 69787.6 772.632   1
  -1   0  -2 14285.0 176.646   1
   1   0   3 56523.5 804.497   1
   1   4   1 77534.5 733.611  -2
  -1   0  -3 77534.5 733.611   1
  -2  -2  -2 68898.4 1061.07  -2
  -1   0   3 68898.4 1061.07   1
  -1   0  -4 23548.7 251.572   1
  -1   0   5 3403.25 113.483   1
   1   0  -6 3994.28 136.430   1
  -1   0  -7 3959.85 149.085   1
   1   0  -8-15.8812 100.195   1
  -1   0   9 2522.69 236.860   1
   1   0  10 1745.22 223.625   1
   1   0  11 367.259 164.600   1
  -1   0  12 1295.06 351.032   1
  -1  -1   0 26.3828 29.1817   1
   1  -1   1 402.663 35.2197   1
  -1  -1  -2 4703.83 137.523   1
   0  -3  -1 8382.54 163.877  -2
   1  -1   2 8382.54 163.877   1
  -1  -1  -2 7054.18 342.614  -2
  -1  -1   2 7054.18 342.614   1
   2   1   1 6262.94 208.705  -2
   1  -1  -2 6262.94 208.705   1
  -1  -1  -3 122.139 25.2869   1
   1   1   4 4522.87 95.1581   1
  -2  -3  -3 8845.89 435.006  -2
  -1  -1   4 8845.89 435.006   1
  -1   1   5 158.474 33.5660   1
  -1   1   6 2713.52 85.7552   1
   1   1   7 2.48967 47.5256   1
  -1  -1   8 292.723 60.8476   1
  -1   1   9 16.5238 86.1387   1
   1  -1  10 103.690 95.6167   1
  -1  -1  11 18.1590 111.222   1
  -1  -1  12 237.391 150.978   1
  -1  -2   0 20.3872 28.2316   1
  -1  -2  -1 4047.15 92.3861   1
   1  -2  -1 7122.74 198.813  -2
   1  -2   1 7122.74 198.813   1
   2   0   0 11907.6 356.057  -2
   1  -2  -1 11907.6 356.057   1
   1  -2  -2 18438.5 155.288   1
  -1  -2  -3 24432.7 262.003   1
   0  -4  -2 33298.6 589.331  -2
   1  -2   3 33298.6 589.331   1
  -1  -2  -3 34609.5 865.566  -2
  -1  -2   3 34609.5 865.566   1
   1  -2   4 14494.6 144.115   1
   1  -2   5 6140.23 141.955   1
   1   6   3 13262.4 304.529  -2
  -1   2  -5 13262.4 304.529   1
  -2  -4  -4 14489.4 594.939  -2
  -1  -2   5 14489.4 594.939   1
   1   2  -6 5711.59 121.958   1
   1   2   7 15657.9 231.707   1
  -1  -2  -8 119.591 63.5124   1
   1   2   9 11994.7 278.025   1
  -1  -2  10 1611.64 150.111   1
   1   2  11 2561.71 231.066   1
  -1   2  12 1188.22 182.184   1
   1   3   0 303.168 55.8149   1
   2  -1  -1 2650.52 184.430  -2
   1  -3   0 2650.52 184.430   1
  -1  -3  -1 179.280 22.7721   1
  -1  -3  -2 1757.29 90.3510   1
   1  -3  -2 2583.54 131.615  -2
   1  -3   2 2583.54 131.615   1
   1  -3  -3 2447.14 93.1441   1
   1  -3  -4 7202.47 170.209   1
   0   5   3 9043.52 168.466  -2
  -1   3  -4 9043.52 168.466   1
  -1  -3  -4 10448.3 539.305  -2
  -1  -3   4 10448.3 539.305   1
   1  -3   5 1002.32 48.8513   1
  -1  -3  -6 1503.77 87.8246   1
  -2  -5  -5 3405.59 353.446  -2
  -1  -3   6 3405.59 353.446   1
   1   3  -7 57.1502 50.9357   1
  -1  -3   8 234.874 61.8107   1
  -1  -3   9 28.9891 81.2942   1
  -1  -3  10 93.3712 104.810   1
   1   3  11 289.513 146.649   1
   1   3  12 545.238 180.418   1
   1   4   0 4.73633 48.5175   1
  -1  -4   1 37906.8 243.314   1
   2  -2  -2 67918.6 860.675  -2
   1  -4   1 67918.6 860.675   1
   3   0  -1 81649.5 1018.92  -2
   1  -4  -1 81649.5 1018.92   1
  -1  -4  -2 9229.95 113.442   1
   1  -4  -3 44697.0 368.579   1
   1  -4  -4 15902.2 252.790   1
  -1   4   5 3660.99 144.404   1
   0   6   4 6624.13 170.057  -2
  -1   4  -5 6624.13 170.057   1
  -1   4   6 2383.81 107.774   1
   1  -4   7 3386.09 132.450   1
   1  -4   8 18.3404 67.5113   1
   1  -4   9 2035.53 140.324   1
   1   4  10 1209.83 160.795   1
   1   4  11 213.715 185.045   1
   1   5   0 95.7930 63.8195   1
   3  -1  -2 1365.34 181.469  -2
   1  -5   0 1365.34 181.469   1
  -1   5   1 1379.09 57.4584   1
   1  -5  -2 5853.69 112.202   1
   2  -3  -3 9543.16 317.798  -2
   1  -5   2 9543.16 317.798   1
  -1  -5  -3 3635.39 96.1948   1
   1  -5  -4 1541.78 73.2107   1
  -1   5   5 1579.33 55.7333   1
   1   5   6 3159.27 150.218   1
   1  -5  -7 189.615 68.2507   1
   1  -5  -8 216.597 78.0237   1
   1   5   9 232.373 96.9778   1
   1  -5 -10 195.424 119.570   1
  -1   5  11 429.069 173.281   1
   1  -6   0 13.7196 56.1876   1
   1  -6  -1 2693.94 86.3241   1
   1   6   2 7297.26 138.068   1
   1   6   3 16153.8 237.080   1
  -1  -6  -4 6169.93 140.524   1
  -1   6   5 5659.92 145.333   1
   1  -6  -6 2448.21 108.491   1
  -1   6   7 11504.7 293.661   1
  -1   6   8 42.6754 73.2481   1
   1   6   9 8317.34 283.033   1
   1   6  10 804.853 134.553   1
   1   6  11 2351.56 224.390   1
   1  -7   0 399.797 76.5225   1
   1   7   1 705.880 53.5036   1
   1  -7   2 576.043 50.9050   1
   1  -7  -3 5988.81 138.373   1
  -1  -7  -4 7792.31 196.646   1
  -1  -7  -5 3385.51 119.211   1
   1   7   6 851.668 93.2714   1
  -1   7   7 138.498 79.6324   1
  -1  -7  -8 89.9526 100.736   1
   1   7   9 378.215 110.622   1
   1   7  10 7.23830 113.222   1
  -1   7  11 480.974 192.328   1
  -1  -8   0 28.5402 59.7831   1
   1  -8   1 26392.7 289.327   1
  -1  -8  -2 2378.68 96.8488   1
   1  -8  -3 29173.7 315.624   1
  -1  -8  -4 5082.14 164.582   1
   1   8   5 4025.83 214.566   1
   1   8   6 792.787 96.5787   1
   1  -8  -7 2347.08 193.417   1
   1   8   8 31.7727 114.558   1
  -1  -8  -9 1237.48 155.698   1
   1   8  10 515.164 150.562   1
  -1  -9   0 142.170 72.5781   1
   1   9   1 1699.22 87.4116   1
   1   9   2 4036.92 122.790   1
   1   9   3 5077.14 147.940   1
  -1   9   4 653.013 78.0085   1
   1   9   5 3429.33 202.258   1
   1   9   6 2317.58 187.657   1
   1   9   7 375.437 107.555   1
  -1  -9  -8 308.875 111.188   1
  -1  -9  -9 546.002 156.513   1
  -1  -9 -10 480.272 164.364   1
   1  10   0 28.2940 55.9995   1
  -1 -10  -1 1594.70 91.2823   1
   1  10   2 1231.62 82.7576   1
   1 -10   3 7123.59 224.529   1
   1  10   4 757.142 112.611   1
   1 -10  -5 5089.49 256.512   1
   1 -10  -6 445.276 111.374   1
  -1 -10  -7 6493.94 317.687   1
   1 -10  -8 58.6731 207.883   1
  -1  10   9 5190.04 360.952   1
  -1  10  10 147.885 190.500   1
   1 -11   0 293.117 75.1721   1
   1 -11   1 596.410 67.0808   1
  -1 -11  -2 127.494 53.9359   1
   1 -11   3 4487.54 192.201   1
  -1 -11  -4 4929.14 251.479   1
   1 -11  -5 2459.78 190.256   1
   1 -11  -6 355.287 115.337   1
  -1 -11  -7 143.394 211.464   1
   1 -11  -8 144.310 236.495   1
   1 -11  -9 381.919 270.175   1
  -1  12   0-5.19300 68.4037   1
   1  12   1 15323.5 259.922   1
   1 -12  -2 188.292 72.1692   1
   1 -12  -3 12656.3 326.744   1
   1 -12  -4 417.677 115.058   1
   1 -12  -5 3625.45 239.446   1
   1 -12  -6 162.345 198.474   1
  -1 -12  -7 1709.15 293.019   1
  -1 -12  -8 144.226 237.398   1
  -1 -12  -9 605.781 252.009   1
  -1  13   0 45.5415 76.7199   1
   1 -13  -1 679.662 74.1674   1
   1 -13   2 2395.37 165.870   1
  -1 -13  -3 2496.18 194.419   1
  -1 -13  -4 278.245 179.552   1
  -1 -13  -5 1543.89 264.331   1
   1 -13  -6 1178.79 269.775   1
   1 -13  -7 420.266 231.910   1
   1 -13  -8 188.904 282.676   1
   1 -14   0-3.16086 108.422   1
   1 -14   1 933.706 89.4337   1
   1  14  -2 71.9844 83.7349   1
   1 -14  -3 2580.18 317.767   1
  -1 -14  -4-42.9644 214.929   1
  -1 -14  -5 3852.20 400.655   1
  -1 -14  -6-65.3504 244.236   1
  -1 -14  -7 4200.52 451.069   1
  -1 -15   0 86.7051 113.417   1
   1  15  -1 223.736 86.1032   1
  -1 -15  -2 118.831 142.836   1
  -1 -15  -3 1365.99 253.851   1
   1 -15  -4 2213.13 329.402   1
  -1 -15  -5 1097.84 263.779   1
  -1 -15  -6 260.151 267.518   1
  -1 -16   0 70.7691 127.163   1
   1 -16  -1 9216.05 317.579   1
  -1 -16  -2 64.6008 133.026   1
   1 -16  -3 4494.50 318.141   1
   1 -16  -4-14.4768 226.212   1
   1 -16  -5 2767.10 363.162   1
   1 -17   0 51.1697 189.055   1
  -1 -17  -1 524.037 244.515   1
   1 -17  -2 910.588 175.302   1
   1  17  -3 520.092 152.688   1
  -1 -17  -4 69.8230 286.908   1
   2   0   0 20338.6 287.842   1
   2   0   1 15699.6 183.034   1
   2   0   2 107120. 947.152   1
  -2   0  -2 135038. 1549.96  -2
  -2   0   2 135038. 1549.96   1
   2   0   3 1150.35 76.0039   1
   2   0   4 19248.4 339.381   1
  -3  -2  -3 20991.4 721.447  -2
  -2   0   4 20991.4 721.447   1
   2   0   5 1337.54 82.9271   1
  -2   0  -6 454.419 60.1819   1
  -2   0   7 4251.04 183.849   1
   2   0   8 9573.85 286.112   1
  -2   0   9 1483.10 160.885   1
   2   0  10 170.418 157.399   1
  -2   0  11 0.70219 267.803   1
  -2   0  12 541.862 308.305   1
   2   1   0 34.6816 22.9274   1
   2   1   1 2697.66 135.859   1
  -1   1  -2 4399.40 210.235  -2
  -2  -1   1 4399.40 210.235   1
   1  -3   0 5119.16 214.370  -2
   2  -1   1 5119.16 214.370   1
  -2   1  -1 3281.87 144.419  -2
  -2   1   1 3281.87 144.419   1
  -2  -1   2 415.958 46.8445   1
  -2  -1  -3 4082.11 131.096   1
  -2  -1  -3 6226.09 412.551  -2
  -2  -1   3 6226.09 412.551   1
  -3  -1  -2 4534.43 327.458  -2
  -2   1   3 4534.43 327.458   1
   2  -1  -4 8.36830 26.3020   1
   2   1   5 3141.20 88.3761   1
  -3  -3  -4 3289.50 324.983  -2
  -2  -1   5 3289.50 324.983   1
   2   1   6 141.494 39.3572   1
   2   1  -7 1607.08 78.0649   1
   2   1  -8 25.0554 61.5128   1
   2   1   9 23.7618 77.7437   1
  -2   1  10 50.5836 120.599   1
  -2  -1  11 94.1207 136.762   1
  -2  -1  12 14.2918 186.934   1
   2   2   0 12812.8 220.757   1
   2  -2   0 16095.3 240.216  -2
   2  -2   0 16095.3 240.216   1
   2   2   1 14506.9 168.987   1
  -2  -2  -2 27493.3 383.076   1
   1  -4  -1 58592.2 860.995  -2
   2  -2   2 58592.2 860.995   1
   3   0   1 62286.8 703.976  -2
   2  -2  -2 62286.8 703.976   1
   2  -2  -3 1456.02 57.7973   1
   2  -2   4 10171.9 178.368   1
   0  -6  -2 10893.1 430.195  -2
   2  -2   4 10893.1 430.195   1
  -2  -2  -4 14848.6 690.948  -2
  -2  -2   4 14848.6 690.948   1
  -2  -2  -5 1999.40 84.0788   1
   2  -2  -6 3800.61 129.159   1
  -3  -4  -5 15571.3 728.518  -2
  -2  -2   6 15571.3 728.518   1
  -2   2   7 3632.07 126.564   1
   2   2  -8 26594.5 353.434   1
   2  -2   9 1557.10 117.255   1
   2   2  10 2568.91 191.258   1
  -2  -2  11 60.0591 130.425   1
  -2  -2  12 2312.35 308.030   1
  -2  -3   0 3604.40 115.043   1
   2   3   1 91.2757 43.3053   1
   2  -3  -1 785.248 123.675  -2
   2  -3   1 785.248 123.675   1
   3  -1   0 847.261 167.135  -2
   2  -3  -1 847.261 167.135   1
   2  -3   2 230.026 33.9830   1
  -2  -3  -3 6015.59 159.742   1
  -2   3   4 90.7343 42.3540   1
   2  -3  -5 4751.95 141.626   1
  -2  -3  -5 6773.86 508.785  -2
  -2  -3   5 6773.86 508.785   1
   2   3   6 134.749 52.5272   1
  -2  -3  -7 146.743 62.7057   1
  -3  -5  -6 146.988 253.821  -2
  -2  -3   7 146.988 253.821   1
   2   3   8 614.578 73.1843   1
  -2  -3   9 355.913 93.4381   1
   2   3  10 13.8466 89.9952   1
  -2   3  11 349.411 181.638   1
   2   4   0 16843.7 265.384   1
   3  -2  -1 27945.5 607.040  -2
   2  -4   0 27945.5 607.040   1
   2   4   1 6811.50 85.7142   1
  -2  -4  -2 73878.1 353.296   1
   2  -4  -2 149997. 1209.54  -2
   2  -4   2 149997. 1209.54   1
   4   0   0 89950.1 1260.74  -2
   2  -4  -2 89950.1 1260.74   1
  -2  -4  -3 561.321 52.3978   1
  -2   4   4 17347.3 258.892   1
  -2   4   5 873.743 71.8597   1
  -2  -4  -6 665.719 73.7048   1
   2  -4   7 2923.53 143.494   1
  -2  -4  -8 7402.27 227.856   1
   2  -4  -9 1128.89 128.154   1
  -2   4  10 172.256 117.804   1
   2   4  11 84.8565 144.528   1
   2  -5   0 1562.09 105.716   1
  -2  -5  -1 5704.69 105.730   1
   3  -3  -2 11766.8 431.396  -2
   2  -5   1 11766.8 431.396   1
  -2  -5  -2 2299.78 63.6188   1
  -2  -5  -3 1396.90 87.5101   1
   2  -5  -3 1846.99 134.646  -2
   2  -5   3 1846.99 134.646   1
  -2  -5  -4 17.5920 41.5579   1
  -2   5   5 1586.39 101.057   1
   2   5   6 1096.67 90.4870   1
   2  -5  -7 3120.07 182.138   1
  -2   5   8 353.904 96.7066   1
   2   5   9 250.938 130.601   1
  -2   5  10 279.720 112.755   1
  -2   5  11-75.4883 130.875   1
  -2  -6   0 2179.88 158.193   1
   4  -2  -2 5049.47 319.247  -2
   2  -6   0 5049.47 319.247   1
   2   6   1 4633.11 108.577   1
   2  -6  -2 13710.3 178.116   1
   3  -4  -3 18023.2 520.146  -2
   2  -6   2 18023.2 520.146   1
   2  -6   3 842.807 46.8835   1
   2   6   4 8240.70 165.303   1
  -2  -6  -5 1040.77 75.2062   1
   2  -6  -6 4072.94 167.878   1
  -2   6   7 1537.02 139.638   1
   2  -6  -8 18942.8 437.566   1
  -2   6   9 606.590 124.622   1
   2  -6 -10 2961.16 218.289   1
   2   6  11 161.237 143.517   1
   2  -7   0 5910.51 201.061   1
   2   7   1 1139.59 69.0462   1
   2  -7  -2 1088.23 62.5677   1
   2  -7  -3 6027.67 136.221   1
   3  -5  -4 11863.6 376.533  -2
   2  -7   3 11863.6 376.533   1
  -2  -7  -4 75.2758 40.5783   1
  -2  -7  -5 4867.21 144.410   1
  -2  -7  -6 571.312 85.3529   1
  -2  -7  -7 33.2390 93.4774   1
  -2  -7  -8 1228.99 136.193   1
   2  -7  -9 1059.19 146.727   1
  -2   7  10 94.0873 118.812   1
   2  -7 -11 262.625 132.704   1
   2   8   0 17563.4 362.279   1
   2  -8  -1 2303.31 90.9969   1
   2  -8   2 41488.5 365.443   1
   2  -8   3 107.935 35.6282   1
  -2  -8  -4 12569.3 273.826   1
  -2  -8  -5 154.731 66.9388   1
   2   8   6 1221.02 146.899   1
   2  -8  -7 1171.09 161.769   1
   2  -8  -8 3392.31 204.181   1
  -2   8   9 244.637 109.403   1
   2  -8 -10 188.998 145.086   1
   2   9   0 2740.89 160.241   1
   2   9   1 5906.77 139.909   1
  -2   9   2 2535.86 101.682   1
   2   9   3 687.481 85.3377   1
  -2  -9  -4 7.76938 99.1163   1
   2  -9  -5 554.665 116.047   1
   2   9   6 1663.34 172.384   1
   2   9   7 3681.76 250.699   1
  -2  -9  -8 540.263 130.186   1
  -2   9   9 590.723 137.700   1
  -2   9  10 320.317 235.949   1
   2  10   0 122.390 79.7631   1
   2 -10   1 573.236 58.2400   1
   2 -10   2 5079.14 196.776   1
  -2 -10  -3 164.133 65.9737   1
   2  10   4 5130.51 251.091   1
  -2 -10  -5 297.032 105.803   1
   2  10   6 5014.78 280.546   1
   2  10   7 188.260 122.961   1
   2  10   8 8272.60 333.178   1
   2 -10  -9 86.3357 176.895   1
  -2 -10 -10 2337.11 343.678   1
   2  11   0 3638.99 156.714   1
  -2 -11   1 1188.05 95.3875   1
   2  11   2 780.108 104.754   1
   2 -11  -3 3399.90 219.665   1
   2 -11  -4 38.5021 111.306   1
  -2 -11  -5 3232.58 217.757   1
  -2 -11  -6 786.331 139.262   1
   2  11   7 126.922 118.739   1
  -2 -11  -8 1064.89 240.311   1
   2 -11  -9 536.911 190.206   1
   2 -12   0 12986.1 392.972   1
   2  12  -1 167.032 70.5777   1
   2  12   2 17492.5 392.698   1
   2  12   3 34.3028 97.7845   1
   2 -12  -4 7009.08 317.426   1
   2  12   5 6.91601 125.742   1
   2 -12  -6 1497.54 184.404   1
  -2 -12  -7 66.4888 231.819   1
  -2 -12  -8 1355.17 293.458   1
  -2 -13   0 1291.21 158.443   1
   2 -13   1 3218.09 155.982   1
   2 -13  -2 1207.63 109.243   1
   2 -13  -3 184.421 112.018   1
   2  13   4 36.1566 121.065   1
   2  13   5 430.463 138.033   1
  -2 -13  -6 859.373 266.685   1
   2 -13  -7 1552.60 296.443   1
   2 -13  -8 933.924 282.266   1
  -2 -14   0 693.478 135.170   1
   2  14   1 14.8408 84.2903   1
   2 -14  -2 1454.35 146.773   1
   2  14   3 67.6600 112.416   1
   2 -14  -4 3150.99 242.909   1
  -2 -14  -5-45.4400 238.939   1
   2 -14  -6 3981.95 416.443   1
  -2 -14  -7 67.3987 284.670   1
   2  15   0 1759.91 186.425   1
   2 -15  -1 398.182 94.9088   1
   2  15   2 237.689 106.308   1
  -2 -15  -3 1696.63 158.922   1
  -2 -15  -4 61.9461 242.292   1
   2 -15  -5 1354.54 321.191   1
  -2 -15  -6 402.078 265.077   1
   2 -16   0 9605.71 416.394   1
  -2 -16  -1 7.49331 104.695   1
   2  16  -2 5790.90 340.459   1
   2 -16  -3-1.97274 171.129   1
   2 -16  -4 3518.36 296.194   1
   2 -16  -5-17.0243 263.330   1
   2 -17   0 410.362 148.744   1
  -2 -17  -1 1062.43 190.045   1
  -2 -17  -2 313.840 164.089   1
   2 -17  -3 146.495 169.744   1
   3   0   0 8.64569 53.0848   1
   3   0   1 95620.1 855.420   1
  -2   2  -2 104520. 736.910  -2
  -3   0   1 104520. 736.910   1
  -3   0   2 5011.61 143.628   1
   3   0   3 1794.31 207.492   1
  -3   0  -3 2040.58 246.831  -2
  -3   0   3 2040.58 246.831   1
  -3   0   4 930.817 126.676   1
   3   0   5 35460.5 502.624   1
  -4  -2  -4 43709.8 1186.53  -2
  -3   0   5 43709.8 1186.53   1
  -3   0   6 2898.60 123.170   1
   3   0  -7 853.687 100.914   1
  -3   0   8 27.9059 81.9411   1
   3   0   9 153.602 93.9130   1
  -3   0  10 322.676 231.810   1
  -3   0  11 6372.31 629.721   1
  -3  -1   0 111.922 50.3035   1
   2  -3   1 267.917 77.6752  -2
   3  -1   0 267.917 77.6752   1
   3   1   1 533.618 30.6894   1
   3   1   2 1320.25 127.065   1
   1  -5   0 2427.90 184.616  -2
   3  -1   2 2427.90 184.616   1
  -3   1  -2 2133.85 142.975  -2
  -3   1   2 2133.85 142.975   1
  -3  -1   3 453.228 65.4099   1
   3   1   4 5292.97 170.190   1
  -3  -1  -4 7315.83 521.070  -2
  -3  -1   4 7315.83 521.070   1
  -4  -1  -3 6371.29 436.799  -2
  -3   1   4 6371.29 436.799   1
  -3  -1   5 25.1573 43.2732   1
   3   1   6 1222.75 83.7334   1
  -4  -3  -5 2762.81 355.482  -2
  -3  -1   6 2762.81 355.482   1
   3  -1   7 45.1019 53.7025   1
   3   1   8 230.085 61.3311   1
  -3  -1   9 46.2473 81.0591   1
   3   1  10-82.4415 108.006   1
  -3  -1  11 51.0889 193.036   1
   3   2   0 79.4476 29.6401   1
   3   2   1 18417.7 424.906   1
  -1   2  -3 29247.3 386.595  -2
  -3  -2   1 29247.3 386.595   1
   2  -4   0 28838.7 588.622  -2
   3  -2   1 28838.7 588.622   1
  -3   2  -1 24118.4 272.011  -2
  -3   2   1 24118.4 272.011   1
   3   2   2 561.360 48.6483   1
   3  -2   3 1800.77 68.7324   1
  -4   0  -2 16262.9 619.114  -2
  -3   2   3 16262.9 619.114   1
   3  -2   4 6036.73 121.798   1
   3   2   5 38541.8 355.417   1
  -3  -2  -5 59046.6 1510.43  -2
  -3  -2   5 59046.6 1510.43   1
   3  -2   6 212.557 51.5343   1
   3  -2  -7 7410.45 192.234   1
  -4  -4  -6 10534.4 661.060  -2
  -3  -2   7 10534.4 661.060   1
   3  -2  -8 70.3353 78.5149   1
   3  -2  -9 3589.15 185.560   1
  -3  -2  10 206.687 103.622   1
  -3  -2  11 11323.6 582.137   1
   3   3   0 74.3781 58.1356   1
  -3   3   0 190.926 49.7509  -2
  -3   3   0 190.926 49.7509   1
   3  -3  -1 955.084 47.5173   1
   3   3   2 6476.51 138.038   1
   2  -5  -1 10844.2 243.098  -2
   3  -3   2 10844.2 243.098   1
  -4   1  -1 6696.34 279.472  -2
  -3   3   2 6696.34 279.472   1
   3  -3   3 10.2013 14.2860   1
   3  -3  -4 479.279 60.0371   1
   1  -7  -2 755.599 82.4124  -2
   3  -3   4 755.599 82.4124   1
  -3  -3  -5 211.178 46.9872   1
   3  -3   6 3368.38 134.330   1
   3  -3   7 120.027 61.2885   1
   3   3   8 271.085 114.467   1
  -4  -5  -7 820.299 300.210  -2
  -3  -3   8 820.299 300.210   1
  -3   3   9 90.3327 94.7004   1
   3  -3 -10 414.764 112.353   1
  -3   3  11-47.1980 129.421   1
  -3  -4   0 44.4311 38.1655   1
   3   4  -1 66009.0 522.525   1
   3  -4  -1 95605.1 674.224  -2
   3  -4   1 95605.1 674.224   1
   4  -2   0 62767.8 741.462  -2
   3  -4  -1 62767.8 741.462   1
   3  -4  -2 3173.89 91.4987   1
   3  -4   3 2556.40 76.4423   1
  -3   4   4 633.312 84.0241   1
   3   4   5 28448.2 431.295   1
   3  -4  -6 1919.54 136.926   1
   3  -4  -7 1218.20 126.144   1
   3  -4  -8 64.8809 115.917   1
   3  -4  -9 136.637 101.428   1
   3   4  10 269.347 122.599   1
   3   4  11 3906.61 276.046   1
   3   5   0 67.4755 64.1933   1
   4  -3  -1 1316.30 190.964  -2
   3  -5   0 1316.30 190.964   1
  -3  -5  -1 66.7039 40.3084   1
  -3  -5  -2 74.6685 55.4235   1
   3  -5  -2 626.932 127.688  -2
   3  -5   2 626.932 127.688   1
   3  -5   3 1345.61 66.9935   1
   3   5   4 11604.6 269.841   1
  -3   5   5 269.904 86.2787   1
  -3  -5  -6 136.921 81.4413   1
  -3  -5  -7 35.1973 94.9791   1
  -3  -5  -8 100.997 98.1631   1
   3  -5  -9-0.93134 130.859   1
  -3   5  10 234.926 117.145   1
   3   5  11 82.1258 149.424   1
   3   6   0 21.9841 73.0521   1
  -3  -6  -1 4178.80 84.6423   1
   4  -4  -2 23828.6 660.914  -2
   3  -6   1 23828.6 660.914   1
   3  -6  -2 178.967 52.3185   1
   3   6   3 425.584 74.5335   1
   3  -6  -3 1846.84 164.096  -2
   3  -6   3 1846.84 164.096   1
   3  -6  -4 2950.05 142.348   1
   3   6   5 23813.7 355.935   1
  -3  -6  -6 82.0463 84.2994   1
  -3  -6  -7 7067.90 276.172   1
  -3   6   8 11.6917 95.4291   1
   3  -6  -9 3554.06 256.413   1
   3   6  10 79.7345 118.577   1
   3   6  11 7067.32 330.750   1
   3   7   0-22.2538 104.544   1
   5  -3  -2 130.430 177.641  -2
   3  -7   0 130.430 177.641   1
   3  -7   1 652.014 45.5244   1
  -3  -7  -2 7767.40 117.484   1
   4  -5  -3 13981.1 498.394  -2
   3  -7   2 13981.1 498.394   1
   3   7   3 402.308 58.5259   1
  -3  -7  -4 196.464 73.0733   1
  -3  -7  -5 605.495 92.4583   1
  -3   7   6 4762.24 182.593   1
   3  -7  -7 256.115 75.4212   1
   3  -7  -8 294.404 111.696   1
   3  -7  -9 110.124 131.785   1
  -3   7  10 770.473 160.852   1
   3   8   0 9.94926 87.1721   1
  -3  -8  -1 26702.8 284.455   1
   5  -4  -3 58682.2 1094.46  -2
   3  -8   1 58682.2 1094.46   1
   3  -8  -2 1068.30 98.7249   1
  -3  -8  -3 4262.26 176.392   1
   4  -6  -4 12666.3 446.150  -2
   3  -8   3 12666.3 446.150   1
   3  -8  -4 120.368 65.5762   1
  -3  -8  -5 12862.2 313.137   1
   3   8   6 880.805 95.8322   1
   3  -8  -7 1207.35 140.760   1
  -3  -8  -8 29.2210 112.888   1
  -3  -8  -9 201.863 122.539   1
   3   8  10 40.5005 157.549   1
   3   9   0 21.4346 85.5950   1
   3   9   1 72.9730 61.1055   1
   3  -9  -2 328.513 72.2605   1
   3  -9  -3 1485.91 110.182   1
   3   9   4 10787.0 289.252   1
  -3  -9  -5 516.634 95.1991   1
   3   9   6 2.27071 110.860   1
  -3  -9  -7 132.751 109.629   1
   3  -9  -8 92.4596 118.976   1
   3   9   9 107.098 131.823   1
  -3   9  10 340.274 160.093   1
  -3 -10   0-4.29286 83.5170   1
   3 -10  -1 3384.83 152.435   1
   3  10   2 3.84299 76.5616   1
   3 -10  -3 865.063 133.120   1
   3  10   4 872.123 142.527   1
   3  10   5 9963.17 294.439   1
   3  10   6 31.5173 109.326   1
   3 -10  -7 5174.73 258.174   1
   3  10   8 98.8762 131.105   1
  -3 -10  -9 3204.99 236.835   1
   3  11   0 38.2380 92.8094   1
   3 -11  -1 531.364 85.3939   1
   3 -11   2 6222.06 204.221   1
   3 -11  -3 424.164 118.806   1
  -3 -11  -4 447.954 120.250   1
   3 -11  -5 581.012 124.490   1
   3 -11  -6 3460.63 248.087   1
   3  11   7 146.137 105.305   1
   3 -11  -8 268.263 133.679   1
   3 -11  -9-12.0121 134.396   1
  -3 -12   0-19.5447 117.290   1
   3 -12   1 16013.9 339.677   1
   3  12  -2 191.604 79.2416   1
   3 -12  -3 6149.91 293.645   1
   3 -12  -4 65.4816 111.593   1
  -3 -12  -5 4535.19 287.141   1
   3  12   6 149.625 141.651   1
  -3 -12  -7 938.192 172.563   1
  -3  12   8 7.13502 118.755   1
   3  13   0 48.6910 110.939   1
   3  13   1 25.3258 87.9178   1
   3  13  -2 207.024 92.8635   1
   3  13  -3 728.441 117.824   1
   3 -13  -4 6764.58 335.387   1
   3 -13  -5 285.505 134.005   1
   3  13   6 84.4657 138.164   1
  -3 -13  -7-91.7751 226.166   1
  -3 -13  -8 100.371 250.350   1
   3  14   0-13.7879 153.182   1
   3  14   1 1133.41 121.565   1
   3  14  -2 14.0185 93.3116   1
   3  14   3 1625.40 155.568   1
   3 -14  -4 182.255 128.023   1
   3 -14  -5 3429.20 270.887   1
   3 -14  -6 194.010 242.845   1
  -3 -14  -7 3547.59 423.481   1
   3  15   0 72.8701 142.818   1
   3  15  -1 324.143 110.605   1
   3 -15  -2 2638.81 192.999   1
  -3 -15  -3 91.1660 110.822   1
   3  15  -4 106.442 115.103   1
   3 -15  -5 217.887 243.518   1
  -3 -15  -6 2165.00 383.340   1
   3  16   0 46.5649 151.170   1
   3 -16  -1 7167.65 312.654   1
   3  16  -2 24.2292 128.117   1
  -3 -16  -3 4554.65 254.165   1
  -3 -16  -4 198.322 183.088   1
   3  17   0 48.7230 198.227   1
   3  17  -1 61.8154 143.038   1
   3  17  -2 103.127 124.432   1
   2  -4   2 88350.1 887.067  -2
   4   0   0 88350.1 887.067   1
   4   0   1 21013.7 260.854   1
   4   0   2 28105.0 580.960   1
   3  -2   3 28987.4 426.036  -2
   4   0  -2 28987.4 426.036   1
   4   0   3 3814.13 212.288   1
   4   0   4 18080.2 569.529   1
  -4   0  -4 23179.6 896.018  -2
  -4   0   4 23179.6 896.018   1
   4   0   5 3499.12 216.997   1
   4   0   6 5000.34 364.688   1
  -5  -2  -5 4950.92 467.808  -2
  -4   0   6 4950.92 467.808   1
  -4   0   7 5749.70 220.477   1
  -4   0   8 1202.21 123.695   1
   4   0  -9 3011.47 239.918   1
   4   0  10 1428.70 223.058   1
  -4   0  11 336.527 262.119   1
  -4  -1   0 1894.31 82.7256   1
   4  -1   1 2075.39 110.876   1
   2  -3   3 4198.39 172.818  -2
   4   1  -1 4198.39 172.818   1
  -3   3  -2 4137.49 138.114  -2
  -4   1   1 4137.49 138.114   1
  -4  -1   2 22.4827 30.4532   1
   4   1   3 3684.07 182.963   1
  -4   1  -3 4710.09 409.302  -2
  -4   1   3 4710.09 409.302   1
  -4  -1   4 0.81865 66.0116   1
   4  -1   5 2707.54 129.299   1
  -4  -1  -5 3468.57 412.123  -2
  -4  -1   5 3468.57 412.123   1
  -5  -1  -4 2998.14 366.562  -2
  -4   1   5 2998.14 366.562   1
  -4  -1   6-8.08206 55.4731   1
   4   1   7 752.561 89.4375   1
  -5  -3  -6 699.134 264.876  -2
  -4  -1   7 699.134 264.876   1
   4   1   8 428.275 75.2665   1
   4  -1   9 18.6683 89.8442   1
  -4   1  10 92.0046 118.787   1
  -4   1  11 34.6942 188.501   1
   4   2   0 22508.5 368.092   1
   3  -4   1 33980.3 566.905  -2
   4  -2   0 33980.3 566.905   1
   4  -2   1 20939.5 178.560   1
   4   2   2 4873.33 268.755   1
   2  -6   0 5428.48 287.624  -2
   4  -2   2 5428.48 287.624   1
  -4   2  -2 6522.60 178.912  -2
  -4   2   2 6522.60 178.912   1
   4  -2   3 834.334 46.0309   1
   4  -2   4 11241.3 333.714   1
  -5   0  -3 33782.3 959.557  -2
  -4   2   4 33782.3 959.557   1
   4  -2   5 1081.34 67.7613   1
  -4   2   6 9650.46 199.974   1
  -4  -2  -6 14933.3 877.749  -2
  -4  -2   6 14933.3 877.749   1
   4   2   7 6674.53 229.445   1
  -4   2   8 7713.80 286.976   1
  -5  -4  -7 12474.8 798.175  -2
  -4  -2   8 12474.8 798.175   1
  -4   2   9 3069.87 164.703   1
  -4  -2  10 6006.96 289.393   1
  -4   2  11-17.4853 163.698   1
   4   3   0 457.282 43.1904   1
  -4  -3   1 997.292 73.7750   1
   3  -5   0 1999.02 174.244  -2
   4  -3   1 1999.02 174.244   1
  -4   3  -1 967.047 66.5120  -2
  -4   3   1 967.047 66.5120   1
   4   3   2 1978.87 82.7240   1
   4   3   3 2603.89 224.646   1
   2  -7  -1 3084.58 264.190  -2
   4  -3   3 3084.58 264.190   1
  -5   1  -2 3469.62 333.390  -2
  -4   3   3 3469.62 333.390   1
  -4   3   4-0.96908 59.0493   1
  -4  -3  -5 2191.24 88.0532   1
  -4  -3  -6 922.148 90.2478   1
  -4   3   7 719.862 93.6952   1
   4   3   8 67.2532 112.732   1
   4  -3  -9 51.9117 106.909   1
  -4   3  10 508.390 157.572   1
   4   3  11 78.5665 179.412   1
  -4  -4   0 47221.1 622.857   1
  -4   4   0 57767.4 791.439  -2
  -4   4   0 57767.4 791.439   1
  -4   4  -1 11108.9 121.043   1
  -4  -4  -2 24896.8 445.366   1
   3  -6  -1 32963.2 513.212  -2
   4  -4   2 32963.2 513.212   1
   5  -2   1 24288.0 565.000  -2
   4  -4  -2 24288.0 565.000   1
   4  -4  -3 2795.70 74.8776   1
   4  -4  -4 12308.5 286.800   1
   2  -8  -2 39719.6 896.042  -2
   4  -4   4 39719.6 896.042   1
  -4   4   5 2628.18 128.305   1
   4  -4  -6 3812.28 185.814   1
  -4  -4  -7 3845.81 201.586   1
  -4   4   8 1248.23 173.105   1
  -4   4   9 2071.46 210.284   1
   4  -4 -10 1031.99 146.644   1
  -4   4  11 159.917 148.568   1
   4  -5   0 8531.34 186.633   1
  -4  -5  -1 350.031 65.0931   1
   4  -5  -1 552.895 72.5217  -2
   4  -5   1 552.895 72.5217   1
   5  -3   0 342.877 106.249  -2
   4  -5  -1 342.877 106.249   1
  -4  -5  -2 796.948 62.8947   1
   4  -5  -3 2370.40 77.7537   1
   3  -7  -2 8478.63 270.443  -2
   4  -5   3 8478.63 270.443   1
   4  -5  -4 23.0492 69.1425   1
   4  -5  -5 1580.52 126.697   1
   4  -5  -6 443.526 95.4862   1
   4  -5  -7 617.220 110.829   1
  -4   5   8 2114.10 196.968   1
  -4   5   9 98.1434 142.471   1
   4   5  10 83.5807 115.062   1
  -4   5  11 126.812 152.935   1
   4   6   0 3865.46 215.933   1
   5  -4  -1 11955.3 324.835  -2
   4  -6   0 11955.3 324.835   1
   4  -6  -1 7742.66 132.548   1
  -4  -6  -2 3323.78 128.759   1
   4  -6  -2 8220.70 443.442  -2
   4  -6   2 8220.70 443.442   1
  -4  -6  -3 385.004 49.6863   1
  -4   6   4 7350.58 207.593   1
  -4  -6  -5 390.701 79.1413   1
   4   6   6 7627.71 280.533   1
  -4  -6  -7 3247.67 192.882   1
  -4  -6  -8 6555.49 284.580   1
  -4   6   9 1349.67 187.422   1
  -4   6  10 4835.87 321.724   1
   4  -7   0 3158.77 208.163   1
   4   7   1 549.457 80.5285   1
   5  -5  -2 2804.68 293.104  -2
   4  -7   1 2804.68 293.104   1
   4  -7  -2 4156.63 146.692   1
   4   7   3 1389.91 95.3497   1
   4  -7  -3 2456.22 223.129  -2
   4  -7   3 2456.22 223.129   1
  -4   7   4 15.8765 71.5486   1
  -4   7   5 2009.32 126.987   1
  -4  -7  -6 2247.91 143.521   1
  -4  -7  -7 603.630 95.5873   1
   4  -7  -8 874.640 137.682   1
   4  -7  -9 22.9365 136.612   1
   4  -7 -10 711.118 158.529   1
   4   8   0 23612.2 553.803   1
   4  -8   1 3098.58 147.485   1
   4   8   2 15934.9 296.164   1
   5  -6  -3 30811.2 831.350  -2
   4  -8   2 30811.2 831.350   1
   4  -8   3 970.837 80.8273   1
  -4   8   4 8944.64 238.892   1
  -4  -8  -5 1098.05 107.692   1
   4  -8  -6 2829.93 160.900   1
   4  -8  -7 1048.05 139.230   1
  -4  -8  -8 992.326 147.274   1
   4  -8  -9 645.416 151.789   1
  -4   8  10 714.533 180.824   1
   4   9   0 9697.46 375.149   1
   4   9   1 152.656 76.1621   1
   4  -9  -2 1359.47 103.487   1
   4  -9  -3 2013.91 151.537   1
  -4  -9  -4 15.2284 88.8607   1
   4  -9  -5 1173.84 109.567   1
   4  -9  -6 906.443 108.985   1
  -4   9   7 352.374 118.728   1
   4   9   8 2485.02 209.170   1
   4   9   9-18.3826 151.008   1
   4 -10   0 1546.93 186.408   1
   4 -10   1 1794.60 133.922   1
   4  10   2 2380.46 140.252   1
   4 -10  -3 68.5213 95.9260   1
   4 -10  -4 4677.26 222.692   1
  -4 -10  -5 14.0919 81.6078   1
   4  10   6 5113.17 259.961   1
   4  10   7 681.066 139.467   1
   4  10   8 4656.67 271.476   1
  -4  10   9 204.805 156.475   1
   4 -11   0 2179.97 209.925   1
   4  11   1 293.895 82.7554   1
   4  11   2 3407.54 165.075   1
  -4 -11  -3 843.066 134.002   1
  -4 -11  -4 6.43207 113.665   1
  -4 -11  -5 1175.69 170.532   1
   4 -11  -6 2132.58 180.345   1
   4  11   7 362.803 131.983   1
  -4 -11  -8 879.722 147.090   1
   4 -12   0 10427.2 442.428   1
   4  12  -1 188.311 88.5502   1
   4 -12  -2 9324.86 319.302   1
   4  12  -3 210.312 107.555   1
  -4 -12  -4 6383.87 320.849   1
   4  12   5 252.497 131.726   1
   4  12   6 1848.97 179.995   1
  -4  12   7 53.7561 120.232   1
   4 -12  -8 721.760 159.870   1
   4 -13   0 4775.85 336.463   1
   4 -13   1 79.8860 102.474   1
   4  13  -2 580.903 118.248   1
  -4 -13  -3 1013.03 141.687   1
  -4 -13  -4 29.3723 127.452   1
  -4 -13  -5 768.591 159.650   1
  -4  13   6 607.740 135.414   1
  -4  13   7 246.512 151.402   1
   4  14   0 726.012 180.381   1
   4  14   1 117.183 123.374   1
   4  14  -2 1224.10 140.427   1
   4  14  -3 163.942 117.554   1
   4  14  -4 2663.88 207.516   1
   4 -14  -5 67.5628 146.207   1
  -4  14   6 2621.17 227.227   1
   4 -15   0 866.190 177.937   1
   4  15   1 172.980 128.180   1
   4  15  -2 1524.58 164.292   1
   4  15  -3 570.467 141.237   1
   4  15  -4 26.2217 132.043   1
  -4 -15  -5 680.566 141.470   1
   4  16   0 6501.51 558.176   1
   4  16  -1 135.868 139.748   1
   4 -16  -2 6103.46 335.759   1
   4 -16  -3-0.65860 131.887   1
  -4 -16  -4 2493.44 221.346   1
   4  17   0 1833.45 350.060   1
   4 -17  -1 69.0391 143.722   1
   5   0   0-41.4121 65.8149   1
   5   0   1 20821.4 516.627   1
  -3   4  -3 19617.4 367.228  -2
  -5   0   1 19617.4 367.228   1
  -5   0   2 3408.47 126.490   1
   5   0   3 57053.4 978.416   1
  -4   2  -4 64787.1 1475.30  -2
  -5   0   3 64787.1 1475.30   1
  -5   0   4 243.297 93.4818   1
   5   0   5 210.877 153.963   1
  -5   0  -5 469.993 208.412  -2
  -5   0   5 469.993 208.412   1
  -5   0   6 1336.25 173.060   1
   5   0   7 5490.73 433.728   1
  -6  -2  -6 14682.8 836.038  -2
  -5   0   7 14682.8 836.038   1
  -5   0   8 230.305 123.429   1
   5   0  -9 2724.38 230.508   1
  -5   0  10 518.031 141.111   1
  -5   0  11 182.693 323.424   1
  -5  -1   0 207.266 56.7023   1
   5   1  -1 926.387 48.7817   1
   5  -1   2 1891.68 130.375   1
   3  -3   4 2338.24 159.218  -2
   5   1  -2 2338.24 159.218   1
  -4   3  -3 3172.39 147.560  -2
  -5   1   2 3172.39 147.560   1
   5  -1  -3 402.478 52.0751   1
   5   1   4 1187.27 129.376   1
  -5   1  -4 1606.75 317.232  -2
  -5   1   4 1606.75 317.232   1
   5  -1   5 128.987 77.3939   1
   5  -1   6 1539.15 173.833   1
  -5  -1  -6 2060.22 395.463  -2
  -5  -1   6 2060.22 395.463   1
  -6  -1  -5 2806.71 401.804  -2
  -5   1   6 2806.71 401.804   1
  -5  -1   7 104.984 86.3437   1
   5  -1   8 90.0424 101.524   1
  -6  -3  -7 793.487 316.921  -2
  -5  -1   8 793.487 316.921   1
   5  -1   9 96.4015 100.426   1
   5   1  10 35.8784 114.241   1
   5   1  11 177.576 166.731   1
   5   2   0 20.0834 44.7949   1
  -5  -2  -1 3438.57 144.953   1
  -2   4  -4 14189.1 509.508  -2
  -5  -2   1 14189.1 509.508   1
   3  -6   1 5992.25 286.772  -2
   5  -2   1 5992.25 286.772   1
  -4   4  -2 9711.63 272.071  -2
  -5   2   1 9711.63 272.071   1
   5   2   2 115.401 28.9995   1
   5  -2   3 30908.3 519.543   1
  -5   2  -3 43166.9 530.661  -2
  -5   2   3 43166.9 530.661   1
   5   2   4 3315.97 105.430   1
   5  -2   5 349.290 104.252   1
  -6   0  -4 3624.64 386.761  -2
  -5   2   5 3624.64 386.761   1
   5  -2  -6 150.154 86.0781   1
   5  -2  -7 12785.1 352.072   1
   5   2   8 49.7771 99.1469   1
  -5   2   9 9897.16 321.959   1
   5   2  10 300.627 145.110   1
   5   2  11 332.827 186.149   1
   5   3   0 74.8314 66.4853   1
   4  -5   1 165.832 77.5246  -2
   5  -3   0 165.832 77.5246   1
  -5  -3   1 1341.77 52.0131   1
   5   3   2 69.6524 59.5117   1
   3  -7   0 197.751 120.773  -2
   5  -3   2 197.751 120.773   1
  -5   3  -2 86.5023 36.6503  -2
  -5   3   2 86.5023 36.6503   1
   5  -3   3 16.3480 23.1738   1
   5   3   4 5541.32 259.250   1
  -6   1  -3 7175.43 526.404  -2
  -5   3   4 7175.43 526.404   1
   5   3   5 15.8074 81.7780   1
  -5   3   6 254.069 91.9405   1
   5   3   7 104.727 87.1593   1
   5  -3  -8 235.414 130.434   1
  -5   3   9 327.910 140.079   1
  -5   3  10 123.248 159.761   1
  -5   3  11 75.8892 159.641   1
  -5   4   0 55.5203 33.9824   1
   5   4  -1 18132.7 299.276   1
   4  -6   0 17770.8 567.777  -2
   5  -4   1 17770.8 567.777   1
   5  -4   1 16062.0 231.720  -2
   5  -4  -1 16062.0 231.720   1
   5   4  -2 2210.82 79.0980   1
   5  -4   3 54061.4 473.970   1
   3  -8  -1 66888.3 1112.58  -2
   5  -4   3 66888.3 1112.58   1
  -6   2  -2 47172.4 896.727  -2
  -5   4   3 47172.4 896.727   1
   5  -4   4 45.8159 71.1573   1
   5  -4   5 219.094 83.0650   1
  -5   4   6 622.667 112.932   1
  -5   4   7 3920.48 255.771   1
   5   4   8 211.303 124.380   1
  -5   4   9 2839.61 246.923   1
  -5   4  10 484.954 154.860   1
   5   5   0 120.467 84.2150   1
  -5   5   0 87.0217 83.1337  -2
  -5   5   0 87.0217 83.1337   1
   5   5  -1 325.198 48.3938   1
   5   5   2 5183.85 192.473   1
   4  -7  -1 7314.96 396.367  -2
   5  -5   2 7314.96 396.367   1
  -6   3  -1 6005.43 310.075  -2
  -5   5   2 6005.43 310.075   1
  -5   5   3 997.608 60.8580   1
   5  -5  -4 42.4661 69.8689   1
   5  -5  -5 138.889 83.2674   1
  -5   5   6 3346.14 189.383   1
   5  -5  -7 74.1393 103.220   1
   5  -5  -8 119.250 149.925   1
  -5   5   9 7.49249 149.536   1
  -5   5  10 447.821 155.986   1
   5   6   0-13.5336 68.6123   1
   5   6   1 3046.83 166.010   1
   5  -6  -1 4328.09 401.766  -2
   5  -6   1 4328.09 401.766   1
  -6   4   0 20826.4 500.226  -2
  -5   6   1 20826.4 500.226   1
   5  -6   2 51.9339 47.8852   1
   5  -6  -3 16838.4 328.741   1
   4  -8  -2 30719.6 650.322  -2
   5  -6   3 30719.6 650.322   1
  -5  -6  -4 2301.99 150.069   1
   5   6   5 745.528 91.7033   1
   5   6   6 143.675 87.5686   1
   5   6   7 10029.4 337.965   1
  -5   6   8 37.5103 131.196   1
  -5   6   9 7595.88 389.725   1
   5  -6 -10 43.1347 160.470   1
   5   7   0 60.9657 128.300   1
  -6   5   1 232.189 97.0795  -2
  -5   7   0 232.189 97.0795   1
   5   7   1 1121.67 79.8696   1
  -5   7   2 264.841 69.3127   1
   5  -7  -2 883.934 190.350  -2
   5  -7   2 883.934 190.350   1
  -5   7   3 7.80893 71.3759   1
   5  -7  -4 8402.22 233.654   1
   5   7   5 118.476 78.7738   1
   5   7   6-8.55727 83.2584   1
  -5  -7  -7 157.756 92.8331   1
   5   7   8 267.974 138.018   1
   5  -7  -9 256.595 151.188   1
  -5   7  10 431.116 169.718   1
   5   8   0-14.1353 103.377   1
  -5   8   1 12920.3 262.141   1
   6  -6  -2 18034.6 717.893  -2
   5  -8   1 18034.6 717.893   1
  -5  -8  -2 1005.33 81.6549   1
  -5   8   3 24186.4 417.866   1
  -5  -8  -4 51.9205 78.4972   1
  -5   8   5 744.931 98.3978   1
  -5  -8  -6 350.974 94.9811   1
  -5   8   7 2571.90 166.736   1
   5   8   8 195.859 119.540   1
   5  -8  -9 1603.70 218.420   1
   5   9   0-12.1921 107.893   1
   5   9   1 176.685 66.6513   1
   5  -9  -2 4710.83 178.617   1
   6  -7  -3 6359.08 425.517  -2
   5  -9   2 6359.08 425.517   1
  -5   9   3 789.588 94.1624   1
  -5  -9  -4 469.189 95.1017   1
   5  -9  -5 228.685 85.1805   1
  -5   9   6 3260.97 183.376   1
   5  -9  -7 75.9367 115.192   1
  -5  -9  -8 178.587 135.204   1
   5  -9  -9 52.3756 155.740   1
   5  10   0 5.23018 130.381   1
   5 -10  -1 1004.20 115.595   1
   5 -10  -2 23.4300 82.7046   1
   5 -10  -3 6030.50 222.054   1
   5 -10  -4 808.623 109.451   1
   5 -10  -5 1800.71 138.238   1
   5 -10  -6 134.788 116.607   1
   5 -10  -7 5260.66 283.031   1
  -5 -10  -8 20.6647 133.051   1
   5  11   0 15.7810 126.025   1
   5  11  -1 822.093 117.934   1
   5  11  -2 619.403 131.502   1
   5  11  -3 128.469 78.1273   1
   5 -11  -4 6385.48 273.562   1
  -5 -11  -5 164.439 98.9026   1
   5 -11  -6 25.0994 130.059   1
  -5  11   7 47.5242 128.747   1
  -5  11   8 65.3263 133.402   1
   5  12   0 29.3151 127.307   1
   5 -12  -1 9795.78 311.848   1
   5  12  -2 303.492 120.266   1
   5 -12  -3 9079.62 364.401   1
   5  12  -4 172.113 100.320   1
   5 -12  -5 1644.42 177.808   1
  -5 -12  -6 247.162 121.406   1
   5 -12  -7 1110.42 169.298   1
   5  13   0 39.5553 144.739   1
   5  13   1 105.582 122.980   1
   5  13   2 3032.70 231.412   1
   5  13  -3 554.370 126.601   1
   5  13  -4 170.019 110.164   1
  -5 -13  -5 141.862 123.255   1
   5  13   6 1921.81 190.150   1
  -5 -13  -7 52.1910 231.076   1
   5  14   0 33.4309 151.174   1
   5  14  -1 1132.80 157.678   1
   5  14  -2 131.238 140.438   1
   5  14   3 2043.20 203.891   1
   5  14  -4 212.520 127.722   1
   5  14  -5 2194.56 180.661   1
  -5 -14  -6 98.6945 153.786   1
   5  15   0-82.2122 237.585   1
   5  15   1 295.382 136.465   1
   5  15  -2 106.665 144.391   1
   5  15  -3 44.9045 146.349   1
   5  15  -4 2543.69 242.241   1
   5  16   0-25.2904 238.465   1
   5 -16  -1 6507.01 347.639   1
   5  16  -2 94.4175 159.481   1
   5 -16  -3 3048.83 502.744   1
   6   0   0 53848.6 823.530   1
  -3   6  -3 52414.9 991.851  -2
  -6   0   0 52414.9 991.851   1
   6   0   1 9635.95 212.615   1
   6   0   2 13316.7 466.137   1
   4  -4   4 17095.8 402.350  -2
   6   0  -2 17095.8 402.350   1
   6   0  -3 169.756 56.9900   1
   6   0   4 7281.28 411.613   1
   5  -2   5 7814.57 432.559  -2
   6   0  -4 7814.57 432.559   1
  -6   0   5 32.6034 122.937   1
   6   0   6 10640.9 586.649   1
  -6   0  -6 15560.5 955.231  -2
  -6   0   6 15560.5 955.231   1
  -6   0   7 3465.99 285.429   1
   6   0  -8 312.014 144.773   1
  -7  -2  -7 1480.34 343.958  -2
  -6   0   8 1480.34 343.958   1
  -6   0   9 1453.87 194.942   1
  -6   0  10 1961.68 236.371   1
  -6  -1   0 421.269 62.0448   1
   6   1   1 1185.51 90.5283   1
  -3   5  -4 5501.56 363.474  -2
  -6  -1   1 5501.56 363.474   1
   4  -5   3 1945.00 140.957  -2
   6  -1  -1 1945.00 140.957   1
   6   1  -2 796.835 54.2343   1
   6   1   3 1631.12 141.665   1
   4  -3   5 2750.56 257.450  -2
   6   1  -3 2750.56 257.450   1
   5  -3   4 3978.25 196.597  -2
   6  -1  -3 3978.25 196.597   1
   6  -1   4 32.7267 53.3131   1
   6   1   5 1432.22 154.713   1
  -6   1  -5 2254.18 388.287  -2
  -6   1   5 2254.18 388.287   1
  -6   1   6 112.005 118.659   1
   6   1   7 225.721 141.975   1
  -7  -1  -6 837.762 322.293  -2
  -6   1   7 837.762 322.293   1
  -6   1   8 92.7437 109.429   1
   6  -1   9 113.550 102.856   1
   6   1  10 209.179 116.866   1
  -6  -2   0 21318.3 429.179   1
   4  -6   2 21829.5 669.623  -2
   6  -2   0 21829.5 669.623   1
   6  -2  -1 5296.43 109.969   1
   6  -2   2 4697.50 175.681   1
  -3   4  -5 20670.4 694.441  -2
  -6  -2   2 20670.4 694.441   1
   5  -4   3 19122.5 369.290  -2
   6  -2  -2 19122.5 369.290   1
  -6   2   3 3011.34 96.2292   1
   6  -2   4 4676.29 239.937   1
   6  -2   4 6357.04 287.377  -2
   6  -2  -4 6357.04 287.377   1
   6   2   5 1733.49 154.468   1
   6   2   6 15910.3 503.146   1
  -7   0  -5 21237.3 969.638  -2
  -6   2   6 21237.3 969.638   1
   6  -2  -7 1521.38 149.142   1
   6   2   8 1593.96 159.388   1
   6  -2   9 1038.31 154.732   1
   6  -2 -10 5017.26 331.917   1
   6   3   0 3167.19 130.214   1
  -6  -3  -1 2005.32 112.493   1
   4  -7   1 2368.76 226.477  -2
   6  -3   1 2368.76 226.477   1
   5  -5   2 3182.10 214.368  -2
   6  -3  -1 3182.10 214.368   1
   6   3  -2 10.6855 27.2147   1
   6   3   3 456.276 211.336   1
   3  -3   6 2353.08 243.673  -2
   6   3  -3 2353.08 243.673   1
   3  -9   0 2213.39 249.490  -2
   6  -3   3 2213.39 249.490   1
  -6   3  -3 1769.97 187.866  -2
  -6   3   3 1769.97 187.866   1
  -6   3   4 18.3092 84.9217   1
   6   3   5 632.490 129.583   1
   7  -1   4 1748.73 261.664  -2
   6  -3  -5 1748.73 261.664   1
  -6   3   6-13.9539 99.8290   1
   6  -3   7 987.928 137.693   1
   6   3   8 581.216 126.919   1
  -6   3   9 61.3843 135.531   1
   6   3  10 83.0981 167.498   1
   6   4   0 43013.7 661.916   1
   5  -6   1 38004.6 809.381  -2
   6  -4   0 38004.6 809.381   1
  -6   4   1 5644.06 108.227   1
   6   4  -2 8271.03 247.874   1
   4  -8   0 20567.3 605.227  -2
   6  -4   2 20567.3 605.227   1
  -6   4  -2 11098.2 426.279  -2
  -6   4   2 11098.2 426.279   1
   6   4  -3 54.7221 43.5225   1
   6  -4   4 6049.94 291.334   1
  -7   2  -3 7679.66 432.402  -2
  -6   4   4 7679.66 432.402   1
  -6   4   5 97.0006 87.1550   1
   6  -4  -6 8657.32 289.419   1
   6  -4  -7 2570.97 188.804   1
  -6   4   8 157.868 146.731   1
   6   4   9 1041.41 176.860   1
   6  -4 -10 1409.12 217.939   1
  -6   5   0 170.312 55.9852   1
  -6  -5  -1 276.600 72.0497   1
   5  -7   0 296.516 97.7045  -2
   6  -5   1 296.516 97.7045   1
   6  -5   1 587.398 136.793  -2
   6  -5  -1 587.398 136.793   1
   6  -5   2 2210.31 81.1953   1
   6  -5   3 2058.68 116.337   1
   4  -9  -1 1441.98 217.756  -2
   6  -5   3 1441.98 217.756   1
   7  -3   2 2309.98 254.286  -2
   6  -5  -3 2309.98 254.286   1
   6  -5  -4 39.1375 74.5364   1
  -6   5   5 2362.95 199.090   1
  -6   5   6 686.551 132.357   1
  -6   5   7 50.3825 121.447   1
  -6   5   8 49.1305 142.699   1
  -6   5   9 290.217 147.827   1
   6   5  10 344.307 180.128   1
   6   6   0 13246.4 419.312   1
   6  -6   0 17641.6 864.829  -2
   6  -6   0 17641.6 864.829   1
  -6  -6  -1 1951.74 104.423   1
  -6  -6  -2 2318.20 152.197   1
   5  -8  -1 7490.25 473.365  -2
   6  -6   2 7490.25 473.365   1
  -7   4  -1 9562.77 407.932  -2
  -6   6   2 9562.77 407.932   1
   6   6  -3 1409.41 105.577   1
   6  -6  -4 4155.32 201.811   1
  -6   6   5 1193.37 124.313   1
   6  -6  -6 11288.9 341.019   1
  -6   6   7 573.366 119.595   1
  -6   6   8 2024.17 221.946   1
  -6   6   9 596.491 154.328   1
   6   6  10 4312.96 500.589   1
   6  -7   0 4840.96 226.732   1
   6   7  -1 2304.25 165.387   1
   6  -7  -1 3764.62 409.641  -2
   6  -7   1 3764.62 409.641   1
   7  -5   0 3195.61 249.298  -2
   6  -7  -1 3195.61 249.298   1
   6   7  -2 184.162 59.3355   1
   6   7  -3 435.552 82.0531   1
   6   7   4 7.47916 85.8988   1
  -6  -7  -5 131.674 89.4140   1
   6   7   6 62.5810 103.871   1
  -6  -7  -7 1440.31 150.634   1
  -6   7   8 1417.17 160.401   1
  -6   7   9 158.957 145.654   1
   6   8   0 26660.4 878.989   1
   7  -6  -1 28033.7 978.468  -2
   6  -8   0 28033.7 978.468   1
   6   8  -1 1769.88 118.855   1
   6  -8  -2 6717.33 213.627   1
   6  -8  -2 9964.81 633.660  -2
   6  -8   2 9964.81 633.660   1
   6   8  -3-27.5800 76.5447   1
   6  -8  -4 4944.32 196.774   1
   6  -8  -5 28.3899 98.2358   1
  -6  -8  -6 5435.52 251.439   1
   6  -8  -7 880.398 132.710   1
  -6   8   8 371.031 151.830   1
   6  -8  -9 324.517 158.000   1
   6   9   0 770.954 151.058   1
   6   9  -1 731.324 126.259   1
   7  -7  -2 1652.25 293.279  -2
   6  -9   1 1652.25 293.279   1
  -6  -9  -2 2348.47 159.100   1
   6   9  -3 1380.90 119.805   1
   6   9  -4 31.1305 83.5320   1
   6   9   5 2001.26 164.365   1
  -6  -9  -6 972.177 139.959   1
  -6   9   7 296.027 118.843   1
   6  -9  -8 197.156 143.382   1
   6  10   0 4258.69 294.696   1
   6  10   1 257.080 85.6129   1
   6  10   2 1501.46 175.286   1
   6  10  -3 558.137 92.5625   1
   6  10   4 3005.12 174.564   1
   6 -10  -5 547.471 118.245   1
   6 -10  -6 5933.95 279.667   1
   6 -10  -7 193.504 150.226   1
   6 -10  -8 2222.87 236.519   1
   6  11   0 3126.76 270.037   1
   6  11  -1 1634.98 144.723   1
   6  11  -2 135.592 117.405   1
   6  11  -3 309.430 119.538   1
   6  11  -4 75.0744 105.750   1
   6  11  -5 47.3804 97.9026   1
   6 -11  -6 117.974 134.522   1
   6 -11  -7 1778.97 214.122   1
   6 -12   0 8874.21 436.301   1
   6  12   1 265.172 133.156   1
   6 -12  -2 5445.80 307.519   1
   6  12  -3 82.5292 135.961   1
   6 -12  -4 3906.56 277.613   1
   6  12  -5 181.281 123.939   1
   6  12   6 2338.50 239.894   1
   6 -12  -7 232.096 148.216   1
   6 -13   0 366.086 157.425   1
   6  13   1 459.124 130.104   1
   6  13  -2 1451.86 185.402   1
   6  13  -3 935.864 162.698   1
   6  13   4 12.4484 142.407   1
   6  13  -5 1236.32 188.933   1
   6  13   6 639.616 146.031   1
   6  14   0 1138.14 287.516   1
   6  14  -1 30.1363 127.550   1
   6  14  -2 1275.48 196.691   1
   6  14   3 204.091 134.450   1
   6  14  -4 2077.35 227.917   1
   6  14  -5 210.110 160.641   1
   6  15   0 2112.20 358.184   1
   6  15  -1 991.041 189.750   1
   6  15  -2 119.566 143.938   1
   6  15  -3 300.588 152.587   1
  -7   0   0 84.7539 67.6478   1
   7   0   1 24985.2 425.847   1
  -4   6  -4 29116.0 860.849  -2
  -7   0   1 29116.0 860.849   1
  -7   0   2 2400.33 127.932   1
   7   0   3 4055.60 351.712   1
   5  -4   5 6112.21 280.474  -2
   7   0  -3 6112.21 280.474   1
   7   0   4 10648.5 331.683   1
   7   0   5 12435.9 601.027   1
   7   0   6 342.992 195.479   1
   7   0   7 751.840 212.232   1
   7   0   8-51.3062 202.478   1
   7   0  -9 1563.87 242.660   1
   7   0  10 591.669 185.697   1
  -7  -1   0 364.879 93.3000   1
   4  -7   3 615.459 224.051  -2
   7  -1   0 615.459 224.051   1
   7   1  -1 1318.87 71.2271   1
   7  -1   2 325.981 88.3716   1
   4  -5   5 1283.05 151.807  -2
   7   1  -2 1283.05 151.807   1
   5  -5   4 567.465 116.374  -2
   7  -1  -2 567.465 116.374   1
   7  -1  -3 79.2943 48.6266   1
   7  -1   4 1134.84 160.246   1
   5  -3   6 1842.44 240.236  -2
   7   1  -4 1842.44 240.236   1
   7  -1   5 94.8058 72.3915   1
   7   1   6 451.028 139.810   1
  -7   1  -6 735.714 328.488  -2
  -7   1   6 735.714 328.488   1
   7   1   7 252.478 130.981   1
   7  -1  -8 104.880 126.905   1
  -8  -1  -7 493.882 362.779  -2
  -7   1   8 493.882 362.779   1
  -7   1   9 166.895 115.525   1
   7  -1  10-23.3483 129.687   1
  -7  -2   0 28.8486 72.2389   1
  -7  -2   1 7807.07 181.687   1
  -5   6  -3 13122.4 354.836  -2
  -7   2   1 13122.4 354.836   1
   7   2   2 7747.32 151.607   1
   7  -2   3 947.394 149.597   1
   4  -4   6 2381.60 264.909  -2
   7   2  -3 2381.60 264.909   1
  -6   4  -4 3711.82 377.955  -2
  -7   2   3 3711.82 377.955   1
  -7   2   4 2767.85 146.549   1
   7  -2   5 11431.7 417.907   1
   5  -2   7 16302.4 649.065  -2
   7   2  -5 16302.4 649.065   1
  -7   2  -5 18560.7 1056.27  -2
  -7   2   5 18560.7 1056.27   1
  -7   2   6 2452.78 195.446   1
   7  -2   7 3132.15 243.769   1
  -8   0  -6 3826.31 519.896  -2
  -7   2   7 3826.31 519.896   1
   7   2   8 311.400 118.640   1
  -7   2   9 3856.04 252.758   1
   7   2 -10 1085.11 171.260   1
  -7  -3   0 176.232 86.1776   1
   5  -7   2 140.639 140.400  -2
   7  -3   0 140.639 140.400   1
   7   3  -1 439.988 46.8273   1
  -7  -3  -2 1077.52 118.569   1
   3  -5   6 1397.91 235.475  -2
   7   3  -2 1397.91 235.475   1
   4  -9   1 1217.01 209.689  -2
   7  -3   2 1217.01 209.689   1
  -6   5  -3 1987.70 286.201  -2
  -7   3   2 1987.70 286.201   1
  -7   3   3 1490.90 95.5495   1
   7   3  -4 363.134 90.4310   1
  -7   3  -4 664.334 263.493  -2
  -7   3   4 664.334 263.493   1
  -7   3   5 385.279 101.960   1
   7   3   6 1073.54 171.876   1
   8  -1   5 1469.09 267.810  -2
   7  -3  -6 1469.09 267.810   1
  -7   3   7 96.4821 115.021   1
  -7   3   8 132.797 121.110   1
  -7   3   9 66.1406 151.153   1
   7  -3 -10 110.757 197.111   1
   7  -4   0 20.8075 56.3956   1
   7   4  -1 22305.7 370.898   1
   5  -8   1 24580.8 704.055  -2
   7  -4   1 24580.8 704.055   1
  -7   4   2 1482.77 82.8458   1
   7  -4   3 4864.45 186.637   1
  -7   4  -3 6475.54 584.513  -2
  -7   4   3 6475.54 584.513   1
  -7   4   4 7763.54 225.458   1
   7  -4   5 9435.10 396.271   1
   8  -2   4 12615.7 582.732  -2
   7  -4  -5 12615.7 582.732   1
   7  -4   6 376.998 103.625   1
  -7   4   7 736.132 132.396   1
  -7   4   8-4.01390 158.490   1
  -7   4   9 874.426 177.584   1
   7   5   0 451.541 116.108   1
   6  -7   1 1074.81 282.326  -2
   7  -5   0 1074.81 282.326   1
   7  -5   1 1953.57 85.4092   1
   7   5  -2 173.252 87.9940   1
   5  -9   0 458.527 120.617  -2
   7  -5   2 458.527 120.617   1
  -7   5  -2 113.051 103.015  -2
  -7   5   2 113.051 103.015   1
   7   5  -3 416.723 70.5101   1
  -7  -5  -4 2420.67 146.929   1
  -8   3  -3 3019.10 302.632  -2
  -7   5   4 3019.10 302.632   1
   7  -5   5 664.654 96.4434   1
  -7   5   6 150.625 143.478   1
  -7   5   7 191.015 131.649   1
  -7   5   8 349.863 136.344   1
  -7   5   9 488.440 150.374   1
   7   6   0 17.0571 89.2163   1
   7   6  -1 4882.80 234.473   1
   6  -8   0 13673.4 780.704  -2
   7  -6   1 13673.4 780.704   1
   7  -6   1 5258.65 543.548  -2
   7  -6  -1 5258.65 543.548   1
  -7  -6  -2 3537.58 139.738   1
  -7  -6  -3 1802.75 155.840   1
   8  -4   2 9554.65 450.651  -2
   7  -6  -3 9554.65 450.651   1
   7   6  -4 919.435 110.461   1
   7  -6  -5 8091.24 257.822   1
   7   6   6 1563.32 165.235   1
   7  -6  -7 2914.30 204.104   1
  -7   6   8 200.970 118.949   1
  -7   6   9 3055.02 228.946   1
   7   7   0 0.46737 113.941   1
   7  -7   0 98.0256 216.019  -2
   7  -7   0 98.0256 216.019   1
   7   7  -1 23.8175 77.7902   1
   7   7  -2 1476.26 138.888   1
   6  -9  -1 1465.93 271.388  -2
   7  -7   2 1465.93 271.388   1
   8  -5   1 2249.68 376.491  -2
   7  -7  -2 2249.68 376.491   1
   7  -7  -3 3203.61 161.804   1
   7   7  -4 119.755 84.3539   1
   7   7  -5 1150.37 118.022   1
  -7   7   6 1440.76 150.813   1
  -7  -7  -7 71.4803 122.552   1
  -7   7   8 59.9775 128.807   1
   7   7   9 70.3630 171.500   1
   7   8   0 1.62472 133.462   1
   7   8  -1 14249.9 413.539   1
   7  -8  -1 21566.0 992.899  -2
   7  -8   1 21566.0 992.899   1
   8  -6   0 12964.2 744.497  -2
   7  -8  -1 12964.2 744.497   1
   7  -8  -2 325.319 86.1897   1
  -7   8   3 4818.60 199.180   1
   7  -8  -4 3123.88 171.837   1
   7  -8  -5 5328.88 225.793   1
   7   8   6-7.50893 117.479   1
  -7   8   7 875.735 140.434   1
  -7   8   8 93.2808 123.172   1
   7  -9   0 147.567 128.945   1
   7   9  -1 1665.73 144.749   1
   7   9  -2-31.5562 91.5668   1
   7   9  -3 906.247 125.157   1
   7   9  -4 2082.48 157.472   1
   7   9  -5 892.166 109.820   1
   7  -9  -6-7.37450 110.673   1
  -7   9   7 453.071 127.897   1
   7  -9  -8 359.669 161.269   1
   7  10   0 84.4050 133.007   1
   7 -10  -1 1968.57 184.260   1
   7  10   2 1019.36 153.240   1
   7  10   3 1633.53 164.874   1
   7  10  -4 12.7247 115.437   1
   7  10   5 4034.87 208.920   1
   7 -10  -6 613.212 109.810   1
   7 -10  -7 2703.54 277.858   1
   7 -11   0-64.5815 158.103   1
   7  11  -1 75.8456 109.765   1
   7  11  -2 1096.95 173.136   1
   7 -11  -3 2462.65 222.119   1
   7 -11  -4 76.2347 116.343   1
   7 -11  -5 1223.57 146.480   1
   7 -11  -6 989.934 136.258   1
   7  12   0 3.25898 183.838   1
   7 -12  -1 7528.36 347.744   1
   7  12  -2 9.00294 149.716   1
   7 -12  -3 4158.91 279.391   1
   7  12  -4 520.167 157.862   1
   7 -12  -5 2935.93 271.342   1
   7  12  -6 58.9675 141.642   1
   7  13   0 13.4340 250.828   1
   7  13  -1 1077.48 165.776   1
   7  13  -2 15.3038 138.395   1
   7  13  -3 834.060 166.793   1
   7 -13  -4 1271.77 192.982   1
   7  13  -5 732.757 163.456   1
   7  14   0 47.2219 239.853   1
   7  14  -1 816.967 190.173   1
   7  14  -2 70.4444 148.830   1
   7  14  -3 1464.12 198.683   1
   7  15   0-144.803 250.060   1
   8   0   0 2410.22 182.578   1
  -8   0   1 10.6620 64.4883   1
   8   0   2 24687.5 774.406   1
   5  -6   5 31346.5 603.359  -2
   8   0  -2 31346.5 603.359   1
   8   0  -3 1337.22 113.385   1
   8   0   4 6377.33 454.063   1
   8   0   5 212.850 146.160   1
   8   0   6 127.659 217.741   1
   8   0   7 120.449 212.638   1
   8   0   8 6931.12 602.884   1
   8   0   9 74.9806 222.924   1
  -8   1   0 1000.22 86.7908   1
   8  -1   1 1481.83 95.1882   1
  -5   7  -4 3719.86 226.840  -2
  -8   1   1 3719.86 226.840   1
   8   1   2 460.199 58.9015   1
   8  -1   3 815.473 150.851   1
   5  -5   6 1553.19 224.371  -2
   8   1  -3 1553.19 224.371   1
  -6   5  -5 1750.17 296.694  -2
  -8   1   3 1750.17 296.694   1
   8   1  -4 97.5432 76.9936   1
   8  -1   5 403.404 125.618   1
   8   1   6 92.2269 123.657   1
   8  -1   7 287.220 142.937   1
   8   1   8 205.691 137.047   1
   8  -1   9-100.318 151.200   1
   8   1   9 72.0855 428.964  -2
   8   1  -9 72.0855 428.964   1
  -8  -2   0 6602.17 291.798   1
   5  -8   3 11542.8 488.172  -2
   8  -2   0 11542.8 488.172   1
  -8  -2  -1 491.174 64.4817   1
   8   2   2 14588.2 275.506   1
  -6   6  -4 17416.0 852.662  -2
  -8   2   2 17416.0 852.662   1
   8   2  -3 313.616 73.4342   1
   8  -2   4 5689.87 237.040   1
   8   2  -5 871.576 116.052   1
   8   2   6 518.846 141.963   1
   8   2   7 196.611 118.635   1
   8  -2  -8 10175.7 429.145   1
  -9   0  -7 14146.2 928.465  -2
  -8   2   8 14146.2 928.465   1
   8  -2  -9 67.8894 138.172   1
  -8  -3   0 625.637 116.869   1
  -8  -3   1 656.062 94.3699   1
   5  -9   2 2483.77 253.122  -2
   8  -3   1 2483.77 253.122   1
  -6   7  -3 1221.59 254.193  -2
  -8   3   1 1221.59 254.193   1
   8   3  -2 549.816 69.7133   1
   8   3  -3 1211.54 113.627   1
  -7   5  -4 2089.48 319.388  -2
  -8   3   3 2089.48 319.388   1
   8   3  -4 51.7107 86.6099   1
   8   3  -5 1092.21 138.137   1
  -8   3  -5 1897.59 407.016  -2
  -8   3   5 1897.59 407.016   1
   8   3  -6 67.5559 84.9250   1
   8  -3   7 112.727 132.985   1
  -9   1  -6 314.832 366.775  -2
  -8   3   7 314.832 366.775   1
   8  -3   8 121.515 133.016   1
  -8   3   9 149.684 123.913   1
   8   4   0 2347.32 199.529   1
   8   4  -1 33.3249 60.3477   1
   8   4  -2 22655.3 410.859   1
   5 -10   1 20893.0 682.042  -2
   8  -4   2 20893.0 682.042   1
  -7   6  -3 28253.3 1044.92  -2
  -8   4   2 28253.3 1044.92   1
   8   4  -3 940.598 95.1408   1
  -8  -4  -4 6160.88 229.654   1
  -8   4  -4 8900.58 556.610  -2
  -8   4   4 8900.58 556.610   1
   8   4  -5 302.708 84.3494   1
   8  -4  -6 219.484 98.8449   1
  -9   2  -5 2243.38 406.652  -2
  -8   4   6 2243.38 406.652   1
   8  -4  -7 190.886 117.125   1
   8  -4  -8 4957.22 334.343   1
  -8   4   9 52.6159 154.936   1
   8   5   0 946.317 165.089   1
   8   5   1 2536.36 154.863   1
   8   5  -2 275.804 72.6290   1
   8   5  -3 201.713 94.3259   1
   5 -11   0 70.9884 176.962  -2
   8  -5   3 70.9884 176.962   1
  -8   5  -3 184.028 183.005  -2
  -8   5   3 184.028 183.005   1
   8   5  -4 51.0269 69.1847   1
   8   5  -5 81.6008 90.3381   1
  -9   3  -4 41.5801 208.672  -2
  -8   5   5 41.5801 208.672   1
   8   5  -6 120.734 81.0113   1
  -8   5   7 1313.72 162.334   1
  -8   5   8 190.575 147.480   1
   8   6   0 3732.35 264.252   1
   7  -8   1 7347.25 665.916  -2
   8  -6   0 7347.25 665.916   1
   8   6  -1 173.283 71.6630   1
  -8  -6  -2 8365.69 312.653   1
   8  -6   2 14070.5 968.680  -2
   8  -6  -2 14070.5 968.680   1
   8   6  -3 234.847 78.8752   1
   8   6   4 4167.10 239.208   1
  -9   4  -3 5573.45 403.251  -2
  -8   6   4 5573.45 403.251   1
   8   6  -5 514.857 105.246   1
   8   6  -6 1007.70 118.144   1
  -8  -6  -7 172.926 110.497   1
   8  -6  -8 7456.27 336.619   1
  -8  -7   0 288.105 93.8151   1
   8   7  -1 1450.12 160.798   1
   7  -9   0 1300.69 329.969  -2
   8  -7   1 1300.69 329.969   1
   8  -7   1 1387.26 393.320  -2
   8  -7  -1 1387.26 393.320   1
   8   7  -2 483.424 111.040   1
   8   7  -3 1406.44 154.066   1
   9  -5   2 1234.50 384.434  -2
   8  -7  -3 1234.50 384.434   1
   8   7  -4 7.30400 92.2624   1
   8   7  -5 1276.51 128.068   1
   8   7  -6 119.149 112.058   1
   8   7  -7 419.368 104.896   1
  -8   7   8 139.097 127.334   1
   8   8   0 2307.45 308.537   1
   8  -8   0 4479.01 538.713  -2
   8  -8   0 4479.01 538.713   1
   8   8  -1 100.947 85.7165   1
   8   8  -2 12814.2 409.922   1
   9  -6   1 13437.0 854.349  -2
   8  -8  -2 13437.0 854.349   1
   8   8  -3 517.307 114.181   1
   8  -8  -4 4332.56 233.656   1
   8   8  -5 208.507 104.119   1
  -8   8   6 568.788 113.284   1
   8   8  -7 163.246 121.113   1
   8   9   0 763.239 165.945   1
   8   9  -1 2831.94 217.965   1
   8   9  -2 119.992 105.710   1
   8   9  -3 12.5110 115.478   1
   8   9  -4 109.208 118.157   1
   8   9  -5-44.6050 116.088   1
   8  -9  -6 71.8552 105.429   1
   8   9  -7 1456.48 156.338   1
   8  10   0 933.269 283.750   1
   9  -8  -1 3647.57 459.883  -2
   8 -10   0 3647.57 459.883   1
   8  10  -1 45.1774 123.211   1
   8  10  -2 3994.65 262.788   1
   8  10  -3 180.875 122.013   1
   8  10  -4 2670.78 201.312   1
   8  10  -5 274.511 137.167   1
   8  10  -6 1649.36 171.747   1
   8  11   0 277.384 211.139   1
   8  11  -1 1200.05 169.101   1
   8  11  -2 260.093 137.782   1
   8  11  -3 896.467 178.210   1
   8 -11  -4 78.6439 127.558   1
   8 -11  -5 1111.70 159.752   1
   8  12   0 3788.51 435.379   1
   8  12  -1 37.8516 139.214   1
   8 -12  -2 5309.68 310.923   1
   8  12  -3 290.229 138.532   1
   8  12  -4 2844.92 264.870   1
   8  13   0 383.119 256.033   1
   8  13  -1 1885.29 244.843   1
   8  13  -2 17.2395 132.579   1
   8  13  -3 65.4154 146.020   1
  -9   0   0-26.6669 91.2792   1
  -9   0  -1 13087.4 406.645   1
  -5   8  -5 12540.1 398.210  -2
  -9   0   1 12540.1 398.210   1
  -9   0   2 4492.84 267.974   1
   9   0   3 5433.90 423.886   1
  -6   6  -6 10781.1 609.835  -2
  -9   0   3 10781.1 609.835   1
   9   0   4 2161.59 289.335   1
   9   0   5 4880.33 448.900   1
   9   0   6 2641.63 341.151   1
   9   0   7 2089.93 342.045   1
   9   0   8 48.6955 226.375   1
  -9  -1   0 119.589 76.9511   1
  -5   9  -4 474.830 253.810  -2
  -9   1   0 474.830 253.810   1
  -9  -1  -1 579.834 66.8138   1
  -9  -1  -2 259.497 80.1259   1
   5  -7   6 287.933 170.137  -2
   9   1  -2 287.933 170.137   1
  -6   7  -5 353.050 247.902  -2
  -9   1   2 353.050 247.902   1
   9   1   3 471.880 105.794   1
   9  -1   4 574.888 161.604   1
   9  -1   5 61.2265 127.117   1
   9  -1   6 224.799 148.394   1
   9   1   7-22.4936 149.761   1
   9   1   8 65.4598 151.632   1
   9  -1   8-183.508 426.893  -2
   9  -1  -8-183.508 426.893   1
  -9   2   0 83.1439 86.4661   1
  -9  -2   1 4944.85 192.662   1
  -6   8  -4 7368.74 510.674  -2
  -9   2   1 7368.74 510.674   1
   9  -2   2 1361.96 90.2107   1
  -9  -2  -3 1883.24 133.949   1
  -7   6  -5 5433.98 467.885  -2
  -9   2   3 5433.98 467.885   1
   9  -2   4 5944.24 324.199   1
   9  -2   5 4662.04 301.757   1
   9   2   6 428.301 163.354   1
   9  -2   7 3569.52 298.642   1
   9  -2   7 6491.86 824.838  -2
   9  -2  -7 6491.86 824.838   1
   9   2   8-20.6880 151.526   1
   9   3   0 279.794 99.7880   1
  -6   9  -3 717.851 244.672  -2
  -9   3   0 717.851 244.672   1
   9   3  -1 1245.79 100.160   1
   9   3  -2 545.421 92.0298   1
  -7   7  -4 643.444 240.020  -2
  -9   3   2 643.444 240.020   1
   9   3  -3 33.2363 78.6402   1
   9   3   4 289.507 93.4461   1
   9  -3   5 134.815 127.482   1
   9  -3   6 360.117 167.328   1
   9  -3   6 299.178 454.254  -2
   9  -3  -6 299.178 454.254   1
   9  -3  -7 341.326 150.653   1
   9  -3  -8 94.6074 141.945   1
  -9  -4   0-16.0729 119.204   1
  -9  -4  -1 11066.1 307.965   1
  -7   8  -3 15423.2 800.062  -2
  -9   4   1 15423.2 800.062   1
   9   4   2 3556.53 204.837   1
   9   4   3 3807.38 231.015   1
   9   4  -4 1120.04 112.290   1
  -9  -4  -5 4308.85 219.745   1
   9  -4   5 6908.33 817.927  -2
   9  -4  -5 6908.33 817.927   1
  -9   4   6 1692.62 153.468   1
   9  -4  -7 1704.83 196.058   1
 -10   2  -6 3808.56 543.696  -2
  -9   4   7 3808.56 543.696   1
   9   4   8 60.4413 166.477   1
  -9  -5   0 143.340 134.694   1
   9  -5  -1 153.492 67.2795   1
   9   5  -2 113.370 107.253   1
   8  -7   3 617.606 335.227  -2
   9  -5  -2 617.606 335.227   1
   9   5  -3 1871.67 160.667   1
   9   5  -4 852.807 136.141   1
   9  -5   4 1196.33 446.456  -2
   9  -5  -4 1196.33 446.456   1
   9   5  -5 728.899 97.9406   1
   9   5  -6 303.489 96.4691   1
 -10   3  -5 173.963 340.046  -2
  -9   5   6 173.963 340.046   1
  -9   5   7 134.504 132.163   1
   9  -6   0 45.4007 106.817   1
   9   6  -1 4159.70 209.312   1
   7 -10   1 3773.69 424.423  -2
   9  -6   1 3773.69 424.423   1
   8  -8   2 7098.22 729.398  -2
   9  -6  -1 7098.22 729.398   1
   9   6  -2 409.515 95.2861   1
   9   6  -3 1433.72 175.746   1
   9  -6   3 1974.74 439.099  -2
   9  -6  -3 1974.74 439.099   1
   9   6   4 3482.78 215.451   1
   9  -6  -5 3698.72 230.809   1
 -10   4  -4 5266.09 567.880  -2
  -9   6   5 5266.09 567.880   1
   9   6  -6 132.114 105.427   1
  -9   6   7 3138.10 237.143   1
   9   7   0 302.206 156.291   1
   8  -9   1 1097.10 311.251  -2
   9  -7   0 1097.10 311.251   1
   9   7  -1 1503.52 143.480   1
   9   7  -2 356.951 122.427   1
   9  -7   2 490.921 358.084  -2
   9  -7  -2 490.921 358.084   1
   9   7  -3 472.217 104.001   1
   9   7  -4 79.9736 114.727   1
   9   7  -5 802.488 135.712   1
   9   7  -6 352.335 117.476   1
   9   7  -7 479.920 120.814   1
   9  -8   0 31.0860 133.301   1
   9   8  -1 8163.15 340.375   1
   9  -8   1 11507.3 878.519  -2
   9  -8  -1 11507.3 878.519   1
   9   8  -2 1195.89 145.116   1
   9   8  -3 2777.41 205.702   1
   9   8  -4 85.1215 111.079   1
   9   8   5 3180.10 225.701   1
   9   8  -6 861.027 147.147   1
   9   9   0 86.5772 226.169   1
   9   9  -1 54.4328 131.212   1
   9   9   2 51.2281 110.070   1
   9   9  -3 2469.91 195.178   1
   9   9  -4 759.181 142.322   1
   9   9  -5 1203.65 163.296   1
   9   9  -6 197.414 131.418   1
   9  10   0-36.4890 195.610   1
   9 -10  -1 2056.12 203.712   1
   9  10  -2 72.1980 126.500   1
   9  10  -3 1038.75 148.698   1
   9  10  -4 1044.07 159.325   1
   9  10  -5 2470.02 214.888   1
   9  11   0-47.0438 202.103   1
   9  11  -1 1226.77 177.413   1
   9 -11  -2 419.197 157.351   1
   9 -11  -3 744.731 176.095   1
   9 -11  -4 79.7553 140.908   1
   9  12   0 113.048 241.694   1
   9  12   1 4552.63 353.378   1
   9  12  -2 263.424 146.036   1
 -10   0   0 19281.6 809.421   1
 -10   0  -1 776.652 120.818   1
  10   0   2 2520.38 185.642   1
  10   0   3 1064.11 169.769   1
  10   0   4 4509.87 441.654   1
  10   0   5 1417.51 274.239   1
  10   0   6 3063.14 398.640   1
  10   0   7 542.230 255.315   1
 -10   1   0 714.320 127.275   1
 -10  -1  -1 910.283 134.087   1
  -5  11  -4 3221.35 423.243  -2
 -10   1  -1 3221.35 423.243   1
  -6   9  -5 1777.69 355.711  -2
 -10   1   1 1777.69 355.711   1
 -10  -1  -2 233.781 77.5193   1
  10  -1   3 559.255 119.167   1
  -7   7  -6 1156.80 295.581  -2
 -10   1   3 1156.80 295.581   1
  10  -1   4 193.684 134.886   1
  10  -1   5 419.107 155.231   1
  10  -1   6 32.9320 157.600   1
  10   1   7 102.584 162.375   1
  10   2   0 10375.0 422.957   1
  -6  10  -4 11552.3 641.098  -2
 -10   2   0 11552.3 641.098   1
 -10   2  -1 2192.84 121.060   1
 -10  -2  -2 1510.21 170.025   1
  -7   8  -5 3524.52 420.646  -2
 -10   2   2 3524.52 420.646   1
 -10  -2  -3 120.691 90.5416   1
  10  -2   4 3189.91 229.739   1
  10   2   5 48.6130 139.069   1
  10   2   6 4665.27 344.471   1
  10  -2  -7 1220.63 184.349   1
 -10   3   0 199.565 101.582   1
 -10  -3  -1 655.840 109.780   1
  -7   9  -4 1927.30 334.963  -2
 -10   3   1 1927.30 334.963   1
 -10  -3  -2 688.778 113.476   1
  10   3   3 264.413 147.014   1
  10   3   4 211.929 165.186   1
  10   3   5 195.658 124.954   1
  10  -3  -6 239.780 117.693   1
  10  -3   7 308.157 162.762   1
  10  -3   7 220.212 494.312  -2
  10  -3  -7 220.212 494.312   1
  10   4   0 15690.7 539.744   1
  -7  10  -3 22355.6 1073.51  -2
 -10   4   0 22355.6 1073.51   1
 -10   4   1 566.065 87.0423   1
 -10  -4  -2 2095.75 181.259   1
  10   4  -3 657.048 123.830   1
 -10  -4  -4 3384.44 297.062   1
   9  -6   5 5305.00 801.966  -2
  10  -4  -4 5305.00 801.966   1
  10  -4  -5 1027.64 164.373   1
  10   4   6 3988.35 349.032   1
  10  -4   6 6354.58 782.666  -2
  10  -4  -6 6354.58 782.666   1
  10  -4   7 195.518 117.923   1
  10  -5   0 1706.87 176.471   1
  10  -5   1 420.418 91.4737   1
   8  -9   3 413.067 371.637  -2
  10  -5  -1 413.067 371.637   1
  10  -5  -2-21.6404 114.866   1
  10   5  -3 402.860 119.463   1
   9  -7   4 287.153 394.980  -2
  10  -5  -3 287.153 394.980   1
  10   5  -4 63.2638 113.627   1
 -10  -5  -5 396.031 171.444   1
  10  -5   5 227.881 460.162  -2
  10  -5  -5 227.881 460.162   1
 -10  -5  -6 99.3462 185.127   1
  10   6   0 7292.64 392.689   1
   8 -10   2 5934.66 605.363  -2
  10  -6   0 5934.66 605.363   1
  10  -6  -1 1022.26 124.525   1
  10   6  -2 713.804 148.155   1
   9  -8   3 1408.89 410.178  -2
  10  -6  -2 1408.89 410.178   1
 -10  -6  -3 159.496 104.697   1
  10   6  -4 2545.17 213.834   1
  10  -6   4 3598.72 634.744  -2
  10  -6  -4 3598.72 634.744   1
  10   6  -5 96.2107 124.862   1
  10   6   6 3884.77 299.625   1
  10  -7   0 18.8370 127.674   1
  10   7   1 1088.37 152.979   1
   9  -9   2 1348.37 410.452  -2
  10  -7  -1 1348.37 410.452   1
  10   7  -2 664.640 134.184   1
  10   7  -3-80.3536 132.886   1
  10  -7   3-103.147 390.479  -2
  10  -7  -3-103.147 390.479   1
  10   7  -4 104.978 122.052   1
  10   7  -5 87.5315 125.106   1
  10   8   0 9501.70 648.836   1
  10  -8  -1 203.698 108.238   1
  10   8  -2 2401.62 214.979   1
  10  -8   2 3185.39 551.196  -2
  10  -8  -2 3185.39 551.196   1
  10   8  -3 439.701 123.700   1
  10   8  -4 2508.24 201.031   1
  10   8  -5 639.474 145.924   1
  10   9   0 2133.13 326.737   1
  10   9   1 604.271 182.113   1
  10  -9   1 687.368 362.701  -2
  10  -9  -1 687.368 362.701   1
  10   9  -2-58.9637 125.693   1
  10   9  -3 415.343 133.967   1
  10   9  -4-84.8852 125.262   1
  10  10   0 2661.05 403.033   1
  10  10   1 356.928 157.820   1
  10  10  -2 900.592 176.531   1
  10  10  -3 270.473 148.289   1
  10  11   0 198.166 255.285   1
 -11   0   0 29.8803 205.429   1
 -11   0   1 2595.78 240.608   1
 -11   0  -2 21.3831 139.204   1
  11   0   3 8779.60 434.210   1
  11   0   4 1651.18 311.070   1
  11   0   5 101.399 221.490   1
  11   0   6 28.9089 193.163   1
 -11  -1   0 26.1508 181.126   1
  -6  11  -5 390.584 302.346  -2
 -11   1   0 390.584 302.346   1
 -11   1  -1 655.195 109.416   1
 -11   1  -2 300.170 120.633   1
  -7   9  -6 6.74310 302.560  -2
 -11   1   2 6.74310 302.560   1
 -11  -1  -3 190.955 158.618   1
 -11  -1  -4 248.006 143.328   1
  11   1   5 45.8629 127.765   1
  11  -1   6 146.333 158.583   1
 -11   2   0-93.3511 157.245   1
 -11  -2  -1 1437.86 179.368   1
  -6  12  -4 2972.71 424.753  -2
 -11   2  -1 2972.71 424.753   1
  -7  10  -5 3069.61 402.445  -2
 -11   2   1 3069.61 402.445   1
  11   2   2 1194.42 146.804   1
  11   2   3 7364.73 409.394   1
 -11  -2  -4 51.3116 171.096   1
 -11  -2  -5 206.852 150.666   1
 -11  -3   0-234.920 189.823   1
  -7  11  -4-25.8983 279.969  -2
 -11   3   0-25.8983 279.969   1
 -11   3   1 273.882 100.124   1
 -11  -3   2 76.4462 139.177   1
  11   3   3 267.465 175.941   1
 -11  -3  -4 632.995 171.310   1
  11  -3  -5 103.893 157.448   1
  11   4   0 97.3993 110.992   1
  11   4  -1 2893.55 188.426   1
  -7  12  -3 5302.99 561.110  -2
 -11   4  -1 5302.99 561.110   1
  11   4   2 2.79620 155.979   1
  11   4   3 8872.46 480.002   1
  11   4   4 1388.36 202.657   1
 -11  -4  -5 530.700 188.943   1
  10  -6   6 3307.99 695.755  -2
  11  -4  -5 3307.99 695.755   1
  11   5   0 390.185 149.359   1
   8 -11   3 888.756 358.230  -2
  11  -5   0 888.756 358.230   1
  11  -5  -1 505.865 99.8372   1
 -11  -5  -2 341.006 135.169   1
   9  -9   4 674.319 380.154  -2
  11  -5  -2 674.319 380.154   1
  11  -5  -3 15.6334 162.887   1
 -11  -5  -4 130.884 187.155   1
  10  -7   5-11.6584 425.986  -2
  11  -5  -4-11.6584 425.986   1
  11  -5  -5 61.5204 171.999   1
  11   6   0-68.7341 148.322   1
  11   6   1 1244.19 176.025   1
   9 -10   3 1842.34 427.481  -2
  11  -6  -1 1842.34 427.481   1
  11  -6  -2 572.756 123.738   1
  11   6   3 4468.14 286.264   1
  10  -8   4 5876.78 829.876  -2
  11  -6  -3 5876.78 829.876   1
  11  -6  -4 6.88619 166.199   1
  11   7   0 142.708 213.774   1
  11   7  -1 121.919 109.834   1
  11   7   2 274.218 136.766   1
  10  -9   3 275.594 414.401  -2
  11  -7  -2 275.594 414.401   1
  11   7  -3 326.166 126.479   1
  11   8   0-21.4429 221.069   1
  11   8  -1 2704.14 230.200   1
  11  -8  -2-32.6115 129.000   1
 -12   0   0 2738.12 402.581   1
 -12   0  -1 3187.75 304.102   1
 -12   0  -2 4925.11 362.338   1
 -12   0  -3 90.8894 262.068   1
 -12   1   0 243.871 170.389   1
 -12  -1  -1 233.656 135.186   1
  -6  13  -5 1234.47 371.327  -2
 -12   1  -1 1234.47 371.327   1
 -12  -1   2 388.281 140.001   1
 -12  -1  -3 559.817 185.387   1
 -12   2   0 1671.15 235.662   1
 -12   2  -1 1166.27 174.302   1
 -12  -2  -2 2738.94 292.110   1
  -6  14  -4 3522.64 505.439  -2
 -12   2  -2 3522.64 505.439   1
 -12   2  -3 1026.34 199.145   1
 -12   3   0 1592.37 229.047   1
 -12  -3  -1 278.717 171.347   1
  -7  13  -4 890.631 387.857  -2
 -12   3  -1 890.631 387.857   1
 -12   3  -2 76.7935 143.885   1
 -12  -3  -3 120.739 204.709   1
 -12  -4   0 4300.69 486.614   1
 -12   4  -1 1913.05 179.551   1
 -12  -4  -2 3543.94 321.415   1
  -7  14  -3 5362.81 565.519  -2
 -12   4  -2 5362.81 565.519   1
  12   5   0-26.9320 178.711   1
  12  -5  -1 114.123 143.685   1
  12  -5  -2 83.9984 385.169   1
   0  -1   1 82.0831 34.2014   2
   0  -1  11-102.519 215.663   2
   0  -1  12 71.6661 227.133   2
   0  -2   0 30305.3 354.611   2
   0  -2   1 17.6097 30.1004   2
   0  -2   2 3142.78 126.585   2
   0  -2   3 38.6633 58.5242   2
   0  -2   9 0.40365 171.066   2
   0  -2  10 5169.28 470.120   2
   0  -2  11-66.3193 242.219   2
   0  -2  12 1059.52 321.899   2
   0  -3   0-25.3006 69.3608   2
   0  -3   1 3663.70 171.286   2
   0  -3   2 163.408 50.2783   2
   0  -3   3 803.968 99.7265   2
   0  -3   4-5.57141 86.5952   2
   0  -3   5 795.274 147.983   2
   0  -3   6 8.97442 110.411   2
   0  -3   7 850.742 196.740   2
   0  -3   8-5.17489 166.499   2
   0  -3   9 101.449 179.673   2
   0  -3  10 81.9266 230.798   2
   0  -3  11-0.58044 206.542   2
   0  -3  12-55.6441 214.507   2
   0  -4   0 131258. 1048.89   2
   0   4   1 3.32277 22.9499   2
   0   4  -2 6617.38 204.000   2
   0  -4   3 15.6134 54.3639   2
   0  -4   4 6869.42 264.142   2
   0   4  -5 5.48216 98.1053   2
   0  -4   6 6510.67 411.161   2
   0  -4   7 0.35035 161.654   2
   0  -4   8 411.099 190.530   2
   0  -4   9 21.4263 194.403   2
   0  -4  10 1163.62 297.399   2
   0  -4  11-77.3633 214.444   2
   0  -5   0 0.13501 67.1437   2
   0  -5  -1 964.744 96.0192   2
   0  -5  -2 60.7566 43.1448   2
   0   5  -3 2768.33 159.667   2
   0  -5   4 20.0355 87.9634   2
   0  -5   5 2305.07 187.635   2
   0  -5   6 4.88706 163.934   2
   0  -5   7-26.9309 169.844   2
   0  -5   8 5.80927 204.453   2
   0  -5   9 412.786 222.327   2
   0  -5  10 18.5212 216.791   2
   0  -5  11-44.7164 254.894   2
   0  -6   0 15123.4 457.777   2
   0  -6   1-41.7575 91.2835   2
   0  -6  -2 512.883 72.4464   2
   0  -6  -3-0.81954 53.8133   2
   0   6  -4 2346.30 175.264   2
   0  -6   5-26.3116 102.425   2
   0  -6   6 10071.3 384.806   2
   0  -6   7-0.41902 169.176   2
   0  -6   8 618.277 213.115   2
   0  -6   9 215.919 215.018   2
   0  -6  10 3033.16 394.585   2
   0  -6  11 48.4139 265.959   2
   0  -7   0 0.20071 128.692   2
   0  -7  -1 4408.15 215.613   2
   0  -7  -2 419.535 64.4437   2
   0  -7  -3 368.581 66.2198   2
   0  -7   4 0.82959 98.8837   2
   0   7  -5 178.943 111.738   2
   0  -7   6-56.9200 118.711   2
   0  -7   7 2195.49 294.091   2
   0  -7   8-72.7314 205.792   2
   0  -7   9 269.978 205.768   2
   0  -7  10 0.56527 192.415   2
   0  -7  11 13.9227 258.318   2
   0  -8   0 36987.8 809.119   2
   0  -8  -1 16.7037 85.2099   2
   0  -8  -2 6146.81 180.586   2
   0  -8  -3 9.06891 57.7542   2
   0  -8  -4 4324.08 181.798   2
   0  -8   5 45.4477 106.655   2
   0  -8   6 3483.57 264.013   2
   0   8  -7-5.13593 132.237   2
   0  -8   8 89.4574 204.565   2
   0  -8   9-124.652 229.047   2
   0  -8  10 756.076 251.288   2
   0  -9   0 121.590 140.210   2
   0  -9  -1 1544.77 155.713   2
   0  -9  -2 140.855 58.6036   2
   0  -9  -3 1972.16 127.480   2
   0  -9  -4 123.530 71.8254   2
   0   9  -5 1871.82 202.304   2
   0   9  -6 3.50892 138.895   2
   0   9  -7 114.995 166.818   2
   0  -9   8-7.89481 211.371   2
   0  -9   9 580.730 249.266   2
   0  -9  10-28.3766 216.803   2
   0 -10   0 3390.38 314.358   2
   0 -10  -1 161.771 114.322   2
   0 -10  -2 185.281 68.3567   2
   0 -10  -3 8.50714 70.7518   2
   0 -10   4 1585.04 189.903   2
   0 -10   5-0.99677 129.641   2
   0 -10   6 4245.56 310.911   2
   0  10  -7 60.0097 147.520   2
   0 -10   8 978.860 244.258   2
   0 -10   9-56.2914 256.367   2
   0 -10  10 1225.65 319.832   2
   0 -11   0 19.6234 143.013   2
   0 -11  -1 3059.39 231.417   2
   0 -11   2 280.827 132.487   2
   0 -11  -3 177.464 130.378   2
   0  11  -4-85.9318 141.602   2
   0  11  -5 16.7949 141.571   2
   0  11  -6 117.508 158.569   2
   0  11  -7 1682.97 227.325   2
   0 -11   8 1.40862 149.723   2
   0 -11   9 205.599 238.222   2
   0 -12   0 12670.5 626.994   2
   0 -12  -1 93.1875 112.643   2
   0 -12  -2 5043.99 308.017   2
   0 -12  -3 58.1968 131.026   2
   0 -12   4 2588.00 262.107   2
   0  12  -5-168.327 171.815   2
   0  12  -6 675.339 205.628   2
   0  12  -7 0.57841 164.749   2
   0 -12   8-0.67270 184.843   2
   0 -12   9 89.2365 262.842   2
   0 -13   0 43.1181 186.201   2
   0 -13  -1 649.501 151.414   2
   0 -13   2 110.953 136.409   2
   0 -13  -3 857.698 178.421   2
   0  13  -4 45.9052 162.628   2
   0  13  -5 1016.81 215.022   2
   0  13  -6-58.1599 188.752   2
   0  13  -7-41.2002 202.827   2
   0 -13   8 26.7203 196.155   2
   0 -14   0 269.427 191.195   2
   0 -14  -1 17.9449 153.417   2
   0 -14  -2 330.879 146.897   2
   0 -14  -3 67.3437 133.292   2
   0  14  -4 936.465 216.075   2
   0  14  -5 26.3125 192.295   2
   0  14  -6 1199.27 229.673   2
   0 -14   7-107.454 201.766   2
   0 -15   0-79.1544 215.513   2
   0 -15  -1 1197.34 197.938   2
   0 -15  -2 159.730 160.291   2
   0 -15  -3 564.132 191.692   2
   0  15  -4 552.660 210.635   2
   0  15  -5 217.093 215.951   2
   0 -15   6 59.4744 227.441   2
   0 -16   0 4929.53 464.695   2
   0 -16  -1-31.0893 158.433   2
   0 -16  -2 3861.74 313.017   2
   0 -16   3 42.9585 280.448   2
   0  16  -4 1671.63 283.786   2
   0  16  -5 117.459 184.301   2
   0 -17   0 28.5786 235.310   2
   0 -17  -1 145.304 157.358   2
   0 -17  -2 7.86067 167.400   2
   0  17  -3 568.824 204.433   2
   0 -17   4 214.326 296.465   2
  -1   0  -2 5946.23 169.645   2
  -1   0  12 730.035 245.714   2
   1   1   0 20.4155 32.5906   2
  -1  -1   1 142.211 20.8049   2
   1   1  -2 2248.51 194.171   2
   1   1  -3 103.913 99.6628   2
  -1  -1  11 46.6886 148.700   2
  -1  -1  12 2.58619 165.946   2
   1   2   0 14.8477 31.8948   2
  -1  -2   1 2416.88 71.9079   2
  -1  -2  -2 7896.65 99.8066   2
   1   2  -3 10253.8 261.710   2
  -1  -2   4 5994.37 304.932   2
  -1  -2   8 78.7172 169.894   2
  -1  -2   9 3682.59 241.321   2
  -1  -2  10 693.530 162.506   2
  -1  -2  11 732.568 175.145   2
  -1  -2  12 471.700 167.973   2
   1   3   0 551.846 79.8723   2
   1   3   1 79.0775 29.9956   2
   1  -3   2 807.404 57.3267   2
  -1  -3   3 780.461 60.9899   2
  -1  -3   4 2678.82 132.030   2
  -1  -3   5 205.395 74.9272   2
  -1  -3   6 368.173 93.2888   2
  -1  -3   7-21.3605 93.2261   2
   1  -3   8 85.8571 121.650   2
  -1  -3   9 152.859 143.588   2
  -1  -3  10-56.3089 139.933   2
  -1  -3  11 82.2312 153.515   2
  -1  -3  12 242.564 182.031   2
   1   4   0 44.7323 48.7689   2
   1   4  -1 20126.1 240.571   2
   1   4   2 3856.28 82.9933   2
  -1  -4   3 17759.9 250.821   2
  -1  -4  -4 5217.16 142.002   2
  -1   4  -5 1354.51 120.108   2
  -1  -4   6 857.047 146.952   2
  -1  -4   7 1221.46 163.668   2
  -1  -4   8 20.2050 128.949   2
   1  -4   9 602.793 155.827   2
   1  -4  10 453.893 167.631   2
  -1  -4  11 182.801 174.284   2
   1   5   0 181.703 71.5050   2
   1  -5  -1 752.896 35.3510   2
   1   5   2 2409.53 75.5508   2
   1   5   3 1256.82 61.6311   2
  -1  -5   4 464.869 68.9507   2
  -1  -5   5 779.837 92.2866   2
  -1  -5   6 992.835 154.938   2
  -1  -5   7 32.2495 122.264   2
  -1  -5   8 107.767 127.521   2
  -1  -5   9 87.5336 137.016   2
  -1  -5  10 85.4043 167.960   2
  -1  -5  11 117.277 192.967   2
   1   6   0 162.109 71.8711   2
   1  -6  -1 1335.02 52.8537   2
   1  -6  -2 3315.91 73.7718   2
  -1  -6  -3 6156.81 150.705   2
   1   6   4 2353.72 86.3775   2
  -1  -6   5 1941.76 126.235   2
  -1  -6   6 806.473 120.747   2
   1  -6   7 4649.72 290.952   2
  -1  -6   8 117.856 130.059   2
   1  -6   9 3162.65 294.795   2
  -1  -6  10 284.798 171.098   2
   1  -6  11 824.575 214.596   2
   1   7   0 1111.84 95.7726   2
   1  -7  -1 357.157 36.4563   2
  -1  -7  -2 269.937 40.6323   2
  -1  -7  -3 2210.52 79.5081   2
   1   7   4 2897.66 92.4034   2
  -1  -7  -5 936.984 93.3026   2
   1  -7   6 367.126 91.0068   2
  -1  -7   7 25.9007 120.842   2
  -1  -7   8 91.9613 149.145   2
  -1  -7   9 12.3361 141.527   2
  -1  -7  10 79.9379 162.923   2
  -1  -7  11 308.625 172.020   2
   1   8   0-18.9784 63.2120   2
   1   8   1 12735.1 210.318   2
   1  -8  -2 884.534 48.8200   2
  -1  -8  -3 10120.2 208.577   2
  -1  -8  -4 1411.04 96.6134   2
  -1  -8  -5 1414.18 109.897   2
  -1   8  -6 113.911 99.3956   2
  -1  -8   7 640.266 130.203   2
  -1  -8   8-53.2774 146.409   2
  -1  -8   9 424.340 164.995   2
  -1  -8  10 92.9986 159.081   2
  -1  -9   0 413.593 110.011   2
   1  -9  -1 690.707 58.4676   2
   1  -9  -2 1844.65 76.2514   2
  -1  -9  -3 1422.01 105.122   2
  -1  -9  -4 201.952 67.1897   2
  -1  -9  -5 916.051 94.7098   2
   1  -9   6 783.702 122.995   2
  -1   9  -7 52.0961 112.679   2
  -1  -9   8-61.7396 133.360   2
   1  -9   9 98.9141 158.838   2
  -1  -9  10 4.85776 177.947   2
   1 -10   0 476.127 119.180   2
  -1 -10  -1 1012.76 107.873   2
  -1 -10  -2 335.239 68.6615   2
  -1 -10  -3 2142.81 122.425   2
  -1 -10  -4 272.248 79.3947   2
  -1 -10  -5 1805.83 123.071   2
  -1  10  -6 141.816 106.062   2
  -1 -10   7 2461.98 180.574   2
   1 -10   8 52.2158 127.392   2
   1 -10   9 1886.06 243.930   2
  -1 -10  10 18.2609 165.776   2
   1 -11   0 571.699 114.914   2
   1 -11  -1 274.560 88.1459   2
  -1 -11  -2 102.257 64.9964   2
  -1 -11  -3 1420.92 126.813   2
   1  11  -4 1178.05 138.048   2
   1 -11   5 843.570 123.534   2
  -1  11  -6 136.089 112.354   2
  -1  11  -7 62.3808 110.576   2
  -1  11  -8 128.972 129.841   2
   1 -11   9-7.07621 167.200   2
  -1 -12   0-24.2609 125.665   2
  -1 -12   1 6975.43 243.981   2
   1 -12  -2 61.6202 90.8549   2
  -1 -12  -3 3966.72 225.235   2
  -1  12  -4 75.3224 102.573   2
   1 -12   5 1039.70 141.602   2
  -1  12  -6-57.0731 125.309   2
   1  12  -7 378.933 128.166   2
   1 -12   8 135.149 129.018   2
   1 -12   9 107.207 178.025   2
   1 -13   0 122.770 132.706   2
   1 -13   1 291.837 91.6546   2
   1 -13  -2 881.518 127.765   2
  -1 -13   3 877.483 135.474   2
  -1  13  -4 178.612 122.233   2
  -1 -13   5 524.014 132.320   2
  -1  13  -6 325.458 148.749   2
   1 -13   7-18.0914 149.133   2
   1 -13   8 96.9520 140.612   2
   1 -14   0-5.11224 140.094   2
   1 -14  -1 473.928 105.077   2
   1 -14  -2 76.0173 110.812   2
  -1 -14  -3 853.844 145.570   2
  -1  14  -4 32.8516 123.997   2
   1 -14   5 1261.44 171.160   2
  -1  14  -6-11.2947 143.705   2
   1 -14   7 1130.07 182.826   2
   1 -15   0 362.249 158.977   2
   1 -15   1 67.6479 104.104   2
   1 -15  -2 111.096 110.643   2
  -1 -15  -3 872.045 151.145   2
  -1  15  -4 882.919 146.273   2
  -1  15  -5 622.556 164.067   2
  -1  15  -6 91.1669 164.135   2
   1 -16   0 10.8848 168.194   2
  -1 -16  -1 3401.05 217.595   2
   1 -16  -2-46.2983 117.939   2
   1  16  -3 1872.84 187.645   2
  -1 -16   4 231.817 133.933   2
  -1  16  -5 1048.38 169.265   2
   1 -17   0 31.1616 168.074   2
   1 -17   1 121.195 118.441   2
   1 -17  -2 349.504 124.270   2
  -1  17  -3 266.821 139.586   2
   2   0  -1 7637.07 199.527   2
   2   0  -2 52217.6 764.534   2
   2   0  -3 466.541 84.5803   2
   2   0  -4 7614.80 381.941   2
  -2   0  12 176.521 241.828   2
   2  -1   0 0.61322 33.6404   2
   2   1  -1 1133.10 80.1167   2
  -2  -1   2 151.550 34.4775   2
   2  -1  -3 1417.12 117.343   2
  -2  -1  -4 53.7727 68.5383   2
  -2  -1  10 19.8754 205.092   2
  -2  -1  11 14.8542 228.305   2
  -2  -1  12 4.66003 172.650   2
   2   2   0 5581.52 163.513   2
   2   2   1 6948.28 80.8657   2
   2   2  -2 14381.9 308.742   2
   2   2  -3 518.129 56.1979   2
   2   2  -4 4247.13 163.600   2
  -2  -2   5 633.175 150.392   2
  -2  -2   6 1511.81 207.274   2
  -2  -2   7 949.308 197.726   2
  -2  -2   8 8682.54 551.775   2
  -2  -2   9 402.090 211.203   2
  -2  -2  10 906.141 174.747   2
  -2  -2  11 83.2519 159.745   2
  -2  -2  12 1203.24 212.689   2
  -2   3   0 1427.24 55.7510   2
   2   3  -1 133.333 45.8386   2
  -2  -3  -2 72.7938 29.1604   2
   2   3  -3 2807.77 134.306   2
  -2  -3   4 30.7830 43.1767   2
  -2  -3   5 1391.86 121.797   2
   2  -3   6 58.3512 82.3008   2
  -2  -3   7 74.3701 95.0250   2
  -2  -3   8 234.233 124.783   2
  -2  -3   9 78.6926 129.236   2
  -2  -3  10 14.9887 131.352   2
  -2  -3  11 175.752 172.389   2
   2   4   0 8310.72 236.331   2
   2  -4  -1 4805.04 87.3802   2
  -2  -4  -2 38900.7 338.054   2
  -2  -4   3 356.681 38.8713   2
  -2  -4   4 6410.71 186.276   2
   2  -4   5 225.763 67.3960   2
  -2  -4   6 97.4716 99.4099   2
  -2  -4   7 719.248 134.034   2
  -2  -4   8 2062.51 197.035   2
  -2  -4   9 550.886 146.651   2
  -2  -4  10 47.4204 150.922   2
  -2  -4  11-9.55168 161.082   2
   2  -5   0 796.104 76.9974   2
   2   5   1 3056.98 102.393   2
   2   5   2 953.673 46.3048   2
   2   5   3 656.272 53.8432   2
   2   5  -4 8.53976 42.6578   2
  -2  -5   5 534.366 94.7092   2
  -2   5  -6 289.638 90.6047   2
  -2  -5   7 1190.64 182.679   2
  -2  -5   8 105.349 123.880   2
  -2  -5   9 54.3827 136.746   2
  -2  -5  10 128.534 158.860   2
  -2  -5  11 51.8114 190.315   2
   2   6   0 938.224 118.559   2
   2   6   1 2824.08 94.1670   2
   2   6  -2 6053.34 94.9518   2
   2   6  -3 275.540 46.5514   2
   2   6   4 3457.66 113.869   2
  -2  -6   5 346.666 60.3087   2
  -2  -6   6 1680.38 149.827   2
  -2  -6   7 412.522 135.105   2
  -2  -6   8 5991.75 341.441   2
  -2  -6   9 167.091 158.402   2
  -2  -6  10 1063.22 194.885   2
  -2  -6  11 116.377 180.944   2
   2   7   0 2468.70 137.764   2
   2   7  -1 635.629 67.0952   2
   2   7  -2 438.591 49.8031   2
   2   7   3 2503.93 90.3562   2
  -2  -7  -4 26.8763 49.1361   2
  -2  -7  -5 1698.64 116.635   2
   2  -7   6 227.301 75.9135   2
  -2  -7   7 118.670 112.121   2
  -2  -7   8 512.667 154.738   2
  -2  -7   9 264.541 161.757   2
  -2  -7  10 64.1524 180.092   2
  -2  -7  11 41.8161 179.575   2
   2   8   0 8091.44 240.509   2
   2   8   1 1228.77 79.0977   2
  -2  -8   2 17795.7 244.719   2
  -2  -8  -3 72.7999 48.1863   2
  -2  -8  -4 4714.80 162.905   2
  -2  -8  -5 89.0920 75.3623   2
  -2  -8  -6 385.940 86.6854   2
  -2   8  -7 361.363 125.688   2
   2  -8   8 991.307 174.803   2
  -2  -8   9 89.6420 156.074   2
   2  -8  10 149.905 184.282   2
   2   9   0 1013.93 104.293   2
   2  -9  -1 2580.88 108.315   2
   2   9  -2 999.646 71.4180   2
  -2  -9  -3 194.510 66.7288   2
  -2  -9  -4 32.0166 68.1083   2
  -2  -9  -5 248.896 81.2226   2
  -2  -9  -6 463.536 93.1649   2
  -2   9  -7 1064.39 165.239   2
   2  -9   8 218.711 161.250   2
  -2  -9   9 213.594 168.864   2
   2  -9  10-35.4147 185.370   2
   2  10   0 238.455 84.6529   2
   2  10  -1 317.988 59.4097   2
  -2 -10  -2 2006.19 114.747   2
  -2 -10  -3 64.9904 73.3584   2
  -2 -10  -4 1981.47 134.754   2
  -2 -10  -5 93.7681 80.2722   2
  -2 -10  -6 1534.36 129.911   2
  -2  10  -7 77.7988 110.885   2
  -2 -10   8 2664.49 222.532   2
  -2 -10   9 116.262 177.914   2
   2 -10  10 724.311 191.908   2
   2 -11   0 1595.39 182.349   2
   2 -11  -1 370.887 85.6417   2
  -2 -11  -2 459.303 86.0213   2
  -2 -11  -3 1136.51 102.394   2
  -2 -11  -4 37.0386 83.2026   2
  -2 -11  -5 958.888 113.037   2
  -2  11  -6 200.795 114.769   2
  -2  11  -7 7.12837 119.109   2
   2 -11   8 283.540 131.904   2
   2 -11   9 203.985 176.820   2
   2 -12   0 5771.96 319.768   2
   2 -12  -1 121.761 93.3941   2
  -2 -12  -2 6067.45 203.429   2
  -2 -12  -3 63.8321 79.5606   2
   2 -12   4 2372.49 167.979   2
  -2  12  -5-145.737 122.817   2
  -2 -12   6 545.816 135.335   2
   2 -12   7 26.6847 128.092   2
   2 -12   8 452.916 149.179   2
   2 -13   0 316.059 135.438   2
   2 -13  -1 1384.41 136.389   2
   2 -13   2 415.336 102.682   2
   2  13  -3 46.4523 113.771   2
  -2  13  -4 100.474 115.250   2
  -2  13  -5 58.4339 131.091   2
  -2  13  -6 133.697 150.308   2
  -2  13  -7 592.909 147.319   2
  -2 -13   8 27.6322 167.729   2
   2 -14   0 327.133 132.224   2
   2 -14  -1 43.4219 102.489   2
   2 -14  -2 526.229 107.839   2
  -2 -14  -3 54.8687 108.370   2
   2 -14   4 744.162 145.083   2
  -2 -14   5 110.744 133.659   2
   2 -14   6 928.837 160.414   2
   2 -14   7-12.6210 167.032   2
   2 -15   0 419.666 154.076   2
   2 -15  -1 72.1720 111.494   2
   2 -15  -2 361.699 113.549   2
  -2 -15  -3 638.730 137.354   2
  -2  15  -4 297.458 138.893   2
  -2  15  -5 639.216 149.279   2
   2 -15   6 147.154 160.202   2
   2 -16   0 4360.88 349.322   2
   2 -16  -1-42.3617 109.490   2
   2 -16  -2 2825.39 204.533   2
  -2 -16   3 43.1120 134.607   2
  -2  16  -4 1331.22 175.700   2
  -2  16  -5 131.436 156.028   2
   2 -17   0 344.470 179.903   2
   2 -17  -1 449.198 128.016   2
   2 -17  -2 147.650 130.196   2
  -2 -17  -3 161.377 133.488   2
   3   0   0-5.31607 20.8905   2
  -3   0   1 39559.8 426.171   2
  -3   0  -2 1464.37 116.066   2
   3   0  -3 535.614 149.766   2
   3   0  -4 428.937 90.7423   2
   3   0  -5 13556.6 574.519   2
  -3   0  11 1563.08 309.364   2
   3   1   0 60.8976 80.9702   2
  -3  -1   1 176.810 26.0516   2
   3   1  -2 681.924 79.3493   2
  -3  -1   3 164.876 47.1551   2
   3  -1  -4 2377.49 129.730   2
  -3  -1  -5-33.9751 87.3472   2
  -3  -1   8 217.650 173.271   2
  -3  -1   9-38.4883 185.446   2
  -3  -1  10 47.8963 230.300   2
  -3  -1  11 125.623 156.264   2
   3   2   0 17.2460 20.8648   2
   3   2   1 7859.22 143.982   2
   3  -2   2 204.712 32.6222   2
   3  -2  -3 1619.84 109.539   2
  -3  -2  -4 2392.93 120.764   2
   3   2  -5 15807.7 333.245   2
  -3  -2   6 5.97334 127.883   2
  -3  -2   7 2792.83 314.087   2
  -3  -2   8-32.1630 143.679   2
  -3  -2   9 1144.41 160.962   2
  -3  -2  10 93.3426 119.839   2
  -3  -2  11 3772.20 315.759   2
   3   3   0 31.3842 61.3391   2
   3  -3  -1 474.261 34.6542   2
   3   3   2 2656.29 95.9292   2
   3  -3  -3 19.0381 39.0664   2
   3   3  -4 339.456 74.8220   2
  -3  -3   5 44.6249 59.4936   2
  -3  -3   6 1504.54 248.230   2
  -3  -3   7 72.1820 102.924   2
  -3  -3   8 166.116 107.806   2
  -3  -3   9-89.5616 107.978   2
   3  -3  10 92.2471 142.593   2
  -3  -3  11 144.830 159.839   2
  -3   4   0 15.6797 32.6828   2
   3   4   1 28768.1 280.167   2
   3   4   2 1377.12 55.7257   2
   3   4   3 1018.21 76.8504   2
  -3  -4   4 238.445 53.5309   2
   3   4  -5 10132.2 233.167   2
  -3  -4  -6 689.411 103.024   2
  -3  -4   7 365.036 123.519   2
  -3  -4   8 88.9716 117.974   2
  -3  -4   9 83.2117 124.843   2
  -3  -4  10-35.7581 148.375   2
  -3  -4  11 1243.15 225.011   2
   3   5   0 93.5435 90.6655   2
   3   5  -1 187.328 38.6084   2
   3   5   2 94.9980 42.1809   2
   3   5  -3 582.631 47.6879   2
   3   5   4 4560.28 133.767   2
   3   5   5 200.124 59.0675   2
  -3  -5   6 36.3608 113.046   2
  -3  -5   7-19.6757 124.241   2
  -3  -5   8 88.0269 136.524   2
  -3  -5   9 41.8280 152.506   2
  -3  -5  10 50.1642 169.323   2
  -3  -5  11 27.3705 181.205   2
   3  -6   0 13.9008 64.6037   2
   3   6   1 4426.18 157.399   2
   3  -6  -2 102.358 37.0272   2
   3   6   3 493.249 60.4491   2
   3   6   4 1105.14 60.7583   2
   3   6   5 9637.14 207.425   2
  -3  -6   6 53.8153 67.9003   2
  -3  -6   7 2204.01 207.007   2
  -3  -6   8 22.8855 129.681   2
   3  -6   9 1247.36 209.324   2
  -3  -6  10 73.7806 164.786   2
  -3  -6  11 1994.82 275.157   2
   3   7   0-24.6852 87.8836   2
   3  -7  -1 587.151 51.8475   2
   3   7   2 3716.16 113.303   2
   3   7   3 133.413 31.4954   2
  -3  -7  -4 97.2290 54.2248   2
  -3  -7  -5 215.409 61.1218   2
  -3  -7  -6 1541.91 130.338   2
  -3  -7   7 42.4978 108.716   2
  -3  -7   8 115.083 125.830   2
  -3  -7   9 9.02575 156.503   2
  -3  -7  10 190.330 156.870   2
   3   8   0 28.9301 79.2248   2
   3  -8  -1 15113.6 220.338   2
   3  -8  -2 437.045 43.2407   2
   3   8   3 2119.06 101.951   2
   3   8  -4 27.1681 66.9150   2
  -3  -8  -5 5628.31 193.753   2
  -3  -8  -6 173.122 92.4472   2
   3  -8   7 381.425 117.421   2
  -3  -8   8 20.5310 130.694   2
   3  -8   9 93.6340 145.647   2
  -3  -8  10 223.302 174.526   2
   3   9   0 141.118 108.911   2
   3   9  -1 144.765 46.8866   2
  -3  -9  -2 171.948 63.5947   2
   3   9  -3 481.709 82.1388   2
  -3  -9  -4 4318.66 173.068   2
  -3  -9  -5 230.443 80.9183   2
  -3  -9  -6-0.06393 87.7482   2
  -3   9  -7 0.97764 113.285   2
  -3  -9   8-23.3574 149.046   2
   3  -9   9 111.829 166.488   2
   3  -9  10 325.800 182.390   2
   3  10   0 69.0890 81.4222   2
   3  10   1 1575.57 98.9410   2
  -3 -10  -2 70.7889 64.0476   2
  -3 -10  -3 533.118 87.8631   2
  -3 -10  -4 260.004 86.1661   2
  -3 -10  -5 3721.25 174.905   2
  -3 -10  -6 41.7009 92.2275   2
   3 -10   7 1481.77 175.392   2
  -3 -10   8 65.3578 133.562   2
   3 -10   9 807.770 198.274   2
   3 -11   0 54.7940 94.6627   2
  -3 -11  -1 472.495 86.6413   2
  -3 -11  -2 2392.90 127.747   2
  -3 -11  -3 200.144 84.5869   2
  -3 -11  -4 65.9809 90.1164   2
  -3 -11  -5 106.575 90.5112   2
  -3 -11  -6 1161.61 126.185   2
   3  11  -7 234.642 116.067   2
   3 -11   8 144.406 145.345   2
  -3 -11   9-13.8671 166.144   2
   3 -12   0 89.4637 123.376   2
   3 -12  -1 6474.03 214.105   2
  -3 -12  -2 45.4300 74.9112   2
  -3 -12  -3 2434.66 144.613   2
  -3 -12  -4 44.4435 91.9163   2
  -3 -12   5 1588.96 158.978   2
  -3 -12   6-58.1957 131.755   2
   3 -12   7 262.212 133.440   2
   3 -12   8 35.8618 142.773   2
   3 -13   0 54.8817 137.339   2
   3 -13   1 131.126 98.3788   2
  -3 -13  -2 170.530 84.1502   2
  -3 -13  -3 324.435 118.484   2
  -3 -13   4 2311.33 181.288   2
  -3  13  -5 246.795 138.878   2
  -3  13  -6 37.8904 129.015   2
   3 -13   7 38.0708 146.130   2
   3 -14   0-13.1481 128.885   2
  -3 -14  -1 540.979 114.694   2
   3 -14  -2 13.8234 102.303   2
   3 -14   3 678.491 127.755   2
  -3  14  -4 148.548 127.160   2
   3 -14   5 1154.16 160.344   2
   3 -14   6 3.30622 138.614   2
   3 -14   7 1036.60 159.420   2
   3 -15   0-91.4707 153.093   2
   3 -15  -1 171.521 115.929   2
  -3 -15  -2 1272.57 171.711   2
  -3 -15  -3 94.9563 118.207   2
  -3  15  -4 216.961 142.555   2
  -3  15  -5 146.318 142.737   2
  -3  15  -6 405.312 155.735   2
   3 -16   0-59.0844 172.709   2
   3 -16  -1 2663.50 198.522   2
  -3 -16   2-56.0117 137.357   2
  -3 -16  -3 1953.54 185.474   2
  -3  16  -4 266.147 142.215   2
   3 -17   0 6.70352 183.773   2
   3 -17  -1 30.0003 122.290   2
  -3 -17  -2 42.9167 127.806   2
  -4   0   0 4098.86 113.707   2
   4   0   1 7733.52 146.143   2
   4   0  -2 10272.8 235.704   2
  -4   0  -3 1336.28 95.3611   2
   4   0  -4 6748.59 419.261   2
   4   0  -5 1244.59 156.323   2
   4   0  -6 1633.46 254.123   2
  -4   0   9 1292.82 262.053   2
  -4   0  10 576.064 219.189   2
  -4   0  11-147.413 223.709   2
  -4  -1   0 642.934 57.9614   2
   4   1   1 453.204 34.3809   2
   4   1   2 38.6962 34.3323   2
   4  -1  -3 1435.42 104.153   2
  -4  -1   4-12.1899 50.1770   2
   4   1  -5 898.136 108.071   2
  -4  -1   6 17.4770 83.1892   2
  -4  -1   7 136.751 137.476   2
  -4  -1   8 254.996 164.298   2
  -4  -1   9 18.3476 198.858   2
  -4  -1  10 90.3289 214.770   2
  -4  -1  11 31.3766 118.051   2
   4   2   0 5594.40 192.236   2
   4   2   1 8026.40 132.325   2
   4   2   2 1747.13 91.5112   2
  -4  -2   3 481.925 47.1009   2
   4  -2  -4 5882.23 216.251   2
   4  -2  -5 545.593 87.1069   2
   4   2  -6 3688.37 201.584   2
  -4  -2   7 2331.87 288.971   2
  -4  -2   8 2777.88 341.433   2
  -4  -2   9 786.618 147.176   2
  -4  -2  10 1758.54 207.635   2
  -4  -2  11 98.5156 153.872   2
   4   3   0 155.918 29.7531   2
   4   3   1 182.148 50.7865   2
   4   3   2 890.658 48.0707   2
   4   3   3 1036.80 80.7218   2
   4  -3   4 9.46943 46.1219   2
   4  -3  -5 1167.18 122.252   2
  -4  -3   6 305.186 69.8060   2
  -4  -3   7 215.015 109.866   2
  -4  -3   8-11.7935 106.710   2
  -4  -3   9 4.06066 125.465   2
  -4  -3  10 74.6666 151.995   2
  -4  -3  11 17.4771 155.210   2
   4   4   0 17688.4 392.019   2
   4  -4  -1 5401.09 84.9316   2
   4   4   2 9528.99 192.833   2
   4   4  -3 888.077 59.5902   2
   4   4   4 6249.80 176.301   2
  -4  -4   5 1003.29 81.0516   2
   4   4  -6 1399.13 135.408   2
   4  -4   7 1168.97 162.847   2
  -4  -4   8 315.855 140.302   2
  -4  -4   9 815.796 167.001   2
  -4  -4  10 419.838 146.706   2
  -4  -4  11 28.2575 174.831   2
  -4   5   0 4147.61 113.883   2
   4   5   1 83.0794 50.0156   2
   4  -5  -2 307.438 41.9926   2
   4   5   3 1284.53 91.1138   2
   4   5   4 34.6721 46.9031   2
  -4  -5   5 748.942 81.9689   2
  -4   5  -6 216.580 67.3429   2
  -4  -5   7 201.238 112.699   2
  -4  -5   8 587.789 150.301   2
  -4  -5   9 84.5179 149.978   2
  -4  -5  10 29.9453 165.156   2
  -4  -5  11 124.535 169.249   2
   4   6   0 1626.56 154.395   2
   4  -6  -1 3852.75 104.952   2
   4   6   2 1742.91 92.5580   2
   4  -6  -3 246.514 47.3387   2
   4   6   4 3102.35 123.634   2
  -4  -6  -5 185.084 62.1725   2
   4   6   6 3118.07 141.053   2
  -4  -6   7 1175.30 142.767   2
  -4  -6   8 1898.01 203.701   2
  -4  -6   9 298.108 149.669   2
  -4  -6  10 1379.17 212.149   2
   4  -7   0 1352.75 115.478   2
   4   7  -1 340.407 78.7137   2
   4  -7  -2 1706.72 76.7473   2
   4   7   3 533.076 62.3928   2
  -4  -7  -4-3.53756 56.3843   2
   4   7   5 1055.62 90.1964   2
  -4  -7  -6 819.615 106.333   2
   4  -7   7 135.337 97.6027   2
  -4  -7   8 277.797 123.737   2
  -4  -7   9-41.6325 138.818   2
  -4  -7  10 159.939 169.837   2
   4   8   0 10781.0 388.936   2
   4  -8  -1 1213.38 73.9516   2
   4   8   2 7781.39 175.059   2
   4   8   3 385.559 63.5158   2
   4   8   4 4144.27 136.486   2
  -4  -8  -5 485.112 82.4246   2
  -4  -8  -6 1281.90 132.730   2
  -4  -8  -7 340.201 103.874   2
  -4  -8   8 468.436 144.496   2
  -4  -8   9 180.208 160.931   2
   4  -8  10 402.066 164.837   2
   4   9   0 4469.69 211.124   2
   4  -9  -1 51.2815 62.4964   2
   4   9  -2 512.317 73.2439   2
  -4  -9  -3 1113.87 86.9420   2
  -4  -9  -4 13.5203 75.9100   2
   4   9  -5 435.478 82.9886   2
  -4  -9  -6 369.849 102.375   2
  -4  -9  -7 164.382 101.511   2
  -4  -9   8 816.783 180.602   2
   4  -9   9-47.4929 173.576   2
   4 -10   0 687.169 114.480   2
   4  10  -1 671.304 79.7286   2
   4  10   2 1252.80 98.8369   2
   4  10  -3 39.9067 77.9795   2
  -4 -10  -4 1620.25 120.877   2
  -4 -10  -5-0.12727 88.0369   2
  -4 -10  -6 1943.94 145.372   2
  -4 -10  -7 363.366 110.308   2
   4 -10   8 1429.55 179.463   2
  -4 -10   9 18.7958 239.623   2
  -4 -11   0 1122.05 141.669   2
   4 -11  -1 231.215 71.9380   2
   4  11  -2 1293.01 104.157   2
   4  11  -3 337.256 78.0240   2
  -4 -11  -4 26.5111 87.2450   2
  -4 -11  -5 523.644 112.111   2
  -4 -11  -6 694.894 118.616   2
  -4 -11  -7 232.788 109.810   2
  -4 -11   8 192.859 172.545   2
   4 -12   0 4638.18 294.086   2
   4  12  -1 49.1315 81.4190   2
  -4 -12  -2 3910.09 165.597   2
   4  12  -3 33.3179 81.5639   2
  -4 -12  -4 2130.34 153.791   2
  -4 -12  -5 24.7461 100.005   2
  -4  12  -6 562.797 142.603   2
  -4 -12   7-60.6291 189.513   2
  -4  12  -8 330.483 220.599   2
   4 -13   0 2002.84 216.676   2
   4 -13  -1 0.67150 95.0706   2
  -4 -13  -2 455.771 90.8168   2
  -4 -13  -3 379.869 101.888   2
  -4 -13  -4 60.8354 106.156   2
  -4  13  -5 280.816 150.768   2
  -4  13  -6 236.594 158.244   2
  -4  13  -7-37.8830 215.629   2
   4 -14   0 305.490 148.052   2
   4 -14  -1 20.7561 101.017   2
  -4 -14  -2 604.523 115.605   2
  -4 -14  -3 132.149 116.766   2
   4 -14   4 1054.44 157.843   2
  -4  14  -5 137.966 158.065   2
  -4  14  -6 1048.31 208.164   2
   4 -15   0 299.392 154.794   2
   4 -15  -1 114.399 109.719   2
  -4 -15  -2 587.025 159.173   2
  -4 -15  -3 310.639 139.745   2
  -4  15  -4 27.0522 145.509   2
  -4  15  -5 456.696 173.841   2
   4 -16   0 2604.95 266.722   2
  -4 -16   1 37.8283 129.288   2
  -4 -16  -2 2131.35 228.171   2
  -4 -16  -3 31.2029 165.310   2
  -4 -16   4 844.683 283.031   2
  -4 -17   0 696.066 267.884   2
   5   0   0 8.27996 21.3927   2
   5   0   1 6877.14 148.442   2
   5   0  -2 1342.98 87.2706   2
   5   0  -3 22651.1 420.195   2
  -5   0   4 44.0475 64.6277   2
   5   0  -5 39.1024 95.3378   2
  -5   0   6 302.306 98.8704   2
   5   0  -7 2364.09 211.174   2
  -5   0   8 44.3542 168.503   2
  -5   0   9 1533.02 267.030   2
  -5   0  10 183.357 207.394   2
  -5   0  11 4.83136 194.702   2
   5  -1   0 17.4227 87.7846   2
  -5   1   1 333.562 28.2123   2
   5  -1  -2 722.957 46.0763   2
   5   1   3 180.754 46.2036   2
   5  -1  -4 431.232 84.4309   2
  -5  -1   5 9.24593 63.1124   2
  -5  -1   6 688.389 111.982   2
  -5  -1   7 20.2235 104.572   2
  -5  -1   8 74.7891 160.985   2
  -5  -1   9 39.4030 202.708   2
  -5   1  10 171.341 144.700   2
  -5  -1  11 10.2316 132.740   2
   5   2   0 17.1748 41.3843   2
   5   2   1 794.718 42.7042   2
  -5   2  -2 20.8833 22.6449   2
   5   2   3 12887.1 239.157   2
   5  -2  -4 1177.35 77.0118   2
   5  -2  -5 324.479 96.3016   2
  -5  -2  -6 3.59755 87.8113   2
   5   2  -7 5255.77 260.522   2
  -5  -2   8-18.0810 99.5453   2
  -5  -2   9 2834.79 242.038   2
  -5  -2  10 30.6871 146.472   2
   5  -2  11 107.824 134.056   2
   5   3   0 21.1006 67.4840   2
   5  -3   1 529.493 50.5574   2
   5   3   2 10.0452 56.5742   2
   5  -3   3 27.8734 37.7545   2
   5   3   4 2240.21 124.229   2
   5   3  -5 37.1172 63.0321   2
  -5  -3   6 23.4173 99.5065   2
  -5  -3   7 77.3960 77.4267   2
  -5  -3   8 7.73786 112.572   2
  -5  -3   9 161.571 131.980   2
  -5  -3  10 124.136 143.438   2
  -5  -3  11-273.728 317.517   2
   5  -4   0-11.0714 28.7311   2
   5   4   1 7147.83 190.866   2
   5  -4  -2 901.889 49.0974   2
   5   4   3 19859.8 350.488   2
   5  -4  -4 16.1383 47.9237   2
   5  -4  -5 146.449 77.5265   2
  -5  -4   6 372.080 74.6473   2
   5   4  -7 2058.33 180.300   2
   5  -4   8 73.9075 121.073   2
  -5  -4   9 1136.83 184.530   2
  -5  -4  10 72.0433 284.934   2
   5   5   0 45.6968 54.1768   2
   5   5   1 110.944 29.1474   2
  -5  -5  -2 1896.12 91.8613   2
   5   5   3 420.666 54.8328   2
  -5  -5  -4 89.0431 68.1057   2
  -5  -5   5 29.8353 56.9391   2
  -5  -5  -6 1319.24 132.447   2
  -5  -5   7 81.8736 85.6875   2
  -5  -5   8 26.7684 131.540   2
  -5  -5   9 35.0540 139.299   2
  -5  -5  10 7.67657 217.818   2
   5   6   0 15.8317 45.7744   2
   5   6   1 1273.63 90.3701   2
   5  -6  -2 16.3935 41.8551   2
   5   6   3 7598.19 205.977   2
   5  -6  -4 861.010 73.2671   2
   5   6   5 441.266 103.201   2
   5  -6   6 49.6029 75.8690   2
  -5  -6  -7 3332.29 193.883   2
  -5  -6   8 9.44381 225.992   2
  -5  -6   9 2037.10 359.988   2
  -5  -6  10-231.818 270.310   2
   5   7   0 26.4601 108.812   2
   5   7   1 511.291 55.7247   2
   5   7   2 137.641 61.8447   2
   5   7   3 68.7743 53.7482   2
   5   7   4 3411.44 187.431   2
  -5  -7  -5 106.973 69.6466   2
  -5  -7  -6 46.1906 110.293   2
  -5  -7  -7 73.5073 151.208   2
  -5  -7   8 19.5362 237.894   2
  -5  -7   9 245.042 241.077   2
  -5  -7  10 88.1674 235.099   2
   5  -8   0 52.2193 64.6468   2
   5   8   1 5747.45 183.738   2
   5  -8  -2 385.172 56.7366   2
   5   8   3 10007.7 213.483   2
   5   8   4 36.1012 67.8113   2
  -5  -8  -5 438.103 123.553   2
   5   8  -6 82.6796 117.831   2
  -5  -8  -7 794.862 146.350   2
  -5  -8  -8 37.1218 170.958   2
  -5  -8   9 332.845 213.123   2
   5   9   0-18.7983 120.012   2
   5   9   1 68.8728 55.4937   2
   5   9   2 2348.99 127.768   2
   5   9  -3 440.785 73.9025   2
  -5  -9  -4 95.4549 85.2903   2
  -5  -9  -5 149.803 80.5461   2
  -5  -9  -6 1347.02 163.829   2
  -5  -9  -7 37.6175 135.235   2
  -5  -9  -8 8.82122 174.970   2
  -5  -9   9-48.9418 279.583   2
   5  10   0-9.39783 78.6879   2
   5  10   1 342.549 93.9304   2
   5  10  -2 136.015 67.8917   2
  -5 -10  -3 2627.97 155.864   2
   5  10  -4 372.182 97.3113   2
  -5 -10  -5 830.535 125.283   2
  -5 -10  -6 61.2782 121.835   2
  -5 -10  -7 2137.76 221.685   2
  -5 -10  -8-43.8486 195.178   2
   5  11   0-15.7870 137.089   2
   5  11   1 305.017 85.0422   2
   5  11  -2 174.056 70.4338   2
   5  11  -3 54.1171 90.3530   2
  -5 -11  -4 2210.61 181.976   2
   5  11  -5-9.02815 109.282   2
  -5 -11  -6-2.93487 145.559   2
  -5 -11  -7 54.1846 146.244   2
  -5 -11  -8 16.5061 162.069   2
  -5 -12   0-1.53211 144.609   2
   5  12  -1 4129.66 254.590   2
  -5 -12  -2 171.968 96.2994   2
  -5 -12  -3 3583.82 190.662   2
  -5 -12  -4 77.0414 106.308   2
  -5 -12  -5 836.165 147.888   2
  -5 -12  -6 159.943 142.618   2
  -5 -12  -7 625.851 155.047   2
  -5 -13   0-46.9365 184.249   2
  -5 -13  -1 46.4124 137.566   2
  -5 -13  -2 994.847 121.861   2
  -5 -13  -3 239.533 101.616   2
  -5 -13  -4 59.8146 127.206   2
  -5 -13  -5 38.3241 121.452   2
  -5  13  -6 503.799 168.754   2
  -5 -14   0 89.3596 248.958   2
  -5 -14   1 191.465 162.631   2
  -5 -14  -2 144.190 127.118   2
  -5 -14  -3 744.249 184.782   2
  -5  14  -4 322.724 200.976   2
  -5  14  -5 940.986 221.106   2
  -5 -15   0-93.3325 242.178   2
  -5 -15  -1 146.142 174.600   2
  -5 -15  -2 193.019 164.067   2
  -5 -15  -3-33.1140 182.601   2
  -5  15  -4 1351.54 265.878   2
  -5 -16   0 120.637 231.038   2
  -5 -16  -1 2292.95 268.166   2
  -5 -16  -2 141.437 181.567   2
   6   0   0 19113.5 726.323   2
   6   0   1 3484.42 113.521   2
   6   0   2 3105.83 128.797   2
  -6   0  -3 67.3520 62.3368   2
   6   0  -4 2929.70 190.783   2
  -6   0   5 60.2699 85.9534   2
   6   0  -6 5326.40 291.443   2
  -6   0   7 1062.75 171.240   2
  -6   0   8 41.3686 129.001   2
  -6   0   9 535.781 205.037   2
  -6   0  10 849.248 260.279   2
  -6  -1   0 65.5715 38.1208   2
   6  -1   1 70.0738 21.6210   2
   6  -1   2 315.232 40.7435   2
   6   1   3 756.795 64.2884   2
  -6  -1   4 57.9268 50.8432   2
  -6   1   5 686.422 91.3017   2
   6  -1  -6 71.3476 69.9313   2
  -6  -1   7 102.217 81.0944   2
  -6  -1   8-4.16809 89.4530   2
  -6  -1   9 19.7411 127.610   2
  -6  -1  10 247.908 151.945   2
   6  -2   0 6901.86 167.926   2
   6  -2   1 1972.25 67.3228   2
   6   2   2 1096.83 58.8892   2
   6  -2  -3 1027.72 52.1664   2
   6   2   4 2062.48 122.698   2
  -6  -2   5 609.971 67.0622   2
   6  -2  -6 7176.25 295.689   2
  -6  -2   7 596.812 118.869   2
  -6  -2   8 732.474 169.931   2
  -6  -2   9 497.714 195.391   2
  -6  -2  10 2099.15 254.606   2
   6  -3   0 1344.28 95.4130   2
   6   3  -1 627.879 79.6419   2
  -6   3  -2-0.73172 43.0134   2
   6   3   3 359.250 71.6061   2
   6   3  -4 58.4762 59.9144   2
  -6  -3   5 264.775 76.1589   2
   6   3   6-7.68723 82.9480   2
   6  -3  -7 493.449 115.032   2
  -6  -3   8 382.722 147.642   2
  -6  -3   9 112.618 230.688   2
  -6  -3  10 5.77314 231.743   2
   6   4   0 17063.2 428.799   2
   6  -4   1 2685.03 93.1034   2
   6   4   2 3013.19 139.974   2
  -6   4  -3 39.6062 52.4035   2
   6   4   4 2567.95 135.463   2
  -6  -4   5-31.0689 80.6548   2
   6   4   6 3894.78 184.571   2
  -6  -4   7 1019.11 135.324   2
   6   4   8 201.028 129.105   2
  -6  -4   9 344.245 173.477   2
  -6  -4  10 721.940 281.480   2
   6   5   0 160.250 87.9039   2
   6   5   1 122.878 68.3218   2
   6  -5  -2 918.633 73.5156   2
   6   5  -3 765.091 87.9950   2
   6   5   4 17.8847 65.6364   2
   6  -5  -5 1010.43 108.273   2
  -6  -5  -6 301.669 108.597   2
  -6  -5  -7 54.4484 105.065   2
   6   5   8-6.48622 131.967   2
  -6  -5   9 22.4932 198.163   2
  -6  -5  10 340.131 275.906   2
   6   6   0 5569.16 287.945   2
  -6   6  -1 777.959 70.4524   2
   6   6   2 991.091 100.957   2
   6   6   3 530.107 75.3408   2
   6   6   4 1907.40 133.550   2
   6   6  -5 537.197 97.5259   2
   6   6   6 4818.09 239.221   2
  -6  -6  -7 348.964 109.304   2
  -6  -6  -8 926.032 204.223   2
  -6  -6   9 268.152 243.308   2
   6  -7   0 2072.63 159.018   2
   6   7   1 997.511 110.003   2
   6  -7  -2 85.3561 55.2317   2
   6   7   3 222.610 95.4346   2
   6   7   4 75.2031 83.7888   2
   6   7  -5 105.600 106.960   2
   6   7  -6 109.829 95.0469   2
   6   7  -7 586.764 151.579   2
  -6  -7  -8 753.004 196.682   2
  -6  -7   9-55.4076 209.648   2
   6   8   0 8353.08 382.168   2
   6   8  -1 792.972 93.5109   2
   6   8   2 2897.56 151.257   2
   6   8   3 18.3397 70.1499   2
   6   8   4 2436.18 184.314   2
  -6  -8  -5 68.7139 109.369   2
  -6  -8  -6 2201.51 190.300   2
  -6  -8  -7 519.981 135.173   2
  -6  -8  -8 113.833 181.645   2
  -6  -8   9 200.072 250.265   2
  -6  -9   0 214.604 101.922   2
   6   9  -1 358.442 102.663   2
   6   9  -2 919.501 110.069   2
   6   9   3 558.640 97.3059   2
   6   9  -4 38.6878 109.034   2
  -6  -9  -5 1002.69 180.242   2
  -6  -9  -6 335.681 118.086   2
  -6  -9  -7 143.457 143.943   2
  -6  -9  -8 132.570 191.260   2
   6  10   0 1868.13 223.267   2
   6  10  -1 106.575 99.1858   2
  -6 -10  -2 686.331 107.879   2
   6  10  -3 170.967 90.1003   2
  -6 -10  -4 1193.10 187.113   2
  -6 -10  -5 61.7238 126.141   2
  -6 -10  -6 2977.74 223.920   2
  -6 -10  -7-77.7149 158.570   2
  -6 -10  -8 928.394 233.499   2
   6  11   0 1685.94 223.331   2
   6  11   1 806.914 124.224   2
   6  11  -2 124.120 112.772   2
   6  11  -3 154.330 120.223   2
   6  11  -4 52.8744 125.808   2
  -6 -11  -5 18.0989 155.427   2
  -6 -11  -6 119.601 156.101   2
  -6 -11  -7 753.416 168.913   2
   6  12   0 4300.12 315.721   2
  -6 -12  -1 77.2401 131.880   2
   6  12  -2 2111.11 179.939   2
   6  12  -3 46.2454 119.129   2
  -6 -12  -4 988.931 180.838   2
  -6 -12  -5 68.2505 130.931   2
  -6 -12  -6 940.276 181.937   2
  -6 -12  -7 84.1229 184.893   2
  -6 -13   0 196.842 240.489   2
   6  13  -1 136.906 137.495   2
  -6 -13  -2 680.266 138.035   2
  -6 -13  -3 314.355 121.848   2
  -6 -13  -4 105.323 136.330   2
  -6 -13  -5 289.422 179.440   2
  -6 -13  -6 118.329 170.326   2
  -6 -14   0 326.749 197.536   2
  -6 -14  -1 139.052 148.219   2
  -6 -14  -2 484.647 145.316   2
   6  14  -3 50.4817 113.256   2
  -6 -14  -4 925.720 232.124   2
  -6 -14   5 86.5850 273.774   2
  -6 -15   0 819.963 297.950   2
  -6 -15  -1 472.600 151.573   2
  -6 -15  -2 172.396 144.507   2
  -6 -15  -3 100.135 192.805   2
   7   0   0-44.3388 188.549   2
   7   0   1 8362.84 306.878   2
   7   0  -2 725.758 122.508   2
   7   0  -3 1687.78 180.343   2
   7   0   4 4665.83 196.173   2
   7   0  -5 6060.72 304.656   2
  -7   0   6 117.153 100.773   2
  -7   0   7 380.078 137.510   2
   7   0  -8 56.3284 140.843   2
  -7   0   9 616.579 216.445   2
  -7   0  10 274.903 235.886   2
   7   1   0 7.57006 87.5090   2
   7   1   1 599.558 82.2019   2
   7  -1  -2 156.661 70.4431   2
   7   1   3 43.7379 55.2150   2
  -7  -1   4 533.502 83.5718   2
  -7  -1   5 40.6434 62.0282   2
  -7   1   6 213.957 82.4556   2
  -7  -1   7 124.201 83.3915   2
  -7  -1   8 120.514 107.378   2
  -7  -1   9 151.459 150.159   2
  -7  -1  10 37.3932 156.085   2
   7  -2   0 59.2135 91.0581   2
   7  -2   1 1932.30 118.241   2
   7  -2   2 2316.62 102.584   2
   7   2   3 260.688 92.0687   2
   7   2  -4 1156.87 97.2474   2
   7   2   5 4951.66 195.891   2
  -7  -2   6 1355.03 124.631   2
  -7  -2   7 1599.45 130.735   2
  -7  -2   8 210.267 105.757   2
  -7  -2   9 1417.95 189.996   2
  -7  -2  10 550.230 220.824   2
   7   3   0 25.7167 59.6922   2
   7   3   1 184.109 57.7362   2
   7  -3  -2 360.154 67.0109   2
  -7   3  -3 534.722 70.5370   2
   7   3  -4 137.943 75.5624   2
   7   3   5 156.353 75.4826   2
  -7  -3  -6 486.935 92.6619   2
  -7  -3   7 49.2980 100.675   2
  -7  -3   8-15.4746 126.350   2
   7   3   9-84.9998 177.822   2
   7   4   0 29.5430 64.3831   2
   7  -4  -1 8600.00 208.424   2
   7  -4  -2 521.554 71.0390   2
   7  -4  -3 1624.20 114.888   2
   7   4   4 3197.50 147.201   2
   7   4   5 3847.13 182.288   2
   7   4  -6 254.888 90.1801   2
   7   4   7 383.015 117.202   2
  -7  -4   8-40.9875 128.118   2
  -7  -4   9 615.750 182.983   2
   7   5   0 154.513 102.021   2
   7   5   1 726.110 72.5077   2
   7   5   2-9.52822 76.6580   2
   7   5  -3 132.677 64.7278   2
   7   5  -4 787.354 98.3669   2
   7  -5  -5 269.005 86.8145   2
   7   5  -6 18.1076 106.948   2
   7   5   7 102.733 117.872   2
  -7  -5   8 173.324 129.940   2
  -7  -5   9 411.847 242.718   2
   7  -6   0 55.6125 92.5829   2
   7   6   1 1356.91 119.121   2
   7  -6  -2 1422.90 88.4664   2
   7   6   3 812.861 104.546   2
  -7  -6  -4 324.456 78.8906   2
   7   6   5 3668.79 216.733   2
  -7  -6  -6 718.186 129.211   2
  -7  -6  -7 1413.87 164.079   2
  -7  -6  -8 45.7912 146.164   2
  -7  -6   9 1350.16 312.860   2
   7   7   0 61.3278 121.318   2
   7  -7  -1 63.9477 70.6490   2
   7   7   2 573.375 93.7502   2
   7   7   3 1228.96 106.271   2
   7   7   4-32.9481 111.292   2
   7   7  -5 590.689 104.474   2
  -7  -7  -6 527.064 123.940   2
  -7  -7  -7 19.2299 146.800   2
  -7  -7  -8 128.812 165.278   2
   7  -8   0 11.2265 102.026   2
   7   8   1 5637.15 231.505   2
   7   8  -2 74.3822 88.1911   2
   7   8   3 1955.15 167.802   2
   7   8   4 1274.94 130.433   2
   7   8   5 2486.41 195.722   2
   7   8  -6 61.2464 128.848   2
  -7  -8  -7 462.972 154.166   2
  -7  -8  -8-14.4097 183.378   2
  -7  -9   0 22.1496 134.175   2
   7   9  -1 658.361 102.800   2
   7   9  -2 0.41134 93.9619   2
   7   9   3 647.003 112.734   2
   7   9   4 1026.15 145.368   2
  -7  -9  -5 227.520 121.475   2
  -7  -9  -6 51.4304 151.981   2
  -7  -9  -7 141.035 150.527   2
  -7  -9  -8-27.9415 189.995   2
   7  10   0-79.1581 143.241   2
   7  10   1 968.623 132.078   2
   7  10  -2 471.776 102.903   2
  -7 -10  -3 646.899 161.922   2
   7  10  -4 31.8291 119.036   2
   7  10  -5 1501.75 211.318   2
   7  10  -6 311.709 140.311   2
  -7 -10  -7 1254.27 174.765   2
   7  11   0-9.00256 140.930   2
   7  11   1 30.3861 111.619   2
  -7 -11  -2 489.572 121.497   2
   7  11  -3 739.700 139.932   2
  -7 -11  -4-96.7308 164.137   2
  -7 -11  -5 475.189 144.031   2
  -7 -11  -6 353.494 140.836   2
   7  12   0-8.05309 159.741   2
  -7 -12  -1 2860.23 235.640   2
   7  12  -2 112.992 124.619   2
  -7 -12  -3 1545.01 205.486   2
   7  12  -4 192.767 139.506   2
  -7 -12  -5 1090.27 174.451   2
  -7 -12  -6-40.8800 151.074   2
  -7 -13   0 18.1184 255.786   2
   7  13  -1 537.604 123.616   2
   7  13  -2 168.863 129.874   2
   7  13  -3 163.536 133.302   2
  -7 -13  -4 267.814 158.968   2
   7  13  -5 533.823 171.725   2
  -7 -14   0 0.61082 225.568   2
  -7 -14  -1 261.754 153.661   2
  -7 -14  -2 125.464 145.220   2
  -7 -14  -3 479.316 172.054   2
   8   0   0 381.487 215.716   2
   8   0  -1-45.5692 116.916   2
   8   0   2 9515.83 350.798   2
  -8   0  -3 363.644 128.170   2
   8   0   4 2653.31 216.220   2
   8   0  -5 40.2731 120.659   2
   8   0  -6 225.140 180.128   2
   8   0   7 83.7889 138.467   2
   8   0  -8 3315.88 474.187   2
   8   0  -9 154.398 294.559   2
   8   1   0 219.578 114.350   2
   8  -1   1 234.618 81.7145   2
  -8   1  -2 162.245 80.8085   2
   8   1   3 216.385 87.7482   2
  -8   1  -4 38.9596 90.9264   2
   8   1  -5 124.472 114.523   2
  -8   1  -6 31.1431 104.241   2
   8   1  -7 76.5565 157.644   2
   8   1   8 49.6208 156.144   2
   8   1  -9-0.83057 298.232   2
   8  -2   0 1028.50 139.490   2
   8   2   1 232.150 78.0916   2
   8  -2   2 4546.35 177.696   2
   8   2  -3 110.510 86.9665   2
   8   2   4 1918.77 176.963   2
   8  -2   5 317.809 95.1292   2
  -8  -2  -6 291.131 124.296   2
  -8  -2  -7 71.1317 133.808   2
   8   2   8 4315.28 397.544   2
   8   2   9-21.2003 202.998   2
   8   3   0 237.148 102.105   2
   8  -3  -1 180.735 65.9665   2
   8  -3  -2 230.894 84.4942   2
   8   3  -3 354.315 106.610   2
   8  -3   4-14.9185 93.6481   2
   8  -3  -5 521.892 126.017   2
  -8  -3  -6 109.797 127.066   2
   8   3  -7 62.5005 133.819   2
  -8  -3  -8 96.7738 174.024   2
   8   3   9 111.079 234.044   2
   8  -4   0 955.885 136.407   2
   8  -4  -1-18.5672 88.1650   2
   8   4   2 7488.11 279.182   2
   8  -4  -3 287.706 85.0343   2
  -8  -4  -4 2007.13 176.865   2
   8  -4  -5 65.4017 122.079   2
   8   4   6 139.119 122.551   2
  -8  -4  -7 82.5690 158.628   2
  -8  -4  -8 2393.27 257.772   2
   8   4  -9-37.0577 208.978   2
   8   5   0 362.921 143.912   2
   8   5   1 866.306 155.450   2
   8  -5   2 91.8834 82.0325   2
   8  -5  -3 47.8070 110.184   2
   8   5  -4 116.331 115.224   2
  -8  -5  -5 52.4127 100.438   2
   8   5   6 48.4625 111.441   2
  -8  -5  -7 476.091 128.102   2
   8   5  -8 117.214 139.945   2
   8   6   0 337.708 246.842   2
   8   6   1 75.8086 105.329   2
   8  -6  -2 3217.99 209.590   2
   8   6   3 74.4405 84.7183   2
   8   6  -4 1843.47 168.098   2
  -8  -6  -5 229.941 110.001   2
   8   6  -6 313.452 117.411   2
   8   6  -7 134.436 120.211   2
  -8  -6  -8 3483.72 288.835   2
   8   7   0 148.525 156.824   2
   8   7   1 532.456 139.996   2
   8  -7  -2 227.595 84.8874   2
   8   7  -3 592.942 122.993   2
   8   7   4 35.2475 112.723   2
   8   7   5 536.912 134.540   2
  -8  -7  -6 132.162 125.729   2
  -8  -7  -7 187.332 156.999   2
  -8  -7  -8 66.9540 165.641   2
   8   8   0 525.694 247.887   2
   8   8   1 11.4397 92.6046   2
   8   8   2 5027.72 248.261   2
   8   8   3 254.206 103.116   2
   8   8   4 1775.36 170.764   2
   8   8   5 174.656 119.808   2
  -8  -8  -6 238.368 151.637   2
  -8  -8  -7 119.121 161.759   2
  -8  -9   0 213.135 120.066   2
   8   9  -1 1222.46 141.493   2
   8   9  -2 27.8897 101.338   2
   8   9   3-53.3233 111.934   2
   8   9   4 98.4311 129.212   2
  -8  -9  -5-9.39300 150.554   2
   8   9  -6 74.2191 162.729   2
  -8  -9  -7 579.890 182.313   2
  -8 -10   0 297.399 162.268   2
   8  10  -1-9.26297 97.8641   2
  -8 -10  -2 1772.59 177.206   2
   8 -10   3 77.8520 123.052   2
   8  10  -4 1248.19 188.193   2
  -8 -10  -5 113.208 160.677   2
  -8 -10  -6 415.473 182.599   2
   8  11   0 83.8549 169.288   2
   8  11  -1 520.883 127.371   2
  -8 -11  -2 297.695 122.429   2
  -8 -11  -3 289.686 162.914   2
  -8 -11  -4-38.5141 160.357   2
   8  11  -5 251.340 178.997   2
   8  12   0 1427.22 223.489   2
  -8 -12  -1 82.5388 115.918   2
  -8 -12  -2 2275.36 202.414   2
   8  12  -3 207.319 170.951   2
  -8 -12  -4 1181.64 192.481   2
  -8 -13   0 320.234 207.696   2
  -8 -13   1 846.234 154.445   2
   8  13  -2 84.5532 133.505   2
  -8 -13  -3 217.243 165.732   2
   9   0   0-28.9584 159.046   2
   9   0   1 4401.08 277.482   2
   9   0  -2 1662.05 190.850   2
   9   0   3 1603.49 202.064   2
  -9   0  -4 810.548 159.576   2
   9   0  -5 1835.48 217.441   2
  -9   0  -6 956.455 162.329   2
   9   0   7 1420.50 240.941   2
   9   0   8 128.461 208.819   2
   9  -1   0-0.81594 110.532   2
   9   1   1 237.523 89.4725   2
   9  -1  -2 33.8405 98.9687   2
  -9   1  -3 117.548 92.5602   2
  -9   1  -4 173.865 102.237   2
   9  -1  -5 81.0934 105.771   2
  -9  -1  -6 147.573 117.574   2
   9  -1  -7 73.6495 129.077   2
   9  -1  -8 208.073 162.914   2
   9   2   0-13.5651 119.827   2
   9   2   1 1258.79 104.760   2
   9  -2  -2 327.091 95.4701   2
   9  -2   3 553.266 99.9755   2
  -9   2  -4 2237.23 161.568   2
   9  -2  -5 1953.40 175.295   2
  -9   2  -6 253.556 110.114   2
  -9  -2  -7 1452.42 198.356   2
   9   2  -8 77.1659 186.203   2
   9   3   0-67.2898 116.363   2
   9  -3  -1 453.329 80.2356   2
   9   3   2 87.7871 92.1811   2
  -9  -3  -3 71.0130 97.1395   2
  -9  -3  -4 88.5057 126.578   2
   9  -3  -5 151.221 108.145   2
  -9  -3  -6 135.917 145.982   2
  -9  -3  -7 54.1163 178.037   2
   9   3  -8 162.377 167.477   2
   9   4   0-7.49506 156.393   2
   9  -4   1 3671.19 202.120   2
   9  -4   2 1155.64 121.664   2
   9   4   3 1060.40 145.509   2
   9   4  -4 452.911 106.312   2
  -9  -4  -5 1854.93 193.960   2
  -9  -4  -6 820.222 156.512   2
   9   4   7 980.658 216.070   2
  -9  -4  -8 53.4624 174.592   2
   9   5   0 17.4001 172.601   2
   9  -5  -1 57.2526 106.059   2
   9   5   2 38.5825 130.567   2
   9   5   3 590.538 119.347   2
   9   5  -4 225.992 127.986   2
  -9  -5  -5 214.210 146.503   2
  -9  -5  -6 94.6766 167.044   2
  -9  -5  -7 77.2337 189.118   2
   9   6   0-58.7527 167.985   2
   9  -6  -1 1110.08 151.802   2
   9  -6  -2 173.550 109.963   2
   9   6   3 622.847 133.513   2
   9   6   4 1539.56 188.890   2
  -9  -6  -5 1429.69 216.937   2
   9   6  -6 68.7019 174.877   2
  -9  -6  -7 1350.87 221.307   2
   9   7   0 313.774 177.714   2
   9  -7  -1 600.612 119.906   2
   9  -7  -2 254.910 128.432   2
   9   7  -3 160.860 141.085   2
   9   7   4 182.034 170.608   2
   9   7   5 299.318 174.548   2
   9   7   6 53.6530 189.508   2
   9   7  -7 56.0633 233.592   2
   9   8   0 61.3337 156.798   2
   9   8   1 3713.67 292.537   2
   9   8  -2 596.937 144.996   2
   9   8  -3 1262.48 192.612   2
   9   8   4 175.680 147.106   2
   9   8   5 1596.20 237.934   2
  -9  -8  -6 171.328 226.875   2
   9   9   0 41.9565 291.511   2
   9   9  -1 145.485 137.708   2
   9   9  -2 100.438 177.953   2
   9   9   3 861.221 160.347   2
   9   9   4 121.977 182.629   2
   9   9  -5 335.761 242.562   2
  -9  -9  -6 59.4512 257.363   2
   9  10   0 14.4601 248.213   2
   9  10  -1 708.824 173.513   2
   9  10  -2 19.0743 143.687   2
  -9 -10  -3 326.705 244.039   2
   9  10  -4 457.956 184.274   2
  -9 -10  -5 1207.56 273.707   2
   9  11   0 195.526 320.599   2
   9  11  -1 517.418 181.971   2
  -9 -11  -2 221.347 235.656   2
  -9 -11  -3 184.130 182.076   2
   9  11  -4-36.4303 183.697   2
   9  12   0-151.852 338.030   2
   9  12  -1 2362.30 323.586   2
  -9 -12  -2 133.501 214.379   2
  10   0   0 6450.10 402.373   2
  10   0   1 243.274 143.491   2
  10   0   2 727.283 163.663   2
 -10   0  -3 239.378 150.661   2
 -10   0  -4 1576.85 231.090   2
  10   0  -5 667.463 156.329   2
  10   0   6 1822.09 233.159   2
  10   0  -7 71.2220 168.064   2
  10  -1   0 352.097 117.051   2
  10   1   1-8.67571 89.7174   2
  10  -1  -2 151.437 109.797   2
  10   1  -3 89.4239 110.204   2
 -10   1  -4 87.1619 113.164   2
  10  -1  -5 97.7869 110.589   2
 -10   1  -6 113.944 117.051   2
 -10  -1  -7 46.1110 138.491   2
  10  -2   0 3839.13 228.761   2
  10   2   1 685.868 97.7614   2
  10   2   2 206.643 106.499   2
 -10   2  -3 45.7017 104.472   2
 -10   2  -4 1035.44 128.101   2
  10  -2  -5 45.9664 112.801   2
 -10  -2  -6 2098.27 194.537   2
  10   2  -7 433.454 152.644   2
  10  -3   0 35.5061 140.211   2
  10  -3  -1 219.669 94.6178   2
  10   3   2 232.187 102.991   2
 -10   3  -3-0.77098 98.4427   2
  10   3  -4 118.162 109.336   2
  10   3  -5 84.8780 133.310   2
 -10  -3  -6 171.402 140.099   2
  10   3  -7 197.855 191.563   2
  10  -4   0 5835.61 421.474   2
  10  -4  -1 166.650 111.035   2
  10  -4   2 654.669 130.929   2
  10   4   3 248.477 125.401   2
  10   4  -4 1608.91 174.679   2
  10  -4  -5 598.070 141.979   2
 -10  -4  -6 1598.80 241.646   2
  10   4  -7 145.059 202.329   2
  10   5   0 498.197 192.876   2
  10  -5  -1 102.726 112.812   2
  10   5   2 16.0868 119.403   2
  10   5   3 144.890 123.783   2
  10   5   4-3.05671 152.136   2
 -10  -5  -5 105.994 177.514   2
 -10  -5  -6-3.97932 168.638   2
  10   6   0 2386.46 305.516   2
  10  -6  -1 383.443 123.174   2
  10  -6  -2 342.969 119.465   2
  10   6  -3 52.7977 151.982   2
  10   6   4 1269.23 210.758   2
  10   6   5 62.9084 155.088   2
  10   6  -6 1845.35 260.521   2
  10   7   0 47.5429 201.627   2
  10  -7  -1 515.980 126.590   2
  10   7   2 511.150 157.081   2
  10   7  -3 50.1005 162.198   2
  10   7   4 66.2586 150.749   2
  10   7   5 47.4779 181.648   2
  10  -8   0 2973.25 329.353   2
 -10  -8  -1 140.903 137.098   2
  10   8  -2 678.552 177.598   2
  10   8  -3 340.490 160.595   2
  10   8   4 1577.18 240.985   2
  10   8   5 338.941 165.203   2
  10   9   0 927.623 348.904   2
  10   9  -1 432.038 174.482   2
  10   9  -2 110.207 147.966   2
  10   9  -3 186.178 188.961   2
  10   9   4 35.3292 164.843   2
  10  10   0 1323.82 360.305   2
 -10 -10  -1 354.663 194.958   2
  10  10  -2 530.938 191.275   2
 -10 -10  -3 129.699 180.873   2
  10  11   0 124.554 365.914   2
  11   0   0 72.0773 186.507   2
  11   0   1 685.112 137.847   2
 -11   0  -2-4.77229 167.302   2
 -11   0  -3 3530.66 290.951   2
 -11   0  -4 553.671 181.682   2
  11   0   5 162.468 183.943   2
 -11   0  -6 73.3952 188.685   2
  11  -1   0-11.5739 130.420   2
  11  -1   1 144.145 86.5533   2
  11   1   2 162.468 116.260   2
 -11   1  -3 43.7068 119.154   2
 -11   1  -4 72.3014 126.650   2
  11  -1  -5 76.3257 125.866   2
 -11   1  -6 105.093 127.652   2
  11  -2   0-81.5571 152.466   2
  11  -2   1 198.361 110.898   2
  11   2   2 288.747 120.128   2
 -11   2  -3 2329.72 176.936   2
  11   2  -4 170.141 118.751   2
  11   2  -5 141.281 125.750   2
  11  -3   0 52.1301 160.761   2
  11  -3  -1 87.7729 136.669   2
  11   3   2 29.1569 121.289   2
  11   3   3 116.547 130.118   2
  11   3  -4 134.522 114.459   2
  11  -3  -5 63.5379 130.255   2
  11  -4   0 20.2548 164.011   2
  11   4   1 785.105 140.994   2
  11   4   2-7.21727 120.308   2
  11   4   3 3545.86 231.867   2
  11   4   4 476.750 145.580   2
 -11  -4  -5 344.594 152.675   2
  11  -5   0 147.821 164.947   2
  11  -5  -1 128.471 128.273   2
  11   5   2 314.297 134.407   2
  11   5   3 51.3460 134.635   2
  11   5   4-4.86200 170.679   2
  11   5   5 50.7102 196.816   2
  11  -6   0 94.8936 153.203   2
  11  -6  -1 235.461 125.476   2
  11   6   2 192.726 137.318   2
  11   6  -3 2146.65 230.403   2
  11   6   4 29.3872 160.844   2
  11  -7   0 46.2503 179.353   2
  11  -7  -1 131.778 134.851   2
  11   7   2 85.6038 160.983   2
  11   7  -3 263.199 165.286   2
 -11  -8   0 198.698 228.804   2
 -11  -8  -1 1295.40 194.608   2
  11   8  -2-37.8966 173.480   2
  12   0   0 991.810 218.656   2
  12   0   1 681.217 154.202   2
  12   0   2 1532.46 224.590   2
 -12   0  -3 62.6726 189.621   2
  12  -1   0 2.05070 185.035   2
  12  -1   1 46.0391 126.741   2
  12  -1   2 163.744 114.020   2
  12   1   3 66.8721 125.669   2
  12  -2   0 409.906 175.781   2
  12  -2   1 292.490 121.752   2
  12   2   2 951.432 156.932   2
  12   2   3 308.390 143.979   2
  12  -3   0 379.581 175.283   2
  12  -3   1 49.0501 120.894   2
  12   3   2 8.23370 136.502   2
  12   3   3 64.7727 147.868   2
  12  -4   0 1088.72 218.420   2
  12  -4   1 654.356 130.174   2
  12   4   2 1360.32 173.882   2
  12  -5   0-9.70482 185.569   2
  12  -5   1 44.1295 127.106   2
;
_shelx_hkl_checksum              50450
loop_
_space_group_symop_operation_xyz
'x, y, z'
'-x+1/2, -y, z+1/2'
'-x, y+1/2, -z'
'x+1/2, -y+1/2, -z+1/2'
'-x, -y, -z'
'x-1/2, y, -z-1/2'
'x, -y-1/2, z'
'-x-1/2, y-1/2, z-1/2'
loop_
_atom_site_label
_atom_site_type_symbol
_atom_site_fract_x
_atom_site_fract_y
_atom_site_fract_z
_atom_site_U_iso_or_equiv
_atom_site_adp_type
_atom_site_occupancy
_atom_site_site_symmetry_order
_atom_site_calc_flag
_atom_site_refinement_flags_posn
_atom_site_refinement_flags_adp
_atom_site_refinement_flags_occupancy
C1A C -0.069(4) 0.7500 0.029(4) 0.028(7) Uani 1 2 d S T P
H1A1 H -0.0985 0.8216 0.0496 0.042 Uiso 0.5 1 calc R U P
H1A2 H -0.0583 0.7121 0.1248 0.042 Uiso 0.5 1 calc R U P
H1A3 H -0.1436 0.7163 -0.0349 0.042 Uiso 0.5 1 calc R U P
N1 N 0.084(4) 0.7500 -0.058(5) 0.051(9) Uani 1 2 d S T P
H1A H 0.1493 0.7096 -0.0072 0.077 Uiso 0.5 1 calc R U P
H1B H 0.1191 0.8158 -0.0639 0.077 Uiso 0.5 1 calc R U P
H1C H 0.0709 0.7246 -0.1541 0.077 Uiso 0.5 1 calc R U P
I1 I 0.18956(16) 0.48279(13) 0.1856(2) 0.0263(4) Uani 1 1 d . . .
I2 I 0.5147(2) 0.7500 0.0536(3) 0.0233(5) Uani 1 2 d S T P
Pb1 Pb 0.5000 0.5000 0.0000 0.0169(3) Uani 1 2 d S . P
loop_
_atom_site_aniso_label
_atom_site_aniso_U_11
_atom_site_aniso_U_22
_atom_site_aniso_U_33
_atom_site_aniso_U_23
_atom_site_aniso_U_13
_atom_site_aniso_U_12
C1A 0.04(2) 0.017(15) 0.025(18) 0.000 0.013(15) 0.000
N1 0.06(2) 0.035(19) 0.06(3) 0.000 0.01(2) 0.000
I1 0.0230(7) 0.0293(8) 0.0265(8) -0.0005(6) 0.0078(6) -0.0007(5)
I2 0.0253(10) 0.0130(9) 0.0317(12) 0.000 0.0006(8) 0.000
Pb1 0.0139(5) 0.0141(5) 0.0227(6) -0.0003(4) -0.0002(4) 0.0001(3)
loop_
_atom_type_symbol
_atom_type_description
_atom_type_scat_dispersion_real
_atom_type_scat_dispersion_imag
_atom_type_scat_source
C C 0.0033 0.0016 'International Tables Vol C Tables 4.2.6.8 and 6.1.1.4'
H H 0.0000 0.0000 'International Tables Vol C Tables 4.2.6.8 and 6.1.1.4'
N N 0.0061 0.0033 'International Tables Vol C Tables 4.2.6.8 and 6.1.1.4'
I I -0.4742 1.8119 'International Tables Vol C Tables 4.2.6.8 and 6.1.1.4'
Pb Pb -3.3944 10.1111 'International Tables Vol C Tables 4.2.6.8 and 6.1.1.4'
loop_
_geom_angle_atom_site_label_1
_geom_angle_atom_site_label_2
_geom_angle_atom_site_label_3
_geom_angle
_geom_angle_site_symmetry_1
_geom_angle_site_symmetry_3
Pb1 I1 Pb1 150.92(6) 2_565 .
Pb1 I2 Pb1 162.78(9) . 3_655
I1 Pb1 I1 180.0 6_656 2_564
I1 Pb1 I1 91.611(16) 6_656 .
I1 Pb1 I1 88.389(16) 2_564 .
I1 Pb1 I1 88.389(16) 6_656 5_665
I1 Pb1 I1 91.611(16) 2_564 5_665
I1 Pb1 I1 180.0 . 5_665
I1 Pb1 I2 94.36(5) 6_656 5_665
I1 Pb1 I2 85.64(5) 2_564 5_665
I1 Pb1 I2 88.24(5) . 5_665
I1 Pb1 I2 91.76(5) 5_665 5_665
I1 Pb1 I2 85.64(5) 6_656 .
I1 Pb1 I2 94.36(5) 2_564 .
I1 Pb1 I2 91.76(5) . .
I1 Pb1 I2 88.24(5) 5_665 .
I2 Pb1 I2 180.0 5_665 .
loop_
_geom_bond_atom_site_label_1
_geom_bond_atom_site_label_2
_geom_bond_distance
_geom_bond_site_symmetry_2
C1A N1 1.54(6) .
I1 Pb1 3.1890(16) 2_565
I1 Pb1 3.1908(15) .
I2 Pb1 3.1960(5) .
I2 Pb1 3.1960(5) 3_655
Pb1 I1 3.1889(16) 6_656
Pb1 I1 3.1889(16) 2_564
Pb1 I1 3.1908(15) 5_665
Pb1 I2 3.1960(5) 5_665
