#------------------------------------------------------------------------------
#$Date: 2020-02-05 02:36:06 +0200 (Wed, 05 Feb 2020) $
#$Revision: 247870 $
#$URL: file:///home/coder/svn-repositories/cod/cif/8/00/04/8000401.cif $
#------------------------------------------------------------------------------
#
# This file is available in the Crystallography Open Database (COD),
# http://www.crystallography.net/
#
# All data on this site have been placed in the public domain by the
# contributors.
#
data_8000401
loop_
_publ_author_name
'Takahashi, Yukihiro'
'Takehisa, Mika'
'Tanaka, Eri'
'Harada, Jun'
'Kumai, Reiji'
'Inabe, Tamotsu'
_publ_section_title
;
 Incorporating Spacer Molecules into the Tetrathiafulvalene-p-Chloranil
 Charge-Transfer Framework: Modulating the Neutral-Ionic Phase Transition.
;
_journal_name_full               'The journal of physical chemistry letters'
_journal_page_first              1336
_journal_paper_doi               10.1021/acs.jpclett.9b03847
_journal_year                    2020
_chemical_formula_moiety         'C6 H4 S4, 2(C6 Cl4 O2), C20 H12'
_chemical_formula_sum            'C38 H16 Cl8 O4 S4'
_chemical_formula_weight         948.35
_space_group_crystal_system      triclinic
_space_group_IT_number           2
_space_group_name_Hall           '-P 1'
_space_group_name_H-M_alt        'P -1'
_atom_sites_solution_hydrogens   geom
_atom_sites_solution_primary     dual
_audit_creation_date             2017-03-02
_audit_creation_method
;
Olex2 1.2
(compiled 2017.02.23 svn.r3390 for OlexSys, GUI svn.r5320)
;
_cell_angle_alpha                98.1455(10)
_cell_angle_beta                 93.3158(9)
_cell_angle_gamma                92.2872(10)
_cell_formula_units_Z            1
_cell_length_a                   7.6555(5)
_cell_length_b                   7.6969(5)
_cell_length_c                   15.9629(10)
_cell_measurement_reflns_used    9994
_cell_measurement_temperature    300
_cell_measurement_theta_max      29.98
_cell_measurement_theta_min      2.58
_cell_volume                     928.44(10)
_computing_cell_refinement       'SAINT v8.34A (Bruker, 2013)'
_computing_data_collection       'Bruker APEX2 2014.1-1 (Bruker, 2014)'
_computing_data_reduction        'SAINT v8.34A (Bruker, 2013)'
_computing_molecular_graphics    'Olex2 (Dolomanov et al., 2009)'
_computing_publication_material  'Olex2 (Dolomanov et al., 2009)'
_computing_structure_refinement  'ShelXL (Sheldrick, 2015)'
_computing_structure_solution    'ShelXT (Sheldrick, 2015)'
_diffrn_ambient_temperature      300
_diffrn_detector_area_resol_mean 8.3333
_diffrn_measured_fraction_theta_full 1.000
_diffrn_measured_fraction_theta_max 0.996
_diffrn_measurement_device_type  'Bruker APEX-II CCD'
_diffrn_measurement_method       '\f and \w scans'
_diffrn_radiation_type           MoK\a
_diffrn_radiation_wavelength     0.71073
_diffrn_reflns_av_R_equivalents  0.0155
_diffrn_reflns_av_unetI/netI     0.0127
_diffrn_reflns_Laue_measured_fraction_full 1.000
_diffrn_reflns_Laue_measured_fraction_max 0.996
_diffrn_reflns_limit_h_max       10
_diffrn_reflns_limit_h_min       -10
_diffrn_reflns_limit_k_max       10
_diffrn_reflns_limit_k_min       -10
_diffrn_reflns_limit_l_max       22
_diffrn_reflns_limit_l_min       -22
_diffrn_reflns_number            20944
_diffrn_reflns_point_group_measured_fraction_full 1.000
_diffrn_reflns_point_group_measured_fraction_max 0.996
_diffrn_reflns_theta_full        25.242
_diffrn_reflns_theta_max         30.032
_diffrn_reflns_theta_min         2.583
_diffrn_source                   'rotating-anode X-ray tube'
_diffrn_standards_number         0
_exptl_absorpt_coefficient_mu    0.876
_exptl_absorpt_correction_T_max  0.9420
_exptl_absorpt_correction_T_min  0.8972
_exptl_absorpt_correction_type   multi-scan
_exptl_absorpt_process_details
'SADABS-2014/4 (Bruker,2014/4) was used for absorption correction. wR2(int) was 0.0616 before and 0.0302 after correction. The Ratio of minimum to maximum transmission is 0.9524. The \l/2 correction factor is Not present.'
_exptl_crystal_colour            green
_exptl_crystal_colour_primary    green
_exptl_crystal_density_diffrn    1.696
_exptl_crystal_description       plate
_exptl_crystal_F_000             476
_exptl_crystal_size_max          0.15
_exptl_crystal_size_mid          0.07
_exptl_crystal_size_min          0.03
_refine_diff_density_max         0.409
_refine_diff_density_min         -0.266
_refine_diff_density_rms         0.046
_refine_ls_extinction_method     none
_refine_ls_goodness_of_fit_ref   1.032
_refine_ls_hydrogen_treatment    constr
_refine_ls_matrix_type           full
_refine_ls_number_parameters     244
_refine_ls_number_reflns         5403
_refine_ls_number_restraints     0
_refine_ls_restrained_S_all      1.032
_refine_ls_R_factor_all          0.0359
_refine_ls_R_factor_gt           0.0298
_refine_ls_shift/su_max          0.001
_refine_ls_shift/su_mean         0.000
_refine_ls_structure_factor_coef Fsqd
_refine_ls_weighting_details
'w=1/[\s^2^(Fo^2^)+(0.0430P)^2^+0.2393P] where P=(Fo^2^+2Fc^2^)/3'
_refine_ls_weighting_scheme      calc
_refine_ls_wR_factor_gt          0.0807
_refine_ls_wR_factor_ref         0.0859
_reflns_Friedel_coverage         0.000
_reflns_number_gt                4653
_reflns_number_total             5403
_reflns_threshold_expression     'I > 2\s(I)'
_iucr_refine_instructions_details
;
TITL TTF_Perylene_CA2 at 300 K in P-1
CELL 0.71073   7.65550   7.69690  15.96290  98.1455  93.3158  92.2872
ZERR    1.00   0.00050   0.00050   0.00100   0.0010   0.0009   0.0010
LATT  1
SFAC C H O S CL
UNIT 38 16 4 4 8
TEMP 27
SIZE 0.03 0.07 0.15
L.S. 5
BOND $H
CONF
LIST 4
ACTA
FMAP 2
PLAN 20
WGHT      0.0434      0.2367 
FVAR       0.16728
C1    1   -0.061688    0.475441    0.024893    11.00000    0.02919    0.05339 =
         0.03732    0.00379   -0.00333   -0.00662
C2    1   -0.341523    0.358026    0.081904    11.00000    0.03569    0.06846 =
         0.05573    0.01326    0.00592   -0.01111
AFIX  43
H2    2   -0.452778    0.308795    0.086706    11.00000   -1.20000
AFIX   0
C3    1   -0.237713    0.416545    0.149728    11.00000    0.04403    0.07534 =
         0.04636    0.01484    0.00844   -0.00749
AFIX  43
H3    2   -0.273764    0.409683    0.203857    11.00000   -1.20000
AFIX   0
S1    4   -0.263791    0.375943   -0.016159    11.00000    0.03222    0.07164 =
         0.04344    0.00464   -0.00479   -0.01403
S2    4   -0.033217    0.506184    0.135372    11.00000    0.03935    0.07018 =
         0.03596    0.00487   -0.00358   -0.00926
O1    3    0.286221    0.144668    0.088246    11.00000    0.04467    0.08783 =
         0.05537   -0.00893   -0.01120   -0.02047
C4    1    0.156873    0.076253    0.047655    11.00000    0.03466    0.04913 =
         0.04410   -0.00823   -0.00312   -0.00385
C5    1    0.004734    0.013395    0.090362    11.00000    0.04148    0.04769 =
         0.03641   -0.00690   -0.00110   -0.00175
C6    1   -0.141946   -0.055443    0.045839    11.00000    0.03498    0.04586 =
         0.04460   -0.00519    0.00353   -0.00255
CL1   5    0.026384    0.042127    0.197941    11.00000    0.07240    0.07912 =
         0.03699   -0.00484   -0.00279   -0.00746
CL2   5   -0.321802   -0.123320    0.092473    11.00000    0.04660    0.07515 =
         0.06489    0.00084    0.01432   -0.01216
O2    3    0.037422    0.613045    0.665252    11.00000    0.08006    0.05024 =
         0.03297   -0.00150    0.00125    0.00746
C7    1    0.020162    0.561614    0.590258    11.00000    0.04251    0.03353 =
         0.03388    0.00264    0.00472    0.00116
C8    1    0.073565    0.384775    0.553738    11.00000    0.03707    0.03181 =
         0.03751    0.00745    0.00199    0.00301
C9    1    0.055354    0.328763    0.470694    11.00000    0.03735    0.02690 =
         0.04061    0.00228    0.00668    0.00304
CL3   5    0.159229    0.263198    0.625686    11.00000    0.06107    0.04676 =
         0.05272    0.01729   -0.00759    0.00841
CL4   5    0.115565    0.127941    0.426151    11.00000    0.06330    0.03239 =
         0.05657   -0.00155    0.01120    0.01084
C10   1    0.497520    0.211652    0.289204    11.00000    0.04727    0.04416 =
         0.03274   -0.00274    0.00163    0.00263
AFIX  43
H10   2    0.477594    0.171032    0.231605    11.00000   -1.20000
AFIX   0
C11   1    0.577521    0.109174    0.340889    11.00000    0.05751    0.03706 =
         0.04261   -0.00360    0.00263    0.01082
AFIX  43
H11   2    0.613428   -0.000683    0.318212    11.00000   -1.20000
AFIX   0
C12   1    0.606530    0.166863    0.427767    11.00000    0.04981    0.03548 =
         0.03934    0.00403    0.00039    0.01189
AFIX  43
H12   2    0.661794    0.094358    0.461862    11.00000   -1.20000
AFIX   0
C13   1    0.343567    0.711474    0.388575    11.00000    0.04727    0.03917 =
         0.03807    0.00776   -0.00206    0.01140
AFIX  43
H13   2    0.309600    0.823158    0.409533    11.00000   -1.20000
AFIX   0
C14   1    0.317528    0.652264    0.301789    11.00000    0.05409    0.05388 =
         0.03670    0.01453   -0.00582    0.01334
AFIX  43
H14   2    0.267520    0.724667    0.266028    11.00000   -1.20000
AFIX   0
C15   1    0.364902    0.489310    0.269294    11.00000    0.04478    0.05403 =
         0.02944    0.00653   -0.00308    0.00675
AFIX  43
H15   2    0.344743    0.449869    0.211595    11.00000   -1.20000
AFIX   0
C16   1    0.444491    0.379565    0.322548    11.00000    0.03300    0.04039 =
         0.03015    0.00349    0.00018    0.00107
C17   1    0.555147    0.329132    0.464404    11.00000    0.03057    0.03068 =
         0.03154    0.00487    0.00131    0.00298
C18   1    0.418151    0.609579    0.444346    11.00000    0.02925    0.03165 =
         0.03125    0.00568    0.00084    0.00292
C19   1    0.472914    0.439724    0.410907    11.00000    0.02760    0.03136 =
         0.02962    0.00472    0.00115    0.00107
HKLF 4
 
REM  TTF_Perylene_CA2 at 300 K in P-1
REM R1 =  0.0298 for    4653 Fo > 4sig(Fo)  and  0.0359 for all    5403 data
REM    244 parameters refined using      0 restraints
 
END  
     
WGHT      0.0434      0.2367 

REM Highest difference peak  0.409,  deepest hole -0.266,  1-sigma level  0.046
Q1    1   0.4489  0.5254  0.4282  11.00000  0.05    0.41
Q2    1   0.5059  0.3840  0.4379  11.00000  0.05    0.34
Q3    1   0.0540  0.4710  0.5694  11.00000  0.05    0.33
Q4    1   0.5842  0.2504  0.4479  11.00000  0.05    0.31
Q5    1  -0.2762 -0.1136  0.1374  11.00000  0.05    0.31
Q6    1   0.0628 -0.0256  0.1681  11.00000  0.05    0.31
Q7    1   0.4684  0.4118  0.3692  11.00000  0.05    0.31
Q8    1   0.5655  0.3603  0.5098  11.00000  0.05    0.30
Q9    1   0.4635  0.2963  0.3030  11.00000  0.05    0.30
Q10   1  -0.0624 -0.0397  0.0683  11.00000  0.05    0.29
Q11   1   0.4181  0.4472  0.2988  11.00000  0.05    0.28
Q12   1   0.0000  0.5000  0.0000  10.50000  0.05    0.27
Q13   1   0.3380  0.6804  0.3489  11.00000  0.05    0.27
Q14   1   0.0786  0.3662  0.5099  11.00000  0.05    0.27
Q15   1  -0.1583  0.4551  0.1441  11.00000  0.05    0.26
Q16   1  -0.3049  0.3673  0.0364  11.00000  0.05    0.26
Q17   1  -0.3497 -0.0449  0.0777  11.00000  0.05    0.25
Q18   1   0.0788  0.0498  0.0657  11.00000  0.05    0.25
Q19   1   0.0250  0.3866  0.4456  11.00000  0.05    0.25
Q20   1  -0.1403 -0.0755  0.0016  11.00000  0.05    0.24
;
_cod_data_source_file            jz9b03847_si_002.cif
_cod_data_source_block           (TTF)(perylene)(CA)2_300K
_cod_database_code               8000401
_shelxl_version_number           2014/6
_shelx_space_group_comment
;
The symmetry employed for this shelxl refinement is uniquely defined
by the following loop, which should always be used as a source of
symmetry information in preference to the above space-group names.
They are only intended as comments.
;
_shelx_estimated_absorpt_t_max   0.974
_shelx_estimated_absorpt_t_min   0.880
_olex2_refinement_description
;
1. Fixed Uiso
 At 1.2 times of:
  All C(H) groups
2.a Aromatic/amide H refined with riding coordinates:
 C2(H2), C3(H3), C10(H10), C11(H11), C12(H12), C13(H13), C14(H14), C15(H15)
;
_olex2_submission_special_instructions 'No special instructions were received'
loop_
_space_group_symop_operation_xyz
'x, y, z'
'-x, -y, -z'
loop_
_atom_site_label
_atom_site_type_symbol
_atom_site_fract_x
_atom_site_fract_y
_atom_site_fract_z
_atom_site_U_iso_or_equiv
_atom_site_adp_type
_atom_site_occupancy
_atom_site_site_symmetry_order
_atom_site_calc_flag
_atom_site_refinement_flags_posn
C1 C -0.06169(16) 0.47544(19) 0.02489(8) 0.0407(3) Uani 1 1 d .
C2 C -0.34152(19) 0.3580(2) 0.08190(11) 0.0531(4) Uani 1 1 d .
H2 H -0.4528 0.3088 0.0867 0.064 Uiso 1 1 calc R
C3 C -0.2377(2) 0.4165(2) 0.14973(10) 0.0547(4) Uani 1 1 d .
H3 H -0.2738 0.4097 0.2039 0.066 Uiso 1 1 calc R
S1 S -0.26379(4) 0.37594(6) -0.01616(2) 0.05019(10) Uani 1 1 d .
S2 S -0.03322(5) 0.50618(6) 0.13537(2) 0.04933(10) Uani 1 1 d .
O1 O 0.28622(15) 0.14467(19) 0.08825(8) 0.0657(3) Uani 1 1 d .
C4 C 0.15687(17) 0.07625(19) 0.04765(9) 0.0445(3) Uani 1 1 d .
C5 C 0.00473(18) 0.01340(19) 0.09036(9) 0.0434(3) Uani 1 1 d .
C6 C -0.14195(17) -0.05544(19) 0.04584(9) 0.0430(3) Uani 1 1 d .
Cl1 Cl 0.02638(6) 0.04213(7) 0.19794(3) 0.06466(12) Uani 1 1 d .
Cl2 Cl -0.32180(5) -0.12332(6) 0.09247(3) 0.06310(12) Uani 1 1 d .
O2 O 0.03742(17) 0.61305(15) 0.66525(6) 0.0551(3) Uani 1 1 d .
C7 C 0.02016(17) 0.56161(16) 0.59026(8) 0.0368(3) Uani 1 1 d .
C8 C 0.07357(16) 0.38478(16) 0.55374(8) 0.0352(2) Uani 1 1 d .
C9 C 0.05535(16) 0.32876(15) 0.47069(8) 0.0350(2) Uani 1 1 d .
Cl3 Cl 0.15923(5) 0.26320(5) 0.62569(3) 0.05282(10) Uani 1 1 d .
Cl4 Cl 0.11557(5) 0.12794(4) 0.42615(3) 0.05101(10) Uani 1 1 d .
C10 C 0.49752(19) 0.21165(19) 0.28920(9) 0.0422(3) Uani 1 1 d .
H10 H 0.4776 0.1710 0.2316 0.051 Uiso 1 1 calc R
C11 C 0.5775(2) 0.10917(19) 0.34089(9) 0.0464(3) Uani 1 1 d .
H11 H 0.6134 -0.0007 0.3182 0.056 Uiso 1 1 calc R
C12 C 0.60653(19) 0.16686(17) 0.42777(9) 0.0415(3) Uani 1 1 d .
H12 H 0.6618 0.0944 0.4619 0.050 Uiso 1 1 calc R
C13 C 0.34357(19) 0.71147(18) 0.38857(9) 0.0412(3) Uani 1 1 d .
H13 H 0.3096 0.8232 0.4095 0.049 Uiso 1 1 calc R
C14 C 0.3175(2) 0.6523(2) 0.30179(9) 0.0475(3) Uani 1 1 d .
H14 H 0.2675 0.7247 0.2660 0.057 Uiso 1 1 calc R
C15 C 0.36490(19) 0.4893(2) 0.26929(8) 0.0428(3) Uani 1 1 d .
H15 H 0.3447 0.4499 0.2116 0.051 Uiso 1 1 calc R
C16 C 0.44449(16) 0.37956(17) 0.32255(8) 0.0348(2) Uani 1 1 d .
C17 C 0.55515(15) 0.32913(15) 0.46440(7) 0.0309(2) Uani 1 1 d .
C18 C 0.41815(15) 0.60958(15) 0.44435(7) 0.0306(2) Uani 1 1 d .
C19 C 0.47291(14) 0.43972(14) 0.41091(7) 0.0295(2) Uani 1 1 d .
loop_
_atom_site_aniso_label
_atom_site_aniso_U_11
_atom_site_aniso_U_22
_atom_site_aniso_U_33
_atom_site_aniso_U_23
_atom_site_aniso_U_13
_atom_site_aniso_U_12
C1 0.0292(5) 0.0534(7) 0.0373(6) 0.0038(5) -0.0033(5) -0.0066(5)
C2 0.0357(7) 0.0685(10) 0.0557(9) 0.0133(7) 0.0059(6) -0.0111(6)
C3 0.0440(7) 0.0753(11) 0.0464(8) 0.0148(7) 0.0084(6) -0.0075(7)
S1 0.03222(16) 0.0716(3) 0.04344(19) 0.00464(17) -0.00479(13) -0.01403(15)
S2 0.03935(17) 0.0702(2) 0.03596(17) 0.00487(16) -0.00358(13) -0.00926(16)
O1 0.0447(6) 0.0878(9) 0.0554(7) -0.0089(6) -0.0112(5) -0.0205(6)
C4 0.0347(6) 0.0491(7) 0.0441(7) -0.0082(6) -0.0031(5) -0.0038(5)
C5 0.0415(7) 0.0477(7) 0.0364(6) -0.0069(5) -0.0011(5) -0.0018(5)
C6 0.0350(6) 0.0459(7) 0.0446(7) -0.0052(6) 0.0035(5) -0.0025(5)
Cl1 0.0724(3) 0.0791(3) 0.03699(19) -0.00484(18) -0.00279(17) -0.0075(2)
Cl2 0.0466(2) 0.0751(3) 0.0649(3) 0.0008(2) 0.01432(18) -0.01216(18)
O2 0.0801(8) 0.0502(6) 0.0330(5) -0.0015(4) 0.0013(5) 0.0075(5)
C7 0.0425(6) 0.0335(6) 0.0339(6) 0.0026(5) 0.0047(5) 0.0012(5)
C8 0.0371(6) 0.0318(5) 0.0375(6) 0.0075(5) 0.0020(5) 0.0030(4)
C9 0.0373(6) 0.0269(5) 0.0406(6) 0.0023(4) 0.0067(5) 0.0030(4)
Cl3 0.0611(2) 0.04676(19) 0.0527(2) 0.01729(15) -0.00759(16) 0.00841(16)
Cl4 0.0633(2) 0.03239(15) 0.0566(2) -0.00155(13) 0.01120(17) 0.01084(14)
C10 0.0473(7) 0.0442(7) 0.0327(6) -0.0027(5) 0.0016(5) 0.0026(6)
C11 0.0575(8) 0.0371(6) 0.0426(7) -0.0036(5) 0.0026(6) 0.0108(6)
C12 0.0498(7) 0.0355(6) 0.0393(7) 0.0040(5) 0.0004(5) 0.0119(5)
C13 0.0473(7) 0.0392(6) 0.0381(7) 0.0078(5) -0.0021(5) 0.0114(5)
C14 0.0541(8) 0.0539(8) 0.0367(7) 0.0145(6) -0.0058(6) 0.0133(6)
C15 0.0448(7) 0.0540(8) 0.0294(6) 0.0065(5) -0.0031(5) 0.0067(6)
C16 0.0330(5) 0.0404(6) 0.0301(6) 0.0035(5) 0.0002(4) 0.0011(5)
C17 0.0306(5) 0.0307(5) 0.0315(5) 0.0049(4) 0.0013(4) 0.0030(4)
C18 0.0293(5) 0.0316(5) 0.0313(5) 0.0057(4) 0.0008(4) 0.0029(4)
C19 0.0276(5) 0.0314(5) 0.0296(5) 0.0047(4) 0.0011(4) 0.0011(4)
loop_
_atom_type_symbol
_atom_type_description
_atom_type_scat_dispersion_real
_atom_type_scat_dispersion_imag
_atom_type_scat_source
C C 0.0033 0.0016 'International Tables Vol C Tables 4.2.6.8 and 6.1.1.4'
H H 0.0000 0.0000 'International Tables Vol C Tables 4.2.6.8 and 6.1.1.4'
O O 0.0106 0.0060 'International Tables Vol C Tables 4.2.6.8 and 6.1.1.4'
S S 0.1246 0.1234 'International Tables Vol C Tables 4.2.6.8 and 6.1.1.4'
Cl Cl 0.1484 0.1585 'International Tables Vol C Tables 4.2.6.8 and 6.1.1.4'
loop_
_geom_angle_atom_site_label_1
_geom_angle_atom_site_label_2
_geom_angle_atom_site_label_3
_geom_angle
_geom_angle_site_symmetry_1
_geom_angle_site_symmetry_3
C1 C1 S1 122.52(14) 2_565 .
C1 C1 S2 122.81(13) 2_565 .
S2 C1 S1 114.67(7) . .
C3 C2 H2 121.1 . .
C3 C2 S1 117.75(11) . .
S1 C2 H2 121.1 . .
C2 C3 H3 120.9 . .
C2 C3 S2 118.26(12) . .
S2 C3 H3 120.9 . .
C2 S1 C1 94.72(7) . .
C3 S2 C1 94.61(7) . .
O1 C4 C5 121.03(14) . .
O1 C4 C6 121.76(14) . 2
C6 C4 C5 117.20(11) 2 .
C4 C5 Cl1 115.67(10) . .
C6 C5 C4 121.28(13) . .
C6 C5 Cl1 123.01(12) . .
C4 C6 Cl2 115.70(10) 2 .
C5 C6 C4 121.50(13) . 2
C5 C6 Cl2 122.80(12) . .
O2 C7 C8 121.78(12) . .
O2 C7 C9 121.89(12) . 2_566
C9 C7 C8 116.33(11) 2_566 .
C7 C8 Cl3 114.87(9) . .
C9 C8 C7 121.62(11) . .
C9 C8 Cl3 123.51(10) . .
C7 C9 Cl4 114.76(9) 2_566 .
C8 C9 C7 122.05(11) . 2_566
C8 C9 Cl4 123.19(10) . .
C11 C10 H10 119.9 . .
C11 C10 C16 120.24(12) . .
C16 C10 H10 119.9 . .
C10 C11 H11 119.6 . .
C10 C11 C12 120.75(12) . .
C12 C11 H11 119.6 . .
C11 C12 H12 119.2 . .
C17 C12 C11 121.70(12) . .
C17 C12 H12 119.2 . .
C14 C13 H13 118.9 . .
C18 C13 H13 118.9 . .
C18 C13 C14 122.15(13) . .
C13 C14 H14 119.8 . .
C15 C14 C13 120.32(12) . .
C15 C14 H14 119.8 . .
C14 C15 H15 119.8 . .
C14 C15 C16 120.43(12) . .
C16 C15 H15 119.8 . .
C10 C16 C15 120.90(12) . .
C10 C16 C19 119.58(11) . .
C15 C16 C19 119.53(11) . .
C12 C17 C18 122.40(11) . 2_666
C12 C17 C19 118.37(11) . .
C19 C17 C18 119.23(10) . 2_666
C13 C18 C17 122.32(11) . 2_666
C13 C18 C19 118.24(11) . .
C19 C18 C17 119.43(10) . 2_666
C16 C19 C17 119.36(10) . .
C16 C19 C18 119.30(10) . .
C17 C19 C18 121.34(10) . .
loop_
_geom_bond_atom_site_label_1
_geom_bond_atom_site_label_2
_geom_bond_distance
_geom_bond_site_symmetry_2
C1 C1 1.345(3) 2_565
C1 S1 1.7481(13) .
C1 S2 1.7455(14) .
C2 H2 0.9300 .
C2 C3 1.319(2) .
C2 S1 1.7280(17) .
C3 H3 0.9300 .
C3 S2 1.7261(15) .
O1 C4 1.2104(16) .
C4 C5 1.482(2) .
C4 C6 1.475(2) 2
C5 C6 1.3417(18) .
C5 Cl1 1.6976(14) .
C6 C4 1.476(2) 2
C6 Cl2 1.7013(14) .
O2 C7 1.2044(16) .
C7 C8 1.4855(17) .
C7 C9 1.4830(18) 2_566
C8 C9 1.3321(18) .
C8 Cl3 1.7004(12) .
C9 C7 1.4830(18) 2_566
C9 Cl4 1.7002(12) .
C10 H10 0.9300 .
C10 C11 1.357(2) .
C10 C16 1.4108(18) .
C11 H11 0.9300 .
C11 C12 1.3971(19) .
C12 H12 0.9300 .
C12 C17 1.3840(17) .
C13 H13 0.9300 .
C13 C14 1.3959(19) .
C13 C18 1.3815(17) .
C14 H14 0.9300 .
C14 C15 1.359(2) .
C15 H15 0.9300 .
C15 C16 1.4114(18) .
C16 C19 1.4222(16) .
C17 C18 1.4661(16) 2_666
C17 C19 1.4271(16) .
C18 C17 1.4661(16) 2_666
C18 C19 1.4289(16) .
loop_
_geom_torsion_atom_site_label_1
_geom_torsion_atom_site_label_2
_geom_torsion_atom_site_label_3
_geom_torsion_atom_site_label_4
_geom_torsion
_geom_torsion_site_symmetry_1
_geom_torsion_site_symmetry_4
C1 C1 S1 C2 -179.37(19) 2_565 .
C1 C1 S2 C3 179.38(19) 2_565 .
C2 C3 S2 C1 0.29(17) . .
C3 C2 S1 C1 -0.33(17) . .
S1 C1 S2 C3 -0.50(11) . .
S1 C2 C3 S2 0.0(2) . .
S2 C1 S1 C2 0.51(11) . .
O1 C4 C5 C6 177.01(16) . .
O1 C4 C5 Cl1 -0.6(2) . .
C4 C5 C6 C4 1.7(3) . 2
C4 C5 C6 Cl2 -178.06(11) . .
C6 C4 C5 C6 -1.6(2) 2 .
C6 C4 C5 Cl1 -179.27(11) 2 .
Cl1 C5 C6 C4 179.16(11) . 2
Cl1 C5 C6 Cl2 -0.6(2) . .
O2 C7 C8 C9 -179.55(13) . .
O2 C7 C8 Cl3 0.13(18) . .
C7 C8 C9 C7 -0.4(2) . 2_566
C7 C8 C9 Cl4 179.70(10) . .
C9 C7 C8 C9 0.4(2) 2_566 .
C9 C7 C8 Cl3 -179.92(9) 2_566 .
Cl3 C8 C9 C7 179.93(10) . 2_566
Cl3 C8 C9 Cl4 0.05(17) . .
C10 C11 C12 C17 0.1(2) . .
C10 C16 C19 C17 0.15(17) . .
C10 C16 C19 C18 -179.70(11) . .
C11 C10 C16 C15 178.49(14) . .
C11 C10 C16 C19 -1.0(2) . .
C11 C12 C17 C18 178.92(13) . 2_666
C11 C12 C17 C19 -0.9(2) . .
C12 C17 C19 C16 0.78(17) . .
C12 C17 C19 C18 -179.37(11) . .
C13 C14 C15 C16 -1.4(2) . .
C13 C18 C19 C16 -1.82(17) . .
C13 C18 C19 C17 178.33(11) . .
C14 C13 C18 C17 -179.66(13) . 2_666
C14 C13 C18 C19 1.3(2) . .
C14 C15 C16 C10 -178.66(14) . .
C14 C15 C16 C19 0.8(2) . .
C15 C16 C19 C17 -179.33(11) . .
C15 C16 C19 C18 0.82(17) . .
C16 C10 C11 C12 0.9(2) . .
C17 C18 C19 C16 179.08(10) 2_666 .
C17 C18 C19 C17 -0.78(18) 2_666 .
C18 C13 C14 C15 0.4(2) . .
C18 C17 C19 C16 -179.08(10) 2_666 .
C18 C17 C19 C18 0.77(18) 2_666 .
loop_
_refln_index_h
_refln_index_k
_refln_index_l
_refln_F_squared_meas
_refln_F_squared_sigma
-1 0 0 104.84 1.65
-1 0 0 106.13 1.7
-1 0 0 106.99 1.65
-1 0 0 104.02 1.67
1 0 0 105.26 1.65
1 0 0 108.32 1.63
1 0 0 106.03 1.65
-2 0 0 62.42 0.98
-2 0 0 62.17 0.98
-2 0 0 61.79 1.01
-2 0 0 63.59 1.03
2 0 0 62.13 0.99
2 0 0 62.72 1
2 0 0 63.33 1.02
-3 0 0 94.54 1.5
-3 0 0 91.6 1.46
-3 0 0 93.31 1.48
-3 0 0 92.94 1.54
3 0 0 92.39 1.51
3 0 0 92.89 1.53
3 0 0 93.77 2.11
3 0 0 94.26 1.47
-4 0 0 5.57 0.11
-4 0 0 5.64 0.11
-4 0 0 5.62 0.13
4 0 0 5.65 0.1
4 0 0 5.57 0.14
4 0 0 5.66 0.12
4 0 0 5.39 0.12
-5 0 0 2.22 0.07
-5 0 0 2.11 0.08
-5 0 0 2.24 0.07
5 0 0 2.27 0.05
5 0 0 2.3 0.07
5 0 0 2.23 0.07
-6 0 0 4.76 0.14
-6 0 0 4.9 0.12
6 0 0 4.78 0.12
6 0 0 5.01 0.15
-7 0 0 7.73 0.17
-7 0 0 7.89 0.21
7 0 0 8.22 0.22
7 0 0 7.92 0.18
-8 0 0 -0.02 0.02
-8 0 0 -0.01 0.03
8 0 0 -0.01 0.03
8 0 0 -0.01 0.02
-9 0 0 0.19 0.05
-9 0 0 0.12 0.03
9 0 0 0.1 0.03
9 0 0 0.12 0.05
-10 0 0 2.24 0.08
-10 0 0 1.99 0.13
10 0 0 2.12 0.1
10 0 0 1.94 0.13
10 -1 0 1.51 0.12
10 -1 0 1.56 0.1
-10 1 0 1.34 0.12
-10 1 0 1.42 0.08
9 -1 0 0.57 0.06
9 -1 0 0.47 0.07
-9 1 0 0.61 0.08
-9 1 0 0.65 0.06
8 -1 0 0.32 0.06
8 -1 0 0.34 0.05
-8 1 0 0.33 0.04
-8 1 0 0.26 0.05
7 -1 0 11.78 0.28
7 -1 0 11.63 0.25
-7 1 0 11.77 0.24
-7 1 0 11.15 0.27
6 -1 0 0.78 0.05
6 -1 0 0.92 0.07
-6 1 0 0.78 0.05
-6 1 0 0.79 0.06
5 -1 0 25 0.45
5 -1 0 24.51 0.43
5 -1 0 24.89 0.39
-5 1 0 24.91 0.45
-5 1 0 24.18 0.42
-5 1 0 24.75 0.43
4 -1 0 20.72 0.38
4 -1 0 21.47 0.33
4 -1 0 21.22 0.36
-4 1 0 21.57 0.36
-4 1 0 20.81 0.38
-4 1 0 20.63 0.36
3 -1 0 0.2 0.02
3 -1 0 0.28 0.03
3 -1 0 0.22 0.02
3 -1 0 0.27 0.02
-3 1 0 0.2 0.02
-3 1 0 0.23 0.03
2 -1 0 87.56 1.38
2 -1 0 85.44 1.37
2 -1 0 90.54 1.36
2 -1 0 85.05 1.37
-2 1 0 87.24 1.42
-2 1 0 84.32 1.37
-2 1 0 84.77 1.4
1 -1 0 27.26 0.43
1 -1 0 27.95 0.43
1 -1 0 27.02 0.43
1 -1 0 27.37 0.43
-1 1 0 28.09 0.43
-1 1 0 27.29 0.43
0 -1 0 32.38 0.54
0 -1 0 34.81 0.55
0 -1 0 33.45 0.54
0 -1 0 34.12 0.55
0 1 0 34.09 0.54
0 1 0 34.05 0.53
0 1 0 34.74 0.56
-1 -1 0 0.9 0.03
-1 -1 0 0.88 0.03
-1 -1 0 0.88 0.03
-2 -1 0 235.09 3.84
-2 -1 0 236.48 3.72
-2 -1 0 233.51 3.72
-2 -1 0 233.47 3.67
-2 -1 0 232.3 3.76
-3 -1 0 30.26 0.47
-3 -1 0 31 0.47
-3 -1 0 30.78 0.51
-3 -1 0 30.31 0.49
-3 -1 0 30.28 0.5
3 1 0 30.14 0.47
3 1 0 30.18 0.47
-4 -1 0 31.67 0.49
-4 -1 0 31.29 0.49
-4 -1 0 30.21 0.53
-4 -1 0 30.83 0.54
4 1 0 32.13 0.5
4 1 0 31.83 0.5
4 1 0 31.39 0.5
-5 -1 0 5.07 0.14
-5 -1 0 4.86 0.1
-5 -1 0 4.92 0.1
5 1 0 4.96 0.11
5 1 0 4.74 0.11
5 1 0 4.91 0.11
5 1 0 5.13 0.14
-6 -1 0 21.41 0.36
-6 -1 0 21.5 0.41
-6 -1 0 21.77 0.36
6 1 0 20.42 0.41
6 1 0 21.26 0.37
-7 -1 0 0.4 0.06
-7 -1 0 0.31 0.03
7 1 0 0.36 0.04
7 1 0 0.26 0.05
-8 -1 0 0.05 0.02
-8 -1 0 0.08 0.04
8 1 0 0.09 0.04
8 1 0 0.05 0.02
-9 -1 0 1.83 0.06
-9 -1 0 1.82 0.12
9 1 0 1.86 0.12
9 1 0 1.77 0.08
-10 -1 0 1.27 0.11
-10 -1 0 1.19 0.05
10 1 0 1.38 0.11
10 1 0 1.34 0.08
10 -2 0 0.61 0.07
10 -2 0 0.49 0.08
-10 2 0 0.61 0.09
-10 2 0 0.63 0.07
9 -2 0 0.56 0.08
9 -2 0 0.64 0.07
-9 2 0 0.6 0.06
-9 2 0 0.64 0.08
8 -2 0 1.35 0.08
8 -2 0 1.4 0.09
-8 2 0 1.31 0.1
-8 2 0 1.29 0.08
7 -2 0 0.02 0.03
7 -2 0 0.03 0.03
-7 2 0 -0.01 0.02
-7 2 0 0.01 0.03
6 -2 0 7.12 0.19
6 -2 0 7.14 0.18
-6 2 0 7.32 0.17
-6 2 0 7.23 0.19
5 -2 0 3.95 0.11
5 -2 0 4.05 0.08
5 -2 0 3.84 0.12
-5 2 0 4.12 0.12
-5 2 0 4.05 0.11
4 -2 0 108.34 1.69
4 -2 0 111.22 1.75
4 -2 0 109.88 1.76
4 -2 0 110.58 1.71
-4 2 0 108.15 1.7
-4 2 0 105.73 1.72
-4 2 0 111.75 1.71
3 -2 0 21.2 0.36
3 -2 0 21.06 0.36
3 -2 0 20.99 0.34
3 -2 0 19.94 0.36
-3 2 0 20.76 0.36
-3 2 0 20.5 0.36
-3 2 0 20.45 0.36
2 -2 0 96.56 1.5
2 -2 0 93.65 1.57
2 -2 0 96.35 1.53
2 -2 0 93.33 1.51
-2 2 0 94.13 1.52
-2 2 0 94.76 1.55
-2 2 0 96.43 1.52
1 -2 0 695.42 11.97
1 -2 0 695.51 12.45
1 -2 0 693.99 12.19
1 -2 0 706.29 12.48
-1 2 0 672.07 10.7
-1 2 0 713.42 12.54
0 -2 0 52.26 0.84
0 -2 0 55.66 0.87
0 -2 0 53.9 0.87
0 -2 0 53.08 0.85
0 2 0 54.61 0.84
0 2 0 54.86 0.86
0 2 0 56.41 0.9
-1 -2 0 34.04 0.52
-1 -2 0 33.63 0.52
-1 -2 0 33.74 0.53
-1 -2 0 33.32 0.54
1 2 0 34.29 0.53
1 2 0 34.37 0.52
1 2 0 32.18 0.53
-2 -2 0 88.87 1.42
-2 -2 0 87.11 1.38
-2 -2 0 86.75 1.4
-3 -2 0 120.61 1.9
-3 -2 0 118.07 1.88
-3 -2 0 120.84 1.94
-4 -2 0 2.53 0.08
-4 -2 0 2.56 0.08
-4 -2 0 2.49 0.09
4 2 0 2.49 0.05
4 2 0 2.51 0.05
-5 -2 0 8.24 0.2
-5 -2 0 8.24 0.19
5 2 0 8.56 0.15
5 2 0 8.58 0.17
5 2 0 8.49 0.15
-6 -2 0 8.56 0.21
6 2 0 8.2 0.21
6 2 0 8.52 0.18
6 2 0 8.55 0.16
6 2 0 8.56 0.16
-7 -2 0 0.11 0.04
7 2 0 0.08 0.02
7 2 0 0.05 0.04
-8 -2 0 0.15 0.05
8 2 0 0.11 0.04
8 2 0 0.11 0.03
-9 -2 0 0.47 0.07
9 2 0 0.31 0.06
9 2 0 0.47 0.05
-10 -2 0 0.95 0.1
10 2 0 0.89 0.1
10 2 0 0.86 0.06
10 -3 0 0.14 0.05
10 -3 0 0.05 0.05
-10 3 0 0.17 0.04
-10 3 0 0.15 0.06
9 -3 0 0 0.04
9 -3 0 0.08 0.04
-9 3 0 0.08 0.04
-9 3 0 0.04 0.03
8 -3 0 4.72 0.16
8 -3 0 4.6 0.17
-8 3 0 4.21 0.17
-8 3 0 4.55 0.15
7 -3 0 3.18 0.12
7 -3 0 3.51 0.14
-7 3 0 3.25 0.12
-7 3 0 3.23 0.14
6 -3 0 2.55 0.1
6 -3 0 2.65 0.11
-6 3 0 2.54 0.1
-6 3 0 2.23 0.1
5 -3 0 0.01 0.01
5 -3 0 -0.02 0.02
5 -3 0 -0.02 0.02
5 -3 0 0.01 0.02
-5 3 0 0.01 0.02
-5 3 0 0.03 0.02
4 -3 0 26.14 0.45
4 -3 0 25.94 0.45
4 -3 0 25.81 0.42
-4 3 0 25.54 0.45
-4 3 0 24.85 0.46
-4 3 0 25.51 0.45
3 -3 0 10.16 0.19
3 -3 0 10.03 0.2
3 -3 0 10.2 0.21
-3 3 0 10.14 0.21
-3 3 0 10.34 0.21
-3 3 0 9.93 0.2
2 -3 0 0.02 0.02
2 -3 0 0.03 0.02
2 -3 0 0.07 0.02
2 -3 0 0.05 0.01
-2 3 0 0.04 0.02
-2 3 0 0.02 0.01
-2 3 0 0.06 0.02
1 -3 0 1.04 0.05
1 -3 0 1.17 0.04
1 -3 0 1.14 0.04
1 -3 0 1.16 0.05
-1 3 0 1.11 0.04
-1 3 0 1.12 0.04
-1 3 0 1.17 0.05
0 -3 0 0 0.02
0 -3 0 -0.01 0.01
0 -3 0 -0.01 0.01
0 -3 0 0.01 0.01
0 3 0 0.04 0.01
0 3 0 0 0.01
0 3 0 -0.01 0.01
-1 -3 0 1.1 0.03
-1 -3 0 1.12 0.04
-1 -3 0 1.06 0.03
-1 -3 0 1 0.05
1 3 0 1.12 0.03
1 3 0 1.14 0.04
1 3 0 1.08 0.03
-2 -3 0 0.05 0.02
-2 -3 0 0.06 0.01
-2 -3 0 0.07 0.02
-2 -3 0 0.08 0.01
-2 -3 0 0.04 0.02
2 3 0 0.06 0.01
2 3 0 0.07 0.01
-3 -3 0 13.83 0.27
-3 -3 0 14.41 0.26
-3 -3 0 14.32 0.27
-4 -3 0 0.62 0.04
-4 -3 0 0.6 0.05
-4 -3 0 0.59 0.05
-5 -3 0 10.25 0.23
-5 -3 0 10.15 0.21
-5 -3 0 10.07 0.23
5 3 0 10.04 0.17
5 3 0 10.23 0.17
-6 -3 0 0.01 0.03
-6 -3 0 0.05 0.03
6 3 0 0 0.03
6 3 0 -0.02 0.01
6 3 0 0 0.01
6 3 0 -0.02 0.02
-7 -3 0 0.59 0.06
7 3 0 0.41 0.06
7 3 0 0.54 0.04
-8 -3 0 2.06 0.11
8 3 0 2.32 0.12
8 3 0 2.28 0.07
-9 -3 0 0.05 0.04
9 3 0 0.07 0.02
9 3 0 0.14 0.05
-10 -3 0 1.59 0.12
10 3 0 1.39 0.11
10 3 0 1.58 0.07
10 -4 0 0.02 0.04
10 -4 0 -0.02 0.04
-10 4 0 -0.02 0.04
-10 4 0 0.02 0.04
9 -4 0 0.48 0.07
9 -4 0 0.48 0.07
-9 4 0 0.71 0.08
-9 4 0 0.52 0.08
8 -4 0 4.45 0.16
8 -4 0 4.48 0.17
-8 4 0 4.29 0.17
-8 4 0 4.06 0.15
7 -4 0 0.89 0.07
7 -4 0 0.81 0.08
-7 4 0 0.82 0.08
-7 4 0 0.79 0.07
6 -4 0 25.74 0.48
6 -4 0 25.08 0.48
-6 4 0 25.1 0.49
5 -4 0 15.17 0.28
5 -4 0 15.82 0.32
5 -4 0 15.44 0.31
5 -4 0 15.54 0.32
-5 4 0 15.31 0.31
-5 4 0 15.53 0.33
4 -4 0 2.7 0.1
4 -4 0 2.73 0.09
4 -4 0 2.62 0.08
4 -4 0 2.65 0.09
-4 4 0 2.69 0.1
-4 4 0 2.65 0.1
-4 4 0 2.59 0.09
3 -4 0 -0.01 0.02
3 -4 0 -0.01 0.02
3 -4 0 -0.01 0.02
3 -4 0 0 0.02
-3 4 0 0 0.02
-3 4 0 -0.01 0.02
-3 4 0 -0.01 0.02
2 -4 0 74.69 1.2
2 -4 0 76.12 1.2
2 -4 0 74.57 1.2
2 -4 0 76.82 1.19
-2 4 0 74.59 1.2
-2 4 0 74.48 1.19
-2 4 0 75.43 1.2
1 -4 0 36.64 0.6
1 -4 0 35.97 0.61
1 -4 0 37.57 0.59
1 -4 0 36.02 0.58
-1 4 0 35.18 0.6
-1 4 0 36.11 0.6
-1 4 0 36.17 0.59
0 -4 0 41.22 0.7
0 -4 0 42.07 0.68
0 -4 0 42.39 0.67
0 -4 0 42 0.66
0 4 0 42.09 0.68
0 4 0 42.44 0.68
0 4 0 42.5 0.68
-1 -4 0 12.59 0.22
-1 -4 0 12.93 0.26
-1 -4 0 12.73 0.23
-1 -4 0 12.78 0.22
1 4 0 12.79 0.22
1 4 0 12.89 0.22
1 4 0 12.66 0.23
-2 -4 0 0.29 0.03
-2 -4 0 0.27 0.02
-2 -4 0 0.2 0.04
-2 -4 0 0.26 0.02
2 4 0 0.36 0.03
2 4 0 0.27 0.02
2 4 0 0.25 0.02
-3 -4 0 4.73 0.12
-3 -4 0 4.75 0.12
-3 -4 0 4.84 0.13
3 4 0 4.8 0.09
3 4 0 4.83 0.09
3 4 0 4.91 0.12
-4 -4 0 0.24 0.04
-4 -4 0 0.26 0.04
-4 -4 0 0.22 0.03
-5 -4 0 16.9 0.34
-5 -4 0 17.3 0.34
-5 -4 0 16.85 0.34
-6 -4 0 1.9 0.09
-6 -4 0 1.8 0.09
-6 -4 0 2.14 0.1
6 4 0 1.86 0.04
6 4 0 1.81 0.04
-7 -4 0 1.2 0.08
7 4 0 1.11 0.08
7 4 0 1.1 0.04
-8 -4 0 1.15 0.09
8 4 0 1.31 0.1
8 4 0 1.25 0.05
-9 -4 0 0.94 0.09
9 4 0 0.76 0.09
9 4 0 0.88 0.05
9 -5 0 0.19 0.06
-9 5 0 0.08 0.04
-9 5 0 0.12 0.05
8 -5 0 2.57 0.13
-8 5 0 2.54 0.13
-8 5 0 2.98 0.15
7 -5 0 0.8 0.08
-7 5 0 0.73 0.08
-7 5 0 0.69 0.08
6 -5 0 1.24 0.08
-6 5 0 1.12 0.08
-6 5 0 1.26 0.09
5 -5 0 0.2 0.04
5 -5 0 0.25 0.04
5 -5 0 0.27 0.04
5 -5 0 0.24 0.04
-5 5 0 0.29 0.05
-5 5 0 0.14 0.03
4 -5 0 0.75 0.07
4 -5 0 0.7 0.05
4 -5 0 0.71 0.05
4 -5 0 0.56 0.06
-4 5 0 0.72 0.06
-4 5 0 0.5 0.05
-4 5 0 0.83 0.07
3 -5 0 0.02 0.02
3 -5 0 0.01 0.02
3 -5 0 0.03 0.02
3 -5 0 -0.03 0.02
-3 5 0 0.03 0.02
-3 5 0 -0.01 0.02
-3 5 0 -0.01 0.02
2 -5 0 0.09 0.03
2 -5 0 0.04 0.02
2 -5 0 0.1 0.02
-2 5 0 0.1 0.03
-2 5 0 0.03 0.02
-2 5 0 0.06 0.02
1 -5 0 -0.02 0.02
1 -5 0 -0.01 0.02
1 -5 0 0.01 0.01
-1 5 0 0 0.02
-1 5 0 0 0.02
-1 5 0 0.01 0.01
0 -5 0 5.21 0.15
0 -5 0 5.3 0.12
0 -5 0 5.17 0.11
0 -5 0 5.33 0.12
0 5 0 5.11 0.12
0 5 0 5.05 0.13
0 5 0 5.21 0.13
-1 -5 0 12.32 0.22
-1 -5 0 12.12 0.22
-1 -5 0 11.52 0.22
-1 -5 0 11.88 0.26
1 5 0 11.83 0.22
1 5 0 11.69 0.23
1 5 0 11.92 0.22
-2 -5 0 0.33 0.03
-2 -5 0 0.28 0.02
-2 -5 0 0.29 0.02
-2 -5 0 0.33 0.04
2 5 0 0.3 0.03
2 5 0 0.28 0.03
2 5 0 0.28 0.03
-3 -5 0 0.35 0.04
-3 -5 0 0.37 0.05
3 5 0 0.36 0.04
3 5 0 0.33 0.02
3 5 0 0.35 0.02
-4 -5 0 29.85 0.54
-4 -5 0 29.65 0.52
4 5 0 28.85 0.46
4 5 0 29.3 0.46
4 5 0 29.15 0.52
-5 -5 0 0.13 0.04
-5 -5 0 0.1 0.03
-5 -5 0 0.13 0.04
5 5 0 0.08 0.01
5 5 0 0.08 0.01
-6 -5 0 4.49 0.15
-6 -5 0 4.4 0.15
-6 -5 0 4.77 0.15
-7 -5 0 0.02 0.03
7 5 0 -0.01 0.03
7 5 0 0.02 0.01
7 5 0 0.02 0.01
-8 -5 0 -0.02 0.03
8 5 0 0.04 0.04
9 5 0 1.81 0.05
9 5 0 2.07 0.13
9 -6 0 0.03 0.04
-9 6 0 -0.02 0.03
-9 6 0 -0.01 0.05
8 -6 0 0.04 0.04
-8 6 0 0.03 0.04
7 -6 0 -0.02 0.03
-7 6 0 -0.01 0.04
6 -6 0 0.85 0.07
-6 6 0 0.87 0.09
5 -6 0 1 0.09
5 -6 0 1.08 0.07
-5 6 0 1.09 0.08
4 -6 0 -0.01 0.02
4 -6 0 -0.03 0.02
4 -6 0 0 0.03
-4 6 0 0 0.02
-4 6 0 -0.01 0.03
3 -6 0 14.19 0.3
3 -6 0 14.34 0.31
3 -6 0 14.48 0.27
-3 6 0 14.38 0.31
-3 6 0 14.45 0.3
2 -6 0 0.42 0.05
2 -6 0 0.77 0.04
2 -6 0 0.71 0.07
-2 6 0 0.66 0.06
-2 6 0 0.66 0.06
1 -6 0 12.18 0.25
1 -6 0 12.27 0.27
1 -6 0 12.2 0.22
-1 6 0 11.74 0.25
-1 6 0 12.3 0.26
0 -6 0 0.11 0.03
0 -6 0 0.04 0.03
0 6 0 0.04 0.02
0 6 0 0.08 0.03
-1 -6 0 13.23 0.3
-1 -6 0 13.71 0.26
1 6 0 13.85 0.26
1 6 0 13.37 0.27
-2 -6 0 2.29 0.06
-2 -6 0 2.36 0.11
-2 -6 0 2.32 0.07
2 6 0 2.37 0.09
2 6 0 2.46 0.08
-3 -6 0 3.19 0.13
3 6 0 3.32 0.11
3 6 0 3.2 0.08
-4 -6 0 3.78 0.14
4 6 0 3.62 0.12
4 6 0 3.62 0.09
-5 -6 0 0.36 0.06
5 6 0 0.4 0.02
5 6 0 0.39 0.02
5 6 0 0.48 0.05
-6 -6 0 3.74 0.15
6 6 0 3.69 0.06
6 6 0 4.06 0.07
6 6 0 3.78 0.13
-7 -6 0 0.83 0.08
7 6 0 0.97 0.08
-8 7 0 0.65 0.09
-7 7 0 0.05 0.05
-6 7 0 1.95 0.12
-5 7 0 1.63 0.1
4 -7 0 0.84 0.07
4 -7 0 1.06 0.08
-4 7 0 1.04 0.08
-4 7 0 1.04 0.08
3 -7 0 2.76 0.12
3 -7 0 2.76 0.12
-3 7 0 2.86 0.12
-3 7 0 2.51 0.11
2 -7 0 3.5 0.13
2 -7 0 3.47 0.13
-2 7 0 3.4 0.12
-2 7 0 3.46 0.13
1 -7 0 0.84 0.07
1 -7 0 0.77 0.06
-1 7 0 0.83 0.07
-1 7 0 0.79 0.06
0 -7 0 0.18 0.05
0 -7 0 0.19 0.04
0 7 0 0.2 0.04
0 7 0 0.19 0.04
-1 -7 0 1.26 0.09
-1 -7 0 1.25 0.06
1 7 0 1.27 0.07
1 7 0 1.18 0.07
-2 -7 0 -0.03 0.02
-2 -7 0 0.01 0.03
2 7 0 0.01 0.02
2 7 0 -0.02 0.02
-3 -7 0 -0.01 0.03
3 7 0 -0.03 0.02
3 7 0 0.03 0.02
-4 -7 0 2.16 0.12
4 7 0 2.02 0.07
4 7 0 2.11 0.09
-5 -7 0 4.91 0.18
5 7 0 4.72 0.1
5 7 0 4.54 0.15
-6 -7 0 0.08 0.05
6 7 0 0.08 0.03
6 7 0 0.04 0.01
-7 8 0 0.87 0.1
-6 8 0 1.41 0.11
-5 8 0 0.39 0.07
4 -8 0 2.46 0.12
4 -8 0 2.55 0.13
-4 8 0 2.5 0.13
3 -8 0 0.03 0.04
3 -8 0 -0.02 0.03
-3 8 0 0.01 0.04
-3 8 0 -0.03 0.03
2 -8 0 0.08 0.04
2 -8 0 0.04 0.03
-2 8 0 0.07 0.04
-2 8 0 0.07 0.04
1 -8 0 3.01 0.12
1 -8 0 3.03 0.14
-1 8 0 3.03 0.12
-1 8 0 3.17 0.13
0 -8 0 10.18 0.27
0 -8 0 9.48 0.23
0 8 0 10.03 0.24
0 8 0 9.91 0.24
-1 -8 0 0.48 0.07
-1 -8 0 0.49 0.05
1 8 0 0.43 0.05
1 8 0 0.37 0.05
-2 -8 0 1.95 0.07
-2 -8 0 1.99 0.12
2 8 0 1.9 0.09
2 8 0 1.84 0.09
-3 -8 0 0.17 0.06
3 8 0 0.14 0.04
3 8 0 0.09 0.03
-4 -8 0 0.24 0.06
4 8 0 0.3 0.05
4 8 0 0.25 0.03
-5 -8 0 0.34 0.07
5 8 0 0.38 0.04
5 8 0 0.38 0.06
-6 -8 0 -0.03 0.04
6 8 0 -0.02 0.01
-6 9 0 0.09 0.05
-5 9 0 2.24 0.13
4 -9 0 0.07 0.05
4 -9 0 0.1 0.05
-4 9 0 0.1 0.05
3 -9 0 0.33 0.07
3 -9 0 0.33 0.06
-3 9 0 0.46 0.07
-3 9 0 0.34 0.06
2 -9 0 1.85 0.11
2 -9 0 1.72 0.12
-2 9 0 2.02 0.11
-2 9 0 1.91 0.12
1 -9 0 0.36 0.06
1 -9 0 0.37 0.07
-1 9 0 0.34 0.06
-1 9 0 0.4 0.06
0 -9 0 0.15 0.06
0 -9 0 0.14 0.04
0 9 0 0.15 0.04
0 9 0 0.11 0.04
-1 -9 0 1.74 0.12
-1 -9 0 1.97 0.09
1 9 0 1.83 0.1
1 9 0 2.02 0.1
-2 -9 0 0.15 0.05
-2 -9 0 0.06 0.02
2 9 0 0.13 0.04
2 9 0 0.04 0.03
-3 -9 0 0.72 0.09
3 9 0 0.79 0.06
3 9 0 0.84 0.07
-4 -9 0 0.04 0.05
4 9 0 -0.01 0.02
-5 -9 0 0.1 0.06
5 9 0 0.05 0.03
4 -10 0 1.05 0.11
-4 10 0 1.23 0.11
3 -10 0 0.76 0.09
3 -10 0 0.74 0.09
-3 10 0 0.77 0.09
-3 10 0 0.76 0.09
2 -10 0 0.21 0.06
2 -10 0 0.23 0.06
-2 10 0 0.2 0.06
-2 10 0 0.3 0.06
1 -10 0 -0.02 0.03
1 -10 0 0.06 0.05
-1 10 0 0 0.04
-1 10 0 -0.01 0.03
0 -10 0 0.04 0.03
0 -10 0 0.03 0.05
0 10 0 0.03 0.04
0 10 0 0.02 0.04
-1 -10 0 0.61 0.06
-1 -10 0 0.7 0.09
1 10 0 0.65 0.07
1 10 0 0.59 0.07
-2 -10 0 0.05 0.02
-2 -10 0 0.06 0.05
2 10 0 0.08 0.04
2 10 0 0.01 0.03
-3 -10 0 0.07 0.06
3 10 0 0.05 0.03
3 10 -1 0 0.03
-3 -10 1 0.03 0.05
2 10 -1 0.77 0.08
-2 -10 1 0.7 0.1
-2 -10 1 0.7 0.05
1 10 -1 0.93 0.09
1 10 -1 0.95 0.08
-1 -10 1 1.05 0.07
-1 -10 1 0.93 0.11
0 10 -1 1.13 0.09
0 10 -1 1.23 0.1
0 -10 1 1.17 0.08
0 -10 1 1.03 0.12
-1 10 -1 0.37 0.07
-1 10 -1 0.5 0.07
1 -10 1 0.35 0.06
1 -10 1 0.56 0.09
-2 10 -1 -0.03 0.04
-2 10 -1 0.04 0.04
2 -10 1 0.07 0.04
2 -10 1 0.03 0.05
-3 10 -1 1.55 0.12
-3 10 -1 1.46 0.11
3 -10 1 1.73 0.12
3 -10 1 1.54 0.11
-4 10 -1 0.01 0.04
4 -10 1 -0.04 0.04
5 9 -1 -0.04 0.02
-5 -9 1 -0.03 0.04
4 9 -1 0.67 0.06
-4 -9 1 0.72 0.1
3 9 -1 1.41 0.08
-3 -9 1 1.49 0.11
2 9 -1 2.82 0.12
2 9 -1 2.68 0.11
-2 -9 1 2.86 0.15
-2 -9 1 2.69 0.09
1 9 -1 0.46 0.06
1 9 -1 0.42 0.05
-1 -9 1 0.43 0.07
-1 -9 1 0.4 0.05
0 9 -1 0.66 0.07
0 9 -1 0.79 0.07
0 -9 1 0.45 0.07
0 -9 1 0.55 0.06
-1 9 -1 2.99 0.13
-1 9 -1 2.96 0.14
1 -9 1 2.93 0.15
1 -9 1 2.89 0.12
-2 9 -1 5.95 0.2
-2 9 -1 5.88 0.19
2 -9 1 6.24 0.21
2 -9 1 6.19 0.2
-3 9 -1 -0.01 0.04
-3 9 -1 0.06 0.04
3 -9 1 0 0.04
3 -9 1 0.06 0.04
-4 9 -1 0.69 0.08
4 -9 1 0.58 0.08
4 -9 1 0.58 0.07
-5 9 -1 1.4 0.11
-6 9 -1 0.12 0.05
6 8 -1 0.51 0.03
-6 -8 1 0.7 0.09
5 8 -1 0 0.02
-5 -8 1 -0.05 0.04
4 8 -1 2.1 0.1
4 8 -1 2 0.08
-4 -8 1 2.21 0.13
3 8 -1 7.08 0.17
3 8 -1 7.05 0.19
-3 -8 1 6.49 0.22
2 8 -1 0.37 0.05
2 8 -1 0.37 0.04
-2 -8 1 0.35 0.04
-2 -8 1 0.32 0.06
1 8 -1 0.23 0.04
1 8 -1 0.21 0.04
-1 -8 1 0.21 0.03
-1 -8 1 0.23 0.05
0 8 -1 0.05 0.04
0 8 -1 0.08 0.03
0 -8 1 0.11 0.03
0 -8 1 0.06 0.04
-1 8 -1 0.22 0.05
-1 8 -1 0.17 0.04
1 -8 1 0.12 0.04
1 -8 1 0.13 0.04
-2 8 -1 0.04 0.03
-2 8 -1 -0.03 0.03
2 -8 1 0 0.03
2 -8 1 0 0.04
-3 8 -1 9.63 0.26
-3 8 -1 9.24 0.24
3 -8 1 9.19 0.25
3 -8 1 9.62 0.25
-4 8 -1 12.62 0.31
4 -8 1 12.71 0.31
4 -8 1 11.82 0.29
-5 8 -1 0.61 0.08
-6 8 -1 1.33 0.11
-7 8 -1 0.06 0.05
7 7 -1 0.17 0.05
6 7 -1 1.23 0.04
-6 -7 1 1.31 0.1
5 7 -1 0.23 0.04
5 7 -1 0.16 0.02
-5 -7 1 0.23 0.06
4 7 -1 2.49 0.08
4 7 -1 2.47 0.1
-4 -7 1 2.59 0.13
3 7 -1 2.85 0.09
3 7 -1 2.96 0.1
-3 -7 1 2.73 0.13
2 7 -1 1.23 0.07
2 7 -1 0.96 0.06
-2 -7 1 1.09 0.09
-2 -7 1 1.05 0.05
1 7 -1 9.39 0.21
1 7 -1 9.55 0.21
-1 -7 1 9.44 0.2
-1 -7 1 9.38 0.25
0 7 -1 2.59 0.1
0 7 -1 2.9 0.11
0 -7 1 2.72 0.1
0 -7 1 2.78 0.12
-1 7 -1 0.65 0.06
-1 7 -1 0.65 0.05
1 -7 1 0.57 0.06
1 -7 1 0.55 0.06
-2 7 -1 0.61 0.06
-2 7 -1 0.52 0.06
2 -7 1 0.7 0.07
2 -7 1 0.61 0.06
-3 7 -1 0.62 0.07
-3 7 -1 0.78 0.07
3 -7 1 0.77 0.07
3 -7 1 0.76 0.07
-4 7 -1 0.02 0.03
-4 7 -1 0.01 0.03
4 -7 1 0.03 0.03
4 -7 1 0 0.03
-5 7 -1 0.12 0.04
-6 7 -1 0.11 0.05
-7 7 -1 0.35 0.07
-8 7 -1 0.09 0.05
7 6 -1 0.04 0.04
6 6 -1 1.95 0.09
-6 -6 1 2.02 0.11
-6 -6 1 1.92 0.11
5 6 -1 0.73 0.03
5 6 -1 0.72 0.03
5 6 -1 0.64 0.06
-5 -6 1 0.78 0.08
-5 -6 1 0.76 0.06
4 6 -1 10.61 0.23
4 6 -1 9.53 0.19
4 6 -1 10.24 0.19
-4 -6 1 11.13 0.26
-4 -6 1 10.59 0.24
3 6 -1 1.47 0.06
3 6 -1 1.55 0.07
-3 -6 1 1.43 0.09
-3 -6 1 1.62 0.07
2 6 -1 1.03 0.05
2 6 -1 0.99 0.05
-2 -6 1 0.97 0.04
-2 -6 1 1.01 0.04
-2 -6 1 0.98 0.05
-2 -6 1 1.11 0.07
1 6 -1 16.57 0.31
1 6 -1 15.94 0.31
-1 -6 1 16.42 0.35
-1 -6 1 16.8 0.3
-1 -6 1 16.41 0.3
0 6 -1 8.41 0.19
0 6 -1 8.34 0.19
0 -6 1 8.32 0.21
0 -6 1 8.68 0.17
0 -6 1 8.28 0.19
-1 6 -1 -0.01 0.02
-1 6 -1 -0.04 0.02
1 -6 1 0.01 0.01
1 -6 1 -0.01 0.03
1 -6 1 0 0.02
-2 6 -1 21.77 0.42
-2 6 -1 21.81 0.41
2 -6 1 21.44 0.41
2 -6 1 21.83 0.42
2 -6 1 21.61 0.38
-3 6 -1 17.43 0.35
-3 6 -1 17.74 0.36
3 -6 1 17.26 0.36
3 -6 1 17.02 0.35
3 -6 1 17.37 0.32
-4 6 -1 0.64 0.07
-4 6 -1 0.52 0.06
4 -6 1 0.49 0.06
4 -6 1 0.65 0.06
4 -6 1 0.51 0.05
-5 6 -1 0.99 0.08
5 -6 1 1.07 0.07
-6 6 -1 2.74 0.13
6 -6 1 2.9 0.12
-7 6 -1 0.03 0.04
7 -6 1 0.05 0.04
-8 6 -1 0 0.04
8 -6 1 -0.02 0.04
-9 6 -1 0 0.05
-9 6 -1 0 0.04
9 -6 1 -0.08 0.04
9 5 -1 0.32 0.02
9 5 -1 0.36 0.07
8 5 -1 2.33 0.13
8 5 -1 2.23 0.05
7 5 -1 6.4 0.11
7 5 -1 6.32 0.11
-7 -5 1 6.53 0.21
-7 -5 1 6.72 0.19
-6 -5 1 0.65 0.07
-6 -5 1 0.6 0.06
-6 -5 1 0.69 0.06
5 5 -1 0.01 0.01
5 5 -1 0.01 0.01
-5 -5 1 0.02 0.03
-5 -5 1 0 0.03
-5 -5 1 0.03 0.03
4 5 -1 0.51 0.05
4 5 -1 0.32 0.02
4 5 -1 0.35 0.02
-4 -5 1 0.43 0.06
-4 -5 1 0.48 0.05
3 5 -1 1.49 0.05
3 5 -1 1.42 0.04
3 5 -1 1.4 0.06
-3 -5 1 1.47 0.08
-3 -5 1 1.48 0.07
2 5 -1 18.86 0.32
2 5 -1 18.77 0.32
2 5 -1 18.95 0.34
-2 -5 1 18.91 0.37
-2 -5 1 18.81 0.34
-2 -5 1 18.9 0.31
-2 -5 1 18.69 0.31
1 5 -1 -0.02 0.01
1 5 -1 -0.01 0.01
1 5 -1 0.01 0.01
-1 -5 1 0 0.01
-1 -5 1 0 0.01
-1 -5 1 -0.01 0.02
-1 -5 1 0.01 0.01
0 5 -1 0 0.01
0 5 -1 -0.01 0.01
0 5 -1 -0.02 0.01
0 -5 1 0.01 0.01
0 -5 1 -0.02 0.01
0 -5 1 0.01 0.01
0 -5 1 -0.03 0.02
-1 5 -1 0.06 0.02
-1 5 -1 0.06 0.02
-1 5 -1 0.03 0.02
1 -5 1 0.02 0.01
1 -5 1 0.05 0.02
1 -5 1 0 0.02
-2 5 -1 4.49 0.12
-2 5 -1 4.41 0.12
-2 5 -1 4.23 0.13
2 -5 1 4.58 0.13
2 -5 1 4.3 0.12
2 -5 1 4.45 0.11
-3 5 -1 2.35 0.09
-3 5 -1 2.2 0.09
-3 5 -1 2.1 0.09
3 -5 1 2.35 0.09
3 -5 1 2.24 0.09
3 -5 1 2.41 0.09
3 -5 1 2.36 0.08
-4 5 -1 17.96 0.36
-4 5 -1 18.3 0.37
-4 5 -1 17.91 0.36
4 -5 1 18.42 0.36
4 -5 1 18.58 0.34
4 -5 1 17.98 0.36
4 -5 1 18.13 0.34
-5 5 -1 1.43 0.08
5 -5 1 1.37 0.09
5 -5 1 1.43 0.08
5 -5 1 1.58 0.08
-6 5 -1 0.16 0.05
-6 5 -1 0.06 0.03
6 -5 1 0.13 0.04
6 -5 1 0.06 0.03
-7 5 -1 4.47 0.16
-7 5 -1 4.32 0.17
7 -5 1 4.35 0.16
-8 5 -1 0.01 0.03
-8 5 -1 0.05 0.05
8 -5 1 0.04 0.04
-9 5 -1 1.16 0.1
-9 5 -1 1.12 0.11
9 -5 1 1.1 0.1
9 4 -1 0.07 0.05
9 4 -1 0.08 0.02
8 4 -1 1.92 0.12
8 4 -1 1.73 0.06
-8 -4 1 2.07 0.11
7 4 -1 0.26 0.02
7 4 -1 0.25 0.05
-7 -4 1 0.18 0.05
-7 -4 1 0.33 0.05
6 4 -1 0.03 0.01
6 4 -1 0.01 0.02
6 4 -1 0.04 0.01
-6 -4 1 0.03 0.03
-6 -4 1 0.05 0.03
5 4 -1 6.27 0.1
5 4 -1 6.77 0.1
-5 -4 1 6.68 0.17
-5 -4 1 6.61 0.17
-5 -4 1 6.45 0.18
-4 -4 1 2.12 0.09
-4 -4 1 2.37 0.08
-4 -4 1 2.28 0.09
3 4 -1 0.01 0.02
3 4 -1 0 0.01
3 4 -1 0 0.01
-3 -4 1 -0.02 0.01
-3 -4 1 -0.02 0.02
-3 -4 1 0 0.02
2 4 -1 48.77 0.79
2 4 -1 49.93 0.77
2 4 -1 50 0.77
-2 -4 1 49.29 0.76
-2 -4 1 48.91 0.82
-2 -4 1 50.39 0.8
-2 -4 1 49.61 0.77
1 4 -1 34.63 0.55
1 4 -1 33.98 0.56
1 4 -1 34.55 0.55
-1 -4 1 33.44 0.55
-1 -4 1 34.53 0.55
-1 -4 1 34.06 0.58
-1 -4 1 34.93 0.56
0 4 -1 0.12 0.02
0 4 -1 0.09 0.02
0 4 -1 0.11 0.02
0 -4 1 0.11 0.02
0 -4 1 0.11 0.02
0 -4 1 0.1 0.02
0 -4 1 0.11 0.03
-1 4 -1 90.37 1.46
-1 4 -1 92.94 1.47
-1 4 -1 94.55 1.46
1 -4 1 93.03 1.47
1 -4 1 95.19 1.46
1 -4 1 94.88 1.48
1 -4 1 94.58 1.51
-2 4 -1 240.71 3.75
-2 4 -1 224.62 3.71
-2 4 -1 230.03 3.73
2 -4 1 235.83 3.62
2 -4 1 231.79 3.69
2 -4 1 234.41 3.74
2 -4 1 227.18 3.68
-3 4 -1 5.01 0.13
-3 4 -1 5.11 0.14
-3 4 -1 5.36 0.13
3 -4 1 4.96 0.12
3 -4 1 5.15 0.13
3 -4 1 5.1 0.12
3 -4 1 4.92 0.13
-4 4 -1 8.18 0.19
-4 4 -1 8.04 0.19
-4 4 -1 7.56 0.19
4 -4 1 7.96 0.19
4 -4 1 7.88 0.19
4 -4 1 8.14 0.18
4 -4 1 8.02 0.17
-5 4 -1 2.54 0.11
-5 4 -1 2.88 0.11
5 -4 1 2.66 0.1
5 -4 1 2.84 0.1
5 -4 1 2.55 0.11
-6 4 -1 23.49 0.45
-6 4 -1 23.84 0.47
6 -4 1 23.4 0.45
6 -4 1 22.74 0.45
-7 4 -1 0.92 0.08
-7 4 -1 0.71 0.07
7 -4 1 0.64 0.06
7 -4 1 0.86 0.08
-8 4 -1 0.15 0.04
-8 4 -1 0.18 0.05
8 -4 1 0.13 0.05
8 -4 1 0.18 0.05
-9 4 -1 1.47 0.1
-9 4 -1 1.77 0.12
9 -4 1 1.45 0.1
9 -4 1 1.52 0.11
-10 4 -1 0.21 0.05
-10 4 -1 0.2 0.06
10 -4 1 0.15 0.05
10 -4 1 0.1 0.06
10 3 -1 0.06 0.03
10 3 -1 0.11 0.05
9 3 -1 0.85 0.05
9 3 -1 0.85 0.09
-9 -3 1 0.8 0.09
8 3 -1 8.28 0.17
8 3 -1 8.81 0.25
-8 -3 1 8.3 0.23
7 3 -1 0.93 0.04
7 3 -1 1.11 0.08
-7 -3 1 1.07 0.08
-7 -3 1 1.12 0.08
6 3 -1 0.38 0.02
6 3 -1 0.36 0.02
6 3 -1 0.33 0.04
-6 -3 1 0.36 0.05
-6 -3 1 0.34 0.05
5 3 -1 44.37 0.68
5 3 -1 44.47 0.68
-5 -3 1 42.81 0.76
-5 -3 1 45.07 0.74
-5 -3 1 44.97 0.74
-4 -3 1 8.38 0.19
-4 -3 1 8.79 0.19
-4 -3 1 8.59 0.19
-3 -3 1 13.06 0.25
-3 -3 1 13.5 0.26
-3 -3 1 12.97 0.24
2 3 -1 1.77 0.04
2 3 -1 1.76 0.04
2 3 -1 1.92 0.06
-2 -3 1 1.82 0.07
-2 -3 1 1.76 0.06
-2 -3 1 1.86 0.06
-2 -3 1 1.84 0.03
-2 -3 1 1.74 0.03
1 3 -1 13.95 0.24
1 3 -1 14.21 0.23
1 3 -1 14.27 0.23
-1 -3 1 14.17 0.23
-1 -3 1 13.87 0.26
-1 -3 1 13.8 0.23
-1 -3 1 14.14 0.24
0 3 -1 55.03 0.86
0 3 -1 54 0.86
0 3 -1 56.84 0.91
0 -3 1 53.3 0.86
0 -3 1 56.43 0.91
0 -3 1 55.33 0.86
0 -3 1 55.3 0.88
-1 3 -1 29.04 0.48
-1 3 -1 29.6 0.48
-1 3 -1 28.9 0.48
1 -3 1 29.19 0.48
1 -3 1 29.09 0.48
1 -3 1 28.81 0.48
1 -3 1 29.46 0.47
-2 3 -1 4.14 0.1
-2 3 -1 4.02 0.1
-2 3 -1 4.21 0.11
2 -3 1 4.4 0.1
2 -3 1 4.29 0.1
2 -3 1 4.17 0.1
2 -3 1 4.25 0.11
-3 3 -1 9.81 0.2
-3 3 -1 9.86 0.2
-3 3 -1 9.73 0.2
3 -3 1 9.85 0.18
3 -3 1 9.97 0.2
3 -3 1 9.74 0.2
3 -3 1 9.89 0.2
4 -3 1 19.47 0.33
4 -3 1 19.82 0.36
4 -3 1 19.58 0.36
4 -3 1 18.88 0.36
-5 3 -1 8.06 0.18
-5 3 -1 8.17 0.2
5 -3 1 7.68 0.19
5 -3 1 7.56 0.19
5 -3 1 7.72 0.18
-6 3 -1 0.3 0.05
-6 3 -1 0.21 0.04
6 -3 1 0.29 0.05
6 -3 1 0.2 0.04
-7 3 -1 4.48 0.14
-7 3 -1 4.6 0.16
7 -3 1 4.61 0.16
7 -3 1 4.73 0.15
-8 3 -1 11.88 0.31
-8 3 -1 12.12 0.28
8 -3 1 12.61 0.31
8 -3 1 12.37 0.29
-9 3 -1 -0.02 0.03
-9 3 -1 0.04 0.04
9 -3 1 0.04 0.04
9 -3 1 0.01 0.04
-10 3 -1 0.05 0.03
-10 3 -1 -0.02 0.04
10 -3 1 0 0.05
10 -3 1 0.02 0.04
10 2 -1 0.01 0.02
10 2 -1 -0.04 0.03
-10 -2 1 0 0.04
9 2 -1 3.29 0.11
9 2 -1 3.59 0.16
-9 -2 1 3.21 0.15
8 2 -1 0.08 0.04
8 2 -1 0.11 0.03
-8 -2 1 0.07 0.04
7 2 -1 0.13 0.04
7 2 -1 0.26 0.03
-7 -2 1 0.31 0.05
-7 -2 1 0.27 0.01
6 2 -1 0.71 0.04
6 2 -1 0.72 0.04
6 2 -1 0.74 0.04
-6 -2 1 0.8 0.07
-6 -2 1 0.72 0.02
-6 -2 1 0.81 0.06
-6 -2 1 0.77 0.02
5 2 -1 3.2 0.07
5 2 -1 3.15 0.07
5 2 -1 3.16 0.09
-5 -2 1 3.09 0.05
-5 -2 1 3.2 0.1
-5 -2 1 3.2 0.11
4 2 -1 51.56 0.81
4 2 -1 52.82 0.81
4 2 -1 52.86 0.84
-4 -2 1 51.98 0.85
-4 -2 1 52.95 0.87
-4 -2 1 53.3 0.84
-3 -2 1 25.81 0.45
-3 -2 1 25.86 0.44
-3 -2 1 26.39 0.44
-2 -2 1 71.23 1.15
-2 -2 1 74.57 1.15
-2 -2 1 74.39 1.2
1 2 -1 0.38 0.02
1 2 -1 0.36 0.01
1 2 -1 0.4 0.02
-1 -2 1 0.39 0.02
-1 -2 1 0.36 0.02
-1 -2 1 0.39 0.02
-1 -2 1 0.37 0.03
0 2 -1 229.78 3.51
0 2 -1 226.03 3.52
0 2 -1 223.83 3.52
0 -2 1 226.21 3.52
0 -2 1 220.75 4.5
0 -2 1 224.33 3.56
0 -2 1 222.62 3.5
-1 2 -1 362.5 5.45
-1 2 -1 333.2 6.2
-1 2 -1 351.09 5.44
1 -2 1 340.22 6.55
1 -2 1 351.13 5.44
1 -2 1 351.15 5.44
1 -2 1 350.31 5.44
-2 2 -1 8.15 0.16
-2 2 -1 7.96 0.16
-2 2 -1 7.76 0.16
2 -2 1 7.79 0.15
2 -2 1 8.13 0.16
2 -2 1 7.93 0.14
2 -2 1 8.03 0.15
-3 2 -1 43.75 0.71
-3 2 -1 41.68 0.7
-3 2 -1 43.03 0.7
3 -2 1 41.76 0.7
3 -2 1 43.9 0.67
3 -2 1 42.91 0.7
3 -2 1 44.96 0.7
-4 2 -1 11.47 0.24
-4 2 -1 11.8 0.23
-4 2 -1 11.92 0.23
4 -2 1 11.84 0.23
4 -2 1 11.93 0.23
4 -2 1 11.71 0.19
4 -2 1 11.53 0.24
-5 2 -1 19.05 0.35
-5 2 -1 18.66 0.37
5 -2 1 19.91 0.36
5 -2 1 18.42 0.36
5 -2 1 19.22 0.35
-6 2 -1 1.39 0.08
-6 2 -1 1.3 0.07
6 -2 1 1.16 0.07
6 -2 1 1.2 0.07
-7 2 -1 4.32 0.15
-7 2 -1 4.35 0.13
7 -2 1 4.25 0.15
7 -2 1 4.42 0.14
-8 2 -1 0.71 0.06
-8 2 -1 0.9 0.09
8 -2 1 0.77 0.07
8 -2 1 0.84 0.09
-9 2 -1 0.45 0.07
-9 2 -1 0.4 0.05
9 -2 1 0.39 0.06
9 -2 1 0.49 0.07
-10 2 -1 0.37 0.05
-10 2 -1 0.42 0.08
10 -2 1 0.42 0.07
10 -2 1 0.4 0.06
10 1 -1 -0.02 0.04
10 1 -1 0.02 0.03
-10 -1 1 0.01 0.02
-10 -1 1 0 0.04
9 1 -1 8.84 0.26
9 1 -1 8.57 0.21
-9 -1 1 8.81 0.17
-9 -1 1 8.52 0.25
8 1 -1 1.04 0.06
8 1 -1 1 0.09
-8 -1 1 1.1 0.08
-8 -1 1 0.93 0.05
7 1 -1 0 0.03
7 1 -1 0.01 0.02
-7 -1 1 0.02 0.01
-7 -1 1 0.02 0.03
6 1 -1 13.22 0.29
6 1 -1 13.17 0.24
6 1 -1 13.44 0.25
-6 -1 1 13.43 0.28
-6 -1 1 13.67 0.24
-6 -1 1 13.66 0.24
5 1 -1 25.5 0.42
5 1 -1 25.44 0.42
5 1 -1 25.2 0.42
-5 -1 1 25.24 0.41
-5 -1 1 25.12 0.45
-5 -1 1 25.4 0.47
-5 -1 1 26.28 0.41
4 1 -1 29.07 0.46
4 1 -1 28.39 0.46
4 1 -1 28.42 0.46
-4 -1 1 28.21 0.48
-4 -1 1 28.13 0.5
-4 -1 1 28.71 0.45
-4 -1 1 28.32 0.45
3 1 -1 2.46 0.06
3 1 -1 2.4 0.05
3 1 -1 2.47 0.05
-3 -1 1 2.51 0.08
-3 -1 1 2.47 0.05
-3 -1 1 2.47 0.05
-3 -1 1 2.49 0.07
2 1 -1 1000 15.38
2 1 -1 971.03 15.34
-2 -1 1 995.22 16.82
-2 -1 1 979.4 15.46
-2 -1 1 988.96 15.45
-2 -1 1 986.45 16.8
-2 -1 1 965.89 16.87
-1 -1 1 0.68 0.02
-1 -1 1 0.63 0.03
-1 -1 1 0.67 0.02
-1 -1 1 0.69 0.02
-1 -1 1 0.66 0.03
0 1 -1 72.64 1.15
0 1 -1 72.19 1.13
0 -1 1 70.71 1.13
0 -1 1 70.92 1.14
0 -1 1 71.19 1.14
-1 1 -1 18.53 0.3
-1 1 -1 18.53 0.29
-1 1 -1 18.48 0.29
1 -1 1 17.35 0.29
1 -1 1 18.31 0.29
1 -1 1 18.29 0.29
1 -1 1 17.79 0.29
-2 1 -1 100.04 1.59
-2 1 -1 98.3 1.6
-2 1 -1 96.63 1.6
2 -1 1 97.95 1.62
2 -1 1 100.51 2.47
2 -1 1 99.06 1.55
2 -1 1 98.38 1.52
-3 1 -1 0.91 0.04
3 -1 1 0.95 0.05
3 -1 1 0.92 0.02
3 -1 1 0.9 0.04
3 -1 1 0.93 0.04
-4 1 -1 0.3 0.03
-4 1 -1 0.26 0.03
-4 1 -1 0.17 0.02
4 -1 1 0.22 0.03
4 -1 1 0.25 0.03
-5 1 -1 11.03 0.22
-5 1 -1 10.68 0.21
-5 1 -1 10.73 0.23
5 -1 1 10.5 0.23
5 -1 1 10.43 0.21
-6 1 -1 0.09 0.02
-6 1 -1 0.08 0.03
6 -1 1 0.12 0.04
6 -1 1 0.11 0.03
-7 1 -1 0.71 0.05
-7 1 -1 0.77 0.07
7 -1 1 0.77 0.07
7 -1 1 0.81 0.06
-8 1 -1 4.55 0.17
-8 1 -1 4.21 0.13
8 -1 1 4.68 0.14
8 -1 1 4.66 0.17
-9 1 -1 0.88 0.09
-9 1 -1 1.05 0.07
9 -1 1 0.85 0.09
9 -1 1 0.96 0.07
-10 1 -1 0.6 0.06
-10 1 -1 0.61 0.09
10 -1 1 0.58 0.08
10 -1 1 0.62 0.07
10 0 -1 1.06 0.1
10 0 -1 1.35 0.09
-10 0 1 1.17 0.07
-10 0 1 1.21 0.11
9 0 -1 0.41 0.05
9 0 -1 0.32 0.07
-9 0 1 0.46 0.07
-9 0 1 0.42 0.04
8 0 -1 0.07 0.03
8 0 -1 0.06 0.04
-8 0 1 0.06 0.04
-8 0 1 0.03 0.02
7 0 -1 0.2 0.03
7 0 -1 0.27 0.05
-7 0 1 0.23 0.04
-7 0 1 0.3 0.04
6 0 -1 0.1 0.02
6 0 -1 0.05 0.03
-6 0 1 0.02 0.03
-6 0 1 0.11 0.02
5 0 -1 0.99 0.04
5 0 -1 0.99 0.05
5 0 -1 0.88 0.04
-5 0 1 0.96 0.04
-5 0 1 1 0.06
-5 0 1 0.89 0.04
4 0 -1 53.74 0.86
4 0 -1 53.43 0.85
4 0 -1 54.9 0.84
-4 0 1 54.13 0.88
-4 0 1 54.3 0.89
-4 0 1 55.11 0.85
-4 0 1 54.43 0.85
3 0 -1 96.14 1.54
3 0 -1 98.67 1.55
3 0 -1 95.82 1.57
-3 0 1 95.88 1.58
-3 0 1 94.25 1.52
-3 0 1 96.42 1.57
-3 0 1 97.63 1.6
2 0 -1 223.53 3.47
2 0 -1 227.69 3.48
2 0 -1 220.7 3.48
-2 0 1 226.71 3.47
-2 0 1 221.41 3.49
-2 0 1 221.86 3.53
-2 0 1 221.87 3.56
1 0 -1 7.13 0.12
1 0 -1 7.07 0.12
1 0 -1 7.06 0.12
-1 0 1 7.02 0.12
-1 0 1 7.09 0.12
-1 0 1 6.98 0.12
-1 0 1 7.05 0.12
-1 0 -1 35.44 0.56
-1 0 -1 36.97 0.57
-1 0 -1 35.67 0.57
-1 0 -1 35.99 0.56
1 0 1 36.45 0.59
1 0 1 36 0.57
1 0 1 36.03 0.59
-2 0 -1 55.78 0.88
-2 0 -1 56.67 0.91
-2 0 -1 56.75 0.88
-2 0 -1 55.85 0.9
2 0 1 58.07 0.91
2 0 1 55.85 0.92
2 0 1 55.64 0.9
-3 0 -1 86.39 1.39
-3 0 -1 89.47 1.4
-3 0 -1 88.39 1.37
3 0 1 89.58 1.46
3 0 1 89.65 1.49
3 0 1 92.04 1.39
3 0 1 89.78 1.38
-4 0 -1 47.35 0.75
-4 0 -1 46.19 0.78
-4 0 -1 48.94 0.76
4 0 1 47.96 0.76
4 0 1 48.45 0.73
4 0 1 48.31 0.76
4 0 1 47.29 0.79
-5 0 -1 2.95 0.1
-5 0 -1 3.02 0.08
-5 0 -1 2.92 0.08
5 0 1 3.07 0.06
5 0 1 2.98 0.08
5 0 1 3.03 0.08
5 0 1 3.09 0.11
-6 0 -1 6.8 0.18
-6 0 -1 6.71 0.15
6 0 1 6.9 0.19
6 0 1 6.73 0.15
-7 0 -1 3.85 0.14
-7 0 -1 4.04 0.11
7 0 1 3.76 0.14
7 0 1 4.02 0.12
-8 0 -1 2.25 0.08
-8 0 -1 2.35 0.12
8 0 1 2.28 0.09
8 0 1 2.04 0.11
-9 0 -1 0.61 0.08
-9 0 -1 0.45 0.04
9 0 1 0.49 0.05
9 0 1 0.45 0.07
-10 0 -1 0.07 0.05
-10 0 -1 0.02 0.02
10 0 1 -0.02 0.02
10 0 1 0.06 0.05
10 -1 -1 2.39 0.14
10 -1 -1 2.26 0.11
-10 1 1 2.28 0.1
-10 1 1 2.29 0.14
9 -1 -1 0.35 0.05
9 -1 -1 0.37 0.07
-9 1 1 0.32 0.06
-9 1 1 0.29 0.04
8 -1 -1 0.51 0.05
8 -1 -1 0.46 0.07
-8 1 1 0.44 0.06
-8 1 1 0.42 0.05
7 -1 -1 11.14 0.27
7 -1 -1 11.72 0.25
-7 1 1 11.64 0.24
-7 1 1 11.89 0.27
6 -1 -1 58.96 0.95
6 -1 -1 58.27 0.98
-6 1 1 59.56 0.94
-6 1 1 56.22 0.97
5 -1 -1 7.33 0.18
5 -1 -1 8.05 0.17
5 -1 -1 7.96 0.14
-5 1 1 7.74 0.18
-5 1 1 7.99 0.17
-5 1 1 8.13 0.17
4 -1 -1 1.6 0.07
4 -1 -1 1.43 0.06
4 -1 -1 1.65 0.04
-4 1 1 1.59 0.06
-4 1 1 1.52 0.06
-4 1 1 1.57 0.06
3 -1 -1 10.55 0.19
3 -1 -1 10.9 0.18
3 -1 -1 10.6 0.2
3 -1 -1 10.8 0.2
-3 1 1 10.29 0.19
-3 1 1 10.36 0.19
-3 1 1 10.42 0.2
2 -1 -1 16.38 0.28
2 -1 -1 16.88 0.28
2 -1 -1 17.54 0.27
2 -1 -1 16.99 0.28
-2 1 1 16.65 0.28
-2 1 1 16.76 0.28
-2 1 1 16.95 0.28
1 -1 -1 4.22 0.08
1 -1 -1 4.25 0.08
1 -1 -1 4.38 0.08
1 -1 -1 4.59 0.09
-1 1 1 4.4 0.08
-1 1 1 4.3 0.08
-1 1 1 4.26 0.08
0 -1 -1 0.77 0.02
0 -1 -1 0.8 0.02
0 -1 -1 0.79 0.03
0 1 1 0.81 0.02
0 1 1 0.83 0.02
-1 -1 -1 2.24 0.05
-1 -1 -1 2.4 0.04
-1 -1 -1 2.29 0.06
-1 -1 -1 2.38 0.04
-1 -1 -1 2.41 0.05
1 1 1 2.44 0.04
1 1 1 2.43 0.04
-2 -1 -1 12.77 0.22
-2 -1 -1 13.21 0.21
-2 -1 -1 13.03 0.23
-2 -1 -1 12.64 0.23
-2 -1 -1 12.78 0.2
2 1 1 13.25 0.2
2 1 1 13.2 0.2
-3 -1 -1 1.24 0.04
-3 -1 -1 1.16 0.03
-3 -1 -1 1.16 0.03
-3 -1 -1 1.13 0.05
-3 -1 -1 1.16 0.05
3 1 1 1.16 0.03
3 1 1 1.19 0.03
-4 -1 -1 56.69 0.86
-4 -1 -1 55.8 0.86
-4 -1 -1 54.37 0.9
-4 -1 -1 56.15 0.87
4 1 1 55.84 0.87
4 1 1 56.35 0.87
4 1 1 54.83 0.91
-5 -1 -1 5.51 0.11
-5 -1 -1 5.66 0.11
-5 -1 -1 5.28 0.15
5 1 1 5.57 0.15
5 1 1 5.48 0.11
5 1 1 5.44 0.12
5 1 1 5.63 0.12
-6 -1 -1 1.96 0.06
-6 -1 -1 1.9 0.09
-6 -1 -1 1.97 0.06
6 1 1 1.93 0.07
6 1 1 1.87 0.09
-7 -1 -1 3.06 0.08
-7 -1 -1 3.36 0.13
7 1 1 3.01 0.13
7 1 1 3.1 0.09
-8 -1 -1 11.95 0.22
-8 -1 -1 12.18 0.3
8 1 1 12.15 0.3
8 1 1 12.03 0.25
-9 -1 -1 0.35 0.06
-9 -1 -1 0.25 0.03
9 1 1 0.2 0.06
9 1 1 0.28 0.04
-10 -1 -1 1.2 0.11
10 1 1 1.18 0.12
10 1 1 1.06 0.07
10 -2 -1 6.37 0.23
10 -2 -1 6.53 0.2
-10 2 1 6.39 0.19
-10 2 1 6.29 0.23
9 -2 -1 0.11 0.05
9 -2 -1 0.12 0.04
-9 2 1 0.07 0.05
-9 2 1 0.11 0.03
8 -2 -1 0.01 0.03
8 -2 -1 -0.01 0.03
-8 2 1 0.01 0.03
-8 2 1 0.05 0.03
7 -2 -1 0.74 0.07
7 -2 -1 0.71 0.06
-7 2 1 0.68 0.06
-7 2 1 0.72 0.07
6 -2 -1 1.74 0.08
6 -2 -1 1.82 0.09
-6 2 1 1.81 0.09
-6 2 1 1.77 0.08
5 -2 -1 0.69 0.03
5 -2 -1 0.69 0.05
5 -2 -1 0.61 0.05
5 -2 -1 0.71 0.05
-5 2 1 0.58 0.05
-5 2 1 0.66 0.05
4 -2 -1 1.18 0.06
4 -2 -1 1.03 0.05
4 -2 -1 1.18 0.04
4 -2 -1 1.06 0.05
-4 2 1 1.03 0.05
-4 2 1 1.04 0.05
-4 2 1 1.07 0.06
3 -2 -1 4.31 0.1
3 -2 -1 4.26 0.09
3 -2 -1 4.16 0.1
3 -2 -1 4.29 0.11
-3 2 1 4.3 0.1
-3 2 1 4.16 0.1
-3 2 1 4.14 0.11
2 -2 -1 3 0.08
2 -2 -1 2.99 0.07
2 -2 -1 3.1 0.08
2 -2 -1 3 0.07
-2 2 1 3.11 0.08
-2 2 1 3.01 0.08
-2 2 1 2.97 0.08
1 -2 -1 315.23 4.78
1 -2 -1 305.68 4.78
1 -2 -1 309.17 4.79
1 -2 -1 301.19 5.22
-1 2 1 305.83 4.76
-1 2 1 292.32 4.76
-1 2 1 304.98 4.8
0 -2 -1 96.6 1.5
0 -2 -1 97.72 1.48
0 -2 -1 94.98 1.51
0 -2 -1 94.8 1.49
0 2 1 92.59 1.52
0 2 1 95.1 1.5
0 2 1 93.46 1.54
-1 -2 -1 30.02 0.47
-1 -2 -1 29.17 0.48
-1 -2 -1 29.46 0.46
-1 -2 -1 29.51 0.48
-1 -2 -1 29.91 0.47
1 2 1 30.15 0.46
1 2 1 29.64 0.47
1 2 1 30.06 0.48
-2 -2 -1 24.31 0.41
-2 -2 -1 24.51 0.4
-2 -2 -1 24.1 0.41
-3 -2 -1 29.6 0.49
-3 -2 -1 29.1 0.49
-3 -2 -1 29.14 0.5
3 2 1 29.48 0.45
3 2 1 29.85 0.45
-4 -2 -1 0.49 0.04
-4 -2 -1 0.48 0.04
-4 -2 -1 0.46 0.04
4 2 1 0.49 0.02
4 2 1 0.51 0.02
-5 -2 -1 2.95 0.08
-5 -2 -1 3.03 0.1
5 2 1 2.98 0.07
5 2 1 3 0.07
5 2 1 3.03 0.11
-6 -2 -1 11.09 0.17
-6 -2 -1 11.13 0.25
-6 -2 -1 10.48 0.17
6 2 1 11.02 0.2
6 2 1 11.24 0.26
6 2 1 10.96 0.2
6 2 1 10.91 0.21
-7 -2 -1 0.32 0.05
7 2 1 0.29 0.03
7 2 1 0.37 0.06
-8 -2 -1 2.36 0.12
8 2 1 2.2 0.08
8 2 1 2.24 0.12
-9 -2 -1 0 0.04
9 2 1 0.05 0.04
9 2 1 0.09 0.03
-10 -2 -1 0.1 0.05
10 2 1 0.13 0.03
10 2 1 -0.01 0.04
10 -3 -1 4.4 0.17
10 -3 -1 4.85 0.2
-10 3 1 4.22 0.16
-10 3 1 4.6 0.2
9 -3 -1 0.14 0.05
9 -3 -1 0.1 0.04
-9 3 1 0.09 0.04
-9 3 1 0.14 0.05
8 -3 -1 22.6 0.45
8 -3 -1 21.82 0.46
-8 3 1 22.63 0.44
-8 3 1 22.9 0.48
7 -3 -1 11.88 0.29
7 -3 -1 13.08 0.28
-7 3 1 12.14 0.29
-7 3 1 11.92 0.27
6 -3 -1 0.88 0.06
6 -3 -1 1.03 0.07
-6 3 1 0.92 0.07
-6 3 1 0.96 0.07
5 -3 -1 4.26 0.1
5 -3 -1 4.08 0.12
5 -3 -1 4.12 0.12
5 -3 -1 4.24 0.13
-5 3 1 4.38 0.12
-5 3 1 4.06 0.13
4 -3 -1 -0.02 0.01
4 -3 -1 -0.01 0.02
4 -3 -1 -0.01 0.02
4 -3 -1 -0.01 0.02
-4 3 1 -0.03 0.02
-4 3 1 -0.01 0.01
-4 3 1 0 0.02
3 -3 -1 0.21 0.03
3 -3 -1 0.2 0.03
3 -3 -1 0.23 0.03
3 -3 -1 0.24 0.03
-3 3 1 0.24 0.03
-3 3 1 0.16 0.03
2 -3 -1 26.45 0.45
2 -3 -1 26.48 0.43
2 -3 -1 26.39 0.45
2 -3 -1 26.83 0.44
-2 3 1 26.55 0.45
-2 3 1 26.55 0.45
-2 3 1 25.88 0.45
1 -3 -1 7.94 0.14
1 -3 -1 8.07 0.16
1 -3 -1 7.57 0.16
1 -3 -1 7.67 0.15
-1 3 1 7.88 0.16
-1 3 1 8.19 0.16
-1 3 1 7.95 0.16
0 -3 -1 96.54 1.57
0 -3 -1 100.22 1.56
0 -3 -1 98.63 1.55
0 -3 -1 101.02 1.53
0 3 1 96.93 1.53
0 3 1 97.45 1.61
0 3 1 97.32 1.58
-1 -3 -1 37.44 0.59
-1 -3 -1 36.52 0.62
-1 -3 -1 38.33 0.59
-1 -3 -1 37.41 0.59
1 3 1 38.22 0.59
1 3 1 37.1 0.6
1 3 1 37.76 0.59
-2 -3 -1 8.74 0.14
-2 -3 -1 8.41 0.18
-2 -3 -1 8.71 0.17
-2 -3 -1 8.58 0.14
-2 -3 -1 8.58 0.17
2 3 1 8.65 0.14
2 3 1 8.62 0.14
-3 -3 -1 20.86 0.37
-3 -3 -1 20.2 0.37
-3 -3 -1 21.47 0.37
3 3 1 20.75 0.32
3 3 1 21.01 0.32
-4 -3 -1 3.43 0.11
-4 -3 -1 3.44 0.1
-4 -3 -1 3.27 0.1
4 3 1 3.41 0.06
4 3 1 3.35 0.06
-5 -3 -1 0.86 0.06
-5 -3 -1 1.02 0.06
-5 -3 -1 0.98 0.05
5 3 1 0.94 0.06
5 3 1 0.97 0.03
5 3 1 1 0.03
-6 -3 -1 11.47 0.23
-6 -3 -1 10.69 0.25
6 3 1 10.69 0.2
6 3 1 11.11 0.26
6 3 1 11.21 0.19
-7 -3 -1 16.6 0.36
7 3 1 16.74 0.29
7 3 1 17.15 0.37
-8 -3 -1 -0.01 0.03
8 3 1 0.02 0.02
8 3 1 -0.06 0.03
-9 -3 -1 0.07 0.04
9 3 1 0.09 0.05
9 3 1 0.03 0.02
-10 -3 -1 1.23 0.11
10 3 1 1.26 0.11
10 3 1 1.32 0.07
10 -4 -1 0.02 0.05
10 -4 -1 0.04 0.04
-10 4 1 0.03 0.04
-10 4 1 -0.05 0.04
9 -4 -1 0.24 0.05
9 -4 -1 0.26 0.06
-9 4 1 0.21 0.05
-9 4 1 0.3 0.07
8 -4 -1 1.81 0.1
8 -4 -1 1.62 0.1
-8 4 1 1.58 0.11
-8 4 1 1.67 0.1
7 -4 -1 0.04 0.04
7 -4 -1 0.05 0.03
-7 4 1 -0.01 0.03
-7 4 1 0.08 0.04
6 -4 -1 1.68 0.09
6 -4 -1 1.45 0.09
-6 4 1 1.51 0.09
-6 4 1 1.43 0.09
5 -4 -1 -0.01 0.02
5 -4 -1 -0.03 0.02
5 -4 -1 0.03 0.02
5 -4 -1 -0.04 0.02
-5 4 1 -0.02 0.03
-5 4 1 0.02 0.03
4 -4 -1 1.24 0.06
4 -4 -1 1.11 0.05
4 -4 -1 1.15 0.07
4 -4 -1 1.05 0.06
-4 4 1 1.27 0.07
-4 4 1 1.17 0.07
-4 4 1 1.17 0.07
3 -4 -1 2.75 0.09
3 -4 -1 2.65 0.09
3 -4 -1 2.84 0.08
3 -4 -1 2.75 0.09
-3 4 1 2.79 0.09
-3 4 1 2.79 0.09
-3 4 1 2.65 0.09
2 -4 -1 14.8 0.28
2 -4 -1 14.74 0.26
2 -4 -1 14.96 0.28
2 -4 -1 14.88 0.28
-2 4 1 14.9 0.28
-2 4 1 14.54 0.28
-2 4 1 14.43 0.28
1 -4 -1 5.86 0.13
1 -4 -1 5.7 0.14
1 -4 -1 5.84 0.13
1 -4 -1 5.79 0.11
-1 4 1 5.56 0.13
-1 4 1 5.78 0.13
-1 4 1 5.95 0.13
0 -4 -1 12.22 0.2
0 -4 -1 11.89 0.22
0 -4 -1 12.05 0.22
0 -4 -1 12.04 0.24
0 4 1 11.85 0.23
0 4 1 12.1 0.22
0 4 1 12.1 0.22
-1 -4 -1 5.16 0.1
-1 -4 -1 5.3 0.1
-1 -4 -1 4.95 0.13
-1 -4 -1 5.04 0.11
1 4 1 5.16 0.11
1 4 1 4.9 0.12
1 4 1 5.01 0.11
-2 -4 -1 108.74 1.73
-2 -4 -1 113.56 1.7
-2 -4 -1 108.83 1.7
-2 -4 -1 110.24 1.7
2 4 1 109.25 1.74
2 4 1 109.42 1.71
2 4 1 108.88 1.79
-3 -4 -1 3.06 0.11
-3 -4 -1 3.3 0.09
-3 -4 -1 3.27 0.1
3 4 1 3.3 0.06
3 4 1 3.32 0.07
-4 -4 -1 4.14 0.12
-4 -4 -1 3.99 0.12
-4 -4 -1 4.23 0.12
4 4 1 4.32 0.07
4 4 1 4.13 0.07
-5 -4 -1 2.1 0.09
-5 -4 -1 1.89 0.09
-5 -4 -1 1.97 0.09
5 4 1 1.96 0.04
5 4 1 2.03 0.04
-6 -4 -1 0.46 0.05
-6 -4 -1 0.51 0.06
6 4 1 0.41 0.05
6 4 1 0.42 0.02
6 4 1 0.43 0.02
-7 -4 -1 1.3 0.09
7 4 1 1.29 0.09
7 4 1 1.14 0.04
-8 -4 -1 1.81 0.11
8 4 1 1.72 0.11
8 4 1 1.74 0.06
-9 -4 -1 0.06 0.05
9 4 1 0.14 0.02
9 4 1 0.11 0.05
9 -5 -1 0.51 0.07
-9 5 1 0.32 0.06
-9 5 1 0.28 0.07
8 -5 -1 2.41 0.12
-8 5 1 2.58 0.13
-8 5 1 2.4 0.13
7 -5 -1 0.86 0.07
-7 5 1 0.85 0.09
-7 5 1 0.9 0.08
6 -5 -1 1.12 0.07
-6 5 1 1.24 0.08
-6 5 1 0.93 0.08
5 -5 -1 0.54 0.05
5 -5 -1 0.55 0.05
5 -5 -1 0.6 0.06
-5 5 1 0.54 0.06
-5 5 1 0.55 0.06
4 -5 -1 2.96 0.09
4 -5 -1 2.89 0.11
4 -5 -1 3.03 0.1
-4 5 1 2.85 0.11
-4 5 1 3.03 0.11
-4 5 1 2.89 0.11
3 -5 -1 9.6 0.22
3 -5 -1 9.32 0.19
3 -5 -1 9.72 0.22
-3 5 1 9.66 0.22
-3 5 1 9.65 0.22
-3 5 1 9.99 0.22
2 -5 -1 0.2 0.04
2 -5 -1 0.24 0.02
2 -5 -1 0.15 0.03
-2 5 1 0.23 0.03
-2 5 1 0.25 0.03
-2 5 1 0.18 0.03
1 -5 -1 0.6 0.05
1 -5 -1 0.65 0.05
1 -5 -1 0.62 0.03
-1 5 1 0.58 0.04
-1 5 1 0.61 0.04
-1 5 1 0.59 0.04
0 -5 -1 0.05 0.01
0 -5 -1 0 0.02
0 -5 -1 0.03 0.03
0 -5 -1 0.02 0.02
0 5 1 0.06 0.02
0 5 1 0.04 0.02
0 5 1 0.05 0.02
-1 -5 -1 0.04 0.01
-1 -5 -1 0.04 0.03
-1 -5 -1 0.04 0.01
-1 -5 -1 0.06 0.02
1 5 1 0.04 0.02
1 5 1 0.04 0.01
1 5 1 0.04 0.02
-2 -5 -1 31.14 0.56
-2 -5 -1 31.11 0.5
-2 -5 -1 30.84 0.5
-2 -5 -1 31.45 0.52
2 5 1 31.49 0.54
2 5 1 31.28 0.51
2 5 1 30.66 0.51
-3 -5 -1 24.43 0.47
-3 -5 -1 25.31 0.44
3 5 1 24.78 0.45
3 5 1 24.74 0.4
3 5 1 25.09 0.4
-4 -5 -1 8.73 0.22
-4 -5 -1 8.64 0.2
4 5 1 8.26 0.15
4 5 1 8.33 0.2
4 5 1 8.39 0.15
-5 -5 -1 4.63 0.14
-5 -5 -1 4.67 0.15
-5 -5 -1 4.76 0.14
5 5 1 4.69 0.08
5 5 1 4.58 0.09
-6 -5 -1 3.03 0.12
-6 -5 -1 3.18 0.12
6 5 1 3.35 0.12
6 5 1 3.03 0.06
6 5 1 2.99 0.06
-7 -5 -1 0.42 0.06
7 5 1 0.42 0.02
7 5 1 0.35 0.06
-8 -5 -1 -0.05 0.03
8 5 1 0 0.01
8 5 1 -0.01 0.03
9 5 1 1.17 0.04
9 5 1 1.3 0.1
-9 6 1 0.04 0.05
-8 6 1 0.26 0.07
7 -6 -1 -0.03 0.03
-7 6 1 -0.01 0.04
6 -6 -1 1.82 0.09
-6 6 1 1.85 0.11
5 -6 -1 3.93 0.13
5 -6 -1 4.06 0.13
5 -6 -1 3.65 0.16
-5 6 1 4.1 0.15
4 -6 -1 3.47 0.12
4 -6 -1 3.34 0.13
-4 6 1 3.56 0.13
-4 6 1 3.49 0.13
3 -6 -1 1.95 0.09
3 -6 -1 1.93 0.1
-3 6 1 2 0.09
-3 6 1 2.04 0.1
2 -6 -1 17.67 0.35
2 -6 -1 16.84 0.35
-2 6 1 17.51 0.35
-2 6 1 17.75 0.35
1 -6 -1 2.91 0.1
1 -6 -1 2.72 0.11
-1 6 1 2.91 0.1
-1 6 1 2.93 0.1
0 -6 -1 0 0.02
0 -6 -1 0.03 0.03
0 6 1 0.02 0.02
0 6 1 0.06 0.02
-1 -6 -1 0.02 0.03
-1 -6 -1 0.03 0.02
1 6 1 -0.01 0.02
1 6 1 0.05 0.02
-2 -6 -1 14.64 0.32
-2 -6 -1 14.79 0.26
-2 -6 -1 14.8 0.26
2 6 1 14.48 0.29
2 6 1 15.06 0.27
-3 -6 -1 6.69 0.19
3 6 1 6.62 0.17
3 6 1 6.7 0.14
-4 -6 -1 3.29 0.13
4 6 1 3.26 0.12
4 6 1 3.35 0.08
-5 -6 -1 2.59 0.12
5 6 1 2.77 0.06
5 6 1 2.78 0.11
-6 -6 -1 0.07 0.04
6 6 1 0.11 0.04
6 6 1 0.12 0.01
-7 -6 -1 0.29 0.06
7 6 1 0.37 0.06
-8 7 1 0.74 0.09
-7 7 1 0.8 0.09
-6 7 1 2.92 0.14
-5 7 1 0.08 0.04
4 -7 -1 0.95 0.08
4 -7 -1 0.91 0.07
-4 7 1 0.94 0.08
-4 7 1 0.88 0.08
3 -7 -1 2.93 0.12
3 -7 -1 2.92 0.12
-3 7 1 3.03 0.12
-3 7 1 3 0.13
2 -7 -1 5 0.17
2 -7 -1 5.03 0.15
-2 7 1 5.17 0.16
-2 7 1 4.91 0.15
1 -7 -1 0.79 0.06
1 -7 -1 0.71 0.07
-1 7 1 0.81 0.07
-1 7 1 0.74 0.06
0 -7 -1 12.86 0.27
0 -7 -1 13.54 0.31
0 7 1 12.99 0.28
0 7 1 12.97 0.28
-1 -7 -1 8.77 0.19
-1 -7 -1 9.13 0.24
1 7 1 9.21 0.21
1 7 1 9.22 0.21
-2 -7 -1 5.04 0.12
-2 -7 -1 5.27 0.18
2 7 1 4.97 0.15
2 7 1 5.31 0.14
-3 -7 -1 0.05 0.04
3 7 1 0.05 0.02
3 7 1 -0.02 0.02
-4 -7 -1 0 0.04
4 7 1 0.03 0.02
4 7 1 0.06 0.03
-5 -7 -1 0.54 0.07
5 7 1 0.56 0.04
5 7 1 0.72 0.07
-6 -7 -1 0.03 0.04
6 7 1 0.04 0.01
6 7 1 0.06 0.03
-7 8 1 1.73 0.12
-6 8 1 0.59 0.08
-5 8 1 0.19 0.05
4 -8 -1 4.12 0.16
4 -8 -1 3.87 0.15
-4 8 1 4.34 0.16
3 -8 -1 2.12 0.12
3 -8 -1 2.06 0.11
-3 8 1 1.99 0.12
-3 8 1 2.23 0.12
2 -8 -1 0.78 0.07
2 -8 -1 0.74 0.08
-2 8 1 0.92 0.08
-2 8 1 0.73 0.07
1 -8 -1 5.14 0.18
1 -8 -1 5.36 0.16
-1 8 1 5.16 0.17
-1 8 1 5.12 0.16
0 -8 -1 0.02 0.03
0 -8 -1 0.02 0.04
0 8 1 0.01 0.03
0 8 1 0.04 0.03
-1 -8 -1 2.06 0.08
-1 -8 -1 2.23 0.12
1 8 1 2.2 0.1
1 8 1 2.26 0.1
-2 -8 -1 0.23 0.03
-2 -8 -1 0.29 0.06
2 8 1 0.18 0.04
2 8 1 0.2 0.04
-3 -8 -1 1.14 0.1
3 8 1 1.15 0.08
3 8 1 0.97 0.06
-4 -8 -1 1.34 0.1
4 8 1 1.32 0.06
4 8 1 1.47 0.09
-5 -8 -1 0.27 0.06
5 8 1 0.13 0.04
5 8 1 0.11 0.02
-6 -8 -1 0.04 0.05
6 8 1 0.06 0.02
-6 9 1 0.59 0.09
-5 9 1 0.76 0.1
4 -9 -1 -0.01 0.04
4 -9 -1 0.03 0.04
-4 9 1 0.05 0.04
3 -9 -1 0.18 0.05
3 -9 -1 0.21 0.05
-3 9 1 0.25 0.06
-3 9 1 0.12 0.05
2 -9 -1 0.82 0.09
2 -9 -1 0.6 0.07
-2 9 1 0.71 0.08
-2 9 1 0.84 0.09
1 -9 -1 2.54 0.12
1 -9 -1 2.79 0.15
-1 9 1 2.73 0.13
-1 9 1 2.76 0.13
0 -9 -1 0.41 0.05
0 -9 -1 0.39 0.07
0 9 1 0.43 0.06
0 9 1 0.34 0.06
-1 -9 -1 -0.02 0.04
-1 -9 -1 -0.01 0.02
1 9 1 0 0.03
1 9 1 0 0.03
-2 -9 -1 0.71 0.05
-2 -9 -1 0.8 0.09
2 9 1 0.72 0.07
2 9 1 0.81 0.07
-3 -9 -1 0.01 0.04
3 9 1 0.09 0.03
3 9 1 0.06 0.04
-4 -9 -1 0.45 0.08
4 9 1 0.5 0.06
4 9 1 0.5 0.05
-5 -9 -1 0.01 0.04
5 9 1 -0.01 0.02
4 -10 -1 0.02 0.05
-4 10 1 0.06 0.04
3 -10 -1 0.27 0.07
3 -10 -1 0.15 0.05
-3 10 1 0.25 0.07
-3 10 1 0.27 0.06
2 -10 -1 0.29 0.06
2 -10 -1 0.4 0.07
-2 10 1 0.42 0.07
-2 10 1 0.38 0.07
1 -10 -1 -0.02 0.05
1 -10 -1 -0.05 0.03
-1 10 1 0.05 0.04
-1 10 1 0.04 0.04
0 -10 -1 0.17 0.04
0 -10 -1 0.23 0.07
0 10 1 0.08 0.05
0 10 1 0.22 0.05
-1 -10 -1 0.02 0.03
-1 -10 -1 -0.05 0.04
1 10 1 -0.05 0.03
1 10 1 0.08 0.04
-2 -10 -1 0.28 0.03
-2 -10 -1 0.26 0.07
2 10 1 0.19 0.05
2 10 1 0.14 0.04
-3 -10 -1 0.63 0.09
3 10 1 0.77 0.07
3 10 -2 0.19 0.04
-3 -10 2 0.1 0.06
2 10 -2 0.03 0.03
-2 -10 2 0.07 0.02
-2 -10 2 0.02 0.05
1 10 -2 1.26 0.09
-1 -10 2 1.1 0.07
-1 -10 2 0.93 0.11
0 10 -2 2.44 0.13
0 10 -2 2.5 0.12
0 -10 2 2.46 0.11
0 -10 2 2.54 0.15
-1 10 -2 0.43 0.07
-1 10 -2 0.39 0.06
1 -10 2 0.25 0.06
1 -10 2 0.31 0.06
-2 10 -2 -0.03 0.04
-2 10 -2 -0.03 0.04
2 -10 2 0.01 0.05
2 -10 2 0.08 0.04
-3 10 -2 1.68 0.11
-3 10 -2 1.99 0.13
3 -10 2 1.73 0.12
3 -10 2 1.77 0.12
-4 10 -2 0.67 0.09
4 -10 2 0.47 0.08
5 9 -2 1.46 0.07
-5 -9 2 1.63 0.13
4 9 -2 -0.03 0.02
-4 -9 2 0.02 0.05
3 9 -2 -0.01 0.02
-3 -9 2 -0.01 0.04
2 9 -2 0 0.03
-2 -9 2 0.04 0.05
-2 -9 2 0 0.02
1 9 -2 0 0.03
1 9 -2 0.05 0.03
-1 -9 2 -0.02 0.02
-1 -9 2 -0.02 0.04
0 9 -2 0.05 0.03
0 9 -2 0.15 0.04
0 -9 2 0 0.04
0 -9 2 0.08 0.03
-1 9 -2 1.96 0.1
-1 9 -2 2.03 0.11
1 -9 2 1.95 0.12
1 -9 2 1.69 0.1
-2 9 -2 5.22 0.18
-2 9 -2 4.98 0.17
2 -9 2 4.69 0.18
2 -9 2 5.01 0.17
-3 9 -2 0.11 0.05
-3 9 -2 0.12 0.05
3 -9 2 0.09 0.05
3 -9 2 0.12 0.05
-4 9 -2 0.89 0.09
4 -9 2 0.72 0.09
-5 9 -2 0.19 0.06
-6 9 -2 0.04 0.05
6 8 -2 0.13 0.02
-6 -8 2 0.11 0.05
5 8 -2 0.18 0.03
-5 -8 2 0.14 0.06
4 8 -2 0.14 0.03
-4 -8 2 0.13 0.05
3 8 -2 0.17 0.03
3 8 -2 0.24 0.04
-3 -8 2 0.19 0.05
2 8 -2 0.12 0.03
2 8 -2 0.11 0.03
-2 -8 2 0.29 0.06
-2 -8 2 0.13 0.03
1 8 -2 0.3 0.05
1 8 -2 0.33 0.05
-1 -8 2 0.35 0.04
-1 -8 2 0.42 0.07
0 8 -2 4.12 0.14
0 8 -2 4.13 0.13
0 -8 2 3.9 0.16
0 -8 2 4.04 0.13
-1 8 -2 1.2 0.09
-1 8 -2 1.1 0.07
1 -8 2 1.12 0.09
1 -8 2 1.18 0.08
-2 8 -2 0.07 0.04
-2 8 -2 0.05 0.04
2 -8 2 0.08 0.04
2 -8 2 0.01 0.03
-3 8 -2 0.27 0.05
-3 8 -2 0.22 0.05
3 -8 2 0.28 0.06
3 -8 2 0.36 0.06
-4 8 -2 0.69 0.08
4 -8 2 0.49 0.07
4 -8 2 0.57 0.07
-5 8 -2 0.04 0.04
-6 8 -2 0.14 0.06
-7 8 -2 0.13 0.06
7 7 -2 0.86 0.09
6 7 -2 4.44 0.09
-6 -7 2 4.63 0.18
5 7 -2 0.39 0.03
-5 -7 2 0.43 0.07
4 7 -2 0.26 0.04
4 7 -2 0.28 0.03
-4 -7 2 0.4 0.07
3 7 -2 10.98 0.22
3 7 -2 11.14 0.23
-3 -7 2 11.08 0.28
-3 -7 2 9.47 0.16
-3 -7 2 10.45 0.16
2 7 -2 3.63 0.11
2 7 -2 3.58 0.11
-2 -7 2 3.53 0.09
-2 -7 2 3.75 0.15
1 7 -2 0.02 0.02
1 7 -2 0.01 0.02
-1 -7 2 -0.01 0.03
-1 -7 2 -0.02 0.02
0 7 -2 1.13 0.06
0 7 -2 1.23 0.07
0 -7 2 1.17 0.08
0 -7 2 1.24 0.07
-1 7 -2 0.01 0.02
-1 7 -2 0 0.03
1 -7 2 -0.01 0.03
1 -7 2 -0.03 0.02
-2 7 -2 0.34 0.05
-2 7 -2 0.38 0.05
2 -7 2 0.42 0.05
2 -7 2 0.36 0.06
-3 7 -2 0.1 0.04
-3 7 -2 0.15 0.04
3 -7 2 0.17 0.04
3 -7 2 0.1 0.04
-4 7 -2 0.01 0.03
-4 7 -2 -0.06 0.03
4 -7 2 0.03 0.03
4 -7 2 -0.01 0.02
-5 7 -2 1.54 0.1
-6 7 -2 0.59 0.08
-7 7 -2 0.55 0.08
-8 7 -2 0.02 0.04
8 6 -2 0.77 0.09
7 6 -2 2.69 0.13
-7 -6 2 2.87 0.14
6 6 -2 3.86 0.07
6 6 -2 3.74 0.07
-6 -6 2 4.19 0.16
-6 -6 2 3.96 0.15
5 6 -2 0.53 0.05
5 6 -2 0.53 0.03
5 6 -2 0.55 0.03
-5 -6 2 0.49 0.06
-5 -6 2 0.54 0.06
4 6 -2 0.2 0.02
4 6 -2 0.25 0.04
-4 -6 2 0.31 0.05
-4 -6 2 0.21 0.05
3 6 -2 0.04 0.02
3 6 -2 0.04 0.02
-3 -6 2 0.05 0.03
-3 -6 2 0.03 0.02
2 6 -2 0.75 0.05
2 6 -2 0.82 0.05
-2 -6 2 0.86 0.04
-2 -6 2 0.71 0.05
-2 -6 2 0.79 0.07
-2 -6 2 0.85 0.04
1 6 -2 3.3 0.1
1 6 -2 3.41 0.1
-1 -6 2 3.54 0.13
-1 -6 2 3.38 0.1
-1 -6 2 3.46 0.1
0 6 -2 8.12 0.19
0 6 -2 8.7 0.19
0 -6 2 8.52 0.19
0 -6 2 8.55 0.21
0 -6 2 8.59 0.18
-1 6 -2 0.39 0.04
-1 6 -2 0.39 0.05
1 -6 2 0.37 0.04
1 -6 2 0.42 0.04
1 -6 2 0.46 0.06
-2 6 -2 24.78 0.45
-2 6 -2 24.84 0.46
2 -6 2 24.23 0.46
2 -6 2 24.89 0.43
2 -6 2 24.82 0.46
-3 6 -2 4.61 0.14
-3 6 -2 4.93 0.15
3 -6 2 4.36 0.14
3 -6 2 4.64 0.15
3 -6 2 4.57 0.13
-4 6 -2 0.44 0.06
-4 6 -2 0.46 0.06
4 -6 2 0.41 0.05
4 -6 2 0.4 0.05
4 -6 2 0.4 0.05
-5 6 -2 3.57 0.14
5 -6 2 3.53 0.12
-6 6 -2 0.13 0.04
6 -6 2 0.15 0.04
-7 6 -2 2.92 0.14
7 -6 2 3.07 0.13
-8 6 -2 0.28 0.06
-8 6 -2 0.21 0.05
8 -6 2 0.38 0.07
-9 6 -2 0.16 0.06
-9 6 -2 0.29 0.06
9 -6 2 0.27 0.07
9 5 -2 0.06 0.05
9 5 -2 0.08 0.02
8 5 -2 0.44 0.02
8 5 -2 0.48 0.07
7 5 -2 8.01 0.14
7 5 -2 7.94 0.21
-7 -5 2 8.35 0.24
6 5 -2 1.91 0.09
6 5 -2 2.08 0.04
6 5 -2 2.1 0.04
-6 -5 2 2.23 0.09
-6 -5 2 2.12 0.11
5 5 -2 1.46 0.03
5 5 -2 1.52 0.04
-5 -5 2 1.35 0.08
-5 -5 2 1.6 0.09
-5 -5 2 1.51 0.07
4 5 -2 36.96 0.58
4 5 -2 36.92 0.62
4 5 -2 36.95 0.58
-4 -5 2 36.61 0.65
-4 -5 2 37.76 0.66
3 5 -2 10.52 0.19
3 5 -2 10.45 0.21
3 5 -2 10.95 0.19
-3 -5 2 10.11 0.24
-3 -5 2 10.73 0.23
2 5 -2 0.48 0.03
2 5 -2 0.43 0.03
2 5 -2 0.47 0.03
-2 -5 2 0.48 0.02
-2 -5 2 0.46 0.03
-2 -5 2 0.44 0.05
-2 -5 2 0.43 0.04
1 5 -2 7.37 0.15
1 5 -2 7.2 0.15
1 5 -2 7.52 0.16
-1 -5 2 7.19 0.18
-1 -5 2 7.38 0.15
-1 -5 2 7.41 0.16
-1 -5 2 7.27 0.15
0 5 -2 13.31 0.26
0 5 -2 13.18 0.25
0 5 -2 12.9 0.25
0 -5 2 13.38 0.25
0 -5 2 13.5 0.25
0 -5 2 13.22 0.27
0 -5 2 13.37 0.24
-1 5 -2 0.05 0.02
-1 5 -2 0.05 0.02
-1 5 -2 0.06 0.02
1 -5 2 0.04 0.03
1 -5 2 0.06 0.02
1 -5 2 0.06 0.02
-2 5 -2 21.27 0.39
-2 5 -2 21.3 0.4
-2 5 -2 21.38 0.39
2 -5 2 21.18 0.37
2 -5 2 22.03 0.39
2 -5 2 21.51 0.39
2 -5 2 20.95 0.39
-3 5 -2 11.24 0.24
-3 5 -2 11.22 0.24
-3 5 -2 11.34 0.25
3 -5 2 11.2 0.23
3 -5 2 11.21 0.25
3 -5 2 11.14 0.24
3 -5 2 10.93 0.23
-4 5 -2 73.55 1.21
-4 5 -2 73.1 1.21
-4 5 -2 73.73 1.2
4 -5 2 74.19 1.19
4 -5 2 72.87 1.18
4 -5 2 73.22 1.2
4 -5 2 74.64 1.21
-5 5 -2 1.53 0.09
-5 5 -2 1.56 0.09
5 -5 2 1.61 0.08
5 -5 2 1.53 0.08
-6 5 -2 5.8 0.17
-6 5 -2 5.67 0.18
6 -5 2 5.52 0.17
6 -5 2 5.89 0.17
-7 5 -2 0.02 0.04
-7 5 -2 0.02 0.04
7 -5 2 0.02 0.03
-8 5 -2 0.37 0.06
-8 5 -2 0.27 0.06
8 -5 2 0.26 0.05
-9 5 -2 0.13 0.05
-9 5 -2 0.26 0.07
9 -5 2 0.19 0.06
9 4 -2 0.02 0.04
9 4 -2 0.01 0.02
8 4 -2 4.14 0.17
8 4 -2 4.27 0.1
7 4 -2 0.03 0.01
-7 -4 2 0 0.03
-7 -4 2 -0.02 0.03
6 4 -2 0.05 0.03
6 4 -2 0.1 0.01
6 4 -2 0.1 0.01
-6 -4 2 0.06 0.04
-6 -4 2 0.05 0.03
5 4 -2 0.28 0.02
5 4 -2 0.25 0.01
-5 -4 2 0.29 0.05
-5 -4 2 0.23 0.04
-5 -4 2 0.45 0.04
4 4 -2 0.99 0.03
-4 -4 2 1 0.06
-4 -4 2 0.93 0.05
-4 -4 2 0.98 0.06
3 4 -2 0.67 0.03
3 4 -2 0.66 0.02
3 4 -2 0.61 0.04
-3 -4 2 0.69 0.05
-3 -4 2 0.64 0.05
2 4 -2 24.09 0.39
2 4 -2 24.12 0.4
2 4 -2 24.07 0.39
-2 -4 2 24.19 0.38
-2 -4 2 24.04 0.42
-2 -4 2 23.24 0.43
-2 -4 2 23.83 0.38
1 4 -2 16.22 0.28
1 4 -2 16.11 0.27
1 4 -2 15.95 0.28
-1 -4 2 15.88 0.27
-1 -4 2 16.36 0.27
-1 -4 2 16.07 0.29
-1 -4 2 15.73 0.31
0 4 -2 8.84 0.17
0 4 -2 9.06 0.17
0 4 -2 8.92 0.18
0 -4 2 8.98 0.19
0 -4 2 9.04 0.17
0 -4 2 9.14 0.17
0 -4 2 9.07 0.18
-1 4 -2 2.97 0.08
-1 4 -2 2.83 0.09
-1 4 -2 2.89 0.08
1 -4 2 2.71 0.09
1 -4 2 3.04 0.08
1 -4 2 2.78 0.09
1 -4 2 2.99 0.08
-2 4 -2 7.34 0.16
-2 4 -2 7.11 0.17
-2 4 -2 6.97 0.16
2 -4 2 7.31 0.16
2 -4 2 7.43 0.15
2 -4 2 7.05 0.16
2 -4 2 6.78 0.16
-3 4 -2 0.34 0.04
-3 4 -2 0.26 0.03
-3 4 -2 0.27 0.04
3 -4 2 0.29 0.03
3 -4 2 0.26 0.03
3 -4 2 0.3 0.03
3 -4 2 0.2 0.03
-4 4 -2 4.87 0.14
-4 4 -2 4.86 0.14
4 -4 2 4.8 0.13
4 -4 2 4.82 0.14
4 -4 2 5.04 0.12
4 -4 2 4.66 0.13
-5 4 -2 20.84 0.4
-5 4 -2 20.4 0.41
5 -4 2 21.29 0.4
5 -4 2 20.45 0.4
-6 4 -2 29.67 0.55
-6 4 -2 29.99 0.56
6 -4 2 31.13 0.56
6 -4 2 28.9 0.55
-7 4 -2 0.35 0.06
-7 4 -2 0.26 0.05
7 -4 2 0.32 0.05
7 -4 2 0.26 0.05
-8 4 -2 0.25 0.06
-8 4 -2 0.36 0.06
8 -4 2 0.32 0.06
8 -4 2 0.28 0.05
-9 4 -2 0.12 0.05
-9 4 -2 0.11 0.04
9 -4 2 0.13 0.05
9 -4 2 0.17 0.05
-10 4 -2 0.07 0.04
-10 4 -2 0 0.04
10 -4 2 0.04 0.04
10 -4 2 -0.04 0.04
10 3 -2 -0.03 0.02
10 3 -2 -0.01 0.04
9 3 -2 0.08 0.05
9 3 -2 0.1 0.02
8 3 -2 6.1 0.14
8 3 -2 6.06 0.2
-8 -3 2 6.21 0.19
7 3 -2 0.04 0.02
-7 -3 2 -0.02 0.03
-7 -3 2 0.1 0.04
6 3 -2 1.36 0.04
6 3 -2 1.27 0.06
6 3 -2 1.38 0.04
-6 -3 2 1.28 0.07
-6 -3 2 1.32 0.08
5 3 -2 29.95 0.47
5 3 -2 30.21 0.52
5 3 -2 29.83 0.47
-5 -3 2 30.02 0.52
-5 -3 2 29.72 0.55
4 3 -2 44.55 0.67
4 3 -2 43.64 0.67
-4 -3 2 43.95 0.73
-4 -3 2 42.75 0.74
-4 -3 2 44.45 0.72
3 3 -2 1.47 0.03
3 3 -2 1.46 0.03
-3 -3 2 1.41 0.06
-3 -3 2 1.44 0.06
-3 -3 2 1.45 0.05
2 3 -2 4.98 0.09
2 3 -2 4.89 0.1
2 3 -2 4.82 0.09
-2 -3 2 4.67 0.12
-2 -3 2 4.7 0.08
-2 -3 2 4.72 0.11
-2 -3 2 4.72 0.08
1 3 -2 8.3 0.15
1 3 -2 8.3 0.15
1 3 -2 8.47 0.15
-1 -3 2 8.04 0.15
-1 -3 2 8.13 0.16
-1 -3 2 8.35 0.15
-1 -3 2 8.13 0.17
0 3 -2 60.78 0.98
0 3 -2 62.75 0.98
0 3 -2 63.14 1
0 -3 2 63.76 1.06
0 -3 2 63.1 0.98
0 -3 2 63.25 1
0 -3 2 63.88 0.98
-1 3 -2 24.68 0.41
-1 3 -2 25.11 0.41
-1 3 -2 24.17 0.42
1 -3 2 24.79 0.42
1 -3 2 25.09 0.41
1 -3 2 25.22 0.42
1 -3 2 24.66 0.41
-2 3 -2 12.55 0.24
-2 3 -2 12.42 0.24
-2 3 -2 12.98 0.24
2 -3 2 12.58 0.24
2 -3 2 12.96 0.24
2 -3 2 13.13 0.23
2 -3 2 12.35 0.23
-3 3 -2 0.01 0.02
-3 3 -2 0 0.02
-3 3 -2 -0.01 0.01
3 -3 2 -0.01 0.02
3 -3 2 0.01 0.01
3 -3 2 0.03 0.02
3 -3 2 0 0.02
-4 3 -2 0.97 0.06
-4 3 -2 0.99 0.06
-4 3 -2 1.04 0.06
4 -3 2 0.92 0.05
4 -3 2 1.01 0.04
4 -3 2 1.01 0.06
4 -3 2 1.06 0.06
-5 3 -2 4.87 0.13
-5 3 -2 4.9 0.14
5 -3 2 4.57 0.14
5 -3 2 4.64 0.13
-6 3 -2 16.15 0.35
-6 3 -2 16.65 0.33
6 -3 2 16.36 0.33
6 -3 2 16.73 0.34
-7 3 -2 4.27 0.16
-7 3 -2 4.15 0.14
7 -3 2 4.26 0.14
7 -3 2 4.31 0.15
-8 3 -2 0.48 0.07
-8 3 -2 0.64 0.07
8 -3 2 0.51 0.06
8 -3 2 0.66 0.08
-9 3 -2 2.29 0.11
-9 3 -2 2.4 0.14
9 -3 2 2.39 0.13
9 -3 2 2.35 0.12
-10 3 -2 0.11 0.05
-10 3 -2 0.07 0.04
10 -3 2 0.03 0.05
10 -3 2 0.1 0.04
10 2 -2 0.01 0.02
10 2 -2 0.01 0.04
9 2 -2 6.53 0.16
9 2 -2 6.42 0.22
-9 -2 2 6.84 0.21
8 2 -2 1.87 0.07
8 2 -2 1.68 0.11
-8 -2 2 1.9 0.1
7 2 -2 0.87 0.05
-7 -2 2 0.84 0.03
-7 -2 2 0.95 0.07
-7 -2 2 0.86 0.03
-7 -2 2 1.05 0.08
6 2 -2 8.08 0.16
6 2 -2 7.85 0.17
6 2 -2 7.79 0.16
-6 -2 2 7.99 0.21
-6 -2 2 7.75 0.13
-6 -2 2 8.07 0.19
-6 -2 2 8.07 0.14
5 2 -2 0.16 0.03
5 2 -2 0.14 0.02
5 2 -2 0.16 0.02
-5 -2 2 0.16 0.03
-5 -2 2 0.15 0.01
-5 -2 2 0.17 0.04
-5 -2 2 0.14 0.01
4 2 -2 76.76 1.21
4 2 -2 77.16 1.19
4 2 -2 76.53 1.21
-4 -2 2 76.44 1.21
-4 -2 2 77.49 1.17
-4 -2 2 74.63 1.23
3 2 -2 12.91 0.21
3 2 -2 13.07 0.24
3 2 -2 12.96 0.21
-3 -2 2 13.02 0.2
-3 -2 2 12.8 0.25
-3 -2 2 13.01 0.24
-3 -2 2 12.85 0.2
-3 -2 2 12.77 0.23
2 2 -2 6 0.1
2 2 -2 5.92 0.1
-2 -2 2 6.06 0.1
-2 -2 2 5.87 0.11
-2 -2 2 5.81 0.13
-2 -2 2 5.91 0.1
-2 -2 2 6.06 0.13
1 2 -2 74.45 1.19
1 2 -2 75.02 1.18
1 2 -2 75.74 1.21
-1 -2 2 74.71 1.18
-1 -2 2 71.74 1.17
-1 -2 2 75.07 1.22
-1 -2 2 74.26 1.25
0 2 -2 64.43 1.03
0 2 -2 66.83 1.08
0 -2 2 66.45 1.02
0 -2 2 65.62 1.02
0 -2 2 66.06 1.04
0 -2 2 64.87 1.05
-1 2 -2 225.67 3.62
-1 2 -2 226.91 3.61
-1 2 -2 235.36 3.61
1 -2 2 221.93 3.6
1 -2 2 229.93 3.59
1 -2 2 231.24 3.63
1 -2 2 221.63 3.57
-2 2 -2 48.33 0.76
-2 2 -2 45.56 0.76
-2 2 -2 49.36 0.77
2 -2 2 48.99 0.75
2 -2 2 47.2 0.76
2 -2 2 48.72 0.76
2 -2 2 47.84 0.77
-3 2 -2 12.64 0.24
-3 2 -2 12.86 0.24
-3 2 -2 12.81 0.25
3 -2 2 13.06 0.21
3 -2 2 12.57 0.24
3 -2 2 12.81 0.24
3 -2 2 12.76 0.24
-4 2 -2 6.85 0.15
-4 2 -2 6.83 0.15
-4 2 -2 6.34 0.16
4 -2 2 6.66 0.15
4 -2 2 6.69 0.16
4 -2 2 6.89 0.15
-5 2 -2 0.06 0.03
-5 2 -2 0.1 0.03
5 -2 2 0.11 0.03
5 -2 2 0.06 0.02
-6 2 -2 9.45 0.23
-6 2 -2 9.23 0.21
6 -2 2 9.55 0.21
6 -2 2 9.2 0.23
-7 2 -2 0.16 0.04
-7 2 -2 0.16 0.03
7 -2 2 0.21 0.04
7 -2 2 0.11 0.03
-8 2 -2 3.67 0.15
-8 2 -2 3.96 0.13
8 -2 2 3.51 0.15
8 -2 2 3.59 0.13
-9 2 -2 0.01 0.04
-9 2 -2 0.03 0.03
9 -2 2 0 0.03
9 -2 2 -0.04 0.03
-10 2 -2 0.01 0.04
-10 2 -2 0.01 0.03
10 -2 2 0.01 0.05
10 -2 2 -0.03 0.03
10 1 -2 0.03 0.03
10 1 -2 -0.01 0.04
-10 -1 2 -0.08 0.04
-10 -1 2 0.01 0.02
9 1 -2 2.74 0.11
9 1 -2 2.87 0.15
-9 -1 2 2.87 0.14
-9 -1 2 2.87 0.08
8 1 -2 3.5 0.15
8 1 -2 3.56 0.11
-8 -1 2 3.85 0.14
-8 -1 2 3.52 0.09
7 1 -2 0.84 0.07
7 1 -2 0.93 0.05
-7 -1 2 0.84 0.07
-7 -1 2 0.97 0.04
6 1 -2 36.57 0.6
6 1 -2 36.65 0.61
-6 -1 2 37.36 0.59
-6 -1 2 36.26 0.66
-6 -1 2 37.8 0.59
-6 -1 2 36.38 0.64
5 1 -2 51.03 0.81
5 1 -2 51.55 0.81
5 1 -2 51.28 0.81
-5 -1 2 49.49 0.86
-5 -1 2 51.45 0.8
-5 -1 2 50.4 0.83
-5 -1 2 50.95 0.8
4 1 -2 84.32 1.38
4 1 -2 86.79 1.34
4 1 -2 88.55 1.37
-4 -1 2 83.71 1.37
-4 -1 2 86.2 1.34
-4 -1 2 85.39 1.37
-4 -1 2 86.19 1.35
3 1 -2 5.11 0.09
3 1 -2 4.92 0.09
3 1 -2 5.09 0.11
-3 -1 2 4.9 0.11
-3 -1 2 4.84 0.09
-3 -1 2 4.99 0.09
-3 -1 2 5.05 0.12
2 1 -2 398.93 7.85
2 1 -2 395.17 6.77
2 1 -2 399.31 6.88
-2 -1 2 392.2 6.67
-2 -1 2 408.32 6.16
-2 -1 2 396.39 6.78
1 1 -2 2.25 0.05
1 1 -2 2.38 0.06
1 1 -2 2.29 0.04
-1 -1 2 2.24 0.04
-1 -1 2 2.24 0.06
-1 -1 2 2.24 0.05
-1 -1 2 2.35 0.05
0 1 -2 3.8 0.06
0 1 -2 3.71 0.07
0 1 -2 3.76 0.07
0 1 -2 3.67 0.07
0 -1 2 3.53 0.07
0 -1 2 3.66 0.07
0 -1 2 3.65 0.07
-1 1 -2 0.01 0.01
-1 1 -2 0.01 0.01
-1 1 -2 0.01 0.01
-1 1 -2 0.03 0.01
1 -1 2 0.03 0.01
1 -1 2 0.01 0.01
1 -1 2 0 0.01
-2 1 -2 5.42 0.09
-2 1 -2 5.33 0.11
-2 1 -2 5.46 0.11
2 -1 2 5.27 0.11
2 -1 2 5.31 0.11
2 -1 2 5.4 0.11
-3 1 -2 15.56 0.28
-3 1 -2 15.67 0.27
3 -1 2 15.34 0.28
3 -1 2 15.27 0.27
3 -1 2 15.56 0.27
-4 1 -2 7.16 0.17
-4 1 -2 7.29 0.15
-4 1 -2 7.52 0.15
4 -1 2 7.1 0.15
4 -1 2 7.44 0.17
-5 1 -2 28.13 0.47
-5 1 -2 27.07 0.5
5 -1 2 27.3 0.5
5 -1 2 27.88 0.47
-6 1 -2 1.19 0.06
-6 1 -2 1.16 0.07
6 -1 2 1.22 0.07
6 -1 2 1.14 0.06
-7 1 -2 0.17 0.03
-7 1 -2 0.27 0.05
7 -1 2 0.24 0.04
7 -1 2 0.15 0.04
-8 1 -2 2.53 0.12
-8 1 -2 2.58 0.1
8 -1 2 2.57 0.11
8 -1 2 2.74 0.13
-9 1 -2 1.76 0.12
-9 1 -2 1.73 0.08
9 -1 2 1.67 0.11
9 -1 2 1.84 0.1
-10 1 -2 0.04 0.05
-10 1 -2 0.02 0.03
10 -1 2 0.02 0.03
10 -1 2 -0.07 0.04
10 0 -2 4.21 0.19
10 0 -2 4.5 0.15
-10 0 2 4.29 0.18
-10 0 2 4.37 0.13
9 0 -2 0.75 0.07
9 0 -2 0.71 0.08
-9 0 2 0.78 0.09
-9 0 2 0.87 0.06
8 0 -2 4.44 0.13
8 0 -2 4.52 0.17
-8 0 2 4.69 0.16
-8 0 2 4.39 0.12
7 0 -2 0.08 0.04
7 0 -2 0.05 0.02
-7 0 2 0.02 0.02
-7 0 2 0.02 0.03
6 0 -2 2.91 0.09
6 0 -2 2.7 0.11
6 0 -2 2.77 0.08
-6 0 2 2.75 0.1
-6 0 2 2.76 0.08
5 0 -2 7.4 0.16
5 0 -2 7.35 0.15
5 0 -2 7.42 0.16
-5 0 2 7.53 0.19
-5 0 2 7.43 0.17
-5 0 2 7.59 0.15
-5 0 2 7.49 0.15
4 0 -2 47.61 0.74
4 0 -2 47.15 0.75
4 0 -2 46.97 0.75
-4 0 2 47.79 0.75
-4 0 2 46.81 0.77
-4 0 2 48.24 0.75
-4 0 2 46.16 0.78
3 0 -2 9.46 0.17
3 0 -2 9.19 0.17
3 0 -2 9.25 0.17
-3 0 2 9.34 0.19
-3 0 2 9.49 0.17
-3 0 2 9.28 0.17
-3 0 2 9.21 0.18
2 0 -2 0.01 0.01
2 0 -2 0.03 0.01
2 0 -2 0 0.01
-2 0 2 -0.01 0.01
-2 0 2 0.01 0.01
-2 0 2 0.01 0.01
-2 0 2 0 0.01
1 0 -2 3.1 0.06
1 0 -2 3.13 0.06
1 0 -2 3.2 0.06
-1 0 2 3.11 0.06
-1 0 2 3.12 0.06
-1 0 2 3.16 0.07
-1 0 2 3.15 0.06
0 0 -2 165.34 3.11
0 0 -2 174.05 2.69
0 0 -2 174.39 2.69
0 0 -2 173.75 2.68
0 0 2 169.38 3.36
0 0 2 175.62 2.68
-1 0 -2 45.76 0.74
-1 0 -2 45.73 0.72
-1 0 -2 46.6 0.74
-1 0 -2 45.91 0.71
1 0 2 45.01 0.74
1 0 2 45.07 0.76
-2 0 -2 126.37 1.97
-2 0 -2 124.99 2.03
-2 0 -2 127.11 2.01
-2 0 -2 127.55 2.01
2 0 2 126.63 2.01
2 0 2 127.44 2.02
2 0 2 125.98 2.07
-3 0 -2 0.05 0.01
-3 0 -2 0.05 0.01
-3 0 -2 0.04 0.02
-3 0 -2 0.04 0.01
3 0 2 0.05 0.01
3 0 2 0.05 0.01
3 0 2 0.05 0.02
-4 0 -2 6.8 0.13
-4 0 -2 6.77 0.14
-4 0 -2 6.62 0.16
4 0 2 6.64 0.14
4 0 2 6.73 0.16
4 0 2 6.83 0.14
4 0 2 6.94 0.11
-5 0 -2 13.27 0.24
-5 0 -2 13.49 0.24
-5 0 -2 13.54 0.28
5 0 2 13.18 0.25
5 0 2 13.07 0.28
5 0 2 13.35 0.25
5 0 2 13.45 0.21
-6 0 -2 8.58 0.18
-6 0 -2 8.62 0.21
6 0 2 8.43 0.18
6 0 2 8.83 0.22
-7 0 -2 6.85 0.2
-7 0 -2 6.56 0.15
7 0 2 6.86 0.16
7 0 2 6.81 0.2
-8 0 -2 4.01 0.16
-8 0 -2 4 0.11
8 0 2 3.9 0.12
8 0 2 3.71 0.15
-9 0 -2 0.02 0.04
-9 0 -2 0.06 0.03
9 0 2 0.02 0.04
9 0 2 0.02 0.03
-10 0 -2 0.35 0.07
-10 0 -2 0.37 0.04
10 0 2 0.26 0.05
10 0 2 0.16 0.06
10 -1 -2 1 0.11
10 -1 -2 0.89 0.08
-10 1 2 0.86 0.07
-10 1 2 0.91 0.1
9 -1 -2 3.67 0.14
9 -1 -2 3.57 0.16
-9 1 2 3.5 0.12
-9 1 2 3.48 0.15
8 -1 -2 1.13 0.07
8 -1 -2 1.03 0.09
-8 1 2 1.13 0.07
-8 1 2 1.21 0.09
7 -1 -2 5.02 0.14
7 -1 -2 5.25 0.17
-7 1 2 5.16 0.16
-7 1 2 5.2 0.14
6 -1 -2 9.54 0.21
6 -1 -2 9.39 0.23
-6 1 2 9.38 0.22
-6 1 2 9.64 0.2
5 -1 -2 0.14 0.02
5 -1 -2 0.16 0.03
5 -1 -2 0.17 0.03
-5 1 2 0.12 0.02
-5 1 2 0.15 0.03
4 -1 -2 7.14 0.15
4 -1 -2 6.71 0.16
4 -1 -2 7.04 0.15
4 -1 -2 7.01 0.13
-4 1 2 6.8 0.15
-4 1 2 7.01 0.16
-4 1 2 7.22 0.17
3 -1 -2 9.29 0.18
3 -1 -2 9.32 0.17
3 -1 -2 9.23 0.18
-3 1 2 9.06 0.18
-3 1 2 9.29 0.18
-3 1 2 9.13 0.17
-3 1 2 9.04 0.17
2 -1 -2 7.66 0.15
2 -1 -2 8.15 0.15
2 -1 -2 7.85 0.14
-2 1 2 8.15 0.15
-2 1 2 8.06 0.15
-2 1 2 7.55 0.15
-2 1 2 8.11 0.15
1 -1 -2 2.35 0.06
1 -1 -2 2.45 0.06
1 -1 -2 2.36 0.06
-1 1 2 2.34 0.05
-1 1 2 2.3 0.05
-1 1 2 2.37 0.06
0 -1 -2 1.33 0.04
0 -1 -2 1.35 0.04
0 -1 -2 1.38 0.04
0 1 2 1.43 0.04
0 1 2 1.42 0.03
0 1 2 1.38 0.03
-1 -1 -2 40.28 0.65
-1 -1 -2 40.02 0.66
-1 -1 -2 40.45 0.63
1 1 2 41.07 0.64
1 1 2 40.73 0.64
1 1 2 40.69 0.66
-2 -1 -2 0.5 0.03
-2 -1 -2 0.51 0.02
-2 -1 -2 0.5 0.02
-2 -1 -2 0.45 0.03
2 1 2 0.54 0.03
2 1 2 0.5 0.02
2 1 2 0.49 0.02
-3 -1 -2 17.06 0.27
-3 -1 -2 16.55 0.3
-3 -1 -2 16.67 0.28
-3 -1 -2 16.92 0.27
3 1 2 16.94 0.27
3 1 2 16.9 0.3
3 1 2 16.62 0.27
-4 -1 -2 35.53 0.56
-4 -1 -2 36.09 0.56
-4 -1 -2 36.22 0.57
-4 -1 -2 34.58 0.6
4 1 2 35.99 0.57
4 1 2 35 0.6
4 1 2 35.53 0.56
-5 -1 -2 12.53 0.22
-5 -1 -2 12.62 0.26
-5 -1 -2 12.55 0.22
5 1 2 12.38 0.22
5 1 2 12.5 0.26
5 1 2 12.64 0.22
5 1 2 12.22 0.23
-6 -1 -2 2.48 0.07
-6 -1 -2 2.36 0.1
-6 -1 -2 2.42 0.07
6 1 2 2.43 0.07
6 1 2 2.35 0.1
-7 -1 -2 6.15 0.13
-7 -1 -2 6.21 0.18
7 1 2 5.99 0.18
7 1 2 6.17 0.15
-8 -1 -2 0.28 0.03
-8 -1 -2 0.21 0.05
8 1 2 0.28 0.04
8 1 2 0.17 0.05
-9 -1 -2 1.4 0.11
-9 -1 -2 1.15 0.05
9 1 2 1.1 0.07
9 1 2 1.06 0.09
-10 -1 -2 0.02 0.02
-10 -1 -2 0.03 0.05
10 1 2 -0.03 0.04
10 1 2 -0.03 0.02
10 -2 -2 0.7 0.09
10 -2 -2 0.71 0.08
-10 2 2 0.79 0.08
-10 2 2 0.87 0.1
9 -2 -2 0.17 0.05
9 -2 -2 0.1 0.05
-9 2 2 0.11 0.05
-9 2 2 0.13 0.04
8 -2 -2 0.41 0.06
8 -2 -2 0.38 0.06
-8 2 2 0.56 0.07
-8 2 2 0.38 0.05
7 -2 -2 6.57 0.18
7 -2 -2 6.05 0.19
-7 2 2 6.1 0.18
-7 2 2 6.39 0.17
6 -2 -2 5.8 0.17
6 -2 -2 5.83 0.15
-6 2 2 5.92 0.15
-6 2 2 5.63 0.16
5 -2 -2 17.27 0.29
5 -2 -2 16.7 0.32
5 -2 -2 16.71 0.33
5 -2 -2 16.81 0.32
-5 2 2 17.01 0.33
-5 2 2 17.2 0.32
4 -2 -2 30.15 0.52
4 -2 -2 31.32 0.5
4 -2 -2 30.18 0.52
4 -2 -2 30.5 0.52
-4 2 2 30.92 0.53
-4 2 2 29.99 0.52
-4 2 2 31.76 0.52
3 -2 -2 30.72 0.52
3 -2 -2 32.33 0.53
3 -2 -2 32.02 0.51
3 -2 -2 30.62 0.52
-3 2 2 31.57 0.52
-3 2 2 32.12 0.52
-3 2 2 31.19 0.53
2 -2 -2 129.98 2.11
2 -2 -2 127.77 2.04
2 -2 -2 130.19 2.08
2 -2 -2 132.75 2.1
-2 2 2 127.91 2.15
-2 2 2 130.02 2.11
-2 2 2 129.9 2.09
1 -2 -2 0.01 0.01
1 -2 -2 -0.01 0.01
1 -2 -2 0 0.01
1 -2 -2 -0.02 0.01
-1 2 2 0 0.01
-1 2 2 0.03 0.01
-1 2 2 -0.01 0.01
0 -2 -2 19.44 0.33
0 -2 -2 19.94 0.32
0 -2 -2 18.85 0.32
0 2 2 19.64 0.32
0 2 2 19.08 0.32
-1 -2 -2 65.71 1.03
-1 -2 -2 65.52 1.04
-1 -2 -2 66.32 1.06
-1 -2 -2 63.44 1.03
1 2 2 65.83 1.06
1 2 2 67.78 1.04
1 2 2 65.12 1.05
1 2 2 66.45 1.03
-2 -2 -2 0.08 0.02
-2 -2 -2 0.09 0.01
-2 -2 -2 0.1 0.01
-2 -2 -2 0.09 0.02
2 2 2 0.09 0.02
2 2 2 0.09 0.01
2 2 2 0.1 0.01
-3 -2 -2 0.9 0.02
-3 -2 -2 0.96 0.02
-3 -2 -2 0.88 0.04
-3 -2 -2 0.83 0.05
3 2 2 0.94 0.03
3 2 2 0.96 0.03
3 2 2 0.85 0.04
-4 -2 -2 48.34 0.72
-4 -2 -2 46.79 0.76
-4 -2 -2 46.83 0.78
-4 -2 -2 46.47 0.72
4 2 2 47.54 0.73
4 2 2 46.83 0.73
4 2 2 47.08 0.78
-5 -2 -2 10.04 0.23
-5 -2 -2 10.59 0.17
-5 -2 -2 10.09 0.17
-5 -2 -2 10.51 0.2
5 2 2 10.16 0.19
5 2 2 10.33 0.23
5 2 2 10.45 0.18
-6 -2 -2 17.62 0.27
-6 -2 -2 17.2 0.36
-6 -2 -2 17.27 0.27
6 2 2 17.03 0.35
6 2 2 17.48 0.3
-7 -2 -2 1.76 0.03
-7 -2 -2 1.97 0.1
-7 -2 -2 1.65 0.03
7 2 2 1.94 0.1
7 2 2 1.84 0.07
-8 -2 -2 -0.01 0.04
8 2 2 -0.02 0.03
8 2 2 -0.01 0.02
-9 -2 -2 0.58 0.08
9 2 2 0.46 0.07
9 2 2 0.49 0.05
-10 -2 -2 0.12 0.06
10 2 2 0.09 0.03
10 2 2 0.13 0.06
10 -3 -2 0.19 0.06
10 -3 -2 0.07 0.04
-10 3 2 0.14 0.06
-10 3 2 0.1 0.04
9 -3 -2 0.11 0.04
9 -3 -2 0.13 0.05
-9 3 2 0.13 0.05
-9 3 2 0.13 0.04
8 -3 -2 -0.05 0.03
8 -3 -2 0.02 0.04
-8 3 2 0 0.03
-8 3 2 0.06 0.04
7 -3 -2 5.6 0.17
7 -3 -2 5.54 0.17
-7 3 2 5.56 0.18
-7 3 2 5.25 0.16
6 -3 -2 0.02 0.03
6 -3 -2 0.02 0.03
-6 3 2 0.02 0.03
-6 3 2 0.02 0.02
5 -3 -2 3.26 0.09
5 -3 -2 3.37 0.11
5 -3 -2 3.26 0.11
5 -3 -2 3.22 0.11
-5 3 2 3.42 0.11
4 -3 -2 0.56 0.05
4 -3 -2 0.64 0.04
4 -3 -2 0.57 0.04
4 -3 -2 0.61 0.05
-4 3 2 0.62 0.05
-4 3 2 0.58 0.04
3 -3 -2 1.31 0.05
3 -3 -2 1.23 0.06
3 -3 -2 1.29 0.05
3 -3 -2 1.25 0.06
-3 3 2 1.33 0.06
-3 3 2 1.25 0.06
-3 3 2 1.31 0.06
2 -3 -2 59.61 0.94
2 -3 -2 57.9 0.94
2 -3 -2 60.46 0.94
2 -3 -2 59.52 0.92
-2 3 2 60.71 0.94
-2 3 2 58.4 0.94
-2 3 2 57.03 0.94
1 -3 -2 0.39 0.03
1 -3 -2 0.43 0.02
1 -3 -2 0.44 0.03
1 -3 -2 0.45 0.03
-1 3 2 0.42 0.03
-1 3 2 0.43 0.03
-1 3 2 0.41 0.03
0 -3 -2 62.68 0.99
0 -3 -2 62.68 1
0 -3 -2 63.17 0.98
0 -3 -2 64.23 0.97
0 3 2 63.17 0.98
0 3 2 62.95 0.98
0 3 2 62.39 0.99
-1 -3 -2 22.21 0.4
-1 -3 -2 22.97 0.36
-1 -3 -2 23.3 0.37
-1 -3 -2 22.62 0.37
1 3 2 22.9 0.37
1 3 2 23.26 0.37
1 3 2 22.28 0.39
-2 -3 -2 70.11 1.13
-2 -3 -2 72.56 1.11
-2 -3 -2 72.96 1.11
-2 -3 -2 72.26 1.11
-2 -3 -2 68.97 1.13
2 3 2 71.28 1.13
2 3 2 71.31 1.12
-3 -3 -2 42.53 0.71
-3 -3 -2 43.28 0.72
-3 -3 -2 43.83 0.71
3 3 2 43.48 0.67
3 3 2 43.39 0.67
-4 -3 -2 10.45 0.23
-4 -3 -2 10.41 0.22
4 3 2 10.58 0.17
4 3 2 10.61 0.18
4 3 2 10.51 0.22
-5 -3 -2 0.25 0.04
-5 -3 -2 0.3 0.04
5 3 2 0.31 0.02
5 3 2 0.26 0.04
5 3 2 0.27 0.02
-6 -3 -2 0.26 0.05
6 3 2 0.36 0.05
6 3 2 0.32 0.03
6 3 2 0.29 0.03
-7 -3 -2 1.73 0.1
7 3 2 1.62 0.1
7 3 2 1.55 0.06
-8 -3 -2 0.39 0.06
8 3 2 0.39 0.06
8 3 2 0.39 0.04
-9 -3 -2 0.36 0.07
9 3 2 0.43 0.07
9 3 2 0.38 0.04
10 3 2 2.81 0.15
10 3 2 2.67 0.1
10 -4 -2 0.12 0.05
10 -4 -2 0.09 0.05
-10 4 2 0.08 0.04
-10 4 2 0.08 0.05
9 -4 -2 0.01 0.04
9 -4 -2 0.02 0.04
-9 4 2 0.03 0.04
-9 4 2 0.01 0.04
8 -4 -2 1.55 0.1
8 -4 -2 1.59 0.1
-8 4 2 1.55 0.1
-8 4 2 1.48 0.1
7 -4 -2 0.27 0.05
7 -4 -2 0.35 0.05
-7 4 2 0.22 0.05
-7 4 2 0.22 0.05
6 -4 -2 10.61 0.25
6 -4 -2 10.85 0.25
-6 4 2 10.43 0.25
-6 4 2 10.88 0.26
5 -4 -2 13.56 0.29
5 -4 -2 13.3 0.28
5 -4 -2 13.24 0.26
5 -4 -2 13.49 0.27
-5 4 2 13.37 0.29
-5 4 2 13.02 0.28
4 -4 -2 1.03 0.05
4 -4 -2 1 0.06
4 -4 -2 0.97 0.05
-4 4 2 1.06 0.06
-4 4 2 1.06 0.07
-4 4 2 0.88 0.06
3 -4 -2 1.02 0.05
3 -4 -2 0.98 0.05
3 -4 -2 1.1 0.06
3 -4 -2 0.96 0.06
-3 4 2 0.92 0.06
-3 4 2 0.9 0.06
-3 4 2 0.91 0.06
2 -4 -2 1.27 0.06
2 -4 -2 1.04 0.06
2 -4 -2 1.11 0.06
2 -4 -2 1.21 0.04
-2 4 2 1.09 0.06
-2 4 2 1.12 0.06
-2 4 2 1.17 0.06
1 -4 -2 9.33 0.19
1 -4 -2 9.55 0.16
1 -4 -2 9.44 0.2
1 -4 -2 9.34 0.18
-1 4 2 9.19 0.19
-1 4 2 9.23 0.19
-1 4 2 8.98 0.19
0 -4 -2 122.97 1.92
0 -4 -2 125.11 1.89
0 -4 -2 121.82 1.95
0 -4 -2 122.45 1.91
0 4 2 122.03 1.95
0 4 2 121.45 1.89
0 4 2 120.72 1.97
-1 -4 -2 38.74 0.65
-1 -4 -2 38.51 0.6
-1 -4 -2 37.55 0.61
-1 -4 -2 38.7 0.61
1 4 2 37.02 0.61
1 4 2 38.59 0.63
1 4 2 38.12 0.61
-2 -4 -2 5.51 0.11
-2 -4 -2 5.84 0.11
-2 -4 -2 5.6 0.15
-2 -4 -2 5.57 0.12
2 4 2 5.66 0.11
2 4 2 5.77 0.14
2 4 2 5.67 0.11
-3 -4 -2 7.13 0.17
-3 -4 -2 7.42 0.16
-3 -4 -2 7.73 0.18
3 4 2 7.62 0.13
3 4 2 7.53 0.13
-4 -4 -2 0.15 0.03
-4 -4 -2 0.19 0.04
4 4 2 0.18 0.03
4 4 2 0.17 0.02
-5 -4 -2 28.98 0.52
-5 -4 -2 28.05 0.51
5 4 2 27.57 0.44
5 4 2 28.06 0.51
5 4 2 27.9 0.44
-6 -4 -2 0.78 0.06
-6 -4 -2 0.63 0.06
6 4 2 0.72 0.03
6 4 2 0.71 0.06
6 4 2 0.79 0.03
-7 -4 -2 0.44 0.06
7 4 2 0.44 0.06
7 4 2 0.41 0.03
-8 -4 -2 0.23 0.06
8 4 2 0.27 0.06
8 4 2 0.24 0.03
-9 -4 -2 1.35 0.11
9 4 2 1.19 0.1
9 4 2 1.19 0.05
9 -5 -2 0.07 0.05
-9 5 2 0.08 0.05
-9 5 2 0.12 0.05
8 -5 -2 0.11 0.05
-8 5 2 0.12 0.04
-8 5 2 0.18 0.06
7 -5 -2 0.39 0.05
-7 5 2 0.43 0.07
-7 5 2 0.35 0.05
6 -5 -2 0.49 0.06
-6 5 2 0.64 0.07
-6 5 2 0.49 0.06
5 -5 -2 1.22 0.08
5 -5 -2 1.32 0.07
5 -5 -2 1.34 0.07
-5 5 2 1.22 0.08
-5 5 2 1.29 0.08
4 -5 -2 15.15 0.31
4 -5 -2 14.39 0.3
4 -5 -2 14.89 0.28
-4 5 2 14.47 0.31
-4 5 2 15.41 0.32
-4 5 2 14.99 0.31
3 -5 -2 4.72 0.14
3 -5 -2 4.77 0.13
3 -5 -2 4.67 0.11
-3 5 2 4.5 0.13
-3 5 2 4.58 0.14
-3 5 2 4.43 0.13
2 -5 -2 2.53 0.09
2 -5 -2 2.5 0.06
2 -5 -2 2.41 0.09
-2 5 2 2.43 0.09
-2 5 2 2.43 0.09
1 -5 -2 5.22 0.1
1 -5 -2 5.13 0.15
1 -5 -2 5.09 0.13
-1 5 2 4.89 0.13
0 -5 -2 28.8 0.5
0 -5 -2 29.77 0.53
0 -5 -2 30.21 0.47
0 5 2 29.66 0.51
0 5 2 29.8 0.51
-1 -5 -2 22.81 0.43
-1 -5 -2 22.65 0.38
-1 -5 -2 22.75 0.36
-1 -5 -2 21.9 0.38
1 5 2 22.1 0.38
1 5 2 21.84 0.4
1 5 2 22.38 0.38
-2 -5 -2 0.44 0.03
-2 -5 -2 0.44 0.05
-2 -5 -2 0.37 0.03
-2 -5 -2 0.35 0.03
2 5 2 0.4 0.03
2 5 2 0.38 0.03
2 5 2 0.39 0.04
-3 -5 -2 4.37 0.14
-3 -5 -2 4.34 0.11
3 5 2 4.39 0.13
3 5 2 4.34 0.09
3 5 2 4.28 0.09
-4 -5 -2 0.31 0.05
4 5 2 0.33 0.02
4 5 2 0.3 0.04
4 5 2 0.31 0.02
4 5 2 0.36 0.05
-5 -5 -2 0.05 0.03
-5 -5 -2 0.03 0.03
5 5 2 0.01 0.02
5 5 2 0.02 0.01
5 5 2 0.04 0.01
-6 -5 -2 2.06 0.1
-6 -5 -2 2.12 0.1
6 5 2 1.96 0.09
6 5 2 1.96 0.05
6 5 2 2.03 0.05
-7 -5 -2 0.04 0.04
7 5 2 0.03 0.01
7 5 2 0.03 0.03
-8 -5 -2 0.08 0.04
8 5 2 0.12 0.02
8 5 2 0.12 0.04
-9 -5 -2 2 0.13
9 5 2 2 0.06
-9 6 2 0.64 0.09
-8 6 2 1.48 0.12
-7 6 2 0.4 0.07
-6 6 2 -0.02 0.03
5 -6 -2 0.64 0.06
-5 6 2 0.53 0.07
4 -6 -2 0.18 0.04
4 -6 -2 0.08 0.03
-4 6 2 0.19 0.04
-4 6 2 0.11 0.04
3 -6 -2 3.58 0.13
3 -6 -2 3.51 0.13
-3 6 2 3.39 0.12
-3 6 2 3.6 0.13
2 -6 -2 6.66 0.18
2 -6 -2 6.61 0.18
-2 6 2 6.77 0.17
-2 6 2 6.35 0.17
1 -6 -2 15.83 0.32
1 -6 -2 16.6 0.34
-1 6 2 16.56 0.32
-1 6 2 15.96 0.32
0 -6 -2 4.98 0.16
0 -6 -2 4.81 0.13
0 6 2 4.97 0.13
0 6 2 4.79 0.13
-1 -6 -2 4.42 0.11
-1 -6 -2 4.18 0.14
1 6 2 4.27 0.13
1 6 2 4.4 0.12
-2 -6 -2 0.91 0.08
-2 -6 -2 0.91 0.04
-2 -6 -2 0.96 0.04
2 6 2 1.02 0.06
2 6 2 0.89 0.05
-3 -6 -2 0.42 0.02
-3 -6 -2 0.44 0.02
-3 -6 -2 0.51 0.07
3 6 2 0.46 0.05
3 6 2 0.39 0.03
-4 -6 -2 4.18 0.15
4 6 2 3.95 0.09
4 6 2 4.11 0.13
-5 -6 -2 1.01 0.08
5 6 2 1.24 0.08
5 6 2 1.11 0.04
-6 -6 -2 1.09 0.09
6 6 2 1.04 0.08
6 6 2 1.01 0.03
-7 -6 -2 0.13 0.05
7 6 2 0.19 0.05
7 6 2 0.18 0.01
-8 -6 -2 0.99 0.1
-8 7 2 1.69 0.13
-7 7 2 0.11 0.05
-6 7 2 2.38 0.13
5 -7 -2 0.7 0.07
-5 7 2 0.79 0.08
4 -7 -2 1.56 0.09
4 -7 -2 1.63 0.1
-4 7 2 1.72 0.1
-4 7 2 1.64 0.1
3 -7 -2 5.39 0.17
3 -7 -2 5.34 0.17
-3 7 2 5.58 0.18
-3 7 2 5.62 0.17
2 -7 -2 0.05 0.03
2 -7 -2 -0.01 0.03
-2 7 2 -0.01 0.03
-2 7 2 0.02 0.03
1 -7 -2 0.87 0.07
1 -7 -2 0.84 0.07
-1 7 2 0.91 0.07
-1 7 2 0.99 0.07
0 -7 -2 0.23 0.04
0 -7 -2 0.12 0.04
0 7 2 0.18 0.04
0 7 2 0.2 0.04
-1 -7 -2 0.07 0.04
-1 -7 -2 0.08 0.03
1 7 2 0.08 0.03
1 7 2 0.06 0.03
-2 -7 -2 1.56 0.1
-2 -7 -2 1.48 0.06
2 7 2 1.54 0.07
2 7 2 1.48 0.08
-3 -7 -2 -0.01 0.03
-3 -7 -2 0.01 0.01
-3 -7 -2 0.01 0.01
3 7 2 0 0.03
3 7 2 0.03 0.02
-4 -7 -2 -0.02 0.03
4 7 2 -0.01 0.02
4 7 2 0.01 0.03
-5 -7 -2 0.02 0.04
5 7 2 0.04 0.02
5 7 2 0.07 0.04
-6 -7 -2 -0.01 0.04
6 7 2 0.1 0.04
6 7 2 0.04 0.01
7 7 2 0.04 0.04
-7 8 2 0.02 0.05
-6 8 2 0.44 0.08
-5 8 2 1.39 0.11
4 -8 -2 1.31 0.1
4 -8 -2 1.39 0.1
-4 8 2 1.39 0.1
3 -8 -2 0.57 0.07
3 -8 -2 0.63 0.07
-3 8 2 0.68 0.08
-3 8 2 0.72 0.08
2 -8 -2 0.21 0.05
2 -8 -2 0.28 0.05
-2 8 2 0.38 0.06
-2 8 2 0.26 0.05
1 -8 -2 -0.01 0.04
1 -8 -2 0.01 0.03
-1 8 2 0.02 0.03
-1 8 2 -0.01 0.03
0 -8 -2 0.18 0.04
0 -8 -2 0.17 0.05
0 8 2 0.21 0.04
0 8 2 0.29 0.05
-1 -8 -2 0.75 0.09
-1 -8 -2 0.65 0.06
1 8 2 0.69 0.07
1 8 2 0.66 0.06
-2 -8 -2 2.01 0.12
-2 -8 -2 1.82 0.07
2 8 2 1.92 0.1
2 8 2 1.9 0.09
-3 -8 -2 1.24 0.1
3 8 2 1.29 0.08
3 8 2 1.19 0.07
-4 -8 -2 0.37 0.07
4 8 2 0.46 0.06
4 8 2 0.4 0.04
-5 -8 -2 0.58 0.08
5 8 2 0.63 0.07
5 8 2 0.58 0.04
-6 -8 -2 0.11 0.06
6 8 2 0.09 0.02
6 8 2 0.07 0.04
-5 9 2 0.05 0.05
4 -9 -2 0.2 0.06
4 -9 -2 0.33 0.07
-4 9 2 0.35 0.06
3 -9 -2 0.11 0.05
3 -9 -2 0.09 0.04
-3 9 2 0.13 0.05
-3 9 2 0.12 0.05
2 -9 -2 -0.03 0.03
2 -9 -2 -0.01 0.04
-2 9 2 0.03 0.04
-2 9 2 0.03 0.04
1 -9 -2 -0.02 0.03
1 -9 -2 0.01 0.04
-1 9 2 0 0.03
-1 9 2 -0.02 0.03
0 -9 -2 0.28 0.06
0 -9 -2 0.26 0.05
0 9 2 0.17 0.05
0 9 2 0.2 0.05
-1 -9 -2 1.53 0.11
-1 -9 -2 1.53 0.08
1 9 2 1.43 0.09
1 9 2 1.42 0.09
-2 -9 -2 1.07 0.11
-2 -9 -2 0.91 0.05
2 9 2 1.06 0.08
2 9 2 1.04 0.08
-3 -9 -2 0.05 0.05
3 9 2 -0.03 0.03
3 9 2 0.01 0.02
-4 -9 -2 -0.01 0.05
4 9 2 0.04 0.03
4 9 2 -0.02 0.02
-5 -9 -2 0.02 0.05
5 9 2 0.05 0.02
5 9 2 0.08 0.04
3 -10 -2 0 0.05
3 -10 -2 0.02 0.04
-3 10 2 -0.03 0.04
-3 10 2 0.07 0.05
2 -10 -2 -0.01 0.04
2 -10 -2 0.01 0.04
-2 10 2 -0.01 0.04
-2 10 2 -0.02 0.04
1 -10 -2 0.71 0.08
1 -10 -2 0.87 0.11
-1 10 2 0.77 0.09
-1 10 2 0.85 0.09
0 -10 -2 0.68 0.09
0 -10 -2 0.65 0.07
0 10 2 0.7 0.08
0 10 2 0.97 0.09
-1 -10 -2 0.01 0.03
-1 -10 -2 0.05 0.05
1 10 2 -0.01 0.03
1 10 2 0.01 0.03
-2 -10 -2 0.01 0.02
-2 -10 -2 0.04 0.05
2 10 2 -0.02 0.03
2 10 2 0 0.03
3 10 -3 0.06 0.03
-3 -10 3 0 0.05
2 10 -3 0.5 0.06
-2 -10 3 0.65 0.05
-2 -10 3 0.72 0.1
1 10 -3 0.64 0.07
-1 -10 3 0.59 0.09
-1 -10 3 0.85 0.07
0 10 -3 1.53 0.11
0 -10 3 1.72 0.09
0 -10 3 1.35 0.12
-1 10 -3 0.01 0.04
-1 10 -3 0.01 0.03
1 -10 3 0.03 0.05
1 -10 3 0.02 0.03
-2 10 -3 0.37 0.07
-2 10 -3 0.28 0.06
2 -10 3 0.35 0.06
2 -10 3 0.33 0.07
-3 10 -3 0.59 0.08
-3 10 -3 0.53 0.08
3 -10 3 0.54 0.08
3 -10 3 0.47 0.07
-4 10 -3 -0.02 0.04
4 -10 3 0.04 0.04
5 9 -3 0.21 0.03
-5 -9 3 0.18 0.06
4 9 -3 0.07 0.03
-4 -9 3 0.19 0.06
3 9 -3 1.17 0.07
-3 -9 3 1.17 0.11
2 9 -3 4.27 0.14
-2 -9 3 4.05 0.18
-2 -9 3 4.13 0.11
1 9 -3 0.37 0.05
-1 -9 3 0.38 0.05
-1 -9 3 0.39 0.07
0 9 -3 0.28 0.05
0 9 -3 0.34 0.06
0 -9 3 0.33 0.05
0 -9 3 0.32 0.06
-1 9 -3 0.58 0.07
-1 9 -3 0.52 0.06
1 -9 3 0.45 0.06
1 -9 3 0.47 0.07
-2 9 -3 0.59 0.07
-2 9 -3 0.63 0.08
2 -9 3 0.63 0.07
2 -9 3 0.43 0.07
-3 9 -3 0.16 0.05
-3 9 -3 0.11 0.04
3 -9 3 0.01 0.04
3 -9 3 0.09 0.05
-4 9 -3 0.46 0.07
4 -9 3 0.48 0.07
-5 9 -3 0.33 0.07
-6 9 -3 0.08 0.05
6 8 -3 1.18 0.05
6 8 -3 1.28 0.11
5 8 -3 0.04 0.02
-5 -8 3 0.07 0.04
4 8 -3 0.22 0.03
-4 -8 3 0.15 0.06
3 8 -3 -0.02 0.02
-3 -8 3 0 0.01
-3 -8 3 0.01 0.04
2 8 -3 -0.02 0.02
2 8 -3 -0.01 0.02
-2 -8 3 0 0.02
-2 -8 3 0.02 0.04
1 8 -3 1.7 0.09
1 8 -3 1.78 0.08
-1 -8 3 1.95 0.08
-1 -8 3 1.76 0.11
0 8 -3 0.03 0.03
0 8 -3 0.01 0.03
0 -8 3 -0.01 0.04
0 -8 3 -0.01 0.03
-1 8 -3 -0.04 0.03
-1 8 -3 -0.01 0.03
1 -8 3 0 0.03
1 -8 3 0.01 0.04
-2 8 -3 0.59 0.06
-2 8 -3 0.57 0.07
2 -8 3 0.54 0.06
2 -8 3 0.56 0.07
-3 8 -3 0.25 0.05
-3 8 -3 0.33 0.05
3 -8 3 0.42 0.06
3 -8 3 0.39 0.06
-4 8 -3 0.14 0.05
4 -8 3 0.15 0.04
4 -8 3 0.07 0.04
-5 8 -3 0.01 0.04
-6 8 -3 0.01 0.04
-7 8 -3 1.46 0.12
7 7 -3 0.44 0.07
6 7 -3 1.34 0.05
6 7 -3 1.46 0.1
5 7 -3 0.88 0.04
-5 -7 3 0.83 0.08
4 7 -3 0.35 0.03
-4 -7 3 0.33 0.06
3 7 -3 7.76 0.18
3 7 -3 7.53 0.17
-3 -7 3 7.63 0.13
-3 -7 3 7.88 0.13
-3 -7 3 7.91 0.23
2 7 -3 5.57 0.15
2 7 -3 5.93 0.15
-2 -7 3 5.78 0.19
-2 -7 3 5.77 0.13
-2 -7 3 5.39 0.16
1 7 -3 0.35 0.04
1 7 -3 0.26 0.04
-1 -7 3 0.26 0.04
-1 -7 3 0.28 0.05
-1 -7 3 0.26 0.04
0 7 -3 1.56 0.08
0 7 -3 1.52 0.07
0 -7 3 1.55 0.07
0 -7 3 1.53 0.08
0 -7 3 1.43 0.09
-1 7 -3 0.61 0.06
-1 7 -3 0.59 0.05
1 -7 3 0.64 0.06
1 -7 3 0.57 0.05
1 -7 3 0.66 0.07
-2 7 -3 0.18 0.04
-2 7 -3 0.24 0.04
2 -7 3 0.24 0.05
2 -7 3 0.21 0.03
2 -7 3 0.11 0.04
-3 7 -3 1.73 0.09
-3 7 -3 1.68 0.1
3 -7 3 1.69 0.08
3 -7 3 1.69 0.09
3 -7 3 1.64 0.09
-4 7 -3 0.41 0.06
4 -7 3 0.45 0.05
4 -7 3 0.39 0.05
4 -7 3 0.44 0.06
-5 7 -3 2.64 0.13
5 -7 3 2.82 0.11
-6 7 -3 0.31 0.06
6 -7 3 0.31 0.05
-7 7 -3 0 0.04
7 -7 3 0.1 0.05
-8 7 -3 0.19 0.06
8 -7 3 0.19 0.06
-8 -6 3 0.01 0.04
7 6 -3 3.46 0.07
7 6 -3 3.52 0.14
-7 -6 3 3.82 0.16
6 6 -3 0.38 0.02
6 6 -3 0.38 0.06
-6 -6 3 0.47 0.07
5 6 -3 0.04 0.02
5 6 -3 0 0.01
-5 -6 3 0.01 0.03
-5 -6 3 0.01 0.03
4 6 -3 0.03 0.02
4 6 -3 0 0.01
-4 -6 3 0.08 0.03
-4 -6 3 0.01 0.03
3 6 -3 0 0.02
3 6 -3 -0.01 0.02
-3 -6 3 0.01 0.02
-3 -6 3 0.01 0.01
-3 -6 3 -0.01 0.01
-3 -6 3 -0.02 0.03
2 6 -3 1.24 0.06
2 6 -3 1.1 0.05
-2 -6 3 1.28 0.08
-2 -6 3 1.12 0.04
-2 -6 3 1.08 0.05
-2 -6 3 1.11 0.06
1 6 -3 6 0.15
1 6 -3 6.11 0.14
-1 -6 3 5.87 0.14
-1 -6 3 6.25 0.18
-1 -6 3 5.89 0.15
0 6 -3 25.42 0.45
0 6 -3 25.88 0.46
0 -6 3 25.83 0.48
0 -6 3 25.64 0.45
0 -6 3 25.31 0.45
-1 6 -3 19.41 0.36
-1 6 -3 19.31 0.38
1 -6 3 19.37 0.36
1 -6 3 20.15 0.39
1 -6 3 20.25 0.37
-2 6 -3 49.98 0.85
-2 6 -3 49.07 0.83
2 -6 3 48.79 0.82
2 -6 3 49.61 0.84
2 -6 3 51.2 0.84
-3 6 -3 23.18 0.44
-3 6 -3 22.18 0.43
3 -6 3 22.92 0.43
3 -6 3 22.44 0.42
3 -6 3 23.35 0.44
-4 6 -3 0.65 0.07
-4 6 -3 0.54 0.06
4 -6 3 0.67 0.06
4 -6 3 0.66 0.07
4 -6 3 0.72 0.06
-5 6 -3 0.13 0.04
5 -6 3 0.11 0.04
-6 6 -3 0.89 0.08
6 -6 3 1.03 0.08
-7 6 -3 1.06 0.1
7 -6 3 1.25 0.09
-8 6 -3 0.84 0.09
-8 6 -3 0.9 0.1
8 -6 3 0.81 0.09
-9 6 -3 -0.05 0.04
-9 6 -3 -0.01 0.04
9 -6 3 -0.04 0.04
9 5 -3 0.08 0.05
9 5 -3 0.09 0.02
8 5 -3 0 0.01
-8 -5 3 -0.01 0.04
7 5 -3 3.53 0.13
7 5 -3 3.4 0.07
-7 -5 3 3.56 0.15
6 5 -3 0.78 0.03
6 5 -3 0.76 0.03
6 5 -3 0.82 0.07
-6 -5 3 0.85 0.08
5 5 -3 0.51 0.06
5 5 -3 0.59 0.02
5 5 -3 0.58 0.03
-5 -5 3 0.62 0.07
-5 -5 3 0.6 0.05
-5 -5 3 0.49 0.06
4 5 -3 21.93 0.36
4 5 -3 21.81 0.36
4 5 -3 22 0.39
-4 -5 3 22.44 0.43
-4 -5 3 22.44 0.43
3 5 -3 11.84 0.22
3 5 -3 11.35 0.2
3 5 -3 11.39 0.21
-3 -5 3 11.33 0.26
-3 -5 3 11.32 0.18
-3 -5 3 11.32 0.18
-3 -5 3 11.32 0.24
2 5 -3 5.01 0.11
2 5 -3 5.16 0.12
2 5 -3 5.11 0.12
-2 -5 3 5.19 0.13
-2 -5 3 5.12 0.1
-2 -5 3 5.09 0.15
-2 -5 3 5.1 0.11
1 5 -3 12.8 0.24
1 5 -3 12.98 0.24
1 5 -3 12.41 0.24
-1 -5 3 12.18 0.23
-1 -5 3 13.2 0.23
-1 -5 3 12.6 0.27
-1 -5 3 12.8 0.25
0 5 -3 4.05 0.1
0 5 -3 3.98 0.11
0 -5 3 4.16 0.1
0 -5 3 4.22 0.11
0 -5 3 4.17 0.12
0 -5 3 4.06 0.11
-1 5 -3 2.13 0.07
-1 5 -3 1.89 0.08
-1 5 -3 2.03 0.07
1 -5 3 2.06 0.08
1 -5 3 1.86 0.07
1 -5 3 1.94 0.08
-2 5 -3 29.04 0.51
-2 5 -3 29.89 0.52
-2 5 -3 29.04 0.51
2 -5 3 29.92 0.52
2 -5 3 29.52 0.52
2 -5 3 29.47 0.5
2 -5 3 29.36 0.51
-3 5 -3 4.41 0.13
-3 5 -3 4.38 0.13
-3 5 -3 4.37 0.13
3 -5 3 4.67 0.14
3 -5 3 4.3 0.12
3 -5 3 4.57 0.12
-4 5 -3 26.77 0.5
-4 5 -3 26.47 0.49
-4 5 -3 26.07 0.48
4 -5 3 26.85 0.49
4 -5 3 26.83 0.5
4 -5 3 26.38 0.48
4 -5 3 25.77 0.46
-5 5 -3 5.27 0.17
-5 5 -3 4.92 0.15
5 -5 3 5.43 0.16
5 -5 3 5.56 0.16
-6 5 -3 2.5 0.11
-6 5 -3 2.62 0.12
6 -5 3 2.53 0.11
6 -5 3 2.59 0.11
-7 5 -3 2.01 0.12
-7 5 -3 1.88 0.11
7 -5 3 1.96 0.11
-8 5 -3 0.12 0.05
-8 5 -3 0.11 0.04
8 -5 3 0.09 0.04
-9 5 -3 0.01 0.05
-9 5 -3 -0.03 0.03
9 -5 3 0.07 0.04
9 4 -3 0.27 0.03
9 4 -3 0.23 0.06
8 4 -3 9.5 0.19
-8 -4 3 9.77 0.28
7 4 -3 0.18 0.02
7 4 -3 0.2 0.04
-7 -4 3 0.15 0.04
-7 -4 3 0.15 0.05
6 4 -3 1.65 0.05
6 4 -3 1.57 0.04
6 4 -3 1.65 0.08
-6 -4 3 1.71 0.08
-6 -4 3 1.65 0.1
5 4 -3 1.53 0.04
5 4 -3 1.45 0.08
5 4 -3 1.51 0.04
-5 -4 3 1.43 0.07
-5 -4 3 1.51 0.09
4 4 -3 4.14 0.08
-4 -4 3 4.22 0.13
-4 -4 3 4.02 0.11
-4 -4 3 4.03 0.13
3 4 -3 39 0.63
3 4 -3 38.45 0.61
3 4 -3 38.54 0.6
-3 -4 3 38.78 0.66
-3 -4 3 38.66 0.66
2 4 -3 89.91 1.4
2 4 -3 90.71 1.4
2 4 -3 89.51 1.4
-2 -4 3 89.47 1.39
-2 -4 3 88.38 1.41
-2 -4 3 89.98 1.4
-2 -4 3 87.57 1.42
1 4 -3 24.66 0.4
1 4 -3 23.42 0.4
1 4 -3 23.86 0.4
-1 -4 3 23.63 0.4
-1 -4 3 24.19 0.41
-1 -4 3 24.4 0.4
-1 -4 3 24.06 0.43
0 4 -3 16.31 0.29
0 4 -3 16.27 0.28
0 -4 3 15.97 0.31
0 -4 3 16.33 0.29
0 -4 3 16.62 0.29
0 -4 3 16.35 0.29
-1 4 -3 0.01 0.02
-1 4 -3 0 0.02
-1 4 -3 0 0.01
1 -4 3 -0.01 0.01
1 -4 3 0.02 0.02
1 -4 3 -0.01 0.02
1 -4 3 0.01 0.02
-2 4 -3 32.82 0.56
-2 4 -3 32.38 0.55
-2 4 -3 32.66 0.55
2 -4 3 32.89 0.55
2 -4 3 32.29 0.54
2 -4 3 32.19 0.56
2 -4 3 33.21 0.55
-3 4 -3 3.19 0.1
-3 4 -3 3.28 0.1
-3 4 -3 3.16 0.1
3 -4 3 3.3 0.11
3 -4 3 3.2 0.1
3 -4 3 3.29 0.1
3 -4 3 3.26 0.09
-4 4 -3 39.57 0.68
-4 4 -3 39.25 0.68
-4 4 -3 38.85 0.67
4 -4 3 39.43 0.68
4 -4 3 39.68 0.68
4 -4 3 40.3 0.64
4 -4 3 40.34 0.68
-5 4 -3 3.37 0.12
-5 4 -3 3.36 0.12
5 -4 3 3.54 0.12
5 -4 3 3.43 0.12
-6 4 -3 0.76 0.07
-6 4 -3 0.83 0.07
6 -4 3 0.75 0.07
6 -4 3 0.57 0.06
-7 4 -3 3.67 0.15
-7 4 -3 3.38 0.13
7 -4 3 3.26 0.13
7 -4 3 3.28 0.14
-8 4 -3 0.41 0.06
-8 4 -3 0.66 0.08
8 -4 3 0.48 0.07
8 -4 3 0.44 0.06
-9 4 -3 0.52 0.08
-9 4 -3 0.6 0.07
9 -4 3 0.56 0.07
9 -4 3 0.47 0.08
-10 4 -3 0.1 0.04
-10 4 -3 -0.01 0.05
10 -4 3 0.08 0.05
10 -4 3 0.05 0.04
10 3 -3 0.15 0.03
10 3 -3 0.16 0.06
9 3 -3 0 0.02
9 3 -3 0.09 0.05
8 3 -3 10.83 0.22
-8 -3 3 11.05 0.3
-8 -3 3 11.57 0.27
7 3 -3 5.07 0.12
-7 -3 3 5.43 0.16
-7 -3 3 5.23 0.18
6 3 -3 14.13 0.24
6 3 -3 13.96 0.28
6 3 -3 13.98 0.24
-6 -3 3 13.93 0.29
-6 -3 3 14.11 0.32
5 3 -3 1.17 0.06
5 3 -3 1.23 0.04
5 3 -3 1.31 0.04
-5 -3 3 1.42 0.08
-5 -3 3 1.26 0.06
4 3 -3 13.41 0.22
4 3 -3 13.55 0.27
4 3 -3 13.66 0.22
-4 -3 3 12.89 0.27
-4 -3 3 13.36 0.25
3 3 -3 8.55 0.14
3 3 -3 8.34 0.14
-3 -3 3 8.1 0.13
-3 -3 3 8.4 0.18
-3 -3 3 8.56 0.13
-3 -3 3 8.16 0.16
-3 -3 3 7.95 0.18
2 3 -3 21.91 0.36
2 3 -3 22.35 0.35
2 3 -3 22.09 0.35
-2 -3 3 22.1 0.35
-2 -3 3 21.33 0.38
-2 -3 3 21.87 0.35
-2 -3 3 21.61 0.39
1 3 -3 30.91 0.49
1 3 -3 30.65 0.49
1 3 -3 31.16 0.48
-1 -3 3 30.1 0.51
-1 -3 3 30.51 0.49
-1 -3 3 30.19 0.49
-1 -3 3 30.15 0.5
0 3 -3 44.23 0.68
0 3 -3 43.89 0.69
0 -3 3 43.98 0.69
0 -3 3 42.5 0.69
0 -3 3 42.93 0.7
0 -3 3 42.63 0.69
-1 3 -3 0.13 0.02
-1 3 -3 0.17 0.02
-1 3 -3 0.13 0.02
1 -3 3 0.17 0.02
1 -3 3 0.19 0.02
1 -3 3 0.17 0.02
1 -3 3 0.19 0.02
-2 3 -3 3.63 0.09
-2 3 -3 3.79 0.1
-2 3 -3 4 0.1
2 -3 3 3.7 0.1
2 -3 3 3.7 0.1
2 -3 3 3.79 0.09
2 -3 3 3.72 0.1
-3 3 -3 17.05 0.31
-3 3 -3 16.78 0.32
-3 3 -3 17.05 0.32
3 -3 3 16.88 0.31
3 -3 3 16.92 0.32
3 -3 3 17.09 0.31
3 -3 3 17.11 0.29
-4 3 -3 15.6 0.31
-4 3 -3 15.52 0.3
-4 3 -3 16.08 0.3
4 -3 3 15.29 0.3
4 -3 3 16.12 0.26
4 -3 3 15.86 0.31
4 -3 3 15.27 0.3
-5 3 -3 6.91 0.18
-5 3 -3 6.38 0.16
5 -3 3 6.5 0.17
5 -3 3 6.72 0.17
-6 3 -3 0.51 0.06
-6 3 -3 0.5 0.05
6 -3 3 0.57 0.06
6 -3 3 0.5 0.06
-7 3 -3 0.08 0.04
-7 3 -3 0.01 0.03
7 -3 3 0.07 0.04
7 -3 3 0.08 0.03
-8 3 -3 0.13 0.04
-8 3 -3 0.13 0.05
8 -3 3 0.1 0.05
8 -3 3 0.13 0.04
-9 3 -3 0.32 0.05
-9 3 -3 0.36 0.07
9 -3 3 0.31 0.06
9 -3 3 0.23 0.06
-10 3 -3 0 0.04
-10 3 -3 0.04 0.03
10 -3 3 -0.04 0.04
10 -3 3 0 0.04
10 2 -3 0.4 0.05
10 2 -3 0.44 0.08
9 2 -3 4.08 0.13
9 2 -3 4.65 0.19
-9 -2 3 4.56 0.17
8 2 -3 0.3 0.04
8 2 -3 0.35 0.06
-8 -2 3 0.26 0.02
-8 -2 3 0.39 0.06
-8 -2 3 0.23 0.02
7 2 -3 1.35 0.06
-7 -2 3 1.33 0.09
-7 -2 3 1.3 0.04
-7 -2 3 1.36 0.04
-7 -2 3 1.26 0.08
6 2 -3 66.22 1.06
6 2 -3 65.01 1.04
-6 -2 3 66.8 1.12
-6 -2 3 67.6 1.02
-6 -2 3 65.63 1.08
-6 -2 3 65.98 1.02
5 2 -3 13.23 0.23
5 2 -3 13.08 0.23
5 2 -3 13.29 0.26
-5 -2 3 13.47 0.26
-5 -2 3 13.2 0.22
-5 -2 3 13.33 0.22
-5 -2 3 13.35 0.29
4 2 -3 187.22 2.93
4 2 -3 186.79 2.99
4 2 -3 188.09 2.93
-4 -2 3 188.1 2.9
-4 -2 3 188.24 3.02
-4 -2 3 187.65 3
-4 -2 3 184.16 2.89
3 2 -3 22.69 0.36
3 2 -3 22.17 0.39
3 2 -3 22.92 0.36
-3 -2 3 22.49 0.4
-3 -2 3 22.36 0.35
-3 -2 3 22.52 0.37
-3 -2 3 22.63 0.35
2 2 -3 32.93 0.51
2 2 -3 32.64 0.51
-2 -2 3 32.32 0.51
-2 -2 3 32.18 0.51
-2 -2 3 32.46 0.51
1 2 -3 15.57 0.24
1 2 -3 15.74 0.25
1 2 -3 15.5 0.26
-1 -2 3 15.52 0.25
-1 -2 3 15.08 0.27
-1 -2 3 15.61 0.27
-1 -2 3 15.35 0.25
0 2 -3 29.86 0.49
0 2 -3 31.88 0.48
0 2 -3 31.37 0.49
0 -2 3 30.7 0.49
0 -2 3 30.76 0.5
0 -2 3 30.87 0.5
-1 2 -3 1.09 0.04
1 -2 3 1.18 0.04
1 -2 3 1.15 0.04
1 -2 3 1.09 0.04
1 -2 3 1.1 0.04
-2 2 -3 0.44 0.03
-2 2 -3 0.5 0.03
2 -2 3 0.47 0.03
2 -2 3 0.48 0.03
2 -2 3 0.52 0.03
2 -2 3 0.48 0.03
-3 2 -3 45.05 0.73
-3 2 -3 45.67 0.7
-3 2 -3 45.82 0.74
-3 2 -3 45.96 0.74
3 -2 3 45.13 0.73
3 -2 3 43.16 0.74
3 -2 3 46.48 0.74
-4 2 -3 15.87 0.3
-4 2 -3 15.67 0.29
-4 2 -3 15.54 0.29
4 -2 3 15.39 0.29
4 -2 3 15.5 0.29
4 -2 3 15.29 0.3
-5 2 -3 0.71 0.05
-5 2 -3 0.72 0.06
5 -2 3 0.68 0.05
5 -2 3 0.74 0.05
-6 2 -3 6.12 0.16
-6 2 -3 6.21 0.18
6 -2 3 5.94 0.17
6 -2 3 6.19 0.16
-7 2 -3 0.07 0.03
-7 2 -3 0.02 0.03
7 -2 3 0.08 0.03
7 -2 3 0.05 0.03
-8 2 -3 2.62 0.13
-8 2 -3 2.41 0.1
8 -2 3 2.55 0.13
8 -2 3 2.62 0.11
-9 2 -3 0.27 0.04
-9 2 -3 0.28 0.06
9 -2 3 0.24 0.06
9 -2 3 0.22 0.05
-10 2 -3 0.01 0.05
-10 2 -3 -0.02 0.03
10 -2 3 -0.05 0.04
10 -2 3 -0.04 0.03
10 1 -3 0.08 0.05
10 1 -3 0.01 0.03
-10 -1 3 0.03 0.02
-10 -1 3 0.01 0.04
9 1 -3 1.18 0.1
9 1 -3 1.02 0.07
-9 -1 3 1 0.05
-9 -1 3 1.16 0.09
8 1 -3 0.75 0.08
8 1 -3 0.67 0.05
-8 -1 3 0.73 0.07
-8 -1 3 0.65 0.04
7 1 -3 1.52 0.07
-7 -1 3 1.42 0.08
-7 -1 3 1.37 0.06
-7 -1 3 1.34 0.09
6 1 -3 0 0.02
6 1 -3 0 0.02
-6 -1 3 0 0.02
-6 -1 3 0.01 0.03
-6 -1 3 0.01 0.02
-6 -1 3 -0.03 0.01
5 1 -3 14.17 0.25
5 1 -3 13.52 0.25
5 1 -3 13.87 0.26
-5 -1 3 13.72 0.29
-5 -1 3 13.85 0.27
-5 -1 3 13.72 0.24
-5 -1 3 14.09 0.24
4 1 -3 25.51 0.42
4 1 -3 25.48 0.42
4 1 -3 25.88 0.43
-4 -1 3 25.95 0.41
-4 -1 3 25.04 0.41
-4 -1 3 25.92 0.43
-4 -1 3 24.93 0.46
3 1 -3 5 0.1
3 1 -3 5.02 0.11
3 1 -3 5.03 0.1
-3 -1 3 5.02 0.12
-3 -1 3 5.12 0.11
-3 -1 3 5.1 0.1
-3 -1 3 4.85 0.1
2 1 -3 46.27 0.72
2 1 -3 45.85 0.73
2 1 -3 45.22 0.74
-2 -1 3 45.71 0.71
-2 -1 3 46.64 0.73
-2 -1 3 44.58 0.73
-2 -1 3 44.9 0.73
1 1 -3 13.2 0.23
1 1 -3 13.26 0.22
1 1 -3 13.46 0.22
-1 -1 3 13.64 0.22
-1 -1 3 13.46 0.21
-1 -1 3 13.03 0.23
-1 -1 3 13.24 0.22
0 1 -3 22.9 0.37
0 1 -3 22.61 0.37
0 1 -3 23.88 0.37
0 1 -3 24.18 0.37
0 -1 3 23.32 0.37
0 -1 3 22.83 0.37
0 -1 3 22.89 0.37
-1 1 -3 20.68 0.34
-1 1 -3 20.73 0.34
-1 1 -3 20.89 0.33
-1 1 -3 21.06 0.34
1 -1 3 20.82 0.34
1 -1 3 20.76 0.34
1 -1 3 20.97 0.34
-2 1 -3 0.8 0.02
-2 1 -3 0.75 0.04
-2 1 -3 0.77 0.04
2 -1 3 0.76 0.03
2 -1 3 0.72 0.04
2 -1 3 0.75 0.04
-3 1 -3 20.95 0.36
-3 1 -3 21.54 0.37
3 -1 3 20.96 0.36
3 -1 3 21.21 0.36
3 -1 3 21.59 0.37
-4 1 -3 96.46 1.52
-4 1 -3 97.78 1.5
-4 1 -3 95.73 1.49
4 -1 3 93.77 1.51
4 -1 3 95.58 1.5
-5 1 -3 2.2 0.08
-5 1 -3 2.09 0.09
5 -1 3 2.16 0.09
5 -1 3 2.21 0.08
-6 1 -3 9.83 0.24
-6 1 -3 9.69 0.21
6 -1 3 9.96 0.21
6 -1 3 10.08 0.24
-7 1 -3 0.47 0.05
-7 1 -3 0.5 0.06
7 -1 3 0.38 0.05
7 -1 3 0.46 0.05
-8 1 -3 0.04 0.03
-8 1 -3 0.09 0.04
8 -1 3 0.06 0.04
8 -1 3 0.06 0.03
-9 1 -3 -0.02 0.02
-9 1 -3 0 0.04
9 -1 3 0.02 0.04
9 -1 3 -0.01 0.02
-10 1 -3 0.02 0.05
-10 1 -3 0.09 0.03
10 -1 3 0.04 0.05
10 -1 3 0.04 0.04
10 0 -3 1.83 0.1
10 0 -3 1.49 0.12
-10 0 3 1.64 0.08
-10 0 3 1.71 0.12
9 0 -3 1.28 0.08
9 0 -3 1.13 0.1
-9 0 3 1.22 0.09
-9 0 3 1.29 0.07
8 0 -3 0.05 0.04
8 0 -3 0.04 0.03
-8 0 3 0.04 0.02
-8 0 3 0.07 0.04
7 0 -3 6.49 0.16
7 0 -3 7.12 0.2
-7 0 3 6.9 0.19
-7 0 3 6.67 0.16
6 0 -3 10.45 0.2
6 0 -3 10.46 0.22
-6 0 3 10.74 0.23
-6 0 3 10.62 0.21
-6 0 3 10.54 0.25
5 0 -3 0.94 0.04
5 0 -3 0.87 0.04
5 0 -3 0.83 0.05
-5 0 3 0.93 0.04
-5 0 3 0.94 0.04
-5 0 3 0.99 0.06
-5 0 3 1.03 0.06
4 0 -3 26.86 0.44
4 0 -3 26.03 0.44
4 0 -3 26.05 0.44
-4 0 3 27.25 0.44
-4 0 3 26.06 0.45
-4 0 3 25.93 0.43
-4 0 3 25.79 0.46
3 0 -3 72.89 1.15
3 0 -3 75.74 1.2
3 0 -3 73.37 1.15
-3 0 3 73.08 1.16
-3 0 3 73.91 1.17
-3 0 3 74.58 1.15
-3 0 3 76.33 1.2
2 0 -3 16.92 0.28
2 0 -3 16.74 0.28
-2 0 3 16.72 0.29
-2 0 3 16.91 0.28
-2 0 3 16.99 0.28
1 0 -3 156.16 2.53
1 0 -3 164.54 2.54
1 0 -3 163.66 2.57
-1 0 3 161.33 2.53
-1 0 3 158.42 2.55
-1 0 3 158.89 2.49
-1 0 3 160.54 2.52
0 0 -3 24.02 0.39
0 0 -3 23.84 0.39
0 0 -3 24.6 0.38
0 0 -3 23.84 0.38
0 0 3 24.44 0.4
0 0 3 24.3 0.38
0 0 3 23.57 0.38
0 0 3 24.85 0.39
-1 0 -3 2.88 0.06
-1 0 -3 2.95 0.07
-1 0 -3 2.87 0.06
-1 0 -3 3 0.06
-1 0 -3 2.93 0.06
1 0 3 2.83 0.06
1 0 3 2.87 0.06
1 0 3 2.87 0.06
-2 0 -3 118.37 1.83
-2 0 -3 115.87 1.86
-2 0 -3 115.96 1.87
-2 0 -3 117.82 1.91
2 0 3 115.37 1.85
2 0 3 115.53 1.83
2 0 3 117.5 1.85
-3 0 -3 6.35 0.13
-3 0 -3 6.45 0.11
-3 0 -3 6.27 0.14
-3 0 -3 6.4 0.12
3 0 3 6.29 0.13
3 0 3 6.4 0.13
3 0 3 6.29 0.14
-4 0 -3 0.33 0.03
-4 0 -3 0.28 0.04
-4 0 -3 0.33 0.03
-4 0 -3 0.35 0.01
4 0 3 0.32 0.03
4 0 3 0.38 0.03
4 0 3 0.36 0.04
-5 0 -3 10.42 0.2
-5 0 -3 10.45 0.23
-5 0 -3 10.5 0.2
5 0 3 10.39 0.21
5 0 3 10.02 0.2
5 0 3 10.38 0.23
-6 0 -3 9.46 0.19
-6 0 -3 9.31 0.23
6 0 3 9.49 0.2
6 0 3 9.55 0.23
-7 0 -3 20.27 0.36
-7 0 -3 20.1 0.42
7 0 3 19.96 0.41
7 0 3 20.33 0.38
-8 0 -3 1.31 0.1
-8 0 -3 1.26 0.06
8 0 3 1.42 0.08
8 0 3 1.11 0.09
-9 0 -3 0.65 0.09
-9 0 -3 0.63 0.05
9 0 3 0.45 0.07
9 0 3 0.69 0.06
-10 0 -3 0.02 0.05
-10 0 -3 0.01 0.02
10 0 3 0.03 0.05
10 0 3 0.06 0.03
10 -1 -3 -0.03 0.03
10 -1 -3 0.03 0.05
-10 1 3 -0.01 0.03
-10 1 3 -0.02 0.04
9 -1 -3 0.05 0.04
9 -1 -3 0.01 0.03
-9 1 3 0 0.04
-9 1 3 0 0.03
8 -1 -3 0.81 0.08
8 -1 -3 0.86 0.07
-8 1 3 1.01 0.07
-8 1 3 0.96 0.08
7 -1 -3 0.03 0.03
7 -1 -3 0.07 0.04
-7 1 3 0.08 0.03
-7 1 3 0.06 0.03
6 -1 -3 3.78 0.1
6 -1 -3 3.88 0.12
6 -1 -3 3.83 0.13
-6 1 3 3.99 0.11
-6 1 3 3.94 0.13
5 -1 -3 0.6 0.04
5 -1 -3 0.64 0.04
-5 1 3 0.63 0.04
-5 1 3 0.57 0.05
-5 1 3 0.56 0.05
4 -1 -3 34.3 0.57
4 -1 -3 34.48 0.56
4 -1 -3 34.5 0.57
-4 1 3 34.42 0.57
-4 1 3 34.45 0.59
-4 1 3 34.65 0.58
3 -1 -3 0.04 0.02
3 -1 -3 0.03 0.01
3 -1 -3 0.02 0.01
-3 1 3 0.06 0.02
-3 1 3 0.03 0.01
-3 1 3 0.03 0.01
-3 1 3 0.03 0.01
2 -1 -3 30.41 0.51
2 -1 -3 32.24 0.51
2 -1 -3 32.01 0.51
-2 1 3 31.3 0.51
-2 1 3 31.21 0.51
-2 1 3 31.47 0.51
-2 1 3 32.23 0.51
1 -1 -3 7.37 0.14
1 -1 -3 7.36 0.14
1 -1 -3 7.39 0.14
-1 1 3 7.13 0.13
-1 1 3 7.14 0.13
-1 1 3 7.16 0.13
-1 1 3 7.57 0.13
0 -1 -3 10.2 0.18
0 -1 -3 10.24 0.18
0 -1 -3 10.27 0.18
0 1 3 10.36 0.18
0 1 3 10.52 0.18
0 1 3 10.61 0.18
0 1 3 10.73 0.17
-1 -1 -3 8.47 0.16
-1 -1 -3 8.55 0.15
-1 -1 -3 8.47 0.16
-1 -1 -3 8.48 0.15
1 1 3 8.4 0.15
1 1 3 8.56 0.15
1 1 3 8.58 0.15
-2 -1 -3 58.21 0.92
-2 -1 -3 57.66 0.91
-2 -1 -3 57.42 0.92
-2 -1 -3 57.55 0.92
2 1 3 56.48 0.91
2 1 3 59.46 0.94
2 1 3 56.73 0.9
-3 -1 -3 51.26 0.8
-3 -1 -3 51.55 0.8
-3 -1 -3 51.2 0.79
-3 -1 -3 48.88 0.83
3 1 3 52.05 0.81
3 1 3 51.87 0.82
3 1 3 51.33 0.8
-4 -1 -3 5.52 0.11
-4 -1 -3 5.74 0.11
-4 -1 -3 5.7 0.15
-4 -1 -3 5.6 0.11
4 1 3 5.69 0.12
4 1 3 5.6 0.12
4 1 3 5.7 0.14
-5 -1 -3 14.6 0.3
-5 -1 -3 14.86 0.26
-5 -1 -3 14.9 0.25
-5 -1 -3 14.75 0.26
5 1 3 15.02 0.3
5 1 3 14.62 0.26
5 1 3 14.7 0.27
-6 -1 -3 3.13 0.12
-6 -1 -3 2.98 0.08
-6 -1 -3 3.04 0.08
6 1 3 3.11 0.09
6 1 3 3.01 0.11
-7 -1 -3 1.01 0.05
-7 -1 -3 0.96 0.08
7 1 3 0.94 0.08
7 1 3 0.94 0.05
-8 -1 -3 1.3 0.05
-8 -1 -3 1.31 0.1
8 1 3 1.37 0.1
8 1 3 1.25 0.07
-9 -1 -3 0.05 0.05
-9 -1 -3 0.07 0.02
9 1 3 0.05 0.03
9 1 3 0.12 0.05
-10 -1 -3 0.2 0.06
-10 -1 -3 0.19 0.02
10 1 3 0.1 0.05
10 1 3 0.22 0.04
10 -2 -3 2.45 0.13
10 -2 -3 2.87 0.15
-10 2 3 2.64 0.14
-10 2 3 2.54 0.12
9 -2 -3 0.45 0.07
9 -2 -3 0.63 0.07
-9 2 3 0.61 0.08
-9 2 3 0.64 0.07
8 -2 -3 1.35 0.1
8 -2 -3 1.21 0.08
-8 2 3 1.28 0.09
-8 2 3 1.39 0.08
7 -2 -3 5.93 0.17
7 -2 -3 5.57 0.18
-7 2 3 5.67 0.18
-7 2 3 5.63 0.16
6 -2 -3 0.04 0.03
6 -2 -3 0 0.02
6 -2 -3 0.01 0.02
-6 2 3 0.02 0.02
-6 2 3 0.02 0.02
5 -2 -3 6.23 0.15
5 -2 -3 6.28 0.16
5 -2 -3 6.27 0.14
-5 2 3 6.3 0.16
-5 2 3 6.07 0.15
4 -2 -3 0.36 0.04
4 -2 -3 0.32 0.04
4 -2 -3 0.3 0.04
4 -2 -3 0.3 0.03
-4 2 3 0.37 0.04
-4 2 3 0.34 0.03
-4 2 3 0.27 0.03
3 -2 -3 1.74 0.06
3 -2 -3 1.83 0.07
3 -2 -3 1.82 0.07
3 -2 -3 1.81 0.06
-3 2 3 1.69 0.06
-3 2 3 1.81 0.06
-3 2 3 1.92 0.07
2 -2 -3 5.2 0.12
2 -2 -3 5.38 0.11
2 -2 -3 5.24 0.12
2 -2 -3 5.42 0.12
-2 2 3 5.24 0.12
-2 2 3 5.24 0.12
-2 2 3 5.21 0.12
1 -2 -3 36.16 0.55
1 -2 -3 34.96 0.57
1 -2 -3 35.33 0.57
1 -2 -3 36.76 0.58
-1 2 3 35.74 0.57
-1 2 3 36.05 0.57
-1 2 3 34.94 0.57
0 -2 -3 61.55 0.95
0 -2 -3 58.74 0.94
0 2 3 59.38 0.98
0 2 3 58.36 0.96
-1 -2 -3 99.65 1.57
-1 -2 -3 99.97 1.66
-1 -2 -3 96.73 1.59
-1 -2 -3 97.02 1.59
1 2 3 98.33 1.58
1 2 3 103.7 1.57
1 2 3 99.91 1.58
-2 -2 -3 9.4 0.19
-2 -2 -3 9.68 0.17
-2 -2 -3 9.43 0.16
-2 -2 -3 9.73 0.19
2 2 3 9.79 0.17
2 2 3 9.69 0.16
2 2 3 9.75 0.18
-3 -2 -3 35.65 0.55
-3 -2 -3 35.76 0.56
-3 -2 -3 34.75 0.6
-3 -2 -3 35.87 0.59
3 2 3 36.09 0.56
3 2 3 34.89 0.59
3 2 3 36.59 0.56
-4 -2 -3 0.67 0.05
-4 -2 -3 0.65 0.04
-4 -2 -3 0.76 0.03
-4 -2 -3 0.63 0.02
4 2 3 0.72 0.03
4 2 3 0.69 0.03
4 2 3 0.62 0.05
-5 -2 -3 0.17 0.02
-5 -2 -3 0.2 0.02
-5 -2 -3 0.13 0.03
-5 -2 -3 0.16 0.02
5 2 3 0.2 0.04
5 2 3 0.17 0.02
5 2 3 0.15 0.02
-6 -2 -3 11.02 0.18
-6 -2 -3 11.23 0.26
-6 -2 -3 10.8 0.18
6 2 3 10.81 0.21
6 2 3 10.83 0.25
-7 -2 -3 0.16 0.01
-7 -2 -3 0.13 0.04
-7 -2 -3 0.14 0.01
7 2 3 0.1 0.04
7 2 3 0.13 0.02
-8 -2 -3 3.23 0.15
8 2 3 3.61 0.15
8 2 3 3.41 0.1
-9 -2 -3 0.74 0.09
9 2 3 0.64 0.08
9 2 3 0.65 0.05
-10 -2 -3 1.29 0.12
10 2 3 1.46 0.12
10 2 3 1.42 0.08
10 -3 -3 0.02 0.04
10 -3 -3 0.05 0.04
-10 3 3 -0.02 0.03
-10 3 3 0.01 0.04
9 -3 -3 0 0.03
9 -3 -3 0.02 0.04
-9 3 3 0.01 0.04
-9 3 3 -0.01 0.03
8 -3 -3 0.37 0.06
8 -3 -3 0.44 0.07
-8 3 3 0.36 0.05
-8 3 3 0.4 0.06
7 -3 -3 0.95 0.08
7 -3 -3 1.11 0.08
-7 3 3 0.91 0.07
-7 3 3 1.03 0.08
6 -3 -3 2.4 0.1
6 -3 -3 2.19 0.1
-6 3 3 2.17 0.09
-6 3 3 2.17 0.1
5 -3 -3 0.28 0.03
5 -3 -3 0.34 0.04
5 -3 -3 0.34 0.04
5 -3 -3 0.34 0.04
-5 3 3 0.42 0.05
-5 3 3 0.36 0.05
4 -3 -3 0.64 0.04
4 -3 -3 0.74 0.05
4 -3 -3 0.71 0.04
-4 3 3 0.6 0.05
-4 3 3 0.73 0.05
-4 3 3 0.78 0.05
3 -3 -3 15.89 0.28
3 -3 -3 15.25 0.29
3 -3 -3 15.93 0.3
3 -3 -3 15.3 0.29
-3 3 3 15.78 0.3
-3 3 3 15.68 0.3
-3 3 3 15.87 0.29
2 -3 -3 115.57 1.82
2 -3 -3 118.92 1.85
2 -3 -3 118.12 1.84
2 -3 -3 115.32 1.82
-2 3 3 114.14 1.9
-2 3 3 117.43 1.89
-2 3 3 119.82 1.85
1 -3 -3 22.66 0.39
1 -3 -3 23.23 0.36
1 -3 -3 23.23 0.39
1 -3 -3 23.24 0.4
-1 3 3 22.61 0.39
-1 3 3 22.55 0.39
-1 3 3 23.18 0.39
0 -3 -3 0.12 0.02
0 -3 -3 0.18 0.02
0 -3 -3 0.14 0.03
0 3 3 0.18 0.02
0 3 3 0.14 0.02
-1 -3 -3 5.03 0.12
-1 -3 -3 4.98 0.1
-1 -3 -3 4.9 0.1
1 3 3 4.92 0.1
1 3 3 4.97 0.1
1 3 3 5.01 0.09
1 3 3 4.89 0.12
-2 -3 -3 2.96 0.06
-2 -3 -3 2.94 0.09
-2 -3 -3 2.87 0.09
-2 -3 -3 2.96 0.07
2 3 3 3.01 0.07
2 3 3 2.96 0.07
2 3 3 3.01 0.07
-3 -3 -3 28.51 0.51
-3 -3 -3 29.73 0.46
-3 -3 -3 29.38 0.51
-3 -3 -3 29.54 0.46
3 3 3 29.36 0.47
3 3 3 29.78 0.49
3 3 3 29.94 0.47
-4 -3 -3 6.43 0.15
-4 -3 -3 6.41 0.16
4 3 3 6.51 0.15
4 3 3 6.55 0.12
4 3 3 6.56 0.12
-5 -3 -3 0.4 0.05
-5 -3 -3 0.34 0.04
5 3 3 0.32 0.02
5 3 3 0.31 0.04
5 3 3 0.35 0.02
-6 -3 -3 8.73 0.22
6 3 3 8.54 0.16
6 3 3 8.27 0.21
-7 -3 -3 0.21 0.05
7 3 3 0.22 0.03
7 3 3 0.24 0.05
-8 -3 -3 0.33 0.06
8 3 3 0.22 0.03
8 3 3 0.22 0.05
-9 -3 -3 0 0.04
9 3 3 0.02 0.02
9 3 3 0.02 0.03
10 -4 -3 -0.04 0.03
10 -4 -3 -0.05 0.04
-10 4 3 0.03 0.05
-10 4 3 -0.03 0.03
9 -4 -3 0.62 0.08
9 -4 -3 0.58 0.08
-9 4 3 0.42 0.07
-9 4 3 0.48 0.07
8 -4 -3 0.44 0.07
8 -4 -3 0.55 0.07
-8 4 3 0.44 0.07
-8 4 3 0.36 0.06
7 -4 -3 0.38 0.05
7 -4 -3 0.2 0.04
-7 4 3 0.19 0.04
-7 4 3 0.27 0.05
6 -4 -3 0.95 0.07
6 -4 -3 1.01 0.07
-6 4 3 1.08 0.08
-6 4 3 0.94 0.07
5 -4 -3 2.25 0.1
5 -4 -3 2.25 0.08
5 -4 -3 2.24 0.09
-5 4 3 2.35 0.1
-5 4 3 2.19 0.1
4 -4 -3 12.73 0.26
4 -4 -3 12.41 0.26
4 -4 -3 12.09 0.24
4 -4 -3 12.17 0.25
-4 4 3 12.09 0.26
-4 4 3 12.22 0.26
-4 4 3 12.27 0.26
3 -4 -3 23.36 0.42
3 -4 -3 22.8 0.39
3 -4 -3 23.77 0.42
3 -4 -3 23.38 0.42
-3 4 3 22.91 0.42
-3 4 3 23.73 0.42
-3 4 3 22.25 0.42
2 -4 -3 32.52 0.54
2 -4 -3 31.8 0.54
2 -4 -3 31.7 0.51
2 -4 -3 31.28 0.55
-2 4 3 31.05 0.54
-2 4 3 32.78 0.54
-2 4 3 30.91 0.54
1 -4 -3 3.7 0.1
1 -4 -3 3.63 0.1
1 -4 -3 3.71 0.07
1 -4 -3 3.75 0.11
-1 4 3 3.47 0.1
-1 4 3 3.76 0.1
-1 4 3 3.7 0.1
0 -4 -3 -0.01 0.01
0 -4 -3 -0.02 0.02
0 -4 -3 -0.02 0.01
0 4 3 0 0.01
0 4 3 0.01 0.02
-1 -4 -3 5.88 0.12
-1 -4 -3 5.76 0.15
-1 -4 -3 5.65 0.12
1 4 3 5.88 0.14
1 4 3 6 0.1
1 4 3 5.92 0.12
1 4 3 5.91 0.12
-2 -4 -3 7.9 0.19
-2 -4 -3 7.57 0.14
-2 -4 -3 7.87 0.14
2 4 3 7.63 0.15
2 4 3 7.7 0.15
2 4 3 7.81 0.17
2 4 3 7.63 0.15
-3 -4 -3 1.18 0.06
-3 -4 -3 1.24 0.07
-3 -4 -3 1.24 0.03
-3 -4 -3 1.19 0.03
3 4 3 1.25 0.04
3 4 3 1.23 0.04
3 4 3 1.21 0.05
-4 -4 -3 11.33 0.25
-4 -4 -3 11.06 0.24
4 4 3 10.94 0.23
4 4 3 10.84 0.19
-5 -4 -3 2.36 0.1
-5 -4 -3 2.12 0.09
5 4 3 2.16 0.05
5 4 3 2.12 0.06
5 4 3 1.99 0.09
-6 -4 -3 4.2 0.15
6 4 3 3.97 0.09
6 4 3 4.08 0.14
-7 -4 -3 3.42 0.14
7 4 3 3.16 0.13
7 4 3 3.26 0.08
-8 -4 -3 1.31 0.1
8 4 3 1.32 0.05
8 4 3 1.3 0.09
-9 -4 -3 0.99 0.1
9 4 3 0.9 0.05
9 4 3 1.02 0.1
9 -5 -3 0.05 0.04
-9 5 3 0.03 0.05
-9 5 3 0.03 0.04
8 -5 -3 2.37 0.12
-8 5 3 2.36 0.13
-8 5 3 2.25 0.12
7 -5 -3 1.63 0.09
-7 5 3 1.59 0.11
-7 5 3 1.72 0.1
6 -5 -3 0.23 0.04
-6 5 3 0.2 0.05
-6 5 3 0.19 0.04
5 -5 -3 2.35 0.09
5 -5 -3 2.34 0.09
-5 5 3 2.31 0.1
-5 5 3 2.67 0.11
4 -5 -3 0.67 0.04
4 -5 -3 0.76 0.06
4 -5 -3 0.72 0.07
-4 5 3 0.72 0.07
-4 5 3 0.7 0.06
-4 5 3 0.61 0.06
3 -5 -3 4.76 0.11
3 -5 -3 4.69 0.14
3 -5 -3 4.59 0.14
-3 5 3 4.99 0.14
-3 5 3 4.96 0.14
-3 5 3 4.64 0.14
2 -5 -3 0.1 0.03
2 -5 -3 0.07 0.03
-2 5 3 0.08 0.03
-2 5 3 0.07 0.02
-2 5 3 0.08 0.03
1 -5 -3 35.33 0.61
1 -5 -3 34.99 0.59
-1 5 3 34.44 0.59
-1 5 3 34.07 0.59
0 -5 -3 22.57 0.39
0 -5 -3 22.6 0.42
0 5 3 21.46 0.4
0 5 3 22.33 0.39
-1 -5 -3 0.67 0.04
-1 -5 -3 0.71 0.06
-1 -5 -3 0.68 0.04
1 5 3 0.76 0.05
1 5 3 0.68 0.04
-2 -5 -3 3.29 0.08
-2 -5 -3 2.94 0.11
-2 -5 -3 3.13 0.08
2 5 3 3.28 0.11
2 5 3 3.15 0.08
2 5 3 3.19 0.08
-3 -5 -3 5.81 0.17
-3 -5 -3 5.76 0.1
-3 -5 -3 5.89 0.1
3 5 3 5.83 0.16
3 5 3 5.75 0.12
3 5 3 5.7 0.13
3 5 3 5.72 0.12
-4 -5 -3 0.13 0.04
4 5 3 0.1 0.04
4 5 3 0.13 0.02
4 5 3 0.15 0.03
4 5 3 0.15 0.02
-5 -5 -3 -0.01 0.03
-5 -5 -3 0.02 0.03
5 5 3 0 0.02
5 5 3 0 0.01
-6 -5 -3 0.43 0.05
-6 -5 -3 0.4 0.06
6 5 3 0.4 0.03
6 5 3 0.45 0.06
-7 -5 -3 0.41 0.06
-8 -5 -3 0.02 0.04
8 5 3 0.02 0.01
-9 6 3 -0.01 0.05
-8 6 3 0.67 0.09
-7 6 3 0.06 0.04
-6 6 3 6.76 0.21
5 -6 -3 5.54 0.16
-5 6 3 5.86 0.18
4 -6 -3 0.38 0.05
4 -6 -3 0.54 0.06
-4 6 3 0.41 0.05
-4 6 3 0.48 0.06
3 -6 -3 0.65 0.07
3 -6 -3 0.58 0.06
-3 6 3 0.56 0.06
-3 6 3 0.63 0.06
2 -6 -3 3.75 0.12
2 -6 -3 3.95 0.14
-2 6 3 3.44 0.12
-2 6 3 3.84 0.13
1 -6 -3 -0.05 0.02
1 -6 -3 0 0.03
-1 6 3 0 0.02
-1 6 3 0.03 0.02
0 -6 -3 0.05 0.04
0 -6 -3 0.02 0.02
0 6 3 0.06 0.02
0 6 3 0.02 0.02
-1 -6 -3 0.49 0.06
-1 -6 -3 0.55 0.04
1 6 3 0.62 0.05
1 6 3 0.55 0.04
-2 -6 -3 0.04 0.03
-2 -6 -3 0.05 0.02
2 6 3 0.06 0.03
2 6 3 0.06 0.02
-3 -6 -3 3.26 0.07
-3 -6 -3 3.22 0.13
-3 -6 -3 3.33 0.07
3 6 3 3.19 0.11
3 6 3 3.29 0.09
-4 -6 -3 1.37 0.09
4 6 3 1.38 0.08
4 6 3 1.28 0.05
-5 -6 -3 0.03 0.04
5 6 3 0.06 0.03
5 6 3 0.06 0.02
-6 -6 -3 2.2 0.12
6 6 3 2.19 0.06
6 6 3 2.26 0.11
-7 -6 -3 0.11 0.05
7 6 3 0.1 0.05
7 6 3 0.1 0.02
-8 -6 -3 1.15 0.1
8 6 3 1.07 0.03
-8 7 3 0.12 0.06
-7 7 3 0.99 0.1
-6 7 3 0.63 0.08
5 -7 -3 0.04 0.03
-5 7 3 0.07 0.05
4 -7 -3 0.13 0.04
4 -7 -3 0.02 0.03
-4 7 3 0 0.03
3 -7 -3 1.23 0.09
3 -7 -3 1.23 0.08
-3 7 3 1.13 0.08
-3 7 3 1.25 0.09
2 -7 -3 0.62 0.06
2 -7 -3 0.6 0.07
-2 7 3 0.83 0.07
-2 7 3 0.78 0.07
1 -7 -3 6.44 0.2
1 -7 -3 6.52 0.17
-1 7 3 6.22 0.18
-1 7 3 6.45 0.18
0 -7 -3 2.11 0.09
0 -7 -3 2.03 0.11
0 7 3 2.1 0.1
0 7 3 2.2 0.09
-1 -7 -3 1.52 0.07
-1 -7 -3 1.57 0.1
1 7 3 1.41 0.07
1 7 3 1.68 0.09
-2 -7 -3 2.56 0.13
-2 -7 -3 2.79 0.08
2 7 3 2.7 0.09
2 7 3 2.57 0.11
-3 -7 -3 0.11 0.02
-3 -7 -3 0.18 0.02
-3 -7 -3 0.19 0.05
3 7 3 0.12 0.04
3 7 3 0.15 0.03
-4 -7 -3 0.66 0.08
4 7 3 0.6 0.07
4 7 3 0.56 0.04
-5 -7 -3 0.06 0.05
5 7 3 0.11 0.02
5 7 3 0.12 0.04
-6 -7 -3 1.96 0.12
6 7 3 1.8 0.06
6 7 3 1.68 0.11
7 7 3 0.15 0.05
7 7 3 0.14 0.02
-7 8 3 0.31 0.07
-6 8 3 0.37 0.07
-5 8 3 0.1 0.05
4 -8 -3 0.03 0.04
4 -8 -3 0.06 0.04
-4 8 3 0.06 0.04
3 -8 -3 0.46 0.07
3 -8 -3 0.39 0.07
-3 8 3 0.42 0.07
-3 8 3 0.41 0.06
2 -8 -3 0.45 0.06
2 -8 -3 0.63 0.08
-2 8 3 0.59 0.07
-2 8 3 0.61 0.07
1 -8 -3 0.18 0.05
1 -8 -3 0.09 0.04
-1 8 3 0.13 0.04
-1 8 3 0.19 0.04
0 -8 -3 1.83 0.09
0 -8 -3 2.19 0.13
0 8 3 1.81 0.1
0 8 3 1.95 0.1
-1 -8 -3 0.23 0.04
-1 -8 -3 0.13 0.05
1 8 3 0.16 0.04
1 8 3 0.16 0.04
-2 -8 -3 1.24 0.11
-2 -8 -3 1.39 0.06
2 8 3 1.28 0.08
2 8 3 1.47 0.09
-3 -8 -3 0.42 0.02
-3 -8 -3 0.32 0.07
3 8 3 0.47 0.06
3 8 3 0.4 0.05
-4 -8 -3 0.4 0.07
4 8 3 0.31 0.05
4 8 3 0.32 0.04
-5 -8 -3 0.06 0.05
5 8 3 0 0.02
5 8 3 0.03 0.04
-6 -8 -3 0.11 0.05
6 8 3 0.12 0.05
6 8 3 0.08 0.02
-5 9 3 0.1 0.05
4 -9 -3 0.13 0.05
4 -9 -3 0.09 0.05
-4 9 3 0.11 0.05
3 -9 -3 2.22 0.13
3 -9 -3 2.51 0.13
-3 9 3 2.18 0.13
-3 9 3 2.28 0.13
2 -9 -3 1.88 0.11
2 -9 -3 1.99 0.12
-2 9 3 2.13 0.12
-2 9 3 2.03 0.12
1 -9 -3 0.07 0.04
1 -9 -3 0.03 0.03
-1 9 3 -0.01 0.03
-1 9 3 0.06 0.04
0 -9 -3 0.3 0.05
0 -9 -3 0.3 0.07
0 9 3 0.28 0.05
0 9 3 0.25 0.05
-1 -9 -3 0.11 0.06
-1 -9 -3 0.13 0.04
1 9 3 0.22 0.05
1 9 3 0.15 0.04
-2 -9 -3 0.34 0.04
-2 -9 -3 0.34 0.07
2 9 3 0.32 0.05
2 9 3 0.42 0.06
-3 -9 -3 0.06 0.05
3 9 3 0.07 0.03
3 9 3 0.12 0.05
-4 -9 -3 0.71 0.1
4 9 3 0.74 0.08
4 9 3 0.67 0.06
3 -10 -3 0.05 0.05
3 -10 -3 0.04 0.05
-3 10 3 -0.01 0.04
2 -10 -3 0.36 0.06
2 -10 -3 0.34 0.08
-2 10 3 0.26 0.06
-2 10 3 0.23 0.06
1 -10 -3 1.3 0.1
1 -10 -3 1 0.11
-1 10 3 1.11 0.1
-1 10 3 1.07 0.1
0 -10 -3 1.81 0.1
0 -10 -3 1.73 0.13
0 10 3 1.79 0.12
0 10 3 1.57 0.11
-1 -10 -3 1.02 0.07
-1 -10 -3 0.93 0.11
1 10 3 0.76 0.08
1 10 3 1.19 0.09
-2 -10 -3 0 0.05
-2 -10 -3 0.02 0.02
2 10 3 0.01 0.03
2 10 3 -0.02 0.04
3 10 -4 0.03 0.03
-3 -10 4 -0.02 0.05
2 10 -4 0.59 0.07
-2 -10 4 0.57 0.09
-2 -10 4 0.49 0.05
1 10 -4 0.64 0.07
-1 -10 4 0.84 0.07
-1 -10 4 0.63 0.09
0 10 -4 1.9 0.12
0 -10 4 1.83 0.1
0 -10 4 1.45 0.12
-1 10 -4 0.27 0.06
1 -10 4 0.31 0.06
1 -10 4 0.26 0.07
-2 10 -4 0.73 0.09
-2 10 -4 0.57 0.07
2 -10 4 0.69 0.09
2 -10 4 0.61 0.07
-3 10 -4 0.31 0.06
3 -10 4 0.2 0.06
3 -10 4 0.36 0.07
-4 10 -4 0 0.04
4 -10 4 0.01 0.04
5 9 -4 0.44 0.04
5 9 -4 0.38 0.07
-5 -9 4 0.43 0.08
4 9 -4 0.03 0.02
-4 -9 4 -0.02 0.05
3 9 -4 0.06 0.03
-3 -9 4 0.04 0.05
-3 -9 4 0.09 0.01
2 9 -4 0.88 0.07
-2 -9 4 0.72 0.09
-2 -9 4 0.9 0.06
1 9 -4 0.23 0.05
-1 -9 4 0.25 0.04
-1 -9 4 0.25 0.06
0 9 -4 0.17 0.05
0 9 -4 0.14 0.05
0 -9 4 0.03 0.05
0 -9 4 0.16 0.04
-1 9 -4 0.31 0.05
-1 9 -4 0.35 0.06
1 -9 4 0.29 0.05
1 -9 4 0.32 0.06
-2 9 -4 -0.07 0.03
-2 9 -4 0.04 0.04
2 -9 4 -0.03 0.04
2 -9 4 0.05 0.04
-3 9 -4 0.36 0.06
-3 9 -4 0.29 0.06
3 -9 4 0.25 0.06
3 -9 4 0.33 0.06
-4 9 -4 0.34 0.06
4 -9 4 0.29 0.06
-5 9 -4 1.13 0.1
-6 9 -4 0.03 0.05
6 8 -4 1.13 0.11
6 8 -4 1.15 0.05
5 8 -4 0.02 0.02
-5 -8 4 0 0.04
4 8 -4 0.08 0.03
-4 -8 4 0.06 0.05
3 8 -4 0.06 0.03
-3 -8 4 0.06 0.02
-3 -8 4 0.08 0.05
2 8 -4 0.2 0.04
-2 -8 4 0.15 0.05
-2 -8 4 0.17 0.03
1 8 -4 3.55 0.12
1 8 -4 3.73 0.13
-1 -8 4 3.54 0.15
-1 -8 4 3.37 0.11
0 8 -4 3.12 0.12
0 8 -4 3.28 0.11
0 -8 4 2.98 0.14
0 -8 4 3.12 0.11
-1 8 -4 0.93 0.07
-1 8 -4 1.01 0.08
1 -8 4 1.14 0.08
1 -8 4 0.91 0.08
-2 8 -4 0.46 0.06
-2 8 -4 0.54 0.06
2 -8 4 0.61 0.07
2 -8 4 0.52 0.07
-3 8 -4 3.05 0.14
-3 8 -4 3.06 0.13
3 -8 4 3.29 0.14
3 -8 4 2.86 0.13
-4 8 -4 1.79 0.11
4 -8 4 2 0.12
-5 8 -4 0.19 0.05
-6 8 -4 0.68 0.09
-7 8 -4 0.79 0.1
7 7 -4 0.28 0.06
7 7 -4 0.31 0.02
6 7 -4 2.02 0.12
6 7 -4 2 0.06
5 7 -4 0.22 0.05
5 7 -4 0.28 0.03
-5 -7 4 0.27 0.05
-5 -7 4 0.23 0.05
4 7 -4 0.15 0.03
-4 -7 4 0.15 0.05
-4 -7 4 0.11 0.04
3 7 -4 0.03 0.02
-3 -7 4 0.05 0.02
-3 -7 4 0.06 0.03
-3 -7 4 0.07 0.01
-3 -7 4 0.04 0.04
2 7 -4 3.33 0.11
2 7 -4 3.45 0.1
-2 -7 4 3.42 0.1
-2 -7 4 3.26 0.12
-2 -7 4 3.53 0.14
1 7 -4 4.86 0.14
1 7 -4 4.84 0.13
-1 -7 4 4.89 0.17
-1 -7 4 4.83 0.13
-1 -7 4 4.75 0.14
0 7 -4 19.19 0.37
0 7 -4 18.54 0.35
0 -7 4 18.35 0.36
0 -7 4 18.87 0.39
0 -7 4 18.26 0.35
-1 7 -4 15.13 0.31
-1 7 -4 15.63 0.32
1 -7 4 15.18 0.3
1 -7 4 15.32 0.32
1 -7 4 15 0.33
-2 7 -4 0.1 0.03
-2 7 -4 0.1 0.04
2 -7 4 0.08 0.03
2 -7 4 0.1 0.04
2 -7 4 0.07 0.03
-3 7 -4 0.42 0.06
-3 7 -4 0.34 0.05
3 -7 4 0.28 0.04
3 -7 4 0.38 0.05
3 -7 4 0.48 0.06
-4 7 -4 0.05 0.04
4 -7 4 0.01 0.03
4 -7 4 0.01 0.03
4 -7 4 0.01 0.03
-5 7 -4 4.28 0.17
5 -7 4 4.44 0.15
-6 7 -4 2.07 0.12
6 -7 4 2.01 0.11
-7 7 -4 0.07 0.04
7 -7 4 0.04 0.04
-8 7 -4 0.14 0.06
8 -7 4 0.13 0.05
8 6 -4 0.02 0.01
-8 -6 4 0.02 0.04
7 6 -4 2.57 0.06
7 6 -4 2.5 0.13
-7 -6 4 2.64 0.14
6 6 -4 0 0.03
6 6 -4 0.05 0.02
-6 -6 4 0.05 0.04
5 6 -4 0.03 0.04
5 6 -4 -0.02 0.01
-5 -6 4 0 0.03
4 6 -4 10.69 0.2
4 6 -4 10.02 0.22
-4 -6 4 10.6 0.25
-4 -6 4 10.9 0.27
3 6 -4 11.15 0.22
3 6 -4 11.08 0.22
-3 -6 4 11.05 0.19
-3 -6 4 10.77 0.27
-3 -6 4 11.31 0.19
-3 -6 4 11.04 0.25
2 6 -4 7.97 0.17
2 6 -4 8.05 0.17
-2 -6 4 7.79 0.16
-2 -6 4 7.8 0.16
-2 -6 4 8.33 0.21
-2 -6 4 7.66 0.19
1 6 -4 0.92 0.05
1 6 -4 0.88 0.06
-1 -6 4 0.89 0.06
-1 -6 4 0.9 0.07
-1 -6 4 0.88 0.05
0 6 -4 17.59 0.34
0 6 -4 17.77 0.33
0 -6 4 17.83 0.36
0 -6 4 17.76 0.33
0 -6 4 18.08 0.34
-1 6 -4 0.04 0.03
-1 6 -4 0.01 0.02
1 -6 4 0.05 0.03
1 -6 4 0.03 0.03
1 -6 4 0.02 0.03
-2 6 -4 17.64 0.35
-2 6 -4 17.31 0.34
2 -6 4 17.14 0.35
2 -6 4 17.82 0.35
2 -6 4 17.38 0.33
-3 6 -4 5.79 0.16
-3 6 -4 5.59 0.17
3 -6 4 5.69 0.15
3 -6 4 5.69 0.15
3 -6 4 5.68 0.17
-4 6 -4 2.03 0.1
-4 6 -4 2.23 0.1
4 -6 4 2.14 0.09
4 -6 4 2.04 0.1
4 -6 4 2.03 0.08
-5 6 -4 3.89 0.15
5 -6 4 4.29 0.14
-6 6 -4 -0.01 0.04
6 -6 4 0.01 0.03
-7 6 -4 0.52 0.08
7 -6 4 0.51 0.07
-8 6 -4 0.11 0.05
-8 6 -4 0.19 0.05
8 -6 4 0.18 0.05
-9 6 -4 0.1 0.06
-9 6 -4 0.06 0.04
9 -6 4 0.04 0.05
9 5 -4 0.35 0.07
9 5 -4 0.34 0.03
-9 -5 4 0.34 0.07
8 5 -4 0.45 0.03
-8 -5 4 0.47 0.08
7 5 -4 0.65 0.07
7 5 -4 0.62 0.03
-7 -5 4 0.71 0.09
6 5 -4 0.03 0.01
6 5 -4 0.04 0.03
-6 -5 4 0.01 0.04
5 5 -4 7.53 0.14
5 5 -4 7.77 0.2
5 5 -4 7.42 0.14
5 5 -4 7.57 0.17
-5 -5 4 7.78 0.21
4 5 -4 1.77 0.06
4 5 -4 1.75 0.05
4 5 -4 1.9 0.07
-4 -5 4 1.7 0.09
-4 -5 4 1.67 0.09
3 5 -4 4.03 0.1
3 5 -4 4.03 0.09
3 5 -4 4 0.1
-3 -5 4 4.01 0.08
-3 -5 4 3.89 0.08
-3 -5 4 3.92 0.12
-3 -5 4 4.15 0.13
2 5 -4 0 0.01
2 5 -4 0.01 0.01
2 5 -4 0 0.01
-2 -5 4 0.02 0.02
-2 -5 4 0.01 0.01
-2 -5 4 0.03 0.03
-2 -5 4 0.04 0.01
1 5 -4 0.73 0.04
1 5 -4 0.67 0.04
1 5 -4 0.69 0.04
-1 -5 4 0.77 0.04
-1 -5 4 0.65 0.04
-1 -5 4 0.72 0.06
-1 -5 4 0.66 0.04
0 5 -4 13.56 0.27
0 5 -4 13.97 0.26
0 -5 4 14.46 0.27
0 -5 4 14.07 0.27
0 -5 4 14.13 0.29
0 -5 4 13.92 0.27
-1 5 -4 1.84 0.07
-1 5 -4 1.78 0.08
-1 5 -4 1.85 0.07
1 -5 4 1.85 0.08
1 -5 4 1.8 0.07
1 -5 4 1.85 0.08
-2 5 -4 31.82 0.55
-2 5 -4 31.7 0.57
-2 5 -4 32.78 0.56
2 -5 4 32.1 0.56
2 -5 4 31.93 0.55
2 -5 4 32.75 0.56
-3 5 -4 4.85 0.14
-3 5 -4 4.94 0.14
-3 5 -4 5.11 0.14
3 -5 4 5.17 0.15
3 -5 4 5.09 0.14
3 -5 4 5 0.13
3 -5 4 5 0.14
-4 5 -4 1.46 0.08
-4 5 -4 1.46 0.08
-4 5 -4 1.56 0.08
4 -5 4 1.47 0.07
4 -5 4 1.46 0.08
4 -5 4 1.42 0.06
-5 5 -4 0.56 0.06
-5 5 -4 0.75 0.07
5 -5 4 0.77 0.06
5 -5 4 0.75 0.07
-6 5 -4 0.07 0.03
-6 5 -4 0.03 0.03
6 -5 4 0 0.03
-7 5 -4 0.03 0.04
-7 5 -4 0.09 0.04
7 -5 4 0.1 0.04
-8 5 -4 0.09 0.04
-8 5 -4 0.01 0.04
8 -5 4 0.02 0.04
-9 5 -4 -0.03 0.04
-9 5 -4 -0.02 0.03
9 -5 4 -0.02 0.04
9 4 -4 0.63 0.05
9 4 -4 0.71 0.09
-9 -4 4 0.78 0.09
8 4 -4 0.78 0.05
-8 -4 4 0.95 0.1
7 4 -4 1.82 0.09
7 4 -4 1.86 0.06
-7 -4 4 1.93 0.11
6 4 -4 0.05 0.02
6 4 -4 0.04 0.03
-6 -4 4 0.06 0.04
-6 -4 4 0.06 0.02
5 4 -4 14.51 0.3
5 4 -4 14.42 0.25
5 4 -4 14.36 0.24
-5 -4 4 14.41 0.28
-5 -4 4 14.49 0.32
4 4 -4 9.38 0.22
4 4 -4 9.7 0.17
4 4 -4 9.57 0.17
-4 -4 4 9.68 0.23
-4 -4 4 9.57 0.19
3 4 -4 1.96 0.06
3 4 -4 1.87 0.05
3 4 -4 1.99 0.05
-3 -4 4 1.93 0.04
-3 -4 4 1.83 0.08
-3 -4 4 1.8 0.08
-3 -4 4 1.94 0.04
2 4 -4 1.66 0.05
2 4 -4 1.49 0.05
2 4 -4 1.59 0.05
-2 -4 4 1.56 0.07
-2 -4 4 1.63 0.08
-2 -4 4 1.6 0.05
-2 -4 4 1.58 0.05
1 4 -4 20.81 0.35
1 4 -4 20.73 0.34
1 4 -4 19.99 0.35
-1 -4 4 20.46 0.38
-1 -4 4 20.98 0.35
-1 -4 4 20.59 0.35
-1 -4 4 20.79 0.37
0 4 -4 19.82 0.35
0 4 -4 19.94 0.33
0 -4 4 20.13 0.34
0 -4 4 19.83 0.35
0 -4 4 19.75 0.35
0 -4 4 19.7 0.36
-1 4 -4 43.81 0.69
-1 4 -4 41.66 0.68
-1 4 -4 41.47 0.69
1 -4 4 42.41 0.7
1 -4 4 40.95 0.69
1 -4 4 43.19 0.68
1 -4 4 41.26 0.69
-2 4 -4 4.69 0.12
-2 4 -4 4.54 0.12
-2 4 -4 4.31 0.12
2 -4 4 4.37 0.12
2 -4 4 4.51 0.12
2 -4 4 4.43 0.12
2 -4 4 4.39 0.11
-3 4 -4 1.22 0.06
-3 4 -4 1.19 0.06
-3 4 -4 1.14 0.06
3 -4 4 1.23 0.06
3 -4 4 1.1 0.06
3 -4 4 1.08 0.05
3 -4 4 1.14 0.06
-4 4 -4 2.52 0.1
-4 4 -4 2.67 0.1
-4 4 -4 2.71 0.1
4 -4 4 2.76 0.08
4 -4 4 2.65 0.1
4 -4 4 2.7 0.1
-5 4 -4 1.49 0.08
-5 4 -4 1.37 0.08
5 -4 4 1.3 0.07
5 -4 4 1.51 0.08
-6 4 -4 0.02 0.03
-6 4 -4 0.01 0.03
6 -4 4 0.02 0.03
6 -4 4 0.04 0.03
-7 4 -4 0.68 0.07
-7 4 -4 0.53 0.07
7 -4 4 0.59 0.07
7 -4 4 0.37 0.05
-8 4 -4 0.07 0.04
-8 4 -4 0.06 0.04
8 -4 4 0.04 0.03
8 -4 4 0.06 0.05
-9 4 -4 0.79 0.1
-9 4 -4 0.83 0.08
9 -4 4 0.81 0.08
9 -4 4 0.78 0.09
10 3 -4 0.51 0.05
10 3 -4 0.4 0.08
9 3 -4 1.62 0.12
9 3 -4 1.66 0.07
8 3 -4 8.2 0.18
-8 -3 4 8.33 0.25
7 3 -4 0.14 0.02
7 3 -4 0.09 0.03
-7 -3 4 0.15 0.05
-7 -3 4 0.15 0.04
6 3 -4 37.46 0.64
6 3 -4 37 0.6
-6 -3 4 36.77 0.64
-6 -3 4 37.47 0.68
5 3 -4 4.27 0.09
5 3 -4 3.92 0.12
5 3 -4 4.01 0.09
-5 -3 4 3.99 0.11
-5 -3 4 3.85 0.13
4 3 -4 16.78 0.27
4 3 -4 16.75 0.28
4 3 -4 16.47 0.32
-4 -3 4 16.93 0.26
-4 -3 4 16.17 0.26
-4 -3 4 16.88 0.3
-4 -3 4 16.63 0.33
3 3 -4 0.08 0.03
3 3 -4 0.06 0.01
3 3 -4 0.07 0.01
-3 -3 4 0.08 0.01
-3 -3 4 0.09 0.02
-3 -3 4 0.08 0.03
-3 -3 4 0.06 0.01
2 3 -4 7.13 0.13
2 3 -4 7.29 0.13
2 3 -4 7.1 0.16
2 3 -4 7.23 0.14
-2 -3 4 7.13 0.16
-2 -3 4 7.03 0.13
-2 -3 4 7.15 0.13
-2 -3 4 6.9 0.16
1 3 -4 4.37 0.08
1 3 -4 4.23 0.1
1 3 -4 4.34 0.09
-1 -3 4 4.32 0.09
-1 -3 4 4.48 0.11
-1 -3 4 4.45 0.11
-1 -3 4 4.29 0.1
0 3 -4 3.83 0.09
0 3 -4 3.95 0.08
0 3 -4 3.79 0.09
0 -3 4 3.91 0.09
0 -3 4 3.84 0.1
0 -3 4 3.73 0.09
-1 3 -4 1 0.05
-1 3 -4 1.21 0.05
-1 3 -4 1.18 0.04
1 -3 4 1.1 0.05
1 -3 4 1.37 0.05
1 -3 4 1.14 0.05
1 -3 4 1.12 0.05
-2 3 -4 26.53 0.45
-2 3 -4 26.32 0.46
-2 3 -4 26.32 0.45
2 -3 4 26.72 0.45
2 -3 4 27.33 0.44
2 -3 4 27.11 0.46
2 -3 4 26.04 0.45
-3 3 -4 12.89 0.25
-3 3 -4 12.61 0.25
-3 3 -4 12.88 0.25
3 -3 4 12.42 0.25
3 -3 4 12.91 0.25
3 -3 4 12.75 0.25
-4 3 -4 0.71 0.05
-4 3 -4 0.76 0.03
-4 3 -4 0.8 0.06
-4 3 -4 0.71 0.05
4 -3 4 0.74 0.05
4 -3 4 0.78 0.05
-5 3 -4 0.04 0.03
-5 3 -4 0.04 0.03
5 -3 4 0.01 0.02
5 -3 4 0.03 0.03
-6 3 -4 1.54 0.08
-6 3 -4 1.52 0.09
6 -3 4 1.66 0.09
6 -3 4 1.49 0.08
-7 3 -4 4.16 0.14
-7 3 -4 4.45 0.16
7 -3 4 4.37 0.15
7 -3 4 4.18 0.15
-8 3 -4 0.27 0.06
-8 3 -4 0.3 0.05
8 -3 4 0.26 0.05
8 -3 4 0.25 0.05
-9 3 -4 0.01 0.03
-9 3 -4 -0.04 0.04
9 -3 4 -0.01 0.03
9 -3 4 -0.01 0.04
-10 3 -4 0.08 0.05
-10 3 -4 0.05 0.04
10 -3 4 0.03 0.04
10 -3 4 -0.01 0.04
10 2 -4 0.33 0.05
10 2 -4 0.33 0.07
9 2 -4 5.48 0.2
9 2 -4 5.38 0.15
-9 -2 4 5.15 0.09
8 2 -4 0.67 0.05
-8 -2 4 0.71 0.03
-8 -2 4 0.63 0.07
-8 -2 4 0.68 0.08
7 2 -4 2.03 0.07
-7 -2 4 2.04 0.06
-7 -2 4 1.97 0.09
-7 -2 4 2.12 0.11
-7 -2 4 2.11 0.06
6 2 -4 1.26 0.06
6 2 -4 1.33 0.07
-6 -2 4 1.48 0.09
-6 -2 4 1.33 0.04
-6 -2 4 1.32 0.05
-6 -2 4 1.52 0.07
5 2 -4 10.87 0.2
5 2 -4 10.98 0.2
5 2 -4 10.88 0.22
-5 -2 4 11.07 0.22
-5 -2 4 10.92 0.19
-5 -2 4 10.76 0.25
-5 -2 4 11 0.19
4 2 -4 14.03 0.24
4 2 -4 14.02 0.27
4 2 -4 13.99 0.24
-4 -2 4 13.97 0.23
-4 -2 4 14.24 0.26
-4 -2 4 14.05 0.29
-4 -2 4 14 0.24
3 2 -4 37.13 0.6
3 2 -4 36.53 0.58
3 2 -4 37.14 0.57
-3 -2 4 36.56 0.58
-3 -2 4 36.3 0.57
-3 -2 4 36.59 0.57
-3 -2 4 35.44 0.61
2 2 -4 101.55 1.6
2 2 -4 103.56 1.96
2 2 -4 101.83 1.59
-2 -2 4 99.75 1.57
-2 -2 4 101.21 1.56
-2 -2 4 96.74 1.6
-2 -2 4 98.25 1.6
1 2 -4 27.25 0.44
1 2 -4 27.04 0.44
1 2 -4 28.33 0.43
1 2 -4 27.25 0.45
-1 -2 4 26.81 0.45
-1 -2 4 27.59 0.44
-1 -2 4 27.7 0.44
0 2 -4 31.98 0.53
0 2 -4 33.79 0.52
0 2 -4 34.18 0.51
0 2 -4 32.86 0.53
0 -2 4 32.18 0.53
0 -2 4 32.14 0.52
0 -2 4 31.8 0.53
-1 2 -4 22.72 0.38
-1 2 -4 23.22 0.37
-1 2 -4 22.51 0.38
-1 2 -4 22.81 0.37
1 -2 4 21.95 0.38
1 -2 4 22.92 0.38
1 -2 4 22.54 0.38
-2 2 -4 115.13 1.77
-2 2 -4 117.47 1.8
-2 2 -4 113.67 1.8
-2 2 -4 113.24 1.8
2 -2 4 114.89 1.77
2 -2 4 112.71 1.79
2 -2 4 113.31 1.9
-3 2 -4 16.17 0.3
-3 2 -4 16.8 0.3
-3 2 -4 16.7 0.27
-3 2 -4 16.19 0.3
3 -2 4 16.12 0.3
3 -2 4 16.58 0.31
3 -2 4 16.88 0.3
-4 2 -4 20.55 0.36
-4 2 -4 20.38 0.38
-4 2 -4 20.06 0.36
4 -2 4 19.96 0.37
4 -2 4 19.88 0.36
4 -2 4 20.44 0.38
-5 2 -4 9.12 0.22
-5 2 -4 9.01 0.2
5 -2 4 9.05 0.2
5 -2 4 9.18 0.21
-6 2 -4 0.36 0.05
-6 2 -4 0.3 0.04
6 -2 4 0.34 0.04
6 -2 4 0.34 0.05
-7 2 -4 0.04 0.03
-7 2 -4 0.02 0.03
7 -2 4 0.03 0.03
7 -2 4 0.01 0.03
-8 2 -4 1.42 0.1
-8 2 -4 1.43 0.08
8 -2 4 1.52 0.09
8 -2 4 1.57 0.1
-9 2 -4 0.68 0.06
-9 2 -4 0.72 0.09
9 -2 4 0.67 0.07
9 -2 4 0.7 0.08
-10 2 -4 1.53 0.09
-10 2 -4 1.17 0.11
10 -2 4 1.26 0.11
10 -2 4 1.38 0.1
10 1 -4 1.69 0.09
10 1 -4 1.61 0.13
-10 -1 4 1.7 0.07
9 1 -4 0.69 0.08
9 1 -4 0.71 0.06
-9 -1 4 0.7 0.08
-9 -1 4 0.74 0.05
8 1 -4 0.14 0.03
8 1 -4 0.16 0.05
-8 -1 4 0.1 0.04
-8 -1 4 0.12 0.03
7 1 -4 0.77 0.05
-7 -1 4 0.9 0.06
-7 -1 4 0.87 0.07
-7 -1 4 0.74 0.04
6 1 -4 0.12 0.02
6 1 -4 0.09 0.02
-6 -1 4 0.12 0.04
-6 -1 4 0.11 0.02
-6 -1 4 0.1 0.03
5 1 -4 6.65 0.15
5 1 -4 6.39 0.14
5 1 -4 6.47 0.14
-5 -1 4 6.86 0.13
-5 -1 4 6.59 0.15
-5 -1 4 6.54 0.17
-5 -1 4 6.35 0.13
4 1 -4 0.31 0.03
4 1 -4 0.34 0.03
4 1 -4 0.37 0.03
-4 -1 4 0.38 0.03
-4 -1 4 0.39 0.04
-4 -1 4 0.36 0.03
-4 -1 4 0.34 0.03
3 1 -4 46.85 0.73
3 1 -4 45.91 0.73
3 1 -4 46.03 0.75
-3 -1 4 46.03 0.73
-3 -1 4 46.98 0.73
-3 -1 4 47.21 0.73
-3 -1 4 46.25 0.76
2 1 -4 67.47 1.1
2 1 -4 69.8 1.08
2 1 -4 68.88 1.09
-2 -1 4 70.99 1.09
-2 -1 4 69.01 1.09
-2 -1 4 67.99 1.08
-2 -1 4 68.26 1.12
1 1 -4 15.83 0.26
1 1 -4 15.38 0.26
1 1 -4 15.72 0.27
-1 -1 4 15.27 0.27
-1 -1 4 16.12 0.26
0 1 -4 27.24 0.44
0 1 -4 26.37 0.44
0 1 -4 27.36 0.42
0 1 -4 27.7 0.44
0 -1 4 27.12 0.44
0 -1 4 27.4 0.44
-1 1 -4 2.39 0.06
-1 1 -4 2.4 0.06
-1 1 -4 2.39 0.06
-1 1 -4 2.31 0.06
1 -1 4 2.33 0.06
1 -1 4 2.38 0.06
1 -1 4 2.29 0.06
-2 1 -4 73.47 1.16
-2 1 -4 74.64 1.19
-2 1 -4 73.75 1.47
-2 1 -4 74.17 1.15
2 -1 4 72.34 1.16
2 -1 4 74.38 1.2
2 -1 4 74.21 1.15
-3 1 -4 5.2 0.12
-3 1 -4 4.91 0.12
-3 1 -4 5.21 0.09
-3 1 -4 5.18 0.12
3 -1 4 5.14 0.12
3 -1 4 5.01 0.12
3 -1 4 5.06 0.11
-4 1 -4 39.84 0.68
-4 1 -4 40.49 0.66
-4 1 -4 41.22 0.66
4 -1 4 38.89 0.68
4 -1 4 41.05 0.66
-5 1 -4 24.61 0.42
-5 1 -4 23.92 0.45
5 -1 4 23.46 0.42
5 -1 4 24.34 0.45
-6 1 -4 16.87 0.35
-6 1 -4 16.72 0.32
6 -1 4 16.46 0.32
6 -1 4 16.44 0.34
-7 1 -4 0.22 0.05
-7 1 -4 0.28 0.04
7 -1 4 0.37 0.05
7 -1 4 0.3 0.05
-8 1 -4 1.69 0.11
-8 1 -4 1.49 0.08
8 -1 4 1.62 0.09
8 -1 4 1.63 0.11
-9 1 -4 -0.02 0.04
-9 1 -4 -0.03 0.02
9 -1 4 0.02 0.03
9 -1 4 -0.02 0.03
-10 1 -4 0.89 0.07
-10 1 -4 0.77 0.1
10 -1 4 1.22 0.11
10 -1 4 0.91 0.08
10 0 -4 1.66 0.1
10 0 -4 1.74 0.13
-10 0 4 1.61 0.08
-10 0 4 1.84 0.12
9 0 -4 1 0.1
9 0 -4 0.96 0.07
-9 0 4 0.92 0.09
-9 0 4 1.06 0.06
8 0 -4 2.59 0.13
8 0 -4 2.52 0.1
-8 0 4 2.47 0.09
-8 0 4 2.56 0.12
7 0 -4 2.71 0.1
7 0 -4 2.76 0.12
-7 0 4 2.91 0.09
-7 0 4 2.81 0.11
-7 0 4 2.8 0.12
6 0 -4 15.34 0.28
6 0 -4 15.2 0.29
-6 0 4 14.84 0.3
-6 0 4 14.72 0.32
-6 0 4 15.19 0.28
5 0 -4 0.77 0.04
5 0 -4 0.79 0.05
5 0 -4 0.7 0.04
-5 0 4 0.71 0.04
-5 0 4 0.75 0.04
-5 0 4 0.74 0.06
-5 0 4 0.69 0.05
4 0 -4 2.7 0.08
4 0 -4 2.7 0.08
4 0 -4 2.66 0.07
-4 0 4 2.67 0.08
-4 0 4 2.75 0.08
-4 0 4 2.71 0.07
-4 0 4 2.59 0.09
3 0 -4 78.82 1.26
3 0 -4 79.02 1.23
-3 0 4 79.41 1.26
-3 0 4 77.66 1.25
-3 0 4 79.16 1.23
-3 0 4 79.43 1.26
2 0 -4 28.72 0.47
2 0 -4 29.69 0.48
2 0 -4 29.38 0.47
-2 0 4 29 0.47
-2 0 4 29.18 0.47
-2 0 4 29.56 0.46
1 0 -4 39.8 0.63
1 0 -4 39.18 0.63
1 0 -4 40.13 0.63
-1 0 4 40.45 0.63
-1 0 4 40.11 0.64
-1 0 4 39.24 0.63
0 0 -4 106.42 1.72
0 0 -4 104.05 1.71
0 0 -4 107.33 1.71
0 0 -4 108.49 1.71
0 0 4 109.58 1.71
0 0 4 108.05 1.74
0 0 4 107.67 1.75
-1 0 -4 8.33 0.15
-1 0 -4 8.32 0.15
-1 0 -4 8.37 0.15
-1 0 -4 8.4 0.15
1 0 4 8.1 0.15
1 0 4 8.23 0.15
1 0 4 8.56 0.15
-2 0 -4 3.85 0.09
-2 0 -4 4 0.08
-2 0 -4 3.85 0.09
-2 0 -4 3.88 0.09
2 0 4 3.92 0.09
2 0 4 3.84 0.09
-3 0 -4 17.25 0.29
-3 0 -4 16.74 0.29
-3 0 -4 17.31 0.28
-3 0 -4 16.86 0.31
3 0 4 17.21 0.3
3 0 4 17.19 0.29
3 0 4 16.51 0.31
-4 0 -4 16.22 0.26
-4 0 -4 16.05 0.28
-4 0 -4 15.69 0.28
-4 0 -4 15.73 0.31
4 0 4 15.8 0.28
4 0 4 16.09 0.3
4 0 4 15.89 0.29
-5 0 -4 10.08 0.23
-5 0 -4 10.35 0.2
5 0 4 10.04 0.2
5 0 4 9.95 0.22
-6 0 -4 14.64 0.32
-6 0 -4 15.19 0.28
6 0 4 15.2 0.32
6 0 4 14.3 0.28
-7 0 -4 0.05 0.04
-7 0 -4 0.03 0.02
7 0 4 0.06 0.03
7 0 4 0.08 0.04
-8 0 -4 0.01 0.02
-8 0 -4 0.01 0.04
8 0 4 -0.01 0.04
8 0 4 0.02 0.02
-9 0 -4 1.13 0.06
-9 0 -4 1.12 0.1
9 0 4 0.97 0.09
9 0 4 1.08 0.08
-10 0 -4 0.19 0.06
-10 0 -4 0.36 0.04
10 0 4 0.18 0.05
10 0 4 0.23 0.05
10 -1 -4 0.46 0.08
10 -1 -4 0.56 0.07
-10 1 4 0.52 0.06
-10 1 4 0.56 0.08
9 -1 -4 -0.02 0.03
9 -1 -4 -0.03 0.04
-9 1 4 0 0.03
-9 1 4 0.01 0.03
8 -1 -4 0.05 0.04
8 -1 -4 0.1 0.03
-8 1 4 0.08 0.04
-8 1 4 0.07 0.03
7 -1 -4 0 0.03
7 -1 -4 0.03 0.03
-7 1 4 0 0.02
-7 1 4 0.04 0.03
6 -1 -4 24.97 0.48
6 -1 -4 25.31 0.43
6 -1 -4 25.48 0.45
-6 1 4 24.96 0.48
-6 1 4 25.28 0.45
-6 1 4 24.54 0.46
5 -1 -4 1.53 0.06
5 -1 -4 1.27 0.06
-5 1 4 1.48 0.06
-5 1 4 1.39 0.07
-5 1 4 1.42 0.07
4 -1 -4 0.81 0.05
4 -1 -4 0.86 0.04
4 -1 -4 0.77 0.05
-4 1 4 0.89 0.05
-4 1 4 0.83 0.05
-4 1 4 0.74 0.04
3 -1 -4 0.17 0.02
3 -1 -4 0.17 0.02
3 -1 -4 0.16 0.02
-3 1 4 0.19 0.03
-3 1 4 0.17 0.02
-3 1 4 0.13 0.02
-3 1 4 0.13 0.02
2 -1 -4 -0.01 0.01
2 -1 -4 0.02 0.02
2 -1 -4 -0.03 0.01
-2 1 4 0.01 0.01
-2 1 4 0 0.01
-2 1 4 0 0.01
-2 1 4 0.06 0.02
1 -1 -4 11.28 0.2
1 -1 -4 10.97 0.2
1 -1 -4 10.79 0.2
-1 1 4 11.14 0.2
-1 1 4 11.02 0.19
-1 1 4 11.32 0.19
-1 1 4 11.2 0.2
0 -1 -4 7.44 0.15
0 -1 -4 7.68 0.14
0 1 4 7.97 0.13
0 1 4 7.65 0.14
0 1 4 7.7 0.14
0 1 4 7.52 0.14
-1 -1 -4 398.04 6.21
-1 -1 -4 387.81 6.12
-1 -1 -4 401.39 6.18
-1 -1 -4 395.82 7.61
1 1 4 410.16 6.12
1 1 4 395.52 6.14
1 1 4 377.93 6.12
-2 -1 -4 66.2 1.03
-2 -1 -4 66.76 1.05
-2 -1 -4 67.02 1.03
-2 -1 -4 65.43 1.08
2 1 4 65.67 1.09
2 1 4 66.04 1.06
2 1 4 65.56 1.03
-3 -1 -4 0.92 0.04
-3 -1 -4 0.85 0.03
-3 -1 -4 0.87 0.05
-3 -1 -4 0.89 0.04
3 1 4 0.87 0.03
3 1 4 0.9 0.04
3 1 4 0.84 0.04
-4 -1 -4 5.87 0.12
-4 -1 -4 6.21 0.12
-4 -1 -4 5.91 0.15
-4 -1 -4 6.04 0.12
4 1 4 5.97 0.15
4 1 4 6.17 0.13
4 1 4 6.17 0.13
-5 -1 -4 4.7 0.14
-5 -1 -4 4.85 0.11
-5 -1 -4 4.76 0.1
5 1 4 4.8 0.14
5 1 4 4.67 0.11
5 1 4 4.86 0.11
-6 -1 -4 0.46 0.06
-6 -1 -4 0.46 0.03
6 1 4 0.56 0.06
6 1 4 0.44 0.04
-7 -1 -4 0.29 0.05
7 1 4 0.33 0.05
7 1 4 0.38 0.04
-8 -1 -4 3.02 0.09
-8 -1 -4 3.12 0.14
8 1 4 2.93 0.13
8 1 4 2.94 0.1
-9 -1 -4 1.88 0.07
-9 -1 -4 1.97 0.13
9 1 4 1.88 0.12
9 1 4 1.71 0.09
-10 -1 -4 0 0.05
-10 -1 -4 -0.01 0.02
10 1 4 -0.02 0.05
10 1 4 0 0.03
10 -2 -4 0.32 0.07
10 -2 -4 0.35 0.06
-10 2 4 0.35 0.05
-10 2 4 0.35 0.07
9 -2 -4 1.59 0.1
9 -2 -4 1.6 0.11
-9 2 4 1.53 0.11
-9 2 4 1.37 0.09
8 -2 -4 0.23 0.05
8 -2 -4 0.32 0.06
-8 2 4 0.31 0.05
-8 2 4 0.35 0.06
7 -2 -4 1.61 0.09
7 -2 -4 1.43 0.09
-7 2 4 1.49 0.09
-7 2 4 1.31 0.08
6 -2 -4 0.24 0.03
6 -2 -4 0.29 0.05
6 -2 -4 0.27 0.04
-6 2 4 0.21 0.04
-6 2 4 0.23 0.04
5 -2 -4 -0.01 0.02
5 -2 -4 0.01 0.02
5 -2 -4 0.01 0.02
-5 2 4 -0.02 0.02
-5 2 4 0 0.02
4 -2 -4 176.43 2.83
4 -2 -4 174.54 2.69
4 -2 -4 175.62 2.76
4 -2 -4 173.49 2.84
-4 2 4 170.66 2.85
-4 2 4 176.18 2.77
-4 2 4 167.13 2.72
-4 2 4 176.27 2.78
3 -2 -4 8.53 0.17
3 -2 -4 8.43 0.18
3 -2 -4 8.87 0.18
-3 2 4 8.57 0.17
-3 2 4 8.49 0.18
-3 2 4 8.56 0.18
-3 2 4 8.47 0.18
2 -2 -4 2.16 0.07
2 -2 -4 2.03 0.07
2 -2 -4 1.93 0.07
-2 2 4 1.98 0.06
-2 2 4 1.99 0.06
-2 2 4 1.92 0.06
-2 2 4 2.13 0.06
1 -2 -4 4.55 0.1
1 -2 -4 4.7 0.1
1 -2 -4 4.44 0.11
-1 2 4 4.4 0.1
-1 2 4 4.73 0.09
-1 2 4 4.46 0.1
-1 2 4 4.62 0.1
0 -2 -4 56.87 0.89
0 -2 -4 55.46 0.9
0 2 4 56.49 0.93
0 2 4 57.24 0.93
0 2 4 57.43 0.88
0 2 4 56.77 0.89
-1 -2 -4 17.21 0.31
-1 -2 -4 17.55 0.29
-1 -2 -4 17.35 0.31
-1 -2 -4 17.55 0.29
1 2 4 17.34 0.29
1 2 4 17.25 0.31
1 2 4 17.79 0.28
1 2 4 17.5 0.29
-2 -2 -4 3.55 0.09
-2 -2 -4 3.71 0.08
-2 -2 -4 3.7 0.1
-2 -2 -4 3.57 0.08
2 2 4 3.69 0.08
2 2 4 3.68 0.08
2 2 4 3.68 0.08
-3 -2 -4 1.59 0.04
-3 -2 -4 1.65 0.07
-3 -2 -4 1.64 0.05
-3 -2 -4 1.65 0.06
3 2 4 1.63 0.05
3 2 4 1.8 0.05
3 2 4 1.6 0.06
-4 -2 -4 32.07 0.51
-4 -2 -4 32.71 0.54
-4 -2 -4 31.72 0.51
4 2 4 32.27 0.55
4 2 4 32.14 0.52
4 2 4 32.09 0.52
-5 -2 -4 3.73 0.08
-5 -2 -4 3.86 0.1
-5 -2 -4 3.73 0.13
-5 -2 -4 3.85 0.08
5 2 4 3.76 0.09
5 2 4 3.72 0.12
5 2 4 3.8 0.09
-6 -2 -4 2.46 0.06
-6 -2 -4 2.49 0.11
-6 -2 -4 2.54 0.06
6 2 4 2.53 0.11
6 2 4 2.61 0.08
-7 -2 -4 1.12 0.09
-7 -2 -4 1.2 0.04
-7 -2 -4 1.12 0.04
7 2 4 1.09 0.08
7 2 4 1.13 0.06
-8 -2 -4 3.3 0.15
8 2 4 2.94 0.1
8 2 4 3.15 0.14
-9 -2 -4 0.08 0.05
9 2 4 0.01 0.02
9 2 4 0 0.04
-10 -2 -4 0.36 0.08
10 2 4 0.25 0.06
10 2 4 0.4 0.05
10 -3 -4 -0.01 0.04
10 -3 -4 0.01 0.04
-10 3 4 -0.06 0.03
-10 3 4 -0.01 0.03
9 -3 -4 0.02 0.04
9 -3 -4 -0.03 0.03
-9 3 4 -0.01 0.03
-9 3 4 0.03 0.04
8 -3 -4 0.5 0.06
8 -3 -4 0.34 0.06
-8 3 4 0.4 0.05
-8 3 4 0.34 0.06
7 -3 -4 1.2 0.08
7 -3 -4 1.22 0.08
-7 3 4 1.21 0.08
-7 3 4 1.28 0.09
6 -3 -4 1.9 0.09
6 -3 -4 1.92 0.07
6 -3 -4 1.9 0.09
-6 3 4 1.99 0.1
-6 3 4 1.92 0.09
5 -3 -4 19.64 0.38
5 -3 -4 20.04 0.38
5 -3 -4 20.09 0.36
-5 3 4 20.1 0.38
-5 3 4 19.37 0.38
4 -3 -4 0.03 0.02
4 -3 -4 0.03 0.02
4 -3 -4 0.03 0.02
4 -3 -4 0.04 0.02
-4 3 4 0.07 0.02
-4 3 4 0.05 0.02
-4 3 4 0.09 0.03
3 -3 -4 15.42 0.3
3 -3 -4 15.99 0.3
3 -3 -4 15.65 0.29
3 -3 -4 15.81 0.28
-3 3 4 15.6 0.3
-3 3 4 15.69 0.3
-3 3 4 15.15 0.29
2 -3 -4 18.08 0.33
2 -3 -4 18.03 0.33
2 -3 -4 18 0.33
2 -3 -4 18.26 0.3
-2 3 4 18.7 0.33
-2 3 4 18.53 0.33
-2 3 4 18.41 0.33
1 -3 -4 25.1 0.44
1 -3 -4 25.25 0.39
1 -3 -4 25.62 0.43
1 -3 -4 24.8 0.43
-1 3 4 24.71 0.43
-1 3 4 25.72 0.43
-1 3 4 25.11 0.43
0 -3 -4 84.23 1.32
0 -3 -4 87.12 1.31
0 -3 -4 85.85 1.34
0 3 4 83.54 1.39
0 3 4 81.26 1.32
-1 -3 -4 7.45 0.14
-1 -3 -4 7.41 0.14
-1 -3 -4 7.53 0.17
1 3 4 7.14 0.14
1 3 4 7.65 0.12
1 3 4 7.31 0.14
1 3 4 7.26 0.16
-2 -3 -4 25.77 0.43
-2 -3 -4 26.18 0.46
-2 -3 -4 26.1 0.46
-2 -3 -4 27.26 0.43
2 3 4 26.69 0.43
2 3 4 26.89 0.43
2 3 4 27.34 0.43
-3 -3 -4 4.02 0.08
-3 -3 -4 3.95 0.11
-3 -3 -4 3.84 0.12
-3 -3 -4 3.8 0.08
3 3 4 3.94 0.09
3 3 4 3.84 0.1
3 3 4 3.88 0.08
-4 -3 -4 54.17 0.83
-4 -3 -4 53.74 0.83
-4 -3 -4 53.25 0.9
-4 -3 -4 54.3 0.88
4 3 4 54.18 0.84
4 3 4 53.22 0.88
4 3 4 54.01 0.85
-5 -3 -4 0.01 0.02
-5 -3 -4 0.01 0.03
5 3 4 0.03 0.02
5 3 4 0.01 0.01
5 3 4 0.01 0.01
-6 -3 -4 3.44 0.13
6 3 4 3.35 0.12
6 3 4 3.44 0.09
-7 -3 -4 1.55 0.1
7 3 4 1.58 0.09
7 3 4 1.6 0.06
-8 -3 -4 2.73 0.13
8 3 4 2.93 0.13
8 3 4 2.83 0.09
-9 -3 -4 0.11 0.05
9 3 4 0.1 0.05
9 3 4 0.11 0.03
9 -4 -4 0.46 0.07
9 -4 -4 0.5 0.07
-9 4 4 0.37 0.07
-9 4 4 0.39 0.06
8 -4 -4 1.31 0.09
8 -4 -4 1.35 0.1
-8 4 4 1.41 0.1
-8 4 4 1.37 0.09
7 -4 -4 0.84 0.08
7 -4 -4 0.82 0.07
-7 4 4 0.79 0.08
-7 4 4 0.91 0.08
6 -4 -4 0.47 0.05
6 -4 -4 0.47 0.05
-6 4 4 0.39 0.05
-6 4 4 0.58 0.06
5 -4 -4 9.28 0.21
5 -4 -4 9.53 0.22
5 -4 -4 9.12 0.21
-5 4 4 9.33 0.22
-5 4 4 9.43 0.23
4 -4 -4 1.27 0.07
4 -4 -4 1.29 0.07
4 -4 -4 1.3 0.06
4 -4 -4 1.27 0.07
-4 4 4 1.15 0.07
-4 4 4 1.27 0.07
-4 4 4 1.25 0.07
3 -4 -4 27.93 0.49
3 -4 -4 27.39 0.48
3 -4 -4 27.16 0.48
3 -4 -4 27.46 0.45
-3 4 4 26.75 0.49
-3 4 4 26.75 0.48
-3 4 4 27.46 0.48
2 -4 -4 8.54 0.2
2 -4 -4 8.48 0.19
2 -4 -4 8.26 0.18
2 -4 -4 8.48 0.15
-2 4 4 8.81 0.19
-2 4 4 8.63 0.19
-2 4 4 8.62 0.19
1 -4 -4 0 0.02
1 -4 -4 0.02 0.02
1 -4 -4 0 0.01
-1 4 4 0 0.02
-1 4 4 0.04 0.02
-1 4 4 0.02 0.02
0 -4 -4 0.14 0.02
0 -4 -4 0.11 0.02
0 -4 -4 0.13 0.03
0 4 4 0.12 0.02
0 4 4 0.14 0.03
-1 -4 -4 5.41 0.12
-1 -4 -4 5.36 0.12
-1 -4 -4 5.2 0.14
1 4 4 5.39 0.12
1 4 4 5.47 0.09
1 4 4 5.42 0.12
1 4 4 5.57 0.14
-2 -4 -4 1.23 0.04
-2 -4 -4 1.3 0.05
-2 -4 -4 1.29 0.07
2 4 4 1.24 0.05
2 4 4 1.29 0.05
2 4 4 1.15 0.06
2 4 4 1.34 0.04
-3 -4 -4 0.43 0.02
-3 -4 -4 0.45 0.02
-3 -4 -4 0.36 0.04
-3 -4 -4 0.39 0.04
3 4 4 0.49 0.03
3 4 4 0.35 0.04
3 4 4 0.45 0.03
3 4 4 0.4 0.03
-4 -4 -4 7.79 0.19
-4 -4 -4 7.58 0.19
4 4 4 7.56 0.17
4 4 4 7.79 0.15
4 4 4 7.48 0.15
-5 -4 -4 0.01 0.03
-5 -4 -4 -0.01 0.02
5 4 4 -0.01 0.02
5 4 4 -0.01 0.01
-6 -4 -4 0.01 0.03
6 4 4 0 0.02
6 4 4 0 0.01
-7 -4 -4 3.25 0.14
7 4 4 2.87 0.08
7 4 4 3.11 0.13
-8 -4 -4 0.69 0.08
8 4 4 0.72 0.04
8 4 4 0.92 0.08
-9 -4 -4 0.69 0.09
9 4 4 0.57 0.04
9 4 4 0.67 0.08
-9 5 4 0.01 0.04
-9 5 4 0.01 0.04
-8 5 4 0.59 0.08
-8 5 4 0.68 0.08
7 -5 -4 0.49 0.06
-7 5 4 0.5 0.07
-7 5 4 0.52 0.07
6 -5 -4 0.48 0.05
-6 5 4 0.42 0.06
-6 5 4 0.5 0.06
5 -5 -4 0.96 0.06
5 -5 -4 0.95 0.07
-5 5 4 1.16 0.08
-5 5 4 0.96 0.07
4 -5 -4 16.46 0.34
4 -5 -4 16.19 0.33
-4 5 4 16.7 0.34
-4 5 4 16.29 0.33
-4 5 4 16.51 0.34
3 -5 -4 0.45 0.05
3 -5 -4 0.42 0.05
-3 5 4 0.49 0.05
-3 5 4 0.5 0.05
-3 5 4 0.38 0.05
2 -5 -4 0.01 0.02
2 -5 -4 0.03 0.03
-2 5 4 0 0.02
-2 5 4 0 0.02
1 -5 -4 12.88 0.26
1 -5 -4 12.6 0.27
-1 5 4 12.21 0.25
0 -5 -4 5.54 0.16
0 -5 -4 5.51 0.14
0 5 4 5.24 0.13
-1 -5 -4 3.56 0.1
-1 -5 -4 3.84 0.13
1 5 4 3.57 0.1
1 5 4 3.91 0.11
-2 -5 -4 4.56 0.1
-2 -5 -4 4.55 0.11
-2 -5 -4 4.4 0.14
2 5 4 4.66 0.11
2 5 4 4.53 0.13
-3 -5 -4 8.65 0.16
-3 -5 -4 8.67 0.16
-3 -5 -4 8.95 0.22
3 5 4 8.8 0.17
3 5 4 8.93 0.21
-4 -5 -4 0.04 0.03
4 5 4 0.11 0.04
4 5 4 0.05 0.02
-5 -5 -4 0.08 0.04
-5 -5 -4 0 0.03
5 5 4 0.01 0.01
-6 -5 -4 5.1 0.17
6 5 4 5.15 0.11
-7 -5 -4 3.62 0.15
7 5 4 3.56 0.09
-8 -5 -4 0.3 0.06
-8 6 4 0.06 0.05
-7 6 4 0.3 0.06
-6 6 4 0 0.03
5 -6 -4 0.74 0.07
-5 6 4 0.71 0.08
4 -6 -4 0.21 0.04
4 -6 -4 0.13 0.04
-4 6 4 0.18 0.04
-4 6 4 0.13 0.04
3 -6 -4 1.94 0.1
3 -6 -4 1.9 0.09
-3 6 4 1.81 0.09
-3 6 4 1.96 0.09
2 -6 -4 1.84 0.09
2 -6 -4 1.73 0.09
-2 6 4 1.7 0.08
-2 6 4 1.77 0.09
1 -6 -4 0.15 0.04
1 -6 -4 0.19 0.04
-1 6 4 0.14 0.03
-1 6 4 0.16 0.04
0 -6 -4 1.55 0.07
0 -6 -4 1.42 0.09
0 6 4 1.48 0.07
-1 -6 -4 1.17 0.08
-1 -6 -4 1.37 0.06
1 6 4 1.38 0.06
1 6 4 1.43 0.07
-2 -6 -4 1.87 0.07
-2 -6 -4 1.91 0.1
2 6 4 1.79 0.07
2 6 4 1.83 0.09
-3 -6 -4 4.22 0.09
-3 -6 -4 4.31 0.09
-3 -6 -4 4.23 0.15
3 6 4 4.42 0.14
3 6 4 4.18 0.11
-4 -6 -4 0.23 0.05
4 6 4 0.16 0.02
4 6 4 0.17 0.04
-5 -6 -4 1.87 0.11
5 6 4 1.71 0.1
5 6 4 1.82 0.06
6 6 4 0.05 0.02
6 6 4 0.09 0.04
7 6 4 1.43 0.05
7 6 4 1.35 0.1
-8 -6 -4 0 0.04
8 6 4 0.01 0.01
8 6 4 -0.02 0.04
-8 7 4 -0.01 0.05
-7 7 4 0.07 0.05
-6 7 4 -0.05 0.03
5 -7 -4 1.7 0.1
-5 7 4 1.66 0.11
4 -7 -4 0.84 0.08
4 -7 -4 0.94 0.09
-4 7 4 0.8 0.08
3 -7 -4 0.04 0.03
3 -7 -4 0.08 0.04
-3 7 4 0.02 0.03
-3 7 4 -0.03 0.03
2 -7 -4 6.74 0.19
2 -7 -4 6.63 0.2
-2 7 4 6.8 0.19
-2 7 4 6.71 0.19
1 -7 -4 0.02 0.03
1 -7 -4 0.01 0.03
-1 7 4 0.02 0.03
-1 7 4 0.04 0.03
0 -7 -4 1.81 0.1
0 -7 -4 1.52 0.08
0 7 4 1.62 0.08
0 7 4 1.75 0.09
-1 -7 -4 0.03 0.04
-1 -7 -4 0.04 0.02
1 7 4 0.05 0.03
1 7 4 0.05 0.02
-2 -7 -4 7.88 0.17
-2 -7 -4 8.25 0.24
2 7 4 7.98 0.21
2 7 4 8.13 0.19
-3 -7 -4 2.35 0.13
-3 -7 -4 2.38 0.06
3 7 4 2.22 0.1
3 7 4 2.41 0.09
-4 -7 -4 0.07 0.04
4 7 4 0.06 0.04
4 7 4 0.04 0.02
-5 -7 -4 4.18 0.16
5 7 4 4.01 0.11
5 7 4 3.94 0.15
-6 -7 -4 0.6 0.08
6 7 4 0.42 0.07
6 7 4 0.48 0.04
7 7 4 0.03 0.04
7 7 4 0.02 0.01
-7 8 4 -0.02 0.04
-6 8 4 0.13 0.06
5 -8 -4 1.13 0.09
-5 8 4 1.28 0.11
4 -8 -4 0.72 0.08
4 -8 -4 0.47 0.07
-4 8 4 0.74 0.08
3 -8 -4 0.47 0.06
3 -8 -4 0.59 0.08
-3 8 4 0.66 0.08
-3 8 4 0.69 0.08
2 -8 -4 1.87 0.11
2 -8 -4 1.62 0.1
-2 8 4 1.61 0.1
-2 8 4 1.79 0.1
1 -8 -4 3.37 0.13
1 -8 -4 3.31 0.15
-1 8 4 3.41 0.13
-1 8 4 3.33 0.14
0 -8 -4 1.05 0.1
0 -8 -4 1.01 0.07
0 8 4 1.15 0.08
0 8 4 1.15 0.08
-1 -8 -4 0.01 0.04
-1 -8 -4 0.03 0.03
1 8 4 0 0.03
1 8 4 -0.01 0.03
-2 -8 -4 0 0.02
-2 -8 -4 0.02 0.05
2 8 4 -0.05 0.03
2 8 4 0.04 0.03
-3 -8 -4 0.04 0.05
-3 -8 -4 0.1 0.02
3 8 4 0.1 0.04
3 8 4 0.08 0.03
-4 -8 -4 0 0.04
4 8 4 0.03 0.04
4 8 4 0.03 0.02
-5 -8 -4 1.66 0.12
5 8 4 1.4 0.1
5 8 4 1.32 0.06
6 8 4 0.83 0.09
6 8 4 0.84 0.05
-5 9 4 0.09 0.05
4 -9 -4 0.89 0.09
4 -9 -4 0.97 0.1
-4 9 4 0.77 0.09
3 -9 -4 1.86 0.12
3 -9 -4 1.51 0.12
-3 9 4 1.53 0.11
-3 9 4 1.41 0.11
2 -9 -4 0.63 0.09
2 -9 -4 0.88 0.09
-2 9 4 0.78 0.08
-2 9 4 0.82 0.09
1 -9 -4 0.39 0.08
1 -9 -4 0.4 0.06
-1 9 4 0.49 0.07
-1 9 4 0.4 0.06
0 -9 -4 0.7 0.09
0 -9 -4 0.58 0.06
0 9 4 0.81 0.08
0 9 4 0.66 0.07
-1 -9 -4 4.33 0.14
-1 -9 -4 4.18 0.19
1 9 4 4.07 0.15
1 9 4 4.26 0.16
-2 -9 -4 0.43 0.08
-2 -9 -4 0.49 0.04
2 9 4 0.56 0.06
2 9 4 0.47 0.06
-3 -9 -4 0.06 0.05
3 9 4 0.01 0.03
3 9 4 0.06 0.04
-4 -9 -4 -0.06 0.04
4 9 4 0.01 0.04
4 9 4 -0.02 0.02
3 -10 -4 0.56 0.08
2 -10 -4 1.39 0.11
2 -10 -4 1.48 0.13
-2 10 4 1.62 0.12
-2 10 4 1.45 0.11
1 -10 -4 0.33 0.06
1 -10 -4 0.31 0.07
-1 10 4 0.34 0.07
-1 10 4 0.41 0.07
0 -10 -4 2.1 0.11
0 -10 -4 2.18 0.14
0 10 4 2.19 0.13
0 10 4 1.98 0.12
-1 -10 -4 0.09 0.03
-1 -10 -4 0.14 0.06
1 10 4 0.17 0.05
1 10 4 0.15 0.05
3 10 -5 -0.01 0.03
-3 -10 5 -0.07 0.04
2 10 -5 0.11 0.04
-2 -10 5 0.07 0.03
-2 -10 5 0.06 0.05
1 10 -5 0.14 0.05
-1 -10 5 0.13 0.04
-1 -10 5 0.13 0.05
0 10 -5 0.01 0.04
0 -10 5 -0.03 0.04
0 -10 5 0.03 0.03
-1 10 -5 0.05 0.04
1 -10 5 0.03 0.04
1 -10 5 0.09 0.04
-2 10 -5 0.18 0.05
2 -10 5 0.1 0.04
2 -10 5 0.14 0.06
-3 10 -5 0.28 0.06
3 -10 5 0.35 0.07
3 -10 5 0.28 0.06
-4 10 -5 0.11 0.05
4 -10 5 -0.01 0.04
5 9 -5 0.18 0.06
5 9 -5 0.14 0.03
4 9 -5 0.01 0.02
-4 -9 5 -0.01 0.04
3 9 -5 0.48 0.06
-3 -9 5 0.53 0.08
-3 -9 5 0.44 0.03
2 9 -5 -0.02 0.03
-2 -9 5 0.07 0.05
-2 -9 5 -0.02 0.02
1 9 -5 0.24 0.05
-1 -9 5 0.22 0.06
-1 -9 5 0.25 0.04
0 9 -5 0 0.03
0 -9 5 0.04 0.04
0 -9 5 -0.01 0.03
-1 9 -5 2.21 0.12
1 -9 5 2.41 0.12
1 -9 5 2.33 0.13
-2 9 -5 1.16 0.1
-2 9 -5 1.22 0.08
2 -9 5 1.02 0.09
2 -9 5 1.21 0.09
-3 9 -5 0.47 0.07
-3 9 -5 0.49 0.07
3 -9 5 0.47 0.07
3 -9 5 0.52 0.07
-4 9 -5 0.68 0.08
4 -9 5 0.82 0.09
-5 9 -5 0.77 0.09
-6 9 -5 -0.01 0.04
6 8 -5 1.49 0.12
6 8 -5 1.48 0.06
5 8 -5 0.28 0.06
5 8 -5 0.29 0.04
4 8 -5 1.68 0.08
-4 -8 5 1.81 0.12
3 8 -5 2.46 0.1
-3 -8 5 2.46 0.07
-3 -8 5 2.47 0.14
2 8 -5 5.15 0.15
-2 -8 5 5.34 0.19
-2 -8 5 5.06 0.13
1 8 -5 3.34 0.13
-1 -8 5 3.61 0.12
-1 -8 5 3.57 0.15
0 8 -5 0.56 0.06
0 8 -5 0.42 0.05
0 -8 5 0.38 0.06
0 -8 5 0.47 0.05
-1 8 -5 0.44 0.06
-1 8 -5 0.56 0.06
1 -8 5 0.53 0.07
1 -8 5 0.5 0.06
-2 8 -5 1.04 0.09
-2 8 -5 0.98 0.07
2 -8 5 1.02 0.08
2 -8 5 1.02 0.08
-3 8 -5 7.78 0.22
-3 8 -5 7.92 0.23
3 -8 5 7.89 0.22
3 -8 5 8.3 0.23
-4 8 -5 1.13 0.09
4 -8 5 1.18 0.1
-5 8 -5 -0.02 0.04
-6 8 -5 0.09 0.05
-7 8 -5 0.5 0.08
7 7 -5 1.37 0.11
7 7 -5 1.28 0.05
-7 -7 5 1.61 0.11
6 7 -5 0.6 0.04
6 7 -5 0.63 0.08
-6 -7 5 0.61 0.08
5 7 -5 0.63 0.04
5 7 -5 0.61 0.08
-5 -7 5 0.65 0.08
4 7 -5 0.83 0.05
-4 -7 5 0.76 0.07
-4 -7 5 0.75 0.08
3 7 -5 3.76 0.11
-3 -7 5 3.64 0.15
-3 -7 5 3.78 0.13
-3 -7 5 3.76 0.09
2 7 -5 29.87 0.53
-2 -7 5 31.32 0.59
-2 -7 5 30.84 0.56
-2 -7 5 29.98 0.51
1 7 -5 0.11 0.03
1 7 -5 0.05 0.03
-1 -7 5 0.14 0.03
-1 -7 5 0.1 0.03
-1 -7 5 0.06 0.04
0 7 -5 13.01 0.28
0 7 -5 12.71 0.26
0 -7 5 13.29 0.27
0 -7 5 13.42 0.28
0 -7 5 13.32 0.31
-1 7 -5 4.08 0.14
-1 7 -5 3.85 0.12
1 -7 5 3.89 0.13
1 -7 5 3.98 0.12
1 -7 5 3.86 0.14
-2 7 -5 0.1 0.03
-2 7 -5 0.08 0.03
2 -7 5 0.13 0.03
2 -7 5 0.14 0.04
2 -7 5 0.13 0.04
-3 7 -5 0.33 0.05
-3 7 -5 0.29 0.05
3 -7 5 0.24 0.05
3 -7 5 0.31 0.05
3 -7 5 0.22 0.04
-4 7 -5 1.02 0.08
4 -7 5 1.07 0.09
4 -7 5 1.12 0.08
-5 7 -5 3.31 0.14
5 -7 5 2.93 0.12
-6 7 -5 0.06 0.04
6 -7 5 0.03 0.04
-7 7 -5 0.01 0.04
7 -7 5 0.02 0.04
-8 7 -5 0.21 0.06
8 -7 5 0.27 0.06
8 6 -5 0.04 0.01
-8 -6 5 0.13 0.05
7 6 -5 4.6 0.17
7 6 -5 4.55 0.1
-7 -6 5 4.71 0.19
6 6 -5 0.32 0.06
6 6 -5 0.24 0.03
-6 -6 5 0.23 0.06
5 6 -5 2.31 0.12
5 6 -5 2.19 0.07
-5 -6 5 2.33 0.11
4 6 -5 0.25 0.05
4 6 -5 0.29 0.03
-4 -6 5 0.17 0.05
-4 -6 5 0.26 0.05
3 6 -5 0 0.02
-3 -6 5 0.04 0.02
-3 -6 5 0.06 0.03
-3 -6 5 0.01 0.03
-3 -6 5 0.03 0.01
2 6 -5 0.67 0.04
2 6 -5 0.62 0.05
-2 -6 5 0.67 0.06
-2 -6 5 0.55 0.06
-2 -6 5 0.69 0.04
1 6 -5 16.45 0.32
1 6 -5 16.71 0.3
-1 -6 5 16.72 0.31
-1 -6 5 16.74 0.33
-1 -6 5 17.02 0.35
0 6 -5 50.18 0.84
0 6 -5 50.51 0.82
0 -6 5 50.49 0.84
0 -6 5 50.49 0.84
0 -6 5 51.69 0.87
-1 6 -5 5.3 0.15
-1 6 -5 5.11 0.13
1 -6 5 5.19 0.15
1 -6 5 5.06 0.14
1 -6 5 4.85 0.14
-2 6 -5 7.62 0.18
-2 6 -5 7.48 0.19
2 -6 5 7.52 0.19
2 -6 5 7.55 0.19
2 -6 5 7.41 0.18
-3 6 -5 0.24 0.04
-3 6 -5 0.16 0.03
3 -6 5 0.22 0.04
3 -6 5 0.19 0.04
3 -6 5 0.18 0.03
-4 6 -5 0.34 0.05
4 -6 5 0.34 0.05
4 -6 5 0.37 0.05
4 -6 5 0.39 0.04
-5 6 -5 0.28 0.06
5 -6 5 0.32 0.05
-6 6 -5 -0.01 0.04
6 -6 5 -0.05 0.03
-7 6 -5 0.06 0.05
7 -6 5 0.01 0.04
-8 6 -5 0.06 0.05
8 -6 5 0.12 0.05
9 5 -5 1.41 0.06
-9 -5 5 1.33 0.12
8 5 -5 2.65 0.08
-8 -5 5 2.66 0.15
7 5 -5 0.75 0.04
7 5 -5 0.81 0.07
-7 -5 5 0.72 0.08
6 5 -5 0 0.02
6 5 -5 -0.01 0.03
-6 -5 5 0.01 0.04
5 5 -5 0 0.03
5 5 -5 0.03 0.02
-5 -5 5 0.03 0.03
4 5 -5 3.18 0.09
4 5 -5 3.04 0.08
4 5 -5 3.01 0.12
4 5 -5 2.95 0.08
-4 -5 5 3.17 0.12
3 5 -5 1.84 0.06
3 5 -5 1.88 0.06
3 5 -5 1.88 0.06
-3 -5 5 1.9 0.09
-3 -5 5 1.88 0.05
-3 -5 5 1.65 0.09
-3 -5 5 1.85 0.05
2 5 -5 9.02 0.17
2 5 -5 8.89 0.18
2 5 -5 9.03 0.18
-2 -5 5 8.68 0.21
-2 -5 5 9.32 0.21
-2 -5 5 8.68 0.17
-2 -5 5 9.25 0.17
1 5 -5 11.01 0.2
1 5 -5 10.69 0.22
-1 -5 5 10.73 0.23
-1 -5 5 10.84 0.21
-1 -5 5 10.57 0.21
-1 -5 5 10.54 0.24
0 5 -5 4 0.11
0 5 -5 4.01 0.1
0 -5 5 3.88 0.11
0 -5 5 4.06 0.12
0 -5 5 3.96 0.11
-1 5 -5 5.95 0.14
-1 5 -5 5.79 0.15
-1 5 -5 6.13 0.14
1 -5 5 5.86 0.15
1 -5 5 5.7 0.14
1 -5 5 5.87 0.15
-2 5 -5 0.99 0.06
-2 5 -5 0.92 0.05
-2 5 -5 1.04 0.06
2 -5 5 0.98 0.06
2 -5 5 0.98 0.06
2 -5 5 0.87 0.06
-3 5 -5 10.52 0.24
-3 5 -5 10.8 0.23
-3 5 -5 10.4 0.23
3 -5 5 10.29 0.23
3 -5 5 10.4 0.24
3 -5 5 10.19 0.22
-4 5 -5 2.24 0.1
-4 5 -5 2.21 0.1
-4 5 -5 2.15 0.1
4 -5 5 2.53 0.1
4 -5 5 2.26 0.1
4 -5 5 2.17 0.08
4 -5 5 2.26 0.1
-5 5 -5 0.69 0.07
-5 5 -5 0.82 0.07
5 -5 5 0.66 0.06
5 -5 5 0.8 0.08
-6 5 -5 0.13 0.04
-6 5 -5 0.08 0.03
6 -5 5 0.13 0.04
-7 5 -5 1.45 0.09
-7 5 -5 1.33 0.1
7 -5 5 1.33 0.1
-8 5 -5 0.25 0.05
-8 5 -5 0.45 0.08
8 -5 5 0.28 0.06
-9 5 -5 -0.03 0.03
-9 5 -5 -0.02 0.04
9 -5 5 -0.02 0.04
9 4 -5 0.89 0.05
-9 -4 5 0.93 0.11
8 4 -5 11.67 0.23
-8 -4 5 12.07 0.32
7 4 -5 1.74 0.06
7 4 -5 1.86 0.09
-7 -4 5 1.77 0.11
6 4 -5 9.41 0.23
6 4 -5 9.2 0.18
-6 -4 5 9.34 0.25
5 4 -5 2.15 0.06
5 4 -5 2.17 0.09
5 4 -5 2.14 0.06
-5 -4 5 2.25 0.08
-5 -4 5 2.19 0.11
4 4 -5 3.31 0.11
4 4 -5 3.27 0.08
4 4 -5 3.21 0.08
-4 -4 5 3.08 0.08
-4 -4 5 3.19 0.06
-4 -4 5 3.15 0.06
-4 -4 5 3.17 0.12
3 4 -5 1.79 0.05
3 4 -5 1.83 0.06
3 4 -5 1.73 0.08
3 4 -5 1.75 0.05
-3 -4 5 1.75 0.05
-3 -4 5 1.76 0.08
-3 -4 5 1.83 0.05
2 4 -5 6.79 0.14
2 4 -5 6.75 0.14
2 4 -5 7.09 0.13
2 4 -5 6.95 0.17
-2 -4 5 6.99 0.14
-2 -4 5 6.6 0.17
-2 -4 5 6.74 0.16
-2 -4 5 6.85 0.13
1 4 -5 9.08 0.18
1 4 -5 8.97 0.18
1 4 -5 9.24 0.16
-1 -4 5 9.43 0.2
-1 -4 5 9.12 0.18
-1 -4 5 9.04 0.19
-1 -4 5 9.19 0.18
0 4 -5 10.86 0.21
0 4 -5 11.1 0.2
0 4 -5 11.15 0.22
0 -4 5 11.12 0.21
0 -4 5 11.02 0.22
0 -4 5 10.93 0.23
0 -4 5 10.53 0.22
-1 4 -5 1.18 0.06
-1 4 -5 1.19 0.05
-1 4 -5 1.13 0.05
1 -4 5 1.12 0.06
1 -4 5 1.15 0.06
1 -4 5 1.22 0.06
1 -4 5 1.16 0.05
-2 4 -5 0.92 0.06
-2 4 -5 0.85 0.05
-2 4 -5 0.93 0.05
2 -4 5 0.99 0.05
2 -4 5 0.94 0.05
2 -4 5 0.9 0.06
2 -4 5 0.89 0.05
-3 4 -5 0.81 0.05
-3 4 -5 0.68 0.05
-3 4 -5 0.66 0.05
3 -4 5 0.74 0.05
3 -4 5 0.67 0.05
3 -4 5 0.76 0.04
3 -4 5 0.69 0.05
-4 4 -5 0.29 0.04
-4 4 -5 0.38 0.04
-4 4 -5 0.4 0.03
-4 4 -5 0.32 0.04
4 -4 5 0.36 0.04
4 -4 5 0.43 0.05
4 -4 5 0.35 0.04
-5 4 -5 1.96 0.1
-5 4 -5 1.87 0.09
5 -4 5 2.1 0.09
5 -4 5 2.15 0.1
-6 4 -5 1.78 0.09
-6 4 -5 1.8 0.1
6 -4 5 1.8 0.1
6 -4 5 1.81 0.09
-7 4 -5 1.7 0.11
-7 4 -5 1.88 0.1
7 -4 5 1.99 0.11
7 -4 5 1.88 0.1
-8 4 -5 2.41 0.13
-8 4 -5 2.47 0.12
8 -4 5 2.68 0.14
8 -4 5 2.51 0.12
-9 4 -5 0 0.04
-9 4 -5 0 0.03
9 -4 5 -0.05 0.04
9 -4 5 -0.02 0.03
10 3 -5 0.19 0.04
10 3 -5 0.21 0.06
9 3 -5 1.81 0.08
-9 -3 5 1.89 0.13
8 3 -5 1.44 0.07
-8 -3 5 1.6 0.12
7 3 -5 0.46 0.04
7 3 -5 0.42 0.05
-7 -3 5 0.42 0.06
6 3 -5 0.38 0.03
6 3 -5 0.41 0.05
-6 -3 5 0.47 0.06
-6 -3 5 0.34 0.04
-6 -3 5 0.41 0.02
-6 -3 5 0.38 0.02
5 3 -5 2.06 0.08
5 3 -5 2.05 0.06
5 3 -5 2.01 0.06
-5 -3 5 2.03 0.05
-5 -3 5 2.09 0.07
-5 -3 5 2.06 0.1
-5 -3 5 2.06 0.05
4 3 -5 2.46 0.09
4 3 -5 2.44 0.06
4 3 -5 2.54 0.07
-4 -3 5 2.47 0.1
-4 -3 5 2.43 0.06
-4 -3 5 2.54 0.07
-4 -3 5 2.51 0.06
3 3 -5 6.39 0.13
3 3 -5 6.21 0.12
3 3 -5 6.3 0.15
-3 -3 5 6.22 0.12
-3 -3 5 6.3 0.12
-3 -3 5 6.47 0.16
-3 -3 5 6.27 0.12
2 3 -5 15.83 0.28
2 3 -5 16 0.25
2 3 -5 15.8 0.27
-2 -3 5 15.38 0.27
-2 -3 5 15.87 0.3
-2 -3 5 16.15 0.27
1 3 -5 8.48 0.17
1 3 -5 8.8 0.17
1 3 -5 9.05 0.15
1 3 -5 9.02 0.19
-1 -3 5 8.73 0.17
-1 -3 5 8.7 0.17
-1 -3 5 8.98 0.18
0 3 -5 14.14 0.23
0 3 -5 14.06 0.26
0 3 -5 13.61 0.25
0 3 -5 13.66 0.25
0 -3 5 13.59 0.25
0 -3 5 14.43 0.26
0 -3 5 13.99 0.25
-1 3 -5 1.9 0.07
-1 3 -5 1.89 0.06
-1 3 -5 1.82 0.06
-1 3 -5 1.9 0.06
1 -3 5 1.89 0.07
1 -3 5 1.95 0.06
1 -3 5 1.87 0.07
-2 3 -5 1.73 0.06
-2 3 -5 1.67 0.06
-2 3 -5 1.64 0.06
2 -3 5 1.7 0.07
2 -3 5 1.79 0.07
2 -3 5 1.66 0.06
-3 3 -5 72.87 1.16
-3 3 -5 72.85 1.13
-3 3 -5 72.13 1.16
-3 3 -5 72.49 1.16
3 -3 5 73.57 1.17
3 -3 5 72.8 1.16
3 -3 5 71.31 1.16
-4 3 -5 8.97 0.16
-4 3 -5 9.36 0.2
-4 3 -5 9.21 0.2
-4 3 -5 9.03 0.21
4 -3 5 8.96 0.21
4 -3 5 9.33 0.21
4 -3 5 9.07 0.2
-5 3 -5 0.28 0.04
-5 3 -5 0.36 0.04
5 -3 5 0.3 0.04
5 -3 5 0.28 0.04
-6 3 -5 1.96 0.1
-6 3 -5 2.12 0.09
6 -3 5 2.17 0.09
6 -3 5 1.88 0.1
-7 3 -5 0.04 0.04
-7 3 -5 0 0.03
7 -3 5 0.04 0.03
7 -3 5 0.01 0.04
-8 3 -5 0.4 0.07
-8 3 -5 0.43 0.06
8 -3 5 0.37 0.06
8 -3 5 0.31 0.06
-9 3 -5 0.13 0.05
-9 3 -5 0.16 0.04
9 -3 5 0.16 0.05
9 -3 5 0.15 0.04
-10 3 -5 0.53 0.09
-10 3 -5 0.59 0.07
10 -3 5 0.58 0.07
10 -3 5 0.48 0.08
10 2 -5 1.24 0.08
10 2 -5 1.27 0.12
9 2 -5 0.81 0.1
9 2 -5 0.9 0.06
-9 -2 5 0.82 0.04
8 2 -5 0.05 0.02
-8 -2 5 0.09 0.02
-8 -2 5 0.09 0.05
7 2 -5 10.2 0.23
7 2 -5 10.18 0.21
-7 -2 5 10.19 0.27
-7 -2 5 10.48 0.19
-7 -2 5 10.44 0.24
6 2 -5 3.25 0.1
6 2 -5 3.09 0.09
-6 -2 5 3.13 0.13
-6 -2 5 3.07 0.08
-6 -2 5 3.21 0.08
-6 -2 5 3.13 0.1
5 2 -5 10 0.19
5 2 -5 9.84 0.19
5 2 -5 9.96 0.21
-5 -2 5 9.81 0.18
-5 -2 5 10.11 0.24
-5 -2 5 9.98 0.18
-5 -2 5 9.94 0.2
4 2 -5 30.58 0.54
4 2 -5 32.36 0.51
4 2 -5 32.15 0.52
-4 -2 5 32.24 0.51
-4 -2 5 31.99 0.52
-4 -2 5 31.45 0.51
-4 -2 5 30.95 0.56
3 2 -5 0.81 0.04
3 2 -5 0.81 0.03
3 2 -5 0.68 0.04
-3 -2 5 0.81 0.03
-3 -2 5 0.8 0.03
-3 -2 5 0.75 0.03
2 2 -5 57.86 0.92
2 2 -5 57.9 0.9
2 2 -5 57.53 0.91
-2 -2 5 57.61 0.9
-2 -2 5 57.67 0.89
-2 -2 5 58.02 0.93
-2 -2 5 57.56 0.93
1 2 -5 11.7 0.22
1 2 -5 11.47 0.21
-1 -2 5 11.98 0.21
-1 -2 5 11.63 0.21
-1 -2 5 11.95 0.22
0 2 -5 40.98 0.61
0 2 -5 39.61 0.63
0 2 -5 38.09 0.63
0 2 -5 38.45 0.63
0 -2 5 38.59 0.63
0 -2 5 40.22 0.63
0 -2 5 39.13 0.63
-1 2 -5 3.7 0.08
-1 2 -5 3.53 0.09
-1 2 -5 3.61 0.08
-1 2 -5 3.68 0.09
1 -2 5 3.69 0.09
1 -2 5 3.6 0.09
1 -2 5 3.67 0.09
-2 2 -5 165.67 2.67
-2 2 -5 160.93 2.6
-2 2 -5 164.37 2.59
-2 2 -5 166.93 2.6
2 -2 5 163.01 2.66
2 -2 5 164.66 2.62
2 -2 5 160.15 2.67
-3 2 -5 0.04 0.02
-3 2 -5 0.01 0.02
-3 2 -5 0.03 0.01
-3 2 -5 0.05 0.02
3 -2 5 0.02 0.02
3 -2 5 0.04 0.02
3 -2 5 0.03 0.02
-4 2 -5 1.54 0.07
-4 2 -5 1.46 0.03
-4 2 -5 1.57 0.07
-4 2 -5 1.36 0.06
4 -2 5 1.56 0.07
4 -2 5 1.39 0.06
4 -2 5 1.43 0.07
-5 2 -5 1.29 0.08
-5 2 -5 1.38 0.07
5 -2 5 1.38 0.07
-6 2 -5 15.47 0.31
-6 2 -5 15.31 0.34
6 -2 5 15.75 0.31
6 -2 5 15.33 0.33
-7 2 -5 4.93 0.17
-7 2 -5 4.88 0.15
7 -2 5 5.01 0.17
7 -2 5 5 0.15
-8 2 -5 2.18 0.12
-8 2 -5 2.16 0.1
8 -2 5 2.2 0.12
8 -2 5 2.27 0.11
-9 2 -5 -0.01 0.04
-9 2 -5 -0.02 0.02
9 -2 5 -0.01 0.03
9 -2 5 0.01 0.04
-10 2 -5 0.03 0.03
-10 2 -5 0.09 0.06
10 -2 5 0.06 0.04
10 -2 5 0.04 0.05
10 1 -5 0.55 0.06
10 1 -5 0.47 0.08
-10 -1 5 0.53 0.04
9 1 -5 1.01 0.1
9 1 -5 1.29 0.08
-9 -1 5 1.27 0.06
8 1 -5 0.69 0.06
-8 -1 5 0.68 0.07
-8 -1 5 0.75 0.09
-8 -1 5 0.67 0.05
7 1 -5 1.06 0.06
-7 -1 5 1.06 0.09
-7 -1 5 1.05 0.07
-7 -1 5 1.13 0.05
6 1 -5 0.15 0.03
6 1 -5 0.12 0.03
-6 -1 5 0.14 0.03
-6 -1 5 0.15 0.04
-6 -1 5 0.13 0.02
5 1 -5 3.36 0.1
5 1 -5 3.32 0.09
5 1 -5 3.47 0.09
-5 -1 5 3.4 0.09
-5 -1 5 3.43 0.12
-5 -1 5 3.38 0.09
-5 -1 5 3.49 0.1
4 1 -5 11.96 0.23
4 1 -5 12.13 0.22
4 1 -5 11.94 0.22
-4 -1 5 11.99 0.22
-4 -1 5 11.84 0.22
-4 -1 5 12.43 0.22
3 1 -5 29.89 0.5
3 1 -5 30.15 0.51
3 1 -5 30.25 0.49
-3 -1 5 30.57 0.49
-3 -1 5 30.19 0.48
-3 -1 5 30.2 0.49
-3 -1 5 30.42 0.52
2 1 -5 1.79 0.06
2 1 -5 1.81 0.06
-2 -1 5 1.79 0.05
-2 -1 5 1.64 0.06
-2 -1 5 1.8 0.05
-2 -1 5 1.83 0.04
1 1 -5 49.7 0.79
1 1 -5 50.97 0.79
1 1 -5 49.71 0.8
-1 -1 5 51.05 0.79
-1 -1 5 50.09 0.78
-1 -1 5 50.27 0.79
0 1 -5 16.74 0.29
0 1 -5 16.76 0.29
0 1 -5 16.92 0.27
0 1 -5 16.56 0.28
0 -1 5 16.46 0.29
0 -1 5 16.76 0.29
-1 1 -5 54.71 0.86
-1 1 -5 54.79 0.85
-1 1 -5 53.38 0.86
-1 1 -5 54.84 0.85
1 -1 5 54.38 0.86
1 -1 5 55.93 0.86
1 -1 5 53.99 0.86
-2 1 -5 125.34 1.95
-2 1 -5 122.84 1.99
-2 1 -5 120.3 2.01
-2 1 -5 123.99 2.02
2 -1 5 124.19 1.96
2 -1 5 123.14 2.03
2 -1 5 121.67 1.98
-3 1 -5 0.1 0.01
-3 1 -5 0.08 0.02
-3 1 -5 0.13 0.02
-3 1 -5 0.12 0.02
3 -1 5 0.1 0.02
3 -1 5 0.07 0.02
3 -1 5 0.09 0.02
-4 1 -5 37.07 0.61
-4 1 -5 36.39 0.63
4 -1 5 36.04 0.61
4 -1 5 37.9 0.63
4 -1 5 37.13 0.61
-5 1 -5 1.72 0.07
-5 1 -5 1.62 0.08
5 -1 5 1.61 0.08
5 -1 5 1.8 0.07
-6 1 -5 18.68 0.35
-6 1 -5 18.5 0.38
6 -1 5 18.72 0.35
6 -1 5 18.68 0.38
-7 1 -5 0.88 0.06
-7 1 -5 0.94 0.08
7 -1 5 0.92 0.08
7 -1 5 0.91 0.06
-8 1 -5 0.98 0.07
-8 1 -5 0.82 0.09
8 -1 5 0.98 0.09
8 -1 5 0.95 0.07
-9 1 -5 1.66 0.12
-9 1 -5 1.65 0.08
9 -1 5 1.74 0.1
9 -1 5 1.83 0.12
-10 1 -5 0.08 0.03
-10 1 -5 -0.02 0.05
10 -1 5 0.05 0.04
10 -1 5 0.07 0.05
10 0 -5 0.02 0.03
10 0 -5 -0.01 0.05
-10 0 5 0.03 0.03
9 0 -5 -0.01 0.04
9 0 -5 0.02 0.03
-9 0 5 -0.03 0.03
-9 0 5 -0.02 0.02
8 0 -5 17.26 0.39
8 0 -5 17.43 0.35
-8 0 5 17.27 0.34
-8 0 5 18.25 0.38
7 0 -5 0.47 0.05
-7 0 5 0.48 0.06
-7 0 5 0.36 0.05
-7 0 5 0.45 0.04
6 0 -5 2.45 0.09
6 0 -5 2.53 0.09
-6 0 5 2.41 0.08
-6 0 5 2.37 0.11
-6 0 5 2.43 0.09
5 0 -5 8.25 0.18
5 0 -5 8.16 0.18
-5 0 5 8.31 0.17
-5 0 5 8.06 0.2
-5 0 5 8.34 0.18
4 0 -5 0.08 0.02
4 0 -5 0.01 0.02
-4 0 5 0.07 0.02
-4 0 5 0.05 0.02
-4 0 5 0.02 0.02
-4 0 5 0.01 0.02
3 0 -5 19.99 0.35
3 0 -5 19.64 0.34
3 0 -5 20.46 0.34
-3 0 5 20.01 0.33
-3 0 5 20.03 0.36
-3 0 5 19.37 0.34
2 0 -5 42 0.67
2 0 -5 42.36 0.68
2 0 -5 41.28 0.67
-2 0 5 41.74 0.67
-2 0 5 42.18 0.67
-2 0 5 41.66 0.66
-2 0 5 42.48 0.68
1 0 -5 281.01 4.36
1 0 -5 271.7 4.4
1 0 -5 280.14 4.37
-1 0 5 279.08 4.35
-1 0 5 275.42 4.38
-1 0 5 275.48 4.35
-1 0 5 272.99 5.16
0 0 -5 7.23 0.14
0 0 -5 7.35 0.14
0 0 -5 7.34 0.14
0 0 -5 7.39 0.13
0 0 5 7.35 0.14
0 0 5 7.34 0.14
0 0 5 7.3 0.14
-1 0 -5 1.22 0.04
-1 0 -5 1.18 0.04
-1 0 -5 1.14 0.04
-1 0 -5 1.2 0.04
1 0 5 1.23 0.05
1 0 5 1.27 0.04
1 0 5 1.17 0.04
-2 0 -5 24.26 0.4
-2 0 -5 24.05 0.39
-2 0 -5 24.35 0.41
2 0 5 23.85 0.4
2 0 5 24.65 0.41
2 0 5 23.59 0.4
-3 0 -5 28.64 0.49
-3 0 -5 29.79 0.49
-3 0 -5 29.89 0.47
-3 0 -5 29.99 0.51
3 0 5 29.63 0.5
3 0 5 30.08 0.49
3 0 5 29.73 0.49
-4 0 -5 0.01 0.01
-4 0 -5 0.04 0.01
-4 0 -5 0 0.02
-4 0 -5 0.01 0.01
4 0 5 0.03 0.02
4 0 5 0.05 0.02
4 0 5 0.02 0.01
-5 0 -5 -0.01 0.03
-5 0 -5 0 0.01
5 0 5 0.01 0.02
5 0 5 0.04 0.02
-6 0 -5 4.53 0.15
-6 0 -5 4.9 0.12
6 0 5 4.73 0.13
6 0 5 5 0.15
-7 0 -5 0.96 0.08
-7 0 -5 1 0.06
7 0 5 0.97 0.06
7 0 5 0.99 0.08
-8 0 -5 0.1 0.03
-8 0 -5 0.12 0.05
8 0 5 0.08 0.04
8 0 5 0.11 0.03
-9 0 -5 5.64 0.21
-9 0 -5 5.22 0.14
9 0 5 5.48 0.2
9 0 5 5.49 0.17
-10 0 -5 0.4 0.04
-10 0 -5 0.29 0.07
10 0 5 0.42 0.08
10 0 5 0.43 0.06
10 -1 -5 0.13 0.05
10 -1 -5 0.1 0.04
-10 1 5 0.15 0.05
-10 1 5 0.13 0.04
9 -1 -5 0.16 0.04
9 -1 -5 0.12 0.06
-9 1 5 0.12 0.04
-9 1 5 0.18 0.05
8 -1 -5 1.74 0.11
8 -1 -5 1.9 0.09
-8 1 5 1.76 0.1
-8 1 5 1.85 0.09
7 -1 -5 0.51 0.06
7 -1 -5 0.56 0.06
-7 1 5 0.62 0.06
-7 1 5 0.63 0.06
6 -1 -5 15.35 0.3
6 -1 -5 14.97 0.29
-6 1 5 14.78 0.29
-6 1 5 15.06 0.31
-6 1 5 15.28 0.33
5 -1 -5 0.46 0.04
5 -1 -5 0.4 0.04
-5 1 5 0.47 0.05
-5 1 5 0.43 0.04
-5 1 5 0.35 0.04
4 -1 -5 12.66 0.24
4 -1 -5 13.3 0.25
4 -1 -5 12.47 0.25
-4 1 5 12.1 0.24
-4 1 5 12.99 0.24
-4 1 5 12.75 0.26
-4 1 5 12.64 0.24
3 -1 -5 54.51 0.88
3 -1 -5 55.4 0.88
3 -1 -5 56.51 0.89
-3 1 5 54.94 0.89
-3 1 5 56.53 0.88
-3 1 5 54.31 0.88
-3 1 5 54.99 0.88
2 -1 -5 166.26 2.72
2 -1 -5 171.23 3.91
2 -1 -5 165.88 2.58
-2 1 5 162.78 2.65
-2 1 5 164.41 2.67
-2 1 5 164.02 2.64
-2 1 5 163.17 2.65
1 -1 -5 0.02 0.02
1 -1 -5 0.04 0.02
1 -1 -5 0.04 0.01
-1 1 5 0.03 0.01
-1 1 5 0.04 0.01
-1 1 5 0.02 0.01
-1 1 5 0.04 0.01
0 -1 -5 12.54 0.23
0 -1 -5 12.83 0.23
0 -1 -5 13.04 0.23
0 1 5 12.25 0.22
0 1 5 12.33 0.22
0 1 5 13.09 0.21
0 1 5 13.19 0.23
-1 -1 -5 64.04 1.05
-1 -1 -5 65.17 1.04
-1 -1 -5 68.56 1.07
1 1 5 66.08 1.08
1 1 5 66.81 1.1
-2 -1 -5 2.62 0.07
-2 -1 -5 2.6 0.07
-2 -1 -5 2.68 0.08
-2 -1 -5 2.54 0.07
2 1 5 2.57 0.07
2 1 5 2.63 0.07
2 1 5 2.59 0.07
-3 -1 -5 2.48 0.07
-3 -1 -5 2.3 0.08
-3 -1 -5 2.42 0.07
-3 -1 -5 2.42 0.07
3 1 5 2.28 0.06
3 1 5 2.44 0.08
3 1 5 2.45 0.07
-4 -1 -5 27.08 0.44
-4 -1 -5 27.2 0.44
-4 -1 -5 26.12 0.44
-4 -1 -5 26.37 0.48
4 1 5 26.33 0.44
4 1 5 26.73 0.47
4 1 5 26.62 0.45
-5 -1 -5 40.09 0.65
-5 -1 -5 40.18 0.65
-5 -1 -5 40.51 0.7
5 1 5 40.11 0.66
5 1 5 39.96 0.69
-6 -1 -5 0.05 0.03
-6 -1 -5 0.11 0.02
6 1 5 0.1 0.02
6 1 5 0.1 0.03
-7 -1 -5 0.22 0.03
-7 -1 -5 0.22 0.05
7 1 5 0.14 0.04
7 1 5 0.16 0.03
-8 -1 -5 1.93 0.07
-8 -1 -5 1.83 0.12
8 1 5 1.93 0.08
8 1 5 2.06 0.12
-9 -1 -5 2.39 0.14
-9 -1 -5 2.5 0.08
9 1 5 2.65 0.11
9 1 5 2.71 0.14
-10 -1 -5 0.01 0.02
-10 -1 -5 -0.09 0.04
10 1 5 0.01 0.04
10 1 5 0.05 0.03
10 -2 -5 -0.02 0.03
10 -2 -5 -0.03 0.04
-10 2 5 -0.05 0.03
-10 2 5 0 0.04
9 -2 -5 2.22 0.12
9 -2 -5 2.05 0.11
-9 2 5 2.08 0.1
-9 2 5 2.09 0.12
8 -2 -5 0.05 0.04
8 -2 -5 0.02 0.03
-8 2 5 0.03 0.03
-8 2 5 -0.02 0.03
7 -2 -5 7.8 0.21
7 -2 -5 8.01 0.2
-7 2 5 7.91 0.21
-7 2 5 7.7 0.2
6 -2 -5 8.63 0.21
6 -2 -5 8.39 0.2
6 -2 -5 8.29 0.18
-6 2 5 8.29 0.21
-6 2 5 8.22 0.2
5 -2 -5 15.64 0.32
5 -2 -5 16.06 0.31
5 -2 -5 15.76 0.3
-5 2 5 15.71 0.31
-5 2 5 16.17 0.31
-5 2 5 16.08 0.32
4 -2 -5 6.72 0.15
4 -2 -5 6.69 0.16
4 -2 -5 6.87 0.16
-4 2 5 6.6 0.16
-4 2 5 6.58 0.16
-4 2 5 6.86 0.16
-4 2 5 6.68 0.16
3 -2 -5 19.94 0.35
3 -2 -5 19.34 0.35
3 -2 -5 19.75 0.35
-3 2 5 19.37 0.35
-3 2 5 19.85 0.35
-3 2 5 19.85 0.35
-3 2 5 19.79 0.35
2 -2 -5 37.97 0.63
2 -2 -5 39.06 0.63
2 -2 -5 37.96 0.63
-2 2 5 38.13 0.63
-2 2 5 38.33 0.63
-2 2 5 37.37 0.62
-2 2 5 38.76 0.61
1 -2 -5 13.34 0.24
1 -2 -5 13.32 0.24
1 -2 -5 13.07 0.25
-1 2 5 13.39 0.24
-1 2 5 13.13 0.24
-1 2 5 13.25 0.24
-1 2 5 13.19 0.22
0 -2 -5 17.54 0.3
0 -2 -5 17.67 0.32
0 -2 -5 17.92 0.31
0 2 5 18.2 0.28
0 2 5 17.58 0.31
0 2 5 18.1 0.31
0 2 5 18 0.31
-1 -2 -5 2.17 0.06
-1 -2 -5 2.14 0.07
-1 -2 -5 2.17 0.06
-1 -2 -5 2.1 0.07
1 2 5 2.08 0.06
1 2 5 2.13 0.06
1 2 5 2.14 0.07
1 2 5 2.17 0.05
-2 -2 -5 5.67 0.13
-2 -2 -5 5.45 0.11
-2 -2 -5 5.67 0.12
-2 -2 -5 5.52 0.13
2 2 5 5.63 0.11
2 2 5 5.62 0.12
2 2 5 5.51 0.11
-3 -2 -5 0.46 0.03
-3 -2 -5 0.39 0.04
-3 -2 -5 0.41 0.03
-3 -2 -5 0.49 0.05
3 2 5 0.42 0.03
3 2 5 0.45 0.03
3 2 5 0.43 0.03
-4 -2 -5 5.8 0.12
-4 -2 -5 5.46 0.15
-4 -2 -5 5.96 0.14
-4 -2 -5 5.82 0.12
4 2 5 5.94 0.12
4 2 5 5.78 0.14
4 2 5 5.77 0.13
-5 -2 -5 25.83 0.42
-5 -2 -5 26.34 0.49
-5 -2 -5 25.26 0.42
-5 -2 -5 25.86 0.44
5 2 5 25.61 0.47
5 2 5 25.31 0.43
-6 -2 -5 0.15 0.02
-6 -2 -5 0.16 0.04
-6 -2 -5 0.13 0.02
6 2 5 0.16 0.04
6 2 5 0.13 0.02
-7 -2 -5 0.05 0.04
-7 -2 -5 0.13 0.02
7 2 5 0.1 0.02
7 2 5 0.09 0.04
-8 -2 -5 5.52 0.1
-8 -2 -5 5.7 0.2
8 2 5 5.71 0.15
8 2 5 5.77 0.19
-9 -2 -5 1.84 0.13
9 2 5 1.64 0.08
9 2 5 1.79 0.12
10 -3 -5 0.63 0.08
10 -3 -5 0.54 0.08
-10 3 5 0.56 0.07
-10 3 5 0.68 0.09
9 -3 -5 1.17 0.1
9 -3 -5 1.28 0.1
-9 3 5 1.19 0.09
-9 3 5 1.13 0.1
8 -3 -5 0.52 0.06
8 -3 -5 0.7 0.08
-8 3 5 0.7 0.07
-8 3 5 0.65 0.08
7 -3 -5 0 0.03
7 -3 -5 0 0.03
-7 3 5 0.03 0.03
-7 3 5 -0.01 0.03
6 -3 -5 1.96 0.08
6 -3 -5 2.14 0.1
6 -3 -5 2.03 0.09
-6 3 5 2.06 0.1
-6 3 5 2.05 0.09
5 -3 -5 1.16 0.06
5 -3 -5 1.12 0.06
5 -3 -5 1.06 0.07
-5 3 5 1.09 0.07
-5 3 5 1.1 0.07
4 -3 -5 7.94 0.19
4 -3 -5 7.94 0.18
4 -3 -5 7.75 0.18
4 -3 -5 7.95 0.17
-4 3 5 7.58 0.18
-4 3 5 7.87 0.18
-4 3 5 7.83 0.18
3 -3 -5 5.3 0.13
3 -3 -5 4.81 0.13
3 -3 -5 5.11 0.13
3 -3 -5 5.17 0.12
-3 3 5 5.07 0.13
-3 3 5 5.14 0.13
2 -3 -5 5.49 0.11
2 -3 -5 5.19 0.13
2 -3 -5 5.35 0.13
2 -3 -5 5.33 0.14
-2 3 5 5.48 0.13
-2 3 5 5.41 0.13
-2 3 5 5.39 0.13
1 -3 -5 24.32 0.44
1 -3 -5 24.89 0.42
1 -3 -5 24.3 0.42
1 -3 -5 24.65 0.38
-1 3 5 24.69 0.42
-1 3 5 24.99 0.42
-1 3 5 24.54 0.42
0 -3 -5 41.08 0.68
0 -3 -5 41.49 0.66
0 3 5 40.68 0.66
0 3 5 40.1 0.66
0 3 5 39.98 0.67
-1 -3 -5 9.21 0.17
-1 -3 -5 9.12 0.2
-1 -3 -5 9.23 0.18
1 3 5 8.93 0.17
1 3 5 8.6 0.19
1 3 5 9 0.18
1 3 5 9.39 0.15
-2 -3 -5 12.75 0.26
-2 -3 -5 12.8 0.23
-2 -3 -5 12.72 0.23
-2 -3 -5 13.35 0.26
2 3 5 12.76 0.23
2 3 5 13.13 0.22
2 3 5 12.77 0.23
-3 -3 -5 2.54 0.07
-3 -3 -5 2.62 0.07
-3 -3 -5 2.61 0.09
-3 -3 -5 2.65 0.09
3 3 5 2.65 0.07
3 3 5 2.57 0.08
3 3 5 2.67 0.07
-4 -3 -5 11.61 0.24
-4 -3 -5 11.14 0.2
-4 -3 -5 11.19 0.25
-4 -3 -5 11.15 0.19
4 3 5 11.71 0.23
4 3 5 11.43 0.21
4 3 5 11.16 0.21
-5 -3 -5 0.14 0.01
-5 -3 -5 0.12 0.01
-5 -3 -5 0.08 0.03
-5 -3 -5 0.08 0.03
5 3 5 0.11 0.02
5 3 5 0.09 0.03
-6 -3 -5 1.33 0.09
6 3 5 1.4 0.08
6 3 5 1.22 0.05
-7 -3 -5 4.14 0.16
7 3 5 4.38 0.15
7 3 5 4.46 0.11
-8 -3 -5 0.85 0.09
8 3 5 0.9 0.05
8 3 5 0.9 0.09
-9 -3 -5 0.14 0.06
9 3 5 0.16 0.05
9 3 5 0.11 0.03
9 -4 -5 0.14 0.05
9 -4 -5 0.13 0.05
-9 4 5 0.19 0.06
-9 4 5 0.1 0.04
8 -4 -5 0.17 0.05
8 -4 -5 0.1 0.04
-8 4 5 0.15 0.05
-8 4 5 0.18 0.05
7 -4 -5 3.53 0.14
7 -4 -5 3.26 0.13
-7 4 5 3.5 0.15
-7 4 5 3.43 0.13
6 -4 -5 14.53 0.32
6 -4 -5 14.45 0.3
6 -4 -5 13.95 0.29
-6 4 5 14.5 0.32
-6 4 5 14.39 0.32
5 -4 -5 0.11 0.03
5 -4 -5 0.1 0.03
5 -4 -5 0.09 0.03
-5 4 5 0.05 0.03
-5 4 5 0.08 0.03
4 -4 -5 0.12 0.03
4 -4 -5 0.15 0.04
4 -4 -5 0.16 0.03
4 -4 -5 0.14 0.03
-4 4 5 0.11 0.03
-4 4 5 0.11 0.03
-4 4 5 0.17 0.03
3 -4 -5 6.7 0.14
3 -4 -5 6.57 0.16
3 -4 -5 6.56 0.17
3 -4 -5 6.71 0.17
-3 4 5 6.76 0.17
-3 4 5 6.49 0.16
2 -4 -5 0.53 0.05
2 -4 -5 0.57 0.04
2 -4 -5 0.62 0.05
2 -4 -5 0.55 0.02
-2 4 5 0.5 0.04
-2 4 5 0.6 0.05
-2 4 5 0.57 0.05
1 -4 -5 0.85 0.06
1 -4 -5 0.87 0.05
1 -4 -5 0.83 0.04
-1 4 5 0.83 0.05
-1 4 5 0.84 0.05
0 -4 -5 0.88 0.06
0 -4 -5 0.88 0.05
0 4 5 0.87 0.05
0 4 5 0.87 0.05
-1 -4 -5 4.92 0.14
-1 -4 -5 4.91 0.11
-1 -4 -5 4.92 0.11
1 4 5 4.69 0.11
1 4 5 4.86 0.13
1 4 5 4.75 0.11
-2 -4 -5 0.01 0.01
-2 -4 -5 0.01 0.02
-2 -4 -5 -0.01 0.01
2 4 5 0 0.01
2 4 5 0.03 0.01
2 4 5 -0.01 0.02
2 4 5 0.01 0.01
-3 -4 -5 0.32 0.04
-3 -4 -5 0.33 0.05
-3 -4 -5 0.39 0.03
-3 -4 -5 0.35 0.03
3 4 5 0.31 0.03
3 4 5 0.3 0.04
3 4 5 0.38 0.03
3 4 5 0.39 0.03
-4 -4 -5 4.28 0.13
-4 -4 -5 4.28 0.08
-4 -4 -5 4.33 0.14
-4 -4 -5 4.18 0.08
4 4 5 4.39 0.12
4 4 5 4.29 0.1
-5 -4 -5 0.26 0.04
-5 -4 -5 0.26 0.05
5 4 5 0.27 0.03
5 4 5 0.24 0.04
-6 -4 -5 0.05 0.04
6 4 5 0.06 0.03
6 4 5 0.06 0.02
-7 -4 -5 7.52 0.23
7 4 5 7.28 0.15
7 4 5 7.17 0.2
-8 -4 -5 5.35 0.2
8 4 5 5.43 0.13
8 4 5 5.75 0.19
-9 -4 -5 0 0.05
9 4 5 -0.01 0.02
-9 5 5 0.02 0.04
-9 5 5 0.03 0.05
-8 5 5 -0.05 0.04
-8 5 5 0.02 0.04
-7 5 5 0.25 0.05
-7 5 5 0.3 0.06
-6 5 5 1.54 0.1
-6 5 5 1.46 0.09
5 -5 -5 0.37 0.05
-5 5 5 0.52 0.06
-5 5 5 0.46 0.06
4 -5 -5 0.15 0.03
4 -5 -5 0.12 0.03
-4 5 5 0.17 0.04
-4 5 5 0.11 0.03
3 -5 -5 1.43 0.08
3 -5 -5 1.31 0.08
-3 5 5 1.47 0.08
-3 5 5 1.41 0.08
2 -5 -5 11.2 0.24
2 -5 -5 11.16 0.25
-2 5 5 11.23 0.24
-2 5 5 11.12 0.24
1 -5 -5 0.02 0.02
1 -5 -5 0.02 0.03
-1 5 5 0.02 0.02
-1 5 5 -0.01 0.02
0 -5 -5 0.06 0.03
0 -5 -5 0.04 0.02
0 5 5 0.02 0.02
0 5 5 0.03 0.02
-1 -5 -5 3.99 0.13
-1 -5 -5 4.16 0.11
1 5 5 4.23 0.12
1 5 5 4.19 0.11
-2 -5 -5 1.7 0.06
-2 -5 -5 1.86 0.1
2 5 5 1.72 0.08
2 5 5 1.93 0.07
-3 -5 -5 27.93 0.46
-3 -5 -5 28.2 0.46
-3 -5 -5 28.31 0.53
3 5 5 27.48 0.47
3 5 5 28.01 0.51
-4 -5 -5 0.32 0.05
4 5 5 0.34 0.05
4 5 5 0.44 0.03
-5 -5 -5 3.33 0.13
-5 -5 -5 3.33 0.13
5 5 5 3.1 0.08
-6 -5 -5 0.15 0.05
6 5 5 0.18 0.03
-7 -5 -5 0.29 0.06
7 5 5 0.34 0.03
-8 -5 -5 0.07 0.05
-8 6 5 0.04 0.05
-7 6 5 2.02 0.13
-6 6 5 0.39 0.06
5 -6 -5 0.43 0.06
-5 6 5 0.34 0.06
4 -6 -5 5.53 0.17
4 -6 -5 5.86 0.18
-4 6 5 5.77 0.18
3 -6 -5 1.18 0.08
3 -6 -5 1.21 0.08
-3 6 5 1.29 0.08
-3 6 5 1.28 0.08
2 -6 -5 1 0.07
2 -6 -5 0.89 0.08
-2 6 5 1 0.07
-2 6 5 0.88 0.07
1 -6 -5 0.01 0.03
1 -6 -5 0.03 0.02
-1 6 5 0.01 0.02
-1 6 5 -0.01 0.02
0 -6 -5 1.73 0.1
0 -6 -5 1.53 0.07
0 6 5 1.61 0.08
-1 -6 -5 3.89 0.11
-1 -6 -5 3.48 0.14
1 6 5 3.84 0.11
1 6 5 3.92 0.13
-2 -6 -5 0.91 0.05
-2 -6 -5 1.03 0.08
2 6 5 0.85 0.07
2 6 5 0.98 0.06
-3 -6 -5 1.39 0.1
-3 -6 -5 1.48 0.05
3 6 5 1.38 0.08
3 6 5 1.43 0.06
-4 -6 -5 23.57 0.47
4 6 5 22.6 0.4
4 6 5 22.71 0.45
-5 -6 -5 0.42 0.06
5 6 5 0.5 0.07
5 6 5 0.46 0.04
6 6 5 12.31 0.31
6 6 5 12.12 0.23
7 6 5 3.14 0.15
7 6 5 2.85 0.08
-7 7 5 -0.02 0.04
-6 7 5 0.08 0.05
5 -7 -5 0.87 0.08
-5 7 5 0.92 0.09
4 -7 -5 4.84 0.17
4 -7 -5 4.59 0.17
-4 7 5 4.46 0.16
3 -7 -5 7.75 0.22
3 -7 -5 7.55 0.21
-3 7 5 7.28 0.21
-3 7 5 7.64 0.21
2 -7 -5 0.41 0.06
2 -7 -5 0.4 0.05
-2 7 5 0.43 0.06
-2 7 5 0.47 0.06
1 -7 -5 2.11 0.11
1 -7 -5 2.14 0.1
-1 7 5 2.32 0.11
-1 7 5 2.13 0.1
0 -7 -5 0.02 0.04
0 -7 -5 0.01 0.03
0 7 5 0.06 0.03
0 7 5 0.03 0.03
-1 -7 -5 0.3 0.06
-1 -7 -5 0.28 0.04
1 7 5 0.28 0.04
1 7 5 0.31 0.05
-2 -7 -5 0.45 0.04
-2 -7 -5 0.43 0.07
2 7 5 0.32 0.04
2 7 5 0.43 0.06
-3 -7 -5 2.41 0.07
-3 -7 -5 2.54 0.13
3 7 5 2.39 0.11
3 7 5 2.4 0.09
-4 -7 -5 1.83 0.11
4 7 5 1.77 0.1
4 7 5 1.57 0.07
-5 -7 -5 0.13 0.05
5 7 5 0.13 0.05
5 7 5 0.15 0.03
6 7 5 6.6 0.21
6 7 5 6.47 0.15
-6 8 5 1.03 0.11
5 -8 -5 1.18 0.1
-5 8 5 1.14 0.1
4 -8 -5 0.37 0.06
4 -8 -5 0.39 0.07
-4 8 5 0.31 0.06
3 -8 -5 0.01 0.04
3 -8 -5 0.03 0.04
-3 8 5 -0.02 0.03
-3 8 5 -0.03 0.03
2 -8 -5 2.58 0.12
2 -8 -5 2.51 0.14
-2 8 5 2.51 0.12
-2 8 5 2.51 0.12
1 -8 -5 4.03 0.17
1 -8 -5 4.22 0.15
-1 8 5 3.84 0.15
-1 8 5 4.17 0.15
0 -8 -5 0.07 0.04
0 -8 -5 0.09 0.03
0 8 5 0.03 0.04
0 8 5 0.04 0.03
-1 -8 -5 0.08 0.03
-1 -8 -5 0.1 0.05
1 8 5 0.11 0.04
1 8 5 0.07 0.04
-2 -8 -5 3.88 0.17
-2 -8 -5 4.03 0.11
2 8 5 3.53 0.14
2 8 5 3.85 0.13
-3 -8 -5 4.97 0.2
-3 -8 -5 4.87 0.1
3 8 5 4.54 0.14
3 8 5 4.92 0.17
-4 -8 -5 0.03 0.04
4 8 5 0.16 0.05
4 8 5 0.13 0.03
-5 -8 -5 0.4 0.08
5 8 5 0.51 0.07
5 8 5 0.47 0.05
-5 9 5 0.29 0.07
4 -9 -5 0.9 0.1
4 -9 -5 0.97 0.1
-4 9 5 1.1 0.1
3 -9 -5 0.84 0.09
3 -9 -5 0.79 0.1
-3 9 5 1.11 0.11
-3 9 5 0.98 0.1
2 -9 -5 2.22 0.12
2 -9 -5 2.09 0.13
-2 9 5 2.48 0.13
-2 9 5 2.38 0.13
1 -9 -5 0.04 0.03
1 -9 -5 -0.09 0.04
-1 9 5 0.03 0.04
-1 9 5 0.09 0.04
0 -9 -5 1.24 0.11
0 -9 -5 1.26 0.08
0 9 5 1.27 0.09
0 9 5 1.18 0.09
-1 -9 -5 0.19 0.07
-1 -9 -5 0.34 0.05
1 9 5 0.25 0.05
1 9 5 0.27 0.05
-2 -9 -5 0.37 0.07
-2 -9 -5 0.34 0.04
2 9 5 0.42 0.06
2 9 5 0.41 0.07
-3 -9 -5 1.11 0.12
3 9 5 1.14 0.1
3 9 5 1.08 0.08
-4 -9 -5 0.05 0.05
4 9 5 0.01 0.04
4 9 5 0.1 0.03
2 -10 -5 2.64 0.16
2 -10 -5 2.57 0.14
-2 10 5 2.39 0.14
-2 10 5 2.44 0.14
1 -10 -5 0.1 0.05
1 -10 -5 0.08 0.06
-1 10 5 0.12 0.05
-1 10 5 0.1 0.05
0 -10 -5 1.69 0.1
0 -10 -5 1.57 0.14
0 10 5 1.67 0.11
0 10 5 1.79 0.11
3 10 -6 0.25 0.07
3 10 -6 0.19 0.04
-3 -10 6 0.15 0.06
2 10 -6 0.01 0.03
-2 -10 6 -0.03 0.05
-2 -10 6 0.03 0.02
1 10 -6 0.31 0.06
-1 -10 6 0.41 0.08
-1 -10 6 0.32 0.05
0 10 -6 0.04 0.04
0 -10 6 0.08 0.05
0 -10 6 0.04 0.03
-1 10 -6 1.39 0.11
1 -10 6 1.38 0.1
1 -10 6 1.3 0.11
-2 10 -6 1.16 0.11
2 -10 6 1.05 0.1
2 -10 6 0.96 0.1
3 -10 6 0.44 0.07
4 -10 6 0.02 0.04
5 9 -6 0.18 0.06
5 9 -6 0.09 0.03
4 9 -6 0.51 0.05
4 9 -6 0.35 0.07
3 9 -6 0.55 0.06
-3 -9 6 0.56 0.04
-3 -9 6 0.58 0.08
2 9 -6 0.18 0.04
-2 -9 6 0.05 0.04
-2 -9 6 0.07 0.03
1 9 -6 0.07 0.03
-1 -9 6 0.02 0.03
-1 -9 6 0.07 0.05
0 9 -6 1.22 0.09
0 -9 6 1.18 0.08
0 -9 6 1.48 0.11
-1 9 -6 3.45 0.15
1 -9 6 3.69 0.14
1 -9 6 3.33 0.15
-2 9 -6 0.02 0.04
2 -9 6 0.02 0.04
2 -9 6 0.07 0.04
-3 9 -6 1 0.09
-3 9 -6 0.85 0.09
3 -9 6 1.07 0.09
3 -9 6 1.01 0.1
-4 9 -6 0.71 0.08
4 -9 6 0.75 0.09
-5 9 -6 0.96 0.1
6 8 -6 0.1 0.03
6 8 -6 0.1 0.05
5 8 -6 1.78 0.08
5 8 -6 1.89 0.13
4 8 -6 12.18 0.26
4 8 -6 12.04 0.31
3 8 -6 0.65 0.06
-3 -8 6 0.55 0.08
-3 -8 6 0.68 0.04
2 8 -6 4.09 0.13
-2 -8 6 4.03 0.12
-2 -8 6 3.92 0.16
1 8 -6 2.99 0.12
-1 -8 6 2.94 0.14
-1 -8 6 2.89 0.11
-1 -8 6 2.96 0.12
0 8 -6 0.46 0.06
0 -8 6 0.63 0.06
0 -8 6 0.51 0.07
0 -8 6 0.5 0.06
-1 8 -6 0.01 0.03
-1 8 -6 0.01 0.03
1 -8 6 0.08 0.04
1 -8 6 -0.02 0.03
1 -8 6 0.04 0.03
-2 8 -6 0.92 0.07
-2 8 -6 0.8 0.08
2 -8 6 0.85 0.07
2 -8 6 0.74 0.07
2 -8 6 0.79 0.08
-3 8 -6 1.85 0.1
-3 8 -6 1.83 0.11
3 -8 6 1.74 0.1
3 -8 6 1.97 0.11
3 -8 6 1.89 0.09
-4 8 -6 0.02 0.04
4 -8 6 0.13 0.05
4 -8 6 0.02 0.04
-5 8 -6 0.05 0.04
5 -8 6 0.07 0.04
-6 8 -6 1.26 0.1
6 -8 6 1.19 0.1
-7 8 -6 -0.01 0.04
7 7 -6 0.24 0.06
7 7 -6 0.2 0.03
-7 -7 6 0.26 0.07
6 7 -6 -0.02 0.04
6 7 -6 0.03 0.02
-6 -7 6 0 0.04
5 7 -6 0 0.02
5 7 -6 0.02 0.04
-5 -7 6 -0.02 0.03
4 7 -6 1.47 0.1
4 7 -6 1.46 0.07
-4 -7 6 1.48 0.09
3 7 -6 1.9 0.08
-3 -7 6 1.76 0.11
-3 -7 6 2.09 0.1
-3 -7 6 2.02 0.06
2 7 -6 11.82 0.25
-2 -7 6 11.48 0.29
-2 -7 6 12.02 0.24
-2 -7 6 11.81 0.27
1 7 -6 1.42 0.08
-1 -7 6 1.53 0.08
-1 -7 6 1.43 0.09
-1 -7 6 1.44 0.07
0 7 -6 3.85 0.11
0 7 -6 4.07 0.13
0 -7 6 3.86 0.12
0 -7 6 3.94 0.13
0 -7 6 4.06 0.15
-1 7 -6 6.81 0.17
-1 7 -6 6.86 0.19
1 -7 6 6.69 0.18
1 -7 6 7.34 0.19
1 -7 6 6.92 0.2
-2 7 -6 1.54 0.09
-2 7 -6 1.4 0.08
2 -7 6 1.45 0.09
2 -7 6 1.43 0.09
2 -7 6 1.43 0.08
-3 7 -6 0.03 0.03
-3 7 -6 0 0.03
3 -7 6 0.01 0.03
3 -7 6 0.05 0.03
3 -7 6 -0.04 0.03
-4 7 -6 0.14 0.04
4 -7 6 0.17 0.04
4 -7 6 0.16 0.05
-5 7 -6 0.6 0.07
5 -7 6 0.96 0.08
-6 7 -6 0.98 0.1
6 -7 6 0.94 0.09
-7 7 -6 0.12 0.05
7 -7 6 0.09 0.05
-8 7 -6 1.24 0.12
8 -7 6 1.11 0.1
8 6 -6 0.55 0.04
-8 -6 6 0.55 0.08
7 6 -6 0.17 0.05
7 6 -6 0.14 0.02
-7 -6 6 0.17 0.06
6 6 -6 1.69 0.06
6 6 -6 1.78 0.11
-6 -6 6 1.77 0.11
5 6 -6 2.95 0.09
5 6 -6 3.04 0.13
-5 -6 6 3.08 0.14
4 6 -6 3.8 0.1
4 6 -6 3.71 0.14
-4 -6 6 3.89 0.14
3 6 -6 1.35 0.09
3 6 -6 1.27 0.06
-3 -6 6 1.31 0.05
-3 -6 6 1.2 0.08
2 6 -6 7.31 0.17
-2 -6 6 7.1 0.2
-2 -6 6 7.28 0.19
-2 -6 6 7.25 0.16
1 6 -6 2.41 0.07
1 6 -6 2.37 0.09
-1 -6 6 2.15 0.11
-1 -6 6 2.26 0.09
-1 -6 6 2.22 0.08
0 6 -6 0.98 0.05
0 6 -6 0.97 0.06
0 -6 6 0.94 0.06
0 -6 6 0.77 0.07
0 -6 6 0.87 0.06
-1 6 -6 6.61 0.16
-1 6 -6 7.08 0.18
1 -6 6 6.73 0.18
1 -6 6 6.84 0.18
1 -6 6 6.86 0.17
-2 6 -6 0 0.02
-2 6 -6 -0.03 0.02
2 -6 6 0.01 0.03
2 -6 6 -0.02 0.02
2 -6 6 -0.01 0.03
-3 6 -6 0.66 0.07
-3 6 -6 0.63 0.06
3 -6 6 0.72 0.07
3 -6 6 0.67 0.05
3 -6 6 0.7 0.06
-4 6 -6 0.07 0.03
4 -6 6 0.1 0.04
4 -6 6 0.1 0.04
-5 6 -6 0.28 0.05
5 -6 6 0.3 0.05
-6 6 -6 0.06 0.04
6 -6 6 0.1 0.04
-7 6 -6 0.15 0.05
7 -6 6 0.37 0.07
-8 6 -6 3.63 0.18
8 -6 6 4.24 0.17
9 5 -6 0.01 0.02
-9 -5 6 0.03 0.05
8 5 -6 0.28 0.03
-8 -5 6 0.31 0.07
7 5 -6 0.48 0.07
7 5 -6 0.6 0.04
-7 -5 6 0.44 0.07
6 5 -6 0.58 0.04
6 5 -6 0.46 0.06
-6 -5 6 0.57 0.07
5 5 -6 2.65 0.11
5 5 -6 2.63 0.08
-5 -5 6 2.77 0.12
4 5 -6 0.14 0.02
4 5 -6 0.14 0.04
-4 -5 6 0.2 0.04
-4 -5 6 0.13 0.01
-4 -5 6 0.13 0.01
3 5 -6 3.65 0.13
3 5 -6 3.76 0.1
-3 -5 6 3.62 0.09
-3 -5 6 3.54 0.08
-3 -5 6 3.71 0.12
2 5 -6 0.06 0.01
2 5 -6 0.04 0.02
2 5 -6 0.05 0.03
-2 -5 6 0.04 0.02
-2 -5 6 0.01 0.02
-2 -5 6 0.04 0.02
1 5 -6 0.04 0.02
1 5 -6 0.06 0.01
-1 -5 6 0.03 0.02
-1 -5 6 0.05 0.02
-1 -5 6 0.05 0.03
0 5 -6 5.97 0.13
0 5 -6 5.87 0.15
0 -5 6 5.68 0.15
0 -5 6 5.87 0.14
0 -5 6 5.82 0.15
-1 5 -6 4.42 0.13
-1 5 -6 4.4 0.11
1 -5 6 4.36 0.12
1 -5 6 4.08 0.12
1 -5 6 4.18 0.12
-2 5 -6 0.06 0.02
-2 5 -6 0.13 0.03
-2 5 -6 0.06 0.03
2 -5 6 0.1 0.03
2 -5 6 0.16 0.03
2 -5 6 0.07 0.03
-3 5 -6 3.74 0.12
-3 5 -6 3.54 0.12
-3 5 -6 3.65 0.1
-3 5 -6 3.83 0.13
3 -5 6 3.57 0.13
3 -5 6 3.9 0.12
-4 5 -6 10.34 0.24
-4 5 -6 10.24 0.24
4 -5 6 10.21 0.24
4 -5 6 10.28 0.25
-5 5 -6 0.48 0.06
-5 5 -6 0.55 0.06
5 -5 6 0.53 0.06
-6 5 -6 3.82 0.14
-6 5 -6 3.79 0.15
6 -5 6 3.97 0.15
-7 5 -6 0.15 0.05
-7 5 -6 0.14 0.04
7 -5 6 0.16 0.05
-8 5 -6 1.05 0.11
-8 5 -6 0.79 0.08
8 -5 6 0.79 0.09
-9 5 -6 0.26 0.07
-9 5 -6 0.27 0.06
9 -5 6 0.17 0.06
9 4 -6 0.29 0.04
-9 -4 6 0.29 0.07
8 4 -6 0.13 0.03
-8 -4 6 0.13 0.06
7 4 -6 0 0.02
7 4 -6 0.01 0.03
-7 -4 6 -0.01 0.03
6 4 -6 11.02 0.26
6 4 -6 11.05 0.21
-6 -4 6 11.23 0.28
5 4 -6 0.59 0.04
5 4 -6 0.54 0.06
-5 -4 6 0.52 0.02
-5 -4 6 0.53 0.02
-5 -4 6 0.58 0.07
4 4 -6 1.89 0.06
4 4 -6 1.91 0.09
4 4 -6 1.76 0.06
4 4 -6 1.82 0.06
-4 -4 6 1.82 0.05
-4 -4 6 1.8 0.05
-4 -4 6 1.69 0.09
3 4 -6 18.2 0.31
3 4 -6 18.25 0.35
3 4 -6 17.84 0.32
3 4 -6 18.54 0.3
-3 -4 6 18.02 0.31
-3 -4 6 18.36 0.31
-3 -4 6 18.09 0.36
2 4 -6 2.84 0.1
2 4 -6 2.96 0.09
2 4 -6 3 0.06
2 4 -6 3.07 0.08
-2 -4 6 2.95 0.08
-2 -4 6 2.9 0.1
-2 -4 6 3.14 0.08
1 4 -6 2.95 0.08
1 4 -6 3.03 0.07
1 4 -6 2.86 0.09
-1 -4 6 2.97 0.09
-1 -4 6 2.89 0.08
-1 -4 6 2.9 0.09
0 4 -6 1.09 0.05
0 4 -6 1.15 0.06
0 4 -6 1.07 0.04
0 -4 6 1.15 0.06
0 -4 6 1.06 0.06
-1 4 -6 23.45 0.39
-1 4 -6 23.02 0.41
-1 4 -6 22.4 0.41
-1 4 -6 22.73 0.41
1 -4 6 23.28 0.41
1 -4 6 23.69 0.4
1 -4 6 23.04 0.41
-2 4 -6 3.52 0.1
-2 4 -6 3.48 0.1
-2 4 -6 3.48 0.11
-2 4 -6 3.4 0.1
2 -4 6 3.53 0.11
2 -4 6 3.49 0.11
2 -4 6 3.45 0.1
-3 4 -6 1.14 0.07
-3 4 -6 1.34 0.07
-3 4 -6 1.22 0.05
3 -4 6 1.31 0.07
3 -4 6 1.25 0.07
-4 4 -6 6.19 0.16
-4 4 -6 6.01 0.17
4 -4 6 6.02 0.16
4 -4 6 6 0.16
4 -4 6 6.05 0.17
-5 4 -6 7.12 0.19
-5 4 -6 7.35 0.2
5 -4 6 7.2 0.19
5 -4 6 7 0.19
-6 4 -6 -0.05 0.03
-6 4 -6 0 0.03
6 -4 6 -0.02 0.03
6 -4 6 0.01 0.02
-7 4 -6 0.25 0.06
-7 4 -6 0.21 0.04
7 -4 6 0.27 0.06
7 -4 6 0.27 0.05
-8 4 -6 0.05 0.04
-8 4 -6 0.13 0.04
8 -4 6 0.08 0.05
8 -4 6 0.04 0.04
-9 4 -6 0.23 0.05
-9 4 -6 0.39 0.07
9 -4 6 0.16 0.05
9 -4 6 0.27 0.06
10 3 -6 0.55 0.06
10 3 -6 0.5 0.08
9 3 -6 0.04 0.03
-9 -3 6 0.03 0.05
8 3 -6 3.2 0.1
-8 -3 6 3.49 0.16
7 3 -6 1.07 0.06
7 3 -6 0.89 0.07
-7 -3 6 0.97 0.03
-7 -3 6 1 0.03
-7 -3 6 1.01 0.09
6 3 -6 0.76 0.06
6 3 -6 0.81 0.05
-6 -3 6 0.73 0.08
-6 -3 6 0.84 0.03
-6 -3 6 0.85 0.03
5 3 -6 0.38 0.04
5 3 -6 0.29 0.04
-5 -3 6 0.47 0.03
-5 -3 6 0.38 0.02
-5 -3 6 0.46 0.06
-5 -3 6 0.4 0.03
4 3 -6 0.54 0.05
4 3 -6 0.53 0.03
4 3 -6 0.49 0.04
-4 -3 6 0.48 0.03
-4 -3 6 0.45 0.05
-4 -3 6 0.53 0.03
-4 -3 6 0.52 0.03
3 3 -6 0.18 0.03
3 3 -6 0.14 0.02
3 3 -6 0.15 0.02
-3 -3 6 0.14 0.02
-3 -3 6 0.19 0.02
-3 -3 6 0.12 0.03
2 3 -6 0.37 0.03
2 3 -6 0.38 0.04
2 3 -6 0.37 0.01
2 3 -6 0.39 0.03
-2 -3 6 0.39 0.03
-2 -3 6 0.4 0.03
-2 -3 6 0.37 0.04
1 3 -6 47.71 0.73
1 3 -6 48.27 0.77
1 3 -6 47.16 0.76
-1 -3 6 47.49 0.75
-1 -3 6 46.98 0.76
-1 -3 6 46.06 0.77
0 3 -6 181.95 3.99
0 3 -6 183.44 2.88
0 3 -6 189.53 2.89
0 3 -6 180.29 2.87
0 -3 6 179.79 3
0 -3 6 181.54 2.93
0 -3 6 186.94 2.94
-1 3 -6 20.77 0.37
-1 3 -6 21.21 0.38
-1 3 -6 21.29 0.37
-1 3 -6 20.87 0.35
1 -3 6 20.9 0.37
1 -3 6 21.46 0.37
1 -3 6 21.2 0.37
-2 3 -6 0.33 0.03
-2 3 -6 0.27 0.03
-2 3 -6 0.36 0.04
-2 3 -6 0.31 0.03
2 -3 6 0.36 0.04
2 -3 6 0.33 0.04
2 -3 6 0.36 0.04
-3 3 -6 0.52 0.04
-3 3 -6 0.52 0.05
-3 3 -6 0.49 0.03
-3 3 -6 0.35 0.04
3 -3 6 0.41 0.04
3 -3 6 0.52 0.05
3 -3 6 0.51 0.04
-4 3 -6 6.88 0.13
-4 3 -6 6.72 0.16
-4 3 -6 6.75 0.17
4 -3 6 6.77 0.17
4 -3 6 6.56 0.17
4 -3 6 6.39 0.16
-5 3 -6 2 0.09
-5 3 -6 2.08 0.1
5 -3 6 2.19 0.1
5 -3 6 2.11 0.09
-6 3 -6 12.06 0.27
-6 3 -6 12.35 0.29
6 -3 6 11.73 0.28
6 -3 6 12.42 0.27
-7 3 -6 6.53 0.18
-7 3 -6 6.81 0.21
7 -3 6 6.75 0.21
7 -3 6 6.39 0.19
-8 3 -6 0.46 0.07
-8 3 -6 0.39 0.06
8 -3 6 0.5 0.07
8 -3 6 0.51 0.06
-9 3 -6 0.72 0.07
-9 3 -6 0.65 0.09
9 -3 6 0.74 0.08
9 -3 6 0.59 0.08
10 2 -6 0.45 0.05
10 2 -6 0.42 0.08
9 2 -6 0.23 0.04
-9 -2 6 0.21 0.06
-9 -2 6 0.16 0.02
8 2 -6 0.05 0.03
-8 -2 6 0.12 0.02
-8 -2 6 0.11 0.05
7 2 -6 14.87 0.3
7 2 -6 14.57 0.29
-7 -2 6 14.26 0.34
-7 -2 6 14.9 0.27
6 2 -6 0.4 0.05
6 2 -6 0.52 0.04
-6 -2 6 0.5 0.03
-6 -2 6 0.43 0.06
-6 -2 6 0.44 0.04
5 2 -6 2.64 0.09
5 2 -6 2.78 0.08
-5 -2 6 2.78 0.08
-5 -2 6 2.81 0.07
-5 -2 6 2.71 0.07
-5 -2 6 2.93 0.12
4 2 -6 23.31 0.38
4 2 -6 22.15 0.38
4 2 -6 22.66 0.4
-4 -2 6 21.99 0.42
-4 -2 6 22.37 0.37
-4 -2 6 22.38 0.37
-4 -2 6 21.84 0.37
3 2 -6 37.29 0.63
3 2 -6 36.93 0.61
3 2 -6 38.09 0.6
-3 -2 6 36.76 0.64
-3 -2 6 37.55 0.6
-3 -2 6 37.7 0.59
-3 -2 6 37.84 0.6
2 2 -6 2.84 0.09
2 2 -6 2.78 0.08
2 2 -6 2.96 0.07
-2 -2 6 2.92 0.08
-2 -2 6 2.93 0.07
-2 -2 6 2.86 0.09
1 2 -6 49 0.77
1 2 -6 47.38 0.78
1 2 -6 48.12 0.77
-1 -2 6 48.85 0.78
-1 -2 6 48.48 0.77
0 2 -6 12.69 0.24
0 2 -6 12.29 0.23
0 2 -6 13.18 0.21
0 2 -6 12.94 0.23
0 -2 6 12.65 0.23
0 -2 6 12.85 0.23
0 -2 6 12.57 0.24
-1 2 -6 22.62 0.39
-1 2 -6 22.98 0.39
-1 2 -6 23.11 0.38
-1 2 -6 22.36 0.38
1 -2 6 21.67 0.39
1 -2 6 22.7 0.38
1 -2 6 22.72 0.39
-2 2 -6 37.86 0.62
-2 2 -6 37.22 0.62
-2 2 -6 37.9 0.6
-2 2 -6 37.84 0.63
2 -2 6 37.64 0.62
2 -2 6 38.43 0.63
-3 2 -6 4.55 0.09
-3 2 -6 4.58 0.12
-3 2 -6 4.55 0.12
3 -2 6 4.4 0.12
3 -2 6 4.47 0.11
3 -2 6 4.27 0.12
-4 2 -6 1.3 0.03
-4 2 -6 1.26 0.07
-4 2 -6 1.11 0.06
4 -2 6 1.23 0.06
4 -2 6 1.27 0.06
4 -2 6 1.17 0.06
-5 2 -6 8.52 0.19
-5 2 -6 8.33 0.21
5 -2 6 8.61 0.21
5 -2 6 8.53 0.2
-6 2 -6 0.03 0.03
-6 2 -6 -0.02 0.02
6 -2 6 0.01 0.02
6 -2 6 -0.02 0.03
-7 2 -6 6.38 0.2
-7 2 -6 6.08 0.17
7 -2 6 6.07 0.17
7 -2 6 6.47 0.2
-8 2 -6 2.06 0.12
-8 2 -6 2.07 0.1
8 -2 6 2.14 0.1
8 -2 6 2.15 0.12
-9 2 -6 0.17 0.04
-9 2 -6 0.09 0.05
9 -2 6 0.12 0.05
9 -2 6 0.1 0.04
-10 2 -6 4.4 0.2
-10 2 -6 4.17 0.15
10 -2 6 4.26 0.16
10 -2 6 4.06 0.19
10 1 -6 0.41 0.08
10 1 -6 0.44 0.06
-10 -1 6 0.47 0.04
9 1 -6 0.26 0.06
9 1 -6 0.2 0.04
-9 -1 6 0.29 0.04
8 1 -6 0.87 0.06
-8 -1 6 0.93 0.06
-8 -1 6 0.99 0.09
7 1 -6 1.35 0.08
7 1 -6 1.5 0.07
-7 -1 6 1.61 0.08
-7 -1 6 1.49 0.1
-7 -1 6 1.43 0.06
6 1 -6 1.16 0.06
6 1 -6 1.2 0.06
-6 -1 6 1.14 0.06
-6 -1 6 1.2 0.05
-6 -1 6 1.14 0.08
5 1 -6 2.84 0.09
5 1 -6 2.78 0.09
-5 -1 6 2.9 0.08
-5 -1 6 2.9 0.11
-5 -1 6 2.88 0.09
4 1 -6 4.1 0.1
4 1 -6 4.03 0.11
4 1 -6 4.12 0.11
-4 -1 6 4.16 0.1
-4 -1 6 4.15 0.13
-4 -1 6 4.17 0.1
-4 -1 6 4.38 0.1
3 1 -6 3.1 0.09
3 1 -6 3.07 0.09
3 1 -6 3.06 0.08
-3 -1 6 3.2 0.1
-3 -1 6 3.14 0.07
-3 -1 6 2.99 0.08
-3 -1 6 3.08 0.08
2 1 -6 17.06 0.3
2 1 -6 17.2 0.3
-2 -1 6 17.3 0.3
-2 -1 6 17.55 0.28
-2 -1 6 17.27 0.31
1 1 -6 1.92 0.06
1 1 -6 2.12 0.06
-1 -1 6 2.02 0.04
-1 -1 6 2.02 0.07
-1 -1 6 2.1 0.06
-1 -1 6 2.1 0.06
0 1 -6 214.58 3.37
0 1 -6 208.51 3.38
0 1 -6 203.27 3.36
0 1 -6 214.1 3.28
0 -1 6 210.64 3.42
0 -1 6 209.86 3.35
0 -1 6 206.92 3.33
-1 1 -6 85.9 1.34
-1 1 -6 84.78 1.38
-1 1 -6 83.77 1.34
-1 1 -6 85.71 1.4
1 -1 6 86.73 1.37
1 -1 6 88.7 1.39
1 -1 6 86.17 1.34
-2 1 -6 24.89 0.43
-2 1 -6 25.72 0.42
-2 1 -6 25.76 0.43
-2 1 -6 25.59 0.43
2 -1 6 25.42 0.43
2 -1 6 25.74 0.44
2 -1 6 26.33 0.44
-3 1 -6 10.92 0.21
-3 1 -6 11.06 0.23
-3 1 -6 10.98 0.19
-3 1 -6 11.21 0.22
3 -1 6 11.25 0.22
3 -1 6 11.21 0.22
-4 1 -6 6.66 0.15
-4 1 -6 6.99 0.17
-4 1 -6 7 0.12
4 -1 6 7.03 0.16
4 -1 6 6.86 0.17
4 -1 6 7.19 0.16
-5 1 -6 8.52 0.19
-5 1 -6 8.65 0.21
5 -1 6 8.89 0.21
5 -1 6 8.31 0.19
-6 1 -6 2.95 0.1
-6 1 -6 3.18 0.12
6 -1 6 2.61 0.11
6 -1 6 3 0.1
-7 1 -6 3.11 0.14
-7 1 -6 2.77 0.1
7 -1 6 2.87 0.12
7 -1 6 3 0.11
-8 1 -6 0.43 0.07
-8 1 -6 0.34 0.05
8 -1 6 0.48 0.07
8 -1 6 0.29 0.05
-9 1 -6 1.38 0.11
-9 1 -6 1.68 0.08
9 -1 6 1.66 0.11
9 -1 6 1.73 0.1
-10 1 -6 1.35 0.12
-10 1 -6 1.16 0.08
10 -1 6 1.19 0.09
10 -1 6 1.25 0.12
10 0 -6 0.5 0.08
10 0 -6 0.32 0.06
-10 0 6 0.5 0.05
9 0 -6 0.21 0.04
9 0 -6 0.14 0.06
-9 0 6 0.16 0.03
8 0 -6 0.06 0.03
-8 0 6 0.09 0.04
-8 0 6 0.08 0.03
-8 0 6 0.1 0.04
7 0 -6 1.95 0.09
-7 0 6 1.94 0.08
-7 0 6 2.09 0.11
-7 0 6 2.02 0.09
6 0 -6 1.9 0.08
6 0 -6 2.08 0.08
-6 0 6 2.17 0.09
-6 0 6 2.15 0.08
-6 0 6 2.07 0.1
5 0 -6 48.86 0.81
5 0 -6 50.84 0.82
-5 0 6 48.82 0.81
-5 0 6 49.99 0.81
-5 0 6 50.09 0.85
4 0 -6 87.67 1.39
4 0 -6 88.3 1.38
-4 0 6 85.68 1.38
-4 0 6 87.04 1.41
-4 0 6 91.4 1.42
3 0 -6 6.37 0.14
3 0 -6 7.02 0.14
3 0 -6 6.61 0.15
-3 0 6 6.64 0.14
-3 0 6 6.39 0.15
-3 0 6 6.55 0.13
2 0 -6 0.72 0.04
2 0 -6 0.65 0.04
-2 0 6 0.64 0.03
-2 0 6 0.59 0.03
-2 0 6 0.67 0.04
-2 0 6 0.62 0.04
1 0 -6 12.69 0.23
1 0 -6 12.48 0.24
1 0 -6 12.61 0.23
-1 0 6 12.53 0.23
-1 0 6 12.89 0.21
-1 0 6 13.01 0.23
-1 0 6 12.95 0.23
0 0 -6 22.91 0.39
0 0 -6 23.27 0.38
0 0 -6 23.05 0.37
0 0 -6 23.05 0.39
0 0 6 22.57 0.38
0 0 6 22.49 0.38
0 0 6 23.19 0.39
-1 0 -6 15.35 0.27
-1 0 -6 14.68 0.27
-1 0 -6 15.26 0.27
-1 0 -6 14.86 0.26
1 0 6 15.43 0.27
1 0 6 14.97 0.26
1 0 6 15.47 0.26
-2 0 -6 20.73 0.35
-2 0 -6 20.96 0.37
-2 0 -6 21.04 0.35
2 0 6 21.38 0.36
2 0 6 20.86 0.36
2 0 6 20.46 0.35
-3 0 -6 0.06 0.02
-3 0 -6 0.03 0.02
-3 0 -6 0.05 0.01
-3 0 -6 0.03 0.02
-3 0 -6 0.03 0.02
3 0 6 0.03 0.02
3 0 6 0.06 0.02
-4 0 -6 1.33 0.06
-4 0 -6 1.52 0.06
-4 0 -6 1.3 0.07
-4 0 -6 1.37 0.04
4 0 6 1.36 0.06
4 0 6 1.33 0.06
4 0 6 1.37 0.06
-5 0 -6 4.03 0.13
-5 0 -6 4.2 0.11
5 0 6 4.1 0.13
5 0 6 4.17 0.11
-6 0 -6 22.38 0.45
-6 0 -6 21.89 0.4
6 0 6 22.39 0.44
6 0 6 22.63 0.41
-7 0 -6 0.14 0.03
-7 0 -6 0.21 0.05
7 0 6 0.16 0.03
7 0 6 0.14 0.04
-8 0 -6 0.37 0.07
-8 0 -6 0.3 0.04
8 0 6 0.2 0.06
8 0 6 0.24 0.04
-9 0 -6 4.6 0.13
-9 0 -6 4.59 0.19
9 0 6 3.99 0.17
9 0 6 4.41 0.15
-10 0 -6 1.45 0.07
-10 0 -6 1.46 0.13
10 0 6 1.59 0.09
10 0 6 1.59 0.12
10 -1 -6 0.13 0.06
10 -1 -6 0.18 0.05
-10 1 6 0.17 0.04
9 -1 -6 2.02 0.13
9 -1 -6 2 0.11
-9 1 6 2.1 0.11
-9 1 6 1.94 0.09
8 -1 -6 0.38 0.06
8 -1 -6 0.32 0.05
-8 1 6 0.27 0.05
-8 1 6 0.27 0.04
7 -1 -6 0.46 0.05
-7 1 6 0.4 0.05
-7 1 6 0.38 0.04
-7 1 6 0.36 0.06
6 -1 -6 12.92 0.27
6 -1 -6 13.2 0.26
-6 1 6 12.86 0.26
-6 1 6 13.06 0.29
-6 1 6 12.64 0.27
5 -1 -6 -0.02 0.02
5 -1 -6 0.02 0.02
-5 1 6 0 0.02
-5 1 6 0.01 0.02
-5 1 6 0 0.02
4 -1 -6 12.89 0.25
4 -1 -6 13.1 0.25
4 -1 -6 12.97 0.25
-4 1 6 13.41 0.25
-4 1 6 12.76 0.25
-4 1 6 12.48 0.26
-4 1 6 13 0.25
3 -1 -6 10.51 0.21
3 -1 -6 10.72 0.21
3 -1 -6 10.23 0.21
-3 1 6 10.26 0.21
-3 1 6 10.48 0.21
-3 1 6 10.79 0.2
-3 1 6 10.79 0.21
2 -1 -6 3.71 0.1
2 -1 -6 3.99 0.1
2 -1 -6 3.75 0.1
-2 1 6 3.81 0.09
-2 1 6 3.95 0.1
-2 1 6 3.81 0.09
-2 1 6 3.9 0.1
1 -1 -6 98.96 1.53
1 -1 -6 98.92 1.5
1 -1 -6 95.12 1.5
-1 1 6 94.28 1.55
-1 1 6 93.88 1.57
-1 1 6 96.11 1.58
-1 1 6 97.01 1.56
0 -1 -6 4.2 0.1
0 -1 -6 4.27 0.1
0 -1 -6 4.17 0.1
0 1 6 4.1 0.09
0 1 6 4.24 0.1
0 1 6 4.27 0.09
0 1 6 4.1 0.1
-1 -1 -6 2.02 0.07
-1 -1 -6 1.97 0.06
-1 -1 -6 1.89 0.06
1 1 6 1.97 0.06
1 1 6 2.03 0.06
1 1 6 2.03 0.06
-2 -1 -6 25.83 0.42
-2 -1 -6 25.68 0.43
-2 -1 -6 25.02 0.44
-2 -1 -6 24.96 0.43
2 1 6 25.09 0.42
2 1 6 26.36 0.43
2 1 6 25.51 0.43
-3 -1 -6 74.05 1.18
-3 -1 -6 72.68 1.15
-3 -1 -6 73.59 1.15
-3 -1 -6 74.96 1.15
3 1 6 72.16 1.16
3 1 6 73.38 1.16
3 1 6 73.25 1.15
-4 -1 -6 0.33 0.04
-4 -1 -6 0.43 0.03
-4 -1 -6 0.44 0.03
-4 -1 -6 0.47 0.03
4 1 6 0.45 0.04
4 1 6 0.43 0.03
4 1 6 0.45 0.03
-5 -1 -6 15.25 0.28
-5 -1 -6 15.33 0.32
5 1 6 14.95 0.31
5 1 6 15.2 0.28
-6 -1 -6 2.35 0.08
-6 -1 -6 2.28 0.11
6 1 6 2.35 0.08
6 1 6 2.46 0.11
-7 -1 -6 2.7 0.13
-7 -1 -6 2.66 0.08
7 1 6 2.71 0.09
7 1 6 2.52 0.12
-8 -1 -6 1.32 0.11
-8 -1 -6 1.17 0.06
8 1 6 1.15 0.07
8 1 6 1.22 0.1
-9 -1 -6 0.4 0.07
-9 -1 -6 0.4 0.04
9 1 6 0.36 0.07
9 1 6 0.37 0.05
-10 -1 -6 0.15 0.03
10 1 6 0.13 0.04
10 1 6 0.11 0.06
10 -2 -6 0.29 0.07
10 -2 -6 0.2 0.05
-10 2 6 0.18 0.05
-10 2 6 0.23 0.05
9 -2 -6 1.12 0.09
9 -2 -6 1.29 0.11
-9 2 6 1.14 0.09
-9 2 6 1.37 0.09
8 -2 -6 4.14 0.15
8 -2 -6 3.76 0.15
-8 2 6 3.95 0.14
-8 2 6 3.94 0.15
7 -2 -6 -0.02 0.03
7 -2 -6 -0.01 0.03
-7 2 6 -0.01 0.02
-7 2 6 0.01 0.03
6 -2 -6 4.37 0.14
6 -2 -6 4.43 0.14
6 -2 -6 4.13 0.12
-6 2 6 4.33 0.14
-6 2 6 4.16 0.13
5 -2 -6 10.11 0.22
5 -2 -6 9.91 0.21
-5 2 6 9.73 0.23
-5 2 6 9.75 0.22
-5 2 6 9.73 0.22
4 -2 -6 4.84 0.13
4 -2 -6 4.79 0.13
4 -2 -6 4.75 0.13
-4 2 6 4.88 0.13
-4 2 6 4.77 0.13
-4 2 6 4.61 0.13
-4 2 6 4.62 0.13
3 -2 -6 4.82 0.12
3 -2 -6 4.76 0.12
3 -2 -6 4.75 0.12
-3 2 6 4.69 0.12
-3 2 6 4.76 0.12
-3 2 6 4.87 0.12
-3 2 6 4.77 0.12
2 -2 -6 43.53 0.72
2 -2 -6 44.07 0.71
2 -2 -6 41.92 0.71
-2 2 6 44 0.71
-2 2 6 43.97 0.71
-2 2 6 43.57 0.7
-2 2 6 44.22 0.71
1 -2 -6 0.03 0.02
1 -2 -6 0.03 0.02
1 -2 -6 0.04 0.02
-1 2 6 0.03 0.02
-1 2 6 0.04 0.01
-1 2 6 0.05 0.02
-1 2 6 0.02 0.01
0 -2 -6 0.17 0.02
0 -2 -6 0.17 0.02
0 -2 -6 0.17 0.03
0 2 6 0.23 0.02
0 2 6 0.15 0.02
0 2 6 0.2 0.03
0 2 6 0.19 0.02
-1 -2 -6 2.33 0.07
-1 -2 -6 2.28 0.08
-1 -2 -6 2.33 0.07
1 2 6 2.3 0.07
1 2 6 2.3 0.08
1 2 6 2.41 0.06
-2 -2 -6 21.18 0.36
-2 -2 -6 20.61 0.37
-2 -2 -6 21.15 0.38
-2 -2 -6 20.83 0.35
2 2 6 21.43 0.36
2 2 6 21.54 0.35
2 2 6 20.16 0.35
-3 -2 -6 3.12 0.1
-3 -2 -6 3.15 0.08
-3 -2 -6 3.05 0.09
-3 -2 -6 3.06 0.08
3 2 6 3.1 0.08
3 2 6 2.86 0.08
3 2 6 3.06 0.09
-4 -2 -6 3.38 0.08
-4 -2 -6 3.34 0.1
-4 -2 -6 3.25 0.11
-4 -2 -6 3.23 0.08
4 2 6 3.13 0.09
4 2 6 3.35 0.1
4 2 6 3.18 0.09
-5 -2 -6 19.75 0.34
-5 -2 -6 19.4 0.33
-5 -2 -6 19.72 0.4
-5 -2 -6 19.68 0.35
5 2 6 19.26 0.37
5 2 6 20.02 0.35
-6 -2 -6 10.17 0.26
-6 -2 -6 10.29 0.19
6 2 6 10.08 0.24
6 2 6 10.41 0.21
-7 -2 -6 2.17 0.06
-7 -2 -6 2.17 0.12
7 2 6 2.25 0.11
7 2 6 2.22 0.08
-8 -2 -6 7.52 0.24
-8 -2 -6 7.49 0.14
8 2 6 7.43 0.22
8 2 6 7.41 0.18
-9 -2 -6 3.94 0.18
9 2 6 3.69 0.16
9 2 6 3.78 0.12
10 -3 -6 0.08 0.04
10 -3 -6 -0.02 0.05
-10 3 6 0.04 0.05
-10 3 6 0.05 0.04
9 -3 -6 0.09 0.05
9 -3 -6 0.12 0.05
-9 3 6 0.1 0.04
-9 3 6 0.17 0.05
8 -3 -6 1 0.08
8 -3 -6 1 0.08
-8 3 6 0.74 0.08
-8 3 6 0.7 0.07
7 -3 -6 0.01 0.03
7 -3 -6 -0.01 0.03
-7 3 6 0.01 0.03
-7 3 6 0.02 0.03
6 -3 -6 2.4 0.11
6 -3 -6 2.34 0.1
6 -3 -6 2.2 0.09
-6 3 6 2.38 0.1
-6 3 6 2.25 0.1
5 -3 -6 5.57 0.16
5 -3 -6 5.56 0.15
5 -3 -6 5.64 0.15
-5 3 6 5.72 0.16
-5 3 6 5.61 0.16
4 -3 -6 4.51 0.13
4 -3 -6 4.39 0.12
4 -3 -6 4.15 0.12
-4 3 6 4.45 0.13
-4 3 6 4.2 0.13
-4 3 6 4.13 0.12
3 -3 -6 0.01 0.02
3 -3 -6 0.06 0.02
3 -3 -6 0.04 0.02
3 -3 -6 0.02 0.02
-3 3 6 0.06 0.02
-3 3 6 0.02 0.02
-3 3 6 0.02 0.02
2 -3 -6 22.77 0.42
2 -3 -6 23.5 0.41
2 -3 -6 23.64 0.42
-2 3 6 23.58 0.39
-2 3 6 23.51 0.41
-2 3 6 23.33 0.41
-2 3 6 23.65 0.41
1 -3 -6 52.3 0.88
1 -3 -6 54.15 0.86
1 -3 -6 54.73 0.87
-1 3 6 53.83 0.82
-1 3 6 53.15 0.86
-1 3 6 54.16 0.87
-1 3 6 52.7 0.86
0 -3 -6 0.52 0.04
0 -3 -6 0.56 0.04
0 3 6 0.53 0.04
0 3 6 0.61 0.04
0 3 6 0.53 0.04
-1 -3 -6 4.3 0.1
-1 -3 -6 4.22 0.1
-1 -3 -6 4.23 0.12
1 3 6 4.35 0.11
1 3 6 4.23 0.11
1 3 6 4.35 0.08
1 3 6 4.21 0.1
-2 -3 -6 16.93 0.33
-2 -3 -6 16.75 0.3
-2 -3 -6 17.56 0.3
-2 -3 -6 17.07 0.32
2 3 6 16.53 0.32
2 3 6 17.28 0.29
2 3 6 16.7 0.3
2 3 6 17.64 0.3
-3 -3 -6 0.12 0.02
-3 -3 -6 0.09 0.03
-3 -3 -6 0.16 0.02
-3 -3 -6 0.13 0.03
3 3 6 0.11 0.02
3 3 6 0.09 0.02
-4 -3 -6 6.87 0.18
-4 -3 -6 6.77 0.17
-4 -3 -6 6.98 0.14
-4 -3 -6 7.03 0.14
4 3 6 7.02 0.16
4 3 6 7.06 0.15
-5 -3 -6 10.31 0.18
-5 -3 -6 10.04 0.25
-5 -3 -6 10 0.18
-5 -3 -6 10.3 0.22
5 3 6 10.15 0.23
5 3 6 10.04 0.2
-6 -3 -6 10.08 0.26
-6 -3 -6 9.97 0.17
-6 -3 -6 10.29 0.17
6 3 6 10.03 0.24
6 3 6 9.94 0.2
-7 -3 -6 2.68 0.13
7 3 6 2.49 0.11
7 3 6 2.45 0.08
-8 -3 -6 3.02 0.15
8 3 6 2.92 0.1
8 3 6 2.85 0.13
-9 -3 -6 0.15 0.05
9 3 6 0.17 0.03
9 3 6 0.14 0.05
9 -4 -6 0.68 0.08
-9 4 6 0.65 0.09
-9 4 6 0.56 0.07
8 -4 -6 1.37 0.1
8 -4 -6 1.41 0.11
-8 4 6 1.41 0.1
-8 4 6 1.44 0.11
7 -4 -6 0.11 0.04
7 -4 -6 0.13 0.04
-7 4 6 0.17 0.05
-7 4 6 0.11 0.04
6 -4 -6 0.81 0.07
6 -4 -6 0.89 0.06
6 -4 -6 0.8 0.06
-6 4 6 0.87 0.07
-6 4 6 0.84 0.07
5 -4 -6 0.18 0.04
5 -4 -6 0.24 0.04
5 -4 -6 0.16 0.04
-5 4 6 0.15 0.04
-5 4 6 0.18 0.04
4 -4 -6 3.92 0.12
4 -4 -6 3.67 0.12
4 -4 -6 3.78 0.1
4 -4 -6 3.67 0.12
-4 4 6 3.78 0.12
-4 4 6 3.75 0.12
-4 4 6 3.7 0.12
3 -4 -6 1.36 0.07
3 -4 -6 1.31 0.07
3 -4 -6 1.39 0.05
-3 4 6 1.34 0.07
-3 4 6 1.29 0.07
-3 4 6 1.43 0.07
2 -4 -6 0.05 0.03
2 -4 -6 0.13 0.03
-2 4 6 0.08 0.02
-2 4 6 0.13 0.03
-2 4 6 0.06 0.02
1 -4 -6 0.08 0.02
1 -4 -6 0.09 0.03
-1 4 6 0.1 0.02
-1 4 6 0.08 0.02
-1 4 6 0.13 0.03
0 -4 -6 4.63 0.12
0 -4 -6 4.64 0.14
0 4 6 4.55 0.12
0 4 6 4.26 0.12
-1 -4 -6 6.12 0.14
-1 -4 -6 6.09 0.17
1 4 6 6.41 0.14
1 4 6 6.12 0.15
-2 -4 -6 0.05 0.03
-2 -4 -6 0.07 0.02
-2 -4 -6 0.06 0.02
2 4 6 0.08 0.02
2 4 6 0.06 0.02
-3 -4 -6 3.47 0.09
-3 -4 -6 3.23 0.12
-3 -4 -6 3.33 0.08
3 4 6 3.42 0.12
3 4 6 3.41 0.09
3 4 6 3.42 0.09
-4 -4 -6 30.79 0.49
-4 -4 -6 30.19 0.49
-4 -4 -6 30.29 0.56
-4 -4 -6 30.83 0.55
4 4 6 30.14 0.5
4 4 6 30.09 0.52
-5 -4 -6 12.89 0.28
-5 -4 -6 13.61 0.3
5 4 6 12.87 0.27
5 4 6 12.89 0.24
-6 -4 -6 0.14 0.05
6 4 6 0.14 0.02
6 4 6 0.13 0.03
-7 -4 -6 2.6 0.13
7 4 6 2.62 0.08
-8 -4 -6 1.86 0.12
8 4 6 1.81 0.07
-9 5 6 0.08 0.04
-9 5 6 0.05 0.04
-8 5 6 0.14 0.05
-8 5 6 0.11 0.05
-7 5 6 1.45 0.1
-7 5 6 1.37 0.09
6 -5 -6 0.02 0.03
-6 5 6 0.02 0.04
-6 5 6 0.03 0.03
5 -5 -6 4.99 0.16
-5 5 6 5.28 0.17
4 -5 -6 0.17 0.04
4 -5 -6 0.1 0.03
-4 5 6 0.15 0.04
3 -5 -6 2.85 0.11
3 -5 -6 2.81 0.12
-3 5 6 2.98 0.11
-3 5 6 2.91 0.11
2 -5 -6 2.7 0.11
2 -5 -6 2.63 0.1
-2 5 6 2.53 0.1
-2 5 6 2.55 0.1
1 -5 -6 2.69 0.1
1 -5 -6 2.64 0.11
-1 5 6 2.56 0.1
0 -5 -6 0.74 0.07
0 -5 -6 0.74 0.05
0 5 6 0.69 0.06
0 5 6 0.8 0.05
-1 -5 -6 17.98 0.37
-1 -5 -6 17.37 0.32
1 5 6 17.39 0.33
1 5 6 17.5 0.34
-2 -5 -6 43.26 0.71
-2 -5 -6 43.59 0.76
2 5 6 43.43 0.72
2 5 6 43.65 0.75
-3 -5 -6 -0.01 0.03
-3 -5 -6 0.07 0.02
3 5 6 0.02 0.03
3 5 6 0.04 0.02
-4 -5 -6 17.12 0.28
-4 -5 -6 17.65 0.37
-4 -5 -6 17.12 0.28
4 5 6 16.91 0.36
4 5 6 17.12 0.31
-5 -5 -6 4.55 0.16
-5 -5 -6 4.66 0.16
5 5 6 4.39 0.11
5 5 6 4.36 0.16
-6 -5 -6 3.28 0.14
6 5 6 3.23 0.09
-7 -5 -6 1.79 0.12
7 5 6 1.84 0.07
-8 -5 -6 0.09 0.05
8 5 6 0.03 0.02
-8 6 6 0.06 0.05
-7 6 6 -0.02 0.04
-6 6 6 1.64 0.11
5 -6 -6 1.92 0.1
-5 6 6 1.99 0.11
4 -6 -6 0.12 0.04
4 -6 -6 0.16 0.04
-4 6 6 0.09 0.04
3 -6 -6 4.44 0.15
3 -6 -6 4.55 0.15
-3 6 6 4.5 0.15
-3 6 6 4.53 0.15
2 -6 -6 0.27 0.04
2 -6 -6 0.29 0.05
-2 6 6 0.27 0.05
-2 6 6 0.24 0.04
1 -6 -6 0.55 0.05
1 -6 -6 0.65 0.07
-1 6 6 0.54 0.06
-1 6 6 0.64 0.06
0 -6 -6 1.65 0.08
0 -6 -6 1.79 0.1
0 6 6 1.76 0.08
0 6 6 1.68 0.09
-1 -6 -6 6.2 0.19
-1 -6 -6 6.05 0.15
1 6 6 5.95 0.16
1 6 6 6.36 0.17
-2 -6 -6 0.06 0.04
-2 -6 -6 0.01 0.02
2 6 6 -0.03 0.02
2 6 6 0.01 0.03
-3 -6 -6 8.29 0.17
-3 -6 -6 8.77 0.24
3 6 6 8.15 0.18
3 6 6 8.26 0.22
-4 -6 -6 3.96 0.16
4 6 6 4.13 0.15
4 6 6 3.95 0.11
-5 -6 -6 0.04 0.04
5 6 6 0.05 0.02
5 6 6 0.07 0.04
6 6 6 0.36 0.06
6 6 6 0.25 0.03
7 6 6 1.48 0.06
7 6 6 1.74 0.12
-7 7 6 1.05 0.11
-6 7 6 0.32 0.06
5 -7 -6 0.17 0.05
-5 7 6 0.13 0.05
4 -7 -6 0.8 0.08
4 -7 -6 0.68 0.08
-4 7 6 0.75 0.08
3 -7 -6 0.04 0.04
3 -7 -6 0.08 0.04
-3 7 6 0.09 0.04
-3 7 6 0.09 0.04
2 -7 -6 1.25 0.09
2 -7 -6 1.34 0.1
-2 7 6 1.32 0.09
-2 7 6 1.23 0.09
1 -7 -6 1.74 0.11
1 -7 -6 1.84 0.1
-1 7 6 1.79 0.09
-1 7 6 1.84 0.1
0 -7 -6 12.02 0.31
0 -7 -6 11.87 0.26
0 7 6 12.06 0.28
0 7 6 12.17 0.27
-1 -7 -6 10.17 0.22
-1 -7 -6 9.89 0.27
1 7 6 9.43 0.24
1 7 6 10 0.23
-2 -7 -6 0.25 0.03
-2 -7 -6 0.3 0.06
2 7 6 0.29 0.04
2 7 6 0.26 0.05
-3 -7 -6 0.37 0.07
-3 -7 -6 0.33 0.03
3 7 6 0.31 0.04
3 7 6 0.32 0.05
-4 -7 -6 5.24 0.19
4 7 6 4.93 0.14
4 7 6 5.22 0.18
-5 -7 -6 0.57 0.08
5 7 6 0.58 0.05
5 7 6 0.43 0.07
6 7 6 0.12 0.05
6 7 6 0.02 0.02
-6 8 6 1.19 0.11
5 -8 -6 2.02 0.12
-5 8 6 2.17 0.13
4 -8 -6 1.65 0.11
4 -8 -6 1.48 0.11
-4 8 6 1.45 0.11
3 -8 -6 0.02 0.04
3 -8 -6 0.02 0.04
-3 8 6 0.04 0.04
-3 8 6 0.04 0.04
2 -8 -6 1.72 0.1
2 -8 -6 1.53 0.11
-2 8 6 1.75 0.1
-2 8 6 1.63 0.1
1 -8 -6 0.85 0.08
1 -8 -6 0.62 0.08
-1 8 6 0.84 0.08
-1 8 6 0.85 0.08
0 -8 -6 0.03 0.04
0 -8 -6 0.04 0.03
0 8 6 0.03 0.03
0 8 6 0.02 0.03
-1 -8 -6 0.05 0.03
-1 -8 -6 0.05 0.04
1 8 6 0 0.03
1 8 6 0 0.03
-2 -8 -6 -0.01 0.02
-2 -8 -6 0.03 0.05
2 8 6 0.01 0.03
2 8 6 -0.03 0.03
-3 -8 -6 0.07 0.02
-3 -8 -6 -0.02 0.04
3 8 6 0.06 0.03
3 8 6 0.05 0.04
-4 -8 -6 0.05 0.05
4 8 6 -0.01 0.02
4 8 6 0.02 0.04
-5 -8 -6 0.01 0.04
5 8 6 0.02 0.02
5 8 6 -0.01 0.04
4 -9 -6 6.7 0.23
4 -9 -6 6.26 0.23
-4 9 6 6.05 0.22
3 -9 -6 1.46 0.11
3 -9 -6 1.33 0.11
-3 9 6 1.45 0.11
2 -9 -6 2.88 0.16
2 -9 -6 2.48 0.13
-2 9 6 2.69 0.14
-2 9 6 2.7 0.14
1 -9 -6 2.01 0.11
1 -9 -6 1.92 0.13
-1 9 6 1.89 0.11
-1 9 6 1.83 0.12
0 -9 -6 0.44 0.06
0 -9 -6 0.47 0.08
0 9 6 0.54 0.08
0 9 6 0.41 0.06
-1 -9 -6 0.03 0.03
-1 -9 -6 0.04 0.05
1 9 6 0.01 0.03
1 9 6 -0.01 0.03
-2 -9 -6 -0.03 0.05
-2 -9 -6 0 0.02
2 9 6 -0.01 0.03
2 9 6 0 0.03
-3 -9 -6 0.26 0.07
-3 -9 -6 0.36 0.03
3 9 6 0.32 0.06
3 9 6 0.3 0.05
3 10 -7 0.04 0.05
3 10 -7 0.01 0.03
-3 -10 7 -0.02 0.02
2 10 -7 0.41 0.06
2 10 -7 0.41 0.07
-2 -10 7 0.44 0.05
1 10 -7 0.76 0.08
-1 -10 7 0.57 0.06
-1 -10 7 0.8 0.1
0 10 -7 0.18 0.05
0 -10 7 0.09 0.04
0 -10 7 0.06 0.05
-1 10 -7 1.18 0.1
1 -10 7 1.11 0.09
1 -10 7 1.35 0.12
-2 10 -7 0.82 0.1
2 -10 7 0.55 0.08
2 -10 7 0.49 0.07
3 -10 7 0.26 0.06
5 9 -7 0.24 0.07
5 9 -7 0.24 0.04
4 9 -7 0.4 0.08
4 9 -7 0.55 0.06
3 9 -7 3.1 0.15
3 9 -7 3.03 0.12
-3 -9 7 2.83 0.08
2 9 -7 -0.01 0.03
2 9 -7 0 0.04
-2 -9 7 -0.04 0.04
-2 -9 7 0.01 0.02
1 9 -7 0.45 0.06
-1 -9 7 0.43 0.07
-1 -9 7 0.49 0.06
0 9 -7 0.1 0.04
0 -9 7 0.03 0.05
0 -9 7 0.12 0.04
-1 9 -7 0.96 0.09
1 -9 7 0.9 0.09
1 -9 7 0.67 0.07
-2 9 -7 0.05 0.04
2 -9 7 0.07 0.04
2 -9 7 0.12 0.04
3 -9 7 0.38 0.06
3 -9 7 0.46 0.07
-4 9 -7 1.45 0.11
4 -9 7 1.32 0.11
-5 9 -7 0.04 0.04
6 8 -7 0.73 0.09
6 8 -7 0.89 0.06
5 8 -7 0.05 0.03
5 8 -7 0.09 0.05
4 8 -7 1.58 0.08
4 8 -7 1.37 0.11
-4 -8 7 1.65 0.11
3 8 -7 0.03 0.03
3 8 -7 -0.03 0.03
-3 -8 7 0.05 0.02
-3 -8 7 0 0.03
2 8 -7 1.09 0.08
2 8 -7 1.44 0.1
-2 -8 7 1.26 0.08
-2 -8 7 1.03 0.06
-2 -8 7 1.17 0.1
1 8 -7 8.46 0.22
-1 -8 7 7.8 0.2
-1 -8 7 8.34 0.22
-1 -8 7 7.84 0.24
0 8 -7 0.67 0.07
0 -8 7 0.64 0.06
0 -8 7 0.76 0.08
0 -8 7 0.71 0.06
-1 8 -7 0.06 0.04
1 -8 7 0.1 0.04
1 -8 7 0.05 0.04
1 -8 7 0.08 0.03
-2 8 -7 0.01 0.03
-2 8 -7 0.06 0.04
2 -8 7 0.05 0.03
2 -8 7 0.06 0.04
2 -8 7 0.03 0.04
-3 8 -7 0.14 0.05
-3 8 -7 0.17 0.05
3 -8 7 0.03 0.04
3 -8 7 0.17 0.04
3 -8 7 0.14 0.04
-4 8 -7 1.15 0.09
4 -8 7 1.22 0.11
4 -8 7 1.11 0.09
-5 8 -7 0.13 0.05
5 -8 7 0.11 0.05
-6 8 -7 0.38 0.07
6 -8 7 0.28 0.06
-7 8 -7 0.05 0.05
7 -8 7 0.13 0.06
7 7 -7 0.06 0.05
7 7 -7 0.15 0.03
-7 -7 7 0.13 0.05
6 7 -7 0.79 0.09
6 7 -7 0.93 0.06
-6 -7 7 1.09 0.11
5 7 -7 0.44 0.07
5 7 -7 0.36 0.04
-5 -7 7 0.43 0.07
4 7 -7 -0.01 0.02
4 7 -7 -0.01 0.04
-4 -7 7 0.02 0.01
-4 -7 7 0.03 0.01
-4 -7 7 0.03 0.03
3 7 -7 1.27 0.07
3 7 -7 1.18 0.09
-3 -7 7 1.29 0.06
-3 -7 7 1.3 0.09
2 7 -7 4.4 0.13
-2 -7 7 4.6 0.15
-2 -7 7 4.5 0.17
-2 -7 7 4.35 0.12
1 7 -7 -0.01 0.03
-1 -7 7 -0.01 0.03
-1 -7 7 -0.05 0.03
-1 -7 7 0.02 0.02
0 7 -7 0.83 0.07
0 -7 7 0.74 0.07
0 -7 7 0.78 0.06
0 -7 7 0.85 0.06
-1 7 -7 1.34 0.08
-1 7 -7 1.22 0.07
1 -7 7 1.37 0.08
1 -7 7 1.42 0.08
1 -7 7 1.24 0.08
-2 7 -7 -0.01 0.02
-2 7 -7 -0.01 0.03
2 -7 7 0.02 0.03
2 -7 7 0.03 0.03
2 -7 7 0.03 0.03
-3 7 -7 2.62 0.12
-3 7 -7 2.59 0.11
-3 7 -7 2.36 0.1
3 -7 7 2.46 0.11
3 -7 7 2.64 0.12
-4 7 -7 0.74 0.08
4 -7 7 0.64 0.07
4 -7 7 0.68 0.07
-5 7 -7 0.18 0.05
5 -7 7 0.18 0.05
-6 7 -7 4.6 0.18
6 -7 7 4.45 0.17
-7 7 -7 -0.01 0.04
7 -7 7 -0.01 0.04
8 6 -7 0.21 0.03
-8 -6 7 0.18 0.06
7 6 -7 0.54 0.04
7 6 -7 0.48 0.07
-7 -6 7 0.59 0.08
6 6 -7 0.29 0.06
6 6 -7 0.27 0.03
-6 -6 7 0.24 0.06
5 6 -7 8.82 0.24
5 6 -7 8.38 0.18
-5 -6 7 8.86 0.25
4 6 -7 0.44 0.04
4 6 -7 0.42 0.06
-4 -6 7 0.4 0.06
-4 -6 7 0.42 0.02
-4 -6 7 0.45 0.03
3 6 -7 -0.04 0.03
3 6 -7 0.01 0.02
-3 -6 7 -0.02 0.01
-3 -6 7 -0.01 0.03
2 6 -7 8.48 0.22
2 6 -7 8.19 0.19
-2 -6 7 8.5 0.21
-2 -6 7 8.25 0.18
1 6 -7 3.22 0.11
-1 -6 7 3.37 0.12
-1 -6 7 3.2 0.13
-1 -6 7 3.43 0.11
0 6 -7 0.07 0.03
0 6 -7 0.03 0.03
0 6 -7 0.04 0.02
0 -6 7 0.06 0.04
0 -6 7 0.06 0.03
0 -6 7 0.12 0.03
-1 6 -7 1.73 0.07
-1 6 -7 1.74 0.09
-1 6 -7 1.76 0.08
1 -6 7 1.87 0.09
1 -6 7 1.82 0.08
1 -6 7 1.72 0.08
-2 6 -7 3.25 0.11
-2 6 -7 3.37 0.11
-2 6 -7 3.3 0.12
2 -6 7 3.51 0.12
2 -6 7 3.42 0.12
-3 6 -7 1.49 0.07
-3 6 -7 1.58 0.08
-3 6 -7 1.63 0.09
3 -6 7 1.61 0.08
3 -6 7 1.69 0.09
-4 6 -7 2.7 0.11
4 -6 7 2.61 0.11
4 -6 7 2.53 0.12
-5 6 -7 0.07 0.04
5 -6 7 0.13 0.04
-6 6 -7 0.91 0.09
6 -6 7 0.94 0.08
-7 6 -7 1.55 0.11
7 -6 7 1.3 0.1
-8 6 -7 0.29 0.07
8 -6 7 0.32 0.07
9 5 -7 0.27 0.04
-9 -5 7 0.17 0.07
8 5 -7 0.09 0.02
-8 -5 7 0.16 0.06
7 5 -7 0.35 0.04
7 5 -7 0.34 0.06
-7 -5 7 0.35 0.07
6 5 -7 0.91 0.05
6 5 -7 0.94 0.08
-6 -5 7 0.95 0.09
5 5 -7 0.47 0.06
5 5 -7 0.45 0.04
-5 -5 7 0.48 0.07
4 5 -7 1.67 0.07
4 5 -7 1.74 0.09
-4 -5 7 1.68 0.09
-4 -5 7 1.79 0.05
-4 -5 7 1.73 0.05
3 5 -7 0.37 0.04
3 5 -7 0.36 0.05
-3 -5 7 0.6 0.06
-3 -5 7 0.38 0.03
2 5 -7 4.04 0.13
2 5 -7 4.05 0.11
-2 -5 7 3.95 0.13
-2 -5 7 4.16 0.11
1 5 -7 0.76 0.03
1 5 -7 0.69 0.05
1 5 -7 0.65 0.06
-1 -5 7 0.66 0.05
-1 -5 7 0.75 0.05
0 5 -7 3.75 0.09
0 5 -7 3.66 0.12
0 5 -7 3.76 0.12
0 -5 7 3.69 0.12
0 -5 7 3.62 0.11
-1 5 -7 7.04 0.15
-1 5 -7 7.27 0.18
-1 5 -7 6.76 0.17
1 -5 7 7.09 0.17
1 -5 7 7.1 0.17
-2 5 -7 35.21 0.61
-2 5 -7 35.58 0.6
-2 5 -7 35.11 0.6
-2 5 -7 35.64 0.62
2 -5 7 34.72 0.61
2 -5 7 34.39 0.62
-3 5 -7 13.23 0.29
-3 5 -7 13.54 0.26
-3 5 -7 13.18 0.28
-3 5 -7 13.03 0.28
3 -5 7 13.32 0.29
3 -5 7 13.44 0.28
-4 5 -7 0.98 0.07
-4 5 -7 1.21 0.08
4 -5 7 1.12 0.08
4 -5 7 1.08 0.08
-5 5 -7 0.18 0.04
-5 5 -7 0.24 0.05
5 -5 7 0.22 0.05
-6 5 -7 0.19 0.05
-6 5 -7 0.15 0.05
6 -5 7 0.1 0.04
-7 5 -7 0.73 0.08
-7 5 -7 0.62 0.07
7 -5 7 0.85 0.09
-8 5 -7 -0.01 0.04
-8 5 -7 0.06 0.04
8 -5 7 0.04 0.05
-9 5 -7 1.08 0.1
-9 5 -7 1.38 0.12
9 -5 7 1.5 0.12
9 4 -7 0.33 0.04
-9 -4 7 0.3 0.08
8 4 -7 0.56 0.05
-8 -4 7 0.68 0.09
7 4 -7 -0.01 0.02
7 4 -7 0 0.03
-7 -4 7 -0.02 0.04
6 4 -7 8.33 0.18
6 4 -7 8.68 0.22
-6 -4 7 7.66 0.13
-6 -4 7 7.65 0.13
-6 -4 7 8.23 0.24
5 4 -7 1.08 0.05
5 4 -7 0.98 0.07
-5 -4 7 1.01 0.04
-5 -4 7 1.11 0.04
-5 -4 7 1.02 0.08
4 4 -7 0.56 0.04
4 4 -7 0.56 0.06
-4 -4 7 0.43 0.05
-4 -4 7 0.64 0.03
-4 -4 7 0.6 0.03
3 4 -7 37.57 0.62
3 4 -7 37.86 0.65
-3 -4 7 37.42 0.61
-3 -4 7 37.46 0.66
-3 -4 7 37.44 0.61
2 4 -7 96.36 1.42
2 4 -7 90.84 1.45
2 4 -7 90.85 1.44
2 4 -7 92.12 1.48
-2 -4 7 92.72 1.45
-2 -4 7 90.19 1.48
-2 -4 7 94.75 1.44
1 4 -7 11.5 0.19
1 4 -7 11.4 0.23
1 4 -7 10.99 0.24
-1 -4 7 11.25 0.24
-1 -4 7 11.32 0.22
-1 -4 7 11.79 0.22
0 4 -7 1.38 0.05
0 4 -7 1.33 0.06
0 4 -7 1.22 0.06
0 4 -7 1.45 0.06
0 -4 7 1.38 0.06
0 -4 7 1.48 0.07
-1 4 -7 0.72 0.05
-1 4 -7 0.71 0.05
-1 4 -7 0.68 0.05
-1 4 -7 0.71 0.04
1 -4 7 0.71 0.05
1 -4 7 0.67 0.05
1 -4 7 0.79 0.05
-2 4 -7 5.9 0.15
-2 4 -7 5.61 0.14
-2 4 -7 5.68 0.13
-2 4 -7 5.6 0.14
2 -4 7 5.45 0.14
2 -4 7 5.46 0.15
2 -4 7 5.59 0.14
-3 4 -7 2.44 0.09
-3 4 -7 2.52 0.1
-3 4 -7 2.45 0.08
3 -4 7 2.58 0.1
3 -4 7 2.28 0.09
3 -4 7 2.53 0.09
-4 4 -7 6.87 0.18
-4 4 -7 6.96 0.18
4 -4 7 7.2 0.18
4 -4 7 6.93 0.18
4 -4 7 7.24 0.19
-5 4 -7 1.99 0.1
-5 4 -7 1.93 0.09
5 -4 7 2.05 0.09
5 -4 7 2.12 0.1
-6 4 -7 1.22 0.08
-6 4 -7 1.22 0.09
6 -4 7 1.17 0.09
6 -4 7 1.07 0.08
-7 4 -7 5.17 0.17
-7 4 -7 5.22 0.19
7 -4 7 4.99 0.18
7 -4 7 5.39 0.17
-8 4 -7 2.45 0.14
-8 4 -7 2.58 0.13
8 -4 7 2.53 0.13
8 -4 7 2.64 0.13
-9 4 -7 0.03 0.05
-9 4 -7 0.14 0.05
9 -4 7 0.06 0.05
9 -4 7 0.19 0.05
9 3 -7 0.64 0.06
-9 -3 7 0.67 0.1
8 3 -7 0.3 0.04
-8 -3 7 0.26 0.06
-8 -3 7 0.26 0.02
7 3 -7 0.56 0.05
7 3 -7 0.71 0.06
-7 -3 7 0.64 0.08
-7 -3 7 0.63 0.03
6 3 -7 0.3 0.05
6 3 -7 0.3 0.04
-6 -3 7 0.35 0.03
-6 -3 7 0.3 0.05
5 3 -7 2.09 0.09
5 3 -7 2.11 0.07
-5 -3 7 2.14 0.06
-5 -3 7 2.03 0.1
-5 -3 7 2.03 0.06
4 3 -7 4.73 0.12
4 3 -7 5.07 0.12
4 3 -7 5.34 0.15
-4 -3 7 5.14 0.11
-4 -3 7 5.21 0.11
-4 -3 7 5.03 0.15
3 3 -7 2.69 0.09
3 3 -7 2.36 0.08
3 3 -7 2.54 0.05
3 3 -7 2.48 0.07
-3 -3 7 2.51 0.07
-3 -3 7 2.56 0.07
2 3 -7 55.12 0.88
2 3 -7 54.94 0.89
-2 -3 7 55.2 0.91
-2 -3 7 55.8 0.88
-2 -3 7 55.57 0.88
1 3 -7 9.06 0.19
1 3 -7 9.13 0.18
1 3 -7 8.96 0.19
1 3 -7 9.08 0.14
-1 -3 7 9.24 0.18
-1 -3 7 9.26 0.18
-1 -3 7 8.68 0.19
0 3 -7 58.58 0.97
0 3 -7 62.63 0.94
0 3 -7 60.72 0.97
0 3 -7 60.5 0.97
0 -3 7 59.47 0.97
0 -3 7 61.84 0.96
0 -3 7 60.79 0.98
-1 3 -7 53.89 0.87
-1 3 -7 53.43 0.88
-1 3 -7 54.24 0.87
-1 3 -7 53.6 0.85
1 -3 7 53.55 0.87
1 -3 7 54.81 0.87
1 -3 7 53.08 0.87
-2 3 -7 1.22 0.06
-2 3 -7 1.12 0.06
-2 3 -7 1.11 0.05
-2 3 -7 1.18 0.05
2 -3 7 1.03 0.05
2 -3 7 1.12 0.06
2 -3 7 1.01 0.06
-3 3 -7 20.26 0.37
-3 3 -7 20.58 0.38
-3 3 -7 20.51 0.35
-3 3 -7 20.13 0.37
3 -3 7 20.12 0.38
3 -3 7 20.23 0.38
3 -3 7 20.12 0.37
-4 3 -7 0.04 0.02
-4 3 -7 0.05 0.02
4 -3 7 0.04 0.03
4 -3 7 0.03 0.02
4 -3 7 0.02 0.03
-5 3 -7 12.77 0.27
-5 3 -7 12.67 0.29
5 -3 7 12.99 0.27
5 -3 7 12.58 0.28
-6 3 -7 3.82 0.13
-6 3 -7 3.49 0.14
6 -3 7 3.7 0.13
6 -3 7 3.77 0.14
-7 3 -7 0.4 0.06
-7 3 -7 0.4 0.06
7 -3 7 0.34 0.06
7 -3 7 0.44 0.06
-8 3 -7 4.2 0.17
-8 3 -7 4.07 0.15
8 -3 7 4.05 0.15
8 -3 7 4.14 0.17
-9 3 -7 0.12 0.04
-9 3 -7 0.13 0.05
9 -3 7 0.07 0.04
9 -3 7 0.13 0.06
10 2 -7 0.07 0.05
10 2 -7 0.05 0.03
-10 -2 7 0.06 0.02
9 2 -7 0.35 0.05
-9 -2 7 0.42 0.08
-9 -2 7 0.42 0.04
8 2 -7 0.38 0.04
-8 -2 7 0.32 0.03
-8 -2 7 0.25 0.06
7 2 -7 8.96 0.2
7 2 -7 9.02 0.22
-7 -2 7 9.19 0.26
-7 -2 7 8.82 0.18
6 2 -7 8.15 0.2
6 2 -7 8.61 0.19
-6 -2 7 8.2 0.17
-6 -2 7 8.78 0.23
5 2 -7 0.18 0.03
5 2 -7 0.2 0.04
-5 -2 7 0.18 0.04
-5 -2 7 0.2 0.03
-5 -2 7 0.17 0.02
4 2 -7 11.27 0.21
4 2 -7 11.46 0.24
4 2 -7 11.26 0.22
-4 -2 7 11.52 0.2
-4 -2 7 11.32 0.21
-4 -2 7 11.55 0.21
-4 -2 7 11.45 0.26
3 2 -7 9.1 0.19
3 2 -7 9.41 0.2
3 2 -7 8.83 0.18
-3 -2 7 9.13 0.21
-3 -2 7 9.28 0.18
-3 -2 7 9.34 0.18
-3 -2 7 9.21 0.15
2 2 -7 61.11 0.98
-2 -2 7 61.33 1
-2 -2 7 61.37 0.97
-2 -2 7 62.25 0.97
1 2 -7 7.13 0.16
1 2 -7 7.4 0.16
1 2 -7 7.68 0.15
-1 -2 7 7.39 0.15
-1 -2 7 7.65 0.15
-1 -2 7 7.24 0.16
0 2 -7 36.17 0.6
0 2 -7 36.87 0.57
0 2 -7 35.53 0.6
0 2 -7 37.09 0.6
0 2 -7 36.94 0.6
0 -2 7 37.18 0.6
0 -2 7 36.62 0.61
0 -2 7 36.27 0.59
-1 2 -7 12.92 0.25
-1 2 -7 12.98 0.24
-1 2 -7 13.26 0.23
-1 2 -7 13.09 0.24
1 -2 7 12.77 0.24
1 -2 7 12.89 0.25
1 -2 7 12.68 0.25
-2 2 -7 1.99 0.06
-2 2 -7 2.04 0.07
-2 2 -7 2.04 0.07
2 -2 7 2.02 0.07
2 -2 7 2.01 0.08
2 -2 7 1.94 0.07
-3 2 -7 2.38 0.06
-3 2 -7 2.39 0.08
-3 2 -7 2.34 0.08
-3 2 -7 2.43 0.09
3 -2 7 2.44 0.08
3 -2 7 2.4 0.08
3 -2 7 2.43 0.09
-4 2 -7 7.78 0.18
-4 2 -7 7.92 0.19
4 -2 7 7.65 0.18
4 -2 7 7.77 0.18
4 -2 7 7.85 0.19
-5 2 -7 0.49 0.06
-5 2 -7 0.4 0.04
5 -2 7 0.49 0.05
5 -2 7 0.37 0.04
-6 2 -7 1.41 0.08
-6 2 -7 1.55 0.09
6 -2 7 1.39 0.08
-7 2 -7 3.75 0.13
-7 2 -7 3.78 0.15
7 -2 7 3.76 0.15
7 -2 7 3.73 0.13
-8 2 -7 0.08 0.04
-8 2 -7 0.06 0.03
8 -2 7 0.04 0.03
8 -2 7 0.05 0.04
-9 2 -7 0.27 0.06
-9 2 -7 0.32 0.05
9 -2 7 0.36 0.06
9 -2 7 0.38 0.07
10 1 -7 0.03 0.03
10 1 -7 0.05 0.05
-10 -1 7 0.03 0.02
9 1 -7 0.27 0.04
-9 -1 7 0.23 0.04
-9 -1 7 0.21 0.06
8 1 -7 0.71 0.06
-8 -1 7 0.45 0.07
-8 -1 7 0.66 0.05
7 1 -7 0.78 0.06
7 1 -7 0.66 0.06
-7 -1 7 0.84 0.09
-7 -1 7 0.89 0.05
6 1 -7 3.13 0.1
6 1 -7 3.08 0.11
-6 -1 7 3 0.13
-6 -1 7 3.2 0.1
-6 -1 7 3.3 0.1
5 1 -7 2.53 0.09
5 1 -7 2.61 0.09
-5 -1 7 2.64 0.11
-5 -1 7 2.54 0.08
-5 -1 7 2.47 0.08
4 1 -7 23.64 0.42
4 1 -7 23.01 0.4
4 1 -7 23.45 0.41
-4 -1 7 24.5 0.44
-4 -1 7 24.02 0.41
-4 -1 7 23.58 0.41
-4 -1 7 23.54 0.4
3 1 -7 60.33 0.98
3 1 -7 61.8 0.97
-3 -1 7 59.35 0.96
-3 -1 7 62.55 0.95
-3 -1 7 60.47 0.97
-3 -1 7 61.29 0.99
2 1 -7 4.25 0.11
2 1 -7 4.19 0.1
-2 -1 7 4.35 0.08
-2 -1 7 4.24 0.1
-2 -1 7 4.35 0.11
-2 -1 7 4.36 0.1
1 1 -7 4.28 0.11
1 1 -7 4.15 0.11
1 1 -7 4.53 0.1
-1 -1 7 4.31 0.08
-1 -1 7 4.22 0.11
-1 -1 7 4.35 0.1
-1 -1 7 4.33 0.1
0 1 -7 35.79 0.6
0 1 -7 37.31 0.58
0 1 -7 35.45 0.6
0 1 -7 37.25 0.6
0 -1 7 36.7 0.59
0 -1 7 36.45 0.6
0 -1 7 36.56 0.6
-1 1 -7 47.63 0.77
-1 1 -7 48.8 0.76
-1 1 -7 48.74 0.77
1 -1 7 46.95 0.77
1 -1 7 48.93 0.78
1 -1 7 46.93 0.77
-2 1 -7 0.03 0.02
-2 1 -7 0.06 0.02
-2 1 -7 0.03 0.02
-2 1 -7 0.04 0.02
2 -1 7 0.02 0.02
2 -1 7 0.05 0.02
2 -1 7 0.03 0.02
-3 1 -7 21.01 0.37
-3 1 -7 20.76 0.35
-3 1 -7 20.35 0.38
-3 1 -7 21.03 0.37
3 -1 7 21.45 0.38
3 -1 7 20.41 0.37
3 -1 7 21.11 0.38
-4 1 -7 51.78 0.86
-4 1 -7 51.14 0.84
-4 1 -7 50.45 0.8
4 -1 7 51.7 0.85
4 -1 7 51.49 0.84
-5 1 -7 0.02 0.03
-5 1 -7 0 0.02
5 -1 7 0.02 0.03
5 -1 7 0.02 0.02
-6 1 -7 0.28 0.05
-6 1 -7 0.34 0.04
6 -1 7 0.35 0.05
6 -1 7 0.34 0.04
-7 1 -7 4.98 0.14
-7 1 -7 5.2 0.18
7 -1 7 4.58 0.15
7 -1 7 5.04 0.17
-8 1 -7 1.98 0.09
-8 1 -7 1.89 0.12
8 -1 7 1.87 0.12
8 -1 7 2.09 0.1
-9 1 -7 0.86 0.1
-9 1 -7 0.81 0.07
9 -1 7 0.71 0.09
9 -1 7 0.75 0.08
-10 1 -7 0.23 0.04
-10 1 -7 0.3 0.07
10 -1 7 0.25 0.05
10 -1 7 0.23 0.07
10 0 -7 0.16 0.06
10 0 -7 0.25 0.05
-10 0 7 0.25 0.04
9 0 -7 0.21 0.04
9 0 -7 0.13 0.05
-9 0 7 0.09 0.03
8 0 -7 8.91 0.22
-8 0 7 8.79 0.21
-8 0 7 9.28 0.24
-8 0 7 9.02 0.26
7 0 -7 0.93 0.07
7 0 -7 0.81 0.06
-7 0 7 0.81 0.06
-7 0 7 0.86 0.06
-7 0 7 0.96 0.08
6 0 -7 11.12 0.24
6 0 -7 11.09 0.24
-6 0 7 10.91 0.23
-6 0 7 11.25 0.27
-6 0 7 10.9 0.24
5 0 -7 1.62 0.07
5 0 -7 1.73 0.08
-5 0 7 1.63 0.09
-5 0 7 1.56 0.07
-5 0 7 1.84 0.07
4 0 -7 7.76 0.17
4 0 -7 7.36 0.17
4 0 -7 7.53 0.17
-4 0 7 7.42 0.16
-4 0 7 7.35 0.18
-4 0 7 7.57 0.16
3 0 -7 9.06 0.19
3 0 -7 9.4 0.19
3 0 -7 9.39 0.2
-3 0 7 9.14 0.19
-3 0 7 9.24 0.17
-3 0 7 9.56 0.18
-3 0 7 9.26 0.2
2 0 -7 6.53 0.15
2 0 -7 6.32 0.14
2 0 -7 6.67 0.14
-2 0 7 6.63 0.14
-2 0 7 6.58 0.12
-2 0 7 6.44 0.14
-2 0 7 6.49 0.14
1 0 -7 9.68 0.2
1 0 -7 9.83 0.19
-1 0 7 9.4 0.19
-1 0 7 9.6 0.19
-1 0 7 9.57 0.17
-1 0 7 9.52 0.18
0 0 -7 13.4 0.25
0 0 -7 14.21 0.24
0 0 -7 14.28 0.26
0 0 -7 13.68 0.26
0 0 7 13.76 0.25
0 0 7 14.01 0.25
0 0 7 14.23 0.26
-1 0 -7 18.01 0.32
-1 0 -7 18.52 0.32
-1 0 -7 18.19 0.32
-1 0 -7 18.21 0.32
1 0 7 18.16 0.32
1 0 7 18.37 0.32
1 0 7 18.74 0.32
-2 0 -7 0.56 0.04
-2 0 -7 0.47 0.04
-2 0 -7 0.57 0.04
-2 0 -7 0.53 0.03
2 0 7 0.55 0.04
2 0 7 0.57 0.04
2 0 7 0.55 0.04
-3 0 -7 0.75 0.04
-3 0 -7 0.74 0.05
-3 0 -7 0.73 0.04
3 0 7 0.76 0.05
3 0 7 0.75 0.04
-4 0 -7 0.5 0.03
-4 0 -7 0.42 0.05
-4 0 -7 0.47 0.04
4 0 7 0.49 0.04
4 0 7 0.47 0.04
-5 0 -7 1.39 0.06
-5 0 -7 1.51 0.08
5 0 7 1.41 0.07
5 0 7 1.39 0.06
-6 0 -7 10.3 0.26
-6 0 -7 10.79 0.22
6 0 7 10.78 0.25
6 0 7 10.49 0.23
-7 0 -7 3.54 0.11
-7 0 -7 3.55 0.15
7 0 7 3.65 0.12
7 0 7 3.89 0.15
-8 0 -7 0.1 0.05
-8 0 -7 0.1 0.03
8 0 7 0.06 0.03
8 0 7 0.13 0.05
-9 0 -7 0.94 0.1
-9 0 -7 0.76 0.06
9 0 7 0.79 0.09
9 0 7 0.78 0.07
10 -1 -7 0.67 0.09
10 -1 -7 0.63 0.08
-10 1 7 0.45 0.06
9 -1 -7 0.1 0.05
9 -1 -7 0.06 0.04
-9 1 7 0.08 0.05
-9 1 7 0.04 0.03
8 -1 -7 0.53 0.06
8 -1 -7 0.64 0.08
-8 1 7 0.49 0.06
-8 1 7 0.65 0.06
7 -1 -7 0.02 0.03
-7 1 7 0.05 0.03
-7 1 7 0.07 0.04
-7 1 7 0.03 0.03
6 -1 -7 2.87 0.1
6 -1 -7 2.87 0.11
-6 1 7 2.69 0.12
-6 1 7 2.76 0.1
-6 1 7 2.89 0.1
5 -1 -7 9.89 0.21
5 -1 -7 9.71 0.22
-5 1 7 9.3 0.23
-5 1 7 9.94 0.21
-5 1 7 9.6 0.21
4 -1 -7 3.02 0.1
4 -1 -7 2.81 0.09
4 -1 -7 3.01 0.1
-4 1 7 2.95 0.09
-4 1 7 3.08 0.1
-4 1 7 2.92 0.09
3 -1 -7 0.98 0.05
3 -1 -7 1 0.06
3 -1 -7 1.06 0.05
-3 1 7 0.99 0.05
-3 1 7 1.05 0.05
-3 1 7 0.99 0.05
-3 1 7 1.01 0.05
2 -1 -7 3.51 0.1
2 -1 -7 3.3 0.09
2 -1 -7 3.21 0.1
-2 1 7 3.36 0.09
-2 1 7 3.31 0.09
-2 1 7 3.46 0.08
-2 1 7 3.43 0.09
1 -1 -7 67.54 1.09
1 -1 -7 67.1 1.1
1 -1 -7 69.52 1.09
-1 1 7 70.05 1.15
-1 1 7 69 1.11
-1 1 7 69.5 1.09
-1 1 7 70.96 1.09
0 -1 -7 228.09 3.65
0 -1 -7 230.42 3.71
0 -1 -7 234.36 3.68
0 1 7 227.56 3.66
0 1 7 236.24 3.67
0 1 7 225.54 3.7
0 1 7 233.96 3.67
-1 -1 -7 1.36 0.05
-1 -1 -7 1.33 0.05
-1 -1 -7 1.33 0.06
-1 -1 -7 1.37 0.06
1 1 7 1.36 0.05
1 1 7 1.31 0.05
1 1 7 1.31 0.05
-2 -1 -7 41 0.67
-2 -1 -7 40.7 0.66
-2 -1 -7 40.98 0.66
-2 -1 -7 40 0.67
2 1 7 40.82 0.66
2 1 7 41.03 0.66
-3 -1 -7 78.95 1.29
-3 -1 -7 82.6 1.26
-3 -1 -7 79.88 1.26
-3 -1 -7 82.33 1.26
3 1 7 78.73 1.26
3 1 7 80.44 1.27
3 1 7 79.44 1.27
-4 -1 -7 18.93 0.34
-4 -1 -7 19 0.34
-4 -1 -7 19.41 0.37
4 1 7 19.4 0.36
4 1 7 19 0.34
-5 -1 -7 1.7 0.09
-5 -1 -7 1.62 0.06
5 1 7 1.71 0.08
5 1 7 1.64 0.07
-6 -1 -7 11.99 0.23
-6 -1 -7 11.95 0.29
6 1 7 11.73 0.24
6 1 7 12 0.27
-7 -1 -7 2.9 0.13
-7 -1 -7 2.97 0.09
7 1 7 3.1 0.13
7 1 7 3.06 0.1
-8 -1 -7 12.39 0.24
-8 -1 -7 12.7 0.33
8 1 7 12.43 0.31
8 1 7 11.9 0.27
-9 -1 -7 0.28 0.03
-9 -1 -7 0.2 0.07
9 1 7 0.42 0.07
9 1 7 0.29 0.05
10 -2 -7 -0.05 0.04
10 -2 -7 0.04 0.05
-10 2 7 0.02 0.03
9 -2 -7 0.05 0.04
9 -2 -7 -0.01 0.04
-9 2 7 0.05 0.04
-9 2 7 -0.02 0.03
8 -2 -7 0.02 0.04
8 -2 -7 -0.01 0.03
-8 2 7 -0.03 0.03
-8 2 7 0.01 0.03
7 -2 -7 5.41 0.17
7 -2 -7 5.07 0.16
-7 2 7 5.19 0.16
-7 2 7 4.98 0.16
6 -2 -7 2.61 0.11
6 -2 -7 2.59 0.1
-6 2 7 2.39 0.1
-6 2 7 2.29 0.11
-6 2 7 2.42 0.1
5 -2 -7 10.13 0.22
5 -2 -7 10.19 0.23
-5 2 7 10.4 0.24
-5 2 7 10.34 0.23
-5 2 7 10.36 0.23
4 -2 -7 1.8 0.08
4 -2 -7 1.71 0.08
4 -2 -7 1.88 0.08
-4 2 7 1.98 0.08
-4 2 7 1.83 0.07
-4 2 7 1.73 0.07
3 -2 -7 7.73 0.18
3 -2 -7 7.65 0.18
3 -2 -7 7.83 0.18
-3 2 7 7.74 0.17
-3 2 7 7.85 0.18
-3 2 7 7.85 0.17
-3 2 7 7.88 0.17
2 -2 -7 9.26 0.19
2 -2 -7 8.9 0.19
2 -2 -7 8.92 0.2
-2 2 7 8.99 0.18
-2 2 7 8.91 0.17
-2 2 7 8.95 0.19
-2 2 7 8.96 0.19
1 -2 -7 8.92 0.18
1 -2 -7 8.71 0.19
1 -2 -7 8.55 0.18
-1 2 7 8.88 0.16
-1 2 7 8.96 0.18
-1 2 7 9.04 0.18
-1 2 7 8.74 0.18
0 -2 -7 0.01 0.02
0 -2 -7 -0.01 0.02
0 -2 -7 0 0.01
0 2 7 0 0.01
0 2 7 0.01 0.01
0 2 7 0.05 0.02
0 2 7 0.02 0.02
-1 -2 -7 6.96 0.15
-1 -2 -7 6.86 0.15
-1 -2 -7 6.69 0.16
1 2 7 6.73 0.15
1 2 7 7.1 0.15
1 2 7 6.81 0.13
1 2 7 6.84 0.15
-2 -2 -7 0.82 0.04
-2 -2 -7 0.85 0.04
-2 -2 -7 0.88 0.05
-2 -2 -7 0.92 0.05
2 2 7 0.9 0.04
2 2 7 0.78 0.04
2 2 7 0.87 0.04
2 2 7 0.83 0.05
-3 -2 -7 2.25 0.09
-3 -2 -7 2.18 0.07
-3 -2 -7 2.03 0.07
-3 -2 -7 2.02 0.08
3 2 7 2.16 0.07
3 2 7 2.18 0.07
3 2 7 2.09 0.07
-4 -2 -7 0.25 0.04
-4 -2 -7 0.36 0.03
-4 -2 -7 0.32 0.04
4 2 7 0.37 0.03
4 2 7 0.34 0.04
-5 -2 -7 1.9 0.1
-5 -2 -7 1.85 0.06
5 2 7 2.02 0.07
5 2 7 1.9 0.08
-6 -2 -7 0.23 0.03
-6 -2 -7 0.17 0.05
6 2 7 0.19 0.04
6 2 7 0.2 0.03
-7 -2 -7 1.83 0.11
-7 -2 -7 1.97 0.06
7 2 7 2.13 0.11
7 2 7 2.07 0.08
-8 -2 -7 2.31 0.13
-8 -2 -7 2.41 0.07
8 2 7 2.54 0.13
8 2 7 2.38 0.1
-9 -2 -7 0.28 0.07
9 2 7 0.32 0.05
9 2 7 0.32 0.07
9 -3 -7 0.13 0.05
9 -3 -7 0.18 0.05
-9 3 7 0.12 0.05
-9 3 7 0.05 0.04
8 -3 -7 0.18 0.05
8 -3 -7 0.1 0.04
-8 3 7 0.09 0.04
-8 3 7 0.21 0.05
7 -3 -7 0.26 0.05
7 -3 -7 0.17 0.04
-7 3 7 0.23 0.05
-7 3 7 0.22 0.05
6 -3 -7 2.91 0.11
6 -3 -7 2.9 0.12
6 -3 -7 2.92 0.11
-6 3 7 2.93 0.12
-6 3 7 2.84 0.12
5 -3 -7 2.98 0.11
5 -3 -7 2.89 0.1
5 -3 -7 2.92 0.11
-5 3 7 3.09 0.11
-5 3 7 2.97 0.11
4 -3 -7 1.28 0.07
4 -3 -7 1.07 0.06
4 -3 -7 1.15 0.07
-4 3 7 1.28 0.06
-4 3 7 1.27 0.07
-4 3 7 1.28 0.07
3 -3 -7 0.05 0.02
3 -3 -7 0.06 0.03
3 -3 -7 0.04 0.02
-3 3 7 0.05 0.02
-3 3 7 0.04 0.02
-3 3 7 0.06 0.03
-3 3 7 0.05 0.02
2 -3 -7 14.69 0.3
2 -3 -7 14.8 0.28
2 -3 -7 14.6 0.29
-2 3 7 14.77 0.25
-2 3 7 15.08 0.29
-2 3 7 14.24 0.28
-2 3 7 14.47 0.28
1 -3 -7 20.87 0.39
1 -3 -7 21.34 0.38
1 -3 -7 21.11 0.38
-1 3 7 21.41 0.38
-1 3 7 21.4 0.34
-1 3 7 20.52 0.38
-1 3 7 21.09 0.38
0 -3 -7 19 0.35
0 -3 -7 19.33 0.37
0 3 7 19.92 0.35
0 3 7 19.13 0.35
0 3 7 19.56 0.3
0 3 7 19.32 0.35
-1 -3 -7 35.97 0.59
-1 -3 -7 36.08 0.62
-1 -3 -7 36.36 0.59
1 3 7 35.61 0.59
1 3 7 34.57 0.61
1 3 7 36.64 0.56
-2 -3 -7 109.78 1.73
-2 -3 -7 111.07 1.7
-2 -3 -7 110.19 1.7
-2 -3 -7 109.8 1.73
2 3 7 107.12 1.7
2 3 7 105.17 1.72
2 3 7 111.41 1.72
-3 -3 -7 22.32 0.41
-3 -3 -7 21.9 0.38
-3 -3 -7 21.55 0.41
-3 -3 -7 21.64 0.37
3 3 7 21.56 0.38
3 3 7 21.68 0.38
-4 -3 -7 1.38 0.05
-4 -3 -7 1.38 0.08
-4 -3 -7 1.24 0.07
4 3 7 1.37 0.06
4 3 7 1.33 0.06
-5 -3 -7 4.03 0.09
-5 -3 -7 4.19 0.12
-5 -3 -7 3.78 0.14
5 3 7 3.99 0.12
5 3 7 3.94 0.11
-6 -3 -7 2.3 0.12
-6 -3 -7 2.29 0.06
6 3 7 2.45 0.1
6 3 7 2.28 0.08
-7 -3 -7 1.91 0.12
7 3 7 1.94 0.1
7 3 7 1.94 0.08
-8 -3 -7 0.38 0.07
8 3 7 0.27 0.06
8 3 7 0.29 0.04
-9 -3 -7 0.24 0.07
9 3 7 0.29 0.04
9 3 7 0.28 0.06
-9 4 7 0.08 0.04
-9 4 7 0.16 0.05
8 -4 -7 0 0.04
-8 4 7 0.01 0.04
-8 4 7 0 0.03
7 -4 -7 4.2 0.15
-7 4 7 4 0.16
-7 4 7 4.32 0.16
6 -4 -7 2.9 0.11
6 -4 -7 2.82 0.11
-6 4 7 2.85 0.12
-6 4 7 2.84 0.12
5 -4 -7 0.42 0.05
5 -4 -7 0.48 0.05
-5 4 7 0.49 0.06
-5 4 7 0.6 0.06
4 -4 -7 -0.01 0.02
4 -4 -7 0 0.02
-4 4 7 0 0.03
-4 4 7 -0.02 0.02
3 -4 -7 8.65 0.21
3 -4 -7 8.41 0.21
-3 4 7 8.72 0.2
-3 4 7 8.89 0.21
-3 4 7 8.75 0.21
2 -4 -7 1.8 0.09
2 -4 -7 1.75 0.08
-2 4 7 1.79 0.08
-2 4 7 1.88 0.08
-2 4 7 1.74 0.08
1 -4 -7 15.23 0.32
1 -4 -7 15.11 0.3
-1 4 7 15.08 0.3
-1 4 7 15.33 0.3
0 -4 -7 21.59 0.42
0 -4 -7 21.98 0.39
0 4 7 21.72 0.39
0 4 7 21.54 0.4
-1 -4 -7 0.2 0.04
-1 -4 -7 0.25 0.03
1 4 7 0.26 0.03
1 4 7 0.21 0.04
-2 -4 -7 0.93 0.05
-2 -4 -7 0.94 0.06
2 4 7 1 0.05
-3 -4 -7 3.28 0.12
-3 -4 -7 3.17 0.09
3 4 7 3.17 0.12
3 4 7 3.19 0.09
-4 -4 -7 2.07 0.06
-4 -4 -7 2.07 0.1
-4 -4 -7 2.03 0.1
4 4 7 2.09 0.07
-5 -4 -7 0 0.03
-5 -4 -7 0.06 0.01
-5 -4 -7 0.02 0.03
-5 -4 -7 0.03 0.01
5 4 7 0.02 0.02
-6 -4 -7 0.16 0.05
6 4 7 0.12 0.02
-7 -4 -7 0.52 0.07
7 4 7 0.67 0.05
-8 -4 -7 1 0.1
8 4 7 1.04 0.06
-9 5 7 0.06 0.05
-9 5 7 0.04 0.04
-8 5 7 0.7 0.08
-8 5 7 0.81 0.1
-7 5 7 0.25 0.06
6 -5 -7 0.17 0.04
-6 5 7 0.2 0.05
5 -5 -7 1.5 0.09
-5 5 7 1.46 0.09
4 -5 -7 0.04 0.04
4 -5 -7 0.05 0.03
-4 5 7 0.07 0.03
3 -5 -7 5.82 0.17
3 -5 -7 5.57 0.17
-3 5 7 6 0.17
-3 5 7 5.89 0.17
2 -5 -7 33.91 0.6
2 -5 -7 33.65 0.61
-2 5 7 33.27 0.6
-2 5 7 33.37 0.6
1 -5 -7 26.28 0.5
1 -5 -7 25.57 0.47
-1 5 7 25.77 0.48
-1 5 7 26.09 0.47
0 -5 -7 0.41 0.05
0 -5 -7 0.35 0.05
0 5 7 0.46 0.05
0 5 7 0.47 0.05
-1 -5 -7 19.83 0.4
-1 -5 -7 19.37 0.36
1 5 7 18.69 0.37
1 5 7 19.36 0.36
-2 -5 -7 14.78 0.32
-2 -5 -7 14.76 0.28
2 5 7 14.46 0.28
-3 -5 -7 0.32 0.03
-3 -5 -7 0.33 0.06
3 5 7 0.28 0.04
3 5 7 0.36 0.05
-4 -5 -7 0.05 0.02
-4 -5 -7 0.12 0.04
4 5 7 0.13 0.04
4 5 7 0.08 0.02
-5 -5 -7 6.13 0.19
-5 -5 -7 5.64 0.18
5 5 7 5.84 0.14
5 5 7 5.85 0.19
-6 -5 -7 0.47 0.07
6 5 7 0.33 0.04
-7 -5 -7 1.18 0.1
7 5 7 1.03 0.06
-8 -5 -7 0.06 0.05
8 5 7 0.06 0.02
-8 6 7 0.17 0.06
-7 6 7 1.28 0.11
-6 6 7 2.5 0.13
5 -6 -7 0.09 0.04
-5 6 7 0.04 0.04
4 -6 -7 0.36 0.06
4 -6 -7 0.32 0.05
-4 6 7 0.39 0.06
3 -6 -7 0.91 0.08
3 -6 -7 0.95 0.08
-3 6 7 0.64 0.06
-3 6 7 0.76 0.07
2 -6 -7 7.51 0.21
2 -6 -7 6.86 0.19
-2 6 7 7.43 0.2
-2 6 7 7.12 0.2
1 -6 -7 2.37 0.1
1 -6 -7 2.35 0.11
-1 6 7 2.35 0.1
-1 6 7 2.31 0.1
0 -6 -7 6.49 0.2
0 -6 -7 6.76 0.17
0 6 7 6.98 0.19
0 6 7 6.93 0.18
-1 -6 -7 3.4 0.14
-1 -6 -7 3.48 0.11
1 6 7 3.39 0.12
1 6 7 3.37 0.11
-2 -6 -7 0.31 0.04
-2 -6 -7 0.29 0.05
2 6 7 0.29 0.05
2 6 7 0.31 0.04
-3 -6 -7 1.21 0.06
-3 -6 -7 1.32 0.1
3 6 7 1.11 0.06
3 6 7 1.18 0.08
-4 -6 -7 5.87 0.19
-4 -6 -7 5.99 0.11
4 6 7 6 0.15
4 6 7 6.36 0.19
-5 -6 -7 0.05 0.04
5 6 7 0.07 0.02
5 6 7 0.04 0.04
6 6 7 0.4 0.07
6 6 7 0.31 0.04
7 6 7 0.18 0.06
7 6 7 0.25 0.03
-7 7 7 0.94 0.1
-6 7 7 0.25 0.06
5 -7 -7 0.49 0.07
-5 7 7 0.48 0.07
4 -7 -7 5.15 0.18
4 -7 -7 4.66 0.17
-4 7 7 4.92 0.18
3 -7 -7 6.4 0.21
3 -7 -7 6.69 0.2
-3 7 7 6.76 0.2
-3 7 7 6.6 0.2
2 -7 -7 0.7 0.07
2 -7 -7 0.8 0.08
-2 7 7 0.7 0.07
-2 7 7 0.84 0.07
1 -7 -7 0.05 0.03
1 -7 -7 -0.04 0.04
-1 7 7 -0.01 0.03
-1 7 7 -0.02 0.03
0 -7 -7 0.03 0.04
0 -7 -7 0.04 0.03
0 7 7 0.02 0.03
0 7 7 0.05 0.03
-1 -7 -7 0.01 0.03
-1 -7 -7 0 0.04
1 7 7 0.06 0.04
1 7 7 0.02 0.03
-2 -7 -7 0.01 0.04
-2 -7 -7 0.02 0.02
2 7 7 0.05 0.04
2 7 7 0 0.02
-3 -7 -7 0.19 0.03
-3 -7 -7 0.22 0.06
3 7 7 0.19 0.03
3 7 7 0.15 0.05
-4 -7 -7 1.21 0.1
4 7 7 0.92 0.09
4 7 7 0.99 0.06
-5 -7 -7 0.43 0.07
5 7 7 0.56 0.07
5 7 7 0.55 0.05
6 7 7 0.92 0.06
6 7 7 0.78 0.09
-6 8 7 4.14 0.18
5 -8 -7 0.86 0.09
-5 8 7 0.76 0.09
4 -8 -7 0.88 0.1
4 -8 -7 0.63 0.08
-4 8 7 0.79 0.09
3 -8 -7 0.92 0.1
3 -8 -7 1.11 0.1
-3 8 7 0.93 0.08
-3 8 7 0.75 0.08
2 -8 -7 0.11 0.05
2 -8 -7 0.03 0.04
-2 8 7 0.11 0.04
-2 8 7 0.11 0.04
1 -8 -7 2.02 0.13
1 -8 -7 2.12 0.11
-1 8 7 2.22 0.12
-1 8 7 2.19 0.12
0 -8 -7 1.25 0.11
0 -8 -7 1.12 0.08
0 8 7 1.23 0.09
0 8 7 1.33 0.09
-1 -8 -7 0.8 0.07
-1 -8 -7 0.59 0.08
1 8 7 0.72 0.07
1 8 7 0.81 0.08
-2 -8 -7 0.47 0.05
-2 -8 -7 0.56 0.08
2 8 7 0.52 0.07
2 8 7 0.63 0.06
-3 -8 -7 0.12 0.03
-3 -8 -7 0.21 0.06
3 8 7 0.1 0.03
3 8 7 0.17 0.05
-4 -8 -7 0.01 0.04
4 8 7 0.04 0.03
4 8 7 0 0.04
-5 -8 -7 0.01 0.05
5 8 7 -0.02 0.04
5 8 7 0.04 0.02
4 -9 -7 1.2 0.11
4 -9 -7 1.11 0.11
-4 9 7 1.31 0.12
3 -9 -7 0.04 0.05
3 -9 -7 0.07 0.05
-3 9 7 -0.01 0.04
2 -9 -7 0.5 0.07
2 -9 -7 0.53 0.08
-2 9 7 0.62 0.08
-2 9 7 0.54 0.08
1 -9 -7 0.28 0.07
1 -9 -7 0.31 0.06
-1 9 7 0.25 0.06
-1 9 7 0.3 0.06
0 -9 -7 0.01 0.03
0 -9 -7 0.04 0.05
0 9 7 0.03 0.04
0 9 7 0.07 0.04
-1 -9 -7 0.04 0.06
-1 -9 -7 0.06 0.03
1 9 7 0.13 0.04
1 9 7 0.07 0.04
-2 -9 -7 0.59 0.09
-2 -9 -7 0.6 0.05
2 9 7 0.67 0.08
2 9 7 0.62 0.07
-3 -9 -7 0.9 0.04
-3 -9 -7 1 0.11
3 9 7 0.99 0.08
3 9 7 0.95 0.1
3 10 -8 0.72 0.07
3 10 -8 0.69 0.09
-3 -10 8 0.68 0.04
2 10 -8 0.06 0.05
2 10 -8 0.14 0.04
-2 -10 8 0.07 0.03
1 10 -8 0.24 0.07
1 10 -8 0.17 0.05
-1 -10 8 0.09 0.04
0 10 -8 0.07 0.05
0 10 -8 0.13 0.05
0 -10 8 0.07 0.04
-1 10 -8 0.3 0.06
-1 10 -8 0.29 0.06
1 -10 8 0.27 0.05
-2 10 -8 0.6 0.08
-2 10 -8 0.54 0.08
2 -10 8 0.53 0.07
3 -10 8 0.07 0.04
5 9 -8 0.09 0.03
5 9 -8 0.03 0.06
4 9 -8 0.75 0.09
4 9 -8 0.8 0.07
3 9 -8 0.73 0.07
3 9 -8 0.76 0.1
-3 -9 8 0.62 0.05
2 9 -8 -0.01 0.03
2 9 -8 -0.02 0.04
-2 -9 8 -0.01 0.02
1 9 -8 0.07 0.04
1 9 -8 0.09 0.05
-1 -9 8 0.06 0.03
0 9 -8 0.54 0.07
0 9 -8 0.4 0.06
0 -9 8 0.4 0.06
-1 9 -8 0.09 0.05
-1 9 -8 0.1 0.05
1 -9 8 0.07 0.04
-2 9 -8 0.56 0.08
-2 9 -8 0.56 0.07
2 -9 8 0.61 0.08
3 -9 8 0.19 0.05
4 -9 8 -0.01 0.04
-5 9 -8 0.29 0.06
6 8 -8 0.06 0.03
6 8 -8 0.04 0.05
-6 -8 8 0.04 0.05
5 8 -8 0.23 0.06
5 8 -8 0.32 0.04
-5 -8 8 0.34 0.07
4 8 -8 5.32 0.15
4 8 -8 5.26 0.2
-4 -8 8 5.23 0.19
-4 -8 8 5.08 0.09
3 8 -8 0.03 0.03
3 8 -8 -0.04 0.04
-3 -8 8 0.06 0.02
-3 -8 8 0.04 0.04
2 8 -8 0.17 0.06
2 8 -8 0.25 0.05
-2 -8 8 0.2 0.05
-2 -8 8 0.19 0.04
1 8 -8 1.32 0.09
1 8 -8 1.43 0.1
-1 -8 8 1.48 0.08
-1 -8 8 1.23 0.09
0 8 -8 0.37 0.06
0 8 -8 0.3 0.05
0 -8 8 0.29 0.05
0 -8 8 0.32 0.05
-1 8 -8 1.04 0.09
-1 8 -8 0.91 0.08
1 -8 8 0.92 0.07
1 -8 8 0.65 0.07
-2 8 -8 0.53 0.07
-2 8 -8 0.4 0.06
2 -8 8 0.35 0.06
2 -8 8 0.38 0.05
-3 8 -8 0.06 0.04
-3 8 -8 0.13 0.04
-3 8 -8 0.22 0.06
3 -8 8 0.11 0.04
3 -8 8 0.14 0.05
-4 8 -8 2.97 0.13
4 -8 8 3.25 0.15
4 -8 8 2.86 0.13
-5 8 -8 0.77 0.09
5 -8 8 0.8 0.09
-6 8 -8 0.05 0.05
6 -8 8 -0.08 0.04
7 7 -8 0.69 0.05
7 7 -8 0.6 0.08
-7 -7 8 0.84 0.1
6 7 -8 0.04 0.03
6 7 -8 0.1 0.05
-6 -7 8 0 0.04
5 7 -8 0.1 0.05
5 7 -8 0.15 0.03
-5 -7 8 0.06 0.04
4 7 -8 0.16 0.03
4 7 -8 0.13 0.05
-4 -7 8 0.17 0.02
-4 -7 8 0.24 0.05
3 7 -8 0.02 0.04
3 7 -8 0.01 0.02
-3 -7 8 0.03 0.02
-3 -7 8 0.04 0.04
2 7 -8 0.06 0.03
2 7 -8 0.08 0.04
-2 -7 8 0.06 0.04
-2 -7 8 0.03 0.03
1 7 -8 2.19 0.1
1 7 -8 2.22 0.11
-1 -7 8 2.4 0.1
-1 -7 8 2.34 0.11
0 7 -8 0.57 0.06
0 7 -8 0.81 0.08
0 -7 8 0.84 0.07
0 -7 8 0.66 0.06
-1 7 -8 1.81 0.1
-1 7 -8 1.97 0.1
1 -7 8 2.01 0.1
1 -7 8 1.78 0.09
-2 7 -8 3.96 0.13
-2 7 -8 4.23 0.14
-2 7 -8 3.79 0.15
2 -7 8 4.14 0.14
2 -7 8 4.04 0.15
-3 7 -8 1.7 0.09
-3 7 -8 1.79 0.09
-3 7 -8 1.79 0.11
3 -7 8 1.9 0.11
3 -7 8 1.86 0.1
-4 7 -8 0.61 0.07
4 -7 8 0.63 0.08
4 -7 8 0.71 0.08
-5 7 -8 1.53 0.1
5 -7 8 1.41 0.1
-6 7 -8 0.67 0.08
6 -7 8 0.74 0.08
-7 7 -8 0.59 0.08
7 -7 8 0.57 0.08
8 6 -8 0.01 0.02
-8 -6 8 -0.04 0.04
7 6 -8 0.4 0.07
7 6 -8 0.53 0.05
-7 -6 8 0.39 0.07
6 6 -8 0.6 0.05
6 6 -8 0.69 0.08
-6 -6 8 0.68 0.08
5 6 -8 2.44 0.09
5 6 -8 2.35 0.12
-5 -6 8 2.58 0.13
4 6 -8 0.08 0.04
4 6 -8 0.16 0.03
-4 -6 8 0.14 0.05
-4 -6 8 0.12 0.02
3 6 -8 1.85 0.1
3 6 -8 1.79 0.08
-3 -6 8 1.65 0.07
-3 -6 8 1.78 0.1
2 6 -8 3.02 0.13
2 6 -8 2.84 0.1
-2 -6 8 3.07 0.1
-2 -6 8 3.17 0.12
1 6 -8 0.15 0.04
1 6 -8 0.12 0.04
-1 -6 8 0.09 0.03
-1 -6 8 0.18 0.03
0 6 -8 12.05 0.27
0 6 -8 12.22 0.27
0 -6 8 12.03 0.27
0 -6 8 11.54 0.26
-1 6 -8 1.59 0.08
-1 6 -8 1.64 0.09
-1 6 -8 1.62 0.07
1 -6 8 1.37 0.08
1 -6 8 1.64 0.08
-2 6 -8 3.97 0.14
-2 6 -8 3.86 0.12
-2 6 -8 3.73 0.12
2 -6 8 3.93 0.13
2 -6 8 3.73 0.13
-3 6 -8 2.96 0.12
-3 6 -8 2.93 0.1
-3 6 -8 3.03 0.11
3 -6 8 2.93 0.12
3 -6 8 2.87 0.12
-4 6 -8 3.28 0.13
4 -6 8 3.31 0.14
4 -6 8 3.29 0.13
-5 6 -8 0.17 0.05
5 -6 8 0.11 0.04
-6 6 -8 0.57 0.07
6 -6 8 0.52 0.07
-7 6 -8 0.96 0.1
7 -6 8 0.78 0.09
-8 6 -8 0.28 0.07
8 -6 8 0.27 0.07
8 5 -8 1.23 0.07
-8 -5 8 1.49 0.12
7 5 -8 0.24 0.06
7 5 -8 0.21 0.03
-7 -5 8 0.27 0.07
6 5 -8 0.07 0.03
6 5 -8 0.07 0.04
-6 -5 8 0.12 0.05
5 5 -8 0.33 0.05
5 5 -8 0.28 0.04
-5 -5 8 0.25 0.02
-5 -5 8 0.27 0.02
-5 -5 8 0.43 0.06
4 5 -8 9.4 0.24
4 5 -8 8.89 0.2
-4 -5 8 9.44 0.24
-4 -5 8 9.32 0.18
3 5 -8 3.6 0.11
3 5 -8 3.59 0.13
-3 -5 8 3.74 0.13
-3 -5 8 3.76 0.1
2 5 -8 7.84 0.18
2 5 -8 7.68 0.2
-2 -5 8 7.86 0.17
-2 -5 8 7.84 0.2
1 5 -8 19 0.36
1 5 -8 19.72 0.38
-1 -5 8 19.06 0.36
-1 -5 8 19.69 0.38
0 5 -8 1.4 0.07
0 5 -8 1.47 0.05
0 5 -8 1.44 0.07
0 -5 8 1.51 0.07
0 -5 8 1.49 0.08
-1 5 -8 0.75 0.06
-1 5 -8 0.74 0.04
-1 5 -8 0.78 0.06
1 -5 8 0.74 0.06
1 -5 8 0.76 0.06
-2 5 -8 1.37 0.07
-2 5 -8 1.42 0.08
-2 5 -8 1.36 0.07
2 -5 8 1.61 0.08
2 -5 8 1.3 0.08
-3 5 -8 0.85 0.06
-3 5 -8 0.89 0.06
-3 5 -8 0.86 0.05
-3 5 -8 0.92 0.07
3 -5 8 0.75 0.06
3 -5 8 0.94 0.07
-4 5 -8 0.49 0.06
-4 5 -8 0.47 0.06
4 -5 8 0.51 0.06
4 -5 8 0.46 0.06
-5 5 -8 12.05 0.29
-5 5 -8 12.42 0.29
5 -5 8 12.26 0.29
-6 5 -8 6.2 0.19
-6 5 -8 6.19 0.2
6 -5 8 6.15 0.2
-7 5 -8 0.1 0.05
-7 5 -8 0.05 0.04
7 -5 8 0.04 0.04
-8 5 -8 -0.03 0.04
-8 5 -8 0.08 0.05
8 -5 8 0.01 0.05
9 4 -8 0.01 0.02
-9 -4 8 0 0.05
8 4 -8 0.27 0.04
-8 -4 8 0.19 0.06
7 4 -8 0.12 0.03
7 4 -8 0.14 0.04
-7 -4 8 0.13 0.05
6 4 -8 3.43 0.13
6 4 -8 3.32 0.1
-6 -4 8 3.6 0.15
-6 -4 8 3.38 0.08
5 4 -8 0.14 0.04
5 4 -8 0.11 0.03
-5 -4 8 0.13 0.04
-5 -4 8 0.14 0.02
4 4 -8 39.51 0.7
4 4 -8 39.16 0.66
-4 -4 8 39.32 0.71
-4 -4 8 40.48 0.64
3 4 -8 0.86 0.05
3 4 -8 0.76 0.06
-3 -4 8 0.86 0.07
-3 -4 8 0.86 0.05
2 4 -8 2.99 0.09
2 4 -8 2.83 0.11
-2 -4 8 2.87 0.09
-2 -4 8 2.91 0.11
1 4 -8 0.81 0.03
1 4 -8 0.77 0.06
1 4 -8 0.74 0.05
-1 -4 8 0.88 0.05
-1 -4 8 0.86 0.06
0 4 -8 4.34 0.12
0 4 -8 4.01 0.12
0 4 -8 4.3 0.11
0 4 -8 4.29 0.09
0 -4 8 4.15 0.12
0 -4 8 4.39 0.12
-1 4 -8 30.27 0.53
-1 4 -8 30.55 0.5
-1 4 -8 30.2 0.52
-1 4 -8 28.82 0.51
1 -4 8 29.51 0.52
1 -4 8 29.87 0.51
1 -4 8 29.22 0.52
-2 4 -8 0.2 0.03
-2 4 -8 0.22 0.04
-2 4 -8 0.26 0.03
-2 4 -8 0.21 0.03
2 -4 8 0.26 0.04
2 -4 8 0.24 0.04
2 -4 8 0.25 0.03
-3 4 -8 2.31 0.09
-3 4 -8 2.39 0.08
-3 4 -8 2.44 0.1
-3 4 -8 2.33 0.09
3 -4 8 2.47 0.1
3 -4 8 2.31 0.09
3 -4 8 2.54 0.1
-4 4 -8 3.62 0.12
-4 4 -8 3.84 0.13
4 -4 8 3.77 0.13
4 -4 8 3.72 0.13
4 -4 8 3.81 0.12
-5 4 -8 0.49 0.06
-5 4 -8 0.59 0.06
5 -4 8 0.61 0.07
5 -4 8 0.65 0.06
-6 4 -8 0.06 0.03
-6 4 -8 0.01 0.04
6 -4 8 0.08 0.03
6 -4 8 0.07 0.04
-7 4 -8 1.7 0.11
-7 4 -8 1.55 0.1
7 -4 8 1.58 0.1
7 -4 8 1.54 0.1
-8 4 -8 0.38 0.06
-8 4 -8 0.25 0.06
8 -4 8 0.33 0.07
8 -4 8 0.36 0.06
-9 4 -8 -0.01 0.04
-9 4 -8 -0.01 0.03
9 -4 8 0.03 0.04
9 -4 8 0.04 0.04
9 3 -8 2.24 0.1
-9 -3 8 2.22 0.14
8 3 -8 1.94 0.09
-8 -3 8 2.16 0.06
-8 -3 8 1.92 0.12
7 3 -8 0.57 0.06
7 3 -8 0.64 0.05
-7 -3 8 0.62 0.08
-7 -3 8 0.76 0.04
6 3 -8 0.42 0.06
6 3 -8 0.47 0.05
-6 -3 8 0.38 0.03
-6 -3 8 0.47 0.07
5 3 -8 0.39 0.05
5 3 -8 0.42 0.04
-5 -3 8 0.43 0.03
-5 -3 8 0.37 0.05
4 3 -8 9.8 0.23
4 3 -8 10.37 0.21
-4 -3 8 10.38 0.25
-4 -3 8 10.33 0.2
3 3 -8 12.78 0.25
3 3 -8 12.92 0.27
-3 -3 8 12.89 0.24
-3 -3 8 12.83 0.28
-3 -3 8 12.86 0.24
2 3 -8 0.3 0.03
2 3 -8 0.27 0.04
-2 -3 8 0.27 0.04
-2 -3 8 0.36 0.03
-2 -3 8 0.26 0.03
1 3 -8 6.12 0.15
1 3 -8 6.14 0.14
1 3 -8 6.3 0.15
-1 -3 8 6.21 0.14
-1 -3 8 6.23 0.16
0 3 -8 2.15 0.07
0 3 -8 2.11 0.05
0 3 -8 2.15 0.08
0 -3 8 2.14 0.08
0 -3 8 2.13 0.07
-1 3 -8 50.91 0.83
-1 3 -8 51.02 0.83
-1 3 -8 51.22 0.84
-1 3 -8 51.55 0.81
1 -3 8 50.44 0.83
1 -3 8 50.2 0.82
1 -3 8 50.25 0.84
-2 3 -8 79.29 1.26
-2 3 -8 79.39 1.28
-2 3 -8 81.71 1.26
-2 3 -8 79.08 1.27
2 -3 8 80.78 1.28
2 -3 8 81.02 1.27
2 -3 8 76.26 1.27
-3 3 -8 9.28 0.21
-3 3 -8 9.92 0.22
-3 3 -8 9.19 0.21
-3 3 -8 9.64 0.19
3 -3 8 9.32 0.21
3 -3 8 9.44 0.21
3 -3 8 9.26 0.21
-4 3 -8 7.94 0.19
-4 3 -8 7.47 0.18
4 -3 8 7.37 0.18
4 -3 8 7.4 0.19
-5 3 -8 8.97 0.22
-5 3 -8 9.01 0.23
5 -3 8 9.15 0.22
5 -3 8 9.26 0.23
-6 3 -8 0.24 0.05
-6 3 -8 0.33 0.05
6 -3 8 0.36 0.05
6 -3 8 0.33 0.05
-7 3 -8 0.6 0.08
-7 3 -8 0.61 0.07
7 -3 8 0.86 0.09
7 -3 8 0.63 0.07
-8 3 -8 0.53 0.07
-8 3 -8 0.61 0.08
8 -3 8 0.57 0.08
8 -3 8 0.44 0.06
-9 3 -8 0.35 0.07
-9 3 -8 0.35 0.06
9 -3 8 0.31 0.06
9 -3 8 0.27 0.07
10 2 -8 0.01 0.04
10 2 -8 0 0.03
-10 -2 8 0.01 0.02
-10 -2 8 0.05 0.05
9 2 -8 0 0.03
-9 -2 8 0.01 0.02
-9 -2 8 -0.07 0.03
8 2 -8 0.97 0.07
-8 -2 8 1.01 0.05
-8 -2 8 0.99 0.11
7 2 -8 0.64 0.06
7 2 -8 0.59 0.05
-7 -2 8 0.53 0.04
-7 -2 8 0.62 0.08
6 2 -8 2.15 0.1
6 2 -8 2.01 0.08
-6 -2 8 2.11 0.07
-6 -2 8 1.99 0.11
5 2 -8 35.85 0.63
5 2 -8 35.92 0.61
-5 -2 8 35.15 0.65
-5 -2 8 35.65 0.59
4 2 -8 0.18 0.04
4 2 -8 0.22 0.03
-4 -2 8 0.25 0.02
-4 -2 8 0.24 0.04
-4 -2 8 0.18 0.03
3 2 -8 34.52 0.59
3 2 -8 35.25 0.59
3 2 -8 35.53 0.61
-3 -2 8 36.24 0.62
-3 -2 8 35.45 0.58
-3 -2 8 35.91 0.59
-3 -2 8 35.89 0.55
2 2 -8 0.02 0.02
2 2 -8 0.02 0.02
2 2 -8 0.02 0.02
-2 -2 8 0.02 0.02
-2 -2 8 0.08 0.02
1 2 -8 5.4 0.14
1 2 -8 5.33 0.13
1 2 -8 5.83 0.13
-1 -2 8 5.4 0.14
-1 -2 8 5.39 0.13
-1 -2 8 5.68 0.12
0 2 -8 5.67 0.13
0 2 -8 5.44 0.13
0 2 -8 5.28 0.13
0 2 -8 5.62 0.11
0 -2 8 5.39 0.13
0 -2 8 5.57 0.13
0 -2 8 5.56 0.13
-1 2 -8 8.56 0.18
-1 2 -8 9.22 0.19
-1 2 -8 8.9 0.17
-1 2 -8 9.13 0.19
1 -2 8 8.87 0.19
1 -2 8 8.75 0.18
1 -2 8 8.51 0.19
-2 2 -8 2.61 0.08
-2 2 -8 2.57 0.08
-2 2 -8 2.51 0.08
-2 2 -8 2.52 0.09
2 -2 8 2.5 0.09
2 -2 8 2.68 0.09
2 -2 8 2.71 0.08
-3 2 -8 6.46 0.16
-3 2 -8 6.47 0.16
-3 2 -8 6.36 0.13
-3 2 -8 6.47 0.16
3 -2 8 6.88 0.16
3 -2 8 6.3 0.16
3 -2 8 6.59 0.16
-4 2 -8 2.39 0.09
-4 2 -8 2.62 0.1
4 -2 8 2.45 0.1
4 -2 8 2.32 0.09
-5 2 -8 0.74 0.06
-5 2 -8 0.76 0.07
5 -2 8 0.64 0.06
5 -2 8 0.68 0.06
-6 2 -8 -0.03 0.02
-6 2 -8 0 0.03
6 -2 8 0.01 0.02
6 -2 8 0.06 0.03
-7 2 -8 0.74 0.09
-7 2 -8 0.67 0.07
7 -2 8 0.69 0.08
7 -2 8 0.75 0.07
-8 2 -8 0.04 0.03
-8 2 -8 0.04 0.05
8 -2 8 0.05 0.03
8 -2 8 0.02 0.04
-9 2 -8 0.47 0.08
-9 2 -8 0.49 0.06
9 -2 8 0.33 0.07
9 -2 8 0.39 0.06
10 1 -8 3.27 0.13
10 1 -8 3.32 0.18
-10 -1 8 3.32 0.11
9 1 -8 0.37 0.05
-9 -1 8 0.41 0.07
-9 -1 8 0.44 0.05
8 1 -8 2.52 0.11
-8 -1 8 2.31 0.09
-8 -1 8 2.25 0.13
7 1 -8 1.98 0.09
7 1 -8 1.99 0.1
-7 -1 8 2.04 0.12
-7 -1 8 2.01 0.08
6 1 -8 0.23 0.04
6 1 -8 0.17 0.03
-6 -1 8 0.19 0.03
-6 -1 8 0.2 0.04
5 1 -8 0.07 0.03
5 1 -8 0.08 0.02
-5 -1 8 0.07 0.02
-5 -1 8 0.13 0.04
-5 -1 8 0.14 0.02
4 1 -8 0 0.02
4 1 -8 0 0.02
-4 -1 8 0.03 0.01
-4 -1 8 -0.01 0.02
-4 -1 8 -0.02 0.01
3 1 -8 7.24 0.15
3 1 -8 6.93 0.16
3 1 -8 6.83 0.17
-3 -1 8 7.06 0.13
-3 -1 8 7.18 0.16
2 1 -8 0.75 0.05
2 1 -8 0.78 0.04
2 1 -8 0.77 0.05
-2 -1 8 0.68 0.04
-2 -1 8 0.77 0.02
-2 -1 8 0.81 0.05
1 1 -8 37.67 0.6
1 1 -8 36.18 0.61
1 1 -8 36.46 0.61
-1 -1 8 37.33 0.57
-1 -1 8 37.25 0.6
-1 -1 8 35.79 0.6
-1 -1 8 35.46 0.61
0 1 -8 102.79 2.31
0 1 -8 101.13 1.57
0 1 -8 97.67 1.57
0 1 -8 101.69 1.56
0 -1 8 99.88 1.57
0 -1 8 96.58 1.6
0 -1 8 102.28 1.59
-1 1 -8 42.21 0.67
-1 1 -8 41.21 0.68
-1 1 -8 41.73 0.68
-1 1 -8 41.19 0.68
1 -1 8 42.38 0.69
1 -1 8 40.97 0.68
1 -1 8 41.34 0.68
-2 1 -8 5.86 0.14
-2 1 -8 5.92 0.14
-2 1 -8 6.19 0.14
-2 1 -8 6.07 0.13
2 -1 8 6.28 0.14
2 -1 8 6.17 0.14
2 -1 8 6 0.14
-3 1 -8 24.64 0.43
-3 1 -8 24.8 0.43
-3 1 -8 24.22 0.41
-3 1 -8 24.16 0.44
3 -1 8 25.49 0.44
3 -1 8 24.39 0.43
-4 1 -8 30.66 0.5
-4 1 -8 31.13 0.55
-4 1 -8 30.68 0.53
4 -1 8 31.67 0.54
4 -1 8 30.12 0.54
-5 1 -8 7.16 0.17
-5 1 -8 7.17 0.2
5 -1 8 7.54 0.18
-6 1 -8 0.06 0.03
-6 1 -8 0.08 0.04
6 -1 8 0.07 0.04
6 -1 8 0.13 0.03
-7 1 -8 1.55 0.11
-7 1 -8 1.43 0.08
7 -1 8 1.26 0.08
7 -1 8 1.41 0.1
-8 1 -8 0.12 0.05
-8 1 -8 0.14 0.04
8 -1 8 0.13 0.04
8 -1 8 0.16 0.05
-9 1 -8 0.91 0.07
-9 1 -8 0.75 0.1
9 -1 8 0.98 0.1
9 -1 8 0.94 0.08
10 0 -8 0.41 0.06
10 0 -8 0.43 0.08
-10 0 8 0.58 0.06
9 0 -8 1.75 0.12
9 0 -8 1.57 0.1
-9 0 8 1.54 0.08
-9 0 8 1.78 0.13
8 0 -8 1.94 0.1
-8 0 8 1.9 0.12
-8 0 8 1.8 0.09
7 0 -8 0.19 0.04
7 0 -8 0.13 0.04
-7 0 8 0.12 0.03
-7 0 8 0.14 0.05
-7 0 8 0.15 0.03
6 0 -8 6.98 0.18
6 0 -8 7.05 0.18
-6 0 8 6.68 0.17
-6 0 8 6.64 0.2
-6 0 8 6.65 0.17
5 0 -8 2.8 0.1
5 0 -8 2.88 0.1
-5 0 8 2.91 0.09
-5 0 8 2.97 0.11
-5 0 8 2.87 0.1
4 0 -8 5.57 0.14
4 0 -8 5.55 0.15
-4 0 8 5.75 0.13
-4 0 8 5.71 0.14
-4 0 8 5.78 0.16
3 0 -8 0.87 0.05
3 0 -8 0.87 0.05
3 0 -8 0.78 0.06
-3 0 8 0.75 0.04
-3 0 8 0.85 0.05
-3 0 8 0.84 0.04
2 0 -8 91.67 1.41
2 0 -8 90.38 1.42
2 0 -8 89.36 1.42
-2 0 8 92.2 1.41
-2 0 8 88.85 1.41
-2 0 8 89.18 1.42
-2 0 8 87.43 1.41
1 0 -8 31.18 0.53
1 0 -8 30.93 0.53
-1 0 8 31.16 0.53
-1 0 8 31.92 0.52
-1 0 8 31.5 0.52
-1 0 8 31.67 0.5
0 0 -8 16.91 0.31
0 0 -8 17.41 0.31
0 0 -8 16.48 0.31
0 0 8 17.35 0.31
0 0 8 17.46 0.31
0 0 8 17.4 0.29
0 0 8 17.28 0.3
-1 0 -8 16.9 0.3
-1 0 -8 17.01 0.3
-1 0 -8 16.22 0.3
-1 0 -8 16.38 0.3
1 0 8 16.99 0.3
1 0 8 16.71 0.3
1 0 8 16.44 0.3
-2 0 -8 0.43 0.04
-2 0 -8 0.38 0.04
-2 0 -8 0.41 0.03
-2 0 -8 0.41 0.04
2 0 8 0.38 0.03
2 0 8 0.37 0.04
2 0 8 0.37 0.04
-3 0 -8 0.06 0.02
-3 0 -8 0.09 0.03
-3 0 -8 0.11 0.02
3 0 8 0.07 0.02
3 0 8 0.05 0.02
3 0 8 0.05 0.02
-4 0 -8 2.8 0.1
-4 0 -8 2.96 0.08
-4 0 -8 2.89 0.09
4 0 8 2.89 0.1
4 0 8 2.79 0.09
-5 0 -8 8.15 0.18
-5 0 -8 8.25 0.21
5 0 8 7.71 0.2
5 0 8 7.98 0.18
-6 0 -8 9.62 0.25
-6 0 -8 9.15 0.21
6 0 8 9.36 0.24
6 0 8 9.4 0.21
-7 0 -8 0.13 0.05
-7 0 -8 0.14 0.03
7 0 8 0.18 0.04
7 0 8 0.21 0.05
-8 0 -8 3.52 0.16
-8 0 -8 3.46 0.12
8 0 8 3.51 0.13
8 0 8 3.83 0.16
-9 0 -8 1.04 0.11
-9 0 -8 1.2 0.07
9 0 8 1.09 0.1
9 0 8 1.31 0.09
10 -1 -8 0.33 0.06
10 -1 -8 0.24 0.07
-10 1 8 0.27 0.05
9 -1 -8 0.85 0.08
9 -1 -8 0.74 0.09
-9 1 8 0.7 0.07
8 -1 -8 0.62 0.07
8 -1 -8 0.49 0.07
-8 1 8 0.59 0.07
-8 1 8 0.63 0.06
-8 1 8 0.6 0.08
7 -1 -8 2.51 0.11
7 -1 -8 2.35 0.1
-7 1 8 2.43 0.12
-7 1 8 2.29 0.1
-7 1 8 2.53 0.1
6 -1 -8 0.19 0.04
6 -1 -8 0.26 0.04
-6 1 8 0.29 0.04
-6 1 8 0.28 0.04
-6 1 8 0.2 0.05
5 -1 -8 1.64 0.08
5 -1 -8 1.68 0.08
-5 1 8 1.59 0.08
-5 1 8 1.51 0.07
-5 1 8 1.56 0.07
4 -1 -8 0.16 0.03
4 -1 -8 0.21 0.03
4 -1 -8 0.18 0.03
-4 1 8 0.23 0.03
-4 1 8 0.18 0.03
-4 1 8 0.26 0.04
3 -1 -8 2.51 0.09
3 -1 -8 2.62 0.09
3 -1 -8 2.46 0.08
-3 1 8 2.43 0.08
-3 1 8 2.38 0.07
-3 1 8 2.5 0.08
-3 1 8 2.3 0.08
2 -1 -8 0.92 0.05
2 -1 -8 0.98 0.06
-2 1 8 0.85 0.05
-2 1 8 0.88 0.05
-2 1 8 0.99 0.04
-2 1 8 0.99 0.05
1 -1 -8 39.47 0.67
1 -1 -8 40.4 0.66
1 -1 -8 40.58 0.66
-1 1 8 39.89 0.64
-1 1 8 40.31 0.66
-1 1 8 40.09 0.65
0 -1 -8 31.69 0.55
0 -1 -8 31.74 0.54
0 -1 -8 32.28 0.54
0 1 8 32.81 0.54
0 1 8 32.95 0.53
0 1 8 31.28 0.53
0 1 8 32.24 0.52
-1 -1 -8 31.91 0.53
-1 -1 -8 31.21 0.53
-1 -1 -8 31.95 0.53
-1 -1 -8 31.24 0.54
1 1 8 31.84 0.53
1 1 8 32.55 0.53
1 1 8 31.63 0.52
-2 -1 -8 7.11 0.15
-2 -1 -8 7.16 0.16
-2 -1 -8 7.3 0.17
2 1 8 7.01 0.15
2 1 8 7.31 0.16
2 1 8 7.12 0.15
-3 -1 -8 7.81 0.17
-3 -1 -8 7.68 0.17
-3 -1 -8 8.1 0.19
3 1 8 7.86 0.17
3 1 8 7.84 0.17
-4 -1 -8 2.72 0.08
-4 -1 -8 2.68 0.1
-4 -1 -8 2.43 0.08
4 1 8 2.28 0.09
4 1 8 2.6 0.08
-5 -1 -8 3.71 0.1
5 1 8 3.64 0.12
5 1 8 3.57 0.11
-6 -1 -8 11.3 0.23
-6 -1 -8 11.28 0.28
6 1 8 11.68 0.27
6 1 8 11.3 0.24
-7 -1 -8 2.97 0.14
-7 -1 -8 2.8 0.09
7 1 8 2.72 0.1
7 1 8 2.76 0.12
-8 -1 -8 2.38 0.13
-8 -1 -8 2.31 0.09
8 1 8 2.52 0.1
8 1 8 2.59 0.13
-9 -1 -8 1.65 0.12
-9 -1 -8 1.7 0.07
9 1 8 1.52 0.11
9 1 8 1.75 0.09
10 -2 -8 0.67 0.09
10 -2 -8 0.66 0.08
-10 2 8 0.55 0.07
9 -2 -8 0.63 0.08
9 -2 -8 0.6 0.07
-9 2 8 0.53 0.06
-9 2 8 0.61 0.08
8 -2 -8 0.09 0.04
8 -2 -8 0.09 0.04
-8 2 8 0.08 0.04
-8 2 8 0.1 0.04
7 -2 -8 3.89 0.14
7 -2 -8 3.91 0.15
-7 2 8 3.77 0.15
-7 2 8 4.03 0.14
-7 2 8 4.06 0.14
6 -2 -8 3.78 0.13
6 -2 -8 3.46 0.12
-6 2 8 3.26 0.13
-6 2 8 3.58 0.12
-6 2 8 3.49 0.12
5 -2 -8 6.79 0.18
5 -2 -8 7.09 0.18
-5 2 8 7.01 0.17
-5 2 8 7.03 0.18
-5 2 8 7.17 0.18
4 -2 -8 0.08 0.03
4 -2 -8 0.13 0.03
4 -2 -8 0.13 0.03
-4 2 8 0.1 0.03
-4 2 8 0.14 0.03
-4 2 8 0.13 0.03
3 -2 -8 9.33 0.21
3 -2 -8 9.34 0.21
3 -2 -8 9.61 0.21
-3 2 8 9.52 0.2
-3 2 8 9.21 0.2
-3 2 8 9.51 0.21
-3 2 8 9.16 0.19
2 -2 -8 2.57 0.09
2 -2 -8 2.58 0.09
2 -2 -8 2.42 0.09
-2 2 8 2.57 0.08
-2 2 8 2.55 0.08
-2 2 8 2.41 0.07
-2 2 8 2.39 0.08
1 -2 -8 11.8 0.25
1 -2 -8 11.7 0.23
1 -2 -8 12.39 0.24
-1 2 8 11.89 0.21
-1 2 8 11.43 0.23
-1 2 8 11.62 0.23
-1 2 8 11.83 0.23
0 -2 -8 46.32 0.74
0 -2 -8 44.98 0.76
0 -2 -8 45.98 0.75
0 2 8 45.34 0.74
0 2 8 44.91 0.74
0 2 8 45.84 0.72
0 2 8 46.16 0.75
-1 -2 -8 0.19 0.03
-1 -2 -8 0.23 0.03
1 2 8 0.23 0.02
1 2 8 0.21 0.03
1 2 8 0.25 0.03
1 2 8 0.25 0.03
-2 -2 -8 41.38 0.71
-2 -2 -8 42.48 0.69
-2 -2 -8 42.21 0.71
2 2 8 42.75 0.68
2 2 8 41.6 0.69
-3 -2 -8 17.13 0.32
-3 -2 -8 16.89 0.3
-3 -2 -8 16.57 0.33
3 2 8 16.63 0.31
3 2 8 16.88 0.31
-4 -2 -8 12.52 0.25
-4 -2 -8 12.77 0.24
-4 -2 -8 12.62 0.28
4 2 8 12.69 0.26
4 2 8 12.55 0.24
-5 -2 -8 0.68 0.04
-5 -2 -8 0.76 0.07
5 2 8 0.7 0.05
5 2 8 0.73 0.06
-6 -2 -8 0.05 0.02
-6 -2 -8 0.03 0.04
6 2 8 0.07 0.02
6 2 8 0.01 0.03
-7 -2 -8 0.89 0.09
-7 -2 -8 0.92 0.05
7 2 8 0.81 0.08
7 2 8 0.85 0.06
-8 -2 -8 0.76 0.04
-8 -2 -8 0.64 0.09
8 2 8 0.68 0.06
8 2 8 0.57 0.07
-9 -2 -8 0.01 0.01
-9 -2 -8 -0.03 0.05
9 2 8 0.04 0.04
9 2 8 0.07 0.03
9 -3 -8 0.82 0.09
9 -3 -8 0.71 0.08
-9 3 8 0.77 0.09
-9 3 8 0.61 0.07
8 -3 -8 1.86 0.11
8 -3 -8 1.99 0.11
-8 3 8 1.74 0.1
-8 3 8 1.75 0.11
7 -3 -8 0.55 0.06
7 -3 -8 0.57 0.07
-7 3 8 0.62 0.07
-7 3 8 0.6 0.07
6 -3 -8 0.14 0.04
6 -3 -8 0.07 0.03
6 -3 -8 0.12 0.04
-6 3 8 0.14 0.04
-6 3 8 0.09 0.04
5 -3 -8 1.51 0.08
5 -3 -8 1.47 0.08
5 -3 -8 1.58 0.08
-5 3 8 1.42 0.08
-5 3 8 1.38 0.08
-5 3 8 1.42 0.08
4 -3 -8 0.14 0.04
4 -3 -8 0.17 0.04
4 -3 -8 0.06 0.03
-4 3 8 0.18 0.03
-4 3 8 0.13 0.03
-4 3 8 0.12 0.03
3 -3 -8 20.15 0.38
3 -3 -8 20.28 0.39
3 -3 -8 20.21 0.38
-3 3 8 20.16 0.38
-3 3 8 20.02 0.38
-3 3 8 20.32 0.38
-3 3 8 20.37 0.36
2 -3 -8 49.44 0.85
2 -3 -8 50.4 0.84
2 -3 -8 51.26 0.83
-2 3 8 49.62 0.83
-2 3 8 50.18 0.83
-2 3 8 50.27 0.83
-2 3 8 51.34 0.8
1 -3 -8 23.76 0.42
1 -3 -8 23.7 0.42
1 -3 -8 23.35 0.43
-1 3 8 23.64 0.38
-1 3 8 22.79 0.42
-1 3 8 23.11 0.42
-1 3 8 23.62 0.42
0 -3 -8 2.47 0.09
0 -3 -8 2.38 0.08
0 3 8 2.38 0.08
0 3 8 2.38 0.08
0 3 8 2.54 0.05
0 3 8 2.51 0.08
-1 -3 -8 1.27 0.06
-1 -3 -8 1.14 0.07
1 3 8 1.21 0.06
1 3 8 1.28 0.06
1 3 8 1.38 0.04
-2 -3 -8 0.57 0.06
-2 -3 -8 0.53 0.04
2 3 8 0.47 0.05
2 3 8 0.61 0.03
2 3 8 0.48 0.04
-3 -3 -8 0.55 0.05
-3 -3 -8 0.46 0.05
-3 -3 -8 0.5 0.04
3 3 8 0.53 0.04
3 3 8 0.54 0.04
-4 -3 -8 0.36 0.05
-4 -3 -8 0.4 0.03
-4 -3 -8 0.43 0.05
4 3 8 0.37 0.04
4 3 8 0.43 0.04
-5 -3 -8 8.43 0.23
-5 -3 -8 8.43 0.17
5 3 8 8.48 0.2
5 3 8 8.29 0.18
-6 -3 -8 7.79 0.15
-6 -3 -8 7.65 0.22
6 3 8 7.76 0.18
6 3 8 7.38 0.2
-7 -3 -8 1.4 0.11
-7 -3 -8 1.49 0.04
7 3 8 1.49 0.09
7 3 8 1.43 0.07
-8 -3 -8 1.7 0.12
8 3 8 1.58 0.08
8 3 8 1.47 0.1
-9 4 8 0.02 0.04
-9 4 8 0.1 0.04
-8 4 8 0.77 0.09
-8 4 8 0.64 0.07
-7 4 8 0.09 0.04
-7 4 8 0.12 0.04
6 -4 -8 0.08 0.03
-6 4 8 0.04 0.03
-6 4 8 0.13 0.04
5 -4 -8 0.25 0.05
-5 4 8 0.34 0.05
-5 4 8 0.31 0.05
4 -4 -8 20.35 0.41
4 -4 -8 20.89 0.41
-4 4 8 20.61 0.4
-4 4 8 20.79 0.41
3 -4 -8 5.54 0.16
3 -4 -8 5.81 0.17
-3 4 8 5.56 0.15
-3 4 8 5.52 0.16
-3 4 8 5.71 0.16
2 -4 -8 7.63 0.19
2 -4 -8 7.72 0.2
-2 4 8 7.73 0.19
-2 4 8 8.35 0.19
1 -4 -8 1.45 0.08
1 -4 -8 1.47 0.07
-1 4 8 1.53 0.07
-1 4 8 1.36 0.07
0 -4 -8 77.07 1.25
0 -4 -8 75.08 1.22
0 4 8 75.61 1.23
0 4 8 76.17 1.22
-1 -4 -8 23.78 0.43
-1 -4 -8 23.79 0.46
1 4 8 24.02 0.44
1 4 8 24.39 0.43
-2 -4 -8 23.88 0.45
-2 -4 -8 23.19 0.41
2 4 8 23.69 0.44
2 4 8 23.52 0.42
-3 -4 -8 2.33 0.08
-3 -4 -8 2.36 0.1
3 4 8 2.26 0.1
3 4 8 2.29 0.08
-4 -4 -8 0.82 0.04
-4 -4 -8 0.77 0.07
-4 -4 -8 0.79 0.07
4 4 8 0.83 0.05
-5 -4 -8 2.65 0.11
-5 -4 -8 2.55 0.12
-5 -4 -8 2.56 0.07
5 4 8 2.6 0.09
-6 -4 -8 2.96 0.14
6 4 8 3.01 0.1
-7 -4 -8 0.39 0.07
7 4 8 0.41 0.04
-8 -4 -8 0.03 0.05
8 4 8 0.03 0.02
-8 5 8 1.21 0.11
-7 5 8 0 0.03
6 -5 -8 0.06 0.04
-6 5 8 0.16 0.05
5 -5 -8 0.27 0.05
-5 5 8 0.37 0.06
4 -5 -8 2.16 0.11
4 -5 -8 2.2 0.11
-4 5 8 2.5 0.11
3 -5 -8 2.72 0.12
3 -5 -8 2.67 0.11
-3 5 8 2.89 0.11
-3 5 8 2.8 0.11
2 -5 -8 0.65 0.06
2 -5 -8 0.86 0.07
-2 5 8 0.79 0.06
-2 5 8 0.77 0.06
1 -5 -8 0.65 0.07
1 -5 -8 0.84 0.06
-1 5 8 0.78 0.06
-1 5 8 0.88 0.06
0 -5 -8 6.42 0.19
0 -5 -8 6.45 0.16
0 5 8 6.42 0.17
0 5 8 6.62 0.17
-1 -5 -8 0.41 0.06
-1 -5 -8 0.44 0.05
1 5 8 0.45 0.05
1 5 8 0.5 0.06
-2 -5 -8 24.55 0.48
-2 -5 -8 24.13 0.43
2 5 8 24.22 0.44
2 5 8 24.73 0.47
-3 -5 -8 0.05 0.03
-3 -5 -8 0.03 0.02
3 5 8 0.02 0.02
3 5 8 0.01 0.03
-4 -5 -8 4.99 0.17
-4 -5 -8 5.08 0.11
4 5 8 4.85 0.16
4 5 8 4.81 0.13
-5 -5 -8 4.41 0.16
-5 -5 -8 4.25 0.08
5 5 8 4.35 0.12
5 5 8 4.69 0.17
-6 -5 -8 0.27 0.06
6 5 8 0.22 0.03
-7 -5 -8 0.76 0.09
7 5 8 0.84 0.06
-8 6 8 0.38 0.07
-7 6 8 0.42 0.07
6 -6 -8 0.66 0.08
-6 6 8 0.61 0.08
5 -6 -8 3.28 0.14
-5 6 8 3.35 0.14
4 -6 -8 0.33 0.06
4 -6 -8 0.24 0.05
-4 6 8 0.25 0.05
3 -6 -8 3.24 0.14
3 -6 -8 3.04 0.13
-3 6 8 2.67 0.12
-3 6 8 3.06 0.13
2 -6 -8 0.33 0.05
2 -6 -8 0.33 0.06
-2 6 8 0.45 0.06
-2 6 8 0.36 0.05
1 -6 -8 3.39 0.14
1 -6 -8 3.19 0.12
-1 6 8 3.28 0.13
-1 6 8 3.58 0.13
0 -6 -8 8.25 0.23
0 -6 -8 8.06 0.2
0 6 8 8.34 0.21
0 6 8 8.01 0.21
-1 -6 -8 6.08 0.16
-1 -6 -8 5.97 0.19
1 6 8 5.67 0.17
1 6 8 6.04 0.16
-2 -6 -8 4.04 0.16
-2 -6 -8 3.76 0.11
2 6 8 3.97 0.14
2 6 8 3.92 0.12
-3 -6 -8 3.12 0.09
-3 -6 -8 3.3 0.15
3 6 8 3.09 0.11
3 6 8 3.15 0.13
-4 -6 -8 2.64 0.07
-4 -6 -8 2.68 0.13
4 6 8 2.69 0.13
4 6 8 2.56 0.09
-5 -6 -8 2.09 0.12
5 6 8 1.92 0.08
5 6 8 1.75 0.11
6 6 8 0.55 0.07
6 6 8 0.53 0.05
7 6 8 0.72 0.09
7 6 8 0.58 0.05
-7 7 8 0.1 0.06
-6 7 8 0.06 0.04
5 -7 -8 0.04 0.04
-5 7 8 0.03 0.04
4 -7 -8 0.14 0.04
4 -7 -8 0.22 0.06
-4 7 8 0.2 0.05
3 -7 -8 0.86 0.08
3 -7 -8 0.95 0.1
-3 7 8 0.84 0.08
-3 7 8 0.66 0.08
2 -7 -8 0.03 0.03
2 -7 -8 0 0.04
-2 7 8 0.05 0.03
-2 7 8 0.03 0.03
1 -7 -8 0.3 0.06
1 -7 -8 0.24 0.05
-1 7 8 0.29 0.05
-1 7 8 0.3 0.05
0 -7 -8 0.14 0.05
0 -7 -8 0.08 0.03
0 7 8 0.08 0.04
0 7 8 0.12 0.04
-1 -7 -8 -0.01 0.04
-1 -7 -8 -0.01 0.02
1 7 8 0.03 0.03
1 7 8 0 0.03
-2 -7 -8 0.08 0.03
-2 -7 -8 0.07 0.05
2 7 8 0.12 0.03
2 7 8 0.11 0.04
-3 -7 -8 0.99 0.05
-3 -7 -8 0.92 0.1
3 7 8 1.16 0.07
3 7 8 1.06 0.09
-4 -7 -8 1.69 0.12
-4 -7 -8 1.72 0.04
4 7 8 1.69 0.11
4 7 8 1.62 0.08
-5 -7 -8 -0.01 0.04
5 7 8 0.01 0.04
5 7 8 0.02 0.02
6 7 8 1.51 0.11
6 7 8 1.34 0.07
5 -8 -8 -0.01 0.04
-5 8 8 0.05 0.05
4 -8 -8 1.54 0.11
4 -8 -8 1.59 0.12
-4 8 8 1.62 0.11
3 -8 -8 0.41 0.08
3 -8 -8 0.52 0.08
-3 8 8 0.55 0.08
2 -8 -8 0.17 0.05
2 -8 -8 0.15 0.05
-2 8 8 0.16 0.05
-2 8 8 0.11 0.05
1 -8 -8 1.81 0.12
1 -8 -8 1.66 0.1
-1 8 8 1.57 0.11
-1 8 8 1.68 0.11
0 -8 -8 0.13 0.05
0 -8 -8 0.02 0.03
0 8 8 0.07 0.04
0 8 8 0.07 0.04
-1 -8 -8 0.13 0.06
-1 -8 -8 0.1 0.03
1 8 8 0.12 0.04
1 8 8 0.11 0.04
-2 -8 -8 0.25 0.07
-2 -8 -8 0.19 0.04
2 8 8 0.16 0.04
2 8 8 0.25 0.05
-3 -8 -8 0.15 0.06
-3 -8 -8 0.15 0.03
3 8 8 0.17 0.05
3 8 8 0.13 0.04
-4 -8 -8 0.42 0.08
4 8 8 0.51 0.07
4 8 8 0.52 0.06
3 -9 -8 0.14 0.05
3 -9 -8 0.16 0.06
-3 9 8 0.04 0.05
2 -9 -8 0.07 0.04
2 -9 -8 0.13 0.06
-2 9 8 0.09 0.04
-2 9 8 0.09 0.05
1 -9 -8 0.09 0.06
1 -9 -8 0.05 0.04
-1 9 8 0.05 0.04
-1 9 8 0 0.04
0 -9 -8 0.11 0.04
0 -9 -8 0.02 0.05
0 9 8 0.01 0.04
0 9 8 0.02 0.04
-1 -9 -8 0.31 0.05
-1 -9 -8 0.26 0.07
1 9 8 0.2 0.05
1 9 8 0.25 0.06
-2 -9 -8 0.74 0.06
-2 -9 -8 0.75 0.1
2 9 8 0.79 0.08
2 9 8 0.6 0.08
2 10 -9 0.15 0.05
2 10 -9 0.15 0.06
-2 -10 9 0.13 0.03
1 10 -9 0.18 0.07
1 10 -9 0.16 0.05
-1 -10 9 0.14 0.04
0 10 -9 0.54 0.09
0 10 -9 0.78 0.09
0 -10 9 0.66 0.07
-1 10 -9 -0.02 0.05
-1 10 -9 0.01 0.04
1 -10 9 0.01 0.03
-2 10 -9 0.05 0.05
-2 10 -9 0.04 0.05
2 -10 9 0.01 0.04
3 -10 9 0.02 0.04
4 9 -9 -0.03 0.05
4 9 -9 0.01 0.03
3 9 -9 0.03 0.05
3 9 -9 0.04 0.03
-3 -9 9 0.02 0.02
2 9 -9 -0.02 0.03
2 9 -9 0.04 0.05
-2 -9 9 0 0.03
1 9 -9 0.17 0.05
1 9 -9 0.03 0.05
-1 -9 9 0.22 0.04
0 9 -9 1.27 0.1
0 9 -9 0.89 0.09
0 -9 9 1.06 0.08
-1 9 -9 0.52 0.08
-1 9 -9 0.57 0.08
1 -9 9 0.49 0.06
-2 9 -9 2 0.12
-2 9 -9 1.76 0.11
2 -9 9 1.97 0.12
3 -9 9 0.31 0.06
4 -9 9 0.22 0.06
6 8 -9 0.49 0.05
6 8 -9 0.5 0.08
-6 -8 9 0.61 0.09
5 8 -9 0.38 0.05
5 8 -9 0.3 0.07
-5 -8 9 0.42 0.08
4 8 -9 -0.01 0.04
4 8 -9 0 0.03
-4 -8 9 0.03 0.04
-4 -8 9 0.04 0.02
3 8 -9 0.93 0.1
3 8 -9 0.9 0.07
-3 -8 9 0.87 0.06
-3 -8 9 0.91 0.09
2 8 -9 1.57 0.09
2 8 -9 1.59 0.11
-2 -8 9 1.84 0.11
-2 -8 9 1.47 0.08
1 8 -9 0.21 0.05
1 8 -9 0.22 0.05
-1 -8 9 0.25 0.04
-1 -8 9 0.48 0.06
0 8 -9 -0.02 0.03
0 8 -9 -0.02 0.03
0 -8 9 -0.06 0.03
0 -8 9 0.03 0.03
-1 8 -9 0.09 0.04
-1 8 -9 0.03 0.04
1 -8 9 0.03 0.03
1 -8 9 0.05 0.04
-2 8 -9 3.21 0.14
-2 8 -9 3 0.14
2 -8 9 3.17 0.13
2 -8 9 3.1 0.14
3 -8 9 2.39 0.13
3 -8 9 2.14 0.11
-4 8 -9 1.5 0.11
4 -8 9 1.56 0.11
4 -8 9 1.42 0.1
-5 8 -9 0.64 0.08
5 -8 9 0.6 0.08
-6 8 -9 0.18 0.06
6 -8 9 0.09 0.06
7 7 -9 0.99 0.07
7 7 -9 1.15 0.11
-7 -7 9 1.01 0.11
6 7 -9 0 0.02
6 7 -9 0.01 0.04
-6 -7 9 -0.02 0.04
5 7 -9 0.24 0.06
5 7 -9 0.2 0.04
-5 -7 9 0.2 0.06
4 7 -9 0 0.04
4 7 -9 0.05 0.03
-4 -7 9 0.02 0.02
-4 -7 9 -0.02 0.04
3 7 -9 0.44 0.05
3 7 -9 0.33 0.06
-3 -7 9 0.43 0.04
-3 -7 9 0.39 0.06
2 7 -9 2.26 0.11
2 7 -9 2.18 0.1
-2 -7 9 2.32 0.11
-2 -7 9 1.89 0.09
1 7 -9 0.81 0.08
1 7 -9 0.84 0.07
-1 -7 9 0.87 0.07
-1 -7 9 0.85 0.07
0 7 -9 0.34 0.05
0 7 -9 0.24 0.05
0 -7 9 0.35 0.05
0 -7 9 0.26 0.04
-1 7 -9 2.16 0.11
-1 7 -9 2.18 0.11
1 -7 9 2.28 0.11
1 -7 9 2.05 0.1
-2 7 -9 0.31 0.06
-2 7 -9 0.32 0.05
2 -7 9 0.26 0.05
2 -7 9 0.28 0.05
-3 7 -9 3.86 0.13
-3 7 -9 3.83 0.13
-3 7 -9 3.77 0.17
3 -7 9 4.04 0.15
3 -7 9 3.81 0.15
-4 7 -9 6.95 0.2
4 -7 9 7.17 0.21
4 -7 9 6.87 0.22
-5 7 -9 2.67 0.13
5 -7 9 3.05 0.14
-6 7 -9 0.51 0.07
6 -7 9 0.55 0.08
-7 7 -9 -0.01 0.04
7 -7 9 0.06 0.05
8 6 -9 0.02 0.05
8 6 -9 0.09 0.03
-8 -6 9 0.04 0.05
7 6 -9 0.18 0.04
7 6 -9 0.24 0.06
-7 -6 9 0.28 0.07
6 6 -9 0.02 0.02
6 6 -9 0 0.04
-6 -6 9 0.08 0.05
5 6 -9 0.83 0.09
5 6 -9 0.74 0.06
-5 -6 9 1.17 0.1
-5 -6 9 0.83 0.03
4 6 -9 1.73 0.11
4 6 -9 1.88 0.08
-4 -6 9 1.7 0.06
-4 -6 9 1.64 0.11
3 6 -9 12.35 0.26
3 6 -9 11.59 0.29
-3 -6 9 12.25 0.29
-3 -6 9 11.9 0.24
2 6 -9 -0.02 0.03
2 6 -9 0.01 0.02
-2 -6 9 0.04 0.02
-2 -6 9 0 0.03
1 6 -9 12.57 0.27
1 6 -9 12.19 0.28
-1 -6 9 11.96 0.28
-1 -6 9 12.14 0.26
0 6 -9 0.39 0.05
0 6 -9 0.36 0.05
0 -6 9 0.33 0.05
0 -6 9 0.28 0.04
-1 6 -9 -0.03 0.03
-1 6 -9 0.01 0.03
1 -6 9 0.03 0.03
1 -6 9 -0.01 0.03
-2 6 -9 0.2 0.04
-2 6 -9 0.18 0.03
-2 6 -9 0.13 0.04
2 -6 9 0.15 0.04
2 -6 9 0.22 0.04
-3 6 -9 6.1 0.16
-3 6 -9 5.93 0.18
-3 6 -9 5.98 0.17
3 -6 9 6.04 0.18
3 -6 9 6 0.18
-4 6 -9 1.13 0.08
4 -6 9 0.94 0.08
-5 6 -9 1.11 0.09
5 -6 9 1.16 0.09
-6 6 -9 1.84 0.12
6 -6 9 1.93 0.11
-7 6 -9 1.83 0.12
7 -6 9 1.81 0.12
-8 6 -9 -0.03 0.04
8 -6 9 0 0.04
8 5 -9 2.08 0.13
8 5 -9 1.85 0.08
-8 -5 9 2.01 0.14
7 5 -9 0.12 0.04
7 5 -9 0.05 0.03
-7 -5 9 0.12 0.05
6 5 -9 7.87 0.19
6 5 -9 8.12 0.23
-6 -5 9 7.77 0.14
-6 -5 9 8.07 0.25
5 5 -9 0.35 0.04
5 5 -9 0.4 0.06
-5 -5 9 0.41 0.07
-5 -5 9 0.36 0.03
4 5 -9 1.52 0.09
4 5 -9 1.43 0.07
-4 -5 9 1.38 0.09
-4 -5 9 1.43 0.06
3 5 -9 1.93 0.1
3 5 -9 1.78 0.08
-3 -5 9 1.71 0.07
-3 -5 9 1.94 0.1
2 5 -9 0.77 0.06
2 5 -9 0.74 0.06
-2 -5 9 0.79 0.07
-2 -5 9 0.65 0.05
1 5 -9 2.07 0.09
1 5 -9 1.88 0.08
-1 -5 9 2.05 0.08
-1 -5 9 1.95 0.09
0 5 -9 0.13 0.03
0 5 -9 0.15 0.03
0 -5 9 0.14 0.03
0 -5 9 0.15 0.03
-1 5 -9 11.01 0.21
-1 5 -9 10.33 0.24
-1 5 -9 10.81 0.25
1 -5 9 10.71 0.24
1 -5 9 10.85 0.24
-2 5 -9 28.91 0.51
-2 5 -9 29.25 0.52
-2 5 -9 28.84 0.54
2 -5 9 29.57 0.54
2 -5 9 29.63 0.54
-3 5 -9 1.75 0.08
-3 5 -9 1.81 0.08
-3 5 -9 1.86 0.09
3 -5 9 1.87 0.09
3 -5 9 1.8 0.09
-4 5 -9 0.6 0.06
-4 5 -9 0.61 0.06
4 -5 9 0.68 0.07
-5 5 -9 0.55 0.06
-5 5 -9 0.81 0.07
5 -5 9 0.85 0.08
-6 5 -9 0.79 0.07
-6 5 -9 1.05 0.09
6 -5 9 1.05 0.09
-7 5 -9 0.34 0.06
-7 5 -9 0.42 0.07
7 -5 9 0.52 0.08
-8 5 -9 0.05 0.05
-8 5 -9 0.06 0.04
8 -5 9 -0.01 0.04
9 4 -9 0.26 0.04
-9 -4 9 0.29 0.08
8 4 -9 0.74 0.06
-8 -4 9 0.68 0.09
7 4 -9 5.29 0.15
7 4 -9 5.37 0.18
-7 -4 9 5.19 0.1
-7 -4 9 5.06 0.2
6 4 -9 2.15 0.11
6 4 -9 2.24 0.09
-6 -4 9 2.25 0.13
-6 -4 9 2.21 0.07
5 4 -9 0.42 0.06
5 4 -9 0.45 0.04
-5 -4 9 0.45 0.06
-5 -4 9 0.48 0.04
4 4 -9 2.72 0.12
4 4 -9 2.71 0.09
-4 -4 9 2.85 0.09
-4 -4 9 2.89 0.12
3 4 -9 0.11 0.03
3 4 -9 0.13 0.03
-3 -4 9 0.15 0.03
-3 -4 9 0.16 0.04
2 4 -9 6.21 0.16
-2 -4 9 6.53 0.18
-2 -4 9 6.67 0.15
1 4 -9 9.94 0.22
1 4 -9 10.39 0.23
-1 -4 9 10.09 0.23
-1 -4 9 10.33 0.22
0 4 -9 32.82 0.56
0 4 -9 32.13 0.57
0 4 -9 32.44 0.52
0 4 -9 32.32 0.57
0 -4 9 32.46 0.56
0 -4 9 32.61 0.57
-1 4 -9 0.02 0.02
-1 4 -9 0.01 0.01
-1 4 -9 0.04 0.02
-1 4 -9 0.03 0.02
1 -4 9 0.03 0.02
1 -4 9 0.01 0.03
-2 4 -9 0.1 0.02
-2 4 -9 0.13 0.03
-2 4 -9 0.1 0.03
-2 4 -9 0.15 0.03
2 -4 9 0.13 0.04
2 -4 9 0.09 0.03
2 -4 9 0.13 0.03
-3 4 -9 0.06 0.02
-3 4 -9 0.04 0.03
-3 4 -9 0.03 0.02
-3 4 -9 0.07 0.03
3 -4 9 0.06 0.03
3 -4 9 0.08 0.03
3 -4 9 0.06 0.02
-4 4 -9 12.15 0.27
-4 4 -9 11.44 0.26
4 -4 9 12.18 0.27
4 -4 9 12.25 0.27
-5 4 -9 0.73 0.07
-5 4 -9 0.6 0.07
5 -4 9 0.65 0.06
5 -4 9 0.56 0.06
-6 4 -9 3.63 0.15
-6 4 -9 3.64 0.14
6 -4 9 3.82 0.14
6 -4 9 3.7 0.15
-7 4 -9 0.36 0.06
-7 4 -9 0.28 0.06
7 -4 9 0.25 0.06
7 -4 9 0.25 0.05
-8 4 -9 0.63 0.09
-8 4 -9 0.61 0.08
8 -4 9 0.52 0.07
8 -4 9 0.57 0.08
-9 4 -9 0.58 0.09
-9 4 -9 0.54 0.07
9 -4 9 0.53 0.07
9 -4 9 0.73 0.1
9 3 -9 0.57 0.06
-9 -3 9 0.79 0.11
-9 -3 9 0.61 0.03
8 3 -9 0.08 0.03
-8 -3 9 0.12 0.02
-8 -3 9 0.14 0.06
7 3 -9 3.65 0.12
7 3 -9 3.55 0.14
-7 -3 9 3.58 0.16
-7 -3 9 3.62 0.1
6 3 -9 0.25 0.04
6 3 -9 0.29 0.05
-6 -3 9 0.29 0.06
-6 -3 9 0.25 0.03
5 3 -9 10.32 0.22
5 3 -9 10.13 0.24
-5 -3 9 10.28 0.26
-5 -3 9 10.19 0.2
4 3 -9 1.47 0.07
4 3 -9 1.64 0.09
-4 -3 9 1.64 0.09
-4 -3 9 1.55 0.06
3 3 -9 1.19 0.06
3 3 -9 1.36 0.07
-3 -3 9 1.19 0.07
-3 -3 9 1.29 0.06
2 3 -9 0.18 0.03
2 3 -9 0.14 0.03
-2 -3 9 0.13 0.03
-2 -3 9 0.17 0.03
1 3 -9 3.36 0.1
1 3 -9 3.42 0.1
-1 -3 9 3.67 0.1
-1 -3 9 3.49 0.1
-1 -3 9 3.43 0.11
0 3 -9 1.94 0.05
0 3 -9 1.94 0.08
0 3 -9 1.93 0.07
0 3 -9 1.84 0.07
0 3 -9 1.99 0.08
0 -3 9 1.84 0.08
0 -3 9 1.94 0.08
0 -3 9 2.04 0.07
-1 3 -9 7.51 0.17
-1 3 -9 7.72 0.17
-1 3 -9 7.83 0.16
-1 3 -9 7.6 0.18
1 -3 9 7.77 0.17
1 -3 9 7.87 0.18
1 -3 9 7.43 0.18
-2 3 -9 2.82 0.1
-2 3 -9 2.94 0.09
-2 3 -9 2.93 0.09
2 -3 9 3.02 0.1
2 -3 9 2.88 0.1
2 -3 9 3.15 0.11
-3 3 -9 1.34 0.07
-3 3 -9 1.51 0.06
-3 3 -9 1.49 0.07
-3 3 -9 1.37 0.07
3 -3 9 1.53 0.08
3 -3 9 1.41 0.07
3 -3 9 1.31 0.07
-4 3 -9 3.75 0.13
-4 3 -9 3.82 0.12
4 -3 9 3.71 0.12
4 -3 9 3.63 0.13
-5 3 -9 3.88 0.14
-5 3 -9 3.79 0.13
5 -3 9 4.1 0.13
5 -3 9 3.81 0.14
-6 3 -9 0.03 0.03
-6 3 -9 0.03 0.04
6 -3 9 0.05 0.04
6 -3 9 0.06 0.03
-7 3 -9 0.27 0.05
-7 3 -9 0.13 0.05
7 -3 9 0.23 0.05
7 -3 9 0.3 0.05
-8 3 -9 1.39 0.11
-8 3 -9 1.52 0.1
8 -3 9 1.57 0.11
8 -3 9 1.5 0.1
-9 3 -9 1.16 0.09
-9 3 -9 0.99 0.11
9 -3 9 1.02 0.11
9 -3 9 1.03 0.09
9 2 -9 0.43 0.06
-9 -2 9 0.38 0.04
-9 -2 9 0.59 0.09
8 2 -9 1.97 0.09
-8 -2 9 2.17 0.13
-8 -2 9 1.85 0.08
7 2 -9 0.44 0.05
7 2 -9 0.5 0.06
-7 -2 9 0.58 0.05
-7 -2 9 0.59 0.08
6 2 -9 0.58 0.05
6 2 -9 0.5 0.06
-6 -2 9 0.49 0.07
-6 -2 9 0.55 0.04
5 2 -9 14.67 0.31
5 2 -9 14.47 0.29
-5 -2 9 14.86 0.33
-5 -2 9 14.85 0.28
4 2 -9 6.23 0.16
4 2 -9 6.52 0.17
-4 -2 9 6.6 0.15
-4 -2 9 6.43 0.18
3 2 -9 -0.01 0.02
3 2 -9 0.01 0.02
-3 -2 9 0.03 0.03
-3 -2 9 -0.01 0.02
2 2 -9 8.67 0.19
2 2 -9 8.45 0.18
2 2 -9 8.32 0.19
-2 -2 9 8.43 0.18
-2 -2 9 8.15 0.19
1 2 -9 13.44 0.27
1 2 -9 13.74 0.26
-1 -2 9 13.61 0.21
-1 -2 9 13.91 0.25
-1 -2 9 13.89 0.26
-1 -2 9 13.07 0.27
0 2 -9 3.05 0.07
0 2 -9 2.98 0.09
0 2 -9 2.99 0.09
0 2 -9 3.03 0.09
0 -2 9 3.03 0.09
0 -2 9 3.05 0.09
0 -2 9 2.76 0.09
-1 2 -9 0.48 0.03
-1 2 -9 0.42 0.04
-1 2 -9 0.49 0.04
-1 2 -9 0.47 0.04
1 -2 9 0.53 0.05
1 -2 9 0.48 0.04
1 -2 9 0.49 0.04
-2 2 -9 1.27 0.06
-2 2 -9 1.13 0.06
-2 2 -9 1.18 0.05
-2 2 -9 1.15 0.06
2 -2 9 1.21 0.06
2 -2 9 1.2 0.06
2 -2 9 1.22 0.06
-3 2 -9 2.99 0.1
-3 2 -9 3.02 0.08
-3 2 -9 3.16 0.1
3 -2 9 3.08 0.1
3 -2 9 2.93 0.1
3 -2 9 2.84 0.1
-4 2 -9 29.11 0.51
-4 2 -9 28.62 0.52
4 -2 9 28.9 0.53
4 -2 9 29.21 0.52
-5 2 -9 17.22 0.35
-5 2 -9 16.38 0.33
5 -2 9 16.34 0.35
5 -2 9 16.56 0.33
-6 2 -9 7.24 0.19
-6 2 -9 7.01 0.21
6 -2 9 6.87 0.19
6 -2 9 7.13 0.2
-7 2 -9 0.71 0.07
-7 2 -9 0.69 0.08
7 -2 9 0.59 0.06
7 -2 9 0.65 0.07
-8 2 -9 0.36 0.07
-8 2 -9 0.3 0.05
8 -2 9 0.41 0.06
8 -2 9 0.35 0.07
-9 2 -9 0.15 0.05
-9 2 -9 0.22 0.05
9 -2 9 0.13 0.06
9 -2 9 0.12 0.04
10 1 -9 0.15 0.04
10 1 -9 0.17 0.07
-10 -1 9 0.14 0.03
9 1 -9 1.49 0.09
-9 -1 9 1.39 0.08
-9 -1 9 1.42 0.12
8 1 -9 0.3 0.05
-8 -1 9 0.37 0.04
-8 -1 9 0.3 0.06
7 1 -9 -0.06 0.03
7 1 -9 0.08 0.03
-7 -1 9 0.02 0.04
-7 -1 9 0.05 0.03
6 1 -9 3.93 0.13
6 1 -9 3.78 0.12
-6 -1 9 3.46 0.11
-6 -1 9 3.66 0.14
5 1 -9 0.55 0.05
5 1 -9 0.47 0.05
-5 -1 9 0.61 0.05
-5 -1 9 0.63 0.07
4 1 -9 13.56 0.28
4 1 -9 14.27 0.29
-4 -1 9 13.85 0.25
-4 -1 9 13.99 0.27
-4 -1 9 14.18 0.3
3 1 -9 17.29 0.33
3 1 -9 18.08 0.33
3 1 -9 17.8 0.34
-3 -1 9 18.18 0.35
-3 -1 9 17.54 0.33
-3 -1 9 17.86 0.29
2 1 -9 1.64 0.07
2 1 -9 1.69 0.07
-2 -1 9 1.71 0.07
-2 -1 9 1.88 0.07
-2 -1 9 1.71 0.04
-2 -1 9 1.73 0.06
1 1 -9 9.12 0.2
1 1 -9 9.48 0.19
-1 -1 9 9.31 0.16
-1 -1 9 9.24 0.2
-1 -1 9 9.39 0.2
-1 -1 9 9.54 0.19
0 1 -9 26 0.45
0 1 -9 26.56 0.43
0 1 -9 26.04 0.45
0 1 -9 25.55 0.45
0 -1 9 26.32 0.45
0 -1 9 25.87 0.45
0 -1 9 26.06 0.45
-1 1 -9 13.38 0.26
-1 1 -9 13.32 0.26
-1 1 -9 13.9 0.26
-1 1 -9 13.55 0.25
1 -1 9 13.08 0.26
1 -1 9 13.51 0.26
-2 1 -9 0.03 0.02
-2 1 -9 0.02 0.02
-2 1 -9 0.01 0.02
-2 1 -9 0 0.02
2 -1 9 0.01 0.02
2 -1 9 0.02 0.02
2 -1 9 -0.02 0.01
-3 1 -9 4.61 0.12
-3 1 -9 4.68 0.13
-3 1 -9 4.54 0.11
3 -1 9 4.57 0.12
3 -1 9 4.74 0.13
3 -1 9 4.63 0.13
-4 1 -9 2.43 0.1
-4 1 -9 2.34 0.09
4 -1 9 2.37 0.09
4 -1 9 2.37 0.09
-5 1 -9 0.09 0.04
-5 1 -9 0.12 0.03
5 -1 9 0.11 0.03
5 -1 9 0.15 0.03
-6 1 -9 0.23 0.05
-6 1 -9 0.15 0.03
6 -1 9 0.15 0.03
6 -1 9 0.18 0.05
-7 1 -9 9.52 0.27
-7 1 -9 9.78 0.23
7 -1 9 9.75 0.26
7 -1 9 10.1 0.24
-8 1 -9 3.24 0.12
-8 1 -9 2.93 0.15
8 -1 9 3.19 0.13
8 -1 9 3.19 0.15
-9 1 -9 0.97 0.11
-9 1 -9 1.01 0.08
9 -1 9 0.96 0.1
9 -1 9 1.08 0.09
10 0 -9 0.03 0.05
10 0 -9 0.02 0.04
-10 0 9 0.05 0.03
9 0 -9 0.06 0.04
-9 0 9 0.08 0.05
-9 0 9 0.1 0.03
8 0 -9 2.05 0.1
-8 0 9 1.96 0.12
-8 0 9 1.92 0.09
7 0 -9 0.01 0.03
7 0 -9 0.05 0.03
-7 0 9 0.02 0.02
-7 0 9 -0.02 0.03
6 0 -9 6.21 0.17
6 0 -9 6.11 0.17
-6 0 9 6.02 0.15
-6 0 9 5.68 0.18
-6 0 9 6.12 0.16
5 0 -9 6.13 0.17
5 0 -9 6.65 0.17
-5 0 9 6.19 0.18
-5 0 9 6.68 0.16
-5 0 9 6.47 0.15
4 0 -9 5.42 0.14
4 0 -9 5.5 0.15
-4 0 9 5.73 0.14
-4 0 9 5.46 0.12
-4 0 9 5.43 0.15
3 0 -9 1.92 0.08
3 0 -9 2.04 0.09
3 0 -9 2.12 0.08
-3 0 9 1.96 0.08
-3 0 9 2.09 0.06
-3 0 9 2.03 0.07
-3 0 9 1.99 0.08
2 0 -9 12.41 0.24
2 0 -9 12.21 0.25
2 0 -9 12.12 0.24
-2 0 9 12.02 0.21
-2 0 9 12.13 0.24
-2 0 9 12.3 0.24
-2 0 9 11.97 0.24
1 0 -9 0.98 0.05
1 0 -9 1.06 0.06
1 0 -9 0.95 0.06
-1 0 9 1.04 0.05
-1 0 9 1.16 0.05
-1 0 9 1.06 0.04
-1 0 9 1.13 0.06
0 0 -9 20.23 0.36
0 0 -9 20.02 0.36
0 0 -9 19.34 0.36
0 0 9 19.97 0.36
0 0 9 19.87 0.35
0 0 9 19.88 0.35
0 0 9 20.51 0.34
-1 0 -9 6.01 0.13
-1 0 -9 5.83 0.14
-1 0 -9 5.92 0.14
-1 0 -9 5.91 0.14
1 0 9 6.04 0.14
1 0 9 5.97 0.14
1 0 9 6.08 0.14
-2 0 -9 65.27 1.06
-2 0 -9 67.54 1.07
-2 0 -9 67.17 1.07
-2 0 -9 66.38 1.07
2 0 9 68.13 1.07
2 0 9 64.46 1.06
2 0 9 66.66 1.06
-3 0 -9 68.08 1.05
-3 0 -9 66.09 1.06
-3 0 -9 65.71 1.08
3 0 9 64.99 1.06
3 0 9 65.69 1.07
-4 0 -9 3.04 0.11
-4 0 -9 3.17 0.09
-4 0 -9 3.15 0.1
4 0 9 3.04 0.1
4 0 9 3.25 0.11
-5 0 -9 2.33 0.11
-5 0 -9 2.4 0.09
5 0 9 2.4 0.09
5 0 9 2.24 0.1
-6 0 -9 7.06 0.21
-6 0 -9 7.06 0.17
6 0 9 6.94 0.18
6 0 9 6.87 0.2
-7 0 -9 9.75 0.27
-7 0 -9 9.79 0.22
7 0 9 9.92 0.26
7 0 9 9.5 0.23
-8 0 -9 0.19 0.04
-8 0 -9 0.25 0.06
8 0 9 0.12 0.05
8 0 9 0.22 0.04
-9 0 -9 0.56 0.09
-9 0 -9 0.62 0.06
9 0 9 0.41 0.08
9 0 9 0.57 0.07
10 -1 -9 0.79 0.09
10 -1 -9 0.97 0.11
-10 1 9 0.93 0.08
9 -1 -9 0.14 0.04
9 -1 -9 0.03 0.04
-9 1 9 0.13 0.04
8 -1 -9 0.04 0.03
-8 1 9 0.03 0.03
-8 1 9 0.05 0.04
7 -1 -9 6.16 0.17
7 -1 -9 6.54 0.19
-7 1 9 6.31 0.18
-7 1 9 6.52 0.18
-7 1 9 6.18 0.2
6 -1 -9 1.58 0.09
6 -1 -9 1.41 0.08
-6 1 9 1.4 0.07
-6 1 9 1.42 0.09
-6 1 9 1.44 0.08
5 -1 -9 0.29 0.05
5 -1 -9 0.15 0.03
-5 1 9 0.24 0.04
-5 1 9 0.23 0.04
-5 1 9 0.2 0.04
4 -1 -9 0.84 0.06
4 -1 -9 0.89 0.06
-4 1 9 0.9 0.05
-4 1 9 0.88 0.06
-4 1 9 0.91 0.06
3 -1 -9 0.15 0.03
3 -1 -9 0.17 0.04
3 -1 -9 0.09 0.02
-3 1 9 0.14 0.03
-3 1 9 0.15 0.03
-3 1 9 0.23 0.03
-3 1 9 0.14 0.02
2 -1 -9 11.14 0.23
2 -1 -9 11.03 0.24
2 -1 -9 11.13 0.23
-2 1 9 10.86 0.23
-2 1 9 10.85 0.22
-2 1 9 10.8 0.22
-2 1 9 11.14 0.21
1 -1 -9 0.72 0.05
1 -1 -9 0.73 0.05
1 -1 -9 0.72 0.05
-1 1 9 0.72 0.04
-1 1 9 0.72 0.04
-1 1 9 0.62 0.04
-1 1 9 0.78 0.04
0 -1 -9 14.5 0.28
0 -1 -9 14.24 0.29
0 -1 -9 14.66 0.28
0 1 9 15.39 0.27
0 1 9 14.76 0.28
0 1 9 14.72 0.28
0 1 9 15.32 0.27
-1 -1 -9 4.27 0.12
-1 -1 -9 4.46 0.12
-1 -1 -9 4.41 0.11
-1 -1 -9 4.5 0.12
1 1 9 4.45 0.11
1 1 9 4.74 0.12
1 1 9 4.49 0.12
-2 -1 -9 1.92 0.08
-2 -1 -9 1.83 0.07
-2 -1 -9 1.81 0.07
2 1 9 1.91 0.07
2 1 9 1.87 0.07
2 1 9 1.62 0.07
-3 -1 -9 3 0.09
-3 -1 -9 2.93 0.09
-3 -1 -9 2.85 0.11
3 1 9 2.93 0.09
3 1 9 2.9 0.09
-4 -1 -9 5.41 0.16
-4 -1 -9 5.28 0.13
-4 -1 -9 5.39 0.13
4 1 9 5.04 0.14
4 1 9 4.94 0.13
-5 -1 -9 0.01 0.02
-5 -1 -9 -0.03 0.03
5 1 9 0.01 0.02
5 1 9 0.02 0.02
-6 -1 -9 0.02 0.04
-6 -1 -9 0.01 0.02
6 1 9 0.02 0.03
6 1 9 0 0.02
-7 -1 -9 3 0.1
-7 -1 -9 3 0.15
7 1 9 2.91 0.13
7 1 9 2.86 0.11
-8 -1 -9 8.99 0.2
-8 -1 -9 8.61 0.27
8 1 9 9.09 0.26
8 1 9 8.8 0.22
-9 -1 -9 0.08 0.06
-9 -1 -9 0.13 0.03
9 1 9 0.27 0.06
9 1 9 0.17 0.04
9 -2 -9 0.27 0.06
9 -2 -9 0.24 0.06
-9 2 9 0.38 0.06
8 -2 -9 -0.03 0.03
8 -2 -9 0.05 0.04
-8 2 9 0 0.03
-8 2 9 0.02 0.03
7 -2 -9 1.07 0.07
7 -2 -9 1.02 0.08
-7 2 9 1.13 0.08
-7 2 9 1.04 0.08
-7 2 9 1.16 0.09
6 -2 -9 8.08 0.2
6 -2 -9 8.29 0.21
-6 2 9 7.76 0.21
-6 2 9 8.01 0.21
-6 2 9 7.89 0.2
5 -2 -9 4.73 0.15
5 -2 -9 4.7 0.14
-5 2 9 4.59 0.14
-5 2 9 4.92 0.15
-5 2 9 4.69 0.15
4 -2 -9 2.56 0.1
4 -2 -9 2.67 0.1
4 -2 -9 2.88 0.11
-4 2 9 2.55 0.1
-4 2 9 2.6 0.1
-4 2 9 2.77 0.09
3 -2 -9 13.55 0.28
3 -2 -9 13.9 0.28
3 -2 -9 13.36 0.28
-3 2 9 13.41 0.26
-3 2 9 13.38 0.28
-3 2 9 13.99 0.28
-3 2 9 13.32 0.26
2 -2 -9 6.65 0.16
2 -2 -9 6.59 0.16
2 -2 -9 6.69 0.17
-2 2 9 6.67 0.15
-2 2 9 6.61 0.16
-2 2 9 7 0.16
-2 2 9 6.51 0.15
1 -2 -9 39.08 0.67
1 -2 -9 40.84 0.66
1 -2 -9 37.73 0.66
-1 2 9 39.21 0.66
-1 2 9 38.85 0.65
-1 2 9 39.53 0.66
-1 2 9 39.35 0.63
0 -2 -9 6.72 0.17
0 -2 -9 7.06 0.16
0 -2 -9 6.76 0.16
0 2 9 6.67 0.16
0 2 9 7.03 0.14
0 2 9 6.86 0.16
-1 -2 -9 5.1 0.13
-1 -2 -9 5.19 0.14
1 2 9 5.04 0.13
1 2 9 5.42 0.13
1 2 9 5.22 0.13
1 2 9 5.45 0.11
-2 -2 -9 16.76 0.33
-2 -2 -9 17.31 0.33
-2 -2 -9 17.25 0.32
2 2 9 16.71 0.3
2 2 9 17.15 0.32
-3 -2 -9 7.21 0.17
-3 -2 -9 7.01 0.16
-3 -2 -9 6.94 0.18
3 2 9 6.98 0.16
3 2 9 7.16 0.16
-4 -2 -9 0.87 0.05
-4 -2 -9 0.92 0.05
-4 -2 -9 0.88 0.07
4 2 9 0.83 0.05
4 2 9 0.86 0.05
-5 -2 -9 7.25 0.16
-5 -2 -9 7.08 0.2
5 2 9 7.23 0.18
5 2 9 7.17 0.17
-6 -2 -9 9.85 0.2
-6 -2 -9 9.92 0.26
6 2 9 9.85 0.24
6 2 9 10 0.22
-7 -2 -9 2.66 0.09
-7 -2 -9 2.47 0.13
7 2 9 2.6 0.12
7 2 9 2.51 0.1
-8 -2 -9 0 0.02
-8 -2 -9 0.02 0.04
8 2 9 0.05 0.04
8 2 9 -0.02 0.02
-9 -2 -9 0.17 0.06
-9 -2 -9 0.29 0.02
9 2 9 0.36 0.05
9 2 9 0.34 0.06
9 -3 -9 0.12 0.05
9 -3 -9 0.1 0.05
-9 3 9 0.21 0.06
-9 3 9 0.1 0.04
8 -3 -9 0.47 0.07
8 -3 -9 0.47 0.07
-8 3 9 0.52 0.07
-8 3 9 0.41 0.06
7 -3 -9 0.08 0.04
7 -3 -9 0.05 0.04
-7 3 9 0.02 0.03
-7 3 9 0.03 0.03
6 -3 -9 2.45 0.11
6 -3 -9 2.44 0.11
6 -3 -9 2.46 0.11
-6 3 9 2.39 0.11
-6 3 9 2.43 0.11
5 -3 -9 1.65 0.09
5 -3 -9 1.54 0.09
-5 3 9 1.66 0.08
-5 3 9 1.68 0.09
-5 3 9 1.54 0.08
4 -3 -9 26.01 0.49
4 -3 -9 26.72 0.49
4 -3 -9 25.4 0.48
-4 3 9 26.31 0.48
-4 3 9 25.83 0.46
-4 3 9 26.2 0.48
3 -3 -9 3.07 0.11
3 -3 -9 3.07 0.11
3 -3 -9 3 0.11
-3 3 9 3.14 0.1
-3 3 9 2.94 0.09
-3 3 9 3.06 0.11
-3 3 9 3.03 0.11
2 -3 -9 55.04 0.93
2 -3 -9 55.73 0.92
-2 3 9 55.16 0.88
-2 3 9 55.72 0.92
-2 3 9 57.36 0.92
-2 3 9 53.7 0.91
1 -3 -9 7.29 0.17
1 -3 -9 7.16 0.19
-1 3 9 6.99 0.17
-1 3 9 6.95 0.13
-1 3 9 7.07 0.17
-1 3 9 7.13 0.17
0 -3 -9 3.95 0.12
0 -3 -9 3.83 0.13
0 3 9 4.16 0.12
0 3 9 4.19 0.12
0 3 9 4.14 0.08
-1 -3 -9 0.19 0.04
-1 -3 -9 0.16 0.03
1 3 9 0.23 0.02
1 3 9 0.17 0.03
1 3 9 0.17 0.03
-2 -3 -9 0.13 0.03
-2 -3 -9 0.14 0.03
2 3 9 0.1 0.03
2 3 9 0.14 0.03
2 3 9 0.12 0.02
-3 -3 -9 1.68 0.07
-3 -3 -9 1.87 0.09
-3 -3 -9 1.76 0.08
3 3 9 1.8 0.07
3 3 9 1.68 0.06
-4 -3 -9 2.9 0.11
-4 -3 -9 2.73 0.09
-4 -3 -9 2.78 0.12
4 3 9 2.84 0.09
4 3 9 2.69 0.09
-5 -3 -9 0.87 0.05
-5 -3 -9 0.81 0.08
5 3 9 0.73 0.06
5 3 9 0.72 0.05
-6 -3 -9 3.27 0.09
-6 -3 -9 3.29 0.14
6 3 9 3.15 0.12
6 3 9 3.3 0.11
-7 -3 -9 0.28 0.03
-7 -3 -9 0.3 0.07
7 3 9 0.28 0.04
-8 -3 -9 0.73 0.09
8 3 9 0.71 0.06
-9 4 9 0.17 0.05
-9 4 9 0.18 0.05
-8 4 9 0.86 0.09
-8 4 9 0.66 0.08
-7 4 9 3.46 0.15
-7 4 9 3.56 0.15
6 -4 -9 0.04 0.03
-6 4 9 0.02 0.03
-6 4 9 0.05 0.03
5 -4 -9 0.55 0.06
-5 4 9 0.6 0.06
-5 4 9 0.45 0.05
4 -4 -9 0.05 0.04
4 -4 -9 0.18 0.04
-4 4 9 0.15 0.04
-4 4 9 0.13 0.03
3 -4 -9 2.42 0.1
3 -4 -9 2.64 0.11
-3 4 9 2.64 0.1
-3 4 9 2.45 0.1
2 -4 -9 1.92 0.09
2 -4 -9 2.02 0.1
-2 4 9 2.01 0.09
-2 4 9 1.96 0.09
1 -4 -9 0.25 0.04
1 -4 -9 0.37 0.05
-1 4 9 0.32 0.04
-1 4 9 0.42 0.05
0 -4 -9 33.11 0.6
0 -4 -9 32.98 0.57
0 4 9 32.25 0.58
0 4 9 33.07 0.57
-1 -4 -9 22.88 0.44
-1 -4 -9 22.4 0.41
1 4 9 22.37 0.41
1 4 9 22.5 0.42
-2 -4 -9 3.42 0.1
-2 -4 -9 3.45 0.13
2 4 9 3.26 0.12
2 4 9 3.36 0.11
-3 -4 -9 0.12 0.04
-3 -4 -9 0.11 0.03
3 4 9 0.18 0.03
3 4 9 0.16 0.04
-4 -4 -9 2.97 0.12
-4 -4 -9 2.89 0.12
-4 -4 -9 3.28 0.09
4 4 9 2.93 0.1
-5 -4 -9 4.78 0.11
-5 -4 -9 4.41 0.16
5 4 9 4.73 0.13
-6 -4 -9 3.02 0.14
-6 -4 -9 2.93 0.07
6 4 9 3 0.1
-7 -4 -9 0.4 0.07
7 4 9 0.38 0.04
-8 -4 -9 2.36 0.14
8 4 9 2.61 0.1
-8 5 9 -0.02 0.04
-7 5 9 0.16 0.05
6 -5 -9 4.29 0.16
-6 5 9 4.64 0.17
5 -5 -9 10.39 0.27
-5 5 9 10.33 0.26
4 -5 -9 1.99 0.1
4 -5 -9 1.76 0.1
-4 5 9 1.79 0.1
3 -5 -9 2.87 0.12
3 -5 -9 3.14 0.13
-3 5 9 3.2 0.12
-3 5 9 3.17 0.12
2 -5 -9 2.46 0.11
2 -5 -9 2.63 0.12
-2 5 9 2.51 0.11
-2 5 9 2.44 0.1
1 -5 -9 1.09 0.08
1 -5 -9 1.02 0.07
-1 5 9 1.19 0.07
-1 5 9 1.05 0.07
0 -5 -9 6.9 0.2
0 -5 -9 6.92 0.18
0 5 9 6.92 0.18
0 5 9 6.87 0.18
-1 -5 -9 2.01 0.09
-1 -5 -9 2.07 0.11
1 5 9 2.1 0.09
1 5 9 2.19 0.1
-2 -5 -9 4.12 0.12
-2 -5 -9 4.11 0.15
2 5 9 4.06 0.12
2 5 9 4.09 0.14
-3 -5 -9 1.14 0.06
-3 -5 -9 1.21 0.08
3 5 9 1.18 0.08
3 5 9 1.23 0.07
-4 -5 -9 -0.02 0.02
-4 -5 -9 0 0.03
4 5 9 -0.01 0.02
4 5 9 0.02 0.03
-5 -5 -9 0.6 0.07
-5 -5 -9 0.67 0.04
5 5 9 0.74 0.08
5 5 9 0.66 0.05
-6 -5 -9 0.23 0.06
6 5 9 0.47 0.08
6 5 9 0.3 0.04
-7 -5 -9 1.63 0.12
7 5 9 1.19 0.07
-7 6 9 0 0.04
6 -6 -9 1.18 0.09
-6 6 9 1.07 0.1
5 -6 -9 0.3 0.06
-5 6 9 0.31 0.06
4 -6 -9 0 0.03
4 -6 -9 -0.02 0.04
-4 6 9 0.06 0.04
3 -6 -9 0.81 0.08
3 -6 -9 0.94 0.09
-3 6 9 0.8 0.07
-3 6 9 0.83 0.07
2 -6 -9 0.21 0.05
2 -6 -9 0.17 0.05
-2 6 9 0.18 0.04
-2 6 9 0.17 0.04
1 -6 -9 0.73 0.08
1 -6 -9 0.82 0.07
-1 6 9 0.74 0.07
-1 6 9 0.86 0.07
0 -6 -9 2.88 0.13
0 -6 -9 2.89 0.11
0 6 9 3.19 0.12
0 6 9 2.93 0.12
-1 -6 -9 1.22 0.07
-1 -6 -9 1.35 0.1
1 6 9 1.2 0.08
1 6 9 1.31 0.08
-2 -6 -9 -0.01 0.02
-2 -6 -9 -0.04 0.03
2 6 9 0.02 0.02
2 6 9 0 0.03
-3 -6 -9 0.25 0.03
-3 -6 -9 0.29 0.06
3 6 9 0.24 0.05
3 6 9 0.25 0.04
-4 -6 -9 6.81 0.21
-4 -6 -9 6.35 0.14
4 6 9 6.14 0.16
4 6 9 6.27 0.2
-5 -6 -9 0.7 0.08
5 6 9 0.85 0.06
5 6 9 0.88 0.09
6 6 9 0.06 0.03
6 6 9 0.04 0.05
-6 7 9 3.17 0.16
5 -7 -9 1 0.1
-5 7 9 1.15 0.1
4 -7 -9 0 0.03
4 -7 -9 0.02 0.04
-4 7 9 -0.01 0.04
3 -7 -9 0.15 0.05
3 -7 -9 0.09 0.04
-3 7 9 0.12 0.05
2 -7 -9 0.26 0.06
2 -7 -9 0.21 0.05
-2 7 9 0.15 0.04
-2 7 9 0.25 0.05
1 -7 -9 0.48 0.06
1 -7 -9 0.53 0.08
-1 7 9 0.61 0.07
-1 7 9 0.53 0.06
0 -7 -9 0.02 0.03
0 -7 -9 0.04 0.05
0 7 9 0.03 0.03
0 7 9 0.01 0.03
-1 -7 -9 0.18 0.06
-1 -7 -9 0.21 0.04
1 7 9 0.3 0.05
1 7 9 0.19 0.05
-2 -7 -9 1.27 0.11
-2 -7 -9 1.35 0.07
2 7 9 1.06 0.09
2 7 9 1.2 0.08
-3 -7 -9 0.35 0.07
-3 -7 -9 0.28 0.04
3 7 9 0.29 0.06
3 7 9 0.24 0.04
-4 -7 -9 0.15 0.05
-4 -7 -9 0.14 0.02
4 7 9 0.12 0.03
4 7 9 0.2 0.05
-5 -7 -9 0.04 0.05
5 7 9 0.03 0.04
5 7 9 0.12 0.03
5 -8 -9 -0.01 0.05
-5 8 9 -0.02 0.04
4 -8 -9 0.33 0.07
4 -8 -9 0.25 0.06
-4 8 9 0.28 0.07
3 -8 -9 0.6 0.08
3 -8 -9 0.63 0.09
-3 8 9 0.43 0.07
2 -8 -9 0.44 0.07
2 -8 -9 0.42 0.07
-2 8 9 0.29 0.06
-2 8 9 0.3 0.06
1 -8 -9 0.37 0.07
1 -8 -9 0.32 0.06
-1 8 9 0.28 0.06
-1 8 9 0.24 0.05
0 -8 -9 8.09 0.22
0 -8 -9 7.87 0.26
0 8 9 8.11 0.23
0 8 9 7.51 0.23
-1 -8 -9 0.85 0.07
-1 -8 -9 0.77 0.1
1 8 9 0.7 0.07
1 8 9 0.77 0.08
-2 -8 -9 3.32 0.12
-2 -8 -9 3.28 0.17
2 8 9 3.63 0.14
2 8 9 3.44 0.15
-3 -8 -9 1.59 0.13
-3 -8 -9 1.3 0.06
3 8 9 1.2 0.08
3 8 9 1.4 0.11
-4 -8 -9 0.04 0.05
4 8 9 0.01 0.04
4 8 9 0 0.03
2 -9 -9 -0.01 0.04
2 -9 -9 0 0.04
-2 9 9 -0.02 0.04
-2 9 9 -0.01 0.03
1 -9 -9 0.47 0.07
1 -9 -9 0.49 0.09
-1 9 9 0.75 0.09
-1 9 9 0.57 0.08
0 -9 -9 0.6 0.07
0 -9 -9 0.6 0.09
0 9 9 0.74 0.08
0 9 9 0.62 0.08
-1 -9 -9 0.56 0.06
-1 -9 -9 0.6 0.1
1 9 9 0.48 0.07
1 9 9 0.61 0.07
2 10 -10 0.48 0.09
2 10 -10 0.48 0.07
-2 -10 10 0.54 0.06
1 10 -10 0.32 0.07
1 10 -10 0.37 0.07
-1 -10 10 0.39 0.06
0 10 -10 0.48 0.08
0 10 -10 0.63 0.08
0 -10 10 0.52 0.07
-1 10 -10 0.72 0.09
-1 10 -10 0.8 0.1
1 -10 10 0.66 0.08
-2 10 -10 0.02 0.04
2 -10 10 0.05 0.04
4 9 -10 0.1 0.04
4 9 -10 0.05 0.05
-4 -9 10 0.08 0.02
3 9 -10 0.05 0.04
3 9 -10 0 0.05
-3 -9 10 0.02 0.03
2 9 -10 0.08 0.05
2 9 -10 0.09 0.04
-2 -9 10 0.08 0.03
-2 -9 10 0.09 0.04
1 9 -10 0.62 0.07
1 9 -10 0.74 0.09
-1 -9 10 0.71 0.08
-1 -9 10 0.75 0.07
0 9 -10 2.42 0.13
0 9 -10 2.55 0.14
0 -9 10 2.55 0.13
0 -9 10 2.47 0.12
-1 9 -10 0.54 0.08
-1 9 -10 0.47 0.07
1 -9 10 0.55 0.07
1 -9 10 0.35 0.06
-2 9 -10 0.86 0.1
-2 9 -10 0.86 0.09
2 -9 10 0.8 0.08
2 -9 10 0.91 0.08
3 -9 10 1.62 0.11
3 -9 10 1.81 0.12
4 -9 10 0.74 0.08
6 8 -10 0.1 0.05
6 8 -10 0.1 0.04
-6 -8 10 0.15 0.06
5 8 -10 0.84 0.1
5 8 -10 1.06 0.07
-5 -8 10 0.94 0.1
4 8 -10 0.55 0.06
4 8 -10 0.5 0.08
-4 -8 10 0.65 0.09
-4 -8 10 0.59 0.04
3 8 -10 -0.01 0.03
3 8 -10 0.04 0.04
-3 -8 10 0.07 0.04
-3 -8 10 0.04 0.03
2 8 -10 0.22 0.06
2 8 -10 0.23 0.05
-2 -8 10 0.17 0.04
-2 -8 10 0.26 0.05
1 8 -10 0.46 0.06
1 8 -10 0.58 0.08
-1 -8 10 0.53 0.07
-1 -8 10 0.43 0.06
0 8 -10 0.54 0.07
0 8 -10 0.66 0.08
0 -8 10 0.55 0.06
0 -8 10 0.56 0.07
-1 8 -10 2.59 0.13
-1 8 -10 2.59 0.13
1 -8 10 2.2 0.12
1 -8 10 2.45 0.12
-2 8 -10 5.09 0.19
-2 8 -10 5.17 0.17
2 -8 10 5.43 0.18
2 -8 10 5.21 0.18
3 -8 10 0.78 0.08
3 -8 10 0.5 0.07
4 -8 10 0 0.04
5 -8 10 0.58 0.08
-6 8 -10 1.25 0.11
6 -8 10 1.4 0.12
7 7 -10 0.24 0.07
7 7 -10 0.28 0.04
-7 -7 10 0.21 0.07
6 7 -10 -0.02 0.03
6 7 -10 0.03 0.05
-6 -7 10 0.03 0.05
5 7 -10 0.57 0.08
5 7 -10 0.43 0.05
-5 -7 10 0.39 0.07
-5 -7 10 0.45 0.02
4 7 -10 0.62 0.08
4 7 -10 0.58 0.06
-4 -7 10 0.59 0.04
-4 -7 10 0.76 0.09
3 7 -10 5.73 0.17
3 7 -10 5.65 0.19
-3 -7 10 5.43 0.14
-3 -7 10 5.88 0.19
2 7 -10 1.47 0.09
2 7 -10 1.55 0.1
-2 -7 10 1.48 0.08
-2 -7 10 1.39 0.1
1 7 -10 0.1 0.04
1 7 -10 0.03 0.04
-1 -7 10 0.06 0.03
-1 -7 10 0.12 0.04
0 7 -10 0.91 0.08
0 7 -10 0.91 0.08
0 -7 10 0.89 0.08
0 -7 10 0.89 0.08
-1 7 -10 2.08 0.11
-1 7 -10 2.01 0.1
1 -7 10 2.09 0.1
1 -7 10 2.08 0.11
-2 7 -10 0.64 0.06
-2 7 -10 0.77 0.08
2 -7 10 0.61 0.07
2 -7 10 0.71 0.07
3 -7 10 0.18 0.05
3 -7 10 0.15 0.05
-4 7 -10 0.6 0.07
4 -7 10 0.78 0.08
-5 7 -10 1.14 0.09
5 -7 10 0.86 0.09
-6 7 -10 0.1 0.05
6 -7 10 0.02 0.04
-7 7 -10 0.41 0.07
7 -7 10 0.42 0.08
8 6 -10 1.15 0.11
8 6 -10 1.21 0.07
7 6 -10 0.14 0.04
7 6 -10 0.31 0.06
-7 -6 10 0.23 0.07
6 6 -10 4.05 0.17
6 6 -10 3.54 0.12
-6 -6 10 4.17 0.18
5 6 -10 0.16 0.04
5 6 -10 0.11 0.05
-5 -6 10 0.15 0.02
-5 -6 10 0.17 0.06
4 6 -10 0.09 0.05
4 6 -10 0.08 0.03
-4 -6 10 0.08 0.05
-4 -6 10 0.01 0.02
3 6 -10 2.52 0.12
3 6 -10 2.6 0.1
-3 -6 10 2.74 0.13
-3 -6 10 2.56 0.09
2 6 -10 3.08 0.11
2 6 -10 2.92 0.12
-2 -6 10 2.99 0.13
-2 -6 10 3.07 0.11
1 6 -10 1.29 0.08
1 6 -10 1.13 0.08
-1 -6 10 1.12 0.08
-1 -6 10 1.12 0.07
0 6 -10 8.88 0.22
0 6 -10 8.67 0.22
0 -6 10 8.5 0.21
0 -6 10 8.68 0.22
-1 6 -10 0.14 0.04
-1 6 -10 0.07 0.03
1 -6 10 0.11 0.04
1 -6 10 0.1 0.04
-2 6 -10 1.64 0.1
-2 6 -10 1.6 0.08
2 -6 10 1.66 0.09
2 -6 10 1.61 0.09
-3 6 -10 4.38 0.14
-3 6 -10 4.51 0.14
3 -6 10 4.66 0.16
3 -6 10 4.35 0.15
-4 6 -10 0.01 0.03
4 -6 10 0.04 0.04
-5 6 -10 0.08 0.04
5 -6 10 0.1 0.05
-6 6 -10 0.91 0.09
6 -6 10 0.85 0.09
-7 6 -10 0.37 0.07
7 -6 10 0.27 0.07
8 5 -10 1.34 0.1
8 5 -10 1.14 0.07
-8 -5 10 1.12 0.12
7 5 -10 1.16 0.1
7 5 -10 0.93 0.07
-7 -5 10 0.87 0.1
6 5 -10 0.4 0.06
6 5 -10 0.41 0.05
-6 -5 10 0.48 0.08
-6 -5 10 0.41 0.03
5 5 -10 1.74 0.08
5 5 -10 1.81 0.1
-5 -5 10 1.77 0.11
-5 -5 10 1.73 0.06
4 5 -10 5.77 0.18
4 5 -10 5.39 0.15
-4 -5 10 5.32 0.13
-4 -5 10 5.51 0.18
3 5 -10 0.54 0.07
3 5 -10 0.64 0.06
-3 -5 10 0.58 0.05
-3 -5 10 0.58 0.07
2 5 -10 1.96 0.1
2 5 -10 2.02 0.09
-2 -5 10 2.06 0.1
-2 -5 10 1.98 0.08
1 5 -10 1.47 0.08
1 5 -10 1.34 0.08
-1 -5 10 1.4 0.08
-1 -5 10 1.49 0.09
0 5 -10 4.98 0.15
0 5 -10 5.27 0.15
0 -5 10 5.03 0.15
0 -5 10 5.23 0.15
-1 5 -10 0.54 0.06
-1 5 -10 0.67 0.06
-1 5 -10 0.69 0.04
1 -5 10 0.73 0.07
1 -5 10 0.58 0.06
-2 5 -10 2.39 0.1
-2 5 -10 2.53 0.09
2 -5 10 2.52 0.11
2 -5 10 2.57 0.11
-3 5 -10 1.23 0.06
-3 5 -10 1.26 0.07
3 -5 10 1.27 0.08
3 -5 10 1.34 0.08
-4 5 -10 1.61 0.09
4 -5 10 1.91 0.1
-5 5 -10 0.01 0.03
-5 5 -10 0.03 0.04
5 -5 10 0 0.03
-6 5 -10 0.11 0.05
-6 5 -10 0.17 0.04
6 -5 10 0.14 0.05
-7 5 -10 0.25 0.05
-7 5 -10 0.3 0.06
7 -5 10 0.24 0.06
-8 5 -10 0.17 0.05
-8 5 -10 0.08 0.05
8 -5 10 0.05 0.05
9 4 -10 0.36 0.05
-9 -4 10 0.29 0.08
8 4 -10 0.04 0.03
8 4 -10 -0.02 0.04
-8 -4 10 0.07 0.01
-8 -4 10 0.06 0.05
7 4 -10 0.09 0.03
7 4 -10 0.03 0.04
-7 -4 10 0.15 0.05
-7 -4 10 0.06 0.02
6 4 -10 0.61 0.06
6 4 -10 0.64 0.07
-6 -4 10 0.71 0.04
-6 -4 10 0.76 0.09
5 4 -10 0.96 0.08
5 4 -10 0.78 0.06
-5 -4 10 0.79 0.05
-5 -4 10 0.86 0.08
4 4 -10 13.36 0.3
4 4 -10 12.88 0.27
-4 -4 10 13.18 0.26
-4 -4 10 12.8 0.31
3 4 -10 13.27 0.27
3 4 -10 13.39 0.3
-3 -4 10 13.39 0.3
-3 -4 10 13.8 0.27
2 4 -10 3.91 0.13
2 4 -10 3.62 0.12
-2 -4 10 3.8 0.11
-2 -4 10 3.63 0.13
1 4 -10 0.1 0.03
1 4 -10 0.17 0.03
-1 -4 10 0.17 0.04
-1 -4 10 0.15 0.03
0 4 -10 1.73 0.08
0 4 -10 1.65 0.08
0 -4 10 1.73 0.08
0 -4 10 1.75 0.08
-1 4 -10 1.25 0.05
-1 4 -10 1.22 0.07
-1 4 -10 1.27 0.07
-1 4 -10 1.37 0.07
1 -4 10 1.33 0.07
1 -4 10 1.18 0.07
-2 4 -10 0.02 0.02
-2 4 -10 0.01 0.02
-2 4 -10 0 0.02
-2 4 -10 0.01 0.02
2 -4 10 0.01 0.03
2 -4 10 0.05 0.03
-3 4 -10 0.16 0.03
-3 4 -10 0.16 0.03
-3 4 -10 0.17 0.04
3 -4 10 0.21 0.04
3 -4 10 0.14 0.03
3 -4 10 0.28 0.05
-4 4 -10 3.95 0.14
-4 4 -10 4.01 0.13
4 -4 10 3.82 0.14
4 -4 10 4.14 0.13
-5 4 -10 12.88 0.3
-5 4 -10 12.77 0.29
5 -4 10 12.97 0.29
5 -4 10 12.74 0.3
-6 4 -10 0.23 0.05
-6 4 -10 0.31 0.05
6 -4 10 0.28 0.06
6 -4 10 0.32 0.05
-7 4 -10 0.14 0.05
-7 4 -10 0.18 0.05
7 -4 10 0.06 0.04
7 -4 10 0.09 0.05
-8 4 -10 0.02 0.04
-8 4 -10 -0.03 0.03
8 -4 10 0.07 0.05
9 3 -10 1.74 0.09
-9 -3 10 1.76 0.14
-9 -3 10 1.86 0.06
8 3 -10 2.85 0.11
-8 -3 10 3.12 0.09
-8 -3 10 2.93 0.16
7 3 -10 0.56 0.07
7 3 -10 0.59 0.06
-7 -3 10 0.56 0.04
-7 -3 10 0.6 0.08
6 3 -10 0.39 0.06
6 3 -10 0.27 0.04
-6 -3 10 0.35 0.04
-6 -3 10 0.32 0.06
5 3 -10 3.78 0.14
5 3 -10 3.83 0.12
-5 -3 10 3.88 0.11
-5 -3 10 3.89 0.15
4 3 -10 0.09 0.04
4 3 -10 0.09 0.03
-4 -3 10 0.14 0.03
-4 -3 10 0.16 0.04
3 3 -10 2.23 0.1
3 3 -10 2.04 0.08
-3 -3 10 2.01 0.1
-3 -3 10 2.21 0.08
2 3 -10 16.92 0.33
2 3 -10 17.38 0.34
-2 -3 10 17.24 0.32
-2 -3 10 16.97 0.35
1 3 -10 6.4 0.17
1 3 -10 6.94 0.16
1 3 -10 6.53 0.16
-1 -3 10 6.73 0.16
-1 -3 10 6.91 0.17
0 3 -10 0.6 0.05
0 3 -10 0.63 0.03
0 3 -10 0.57 0.05
0 3 -10 0.62 0.05
0 -3 10 0.66 0.05
0 -3 10 0.67 0.05
0 -3 10 0.58 0.04
-1 3 -10 0.21 0.03
-1 3 -10 0.2 0.04
-1 3 -10 0.17 0.03
-1 3 -10 0.17 0.03
1 -3 10 0.22 0.03
1 -3 10 0.21 0.04
1 -3 10 0.22 0.04
-2 3 -10 14.76 0.28
-2 3 -10 14.8 0.3
-2 3 -10 15.01 0.3
-2 3 -10 14.69 0.28
2 -3 10 14.78 0.3
2 -3 10 14.9 0.3
2 -3 10 14.58 0.29
-3 3 -10 11.79 0.25
-3 3 -10 12.01 0.26
-3 3 -10 11.94 0.23
3 -3 10 12.03 0.26
3 -3 10 11.98 0.26
3 -3 10 12.1 0.26
-4 3 -10 2.62 0.11
-4 3 -10 2.54 0.1
4 -3 10 2.78 0.11
4 -3 10 2.6 0.11
-5 3 -10 0.33 0.05
-5 3 -10 0.35 0.05
5 -3 10 0.33 0.05
5 -3 10 0.28 0.05
-6 3 -10 0.23 0.05
-6 3 -10 0.23 0.05
6 -3 10 0.33 0.05
6 -3 10 0.29 0.06
-7 3 -10 0.09 0.05
-7 3 -10 0.1 0.04
7 -3 10 0.03 0.04
7 -3 10 0.02 0.03
-8 3 -10 0.83 0.08
-8 3 -10 0.86 0.1
8 -3 10 0.74 0.08
8 -3 10 0.97 0.1
-9 3 -10 0.03 0.04
-9 3 -10 -0.05 0.04
9 -3 10 -0.02 0.05
9 -3 10 0.05 0.04
9 2 -10 0.07 0.04
-9 -2 10 0.11 0.06
-9 -2 10 0.07 0.03
8 2 -10 0.29 0.05
-8 -2 10 0.25 0.06
-8 -2 10 0.24 0.04
7 2 -10 1.44 0.08
7 2 -10 1.47 0.1
-7 -2 10 1.66 0.07
-7 -2 10 1.57 0.11
6 2 -10 4.38 0.15
6 2 -10 4.12 0.13
-6 -2 10 4.41 0.17
-6 -2 10 4.08 0.12
5 2 -10 0.92 0.06
5 2 -10 0.81 0.07
-5 -2 10 0.79 0.07
-5 -2 10 0.89 0.05
4 2 -10 21.14 0.41
4 2 -10 21.15 0.4
-4 -2 10 21.56 0.43
-4 -2 10 20.9 0.38
3 2 -10 0.49 0.05
3 2 -10 0.63 0.06
-3 -2 10 0.54 0.05
-3 -2 10 0.39 0.05
2 2 -10 0.95 0.06
2 2 -10 0.89 0.06
2 2 -10 0.95 0.05
-2 -2 10 0.89 0.06
-2 -2 10 0.94 0.06
1 2 -10 16.37 0.32
1 2 -10 16.83 0.33
1 2 -10 17.26 0.32
-1 -2 10 16.83 0.27
-1 -2 10 17.38 0.31
-1 -2 10 16.24 0.32
-1 -2 10 17.12 0.33
0 2 -10 8.81 0.2
0 2 -10 9.29 0.2
0 2 -10 9.21 0.17
0 2 -10 9.34 0.2
0 -2 10 9.16 0.19
0 -2 10 9.07 0.2
0 -2 10 8.97 0.2
-1 2 -10 34.92 0.58
-1 2 -10 35.24 0.61
-1 2 -10 35.37 0.6
-1 2 -10 35.92 0.6
1 -2 10 35.45 0.61
1 -2 10 35.72 0.6
1 -2 10 35.22 0.61
-2 2 -10 0.77 0.05
-2 2 -10 0.83 0.05
-2 2 -10 0.88 0.06
-2 2 -10 0.85 0.05
-2 2 -10 0.92 0.06
2 -2 10 0.92 0.06
2 -2 10 0.83 0.06
2 -2 10 0.85 0.05
-3 2 -10 2.86 0.1
-3 2 -10 3.21 0.09
-3 2 -10 3.1 0.1
3 -2 10 3.32 0.11
3 -2 10 3.13 0.11
3 -2 10 3.05 0.11
-4 2 -10 12.05 0.27
-4 2 -10 11.86 0.26
4 -2 10 11.98 0.26
4 -2 10 12.57 0.27
-5 2 -10 0 0.03
-5 2 -10 0 0.03
5 -2 10 0.06 0.04
5 -2 10 0.06 0.03
-6 2 -10 0.12 0.05
-6 2 -10 0.08 0.04
6 -2 10 0.08 0.03
6 -2 10 0.16 0.05
-7 2 -10 4.83 0.18
-7 2 -10 5 0.16
7 -2 10 4.82 0.17
7 -2 10 4.92 0.16
-8 2 -10 3.44 0.13
-8 2 -10 3.32 0.16
8 -2 10 3.29 0.14
8 -2 10 3.04 0.15
-9 2 -10 0.43 0.08
-9 2 -10 0.44 0.06
9 -2 10 0.41 0.06
9 -2 10 0.45 0.08
9 1 -10 1.96 0.11
-9 -1 10 1.93 0.13
-9 -1 10 1.94 0.09
8 1 -10 0.32 0.05
-8 -1 10 0.26 0.04
-8 -1 10 0.28 0.06
7 1 -10 0.12 0.05
7 1 -10 0.1 0.03
-7 -1 10 0.09 0.05
-7 -1 10 0.13 0.03
6 1 -10 13.51 0.3
6 1 -10 14.15 0.3
-6 -1 10 13.91 0.28
-6 -1 10 13.95 0.33
5 1 -10 0.06 0.03
5 1 -10 0.09 0.04
-5 -1 10 0.03 0.02
-5 -1 10 0.08 0.03
4 1 -10 4.7 0.14
4 1 -10 4.93 0.15
-4 -1 10 4.97 0.15
-4 -1 10 4.86 0.13
3 1 -10 20.98 0.39
3 1 -10 21.05 0.4
-3 -1 10 21.01 0.39
-3 -1 10 21.33 0.41
-3 -1 10 21.42 0.35
2 1 -10 72.45 1.18
2 1 -10 71.24 1.16
2 1 -10 72.98 1.17
-2 -1 10 73.68 1.18
-2 -1 10 72.1 1.16
-2 -1 10 74.16 1.16
-2 -1 10 72.45 1.13
1 1 -10 30.2 0.54
1 1 -10 30.89 0.54
1 1 -10 31.17 0.53
-1 -1 10 30.92 0.54
-1 -1 10 31.23 0.53
-1 -1 10 30.83 0.49
-1 -1 10 31.35 0.53
0 1 -10 44.97 0.75
0 1 -10 44.14 0.74
0 1 -10 45.11 0.75
0 1 -10 45.56 0.71
0 -1 10 45.99 0.74
0 -1 10 44.9 0.75
0 -1 10 44.5 0.74
-1 1 -10 28.02 0.48
-1 1 -10 27.85 0.48
-1 1 -10 27.37 0.47
-1 1 -10 27.34 0.48
1 -1 10 27.91 0.49
1 -1 10 28 0.48
1 -1 10 27.16 0.48
-2 1 -10 0.19 0.03
-2 1 -10 0.35 0.04
-2 1 -10 0.24 0.03
-2 1 -10 0.42 0.04
2 -1 10 0.18 0.03
2 -1 10 0.29 0.04
2 -1 10 0.31 0.04
-3 1 -10 0.06 0.03
-3 1 -10 0.06 0.03
-3 1 -10 0.05 0.02
3 -1 10 0.04 0.02
3 -1 10 0.05 0.03
-4 1 -10 23.06 0.43
-4 1 -10 23.05 0.44
4 -1 10 23.26 0.43
4 -1 10 23.2 0.44
-5 1 -10 9.26 0.24
-5 1 -10 8.91 0.21
5 -1 10 9.15 0.23
5 -1 10 9.28 0.22
-6 1 -10 0.04 0.03
-6 1 -10 0.05 0.04
6 -1 10 0.04 0.04
6 -1 10 0.01 0.03
-7 1 -10 0.21 0.04
-7 1 -10 0.28 0.06
7 -1 10 0.21 0.05
7 -1 10 0.17 0.04
-8 1 -10 0.52 0.06
-8 1 -10 0.44 0.08
8 -1 10 0.61 0.08
8 -1 10 0.48 0.06
-9 1 -10 -0.02 0.03
-9 1 -10 -0.02 0.04
9 -1 10 0.01 0.03
9 -1 10 0.07 0.05
9 0 -10 0.29 0.05
-9 0 10 0.31 0.05
-9 0 10 0.17 0.06
8 0 -10 0.4 0.06
-8 0 10 0.5 0.08
-8 0 10 0.47 0.06
7 0 -10 0.74 0.07
7 0 -10 0.9 0.07
-7 0 10 0.78 0.09
-7 0 10 0.76 0.06
6 0 -10 3.05 0.12
6 0 -10 3.27 0.13
-6 0 10 3.11 0.11
-6 0 10 3.28 0.14
5 0 -10 15.7 0.32
5 0 -10 15.77 0.33
-5 0 10 14.97 0.33
-5 0 10 15.41 0.29
-5 0 10 15.36 0.31
4 0 -10 0.04 0.03
4 0 -10 0.08 0.04
-4 0 10 0.04 0.02
-4 0 10 0.05 0.03
-4 0 10 0.03 0.02
3 0 -10 5.76 0.15
3 0 -10 5.79 0.16
3 0 -10 5.61 0.15
-3 0 10 5.72 0.12
-3 0 10 5.85 0.16
-3 0 10 5.6 0.15
2 0 -10 0.25 0.04
2 0 -10 0.28 0.03
2 0 -10 0.35 0.04
-2 0 10 0.37 0.04
-2 0 10 0.34 0.02
-2 0 10 0.32 0.03
-2 0 10 0.3 0.04
1 0 -10 4.46 0.13
1 0 -10 4.53 0.12
1 0 -10 4.39 0.12
-1 0 10 4.51 0.12
-1 0 10 4.5 0.1
-1 0 10 4.3 0.12
-1 0 10 4.64 0.12
0 0 -10 7.7 0.18
0 0 -10 7.78 0.17
0 0 -10 7.68 0.18
0 0 10 7.64 0.18
0 0 10 7.69 0.17
0 0 10 7.73 0.17
0 0 10 7.93 0.16
-1 0 -10 21.93 0.38
-1 0 -10 21.55 0.39
-1 0 -10 21.49 0.39
1 0 10 22.23 0.4
1 0 10 22.22 0.39
1 0 10 21.71 0.39
-2 0 -10 4.35 0.12
-2 0 -10 4.54 0.12
-2 0 -10 4.56 0.12
2 0 10 4.52 0.12
2 0 10 4.66 0.13
2 0 10 4.53 0.12
-3 0 -10 34.42 0.6
-3 0 -10 34.32 0.58
-3 0 -10 33.48 0.58
3 0 10 34.26 0.58
3 0 10 34.01 0.59
-4 0 -10 35.69 0.6
-4 0 -10 35.76 0.64
-4 0 -10 36.29 0.62
4 0 10 37.01 0.62
4 0 10 35.72 0.63
-5 0 -10 0.02 0.04
-5 0 -10 0.02 0.03
5 0 10 0.01 0.02
5 0 10 0 0.03
-6 0 -10 32.06 0.56
-6 0 -10 32.26 0.61
6 0 10 32.87 0.58
6 0 10 30.33 0.59
-7 0 -10 1.37 0.11
-7 0 -10 1.4 0.08
7 0 10 1.39 0.08
7 0 10 1.19 0.09
-8 0 -10 0.93 0.07
-8 0 -10 1.08 0.11
8 0 10 1.01 0.1
8 0 10 1.07 0.08
-9 0 -10 -0.01 0.04
-9 0 -10 0.07 0.03
9 0 10 0.05 0.03
9 0 10 0.02 0.04
9 -1 -10 0.14 0.05
9 -1 -10 0.05 0.05
-9 1 10 0.08 0.04
8 -1 -10 0.28 0.05
-8 1 10 0.43 0.06
-8 1 10 0.36 0.07
7 -1 -10 0.35 0.05
7 -1 -10 0.23 0.05
-7 1 10 0.32 0.05
-7 1 10 0.28 0.06
6 -1 -10 0.39 0.05
6 -1 -10 0.32 0.05
-6 1 10 0.37 0.05
-6 1 10 0.31 0.04
-6 1 10 0.43 0.06
5 -1 -10 0.69 0.06
5 -1 -10 0.67 0.07
-5 1 10 0.75 0.05
-5 1 10 0.73 0.06
-5 1 10 0.65 0.06
4 -1 -10 56.63 0.94
4 -1 -10 57.08 0.94
-4 1 10 55.41 0.91
-4 1 10 55.35 0.93
-4 1 10 55.49 0.94
3 -1 -10 81.89 1.3
3 -1 -10 78.67 1.29
3 -1 -10 79.17 1.3
-3 1 10 82.1 1.3
-3 1 10 79.72 1.29
-3 1 10 80.94 1.27
-3 1 10 80.97 1.29
2 -1 -10 16.95 0.33
2 -1 -10 17.21 0.33
2 -1 -10 17.33 0.33
-2 1 10 17.2 0.33
-2 1 10 16.71 0.32
-2 1 10 16.76 0.32
-2 1 10 16.49 0.3
1 -1 -10 3.56 0.11
1 -1 -10 3.56 0.11
1 -1 -10 3.7 0.11
-1 1 10 3.65 0.11
-1 1 10 3.58 0.09
-1 1 10 3.54 0.1
0 -1 -10 1.6 0.07
0 -1 -10 1.54 0.07
0 -1 -10 1.56 0.08
0 1 10 1.62 0.06
0 1 10 1.48 0.07
0 1 10 1.65 0.06
0 1 10 1.67 0.07
-1 -1 -10 2.71 0.09
-1 -1 -10 2.57 0.09
-1 -1 -10 2.67 0.09
1 1 10 2.68 0.09
1 1 10 2.76 0.09
1 1 10 2.66 0.08
-2 -1 -10 1.44 0.07
-2 -1 -10 1.58 0.07
-2 -1 -10 1.47 0.07
2 1 10 1.56 0.06
2 1 10 1.54 0.07
-3 -1 -10 5.68 0.14
-3 -1 -10 5.7 0.16
-3 -1 -10 5.77 0.15
3 1 10 5.75 0.14
3 1 10 5.77 0.14
-4 -1 -10 6.82 0.16
-4 -1 -10 6.78 0.19
-4 -1 -10 6.73 0.16
4 1 10 6.53 0.17
4 1 10 6.96 0.17
-5 -1 -10 0.19 0.03
-5 -1 -10 0.19 0.05
5 1 10 0.18 0.04
5 1 10 0.16 0.03
-6 -1 -10 7.59 0.18
-6 -1 -10 7.84 0.23
6 1 10 7.58 0.19
6 1 10 7.54 0.21
-7 -1 -10 3.72 0.12
-7 -1 -10 3.55 0.16
7 1 10 3.78 0.15
7 1 10 3.82 0.13
-8 -1 -10 0.05 0.03
-8 -1 -10 -0.01 0.04
8 1 10 0.02 0.04
8 1 10 0.06 0.03
-9 -1 -10 0.05 0.05
-9 -1 -10 0.05 0.03
9 1 10 0.04 0.03
9 1 10 0 0.04
9 -2 -10 0.39 0.07
9 -2 -10 0.29 0.06
-9 2 10 0.3 0.06
8 -2 -10 1.27 0.1
8 -2 -10 1.47 0.1
-8 2 10 1.43 0.09
7 -2 -10 0.05 0.03
7 -2 -10 0.01 0.04
-7 2 10 0.01 0.03
-7 2 10 0 0.03
-7 2 10 -0.01 0.03
6 -2 -10 0.65 0.07
6 -2 -10 0.47 0.06
-6 2 10 0.63 0.06
-6 2 10 0.43 0.06
-6 2 10 0.59 0.06
5 -2 -10 4.17 0.14
5 -2 -10 4.11 0.14
-5 2 10 4.07 0.13
-5 2 10 4.03 0.13
-5 2 10 3.83 0.12
4 -2 -10 36.96 0.64
4 -2 -10 35.57 0.64
-4 2 10 36.5 0.62
-4 2 10 35.56 0.63
-4 2 10 36.03 0.63
3 -2 -10 2.43 0.1
3 -2 -10 2.54 0.1
3 -2 -10 2.43 0.1
-3 2 10 2.48 0.09
-3 2 10 2.51 0.09
-3 2 10 2.59 0.1
-3 2 10 2.5 0.1
2 -2 -10 0.49 0.05
2 -2 -10 0.29 0.04
2 -2 -10 0.45 0.05
-2 2 10 0.39 0.04
-2 2 10 0.41 0.04
-2 2 10 0.31 0.03
-2 2 10 0.43 0.04
1 -2 -10 3.94 0.13
1 -2 -10 3.78 0.11
1 -2 -10 3.81 0.11
-1 2 10 3.64 0.11
-1 2 10 3.63 0.1
-1 2 10 3.66 0.11
-1 2 10 3.83 0.1
0 -2 -10 11.6 0.25
0 -2 -10 12 0.24
0 2 10 11.46 0.24
0 2 10 11.66 0.24
0 2 10 11.72 0.22
0 2 10 11.44 0.23
-1 -2 -10 0.46 0.04
-1 -2 -10 0.61 0.05
1 2 10 0.51 0.04
1 2 10 0.54 0.04
1 2 10 0.53 0.05
-2 -2 -10 53.15 0.89
-2 -2 -10 54.43 0.9
-2 -2 -10 54.07 0.88
2 2 10 53.17 0.88
2 2 10 54.49 0.86
-3 -2 -10 10.05 0.21
-3 -2 -10 10.23 0.23
-3 -2 -10 10.33 0.24
3 2 10 10.32 0.21
3 2 10 10.35 0.22
-4 -2 -10 0.51 0.06
-4 -2 -10 0.52 0.05
-4 -2 -10 0.65 0.05
4 2 10 0.57 0.05
4 2 10 0.8 0.05
-5 -2 -10 1.47 0.1
-5 -2 -10 1.48 0.07
5 2 10 1.52 0.08
5 2 10 1.4 0.07
-6 -2 -10 5.58 0.19
-6 -2 -10 5.01 0.13
6 2 10 5.14 0.15
6 2 10 5.12 0.16
-7 -2 -10 0.66 0.08
-7 -2 -10 0.74 0.05
7 2 10 0.77 0.08
7 2 10 0.71 0.06
-8 -2 -10 0.08 0.03
-8 -2 -10 0.09 0.06
8 2 10 0.06 0.03
8 2 10 0.09 0.05
-9 3 10 0.35 0.06
8 -3 -10 1.22 0.1
-8 3 10 1.2 0.09
-8 3 10 1.04 0.09
7 -3 -10 2.01 0.1
7 -3 -10 2.02 0.11
7 -3 -10 1.96 0.11
-7 3 10 2.21 0.11
-7 3 10 2.03 0.11
6 -3 -10 1.79 0.1
6 -3 -10 2.02 0.1
-6 3 10 1.81 0.1
-6 3 10 1.77 0.09
-6 3 10 1.82 0.1
5 -3 -10 15.87 0.35
5 -3 -10 16.67 0.35
-5 3 10 16.02 0.33
-5 3 10 15.98 0.34
-5 3 10 16.99 0.34
4 -3 -10 0.6 0.06
4 -3 -10 0.81 0.07
-4 3 10 0.92 0.07
-4 3 10 0.85 0.07
-4 3 10 0.72 0.06
3 -3 -10 4 0.13
3 -3 -10 4.18 0.14
-3 3 10 4.07 0.12
-3 3 10 4.43 0.13
-3 3 10 4.2 0.11
-3 3 10 4.26 0.13
2 -3 -10 27.96 0.51
2 -3 -10 27.95 0.52
-2 3 10 28.21 0.5
-2 3 10 27.52 0.5
-2 3 10 27.74 0.49
1 -3 -10 15.06 0.32
1 -3 -10 15.15 0.3
-1 3 10 15.59 0.3
-1 3 10 14.67 0.3
0 -3 -10 1.1 0.06
0 -3 -10 1.17 0.07
0 3 10 1.2 0.06
0 3 10 1.03 0.06
-1 -3 -10 0.29 0.04
-1 -3 -10 0.36 0.05
1 3 10 0.43 0.05
1 3 10 0.37 0.05
-2 -3 -10 4.31 0.12
-2 -3 -10 4.27 0.14
2 3 10 4.15 0.12
2 3 10 4.15 0.13
-3 -3 -10 1.99 0.1
-3 -3 -10 1.95 0.09
-3 -3 -10 1.85 0.07
3 3 10 1.81 0.08
-4 -3 -10 1.03 0.06
-4 -3 -10 0.98 0.07
4 3 10 1.12 0.06
-5 -3 -10 0.14 0.03
-5 -3 -10 0.16 0.05
5 3 10 0.14 0.03
-6 -3 -10 0.5 0.04
-6 -3 -10 0.51 0.08
6 3 10 0.53 0.05
-7 -3 -10 0.06 0.05
-7 -3 -10 -0.02 0.02
7 3 10 -0.01 0.02
-8 -3 -10 0.12 0.05
8 3 10 0.13 0.04
-8 4 10 0.3 0.06
-8 4 10 0.39 0.07
-7 4 10 0.28 0.06
-7 4 10 0.37 0.06
6 -4 -10 0.13 0.04
-6 4 10 0.11 0.04
-6 4 10 0.13 0.04
5 -4 -10 2.88 0.12
-5 4 10 2.95 0.12
4 -4 -10 0.57 0.07
4 -4 -10 0.47 0.06
-4 4 10 0.46 0.05
3 -4 -10 1.09 0.08
3 -4 -10 1.27 0.08
-3 4 10 1.21 0.07
-3 4 10 1.15 0.07
2 -4 -10 17.02 0.36
2 -4 -10 16.73 0.34
-2 4 10 16.98 0.34
-2 4 10 16.75 0.34
1 -4 -10 2.91 0.11
1 -4 -10 2.97 0.12
-1 4 10 2.85 0.11
-1 4 10 2.85 0.11
0 -4 -10 0.68 0.06
0 -4 -10 0.64 0.07
0 4 10 0.79 0.06
0 4 10 0.78 0.06
-1 -4 -10 16.82 0.35
-1 -4 -10 15.92 0.32
1 4 10 16.33 0.32
1 4 10 15.74 0.33
-2 -4 -10 10.12 0.25
-2 -4 -10 10.24 0.22
2 4 10 10.31 0.22
2 4 10 9.92 0.24
-3 -4 -10 0.37 0.04
-3 -4 -10 0.33 0.05
3 4 10 0.38 0.04
3 4 10 0.44 0.05
-4 -4 -10 0.53 0.06
-4 -4 -10 0.78 0.08
-4 -4 -10 0.71 0.05
4 4 10 0.66 0.07
4 4 10 0.58 0.05
-5 -4 -10 2.77 0.13
-5 -4 -10 2.51 0.08
5 4 10 2.72 0.1
-6 -4 -10 1.73 0.11
-6 -4 -10 1.83 0.06
6 4 10 1.77 0.08
-7 -4 -10 0.33 0.07
7 4 10 0.33 0.05
-8 5 10 0.81 0.09
-7 5 10 0.56 0.08
6 -5 -10 1.14 0.09
-6 5 10 0.89 0.09
5 -5 -10 4.82 0.17
-5 5 10 4.84 0.17
4 -5 -10 0.29 0.06
4 -5 -10 0.28 0.05
-4 5 10 0.2 0.04
3 -5 -10 0.6 0.06
3 -5 -10 0.76 0.08
-3 5 10 0.71 0.07
-3 5 10 0.74 0.07
2 -5 -10 1.04 0.08
2 -5 -10 1.06 0.09
-2 5 10 1.2 0.08
-2 5 10 1.05 0.08
1 -5 -10 0.3 0.06
1 -5 -10 0.29 0.05
-1 5 10 0.31 0.05
-1 5 10 0.29 0.05
0 -5 -10 0.35 0.06
0 -5 -10 0.32 0.05
0 5 10 0.38 0.05
0 5 10 0.44 0.05
-1 -5 -10 1.24 0.09
-1 -5 -10 1.4 0.08
1 5 10 1.21 0.07
1 5 10 1.34 0.08
-2 -5 -10 7.69 0.22
-2 -5 -10 7.5 0.18
2 5 10 7.4 0.2
2 5 10 7.64 0.19
-3 -5 -10 0.1 0.03
-3 -5 -10 0.08 0.04
3 5 10 0.08 0.03
3 5 10 0.07 0.04
-4 -5 -10 0.68 0.05
-4 -5 -10 0.57 0.07
4 5 10 0.58 0.07
4 5 10 0.67 0.06
-5 -5 -10 2.85 0.08
5 5 10 2.92 0.14
5 5 10 2.91 0.1
6 5 10 0.28 0.04
6 5 10 0.36 0.07
-7 -5 -10 0.18 0.06
7 5 10 0.12 0.03
-7 6 10 0.03 0.05
6 -6 -10 0.07 0.04
-6 6 10 0.04 0.04
5 -6 -10 0.36 0.07
-5 6 10 0.51 0.07
4 -6 -10 2.09 0.12
4 -6 -10 2.36 0.13
-4 6 10 2.13 0.12
3 -6 -10 0.6 0.08
3 -6 -10 0.68 0.07
-3 6 10 0.62 0.07
2 -6 -10 1.1 0.1
2 -6 -10 1.12 0.09
-2 6 10 1.15 0.09
-2 6 10 1.12 0.08
1 -6 -10 0.84 0.09
1 -6 -10 1.08 0.08
-1 6 10 0.92 0.08
-1 6 10 1.05 0.08
0 -6 -10 7.34 0.2
0 -6 -10 7.91 0.24
0 6 10 6.92 0.2
0 6 10 7.79 0.21
-1 -6 -10 5.38 0.19
-1 -6 -10 5.72 0.16
1 6 10 5.56 0.16
1 6 10 5.27 0.17
-2 -6 -10 1.65 0.08
-2 -6 -10 1.61 0.11
2 6 10 1.56 0.08
2 6 10 1.61 0.09
-3 -6 -10 0.71 0.06
-3 -6 -10 0.9 0.09
3 6 10 0.89 0.07
3 6 10 0.69 0.07
-4 -6 -10 0.05 0.02
-4 -6 -10 0.01 0.04
4 6 10 0.06 0.04
4 6 10 0.04 0.03
-5 -6 -10 0.87 0.03
5 6 10 0.81 0.06
5 6 10 0.89 0.09
6 6 10 0.2 0.06
6 6 10 0.2 0.04
6 -7 -10 0.03 0.04
-6 7 10 0.09 0.05
5 -7 -10 0.02 0.04
-5 7 10 -0.06 0.04
4 -7 -10 0.02 0.04
4 -7 -10 0.09 0.05
-4 7 10 0.06 0.04
3 -7 -10 0.37 0.07
3 -7 -10 0.46 0.07
-3 7 10 0.5 0.07
2 -7 -10 9.18 0.25
2 -7 -10 8.67 0.27
-2 7 10 8.98 0.25
-2 7 10 9.39 0.25
1 -7 -10 2.23 0.12
1 -7 -10 2.42 0.14
-1 7 10 2.21 0.12
-1 7 10 2.2 0.12
0 -7 -10 5.84 0.18
0 -7 -10 5.5 0.21
0 7 10 5.68 0.19
0 7 10 5.81 0.18
-1 -7 -10 1.34 0.11
-1 -7 -10 1.16 0.08
1 7 10 1.21 0.09
1 7 10 1.19 0.09
-2 -7 -10 0.54 0.08
-2 -7 -10 0.46 0.05
2 7 10 0.43 0.06
2 7 10 0.52 0.07
-3 -7 -10 0.75 0.09
-3 -7 -10 0.65 0.05
3 7 10 0.62 0.06
3 7 10 0.56 0.07
-4 -7 -10 0.93 0.05
-4 -7 -10 0.82 0.1
4 7 10 0.97 0.1
4 7 10 0.87 0.07
5 7 10 0.05 0.04
5 7 10 0.01 0.03
4 -8 -10 -0.02 0.04
4 -8 -10 0.06 0.05
-4 8 10 0.1 0.05
3 -8 -10 0.12 0.05
3 -8 -10 0.2 0.06
-3 8 10 0.07 0.05
2 -8 -10 0.14 0.05
2 -8 -10 0.14 0.06
-2 8 10 0.02 0.04
-2 8 10 0.11 0.05
1 -8 -10 0.87 0.08
1 -8 -10 0.97 0.11
-1 8 10 0.98 0.1
-1 8 10 1.04 0.1
0 -8 -10 1.36 0.11
0 -8 -10 1.08 0.09
0 8 10 1.06 0.09
0 8 10 1.13 0.1
-1 -8 -10 1.69 0.13
-1 -8 -10 1.74 0.1
1 8 10 1.86 0.11
1 8 10 1.59 0.11
-2 -8 -10 3.13 0.17
-2 -8 -10 3.42 0.12
2 8 10 3.4 0.15
2 8 10 3.56 0.14
-3 -8 -10 -0.02 0.05
-3 -8 -10 0.04 0.03
3 8 10 0.01 0.03
3 8 10 -0.02 0.04
1 10 -11 0.04 0.04
1 10 -11 0.07 0.05
-1 -10 11 0.1 0.04
0 10 -11 0.16 0.06
0 10 -11 0.13 0.05
0 -10 11 0.15 0.05
-1 10 -11 1 0.11
-1 10 -11 1.04 0.11
1 -10 11 0.91 0.09
4 9 -11 0.01 0.04
4 9 -11 0.08 0.04
-4 -9 11 0.02 0.02
-4 -9 11 -0.02 0.04
3 9 -11 0.47 0.06
3 9 -11 0.5 0.08
-3 -9 11 0.48 0.05
-3 -9 11 0.57 0.08
2 9 -11 0.18 0.06
2 9 -11 0.12 0.04
-2 -9 11 0.2 0.06
-2 -9 11 0.14 0.04
1 9 -11 0.43 0.07
1 9 -11 0.45 0.07
-1 -9 11 0.34 0.06
-1 -9 11 0.39 0.05
0 9 -11 1.25 0.1
0 9 -11 1.33 0.11
0 -9 11 1.36 0.1
0 -9 11 1.37 0.1
-1 9 -11 0.11 0.05
-1 9 -11 0 0.04
1 -9 11 0.03 0.04
1 -9 11 0.02 0.04
-2 9 -11 0.21 0.06
-2 9 -11 0.34 0.06
2 -9 11 0.13 0.05
2 -9 11 0.25 0.06
3 -9 11 1.17 0.1
3 -9 11 1.23 0.1
4 -9 11 0.66 0.08
5 8 -11 0.1 0.04
5 8 -11 -0.02 0.05
-5 -8 11 0.09 0.05
4 8 -11 -0.01 0.04
4 8 -11 0.01 0.03
-4 -8 11 -0.02 0.04
-4 -8 11 -0.02 0.02
3 8 -11 0.21 0.05
3 8 -11 0.19 0.06
-3 -8 11 0.21 0.04
-3 -8 11 0.23 0.06
2 8 -11 3.56 0.16
2 8 -11 3.94 0.15
-2 -8 11 3.95 0.16
-2 -8 11 3.78 0.13
1 8 -11 1.67 0.11
1 8 -11 1.86 0.11
-1 -8 11 1.61 0.11
-1 -8 11 1.68 0.09
0 8 -11 0.04 0.04
0 8 -11 0.07 0.04
0 -8 11 0.16 0.04
0 -8 11 0.08 0.04
-1 8 -11 0.65 0.08
-1 8 -11 0.46 0.07
1 -8 11 0.6 0.07
1 -8 11 0.41 0.06
-2 8 -11 0.49 0.07
-2 8 -11 0.52 0.07
2 -8 11 0.45 0.06
2 -8 11 0.43 0.06
3 -8 11 0.95 0.09
3 -8 11 1.07 0.09
4 -8 11 0.25 0.06
5 -8 11 0.48 0.08
6 7 -11 0.33 0.05
6 7 -11 0.38 0.07
-6 -7 11 0.37 0.08
5 7 -11 0.11 0.03
5 7 -11 0.06 0.05
-5 -7 11 0.08 0.02
-5 -7 11 0.07 0.05
4 7 -11 -0.05 0.04
4 7 -11 0 0.03
-4 -7 11 0.01 0.02
-4 -7 11 0.03 0.04
3 7 -11 0.07 0.04
3 7 -11 0.04 0.03
-3 -7 11 -0.02 0.02
-3 -7 11 0.04 0.04
2 7 -11 0.04 0.03
2 7 -11 0.07 0.04
-2 -7 11 0.13 0.05
-2 -7 11 0.13 0.04
1 7 -11 2.76 0.13
1 7 -11 2.85 0.12
-1 -7 11 2.8 0.11
-1 -7 11 2.67 0.13
0 7 -11 6.23 0.19
0 7 -11 6.86 0.2
0 -7 11 6.13 0.19
0 -7 11 6.16 0.18
-1 7 -11 6.86 0.2
-1 7 -11 7.5 0.22
1 -7 11 7.26 0.21
1 -7 11 6.92 0.21
-2 7 -11 0.18 0.05
-2 7 -11 0.11 0.04
2 -7 11 0.14 0.05
2 -7 11 0.2 0.05
3 -7 11 0.22 0.05
3 -7 11 0.27 0.06
4 -7 11 0.19 0.06
-5 7 -11 0.16 0.05
5 -7 11 0.21 0.06
-6 7 -11 0.04 0.05
6 -7 11 -0.03 0.05
7 6 -11 0.21 0.04
7 6 -11 0.2 0.06
-7 -6 11 0.26 0.07
6 6 -11 0.02 0.03
6 6 -11 -0.02 0.04
-6 -6 11 0.14 0.06
-6 -6 11 0.03 0.01
5 6 -11 1.87 0.12
5 6 -11 2.1 0.1
-5 -6 11 2.14 0.07
-5 -6 11 2.2 0.13
4 6 -11 1.1 0.09
4 6 -11 1.16 0.07
-4 -6 11 0.95 0.1
-4 -6 11 1.02 0.06
3 6 -11 1.32 0.09
3 6 -11 1.34 0.08
-3 -6 11 1.43 0.07
-3 -6 11 1.41 0.1
2 6 -11 0.05 0.03
2 6 -11 -0.04 0.03
-2 -6 11 0.04 0.04
-2 -6 11 0.07 0.03
1 6 -11 2.25 0.11
1 6 -11 2.23 0.1
-1 -6 11 2.32 0.11
-1 -6 11 2.12 0.1
0 6 -11 1.19 0.08
0 6 -11 1.04 0.08
0 -6 11 1.28 0.09
0 -6 11 1.19 0.08
-1 6 -11 5.58 0.17
-1 6 -11 5.58 0.17
1 -6 11 5.25 0.17
1 -6 11 5.16 0.17
-2 6 -11 2.81 0.12
-2 6 -11 2.54 0.11
2 -6 11 2.52 0.12
2 -6 11 2.59 0.12
3 -6 11 0.01 0.03
3 -6 11 0.02 0.04
-4 6 -11 -0.04 0.03
4 -6 11 -0.01 0.04
-5 6 -11 1.4 0.1
5 -6 11 1.65 0.11
-6 6 -11 0.21 0.05
6 -6 11 0.19 0.06
-7 6 -11 0.37 0.07
7 -6 11 0.27 0.07
8 5 -11 0.47 0.06
8 5 -11 0.69 0.09
-8 -5 11 0.71 0.1
7 5 -11 0.19 0.04
7 5 -11 0.19 0.06
-7 -5 11 0.22 0.02
-7 -5 11 0.29 0.07
6 5 -11 1.56 0.11
6 5 -11 1.54 0.08
-6 -5 11 1.67 0.06
-6 -5 11 1.57 0.11
5 5 -11 0 0.03
5 5 -11 -0.02 0.03
-5 -5 11 0.01 0.02
-5 -5 11 0.03 0.04
4 5 -11 7.47 0.22
4 5 -11 7.62 0.19
-4 -5 11 7.92 0.23
-4 -5 11 7.55 0.17
3 5 -11 1.65 0.08
3 5 -11 1.52 0.09
-3 -5 11 1.69 0.1
-3 -5 11 1.71 0.08
2 5 -11 5.43 0.17
2 5 -11 5.59 0.16
-2 -5 11 5.23 0.15
-2 -5 11 5.19 0.17
1 5 -11 12.59 0.29
1 5 -11 12.85 0.28
-1 -5 11 12.92 0.29
-1 -5 11 12.78 0.27
0 5 -11 5.19 0.16
0 5 -11 5.27 0.16
0 -5 11 5.05 0.15
0 -5 11 4.92 0.16
-1 5 -11 1.89 0.09
-1 5 -11 1.73 0.08
1 -5 11 1.7 0.09
1 -5 11 1.87 0.09
-2 5 -11 0.79 0.05
-2 5 -11 0.79 0.06
-2 5 -11 0.83 0.07
2 -5 11 0.84 0.07
2 -5 11 0.81 0.08
-3 5 -11 6.3 0.17
-3 5 -11 6.23 0.16
3 -5 11 6.37 0.19
3 -5 11 6.61 0.19
-4 5 -11 0.03 0.03
4 -5 11 0 0.03
-5 5 -11 0.82 0.08
5 -5 11 0.97 0.09
-6 5 -11 0.6 0.08
-6 5 -11 0.45 0.06
6 -5 11 0.36 0.07
-7 5 -11 0.11 0.05
-7 5 -11 0.06 0.04
7 -5 11 0 0.05
-8 5 -11 0.36 0.07
-8 5 -11 0.39 0.08
8 -5 11 0.45 0.08
8 4 -11 0.32 0.07
8 4 -11 0.32 0.05
-8 -4 11 0.33 0.03
-8 -4 11 0.48 0.09
7 4 -11 -0.01 0.03
7 4 -11 0.02 0.04
-7 -4 11 0 0.04
-7 -4 11 0.04 0.02
6 4 -11 1.04 0.07
6 4 -11 0.96 0.08
-6 -4 11 0.92 0.05
-6 -4 11 1.01 0.09
5 4 -11 0.08 0.03
5 4 -11 0.01 0.04
-5 -4 11 0.12 0.05
-5 -4 11 0.06 0.02
4 4 -11 0.56 0.05
4 4 -11 0.55 0.06
-4 -4 11 0.58 0.07
-4 -4 11 0.61 0.05
3 4 -11 1.56 0.08
3 4 -11 1.47 0.09
-3 -4 11 1.56 0.07
-3 -4 11 1.35 0.09
2 4 -11 1.83 0.09
2 4 -11 1.9 0.09
-2 -4 11 1.88 0.08
-2 -4 11 1.76 0.1
1 4 -11 0.1 0.04
1 4 -11 0.09 0.03
-1 -4 11 0.07 0.03
-1 -4 11 0.05 0.03
0 4 -11 0.04 0.03
0 4 -11 0.03 0.03
0 -4 11 0.01 0.03
0 -4 11 0.02 0.03
-1 4 -11 8.51 0.17
-1 4 -11 8.71 0.2
-1 4 -11 8.57 0.21
1 -4 11 8.33 0.21
1 -4 11 8.53 0.21
-2 4 -11 1.18 0.06
-2 4 -11 1.29 0.07
-2 4 -11 1.32 0.07
-2 4 -11 1.34 0.08
2 -4 11 1.27 0.08
2 -4 11 1.23 0.08
-3 4 -11 7.64 0.18
-3 4 -11 7.45 0.19
-3 4 -11 7.54 0.18
3 -4 11 7.47 0.2
3 -4 11 7.8 0.2
-4 4 -11 0.25 0.04
-4 4 -11 0.09 0.03
4 -4 11 0.1 0.04
-5 4 -11 3.44 0.14
-5 4 -11 3.45 0.13
5 -4 11 3.59 0.15
-6 4 -11 0.36 0.06
-6 4 -11 0.46 0.07
6 -4 11 0.55 0.07
-7 4 -11 1.13 0.1
-7 4 -11 0.84 0.09
7 -4 11 0.97 0.09
-8 4 -11 1.12 0.11
-8 4 -11 1.31 0.1
8 -4 11 1.2 0.12
9 3 -11 0.27 0.05
-9 -3 11 0.17 0.07
-9 -3 11 0.25 0.03
8 3 -11 -0.09 0.04
8 3 -11 0.06 0.03
-8 -3 11 -0.01 0.05
-8 -3 11 0.02 0.02
7 3 -11 0.08 0.04
7 3 -11 0.07 0.03
-7 -3 11 0.11 0.05
-7 -3 11 0.08 0.02
6 3 -11 0.08 0.04
6 3 -11 0.08 0.03
-6 -3 11 0.13 0.03
-6 -3 11 0.1 0.04
5 3 -11 8.43 0.21
5 3 -11 8.54 0.23
-5 -3 11 8.2 0.19
-5 -3 11 8.5 0.24
4 3 -11 1.16 0.08
4 3 -11 1.22 0.07
-4 -3 11 1.28 0.09
-4 -3 11 1.18 0.06
3 3 -11 3.3 0.11
3 3 -11 3.32 0.12
-3 -3 11 3.24 0.13
-3 -3 11 3.4 0.11
2 3 -11 51.59 0.88
2 3 -11 51.21 0.87
-2 -3 11 53.86 0.89
-2 -3 11 52.22 0.86
1 3 -11 64.69 1.06
1 3 -11 64.17 1.07
-1 -3 11 64.81 1.06
-1 -3 11 65.66 1.07
0 3 -11 4.33 0.13
0 3 -11 4.15 0.12
0 3 -11 4.15 0.09
0 3 -11 4.14 0.13
0 -3 11 4.02 0.13
-1 3 -11 0.75 0.06
-1 3 -11 0.85 0.06
-1 3 -11 0.82 0.04
-1 3 -11 0.82 0.06
1 -3 11 0.72 0.06
1 -3 11 0.81 0.06
-2 3 -11 1.04 0.07
-2 3 -11 0.91 0.07
-2 3 -11 0.89 0.06
-2 3 -11 0.83 0.05
2 -3 11 0.97 0.07
2 -3 11 0.9 0.07
2 -3 11 0.92 0.06
-3 3 -11 0.06 0.03
-3 3 -11 0.04 0.03
-3 3 -11 0.05 0.03
3 -3 11 0.03 0.03
3 -3 11 0.02 0.03
3 -3 11 0.06 0.03
-4 3 -11 -0.02 0.03
-4 3 -11 0.02 0.03
4 -3 11 0 0.02
4 -3 11 -0.03 0.03
-5 3 -11 5.38 0.17
-5 3 -11 5.52 0.17
5 -3 11 5.51 0.18
5 -3 11 5.8 0.17
-6 3 -11 3.47 0.15
-6 3 -11 3.4 0.13
6 -3 11 3.83 0.14
6 -3 11 3.44 0.14
-7 3 -11 0.02 0.04
-7 3 -11 0.03 0.04
7 -3 11 -0.04 0.03
7 -3 11 0.03 0.03
-8 3 -11 0.75 0.1
-8 3 -11 0.71 0.08
8 -3 11 0.75 0.1
8 -3 11 0.64 0.07
9 2 -11 0.34 0.05
-9 -2 11 0.3 0.08
-9 -2 11 0.33 0.04
8 2 -11 2.72 0.12
-8 -2 11 2.8 0.16
-8 -2 11 2.58 0.1
7 2 -11 1.08 0.08
7 2 -11 1.37 0.1
-7 -2 11 1.41 0.11
-7 -2 11 1.33 0.07
6 2 -11 0.68 0.07
6 2 -11 0.62 0.06
-6 -2 11 0.66 0.08
-6 -2 11 0.65 0.05
5 2 -11 0.11 0.04
5 2 -11 0.19 0.04
-5 -2 11 0.15 0.05
-5 -2 11 0.13 0.03
4 2 -11 1.82 0.09
4 2 -11 1.65 0.09
-4 -2 11 1.74 0.09
-4 -2 11 1.76 0.08
3 2 -11 15.95 0.33
3 2 -11 15.87 0.32
-3 -2 11 16.04 0.34
-3 -2 11 15.92 0.31
2 2 -11 10.93 0.24
2 2 -11 11.06 0.25
-2 -2 11 11.11 0.25
-2 -2 11 11.18 0.24
1 2 -11 8.46 0.19
1 2 -11 8.41 0.2
1 2 -11 8.12 0.19
-1 -2 11 8.75 0.2
-1 -2 11 8.37 0.19
0 2 -11 7.39 0.17
0 2 -11 7.17 0.18
0 2 -11 7.05 0.14
0 -2 11 7.17 0.17
0 -2 11 7.3 0.18
0 -2 11 7.41 0.17
-1 2 -11 0.9 0.06
-1 2 -11 0.8 0.06
-1 2 -11 0.87 0.04
-1 2 -11 0.93 0.06
1 -2 11 0.77 0.05
1 -2 11 0.77 0.06
1 -2 11 0.83 0.06
-2 2 -11 68.27 1.12
-2 2 -11 70.78 1.13
-2 2 -11 68.15 1.11
-2 2 -11 68.14 1.11
2 -2 11 69.62 1.12
2 -2 11 69.53 1.13
2 -2 11 69.5 1.13
-3 2 -11 7.48 0.18
-3 2 -11 7.6 0.19
-3 2 -11 7.64 0.17
3 -2 11 7.5 0.18
3 -2 11 7.55 0.19
-4 2 -11 13.15 0.29
-4 2 -11 13.26 0.28
4 -2 11 13.27 0.28
4 -2 11 13.11 0.29
-5 2 -11 1.24 0.08
-5 2 -11 1.13 0.08
5 -2 11 1.24 0.09
5 -2 11 1.25 0.08
-6 2 -11 0.44 0.06
-6 2 -11 0.46 0.07
6 -2 11 0.42 0.06
6 -2 11 0.48 0.07
-7 2 -11 0.19 0.06
-7 2 -11 0.19 0.05
7 -2 11 0.25 0.05
7 -2 11 0.23 0.05
-8 2 -11 0.04 0.05
-8 2 -11 0.03 0.04
8 -2 11 -0.03 0.04
8 -2 11 0.02 0.03
-9 2 -11 0 0.03
-9 2 -11 -0.05 0.04
9 -2 11 0 0.05
9 -2 11 -0.04 0.03
9 1 -11 0.22 0.05
-9 -1 11 0.32 0.05
-9 -1 11 0.27 0.07
8 1 -11 0.75 0.07
-8 -1 11 1.02 0.11
-8 -1 11 0.77 0.06
7 1 -11 0.27 0.05
7 1 -11 0.16 0.05
-7 -1 11 0.32 0.05
-7 -1 11 0.19 0.05
6 1 -11 5.32 0.17
6 1 -11 4.88 0.15
-6 -1 11 4.88 0.14
-6 -1 11 4.96 0.18
5 1 -11 7.72 0.21
5 1 -11 7.36 0.19
-5 -1 11 7.65 0.22
-5 -1 11 7.57 0.18
4 1 -11 3.95 0.14
4 1 -11 4.08 0.13
-4 -1 11 3.83 0.12
-4 -1 11 4.09 0.14
3 1 -11 41.57 0.71
3 1 -11 40.31 0.7
-3 -1 11 41.44 0.7
-3 -1 11 40.37 0.71
2 1 -11 20.46 0.4
2 1 -11 21.7 0.4
2 1 -11 21.26 0.39
-2 -1 11 20.89 0.39
-2 -1 11 21.31 0.4
-2 -1 11 21.23 0.34
1 1 -11 3.06 0.11
1 1 -11 2.87 0.1
1 1 -11 2.97 0.1
-1 -1 11 2.9 0.1
-1 -1 11 2.96 0.09
-1 -1 11 3.03 0.07
-1 -1 11 3.02 0.1
0 1 -11 1.08 0.06
0 1 -11 1.14 0.07
0 1 -11 1.06 0.06
0 -1 11 1.17 0.05
0 -1 11 1.27 0.06
0 -1 11 1.1 0.06
0 -1 11 1.08 0.06
-1 1 -11 27.83 0.5
-1 1 -11 28.07 0.48
-1 1 -11 28.47 0.5
-1 1 -11 29.27 0.51
1 -1 11 27.91 0.5
1 -1 11 28.45 0.5
1 -1 11 28.8 0.5
-2 1 -11 61.18 1
-2 1 -11 62.39 1
-2 1 -11 61.67 1
2 -1 11 60.57 1
2 -1 11 61.93 1.01
2 -1 11 61.05 1
-3 1 -11 1 0.07
-3 1 -11 1.05 0.06
-3 1 -11 1.09 0.07
3 -1 11 0.92 0.06
3 -1 11 1.04 0.07
-4 1 -11 48.15 0.83
-4 1 -11 47.53 0.81
4 -1 11 47.46 0.82
4 -1 11 49.33 0.81
-5 1 -11 0.29 0.05
-5 1 -11 0.27 0.05
5 -1 11 0.3 0.04
5 -1 11 0.4 0.06
-6 1 -11 0.42 0.05
-6 1 -11 0.46 0.07
6 -1 11 0.49 0.07
6 -1 11 0.42 0.05
-7 1 -11 0.67 0.07
-7 1 -11 0.53 0.07
7 -1 11 0.57 0.07
7 -1 11 0.62 0.06
-8 1 -11 0.7 0.09
-8 1 -11 0.74 0.07
8 -1 11 0.61 0.08
8 -1 11 0.55 0.06
-9 1 -11 0.26 0.07
-9 1 -11 0.17 0.04
9 -1 11 0.18 0.05
9 -1 11 0.24 0.07
9 0 -11 0.39 0.06
-9 0 11 0.41 0.08
-9 0 11 0.43 0.06
8 0 -11 0.02 0.04
-8 0 11 0.04 0.03
-8 0 11 0.04 0.04
7 0 -11 0.01 0.03
7 0 -11 0.01 0.03
-7 0 11 -0.03 0.03
-7 0 11 0.02 0.03
6 0 -11 4.69 0.16
6 0 -11 4.64 0.15
-6 0 11 4.7 0.15
-6 0 11 4.69 0.17
5 0 -11 2.07 0.1
5 0 -11 1.97 0.09
-5 0 11 2.07 0.09
-5 0 11 1.83 0.1
4 0 -11 2.77 0.12
4 0 -11 2.88 0.11
-4 0 11 2.9 0.1
-4 0 11 2.85 0.09
-4 0 11 2.64 0.11
3 0 -11 0.13 0.04
3 0 -11 0.23 0.04
-3 0 11 0.15 0.03
-3 0 11 0.19 0.02
-3 0 11 0.13 0.03
2 0 -11 35.97 0.62
2 0 -11 35.54 0.61
2 0 -11 35.27 0.61
-2 0 11 35.04 0.57
-2 0 11 34.65 0.61
-2 0 11 36.16 0.6
-2 0 11 35.02 0.61
1 0 -11 1.1 0.06
1 0 -11 1.09 0.07
1 0 -11 1.07 0.06
-1 0 11 1.15 0.04
-1 0 11 1.09 0.06
-1 0 11 1.06 0.06
-1 0 11 1.04 0.06
0 0 -11 4.17 0.12
0 0 -11 3.92 0.12
0 0 11 3.95 0.12
0 0 11 4.19 0.12
0 0 11 4.37 0.1
0 0 11 4.01 0.11
-1 0 -11 11.14 0.24
-1 0 -11 11.64 0.24
-1 0 -11 12 0.25
-1 0 -11 11.65 0.23
1 0 11 11.68 0.24
1 0 11 11.8 0.24
1 0 11 11.75 0.25
-2 0 -11 0.42 0.04
-2 0 -11 0.43 0.05
-2 0 -11 0.5 0.05
2 0 11 0.41 0.04
2 0 11 0.51 0.05
-3 0 -11 7.71 0.18
-3 0 -11 7.59 0.19
-3 0 -11 7.83 0.19
3 0 11 8.03 0.19
3 0 11 7.88 0.19
-4 0 -11 9.01 0.21
-4 0 -11 8.95 0.22
4 0 11 9.29 0.21
4 0 11 8.91 0.21
-5 0 -11 9.32 0.22
-5 0 -11 9.5 0.25
5 0 11 9.82 0.23
5 0 11 9.53 0.23
-6 0 -11 1.57 0.11
-6 0 -11 1.42 0.08
6 0 11 1.54 0.1
6 0 11 1.64 0.09
-7 0 -11 0.17 0.04
-7 0 -11 0.23 0.06
7 0 11 0.22 0.04
7 0 11 0.25 0.06
-8 0 -11 0.16 0.04
-8 0 -11 0.19 0.06
8 0 11 0.22 0.05
8 0 11 0.15 0.05
9 -1 -11 -0.04 0.04
9 -1 -11 0.04 0.04
-9 1 11 0.01 0.05
-9 1 11 -0.01 0.03
8 -1 -11 0.49 0.07
-8 1 11 0.5 0.06
-8 1 11 0.6 0.08
7 -1 -11 7.01 0.2
7 -1 -11 7.17 0.2
-7 1 11 7.02 0.2
-7 1 11 6.76 0.21
6 -1 -11 11.83 0.28
6 -1 -11 11.4 0.27
-6 1 11 11.12 0.28
-6 1 11 11.69 0.27
5 -1 -11 0.04 0.04
5 -1 -11 0.09 0.03
-5 1 11 0.07 0.03
-5 1 11 0.08 0.02
-5 1 11 0.1 0.04
4 -1 -11 7.29 0.19
4 -1 -11 6.84 0.19
-4 1 11 7.18 0.19
-4 1 11 7.17 0.16
-4 1 11 7.43 0.19
3 -1 -11 22.04 0.42
3 -1 -11 22.66 0.43
3 -1 -11 22.32 0.42
-3 1 11 21.67 0.41
-3 1 11 21.92 0.39
-3 1 11 22.08 0.41
2 -1 -11 0.09 0.03
2 -1 -11 0.11 0.04
2 -1 -11 0.09 0.03
-2 1 11 0.07 0.02
-2 1 11 0.09 0.02
-2 1 11 0.06 0.03
-2 1 11 0.07 0.02
1 -1 -11 4.23 0.13
1 -1 -11 4.35 0.13
1 -1 -11 4.5 0.13
-1 1 11 4.41 0.11
-1 1 11 4.26 0.12
-1 1 11 4.19 0.11
0 -1 -11 49.4 0.81
0 -1 -11 47.02 0.82
0 -1 -11 47.84 0.81
0 1 11 49.71 0.81
0 1 11 48.28 0.81
0 1 11 49.37 0.79
0 1 11 49.28 0.79
-1 -1 -11 9.82 0.23
-1 -1 -11 10.33 0.22
1 1 11 10.32 0.21
1 1 11 10.35 0.22
1 1 11 10.02 0.21
-2 -1 -11 0.45 0.05
-2 -1 -11 0.4 0.05
-2 -1 -11 0.34 0.04
2 1 11 0.4 0.04
2 1 11 0.42 0.04
2 1 11 0.38 0.04
-3 -1 -11 3.55 0.12
-3 -1 -11 3.47 0.11
-3 -1 -11 3.38 0.11
3 1 11 3.57 0.11
3 1 11 3.76 0.11
-4 -1 -11 3.01 0.12
-4 -1 -11 2.94 0.1
-4 -1 -11 2.91 0.1
4 1 11 3.14 0.11
4 1 11 3.06 0.11
-5 -1 -11 0.73 0.06
-5 -1 -11 0.8 0.08
5 1 11 0.75 0.06
5 1 11 0.83 0.06
-6 -1 -11 0.09 0.05
-6 -1 -11 0.11 0.03
6 1 11 0.11 0.03
6 1 11 0.09 0.04
-7 -1 -11 0.59 0.06
-7 -1 -11 0.6 0.08
7 1 11 0.59 0.07
7 1 11 0.62 0.06
-8 -1 -11 0.11 0.03
-8 -1 -11 0.05 0.05
8 1 11 0.03 0.04
8 1 11 0.07 0.04
9 -2 -11 0.32 0.07
9 -2 -11 0.18 0.06
-9 2 11 0.36 0.06
8 -2 -11 -0.01 0.03
8 -2 -11 0.05 0.04
-8 2 11 -0.02 0.04
-8 2 11 0.01 0.04
7 -2 -11 0.67 0.07
7 -2 -11 0.62 0.07
-7 2 11 0.71 0.07
-7 2 11 0.66 0.08
6 -2 -11 6.5 0.19
6 -2 -11 6.49 0.19
-6 2 11 6.41 0.19
-6 2 11 6.58 0.18
-6 2 11 6.58 0.2
5 -2 -11 0.26 0.04
5 -2 -11 0.31 0.05
-5 2 11 0.33 0.04
-5 2 11 0.3 0.05
-5 2 11 0.35 0.05
4 -2 -11 16.3 0.34
4 -2 -11 15.67 0.33
-4 2 11 16.13 0.33
-4 2 11 15.36 0.31
-4 2 11 15.53 0.32
3 -2 -11 1.84 0.1
3 -2 -11 1.56 0.08
3 -2 -11 1.77 0.09
-3 2 11 1.88 0.07
-3 2 11 1.72 0.07
-3 2 11 1.7 0.08
2 -2 -11 3.9 0.13
2 -2 -11 3.75 0.12
-2 2 11 3.87 0.12
-2 2 11 3.64 0.1
-2 2 11 3.8 0.11
-2 2 11 3.88 0.12
1 -2 -11 0.07 0.03
1 -2 -11 0.04 0.03
-1 2 11 0.06 0.02
-1 2 11 0.06 0.03
-1 2 11 0.05 0.02
-1 2 11 0.05 0.02
0 -2 -11 11.63 0.25
0 -2 -11 12.31 0.27
0 2 11 12.11 0.25
0 2 11 12.35 0.23
0 2 11 12.16 0.25
-1 -2 -11 13.75 0.28
-1 -2 -11 13.46 0.29
1 2 11 13.85 0.28
1 2 11 14 0.26
1 2 11 14 0.28
-2 -2 -11 8.23 0.2
-2 -2 -11 8.24 0.2
-2 -2 -11 7.79 0.19
2 2 11 7.83 0.17
2 2 11 8.27 0.19
-3 -2 -11 0.53 0.06
-3 -2 -11 0.48 0.05
-3 -2 -11 0.53 0.05
3 2 11 0.47 0.04
3 2 11 0.44 0.04
-4 -2 -11 10.21 0.25
-4 -2 -11 9.98 0.22
-4 -2 -11 10.01 0.23
4 2 11 10.12 0.22
4 2 11 10.06 0.22
-5 -2 -11 1.31 0.07
-5 -2 -11 1.58 0.1
5 2 11 1.24 0.07
5 2 11 1.43 0.08
-6 -2 -11 0 0.02
-6 -2 -11 0.03 0.04
6 2 11 -0.01 0.02
6 2 11 0.05 0.03
-7 -2 -11 1.65 0.12
-7 -2 -11 1.71 0.08
7 2 11 1.65 0.09
7 2 11 1.61 0.1
-8 -2 -11 0.77 0.05
-8 -2 -11 0.63 0.09
8 2 11 0.67 0.07
-9 3 11 0.08 0.04
-8 3 11 0.15 0.05
7 -3 -11 0.75 0.08
-7 3 11 0.74 0.08
-7 3 11 0.66 0.07
6 -3 -11 0.04 0.04
-6 3 11 0.03 0.03
-6 3 11 0.02 0.03
5 -3 -11 0.62 0.07
-5 3 11 0.7 0.06
-5 3 11 0.69 0.07
4 -3 -11 44.97 0.79
-4 3 11 44.43 0.77
-4 3 11 43.83 0.76
3 -3 -11 0.15 0.04
3 -3 -11 0.11 0.03
-3 3 11 0.16 0.04
-3 3 11 0.22 0.04
2 -3 -11 6.33 0.17
2 -3 -11 6.5 0.19
-2 3 11 6.5 0.16
-2 3 11 6.6 0.17
1 -3 -11 10.39 0.24
1 -3 -11 11.02 0.26
-1 3 11 10.98 0.23
-1 3 11 10.43 0.24
0 -3 -11 10.94 0.24
0 -3 -11 10.87 0.26
0 3 11 10.69 0.24
0 3 11 11.2 0.24
-1 -3 -11 0.72 0.06
-1 -3 -11 0.65 0.06
1 3 11 0.73 0.06
1 3 11 0.83 0.06
-2 -3 -11 3.23 0.12
-2 -3 -11 2.86 0.1
2 3 11 3.09 0.11
2 3 11 2.95 0.1
-3 -3 -11 0.44 0.06
-3 -3 -11 0.42 0.06
-3 -3 -11 0.37 0.04
3 3 11 0.5 0.05
3 3 11 0.44 0.06
-4 -3 -11 5.77 0.18
-4 -3 -11 5.59 0.15
-4 -3 -11 5.62 0.17
4 3 11 5.42 0.15
-5 -3 -11 1.59 0.1
-5 -3 -11 1.53 0.07
5 3 11 1.4 0.08
5 3 11 1.49 0.08
-6 -3 -11 5.68 0.14
-6 -3 -11 5.42 0.19
6 3 11 5.2 0.15
-7 -3 -11 0.08 0.05
-7 -3 -11 0.02 0.02
7 3 11 0.03 0.03
-8 -3 -11 0.91 0.1
-8 -3 -11 0.96 0.04
8 3 11 0.97 0.07
-8 4 11 0.01 0.04
-8 4 11 0.02 0.04
-7 4 11 -0.03 0.03
-7 4 11 0.04 0.04
6 -4 -11 0.01 0.03
-6 4 11 0.09 0.04
5 -4 -11 0.33 0.06
-5 4 11 0.4 0.06
4 -4 -11 1.67 0.1
-4 4 11 1.68 0.09
3 -4 -11 2.63 0.12
3 -4 -11 2.67 0.11
-3 4 11 2.64 0.11
2 -4 -11 0.03 0.03
2 -4 -11 0 0.03
-2 4 11 -0.01 0.02
-2 4 11 -0.01 0.02
1 -4 -11 4.9 0.17
1 -4 -11 4.87 0.15
-1 4 11 4.93 0.15
-1 4 11 5.03 0.15
0 -4 -11 3.03 0.13
0 -4 -11 2.61 0.1
0 4 11 2.89 0.11
0 4 11 3.02 0.11
-1 -4 -11 0.37 0.06
-1 -4 -11 0.39 0.05
1 4 11 0.54 0.06
1 4 11 0.4 0.05
-2 -4 -11 0.52 0.07
-2 -4 -11 0.35 0.04
2 4 11 0.35 0.05
2 4 11 0.49 0.05
-3 -4 -11 19.03 0.4
-3 -4 -11 18.65 0.36
3 4 11 19.09 0.39
3 4 11 18.92 0.37
-4 -4 -11 3.33 0.1
-4 -4 -11 3.33 0.13
4 4 11 3.25 0.14
4 4 11 3.06 0.11
-5 -4 -11 0.05 0.02
-5 -4 -11 0.07 0.05
5 4 11 0.04 0.02
-6 -4 -11 0.29 0.03
-6 -4 -11 0.32 0.07
6 4 11 0.25 0.04
-7 -4 -11 0.47 0.08
-7 -4 -11 0.48 0.02
7 4 11 0.52 0.06
-7 5 11 0.41 0.07
6 -5 -11 0.07 0.04
-6 5 11 0.01 0.04
5 -5 -11 1.06 0.1
-5 5 11 1.03 0.09
4 -5 -11 0.18 0.05
-4 5 11 0.12 0.04
3 -5 -11 0 0.03
3 -5 -11 0.02 0.04
-3 5 11 0.01 0.03
2 -5 -11 5.43 0.17
2 -5 -11 5.84 0.19
-2 5 11 5.87 0.18
-2 5 11 5.16 0.16
1 -5 -11 4.36 0.15
1 -5 -11 4.62 0.17
-1 5 11 4.77 0.15
-1 5 11 4.59 0.15
0 -5 -11 1.85 0.11
0 -5 -11 1.93 0.1
0 5 11 1.94 0.09
0 5 11 1.85 0.09
-1 -5 -11 0.06 0.03
-1 -5 -11 0.02 0.04
1 5 11 0.05 0.03
1 5 11 0.05 0.03
-2 -5 -11 1.03 0.08
-2 -5 -11 1.02 0.07
2 5 11 0.94 0.07
2 5 11 1.11 0.08
-3 -5 -11 1.08 0.09
-3 -5 -11 1.08 0.07
3 5 11 1.12 0.09
3 5 11 1.1 0.07
-4 -5 -11 0.06 0.03
-4 -5 -11 0 0.04
4 5 11 -0.01 0.03
4 5 11 0.04 0.03
-5 -5 -11 0 0.02
5 5 11 0.02 0.02
5 5 11 0.04 0.04
-6 -5 -11 -0.02 0.01
6 5 11 -0.02 0.04
6 5 11 0 0.02
-7 6 11 0.04 0.05
6 -6 -11 0.07 0.05
-6 6 11 0.03 0.04
5 -6 -11 0.13 0.05
-5 6 11 0.11 0.05
4 -6 -11 2.33 0.13
-4 6 11 2.38 0.13
3 -6 -11 0.9 0.09
3 -6 -11 0.95 0.09
-3 6 11 1.07 0.09
2 -6 -11 0.01 0.04
2 -6 -11 0.03 0.03
-2 6 11 0.02 0.03
-2 6 11 0.01 0.03
1 -6 -11 2.97 0.14
1 -6 -11 2.93 0.13
-1 6 11 2.98 0.13
-1 6 11 3.26 0.13
0 -6 -11 1.43 0.1
0 -6 -11 1.52 0.09
0 6 11 1.48 0.09
0 6 11 1.59 0.1
-1 -6 -11 0.07 0.03
-1 -6 -11 0.13 0.05
1 6 11 0.11 0.04
1 6 11 0.09 0.04
-2 -6 -11 4.4 0.18
-2 -6 -11 4.54 0.14
2 6 11 4.85 0.17
2 6 11 4.87 0.15
-3 -6 -11 0.2 0.04
-3 -6 -11 0.25 0.06
3 6 11 0.25 0.06
3 6 11 0.24 0.04
-4 -6 -11 0.57 0.05
-4 -6 -11 0.7 0.09
4 6 11 0.56 0.06
4 6 11 0.51 0.07
-5 -6 -11 0.08 0.02
5 6 11 0.11 0.03
5 6 11 0.04 0.04
5 -7 -11 0.58 0.08
-5 7 11 0.69 0.09
4 -7 -11 0.22 0.06
-4 7 11 0.27 0.06
3 -7 -11 0.04 0.05
3 -7 -11 0.08 0.04
-3 7 11 0.09 0.05
2 -7 -11 4.22 0.16
2 -7 -11 3.83 0.17
-2 7 11 4.12 0.16
-2 7 11 4.06 0.16
1 -7 -11 1.75 0.11
1 -7 -11 1.63 0.12
-1 7 11 1.78 0.11
-1 7 11 1.81 0.11
0 -7 -11 2.42 0.14
0 -7 -11 2.38 0.12
0 7 11 2.61 0.13
0 7 11 2.43 0.12
-1 -7 -11 0.04 0.03
-1 -7 -11 0.1 0.05
1 7 11 0.09 0.04
1 7 11 0.11 0.04
-2 -7 -11 0.08 0.03
-2 -7 -11 0.02 0.05
2 7 11 0.14 0.05
2 7 11 0.07 0.04
-3 -7 -11 0.01 0.03
-3 -7 -11 -0.03 0.04
3 7 11 0 0.03
3 7 11 0.01 0.04
-4 -7 -11 -0.01 0.02
-4 -7 -11 0 0.04
4 7 11 0.03 0.03
4 7 11 0.06 0.05
3 -8 -11 0.71 0.09
3 -8 -11 0.72 0.1
-3 8 11 0.59 0.08
2 -8 -11 0.97 0.1
2 -8 -11 0.67 0.1
-2 8 11 0.9 0.1
-2 8 11 0.92 0.09
1 -8 -11 0.21 0.07
1 -8 -11 0.17 0.05
-1 8 11 0.3 0.06
-1 8 11 0.22 0.05
0 -8 -11 0.81 0.08
0 -8 -11 0.97 0.11
0 8 11 0.97 0.09
0 8 11 0.93 0.09
-1 -8 -11 0.01 0.05
-1 -8 -11 0.06 0.04
1 8 11 0.02 0.04
1 8 11 0.02 0.04
-2 -8 -11 0.04 0.03
-2 -8 -11 -0.04 0.04
2 8 11 0.09 0.04
2 8 11 0.06 0.04
3 9 -12 0.02 0.04
3 9 -12 -0.02 0.04
-3 -9 12 -0.01 0.03
-3 -9 12 0.02 0.05
2 9 -12 0.71 0.09
2 9 -12 0.63 0.08
-2 -9 12 0.51 0.06
-2 -9 12 0.52 0.08
1 9 -12 1.43 0.12
1 9 -12 1.47 0.11
-1 -9 12 1.34 0.11
-1 -9 12 1.34 0.09
0 9 -12 1.93 0.12
0 9 -12 1.54 0.12
0 -9 12 1.81 0.12
0 -9 12 1.56 0.1
-1 9 -12 0.91 0.1
-1 9 -12 1.25 0.11
1 -9 12 1.15 0.1
1 -9 12 0.93 0.09
2 -9 12 0 0.04
2 -9 12 0 0.04
3 -9 12 0.11 0.05
3 -9 12 0.21 0.06
5 8 -12 0.07 0.04
5 8 -12 0.01 0.05
-5 -8 12 0.08 0.05
-5 -8 12 0.05 0.02
4 8 -12 0.18 0.04
4 8 -12 0.17 0.06
-4 -8 12 0.14 0.03
-4 -8 12 0.12 0.05
3 8 -12 0.29 0.05
3 8 -12 0.23 0.06
-3 -8 12 0.25 0.06
-3 -8 12 0.31 0.05
2 8 -12 0.19 0.05
2 8 -12 0.17 0.05
-2 -8 12 0.19 0.05
-2 -8 12 0.17 0.04
1 8 -12 0.35 0.06
1 8 -12 0.49 0.07
-1 -8 12 0.33 0.06
-1 -8 12 0.4 0.06
0 8 -12 0.03 0.04
0 8 -12 -0.02 0.04
0 -8 12 0.05 0.04
0 -8 12 0.01 0.03
-1 8 -12 1.21 0.1
-1 8 -12 1.13 0.1
1 -8 12 1.12 0.09
1 -8 12 1.1 0.09
-2 8 -12 0.22 0.05
2 -8 12 0.24 0.06
2 -8 12 0.26 0.06
3 -8 12 0.02 0.04
3 -8 12 0.04 0.04
4 -8 12 -0.01 0.04
5 -8 12 0.02 0.05
6 7 -12 -0.01 0.03
6 7 -12 0.01 0.05
-6 -7 12 -0.01 0.04
5 7 -12 0.05 0.03
5 7 -12 0.14 0.05
-5 -7 12 0.12 0.02
-5 -7 12 0.07 0.05
4 7 -12 1.47 0.11
4 7 -12 1.43 0.09
-4 -7 12 1.41 0.07
-4 -7 12 1.5 0.11
3 7 -12 2.51 0.12
3 7 -12 2.2 0.13
-3 -7 12 2.5 0.13
-3 -7 12 2.49 0.1
2 7 -12 1.64 0.11
2 7 -12 1.82 0.1
-2 -7 12 1.81 0.11
-2 -7 12 1.96 0.09
1 7 -12 0.11 0.04
1 7 -12 0.11 0.04
-1 -7 12 0.07 0.04
-1 -7 12 0.07 0.04
0 7 -12 6.62 0.21
0 7 -12 6.81 0.2
0 -7 12 6.6 0.2
0 -7 12 6.51 0.21
-1 7 -12 1.15 0.09
-1 7 -12 1.23 0.1
1 -7 12 1.21 0.09
1 -7 12 1.34 0.1
-2 7 -12 0.31 0.06
-2 7 -12 0.37 0.06
2 -7 12 0.29 0.06
2 -7 12 0.32 0.06
3 -7 12 0.7 0.08
3 -7 12 0.43 0.06
4 -7 12 -0.04 0.04
5 -7 12 0.21 0.06
6 -7 12 -0.04 0.05
7 6 -12 0.33 0.05
7 6 -12 0.4 0.07
-7 -6 12 0.33 0.08
6 6 -12 1.26 0.11
6 6 -12 1.32 0.09
-6 -6 12 1.34 0.12
-6 -6 12 1.4 0.05
5 6 -12 -0.04 0.04
5 6 -12 -0.01 0.03
-5 -6 12 0.03 0.04
-5 -6 12 0 0.02
4 6 -12 0.19 0.05
4 6 -12 0.21 0.04
-4 -6 12 0.16 0.05
-4 -6 12 0.24 0.04
3 6 -12 0 0.04
3 6 -12 0.06 0.03
-3 -6 12 0.01 0.04
-3 -6 12 -0.02 0.02
2 6 -12 0.34 0.05
2 6 -12 0.33 0.06
-2 -6 12 0.24 0.05
-2 -6 12 0.34 0.05
1 6 -12 1.17 0.09
1 6 -12 1.46 0.09
-1 -6 12 1.18 0.09
-1 -6 12 1.3 0.08
0 6 -12 1.08 0.09
0 6 -12 1.1 0.08
0 -6 12 0.99 0.08
0 -6 12 0.97 0.08
-1 6 -12 0.15 0.04
-1 6 -12 0.19 0.05
1 -6 12 0.17 0.05
1 -6 12 0.23 0.05
-2 6 -12 1.77 0.09
-2 6 -12 1.78 0.1
2 -6 12 1.67 0.1
2 -6 12 1.66 0.1
3 -6 12 2.96 0.13
3 -6 12 2.89 0.13
4 -6 12 4.14 0.16
-5 6 -12 0.19 0.05
5 -6 12 0.14 0.05
-6 6 -12 2.69 0.14
6 -6 12 2.76 0.14
-7 6 -12 0.08 0.05
7 -6 12 0.1 0.06
8 5 -12 0.18 0.06
8 5 -12 0.11 0.04
-8 -5 12 0.15 0.06
7 5 -12 0.25 0.05
7 5 -12 0.3 0.07
-7 -5 12 0.41 0.08
-7 -5 12 0.35 0.03
6 5 -12 0.59 0.08
6 5 -12 0.75 0.07
-6 -5 12 0.79 0.05
-6 -5 12 0.69 0.09
5 5 -12 0.24 0.04
5 5 -12 0.19 0.05
-5 -5 12 0.22 0.06
-5 -5 12 0.22 0.03
4 5 -12 2.98 0.12
4 5 -12 2.86 0.13
-4 -5 12 3.07 0.1
-4 -5 12 2.94 0.14
3 5 -12 0.68 0.08
3 5 -12 0.54 0.06
-3 -5 12 0.58 0.05
-3 -5 12 0.56 0.07
2 5 -12 2.74 0.11
2 5 -12 2.6 0.12
-2 -5 12 2.44 0.1
-2 -5 12 2.71 0.12
1 5 -12 18.29 0.38
1 5 -12 19.04 0.38
-1 -5 12 18.38 0.37
-1 -5 12 17.92 0.39
0 5 -12 6.2 0.18
0 5 -12 6.45 0.18
0 -5 12 6.25 0.18
0 -5 12 6.24 0.19
-1 5 -12 1.22 0.08
-1 5 -12 1.21 0.08
1 -5 12 1.24 0.08
-2 5 -12 0.04 0.03
-2 5 -12 0.04 0.03
2 -5 12 0 0.03
2 -5 12 0.07 0.04
-3 5 -12 3.56 0.12
3 -5 12 3.55 0.14
3 -5 12 3.52 0.14
-4 5 -12 3.97 0.14
4 -5 12 3.99 0.15
-5 5 -12 3.35 0.14
5 -5 12 3.1 0.14
-6 5 -12 1.26 0.1
6 -5 12 1.42 0.11
-7 5 -12 -0.01 0.04
-7 5 -12 0.04 0.04
7 -5 12 -0.03 0.05
8 4 -12 0.19 0.04
8 4 -12 0.16 0.06
-8 -4 12 0.28 0.07
-8 -4 12 0.23 0.03
7 4 -12 3.38 0.15
7 4 -12 3.23 0.13
-7 -4 12 3.45 0.17
-7 -4 12 3.33 0.1
6 4 -12 0.07 0.05
6 4 -12 0 0.03
-6 -4 12 0.01 0.02
-6 -4 12 0.04 0.05
5 4 -12 0.13 0.05
5 4 -12 0.03 0.03
-5 -4 12 0.08 0.03
-5 -4 12 0.07 0.05
4 4 -12 2.44 0.12
4 4 -12 2.3 0.1
-4 -4 12 2.44 0.09
-4 -4 12 2.5 0.12
3 4 -12 3.37 0.12
3 4 -12 2.97 0.12
-3 -4 12 2.95 0.13
-3 -4 12 3.13 0.11
2 4 -12 0.33 0.05
2 4 -12 0.31 0.05
-2 -4 12 0.34 0.05
-2 -4 12 0.26 0.05
1 4 -12 2.18 0.1
1 4 -12 2.17 0.1
-1 -4 12 2.19 0.1
-1 -4 12 2.17 0.11
0 4 -12 21.01 0.41
0 4 -12 21.77 0.42
0 -4 12 20.93 0.42
0 -4 12 21.09 0.41
-1 4 -12 2.41 0.1
-1 4 -12 2.22 0.1
1 -4 12 2.28 0.1
1 -4 12 2.33 0.1
-2 4 -12 0.21 0.04
-2 4 -12 0.24 0.05
-2 4 -12 0.2 0.03
2 -4 12 0.23 0.04
2 -4 12 0.24 0.05
-3 4 -12 0.56 0.05
-3 4 -12 0.66 0.05
-3 4 -12 0.62 0.06
3 -4 12 0.64 0.07
-4 4 -12 0.68 0.07
-4 4 -12 0.59 0.06
4 -4 12 0.69 0.08
-5 4 -12 0.37 0.06
-5 4 -12 0.39 0.06
5 -4 12 0.31 0.06
-6 4 -12 1.53 0.11
-6 4 -12 1.58 0.1
6 -4 12 1.58 0.11
-7 4 -12 3.46 0.15
-7 4 -12 3.31 0.16
7 -4 12 3.13 0.15
-8 4 -12 0.07 0.05
-8 4 -12 0.03 0.04
8 -4 12 0.03 0.05
9 3 -12 0.01 0.03
-9 -3 12 0.03 0.02
-9 -3 12 0.03 0.05
8 3 -12 1.19 0.09
8 3 -12 0.92 0.1
-8 -3 12 1.16 0.07
-8 -3 12 1.15 0.12
7 3 -12 1.41 0.09
7 3 -12 1.41 0.11
-7 -3 12 1.37 0.07
-7 -3 12 1.34 0.11
6 3 -12 1 0.08
6 3 -12 1.08 0.09
-6 -3 12 0.98 0.06
-6 -3 12 1.09 0.09
5 3 -12 8.94 0.22
5 3 -12 8.59 0.23
-5 -3 12 9.28 0.26
-5 -3 12 8.85 0.2
4 3 -12 1.01 0.08
4 3 -12 1.1 0.07
-4 -3 12 0.99 0.08
-4 -3 12 1.08 0.07
3 3 -12 1.59 0.08
3 3 -12 1.58 0.09
-3 -3 12 1.43 0.07
-3 -3 12 1.45 0.09
2 3 -12 1.45 0.08
2 3 -12 1.38 0.08
-2 -3 12 1.41 0.08
-2 -3 12 1.41 0.08
1 3 -12 2.77 0.11
1 3 -12 2.57 0.11
-1 -3 12 2.49 0.1
-1 -3 12 2.72 0.11
0 3 -12 10.91 0.24
0 3 -12 10.78 0.25
0 -3 12 10.45 0.24
0 -3 12 10.66 0.24
-1 3 -12 11.58 0.22
-1 3 -12 12.05 0.26
-1 3 -12 11.81 0.26
-1 3 -12 11.93 0.26
1 -3 12 11.74 0.26
1 -3 12 11.85 0.26
-2 3 -12 14.53 0.3
-2 3 -12 14.41 0.29
-2 3 -12 14.03 0.28
2 -3 12 14.39 0.31
2 -3 12 14.49 0.31
2 -3 12 14.3 0.3
-3 3 -12 3.17 0.1
-3 3 -12 3.23 0.11
3 -3 12 3.11 0.11
3 -3 12 3.04 0.12
-4 3 -12 0.13 0.04
-4 3 -12 0.12 0.04
4 -3 12 0.14 0.04
4 -3 12 0.12 0.04
-5 3 -12 1.42 0.09
-5 3 -12 1.27 0.09
5 -3 12 1.33 0.09
5 -3 12 1.12 0.09
-6 3 -12 0.06 0.04
-6 3 -12 0.05 0.04
6 -3 12 0.06 0.03
6 -3 12 0.04 0.04
-7 3 -12 0.26 0.06
-7 3 -12 0.22 0.05
7 -3 12 0.26 0.05
7 -3 12 0.2 0.06
-8 3 -12 0.03 0.04
-8 3 -12 0.02 0.04
8 -3 12 0 0.04
8 -3 12 -0.03 0.03
9 2 -12 0.15 0.04
-9 -2 12 0.35 0.08
-9 -2 12 0.26 0.04
8 2 -12 3.04 0.15
8 2 -12 3.53 0.14
-8 -2 12 3.14 0.11
-8 -2 12 3.08 0.16
7 2 -12 1.57 0.11
7 2 -12 1.75 0.1
-7 -2 12 1.8 0.08
-7 -2 12 1.66 0.12
6 2 -12 0.11 0.05
6 2 -12 0.04 0.03
-6 -2 12 0.09 0.04
-6 -2 12 0.11 0.03
5 2 -12 0.63 0.07
5 2 -12 0.61 0.06
-5 -2 12 0.78 0.06
-5 -2 12 0.64 0.07
4 2 -12 1.33 0.09
4 2 -12 1.35 0.08
-4 -2 12 1.25 0.08
-4 -2 12 1.27 0.07
3 2 -12 2.05 0.09
3 2 -12 1.88 0.1
-3 -2 12 1.99 0.09
-3 -2 12 2.18 0.1
2 2 -12 2.37 0.1
2 2 -12 2.47 0.1
-2 -2 12 2.38 0.1
-2 -2 12 2.51 0.1
1 2 -12 2.51 0.1
1 2 -12 2.52 0.1
1 2 -12 2.69 0.1
-1 -2 12 2.83 0.11
-1 -2 12 2.6 0.1
0 2 -12 23.32 0.44
0 2 -12 23.25 0.39
0 2 -12 23.82 0.43
0 2 -12 23.25 0.44
0 -2 12 24.11 0.43
0 -2 12 23.65 0.44
0 -2 12 23.68 0.44
-1 2 -12 0.12 0.03
-1 2 -12 0.15 0.03
-1 2 -12 0.15 0.03
-1 2 -12 0.13 0.03
1 -2 12 0.16 0.03
1 -2 12 0.25 0.04
1 -2 12 0.15 0.03
-2 2 -12 1.36 0.07
-2 2 -12 1.45 0.08
-2 2 -12 1.37 0.08
2 -2 12 1.32 0.08
2 -2 12 1.36 0.08
2 -2 12 1.52 0.08
-3 2 -12 24.79 0.46
-3 2 -12 25.05 0.46
-3 2 -12 24.73 0.44
3 -2 12 25.02 0.47
3 -2 12 24.6 0.46
-4 2 -12 2.44 0.1
-4 2 -12 2.25 0.1
4 -2 12 2.4 0.1
4 -2 12 2.39 0.11
-5 2 -12 0.65 0.07
-5 2 -12 0.55 0.07
5 -2 12 0.59 0.06
5 -2 12 0.55 0.07
-6 2 -12 5.05 0.16
-6 2 -12 5.09 0.18
6 -2 12 5.22 0.18
6 -2 12 5.14 0.17
-7 2 -12 0.06 0.03
-7 2 -12 -0.03 0.04
7 -2 12 -0.01 0.03
7 -2 12 -0.03 0.03
-8 2 -12 -0.05 0.03
-8 2 -12 -0.02 0.03
8 -2 12 -0.03 0.04
8 -2 12 -0.03 0.03
9 1 -12 0.24 0.05
-9 -1 12 0.13 0.04
-9 -1 12 0.16 0.06
8 1 -12 0.01 0.03
-8 -1 12 0.01 0.04
-8 -1 12 0.02 0.03
7 1 -12 0 0.03
7 1 -12 -0.01 0.04
-7 -1 12 0.05 0.05
-7 -1 12 0.05 0.03
6 1 -12 1.27 0.08
6 1 -12 1.41 0.1
-6 -1 12 1.28 0.1
-6 -1 12 1.39 0.08
5 1 -12 0.41 0.05
5 1 -12 0.57 0.07
-5 -1 12 0.37 0.06
-5 -1 12 0.56 0.05
4 1 -12 10.97 0.25
4 1 -12 10.91 0.26
-4 -1 12 10.9 0.26
-4 -1 12 10.93 0.24
3 1 -12 8.34 0.21
3 1 -12 8.19 0.2
-3 -1 12 8.24 0.21
-3 -1 12 7.68 0.19
2 1 -12 25.06 0.47
2 1 -12 24.78 0.47
-2 -1 12 25.37 0.46
-2 -1 12 25.52 0.47
1 1 -12 0.13 0.04
1 1 -12 0.16 0.03
-1 -1 12 0.13 0.03
-1 -1 12 0.2 0.04
-1 -1 12 0.14 0.02
-1 -1 12 0.2 0.04
0 1 -12 0.02 0.02
0 1 -12 0.06 0.03
0 1 -12 0 0.03
0 -1 12 0.03 0.02
0 -1 12 0.03 0.01
0 -1 12 0.01 0.02
0 -1 12 0.02 0.02
-1 1 -12 1.63 0.08
-1 1 -12 1.7 0.08
-1 1 -12 1.67 0.08
-1 1 -12 1.84 0.07
1 -1 12 1.63 0.08
1 -1 12 1.82 0.08
1 -1 12 1.79 0.08
-2 1 -12 13.68 0.27
-2 1 -12 13.41 0.28
-2 1 -12 13.79 0.29
2 -1 12 13.63 0.28
2 -1 12 14.15 0.28
-3 1 -12 0.13 0.03
-3 1 -12 0.2 0.03
-3 1 -12 0.14 0.03
3 -1 12 0.16 0.03
3 -1 12 0.13 0.04
-4 1 -12 2.81 0.11
-4 1 -12 2.69 0.11
4 -1 12 2.95 0.11
4 -1 12 3.1 0.11
-5 1 -12 0.42 0.06
-5 1 -12 0.34 0.05
5 -1 12 0.36 0.05
5 -1 12 0.33 0.05
-6 1 -12 0 0.04
-6 1 -12 0 0.03
6 -1 12 -0.01 0.03
6 -1 12 -0.05 0.03
-7 1 -12 0.76 0.07
-7 1 -12 0.73 0.09
7 -1 12 0.91 0.08
7 -1 12 0.73 0.08
-8 1 -12 0.43 0.06
-8 1 -12 0.47 0.08
8 -1 12 0.49 0.06
8 -1 12 0.47 0.07
9 0 -12 4.39 0.17
-9 0 12 4.63 0.2
-9 0 12 4.77 0.16
8 0 -12 2.42 0.12
-8 0 12 2.23 0.14
-8 0 12 2.44 0.11
7 0 -12 1.33 0.09
7 0 -12 1.26 0.09
-7 0 12 1.19 0.1
-7 0 12 1.27 0.08
6 0 -12 0.16 0.04
6 0 -12 0.14 0.05
-6 0 12 0.15 0.04
-6 0 12 0.05 0.03
5 0 -12 0.09 0.03
5 0 -12 0.08 0.04
-5 0 12 0.07 0.03
-5 0 12 0.09 0.03
4 0 -12 -0.03 0.02
4 0 -12 -0.02 0.03
-4 0 12 0 0.02
-4 0 12 -0.01 0.02
3 0 -12 1.28 0.08
3 0 -12 1.16 0.08
-3 0 12 1.13 0.07
-3 0 12 1.04 0.07
2 0 -12 0.04 0.03
2 0 -12 0.02 0.02
2 0 -12 0.03 0.03
-2 0 12 -0.01 0.02
-2 0 12 0.01 0.01
-2 0 12 0.03 0.02
1 0 -12 1.42 0.07
1 0 -12 1.46 0.07
1 0 -12 1.44 0.08
-1 0 12 1.41 0.07
-1 0 12 1.39 0.05
-1 0 12 1.36 0.07
-1 0 12 1.32 0.07
0 0 -12 0.25 0.04
0 0 -12 0.24 0.04
0 0 -12 0.19 0.03
0 0 12 0.24 0.04
0 0 12 0.24 0.03
0 0 12 0.18 0.03
0 0 12 0.23 0.03
-1 0 -12 19.41 0.36
-1 0 -12 19.53 0.38
-1 0 -12 19.35 0.37
1 0 12 19.86 0.38
1 0 12 19.75 0.36
1 0 12 19.56 0.37
-2 0 -12 10.63 0.23
-2 0 -12 10.74 0.23
-2 0 -12 10.59 0.23
2 0 12 10.91 0.23
2 0 12 10.57 0.23
-3 0 -12 4.9 0.15
-3 0 -12 4.88 0.14
-3 0 -12 4.82 0.13
3 0 12 4.58 0.14
3 0 12 4.81 0.14
-4 0 -12 0.08 0.03
-4 0 -12 0.11 0.04
4 0 12 0.11 0.03
4 0 12 0.09 0.04
-5 0 -12 11.39 0.26
-5 0 -12 12.16 0.29
5 0 12 11.38 0.27
5 0 12 11.65 0.26
-6 0 -12 2.85 0.11
-6 0 -12 3.02 0.14
6 0 12 3.01 0.12
6 0 12 2.91 0.13
-7 0 -12 0.31 0.05
-7 0 -12 0.38 0.07
7 0 12 0.43 0.07
7 0 12 0.34 0.05
-8 0 -12 0.47 0.08
-8 0 -12 0.51 0.06
8 0 12 0.63 0.07
8 0 12 0.42 0.07
9 -1 -12 0.12 0.05
-9 1 12 0.06 0.04
-9 1 12 0.23 0.06
8 -1 -12 6.68 0.21
-8 1 12 6.41 0.2
-8 1 12 6.43 0.22
7 -1 -12 0.08 0.04
7 -1 -12 0.09 0.04
-7 1 12 0.04 0.03
-7 1 12 0.01 0.04
6 -1 -12 7.93 0.22
6 -1 -12 7.61 0.22
-6 1 12 7.44 0.22
-6 1 12 7.76 0.21
5 -1 -12 1.29 0.08
5 -1 -12 1.3 0.09
-5 1 12 1.38 0.09
-5 1 12 1.32 0.08
4 -1 -12 0.78 0.07
4 -1 -12 0.6 0.06
-4 1 12 0.79 0.06
-4 1 12 0.8 0.07
-4 1 12 0.68 0.05
3 -1 -12 6.39 0.18
3 -1 -12 5.94 0.17
-3 1 12 6.22 0.16
-3 1 12 6.13 0.14
-3 1 12 6.05 0.17
2 -1 -12 1.28 0.07
2 -1 -12 1.52 0.08
2 -1 -12 1.23 0.07
-2 1 12 1.32 0.07
-2 1 12 1.26 0.06
-2 1 12 1.34 0.07
-2 1 12 1.42 0.07
1 -1 -12 7.39 0.18
1 -1 -12 7.26 0.18
1 -1 -12 7.42 0.19
-1 1 12 7.23 0.18
-1 1 12 7.32 0.17
-1 1 12 7.2 0.16
-1 1 12 7.28 0.18
0 -1 -12 2.31 0.09
0 -1 -12 2.27 0.1
0 1 12 2.12 0.08
0 1 12 2.26 0.08
0 1 12 2.32 0.09
0 1 12 2.3 0.09
-1 -1 -12 0.94 0.06
-1 -1 -12 1.18 0.07
1 1 12 1 0.06
1 1 12 1.07 0.06
1 1 12 1.06 0.06
-2 -1 -12 1.05 0.07
-2 -1 -12 1.13 0.07
-2 -1 -12 1.14 0.07
2 1 12 1.06 0.06
2 1 12 1.14 0.07
-3 -1 -12 0.05 0.03
-3 -1 -12 0.08 0.03
-3 -1 -12 0.08 0.03
3 1 12 0.1 0.03
3 1 12 0.08 0.03
-4 -1 -12 0.35 0.05
-4 -1 -12 0.32 0.06
4 1 12 0.3 0.04
4 1 12 0.35 0.05
-5 -1 -12 0.19 0.05
-5 -1 -12 0.18 0.04
5 1 12 0.24 0.05
5 1 12 0.16 0.04
-6 -1 -12 0.01 0.04
-6 -1 -12 -0.02 0.02
6 1 12 0.01 0.03
6 1 12 -0.03 0.03
-7 -1 -12 -0.03 0.04
-7 -1 -12 0 0.02
7 1 12 -0.03 0.04
7 1 12 0.01 0.03
-8 -1 -12 0.6 0.06
-8 -1 -12 0.79 0.1
8 1 12 0.63 0.08
8 1 12 0.56 0.06
9 -2 -12 0.47 0.07
9 -2 -12 0.51 0.08
-9 2 12 0.57 0.07
8 -2 -12 0.1 0.05
-8 2 12 0.18 0.06
-8 2 12 0.18 0.05
7 -2 -12 0.29 0.06
7 -2 -12 0.37 0.06
-7 2 12 0.25 0.06
-7 2 12 0.24 0.05
6 -2 -12 13.4 0.31
6 -2 -12 13.48 0.31
-6 2 12 12.51 0.31
-6 2 12 13.31 0.3
5 -2 -12 0.59 0.06
5 -2 -12 0.57 0.07
-5 2 12 0.6 0.06
-5 2 12 0.6 0.06
-5 2 12 0.65 0.07
4 -2 -12 8.29 0.22
4 -2 -12 8.37 0.22
-4 2 12 8.52 0.22
-4 2 12 8.14 0.2
-4 2 12 8.52 0.2
3 -2 -12 0.61 0.06
3 -2 -12 0.49 0.05
-3 2 12 0.51 0.05
-3 2 12 0.55 0.05
-3 2 12 0.57 0.06
2 -2 -12 0.05 0.03
2 -2 -12 0.16 0.04
-2 2 12 0.02 0.02
-2 2 12 0.06 0.02
-2 2 12 0.1 0.03
-2 2 12 0.09 0.03
1 -2 -12 0.04 0.03
1 -2 -12 0.05 0.03
-1 2 12 0.07 0.02
-1 2 12 0.08 0.02
-1 2 12 0.09 0.03
0 -2 -12 12.5 0.28
0 -2 -12 12.96 0.27
0 2 12 12.63 0.26
0 2 12 12.89 0.27
0 2 12 12.86 0.24
-1 -2 -12 28.41 0.53
-1 -2 -12 28.75 0.52
1 2 12 28.83 0.52
1 2 12 29 0.49
1 2 12 28.86 0.51
-2 -2 -12 5.24 0.16
-2 -2 -12 5.2 0.15
2 2 12 5.1 0.14
2 2 12 5.18 0.13
2 2 12 5.23 0.15
-3 -2 -12 2.76 0.11
-3 -2 -12 2.75 0.11
-3 -2 -12 2.71 0.1
3 2 12 2.77 0.1
3 2 12 2.66 0.1
-4 -2 -12 29.47 0.53
-4 -2 -12 29.47 0.56
-4 -2 -12 29.6 0.54
4 2 12 29.53 0.53
4 2 12 29.26 0.53
-5 -2 -12 0.63 0.08
-5 -2 -12 0.77 0.06
5 2 12 0.63 0.06
5 2 12 0.73 0.06
-6 -2 -12 0.98 0.06
-6 -2 -12 1.03 0.1
6 2 12 1.01 0.07
-7 -2 -12 1.49 0.08
-7 -2 -12 1.37 0.11
7 2 12 1.51 0.09
-8 -2 -12 1.26 0.12
-8 -2 -12 1.21 0.07
8 2 12 1.19 0.08
-8 3 12 0.05 0.04
7 -3 -12 0.34 0.06
-7 3 12 0.3 0.06
6 -3 -12 2.35 0.12
-6 3 12 2.57 0.11
-6 3 12 2.49 0.12
5 -3 -12 0.03 0.04
-5 3 12 0.04 0.03
-5 3 12 0.02 0.03
4 -3 -12 1.07 0.08
-4 3 12 0.89 0.07
-4 3 12 0.98 0.07
3 -3 -12 0.25 0.04
3 -3 -12 0.35 0.06
-3 3 12 0.29 0.04
2 -3 -12 4.34 0.14
2 -3 -12 3.72 0.14
-2 3 12 4.22 0.13
-2 3 12 4.22 0.14
1 -3 -12 0.35 0.05
1 -3 -12 0.33 0.04
-1 3 12 0.39 0.05
-1 3 12 0.23 0.04
0 -3 -12 1.53 0.08
0 -3 -12 1.52 0.09
0 3 12 1.43 0.08
0 3 12 1.47 0.08
-1 -3 -12 5.43 0.17
-1 -3 -12 5.19 0.15
1 3 12 5.48 0.16
1 3 12 5.39 0.15
-2 -3 -12 0.03 0.03
-2 -3 -12 0.03 0.03
2 3 12 0.06 0.03
2 3 12 0.04 0.03
-3 -3 -12 1.82 0.08
-3 -3 -12 1.71 0.09
3 3 12 1.69 0.1
3 3 12 1.9 0.09
-4 -3 -12 9.03 0.21
-4 -3 -12 9.26 0.24
-4 -3 -12 9.46 0.25
4 3 12 9.23 0.22
-5 -3 -12 0.29 0.06
-5 -3 -12 0.28 0.04
5 3 12 0.41 0.05
-6 -3 -12 0.74 0.09
-6 -3 -12 0.59 0.05
6 3 12 0.72 0.06
-7 -3 -12 0.02 0.02
-7 -3 -12 0.02 0.05
7 3 12 0.03 0.03
-8 4 12 0.32 0.07
7 -4 -12 0.19 0.05
-7 4 12 0.2 0.05
6 -4 -12 0.18 0.05
-6 4 12 0.16 0.05
5 -4 -12 0.31 0.06
-5 4 12 0.4 0.06
4 -4 -12 0.49 0.07
-4 4 12 0.45 0.06
3 -4 -12 0.07 0.04
3 -4 -12 0.05 0.04
-3 4 12 0.02 0.03
2 -4 -12 5.58 0.17
2 -4 -12 5.95 0.19
-2 4 12 6.18 0.17
1 -4 -12 6.87 0.19
1 -4 -12 7.23 0.21
-1 4 12 7.19 0.19
-1 4 12 7.18 0.19
0 -4 -12 25.17 0.51
0 -4 -12 24.62 0.47
0 4 12 26.03 0.48
0 4 12 25.37 0.48
-1 -4 -12 0.15 0.04
-1 -4 -12 0.19 0.05
1 4 12 0.19 0.04
1 4 12 0.24 0.04
-2 -4 -12 0.92 0.07
-2 -4 -12 1.11 0.09
2 4 12 1.05 0.07
2 4 12 0.92 0.07
-3 -4 -12 4.39 0.16
-3 -4 -12 4.24 0.13
3 4 12 4.29 0.15
3 4 12 4.06 0.13
-4 -4 -12 2.12 0.09
-4 -4 -12 1.88 0.1
4 4 12 2.01 0.11
4 4 12 2.03 0.09
-5 -4 -12 -0.04 0.03
-5 -4 -12 0.03 0.02
5 4 12 -0.02 0.03
5 4 12 -0.01 0.02
-6 -4 -12 4.22 0.11
-6 -4 -12 4.45 0.18
6 4 12 4.12 0.14
-7 -4 -12 2.48 0.07
-7 -4 -12 2.67 0.14
7 4 12 2.61 0.11
-7 5 12 0.04 0.04
6 -5 -12 1.31 0.1
-6 5 12 1.35 0.1
5 -5 -12 2.37 0.13
-5 5 12 2.17 0.12
4 -5 -12 0.04 0.04
-4 5 12 0.02 0.03
3 -5 -12 4.07 0.17
3 -5 -12 4.1 0.15
-3 5 12 4.44 0.15
2 -5 -12 3.62 0.15
2 -5 -12 3.74 0.14
-2 5 12 4.04 0.15
-2 5 12 3.73 0.14
1 -5 -12 0.07 0.03
1 -5 -12 0.04 0.04
-1 5 12 0.02 0.03
-1 5 12 0.04 0.03
0 -5 -12 0.1 0.05
0 -5 -12 0.08 0.03
0 5 12 0.09 0.03
0 5 12 0.06 0.03
-1 -5 -12 2.03 0.1
-1 -5 -12 2.29 0.12
1 5 12 2.07 0.1
1 5 12 2.17 0.11
-2 -5 -12 3.41 0.15
-2 -5 -12 3.72 0.13
2 5 12 3.49 0.14
2 5 12 3.71 0.13
-3 -5 -12 0.67 0.06
-3 -5 -12 0.85 0.09
3 5 12 0.59 0.07
3 5 12 0.56 0.06
-4 -5 -12 0.04 0.03
-4 -5 -12 0.03 0.04
4 5 12 0.03 0.03
4 5 12 -0.02 0.03
-5 -5 -12 0.02 0.02
5 5 12 -0.02 0.04
5 5 12 0.01 0.03
-6 -5 -12 0.06 0.02
6 5 12 0.09 0.03
6 5 12 0.11 0.05
6 -6 -12 0.18 0.06
-6 6 12 0.06 0.05
5 -6 -12 -0.03 0.04
-5 6 12 0.03 0.04
4 -6 -12 7.75 0.25
-4 6 12 7.96 0.24
3 -6 -12 2.22 0.12
3 -6 -12 2.45 0.13
-3 6 12 2.14 0.11
2 -6 -12 4.04 0.16
2 -6 -12 3.9 0.17
-2 6 12 4.01 0.16
-2 6 12 3.89 0.15
1 -6 -12 0.89 0.1
1 -6 -12 1.03 0.08
-1 6 12 0.94 0.08
-1 6 12 1.02 0.08
0 -6 -12 0.8 0.07
0 -6 -12 0.86 0.09
0 6 12 0.82 0.08
0 6 12 0.84 0.07
-1 -6 -12 0.82 0.09
-1 -6 -12 0.74 0.07
1 6 12 0.68 0.07
1 6 12 0.75 0.07
-2 -6 -12 1.05 0.08
-2 -6 -12 1.26 0.1
2 6 12 1.39 0.09
2 6 12 1.25 0.09
-3 -6 -12 1.38 0.11
-3 -6 -12 1.04 0.07
3 6 12 1.02 0.08
3 6 12 1.07 0.09
-4 -6 -12 0.01 0.04
-4 -6 -12 0.02 0.02
4 6 12 0 0.03
4 6 12 0.05 0.04
-5 -6 -12 0.19 0.03
5 6 12 0.23 0.04
5 6 12 0.15 0.05
5 -7 -12 0.28 0.07
-5 7 12 0.23 0.06
4 -7 -12 0.44 0.08
-4 7 12 0.36 0.06
3 -7 -12 0.56 0.08
3 -7 -12 0.52 0.08
-3 7 12 0.47 0.07
2 -7 -12 2.69 0.13
2 -7 -12 2.51 0.14
-2 7 12 2.44 0.13
-2 7 12 2.57 0.13
1 -7 -12 0.28 0.06
1 -7 -12 0.25 0.07
-1 7 12 0.24 0.06
-1 7 12 0.2 0.05
0 -7 -12 0.62 0.07
0 -7 -12 0.47 0.08
0 7 12 0.49 0.07
0 7 12 0.58 0.07
-1 -7 -12 0.5 0.08
-1 -7 -12 0.57 0.07
1 7 12 0.69 0.07
1 7 12 0.53 0.07
-2 -7 -12 0.1 0.06
-2 -7 -12 0.04 0.03
2 7 12 0.05 0.04
2 7 12 0 0.04
-3 -7 -12 0.12 0.03
-3 -7 -12 0.2 0.06
3 7 12 0.11 0.04
3 7 12 0.15 0.05
2 -8 -12 0 0.05
2 -8 -12 0.03 0.04
-2 8 12 0.06 0.05
1 -8 -12 0.08 0.06
1 -8 -12 0.07 0.04
-1 8 12 0.03 0.04
-1 8 12 0.06 0.04
0 -8 -12 0.35 0.08
0 -8 -12 0.28 0.05
0 8 12 0.36 0.07
0 8 12 0.4 0.07
-1 -8 -12 0.23 0.07
-1 -8 -12 0.19 0.05
1 8 12 0.17 0.05
1 8 12 0.14 0.05
3 9 -13 0.07 0.04
3 9 -13 0.12 0.06
-3 -9 13 0.09 0.05
-3 -9 13 0.05 0.03
2 9 -13 0 0.04
2 9 -13 -0.01 0.04
-2 -9 13 0 0.04
-2 -9 13 0.01 0.03
1 9 -13 0.46 0.07
1 9 -13 0.27 0.07
-1 -9 13 0.44 0.06
-1 -9 13 0.43 0.07
0 9 -13 0 0.04
0 9 -13 0.06 0.05
0 -9 13 -0.04 0.03
0 -9 13 0.03 0.04
-1 9 -13 0.44 0.07
-1 9 -13 0.38 0.07
1 -9 13 0.4 0.07
1 -9 13 0.35 0.07
2 -9 13 0.19 0.05
2 -9 13 0.21 0.06
3 -9 13 0.08 0.04
3 -9 13 0 0.04
5 8 -13 1.17 0.12
5 8 -13 1.02 0.09
-5 -8 13 0.96 0.11
-5 -8 13 0.9 0.05
4 8 -13 0.16 0.05
4 8 -13 0.16 0.06
-4 -8 13 0.16 0.04
-4 -8 13 0.26 0.07
3 8 -13 0.41 0.06
3 8 -13 0.29 0.07
-3 -8 13 0.47 0.08
-3 -8 13 0.37 0.05
2 8 -13 0.18 0.06
2 8 -13 0.27 0.06
-2 -8 13 0.18 0.06
-2 -8 13 0.26 0.05
1 8 -13 0.05 0.05
1 8 -13 0.02 0.04
-1 -8 13 0.07 0.04
-1 -8 13 0.08 0.04
0 8 -13 0.01 0.04
0 8 -13 0.12 0.05
0 -8 13 0.1 0.05
0 -8 13 0.12 0.05
-1 8 -13 0.01 0.04
-1 8 -13 0.01 0.04
1 -8 13 0.02 0.04
1 -8 13 0.02 0.04
-2 8 -13 1.01 0.09
2 -8 13 0.94 0.09
2 -8 13 0.96 0.1
3 -8 13 0.78 0.09
3 -8 13 0.56 0.08
4 -8 13 0.06 0.05
5 -8 13 -0.02 0.04
6 7 -13 -0.04 0.04
6 7 -13 -0.02 0.03
-6 -7 13 -0.07 0.04
-6 -7 13 -0.01 0.01
5 7 -13 0.61 0.07
5 7 -13 0.76 0.1
-5 -7 13 0.62 0.05
-5 -7 13 0.73 0.1
4 7 -13 0.31 0.07
4 7 -13 0.29 0.05
-4 -7 13 0.25 0.04
-4 -7 13 0.31 0.07
3 7 -13 0.7 0.07
3 7 -13 0.84 0.09
-3 -7 13 0.75 0.09
-3 -7 13 0.72 0.07
2 7 -13 1.14 0.09
2 7 -13 1.18 0.1
-2 -7 13 1.28 0.08
-2 -7 13 1.23 0.1
1 7 -13 0.1 0.04
1 7 -13 0.09 0.05
-1 -7 13 0.09 0.04
-1 -7 13 0.11 0.04
0 7 -13 0.17 0.05
0 7 -13 0.07 0.04
0 -7 13 0.08 0.04
0 -7 13 0.17 0.05
-1 7 -13 0.1 0.04
-1 7 -13 0.07 0.04
1 -7 13 0.09 0.04
1 -7 13 0.07 0.04
-2 7 -13 0.31 0.06
2 -7 13 0.31 0.06
2 -7 13 0.54 0.08
3 -7 13 0.33 0.06
3 -7 13 0.32 0.06
4 -7 13 2.64 0.14
5 -7 13 0.51 0.08
6 -7 13 0.71 0.1
7 6 -13 0.66 0.07
7 6 -13 0.34 0.07
-7 -6 13 0.55 0.09
6 6 -13 1.99 0.13
6 6 -13 1.97 0.11
-6 -6 13 1.95 0.07
-6 -6 13 2.39 0.15
5 6 -13 0.13 0.06
5 6 -13 0.18 0.05
-5 -6 13 0.18 0.03
-5 -6 13 0.12 0.05
4 6 -13 -0.05 0.03
4 6 -13 0.04 0.05
-4 -6 13 0.02 0.03
-4 -6 13 0 0.04
3 6 -13 0.63 0.07
3 6 -13 0.66 0.08
-3 -6 13 0.75 0.09
-3 -6 13 0.61 0.06
2 6 -13 0.09 0.04
2 6 -13 0.09 0.04
-2 -6 13 0.09 0.05
-2 -6 13 0.08 0.03
1 6 -13 0.71 0.08
1 6 -13 0.62 0.08
-1 -6 13 0.57 0.07
-1 -6 13 0.59 0.07
0 6 -13 0.26 0.05
0 6 -13 0.28 0.06
0 -6 13 0.32 0.05
0 -6 13 0.34 0.06
-1 6 -13 0.14 0.05
-1 6 -13 0.08 0.04
1 -6 13 0.12 0.04
1 -6 13 0.18 0.05
-2 6 -13 1.97 0.1
2 -6 13 1.69 0.11
2 -6 13 1.81 0.1
3 -6 13 1.33 0.1
4 -6 13 0.67 0.08
5 -6 13 1.77 0.12
-6 6 -13 1.8 0.12
6 -6 13 1.7 0.12
7 5 -13 0.04 0.05
7 5 -13 0.03 0.04
-7 -5 13 -0.01 0.02
-7 -5 13 0.01 0.05
6 5 -13 0.49 0.06
6 5 -13 0.61 0.08
-6 -5 13 0.54 0.09
-6 -5 13 0.46 0.05
5 5 -13 0.01 0.03
5 5 -13 0.04 0.05
-5 -5 13 -0.02 0.02
-5 -5 13 0.01 0.04
4 5 -13 0.05 0.03
4 5 -13 0.05 0.04
-4 -5 13 0.01 0.02
-4 -5 13 0.03 0.04
3 5 -13 3.23 0.13
3 5 -13 2.84 0.13
-3 -5 13 2.99 0.11
-3 -5 13 2.9 0.14
2 5 -13 6.95 0.2
2 5 -13 6.81 0.2
-2 -5 13 7.27 0.19
-2 -5 13 6.87 0.21
1 5 -13 0.55 0.06
1 5 -13 0.46 0.06
-1 -5 13 0.53 0.07
-1 -5 13 0.45 0.06
0 5 -13 2.65 0.11
0 5 -13 2.6 0.12
0 -5 13 2.48 0.11
0 -5 13 2.44 0.11
-1 5 -13 0.68 0.07
-1 5 -13 0.59 0.06
1 -5 13 0.48 0.06
1 -5 13 0.55 0.07
-2 5 -13 0.32 0.05
2 -5 13 0.2 0.05
2 -5 13 0.27 0.05
3 -5 13 0.17 0.05
-4 5 -13 0.48 0.06
4 -5 13 0.55 0.08
-5 5 -13 0.94 0.08
5 -5 13 1.09 0.1
-6 5 -13 0 0.04
6 -5 13 -0.05 0.04
-7 5 -13 1.02 0.1
-7 5 -13 1.13 0.11
7 -5 13 1.14 0.12
8 4 -13 1.07 0.08
8 4 -13 0.93 0.1
-8 -4 13 0.96 0.06
-8 -4 13 0.86 0.11
7 4 -13 5.01 0.19
7 4 -13 4.81 0.16
-7 -4 13 4.6 0.2
-7 -4 13 4.8 0.13
6 4 -13 0.26 0.06
6 4 -13 0.29 0.05
-6 -4 13 0.25 0.06
-6 -4 13 0.28 0.04
5 4 -13 3 0.12
5 4 -13 2.89 0.13
-5 -4 13 3.11 0.11
-5 -4 13 3.07 0.15
4 4 -13 0.91 0.09
4 4 -13 0.86 0.07
-4 -4 13 0.94 0.09
-4 -4 13 0.99 0.07
3 4 -13 0.14 0.04
3 4 -13 0.16 0.05
-3 -4 13 0.18 0.05
-3 -4 13 0.17 0.04
2 4 -13 0.64 0.07
2 4 -13 0.52 0.07
-2 -4 13 0.35 0.05
-2 -4 13 0.48 0.06
1 4 -13 3.89 0.14
1 4 -13 3.88 0.14
-1 -4 13 3.65 0.13
-1 -4 13 3.78 0.14
0 4 -13 0.07 0.03
0 4 -13 0.05 0.03
0 -4 13 0.03 0.03
0 -4 13 0.04 0.03
-1 4 -13 0.47 0.06
-1 4 -13 0.39 0.05
1 -4 13 0.31 0.05
1 -4 13 0.34 0.05
-2 4 -13 0.72 0.06
2 -4 13 0.94 0.08
2 -4 13 0.74 0.07
-3 4 -13 21.54 0.41
3 -4 13 22.04 0.45
-4 4 -13 5.04 0.16
-4 4 -13 5.05 0.17
4 -4 13 5.25 0.18
-5 4 -13 1.66 0.1
-5 4 -13 1.58 0.1
5 -4 13 1.65 0.11
-6 4 -13 0.1 0.05
-6 4 -13 -0.01 0.04
6 -4 13 0 0.04
-7 4 -13 0.98 0.1
-7 4 -13 0.86 0.1
7 -4 13 0.7 0.09
8 3 -13 0.02 0.06
8 3 -13 0.09 0.04
-8 -3 13 0.16 0.04
-8 -3 13 0.18 0.07
7 3 -13 1.78 0.1
7 3 -13 1.93 0.12
-7 -3 13 1.94 0.09
-7 -3 13 2.25 0.14
6 3 -13 5.51 0.19
6 3 -13 5.41 0.17
-6 -3 13 5.35 0.2
-6 -3 13 5.33 0.15
5 3 -13 0.5 0.07
5 3 -13 0.54 0.06
-5 -3 13 0.48 0.07
-5 -3 13 0.49 0.05
4 3 -13 1.93 0.11
4 3 -13 2.03 0.1
-4 -3 13 1.9 0.11
-4 -3 13 1.94 0.09
3 3 -13 1.12 0.08
3 3 -13 1.22 0.09
-3 -3 13 0.91 0.07
-3 -3 13 1 0.08
2 3 -13 27.86 0.52
2 3 -13 27.93 0.51
-2 -3 13 26.76 0.5
-2 -3 13 27.73 0.53
1 3 -13 0.82 0.07
1 3 -13 1.03 0.07
-1 -3 13 1.02 0.08
-1 -3 13 0.88 0.07
0 3 -13 4.71 0.15
0 3 -13 4.49 0.15
0 -3 13 4.54 0.14
0 -3 13 4.63 0.15
-1 3 -13 23.1 0.44
-1 3 -13 23.84 0.44
-1 3 -13 23.85 0.45
1 -3 13 22.75 0.45
1 -3 13 23.52 0.45
-2 3 -13 0.32 0.05
-2 3 -13 0.34 0.04
-2 3 -13 0.31 0.05
2 -3 13 0.37 0.05
2 -3 13 0.26 0.05
-3 3 -13 1.21 0.08
-3 3 -13 1.24 0.07
-3 3 -13 1.15 0.07
3 -3 13 1.18 0.08
3 -3 13 1.23 0.08
-4 3 -13 -0.02 0.03
-4 3 -13 0.02 0.03
-4 3 -13 -0.01 0.03
4 -3 13 -0.03 0.03
4 -3 13 0.03 0.03
-5 3 -13 0.65 0.07
-5 3 -13 0.72 0.08
5 -3 13 0.63 0.08
5 -3 13 0.77 0.07
-6 3 -13 0.31 0.06
-6 3 -13 0.42 0.06
6 -3 13 0.39 0.07
6 -3 13 0.32 0.05
-7 3 -13 0.01 0.04
-7 3 -13 0.01 0.04
7 -3 13 -0.02 0.04
7 -3 13 -0.04 0.03
-8 3 -13 0.16 0.05
-8 3 -13 0.19 0.06
8 -3 13 0.14 0.05
8 -3 13 0.19 0.06
8 2 -13 3.4 0.14
8 2 -13 2.99 0.15
-8 -2 13 2.92 0.12
-8 -2 13 3.17 0.17
7 2 -13 0.12 0.04
7 2 -13 0.1 0.06
-7 -2 13 0.2 0.06
-7 -2 13 0.16 0.04
6 2 -13 3.78 0.14
6 2 -13 3.91 0.16
-6 -2 13 3.59 0.13
-6 -2 13 3.79 0.16
5 2 -13 0.6 0.08
5 2 -13 0.56 0.06
-5 -2 13 0.58 0.08
-5 -2 13 0.6 0.06
4 2 -13 5.63 0.18
4 2 -13 6.37 0.18
-4 -2 13 6.04 0.16
-4 -2 13 5.66 0.19
3 2 -13 0.29 0.04
3 2 -13 0.4 0.06
-3 -2 13 0.31 0.05
-3 -2 13 0.37 0.05
2 2 -13 0.29 0.05
2 2 -13 0.27 0.05
-2 -2 13 0.28 0.05
-2 -2 13 0.22 0.04
1 2 -13 9.3 0.23
1 2 -13 9.5 0.23
-1 -2 13 9.25 0.23
-1 -2 13 9.12 0.22
0 2 -13 44.42 0.76
0 2 -13 44.78 0.77
0 2 -13 44.05 0.75
0 -2 13 44.23 0.76
0 -2 13 43.8 0.76
-1 2 -13 0.02 0.03
-1 2 -13 0.05 0.04
-1 2 -13 0.03 0.03
-1 2 -13 0.06 0.02
1 -2 13 0.01 0.02
1 -2 13 0.01 0.03
1 -2 13 0.02 0.03
-2 2 -13 44.2 0.75
-2 2 -13 42.97 0.76
-2 2 -13 43.95 0.74
2 -2 13 44.2 0.75
2 -2 13 44.67 0.76
-3 2 -13 4.43 0.13
-3 2 -13 3.99 0.13
-3 2 -13 4.35 0.14
3 -2 13 4.24 0.14
3 -2 13 4.32 0.14
-4 2 -13 0.1 0.04
-4 2 -13 0.17 0.04
4 -2 13 0.13 0.04
4 -2 13 0.14 0.04
-5 2 -13 2.33 0.12
-5 2 -13 2.43 0.11
5 -2 13 2.48 0.11
5 -2 13 2.37 0.12
-6 2 -13 6.79 0.21
-6 2 -13 6.88 0.2
6 -2 13 6.52 0.21
6 -2 13 6.49 0.2
-7 2 -13 0 0.04
-7 2 -13 0.01 0.03
7 -2 13 -0.01 0.04
7 -2 13 0.06 0.03
-8 2 -13 0.67 0.08
-8 2 -13 0.67 0.09
8 -2 13 0.81 0.09
8 -2 13 0.56 0.08
9 1 -13 0.11 0.05
-9 -1 13 0.22 0.04
-9 -1 13 0.15 0.06
8 1 -13 2.38 0.12
8 1 -13 2.1 0.13
-8 -1 13 2.05 0.1
-8 -1 13 2.07 0.14
7 1 -13 2.89 0.14
7 1 -13 2.92 0.13
-7 -1 13 2.96 0.15
-7 -1 13 2.83 0.12
6 1 -13 0.12 0.04
6 1 -13 0.09 0.05
-6 -1 13 0.05 0.04
-6 -1 13 0.08 0.03
5 1 -13 0.12 0.04
5 1 -13 0.15 0.05
-5 -1 13 0.14 0.04
-5 -1 13 0.12 0.03
4 1 -13 2.15 0.1
4 1 -13 2.25 0.12
-4 -1 13 2.25 0.11
-4 -1 13 2.24 0.1
3 1 -13 0.23 0.04
3 1 -13 0.23 0.05
-3 -1 13 0.22 0.04
-3 -1 13 0.19 0.04
2 1 -13 0.43 0.06
-2 -1 13 0.46 0.05
-2 -1 13 0.39 0.05
1 1 -13 4.01 0.14
1 1 -13 3.96 0.12
1 1 -13 3.84 0.13
-1 -1 13 3.85 0.13
-1 -1 13 3.81 0.13
0 1 -13 5.67 0.16
0 1 -13 5.64 0.16
0 -1 13 5.72 0.13
0 -1 13 5.75 0.16
0 -1 13 5.54 0.15
0 -1 13 5.6 0.15
-1 1 -13 1.41 0.08
-1 1 -13 1.42 0.08
-1 1 -13 1.28 0.06
1 -1 13 1.44 0.07
1 -1 13 1.43 0.07
1 -1 13 1.53 0.08
-2 1 -13 3 0.1
-2 1 -13 3.02 0.11
-2 1 -13 3.23 0.11
2 -1 13 3.18 0.11
2 -1 13 3.11 0.11
-3 1 -13 0.25 0.04
-3 1 -13 0.14 0.03
-3 1 -13 0.29 0.04
3 -1 13 0.25 0.04
3 -1 13 0.3 0.05
-4 1 -13 0.18 0.04
-4 1 -13 0.19 0.04
4 -1 13 0.3 0.05
4 -1 13 0.24 0.05
-5 1 -13 3.65 0.13
-5 1 -13 3.82 0.15
5 -1 13 3.75 0.13
5 -1 13 3.47 0.14
-6 1 -13 1.27 0.1
-6 1 -13 1.19 0.08
6 -1 13 1.14 0.08
6 -1 13 1.23 0.09
-7 1 -13 0.29 0.07
-7 1 -13 0.21 0.05
7 -1 13 0.18 0.04
7 -1 13 0.16 0.06
-8 1 -13 0.03 0.05
-8 1 -13 0.01 0.03
8 -1 13 0.05 0.05
8 -1 13 0 0.03
9 0 -13 1.32 0.11
-9 0 13 1.09 0.12
-9 0 13 1.22 0.09
8 0 -13 0.02 0.04
-8 0 13 0.07 0.04
-8 0 13 0.04 0.04
7 0 -13 0.61 0.07
7 0 -13 0.64 0.08
-7 0 13 0.63 0.08
-7 0 13 0.63 0.07
6 0 -13 0.02 0.03
6 0 -13 0 0.04
-6 0 13 0.01 0.03
-6 0 13 -0.02 0.03
5 0 -13 1.85 0.1
5 0 -13 1.75 0.11
-5 0 13 1.93 0.1
-5 0 13 1.67 0.1
4 0 -13 -0.02 0.03
4 0 -13 0.03 0.04
-4 0 13 0.02 0.03
-4 0 13 0.04 0.03
3 0 -13 0.61 0.07
3 0 -13 0.55 0.06
-3 0 13 0.59 0.06
-3 0 13 0.55 0.06
2 0 -13 1.99 0.1
2 0 -13 1.9 0.09
2 0 -13 1.7 0.08
-2 0 13 1.8 0.08
-2 0 13 1.75 0.08
1 0 -13 1.61 0.08
1 0 -13 1.56 0.08
1 0 -13 1.42 0.08
-1 0 13 1.47 0.07
-1 0 13 1.53 0.08
-1 0 13 1.4 0.07
-1 0 13 1.44 0.06
0 0 -13 0.43 0.05
0 0 -13 0.38 0.04
0 0 13 0.47 0.05
0 0 13 0.52 0.04
0 0 13 0.54 0.05
0 0 13 0.57 0.05
-1 0 -13 16.05 0.3
-1 0 -13 15.23 0.32
-1 0 -13 15.65 0.32
1 0 13 15.69 0.31
1 0 13 15.53 0.31
-2 0 -13 19.42 0.37
-2 0 -13 19.56 0.38
-2 0 -13 18.87 0.37
2 0 13 19.47 0.37
2 0 13 18.63 0.37
-3 0 -13 0.5 0.06
-3 0 -13 0.54 0.05
-3 0 -13 0.42 0.05
3 0 13 0.58 0.06
3 0 13 0.63 0.06
-4 0 -13 0.37 0.05
-4 0 -13 0.37 0.05
4 0 13 0.33 0.05
4 0 13 0.24 0.04
-5 0 -13 5.43 0.18
-5 0 -13 5.45 0.16
5 0 13 5.64 0.17
5 0 13 5.78 0.17
-6 0 -13 0.09 0.04
-6 0 -13 0.08 0.04
6 0 13 0.1 0.04
6 0 13 0.09 0.04
-7 0 -13 0.04 0.03
-7 0 -13 0 0.04
7 0 13 0.03 0.03
7 0 13 -0.01 0.04
-8 0 -13 2.16 0.11
-8 0 -13 2.43 0.15
8 0 13 2.28 0.12
8 0 13 2.49 0.14
9 -1 -13 0.65 0.08
-9 1 13 0.67 0.08
8 -1 -13 0.66 0.08
-8 1 13 0.68 0.09
-8 1 13 0.67 0.07
7 -1 -13 1.76 0.11
7 -1 -13 1.78 0.11
-7 1 13 1.98 0.12
-7 1 13 1.88 0.11
6 -1 -13 2.24 0.12
6 -1 -13 2.32 0.12
-6 1 13 2.16 0.11
-6 1 13 2.24 0.12
5 -1 -13 4.09 0.15
5 -1 -13 3.74 0.15
-5 1 13 3.69 0.14
-5 1 13 3.96 0.14
4 -1 -13 0.13 0.04
4 -1 -13 0.15 0.04
-4 1 13 0.15 0.04
-4 1 13 0.16 0.04
3 -1 -13 1.06 0.08
-3 1 13 1.1 0.07
-3 1 13 1.11 0.06
-3 1 13 1.03 0.07
2 -1 -13 5.6 0.17
2 -1 -13 5.37 0.16
2 -1 -13 5.57 0.16
-2 1 13 5.56 0.16
-2 1 13 5.6 0.15
-2 1 13 5.5 0.13
1 -1 -13 26.3 0.48
1 -1 -13 26.53 0.5
-1 1 13 25.78 0.45
-1 1 13 25.94 0.48
-1 1 13 25.59 0.46
0 -1 -13 9.76 0.24
0 -1 -13 9.55 0.22
0 1 13 9.93 0.21
0 1 13 9.76 0.21
0 1 13 9.79 0.22
-1 -1 -13 0.39 0.05
-1 -1 -13 0.29 0.04
1 1 13 0.4 0.05
1 1 13 0.27 0.04
1 1 13 0.31 0.04
-2 -1 -13 2.62 0.11
-2 -1 -13 2.72 0.1
-2 -1 -13 2.59 0.1
2 1 13 2.74 0.1
2 1 13 2.78 0.1
-3 -1 -13 1.27 0.08
-3 -1 -13 1.31 0.07
-3 -1 -13 1.3 0.08
3 1 13 1.09 0.07
3 1 13 1.17 0.07
-4 -1 -13 6.14 0.17
-4 -1 -13 5.92 0.18
4 1 13 6.05 0.17
4 1 13 6.17 0.17
-5 -1 -13 0.29 0.05
-5 -1 -13 0.23 0.05
5 1 13 0.2 0.04
5 1 13 0.23 0.05
-6 -1 -13 0.06 0.05
-6 -1 -13 0.03 0.03
6 1 13 0.01 0.04
6 1 13 -0.01 0.03
-7 -1 -13 0.13 0.04
-7 -1 -13 0.19 0.06
7 1 13 0.16 0.05
7 1 13 0.19 0.05
-8 -1 -13 0.41 0.08
-8 -1 -13 0.37 0.05
8 1 13 0.42 0.06
8 1 13 0.28 0.06
-8 2 13 1.21 0.1
-8 2 13 1.23 0.1
7 -2 -13 0.03 0.04
7 -2 -13 0.04 0.04
-7 2 13 0.01 0.04
-7 2 13 0.03 0.04
6 -2 -13 0.11 0.05
-6 2 13 0.07 0.04
-6 2 13 0.12 0.04
5 -2 -13 0.29 0.06
-5 2 13 0.36 0.05
-5 2 13 0.27 0.05
4 -2 -13 0.92 0.08
-4 2 13 0.72 0.07
-4 2 13 0.79 0.06
-4 2 13 0.9 0.06
3 -2 -13 1.18 0.08
-3 2 13 1.12 0.06
-3 2 13 1.2 0.06
-3 2 13 1.06 0.08
2 -2 -13 5.15 0.16
2 -2 -13 5.37 0.17
-2 2 13 5.37 0.14
-2 2 13 5.49 0.14
1 -2 -13 0.54 0.06
1 -2 -13 0.65 0.07
-1 2 13 0.66 0.05
-1 2 13 0.63 0.05
-1 2 13 0.66 0.06
0 -2 -13 0.29 0.05
0 -2 -13 0.35 0.05
0 2 13 0.3 0.04
0 2 13 0.23 0.04
-1 -2 -13 0.06 0.03
-1 -2 -13 0.12 0.04
1 2 13 0.09 0.03
1 2 13 0.1 0.03
-2 -2 -13 30.01 0.55
-2 -2 -13 30.52 0.57
2 2 13 31.53 0.56
2 2 13 31.09 0.55
-3 -2 -13 2.06 0.1
-3 -2 -13 2.15 0.1
-3 -2 -13 2.07 0.1
3 2 13 2.14 0.1
-4 -2 -13 1.2 0.09
-4 -2 -13 1.24 0.08
4 2 13 1.21 0.08
-5 -2 -13 1.13 0.07
-5 -2 -13 1.04 0.09
5 2 13 0.96 0.07
-6 -2 -13 0.05 0.03
-6 -2 -13 0.06 0.05
6 2 13 0.06 0.03
-7 -2 -13 0.6 0.06
-7 -2 -13 0.87 0.1
7 2 13 0.81 0.07
-8 3 13 0.02 0.04
7 -3 -13 0.05 0.04
-7 3 13 0.02 0.04
6 -3 -13 0.11 0.04
-6 3 13 0.15 0.05
5 -3 -13 0.53 0.07
-5 3 13 0.6 0.07
-5 3 13 0.49 0.06
4 -3 -13 1.94 0.11
-4 3 13 1.9 0.09
3 -3 -13 1.53 0.09
3 -3 -13 1.62 0.1
-3 3 13 1.6 0.08
2 -3 -13 19.22 0.4
2 -3 -13 19.24 0.41
-2 3 13 20.2 0.38
-2 3 13 19.99 0.4
1 -3 -13 0.37 0.06
1 -3 -13 0.32 0.05
-1 3 13 0.38 0.05
-1 3 13 0.44 0.05
0 -3 -13 4.22 0.14
0 -3 -13 4.22 0.15
0 3 13 4.29 0.14
0 3 13 4.1 0.13
-1 -3 -13 -0.01 0.03
-1 -3 -13 -0.05 0.02
1 3 13 0.03 0.03
1 3 13 -0.05 0.02
-2 -3 -13 0.56 0.07
-2 -3 -13 0.5 0.06
2 3 13 0.46 0.05
2 3 13 0.63 0.07
-3 -3 -13 0.4 0.06
-3 -3 -13 0.36 0.05
3 3 13 0.32 0.05
3 3 13 0.46 0.06
-4 -3 -13 1.75 0.09
-4 -3 -13 1.92 0.1
-4 -3 -13 2.11 0.11
4 3 13 1.99 0.1
-5 -3 -13 0.14 0.05
-5 -3 -13 0.18 0.04
5 3 13 0.15 0.04
-6 -3 -13 0.18 0.05
-6 -3 -13 0.17 0.04
6 3 13 0.14 0.04
-7 -3 -13 0.91 0.06
-7 -3 -13 0.71 0.09
7 3 13 0.8 0.08
7 -4 -13 1.13 0.1
6 -4 -13 0 0.04
-6 4 13 -0.02 0.03
5 -4 -13 0.66 0.08
-5 4 13 0.64 0.07
4 -4 -13 0.71 0.09
-4 4 13 0.6 0.07
3 -4 -13 0.01 0.03
3 -4 -13 0 0.03
-3 4 13 0.04 0.03
2 -4 -13 1.69 0.1
2 -4 -13 1.83 0.11
-2 4 13 2.02 0.1
-2 4 13 1.89 0.1
1 -4 -13 2.94 0.12
1 -4 -13 2.73 0.13
-1 4 13 3.01 0.12
-1 4 13 3.13 0.12
0 -4 -13 0.81 0.07
0 -4 -13 0.82 0.09
0 4 13 0.79 0.06
0 4 13 0.82 0.07
-1 -4 -13 3.13 0.14
-1 -4 -13 3.35 0.13
1 4 13 3.63 0.13
1 4 13 3.39 0.13
-2 -4 -13 0.33 0.06
-2 -4 -13 0.4 0.05
2 4 13 0.47 0.06
2 4 13 0.4 0.05
-3 -4 -13 1.59 0.1
-3 -4 -13 1.75 0.09
3 4 13 1.83 0.09
3 4 13 1.69 0.1
-4 -4 -13 0.05 0.03
-4 -4 -13 0.02 0.03
4 4 13 0.01 0.03
4 4 13 0 0.03
-5 -4 -13 2.12 0.09
5 4 13 2.17 0.1
5 4 13 2.07 0.12
-6 -4 -13 0.11 0.05
-6 -4 -13 0.09 0.03
6 4 13 0.1 0.03
-7 5 13 0.39 0.07
6 -5 -13 5.47 0.2
-6 5 13 5.49 0.19
5 -5 -13 0.5 0.08
-5 5 13 0.51 0.07
4 -5 -13 0.57 0.08
-4 5 13 0.37 0.06
3 -5 -13 0.91 0.09
3 -5 -13 0.88 0.1
-3 5 13 0.83 0.08
2 -5 -13 0.25 0.06
2 -5 -13 0.23 0.05
-2 5 13 0.25 0.05
-2 5 13 0.31 0.05
1 -5 -13 0.51 0.06
1 -5 -13 0.57 0.08
-1 5 13 0.51 0.06
-1 5 13 0.57 0.07
0 -5 -13 0.08 0.04
0 -5 -13 0.19 0.06
0 5 13 0.14 0.04
0 5 13 0.11 0.04
-1 -5 -13 0.86 0.07
-1 -5 -13 0.77 0.09
1 5 13 0.88 0.08
1 5 13 0.88 0.08
-2 -5 -13 0.17 0.04
-2 -5 -13 0.19 0.05
2 5 13 0.16 0.04
2 5 13 0.15 0.04
-3 -5 -13 0.34 0.06
-3 -5 -13 0.35 0.05
3 5 13 0.26 0.05
3 5 13 0.28 0.05
-4 -5 -13 -0.01 0.04
-4 -5 -13 -0.03 0.02
4 5 13 -0.03 0.04
4 5 13 -0.01 0.03
-5 -5 -13 0.26 0.04
5 5 13 0.17 0.04
5 5 13 0.19 0.06
6 -6 -13 0.09 0.05
-6 6 13 0.09 0.05
5 -6 -13 0.04 0.05
-5 6 13 0.01 0.04
4 -6 -13 4.4 0.19
-4 6 13 4.09 0.17
3 -6 -13 0.54 0.08
3 -6 -13 0.52 0.08
-3 6 13 0.46 0.06
2 -6 -13 1.22 0.1
2 -6 -13 1.04 0.1
-2 6 13 1.36 0.1
1 -6 -13 0.07 0.04
1 -6 -13 0.03 0.04
-1 6 13 0.08 0.04
-1 6 13 0.08 0.04
0 -6 -13 0.41 0.06
0 -6 -13 0.29 0.06
0 6 13 0.4 0.06
0 6 13 0.36 0.06
-1 -6 -13 0.16 0.05
-1 -6 -13 0.14 0.04
1 6 13 0.2 0.05
1 6 13 0.1 0.04
-2 -6 -13 0.08 0.05
-2 -6 -13 0.11 0.04
2 6 13 0.13 0.05
2 6 13 0.11 0.04
-3 -6 -13 0.39 0.07
-3 -6 -13 0.36 0.05
3 6 13 0.43 0.06
3 6 13 0.34 0.06
-4 -6 -13 1.52 0.12
-4 -6 -13 1.52 0.08
4 6 13 1.43 0.1
4 6 13 1.57 0.09
4 -7 -13 0.05 0.05
-4 7 13 0.01 0.04
3 -7 -13 0.02 0.05
3 -7 -13 -0.02 0.04
-3 7 13 -0.01 0.04
2 -7 -13 0.09 0.05
2 -7 -13 0.05 0.05
-2 7 13 0.11 0.04
1 -7 -13 0.14 0.06
1 -7 -13 0.18 0.05
-1 7 13 0.12 0.04
-1 7 13 0.09 0.04
0 -7 -13 0.11 0.06
0 -7 -13 0.06 0.04
0 7 13 0.03 0.04
0 7 13 0.01 0.04
-1 -7 -13 0.02 0.03
-1 -7 -13 0.05 0.05
1 7 13 0.02 0.04
1 7 13 0.07 0.04
-2 -7 -13 0.03 0.05
-2 -7 -13 -0.02 0.03
2 7 13 0.02 0.04
2 7 13 0.02 0.03
-3 -7 -13 0.03 0.03
3 7 13 0.03 0.03
3 7 13 0 0.04
2 9 -14 0.06 0.05
2 9 -14 -0.04 0.04
-2 -9 14 -0.02 0.03
-2 -9 14 0.04 0.04
1 9 -14 0.02 0.05
1 9 -14 0.06 0.05
-1 -9 14 -0.01 0.03
-1 -9 14 0.13 0.05
0 9 -14 0.36 0.07
0 9 -14 0.44 0.08
0 -9 14 0.33 0.06
0 -9 14 0.31 0.07
-1 9 -14 0.02 0.05
-1 9 -14 0.14 0.05
1 -9 14 0.09 0.05
1 -9 14 0.07 0.05
2 -9 14 0.13 0.05
2 -9 14 0.11 0.05
4 8 -14 0.23 0.07
4 8 -14 0.28 0.06
-4 -8 14 0.26 0.04
-4 -8 14 0.36 0.07
3 8 -14 -0.04 0.04
3 8 -14 -0.01 0.03
-3 -8 14 -0.02 0.03
-3 -8 14 0.01 0.04
2 8 -14 0.3 0.06
2 8 -14 0.29 0.06
-2 -8 14 0.34 0.07
-2 -8 14 0.31 0.05
1 8 -14 -0.05 0.05
1 8 -14 0.05 0.04
-1 -8 14 0.01 0.03
-1 -8 14 0.04 0.04
0 8 -14 -0.03 0.04
0 8 -14 0.07 0.04
0 -8 14 0.01 0.04
0 -8 14 0.04 0.04
-1 8 -14 0.33 0.06
-1 8 -14 0.33 0.07
1 -8 14 0.21 0.05
1 -8 14 0.31 0.06
2 -8 14 0.54 0.08
2 -8 14 0.42 0.07
3 -8 14 0.13 0.05
4 -8 14 0.04 0.04
5 7 -14 0.69 0.08
5 7 -14 0.85 0.1
-5 -7 14 0.95 0.11
-5 -7 14 0.87 0.06
4 7 -14 0.17 0.06
4 7 -14 0.23 0.05
-4 -7 14 0.18 0.06
-4 -7 14 0.22 0.04
3 7 -14 0.37 0.07
3 7 -14 0.5 0.07
-3 -7 14 0.4 0.05
-3 -7 14 0.42 0.07
2 7 -14 0.05 0.05
2 7 -14 0.11 0.04
-2 -7 14 0.06 0.05
-2 -7 14 0.13 0.04
1 7 -14 0.1 0.04
1 7 -14 0.06 0.04
-1 -7 14 0.06 0.04
-1 -7 14 0.06 0.05
0 7 -14 2.48 0.13
0 7 -14 2.52 0.13
0 -7 14 2.33 0.12
0 -7 14 2.38 0.13
-1 7 -14 1.52 0.1
-1 7 -14 1.34 0.1
1 -7 14 1.4 0.11
1 -7 14 1.26 0.1
-2 7 -14 0.31 0.06
2 -7 14 0.41 0.07
2 -7 14 0.41 0.07
3 -7 14 3.87 0.17
4 -7 14 2.56 0.14
5 -7 14 0.24 0.06
6 6 -14 1.25 0.12
6 6 -14 1.11 0.09
-6 -6 14 1.08 0.12
-6 -6 14 1.05 0.06
5 6 -14 0.06 0.05
5 6 -14 0.03 0.04
-5 -6 14 0.07 0.03
-5 -6 14 0.02 0.05
4 6 -14 1.66 0.1
4 6 -14 1.99 0.13
-4 -6 14 1.91 0.09
-4 -6 14 1.81 0.12
3 6 -14 0.16 0.05
3 6 -14 0.21 0.06
-3 -6 14 0.1 0.04
-3 -6 14 0.07 0.04
2 6 -14 1.47 0.1
2 6 -14 1.4 0.11
-2 -6 14 1.36 0.09
-2 -6 14 1.41 0.11
1 6 -14 1.4 0.1
1 6 -14 1.5 0.1
-1 -6 14 1.56 0.09
-1 -6 14 1.59 0.1
0 6 -14 0 0.03
0 6 -14 0.02 0.04
0 -6 14 0.03 0.04
0 -6 14 0.05 0.04
-1 6 -14 3.94 0.15
-1 6 -14 4.13 0.16
1 -6 14 3.84 0.15
1 -6 14 4.03 0.16
-2 6 -14 2.08 0.11
2 -6 14 2.03 0.12
2 -6 14 1.99 0.11
3 -6 14 0.57 0.07
4 -6 14 0.45 0.08
5 -6 14 0.59 0.08
6 -6 14 3.89 0.18
7 5 -14 0.9 0.1
7 5 -14 0.94 0.08
-7 -5 14 0.68 0.1
-7 -5 14 0.79 0.05
6 5 -14 4.1 0.16
6 5 -14 4.1 0.18
-6 -5 14 3.9 0.12
-6 -5 14 4.7 0.2
5 5 -14 2.8 0.13
5 5 -14 2.77 0.15
-5 -5 14 2.78 0.15
-5 -5 14 2.72 0.1
4 5 -14 0.08 0.04
4 5 -14 0.04 0.04
-4 -5 14 0.13 0.05
-4 -5 14 0.08 0.03
3 5 -14 0.07 0.04
3 5 -14 0.12 0.04
-3 -5 14 0.03 0.03
-3 -5 14 0.1 0.05
2 5 -14 0.78 0.08
2 5 -14 1.01 0.08
-2 -5 14 0.89 0.07
-2 -5 14 0.92 0.08
1 5 -14 0.53 0.06
1 5 -14 0.44 0.06
-1 -5 14 0.46 0.06
-1 -5 14 0.43 0.06
0 5 -14 0.21 0.05
0 5 -14 0.2 0.05
0 -5 14 0.23 0.05
0 -5 14 0.26 0.05
-1 5 -14 9.61 0.25
-1 5 -14 9.48 0.24
1 -5 14 9.26 0.24
1 -5 14 9.15 0.24
-2 5 -14 4.48 0.15
2 -5 14 4.41 0.16
2 -5 14 4.26 0.16
3 -5 14 1.64 0.1
4 -5 14 0.92 0.09
5 -5 14 0.03 0.04
-6 5 -14 0 0.04
6 -5 14 0.15 0.06
-7 5 -14 0 0.05
7 -5 14 0.01 0.05
8 4 -14 0.7 0.07
8 4 -14 0.67 0.1
-8 -4 14 0.62 0.1
-8 -4 14 0.65 0.05
7 4 -14 1.54 0.1
7 4 -14 1.63 0.12
-7 -4 14 1.5 0.08
-7 -4 14 1.68 0.14
6 4 -14 0.73 0.09
6 4 -14 0.69 0.07
-6 -4 14 0.72 0.06
-6 -4 14 0.87 0.1
5 4 -14 0.14 0.05
5 4 -14 0.2 0.05
-5 -4 14 0.1 0.03
-5 -4 14 0.16 0.06
4 4 -14 9.4 0.24
4 4 -14 8.87 0.25
-4 -4 14 8.95 0.26
-4 -4 14 8.7 0.22
3 4 -14 0.7 0.07
3 4 -14 0.78 0.08
-3 -4 14 0.75 0.08
-3 -4 14 0.66 0.06
2 4 -14 5.33 0.18
2 4 -14 5.67 0.17
-2 -4 14 5.3 0.18
-2 -4 14 5.26 0.16
1 4 -14 7.2 0.2
1 4 -14 7.15 0.2
-1 -4 14 6.8 0.2
-1 -4 14 6.96 0.19
0 4 -14 0.48 0.06
0 4 -14 0.46 0.06
0 -4 14 0.47 0.06
0 -4 14 0.46 0.06
-1 4 -14 1.11 0.08
-1 4 -14 1.19 0.08
1 -4 14 1.17 0.09
1 -4 14 1.14 0.08
-2 4 -14 0.55 0.06
2 -4 14 0.62 0.07
2 -4 14 0.52 0.07
3 -4 14 0 0.03
-4 4 -14 0.04 0.04
-4 4 -14 0.05 0.04
4 -4 14 0.13 0.05
-5 4 -14 0.12 0.04
-5 4 -14 0.16 0.05
5 -4 14 0.03 0.05
-6 4 -14 0.1 0.05
-6 4 -14 0.08 0.04
6 -4 14 0.19 0.06
-7 4 -14 0.14 0.06
-7 4 -14 0.06 0.05
7 -4 14 0.05 0.05
8 3 -14 0.21 0.07
8 3 -14 0.18 0.05
-8 -3 14 0.21 0.04
-8 -3 14 0.17 0.07
7 3 -14 0.66 0.07
7 3 -14 0.86 0.1
-7 -3 14 0.64 0.1
-7 -3 14 0.66 0.06
6 3 -14 0.58 0.07
6 3 -14 0.51 0.08
-6 -3 14 0.47 0.05
-6 -3 14 0.69 0.09
5 3 -14 0.17 0.06
5 3 -14 0.13 0.04
-5 -3 14 0.28 0.06
-5 -3 14 0.18 0.04
4 3 -14 3.29 0.14
4 3 -14 3.38 0.13
-4 -3 14 3.32 0.15
-4 -3 14 3.27 0.12
3 3 -14 13.07 0.31
3 3 -14 13.06 0.29
-3 -3 14 12.32 0.28
-3 -3 14 12.3 0.3
2 3 -14 33.95 0.61
2 3 -14 33.53 0.62
-2 -3 14 32.94 0.6
-2 -3 14 33.16 0.62
1 3 -14 1.72 0.1
1 3 -14 1.77 0.09
-1 -3 14 1.92 0.09
-1 -3 14 1.64 0.09
0 3 -14 26.31 0.5
0 3 -14 26.58 0.51
0 -3 14 26.21 0.5
0 -3 14 27.57 0.51
-1 3 -14 3.43 0.13
1 -3 14 3.43 0.13
1 -3 14 3.02 0.12
-2 3 -14 0.35 0.05
-2 3 -14 0.31 0.05
2 -3 14 0.36 0.05
-3 3 -14 0.35 0.05
-3 3 -14 0.23 0.04
3 -3 14 0.2 0.05
-4 3 -14 0.81 0.07
-4 3 -14 0.83 0.08
4 -3 14 0.84 0.08
-5 3 -14 0.3 0.06
-5 3 -14 0.31 0.05
5 -3 14 0.32 0.06
-6 3 -14 3.43 0.15
-6 3 -14 3.39 0.15
6 -3 14 3.1 0.15
-7 3 -14 0.08 0.05
-7 3 -14 0.09 0.05
7 -3 14 -0.06 0.04
8 2 -14 1.24 0.11
8 2 -14 1.45 0.1
-8 -2 14 1.61 0.13
-8 -2 14 1.35 0.08
7 2 -14 1.51 0.12
7 2 -14 1.8 0.11
-7 -2 14 1.48 0.09
-7 -2 14 1.47 0.12
6 2 -14 0.71 0.07
6 2 -14 0.84 0.09
-6 -2 14 0.86 0.07
-6 -2 14 0.97 0.1
5 2 -14 0.11 0.04
5 2 -14 0.09 0.05
-5 -2 14 0.06 0.04
-5 -2 14 0.08 0.03
4 2 -14 1.64 0.1
4 2 -14 1.55 0.09
-4 -2 14 1.59 0.09
-4 -2 14 1.59 0.1
3 2 -14 0.35 0.06
3 2 -14 0.45 0.06
-3 -2 14 0.56 0.07
-3 -2 14 0.36 0.05
2 2 -14 0.6 0.07
2 2 -14 0.52 0.06
-2 -2 14 0.57 0.06
-2 -2 14 0.48 0.05
1 2 -14 0.63 0.06
1 2 -14 0.75 0.08
-1 -2 14 0.54 0.06
-1 -2 14 0.68 0.06
0 2 -14 6.46 0.18
0 2 -14 6.57 0.18
0 -2 14 6.44 0.18
0 -2 14 6.49 0.18
-1 2 -14 1.11 0.07
-1 2 -14 0.97 0.07
1 -2 14 0.89 0.07
1 -2 14 1.14 0.07
-2 2 -14 0.2 0.04
-2 2 -14 0.23 0.04
-2 2 -14 0.26 0.04
2 -2 14 0.29 0.04
2 -2 14 0.27 0.05
-3 2 -14 1.54 0.09
-3 2 -14 1.49 0.08
-3 2 -14 1.42 0.07
3 -2 14 1.36 0.08
3 -2 14 1.6 0.09
-4 2 -14 8.01 0.21
-4 2 -14 7.86 0.21
4 -2 14 8.07 0.22
4 -2 14 8.26 0.22
-5 2 -14 0.69 0.07
-5 2 -14 0.64 0.07
5 -2 14 0.57 0.07
5 -2 14 0.59 0.07
-6 2 -14 1.09 0.1
-6 2 -14 1.08 0.09
6 -2 14 1.09 0.09
6 -2 14 1.17 0.09
-7 2 -14 -0.01 0.04
-7 2 -14 -0.03 0.04
7 -2 14 0 0.05
7 -2 14 0.04 0.04
8 1 -14 0.36 0.07
8 1 -14 0.3 0.06
-8 -1 14 0.23 0.07
-8 -1 14 0.31 0.05
7 1 -14 1.38 0.1
7 1 -14 1.38 0.11
-7 -1 14 1.34 0.11
-7 -1 14 1.3 0.09
6 1 -14 0.7 0.08
6 1 -14 0.65 0.08
-6 -1 14 0.72 0.08
-6 -1 14 0.54 0.06
5 1 -14 0.75 0.07
5 1 -14 0.7 0.08
-5 -1 14 0.64 0.08
-5 -1 14 0.71 0.07
4 1 -14 7 0.2
4 1 -14 7.19 0.21
-4 -1 14 6.8 0.2
-4 -1 14 6.59 0.18
3 1 -14 3.42 0.13
3 1 -14 3.37 0.14
-3 -1 14 3.32 0.13
-3 -1 14 3.09 0.12
2 1 -14 0 0.04
2 1 -14 0.02 0.03
-2 -1 14 0.02 0.03
-2 -1 14 0.03 0.03
1 1 -14 7.97 0.2
1 1 -14 7.85 0.21
-1 -1 14 7.59 0.2
-1 -1 14 7.72 0.2
0 1 -14 20.23 0.4
0 1 -14 20.42 0.41
0 -1 14 20.06 0.39
0 -1 14 20.43 0.4
-1 1 -14 0.17 0.03
-1 1 -14 0.3 0.04
-1 1 -14 0.15 0.04
1 -1 14 0.2 0.04
1 -1 14 0.21 0.04
-2 1 -14 4.49 0.14
-2 1 -14 4.27 0.13
-2 1 -14 4.41 0.14
2 -1 14 4.4 0.14
2 -1 14 4.3 0.14
-3 1 -14 0.58 0.06
-3 1 -14 0.45 0.05
-3 1 -14 0.51 0.06
3 -1 14 0.49 0.05
3 -1 14 0.49 0.06
-4 1 -14 1.05 0.08
-4 1 -14 1.23 0.08
4 -1 14 1.14 0.08
4 -1 14 1.25 0.09
-5 1 -14 0.1 0.04
-5 1 -14 0.08 0.04
5 -1 14 0.17 0.04
5 -1 14 0.13 0.05
-6 1 -14 0.42 0.07
-6 1 -14 0.37 0.06
6 -1 14 0.34 0.06
6 -1 14 0.37 0.06
-7 1 -14 -0.01 0.03
-7 1 -14 0.03 0.05
7 -1 14 0 0.04
7 -1 14 0 0.03
-8 1 -14 0.45 0.06
8 -1 14 0.53 0.07
8 -1 14 0.46 0.08
8 0 -14 5.1 0.19
-8 0 14 4.94 0.2
-8 0 14 5.07 0.17
7 0 -14 1.58 0.11
7 0 -14 1.77 0.11
-7 0 14 1.44 0.1
-7 0 14 1.53 0.11
6 0 -14 0.06 0.05
6 0 -14 0.07 0.04
-6 0 14 0.05 0.03
-6 0 14 0.07 0.04
5 0 -14 3.2 0.13
5 0 -14 3.11 0.14
-5 0 14 3 0.13
-5 0 14 3.09 0.13
4 0 -14 -0.01 0.04
4 0 -14 -0.04 0.03
-4 0 14 0 0.03
-4 0 14 -0.01 0.03
3 0 -14 1.57 0.1
3 0 -14 1.82 0.1
-3 0 14 1.71 0.09
-3 0 14 1.7 0.09
2 0 -14 0.39 0.05
2 0 -14 0.46 0.06
-2 0 14 0.35 0.05
-2 0 14 0.32 0.05
1 0 -14 0.7 0.07
1 0 -14 0.53 0.06
-1 0 14 0.57 0.04
-1 0 14 0.63 0.05
-1 0 14 0.59 0.06
0 0 -14 3.28 0.12
0 0 -14 3.11 0.12
0 0 14 3.37 0.11
0 0 14 3.09 0.11
0 0 14 3.22 0.1
-1 0 -14 3.5 0.12
-1 0 -14 3.35 0.12
1 0 14 3.36 0.12
1 0 14 3.48 0.12
1 0 14 3.5 0.11
-2 0 -14 3.91 0.12
-2 0 -14 4 0.13
-2 0 -14 3.86 0.13
2 0 14 3.88 0.13
2 0 14 3.76 0.12
-3 0 -14 3.84 0.13
-3 0 -14 3.94 0.13
-3 0 -14 4 0.13
3 0 14 3.9 0.13
3 0 14 4.2 0.14
-4 0 -14 -0.02 0.03
-4 0 -14 0 0.03
4 0 14 -0.02 0.03
4 0 14 -0.01 0.03
-5 0 -14 3.79 0.14
-5 0 -14 3.44 0.15
5 0 14 3.73 0.14
5 0 14 3.72 0.14
-6 0 -14 0.17 0.05
-6 0 -14 0.2 0.04
6 0 14 0.18 0.05
6 0 14 0.1 0.04
-7 0 -14 0.84 0.1
-7 0 -14 0.65 0.07
7 0 14 0.76 0.08
7 0 14 0.86 0.09
8 -1 -14 2.39 0.13
-8 1 14 2.35 0.12
-8 1 14 2.09 0.13
7 -1 -14 0.2 0.06
7 -1 -14 0.15 0.05
-7 1 14 0.08 0.05
-7 1 14 0.14 0.05
6 -1 -14 1.75 0.11
6 -1 -14 1.72 0.11
-6 1 14 1.49 0.1
-6 1 14 1.6 0.1
5 -1 -14 3.31 0.14
5 -1 -14 3.23 0.14
-5 1 14 3.27 0.13
-5 1 14 3.26 0.13
4 -1 -14 6.48 0.19
4 -1 -14 6.35 0.2
-4 1 14 6.55 0.19
-4 1 14 6.18 0.18
3 -1 -14 0.04 0.04
-3 1 14 0.05 0.03
-3 1 14 0.08 0.03
2 -1 -14 0.74 0.07
2 -1 -14 0.66 0.07
-2 1 14 0.62 0.05
-2 1 14 0.69 0.05
-2 1 14 0.78 0.07
1 -1 -14 0.31 0.05
1 -1 -14 0.47 0.06
-1 1 14 0.26 0.04
-1 1 14 0.31 0.04
-1 1 14 0.41 0.04
0 -1 -14 14.92 0.33
0 -1 -14 14.67 0.31
0 1 14 15 0.31
0 1 14 14.6 0.29
0 1 14 14.17 0.29
-1 -1 -14 2.47 0.1
-1 -1 -14 2.65 0.11
1 1 14 2.6 0.09
1 1 14 2.55 0.1
1 1 14 2.62 0.1
-2 -1 -14 0 0.03
-2 -1 -14 0.06 0.03
-2 -1 -14 0.1 0.04
2 1 14 0.04 0.03
2 1 14 0.05 0.03
-3 -1 -14 1.63 0.09
-3 -1 -14 1.62 0.09
-3 -1 -14 1.52 0.09
3 1 14 1.57 0.09
3 1 14 1.6 0.08
-4 -1 -14 0.26 0.05
-4 -1 -14 0.51 0.06
4 1 14 0.29 0.05
4 1 14 0.3 0.05
-5 -1 -14 1.06 0.09
-5 -1 -14 0.91 0.07
5 1 14 0.78 0.07
5 1 14 0.82 0.07
-6 -1 -14 0.1 0.04
-6 -1 -14 0.23 0.05
6 1 14 0.18 0.04
6 1 14 0.11 0.05
-7 -1 -14 0.7 0.07
-7 -1 -14 0.51 0.08
7 1 14 0.67 0.09
7 1 14 0.7 0.07
-8 2 14 0.06 0.04
7 -2 -14 0.44 0.07
-7 2 14 0.54 0.07
6 -2 -14 0.18 0.05
-6 2 14 0.1 0.04
5 -2 -14 0.27 0.06
-5 2 14 0.27 0.05
4 -2 -14 0.81 0.08
-4 2 14 0.91 0.08
3 -2 -14 3.76 0.15
-3 2 14 3.92 0.12
2 -2 -14 8.74 0.24
2 -2 -14 9.38 0.23
-2 2 14 9.39 0.21
1 -2 -14 2.7 0.11
1 -2 -14 2.95 0.13
-1 2 14 2.97 0.1
-1 2 14 2.79 0.11
0 -2 -14 0.04 0.04
0 -2 -14 0.06 0.03
0 2 14 0.1 0.03
0 2 14 0.07 0.03
-1 -2 -14 0.05 0.03
-1 -2 -14 0.04 0.03
1 2 14 0.09 0.03
1 2 14 0.11 0.03
-2 -2 -14 0.22 0.05
-2 -2 -14 0.26 0.04
2 2 14 0.21 0.04
2 2 14 0.15 0.04
-3 -2 -14 1.63 0.09
-3 -2 -14 1.64 0.09
-3 -2 -14 1.65 0.09
3 2 14 1.57 0.09
-4 -2 -14 0.01 0.03
-4 -2 -14 0.03 0.04
4 2 14 0.01 0.03
-5 -2 -14 1.54 0.09
-5 -2 -14 1.45 0.1
5 2 14 1.58 0.09
5 2 14 1.63 0.09
-6 -2 -14 2.18 0.1
-6 -2 -14 1.88 0.12
6 2 14 2.36 0.11
-7 -2 -14 0.11 0.06
-7 -2 -14 0.16 0.04
7 2 14 0.17 0.04
7 -3 -14 0.5 0.07
-7 3 14 0.42 0.06
6 -3 -14 0.4 0.07
5 -3 -14 0.5 0.08
4 -3 -14 3.77 0.16
-4 3 14 4.01 0.13
3 -3 -14 2.7 0.13
-3 3 14 2.85 0.11
2 -3 -14 0.1 0.04
2 -3 -14 0.19 0.05
-2 3 14 0.14 0.03
1 -3 -14 0 0.03
1 -3 -14 -0.01 0.03
-1 3 14 0.02 0.03
-1 3 14 -0.01 0.02
0 -3 -14 -0.02 0.03
0 -3 -14 0.02 0.03
0 3 14 -0.01 0.03
0 3 14 0.01 0.03
-1 -3 -14 0.97 0.07
-1 -3 -14 0.78 0.08
1 3 14 0.93 0.07
1 3 14 1.15 0.08
-2 -3 -14 0.05 0.04
-2 -3 -14 -0.02 0.03
2 3 14 -0.01 0.03
2 3 14 0.03 0.03
-3 -3 -14 3.73 0.13
-3 -3 -14 3.65 0.14
3 3 14 3.72 0.13
3 3 14 3.44 0.14
-4 -3 -14 0.75 0.07
4 3 14 0.69 0.08
4 3 14 0.62 0.06
-5 -3 -14 -0.02 0.04
-5 -3 -14 0.01 0.03
5 3 14 0.01 0.03
-6 -3 -14 0.01 0.03
-6 -3 -14 -0.01 0.04
6 3 14 -0.01 0.03
7 -4 -14 0.12 0.05
6 -4 -14 0.3 0.07
5 -4 -14 0.08 0.05
-5 4 14 0.08 0.04
4 -4 -14 3.41 0.15
-4 4 14 3.26 0.13
3 -4 -14 1.12 0.09
-3 4 14 1.43 0.09
2 -4 -14 0 0.03
2 -4 -14 0.14 0.05
-2 4 14 0.03 0.03
1 -4 -14 0.01 0.03
1 -4 -14 0.07 0.05
-1 4 14 0.04 0.03
-1 4 14 0.01 0.03
0 -4 -14 1.05 0.09
0 -4 -14 0.98 0.08
0 4 14 0.89 0.07
0 4 14 1.11 0.08
-1 -4 -14 3.23 0.13
-1 -4 -14 3.25 0.14
1 4 14 3.29 0.13
1 4 14 3.56 0.13
-2 -4 -14 3.23 0.14
-2 -4 -14 3.35 0.13
2 4 14 3.1 0.13
2 4 14 3.22 0.13
-3 -4 -14 0.27 0.05
-3 -4 -14 0.29 0.05
3 4 14 0.23 0.05
3 4 14 0.31 0.06
-4 -4 -14 0.99 0.07
4 4 14 1.01 0.08
4 4 14 0.99 0.08
-5 -4 -14 1.25 0.08
5 4 14 1.28 0.09
5 4 14 1.28 0.1
-6 -4 -14 0.03 0.03
6 4 14 0.04 0.03
6 4 14 0 0.04
6 -5 -14 2.15 0.13
-6 5 14 1.99 0.12
5 -5 -14 0.28 0.07
-5 5 14 0.32 0.06
4 -5 -14 0.97 0.11
-4 5 14 1.04 0.09
3 -5 -14 0.22 0.06
3 -5 -14 0.23 0.05
-3 5 14 0.4 0.06
2 -5 -14 0.56 0.08
2 -5 -14 0.62 0.08
-2 5 14 0.45 0.06
1 -5 -14 0.04 0.04
1 -5 -14 -0.03 0.03
-1 5 14 -0.02 0.03
-1 5 14 0.05 0.03
0 -5 -14 -0.02 0.03
0 -5 -14 -0.03 0.04
0 5 14 0.03 0.03
0 5 14 0.02 0.03
-1 -5 -14 1.81 0.12
-1 -5 -14 1.69 0.1
1 5 14 1.8 0.1
1 5 14 1.95 0.11
-2 -5 -14 1.16 0.08
-2 -5 -14 1.19 0.1
2 5 14 1.32 0.09
2 5 14 1.28 0.09
-3 -5 -14 -0.03 0.04
-3 -5 -14 0 0.03
3 5 14 -0.03 0.03
3 5 14 0.02 0.03
-4 -5 -14 0.04 0.03
4 5 14 0.09 0.04
4 5 14 0.04 0.04
-5 -5 -14 0.01 0.02
5 5 14 0.13 0.05
5 5 14 0.05 0.04
5 -6 -14 0.25 0.07
-5 6 14 0.24 0.06
4 -6 -14 0.17 0.06
-4 6 14 0.19 0.05
3 -6 -14 0.09 0.05
3 -6 -14 0.13 0.05
-3 6 14 0.04 0.04
2 -6 -14 -0.01 0.04
2 -6 -14 -0.02 0.04
-2 6 14 0.03 0.04
1 -6 -14 0.41 0.06
1 -6 -14 0.43 0.08
-1 6 14 0.39 0.06
-1 6 14 0.41 0.06
0 -6 -14 0.29 0.05
0 -6 -14 0.29 0.07
0 6 14 0.28 0.06
0 6 14 0.33 0.06
-1 -6 -14 2.14 0.14
-1 -6 -14 2.09 0.11
1 6 14 2.15 0.12
1 6 14 2.11 0.11
-2 -6 -14 0.02 0.04
-2 -6 -14 0.02 0.03
2 6 14 -0.03 0.03
2 6 14 0.04 0.04
-3 -6 -14 2.64 0.15
-3 -6 -14 2.9 0.12
3 6 14 2.58 0.12
3 6 14 2.73 0.14
3 -7 -14 0.18 0.06
3 -7 -14 0.19 0.06
-3 7 14 0.16 0.06
2 -7 -14 0.26 0.07
2 -7 -14 0.23 0.06
-2 7 14 0.24 0.06
1 -7 -14 0.05 0.04
1 -7 -14 0.03 0.05
-1 7 14 0.02 0.04
-1 7 14 -0.02 0.03
0 -7 -14 0.32 0.07
0 -7 -14 0.34 0.06
0 7 14 0.31 0.06
0 7 14 0.41 0.07
-1 -7 -14 0.38 0.06
-1 -7 -14 0.31 0.07
1 7 14 0.44 0.07
1 7 14 0.42 0.07
0 -9 15 0.09 0.05
3 8 -15 0.03 0.04
3 8 -15 0.08 0.06
-3 -8 15 0.01 0.03
-3 -8 15 -0.01 0.05
2 8 -15 1.11 0.1
2 8 -15 0.86 0.1
-2 -8 15 0.9 0.08
-2 -8 15 1.02 0.11
1 8 -15 0.4 0.07
1 8 -15 0.52 0.08
-1 -8 15 0.38 0.06
-1 -8 15 0.48 0.08
0 8 -15 0.01 0.04
0 8 -15 0.1 0.05
0 -8 15 0.11 0.05
0 -8 15 0 0.04
-1 8 -15 1.43 0.11
1 -8 15 1.27 0.11
1 -8 15 1.41 0.11
2 -8 15 2.31 0.14
2 -8 15 2.14 0.14
3 -8 15 0.59 0.08
5 7 -15 0.21 0.05
5 7 -15 0.25 0.07
-5 -7 15 0.27 0.07
-5 -7 15 0.2 0.04
4 7 -15 0.18 0.07
4 7 -15 0.11 0.05
-4 -7 15 0.09 0.04
-4 -7 15 0.11 0.06
3 7 -15 0.03 0.04
3 7 -15 0.06 0.05
-3 -7 15 0.04 0.03
-3 -7 15 0.08 0.05
2 7 -15 0.4 0.06
2 7 -15 0.35 0.07
-2 -7 15 0.38 0.06
-2 -7 15 0.54 0.08
1 7 -15 4 0.17
1 7 -15 4.22 0.17
-1 -7 15 4.44 0.18
-1 -7 15 4.34 0.16
0 7 -15 1.52 0.11
0 7 -15 1.43 0.11
0 -7 15 1.5 0.1
0 -7 15 1.68 0.12
-1 7 -15 0.02 0.04
1 -7 15 0 0.04
1 -7 15 -0.02 0.04
2 -7 15 0.03 0.04
2 -7 15 0.04 0.04
3 -7 15 0.39 0.07
4 -7 15 3.59 0.17
5 -7 15 0.59 0.09
6 6 -15 0.73 0.08
6 6 -15 0.83 0.11
-6 -6 15 0.83 0.11
-6 -6 15 0.76 0.06
5 6 -15 0.88 0.08
5 6 -15 0.9 0.1
-5 -6 15 1 0.11
-5 -6 15 0.9 0.07
4 6 -15 0.26 0.06
4 6 -15 0.25 0.05
-4 -6 15 0.26 0.05
-4 -6 15 0.33 0.07
3 6 -15 0.02 0.04
3 6 -15 0.03 0.04
-3 -6 15 0.12 0.05
-3 -6 15 0.1 0.04
2 6 -15 0.08 0.05
2 6 -15 0.1 0.04
-2 -6 15 -0.02 0.03
-2 -6 15 0.07 0.04
1 6 -15 0.33 0.06
1 6 -15 0.42 0.07
-1 -6 15 0.46 0.07
-1 -6 15 0.48 0.06
0 6 -15 0.1 0.05
0 6 -15 -0.02 0.04
0 -6 15 0.04 0.04
0 -6 15 0.01 0.04
-1 6 -15 2.44 0.12
1 -6 15 2.63 0.13
1 -6 15 2.48 0.13
-2 6 -15 1.41 0.09
2 -6 15 1.2 0.1
2 -6 15 1.24 0.1
3 -6 15 0.06 0.04
4 -6 15 0.35 0.07
5 -6 15 0.07 0.05
6 -6 15 0.04 0.05
7 5 -15 0.11 0.04
7 5 -15 0.17 0.06
-7 -5 15 0.06 0.03
-7 -5 15 0.09 0.06
6 5 -15 0.26 0.07
6 5 -15 0.3 0.06
-6 -5 15 0.35 0.08
-6 -5 15 0.31 0.04
5 5 -15 1.42 0.12
5 5 -15 1.23 0.1
-5 -5 15 1.28 0.08
-5 -5 15 1.33 0.11
4 5 -15 0.44 0.07
4 5 -15 0.5 0.08
-4 -5 15 0.34 0.07
-4 -5 15 0.32 0.05
3 5 -15 4.22 0.16
3 5 -15 3.86 0.16
-3 -5 15 3.88 0.17
-3 -5 15 4.19 0.14
2 5 -15 2.4 0.12
2 5 -15 2.21 0.12
-2 -5 15 2.48 0.13
-2 -5 15 2.22 0.11
1 5 -15 0.24 0.06
1 5 -15 0.17 0.05
-1 -5 15 0.3 0.06
-1 -5 15 0.3 0.05
0 5 -15 0.49 0.07
0 5 -15 0.52 0.07
0 -5 15 0.55 0.07
0 -5 15 0.51 0.06
-1 5 -15 0.05 0.04
1 -5 15 0.08 0.04
1 -5 15 0 0.03
-2 5 -15 0.97 0.08
2 -5 15 0.95 0.09
2 -5 15 1.05 0.09
3 -5 15 0.29 0.06
4 -5 15 0.04 0.05
5 -5 15 0.02 0.04
6 -5 15 0.3 0.07
7 4 -15 0.43 0.09
7 4 -15 0.43 0.06
-7 -4 15 0.57 0.06
-7 -4 15 0.42 0.08
6 4 -15 0.11 0.06
6 4 -15 -0.04 0.03
-6 -4 15 0.03 0.03
-6 -4 15 -0.05 0.04
5 4 -15 3.24 0.16
5 4 -15 3.41 0.14
-5 -4 15 3.27 0.12
-5 -4 15 3.09 0.16
4 4 -15 9.69 0.27
4 4 -15 10.05 0.26
-4 -4 15 10.08 0.24
-4 -4 15 10.32 0.29
3 4 -15 7.75 0.22
3 4 -15 7.84 0.23
-3 -4 15 7.4 0.23
-3 -4 15 7.38 0.2
2 4 -15 3.55 0.14
2 4 -15 3.74 0.15
-2 -4 15 3.72 0.15
-2 -4 15 3.41 0.13
1 4 -15 1.06 0.09
1 4 -15 0.93 0.08
-1 -4 15 1.04 0.09
-1 -4 15 0.98 0.08
0 4 -15 0.27 0.05
0 4 -15 0.28 0.05
0 -4 15 0.3 0.05
0 -4 15 0.34 0.06
-1 4 -15 0.05 0.04
1 -4 15 0.06 0.04
1 -4 15 0.1 0.04
-2 4 -15 0.68 0.07
2 -4 15 0.74 0.08
3 -4 15 1.71 0.11
4 -4 15 3.6 0.15
-5 4 -15 1.26 0.1
-5 4 -15 1.15 0.09
5 -4 15 1.12 0.1
-6 4 -15 0.33 0.06
-6 4 -15 0.39 0.07
6 -4 15 0.43 0.08
-7 4 -15 0.35 0.06
-7 4 -15 0.41 0.07
7 -4 15 0.4 0.08
8 3 -15 -0.05 0.03
8 3 -15 -0.05 0.06
-8 -3 15 -0.03 0.05
-8 -3 15 -0.02 0.02
7 3 -15 0.13 0.07
7 3 -15 0.16 0.05
-7 -3 15 0.29 0.08
-7 -3 15 0.28 0.05
6 3 -15 0.97 0.1
6 3 -15 0.84 0.08
-6 -3 15 0.98 0.11
-6 -3 15 0.86 0.07
5 3 -15 0.03 0.05
5 3 -15 0.01 0.03
-5 -3 15 0.03 0.04
-5 -3 15 -0.03 0.03
4 3 -15 0.48 0.06
4 3 -15 0.4 0.07
-4 -3 15 0.46 0.06
-4 -3 15 0.46 0.07
3 3 -15 0.9 0.09
3 3 -15 1.04 0.09
-3 -3 15 0.97 0.08
-3 -3 15 0.97 0.08
2 3 -15 2.72 0.13
2 3 -15 2.69 0.12
-2 -3 15 2.74 0.11
-2 -3 15 2.82 0.13
1 3 -15 0.16 0.05
1 3 -15 0.22 0.05
-1 -3 15 0.2 0.04
-1 -3 15 0.18 0.04
0 3 -15 0.02 0.04
0 3 -15 -0.02 0.03
0 -3 15 0.02 0.03
0 -3 15 0.05 0.03
-1 3 -15 0.02 0.04
1 -3 15 0 0.03
1 -3 15 0.05 0.03
-2 3 -15 1.51 0.09
2 -3 15 1.65 0.1
-3 3 -15 0.27 0.05
3 -3 15 0.18 0.05
-4 3 -15 1.66 0.1
-4 3 -15 1.75 0.1
4 -3 15 1.81 0.11
-5 3 -15 1.2 0.09
-5 3 -15 1.35 0.1
5 -3 15 1.15 0.1
-6 3 -15 1.84 0.12
-6 3 -15 2.15 0.12
6 -3 15 1.98 0.12
-7 3 -15 0.02 0.04
-7 3 -15 0.06 0.05
7 -3 15 0.06 0.05
8 2 -15 0 0.05
8 2 -15 0.2 0.05
-8 -2 15 0.12 0.04
-8 -2 15 0.07 0.06
7 2 -15 0.74 0.09
7 2 -15 0.65 0.08
-7 -2 15 0.73 0.09
-7 -2 15 0.95 0.08
6 2 -15 2.19 0.12
6 2 -15 2.05 0.14
-6 -2 15 2.17 0.11
-6 -2 15 2.4 0.14
5 2 -15 0.47 0.06
5 2 -15 0.41 0.08
-5 -2 15 0.39 0.05
-5 -2 15 0.35 0.07
4 2 -15 2.85 0.13
4 2 -15 3.25 0.15
-4 -2 15 2.83 0.12
-4 -2 15 3.04 0.14
3 2 -15 0 0.04
3 2 -15 -0.01 0.03
-3 -2 15 -0.01 0.03
-3 -2 15 0.04 0.03
2 2 -15 0.47 0.06
2 2 -15 0.46 0.07
-2 -2 15 0.44 0.06
-2 -2 15 0.54 0.06
1 2 -15 4.54 0.16
1 2 -15 4.17 0.15
-1 -2 15 4.42 0.15
-1 -2 15 4.42 0.15
0 2 -15 11.09 0.27
0 -2 15 10.94 0.26
0 -2 15 10.9 0.26
-1 2 -15 1.4 0.09
1 -2 15 1.42 0.09
-2 2 -15 5.49 0.16
-2 2 -15 5.08 0.16
-2 2 -15 5.11 0.15
2 -2 15 5.52 0.17
-3 2 -15 0.12 0.04
-3 2 -15 0.09 0.04
3 -2 15 0.06 0.03
3 -2 15 0.1 0.05
-4 2 -15 0.56 0.07
-4 2 -15 0.61 0.07
4 -2 15 0.59 0.07
4 -2 15 0.68 0.07
-5 2 -15 1.12 0.09
-5 2 -15 0.93 0.09
5 -2 15 0.93 0.09
5 -2 15 0.99 0.09
-6 2 -15 1.11 0.09
-6 2 -15 1.11 0.1
6 -2 15 0.97 0.1
6 -2 15 1.07 0.09
-7 2 -15 1.66 0.11
-7 2 -15 1.63 0.12
7 -2 15 1.72 0.11
7 -2 15 1.43 0.12
8 1 -15 -0.06 0.04
8 1 -15 0.06 0.05
-8 -1 15 -0.02 0.04
-8 -1 15 -0.03 0.03
7 1 -15 0.12 0.06
7 1 -15 0.07 0.04
-7 -1 15 0.12 0.04
-7 -1 15 0.04 0.05
6 1 -15 0.47 0.08
6 1 -15 0.5 0.07
-6 -1 15 0.59 0.07
-6 -1 15 0.6 0.08
5 1 -15 0.32 0.06
5 1 -15 0.29 0.06
-5 -1 15 0.18 0.04
-5 -1 15 0.25 0.06
4 1 -15 1.49 0.11
4 1 -15 1.33 0.09
-4 -1 15 1.33 0.1
-4 -1 15 1.51 0.09
3 1 -15 0.05 0.03
3 1 -15 0.08 0.05
-3 -1 15 0.1 0.04
-3 -1 15 0.1 0.04
2 1 -15 3.7 0.14
2 1 -15 3.81 0.14
-2 -1 15 3.8 0.13
-2 -1 15 3.8 0.14
1 1 -15 1.4 0.09
-1 -1 15 1.36 0.08
-1 -1 15 1.39 0.08
0 1 -15 0.3 0.05
0 1 -15 0.34 0.05
0 -1 15 0.29 0.05
0 -1 15 0.28 0.05
-1 1 -15 0.51 0.05
-1 1 -15 0.43 0.06
-1 1 -15 0.49 0.06
1 -1 15 0.53 0.06
-2 1 -15 1.48 0.08
-2 1 -15 1.52 0.09
-2 1 -15 1.6 0.09
2 -1 15 1.57 0.09
2 -1 15 1.73 0.09
2 -1 15 1.57 0.09
-3 1 -15 5.42 0.17
-3 1 -15 5.42 0.16
-3 1 -15 5.24 0.16
3 -1 15 5.43 0.17
3 -1 15 5.61 0.17
-4 1 -15 0.4 0.06
-4 1 -15 0.54 0.06
4 -1 15 0.53 0.07
4 -1 15 0.6 0.07
-5 1 -15 0.57 0.07
-5 1 -15 0.78 0.08
5 -1 15 0.92 0.09
5 -1 15 0.87 0.08
-6 1 -15 0.29 0.05
-6 1 -15 0.27 0.06
6 -1 15 0.28 0.06
6 -1 15 0.2 0.05
-7 1 -15 0.41 0.06
-7 1 -15 0.37 0.07
7 -1 15 0.48 0.07
7 -1 15 0.35 0.07
8 0 -15 0.05 0.05
8 0 -15 -0.01 0.04
-8 0 15 0.03 0.05
-8 0 15 -0.03 0.03
7 0 -15 1.06 0.1
7 0 -15 1.16 0.1
-7 0 15 1.17 0.09
-7 0 15 1.23 0.11
6 0 -15 1.59 0.11
6 0 -15 1.7 0.11
-6 0 15 1.56 0.1
-6 0 15 1.57 0.11
5 0 -15 4.32 0.17
5 0 -15 4.46 0.16
-5 0 15 4.42 0.17
-5 0 15 4.43 0.16
4 0 -15 5.35 0.17
4 0 -15 5.08 0.18
-4 0 15 5.05 0.16
-4 0 15 4.94 0.17
3 0 -15 1.9 0.11
3 0 -15 2.13 0.11
-3 0 15 2.04 0.1
-3 0 15 2.1 0.1
2 0 -15 29.97 0.57
-2 0 15 28.55 0.54
-2 0 15 29.59 0.55
1 0 -15 5.87 0.18
1 0 -15 5.98 0.17
-1 0 15 6.19 0.18
-1 0 15 5.83 0.17
0 0 -15 1.47 0.09
0 0 -15 1.33 0.08
0 0 15 1.32 0.06
0 0 15 1.54 0.08
-1 0 -15 0.43 0.05
-1 0 -15 0.64 0.07
1 0 15 0.56 0.05
1 0 15 0.7 0.06
1 0 15 0.51 0.05
-2 0 -15 3.25 0.12
-2 0 -15 3.33 0.13
-2 0 -15 3.01 0.11
2 0 15 3.15 0.12
2 0 15 3.13 0.12
-3 0 -15 13.46 0.3
-3 0 -15 14.25 0.31
-3 0 -15 13.96 0.31
3 0 15 13.83 0.3
3 0 15 14.07 0.31
-4 0 -15 6.3 0.18
-4 0 -15 6.02 0.19
4 0 15 5.73 0.18
4 0 15 5.92 0.18
-5 0 -15 1.54 0.1
-5 0 -15 1.68 0.11
5 0 15 1.68 0.1
5 0 15 1.73 0.1
-6 0 -15 1.16 0.09
-6 0 -15 1.55 0.11
6 0 15 1.39 0.09
6 0 15 1.57 0.1
-7 0 -15 0.39 0.08
-7 0 -15 0.39 0.06
7 0 15 0.38 0.06
7 0 15 0.48 0.08
8 -1 -15 -0.03 0.04
-8 1 15 0.02 0.04
-8 1 15 0 0.03
7 -1 -15 0.04 0.04
7 -1 -15 -0.04 0.04
-7 1 15 -0.02 0.04
-7 1 15 -0.04 0.03
6 -1 -15 0.02 0.04
6 -1 -15 0.1 0.05
-6 1 15 -0.01 0.03
-6 1 15 0.07 0.04
5 -1 -15 1 0.09
-5 1 15 1.06 0.09
-5 1 15 1 0.08
4 -1 -15 0.97 0.09
-4 1 15 1.18 0.08
-4 1 15 1.04 0.08
3 -1 -15 0.91 0.08
-3 1 15 0.8 0.07
-3 1 15 0.94 0.07
2 -1 -15 1.57 0.11
-2 1 15 1.84 0.09
1 -1 -15 5.49 0.18
1 -1 -15 5.19 0.16
-1 1 15 5.28 0.14
-1 1 15 5.37 0.15
0 -1 -15 11.76 0.27
0 -1 -15 11.61 0.28
0 1 15 11.32 0.24
0 1 15 11.18 0.26
0 1 15 11.24 0.25
-1 -1 -15 0.71 0.07
-1 -1 -15 0.82 0.07
1 1 15 0.72 0.06
1 1 15 0.85 0.06
1 1 15 0.72 0.06
-2 -1 -15 1.27 0.08
-2 -1 -15 0.96 0.08
2 1 15 1.02 0.07
2 1 15 1.16 0.07
2 1 15 1.2 0.08
-3 -1 -15 0.35 0.05
-3 -1 -15 0.34 0.05
-3 -1 -15 0.35 0.05
3 1 15 0.31 0.05
3 1 15 0.3 0.05
-4 -1 -15 0.38 0.06
-4 -1 -15 0.4 0.06
4 1 15 0.37 0.05
4 1 15 0.46 0.06
4 1 15 0.46 0.06
-5 -1 -15 0.21 0.05
-5 -1 -15 0.15 0.05
5 1 15 0.17 0.04
5 1 15 0.11 0.05
-6 -1 -15 3.68 0.17
-6 -1 -15 3.51 0.14
6 1 15 4.02 0.15
-7 -1 -15 0.02 0.05
-7 -1 -15 -0.04 0.03
7 1 15 -0.02 0.03
7 -2 -15 0.52 0.08
-7 2 15 0.48 0.07
6 -2 -15 5.88 0.21
-6 2 15 5.73 0.19
5 -2 -15 1.94 0.12
4 -2 -15 0.05 0.04
3 -2 -15 1.94 0.12
2 -2 -15 1.53 0.09
2 -2 -15 1.36 0.1
-2 2 15 1.53 0.07
1 -2 -15 0.09 0.04
1 -2 -15 0.04 0.04
-1 2 15 0.07 0.03
0 -2 -15 6.06 0.18
0 -2 -15 5.97 0.19
0 2 15 5.96 0.18
0 2 15 5.91 0.16
-1 -2 -15 11.55 0.27
-1 -2 -15 11.96 0.29
1 2 15 11.56 0.26
1 2 15 11.65 0.27
-2 -2 -15 8.93 0.23
-2 -2 -15 9.19 0.24
2 2 15 9.26 0.23
2 2 15 8.64 0.22
-3 -2 -15 3.52 0.13
-3 -2 -15 3.63 0.14
3 2 15 3.58 0.14
3 2 15 3.63 0.13
-4 -2 -15 0.03 0.03
-4 -2 -15 0.06 0.04
4 2 15 0.05 0.03
-5 -2 -15 1.42 0.09
-5 -2 -15 1.63 0.11
5 2 15 1.43 0.09
-6 -2 -15 2.05 0.1
-6 -2 -15 1.82 0.12
6 2 15 2 0.11
6 2 15 1.78 0.11
7 -3 -15 0.27 0.06
6 -3 -15 0.85 0.1
5 -3 -15 0 0.04
4 -3 -15 0.06 0.05
3 -3 -15 0.24 0.06
-3 3 15 0.34 0.05
2 -3 -15 0.54 0.07
2 -3 -15 0.61 0.07
-2 3 15 0.48 0.05
1 -3 -15 0.06 0.04
1 -3 -15 0.04 0.03
-1 3 15 0.01 0.03
-1 3 15 0.03 0.03
0 -3 -15 1.45 0.1
0 -3 -15 1.29 0.09
0 3 15 1.25 0.08
0 3 15 1.39 0.09
-1 -3 -15 0.47 0.07
-1 -3 -15 0.56 0.06
1 3 15 0.61 0.06
1 3 15 0.56 0.06
-2 -3 -15 1.46 0.1
-2 -3 -15 1.62 0.09
2 3 15 1.59 0.09
2 3 15 1.45 0.09
-3 -3 -15 -0.01 0.03
-3 -3 -15 0.01 0.03
3 3 15 0 0.03
3 3 15 0 0.03
-4 -3 -15 0 0.03
4 3 15 -0.01 0.03
4 3 15 0 0.03
-5 -3 -15 1.99 0.1
-5 -3 -15 2.15 0.13
5 3 15 2.11 0.13
5 3 15 2.07 0.11
-6 -3 -15 0.43 0.07
-6 -3 -15 0.26 0.05
6 3 15 0.27 0.05
6 -4 -15 0.44 0.08
5 -4 -15 0.38 0.07
4 -4 -15 0.01 0.04
-4 4 15 -0.03 0.03
3 -4 -15 0.84 0.09
-3 4 15 0.96 0.08
2 -4 -15 0.08 0.04
2 -4 -15 0.17 0.05
-2 4 15 0.06 0.03
1 -4 -15 0.03 0.04
1 -4 -15 -0.02 0.04
-1 4 15 0.01 0.03
-1 4 15 0.01 0.03
0 -4 -15 4.05 0.15
0 -4 -15 4.54 0.18
0 4 15 4.54 0.16
0 4 15 4.34 0.15
-1 -4 -15 1.09 0.08
-1 -4 -15 1.01 0.1
1 4 15 1.07 0.08
1 4 15 0.97 0.08
-2 -4 -15 0.89 0.08
-2 -4 -15 0.9 0.09
2 4 15 0.93 0.08
2 4 15 0.98 0.08
-3 -4 -15 0.47 0.07
-3 -4 -15 0.5 0.06
3 4 15 0.56 0.07
3 4 15 0.57 0.07
-4 -4 -15 0.56 0.06
4 4 15 0.45 0.07
4 4 15 0.54 0.06
-5 -4 -15 0.2 0.04
5 4 15 0.23 0.05
5 4 15 0.25 0.06
5 -5 -15 -0.01 0.04
-5 5 15 0.07 0.04
4 -5 -15 -0.04 0.03
-4 5 15 0.02 0.03
3 -5 -15 -0.03 0.04
-3 5 15 0.04 0.04
2 -5 -15 0.2 0.05
2 -5 -15 0.21 0.06
-2 5 15 0.25 0.05
1 -5 -15 1.81 0.11
1 -5 -15 1.54 0.11
-1 5 15 1.67 0.1
-1 5 15 1.48 0.09
0 -5 -15 0.68 0.09
0 -5 -15 0.85 0.08
0 5 15 0.7 0.07
0 5 15 0.69 0.07
-1 -5 -15 0.02 0.03
-1 -5 -15 0.02 0.04
1 5 15 0.01 0.04
1 5 15 -0.01 0.03
-2 -5 -15 0.29 0.05
-2 -5 -15 0.23 0.06
2 5 15 0.21 0.05
2 5 15 0.27 0.05
-3 -5 -15 0.06 0.04
-3 -5 -15 0.01 0.03
3 5 15 0.08 0.04
3 5 15 -0.04 0.03
-4 -5 -15 3.86 0.14
4 5 15 3.94 0.15
4 5 15 4.04 0.17
4 -6 -15 -0.04 0.04
-4 6 15 0.03 0.04
3 -6 -15 -0.03 0.05
-3 6 15 0.05 0.04
2 -6 -15 -0.02 0.05
2 -6 -15 -0.01 0.04
-2 6 15 0.02 0.04
1 -6 -15 1.68 0.11
1 -6 -15 1.52 0.12
-1 6 15 1.66 0.11
-1 6 15 1.52 0.11
0 -6 -15 1.25 0.1
0 -6 -15 1.23 0.11
0 6 15 1.11 0.09
0 6 15 1.18 0.1
-1 -6 -15 0.01 0.03
-1 -6 -15 0.04 0.05
1 6 15 -0.04 0.03
1 6 15 -0.02 0.03
-2 -6 -15 -0.01 0.04
-2 -6 -15 -0.01 0.03
2 6 15 0 0.03
2 6 15 0.02 0.04
-3 -6 -15 0.18 0.04
3 6 15 0.14 0.05
3 6 15 0.08 0.05
3 8 -16 1.2 0.1
3 8 -16 1.52 0.13
-3 -8 16 1.41 0.13
-3 -8 16 1.21 0.09
2 8 -16 0.13 0.05
2 8 -16 0.13 0.06
-2 -8 16 0.21 0.05
-2 -8 16 0.18 0.06
1 8 -16 0.29 0.06
1 8 -16 0.26 0.07
-1 -8 16 0.32 0.06
-1 -8 16 0.24 0.07
0 8 -16 0.46 0.07
0 8 -16 0.63 0.09
0 -8 16 0.68 0.09
0 -8 16 0.64 0.08
-1 8 -16 1.29 0.11
1 -8 16 1.2 0.11
1 -8 16 1.2 0.11
2 -8 16 3.65 0.17
2 -8 16 3.75 0.18
4 7 -16 0.17 0.05
4 7 -16 0.24 0.07
-4 -7 16 0.22 0.07
-4 -7 16 0.16 0.04
3 7 -16 0.06 0.04
3 7 -16 0.03 0.05
-3 -7 16 0.01 0.05
-3 -7 16 0.05 0.04
2 7 -16 0.09 0.04
2 7 -16 -0.01 0.04
-2 -7 16 -0.03 0.03
-2 -7 16 -0.03 0.04
1 7 -16 0.6 0.09
1 7 -16 0.54 0.07
-1 -7 16 0.46 0.06
-1 -7 16 0.5 0.08
0 7 -16 0.22 0.06
0 7 -16 0.35 0.07
0 -7 16 0.3 0.06
0 -7 16 0.19 0.06
-1 7 -16 -0.01 0.04
1 -7 16 0.08 0.05
1 -7 16 0.08 0.05
2 -7 16 1.04 0.1
2 -7 16 1.03 0.11
3 -7 16 0.74 0.09
4 -7 16 0.91 0.1
5 6 -16 0.04 0.04
5 6 -16 0.15 0.06
-5 -6 16 -0.03 0.05
-5 -6 16 0.06 0.03
4 6 -16 0.72 0.09
4 6 -16 0.74 0.08
-4 -6 16 0.75 0.07
-4 -6 16 0.61 0.09
3 6 -16 0.48 0.07
3 6 -16 0.4 0.07
-3 -6 16 0.37 0.06
-3 -6 16 0.47 0.08
2 6 -16 1.95 0.12
2 6 -16 1.68 0.12
-2 -6 16 1.72 0.1
-2 -6 16 1.59 0.12
1 6 -16 0.1 0.05
1 6 -16 0.12 0.05
-1 -6 16 0.14 0.05
-1 -6 16 0.09 0.04
0 6 -16 -0.02 0.04
0 6 -16 -0.03 0.04
0 -6 16 0.04 0.04
0 -6 16 -0.04 0.03
-1 6 -16 0.06 0.04
1 -6 16 0.04 0.04
1 -6 16 0.07 0.04
2 -6 16 0.3 0.06
3 -6 16 1.3 0.11
4 -6 16 1.17 0.1
5 -6 16 0.26 0.07
6 5 -16 2.48 0.13
6 5 -16 2.6 0.15
-6 -5 16 2.45 0.1
-6 -5 16 2.71 0.17
5 5 -16 0.46 0.08
5 5 -16 0.52 0.07
-5 -5 16 0.73 0.1
-5 -5 16 0.67 0.07
4 5 -16 1.04 0.11
4 5 -16 1.14 0.1
-4 -5 16 1.08 0.11
-4 -5 16 1.19 0.08
3 5 -16 0.63 0.07
3 5 -16 0.94 0.1
-3 -5 16 0.83 0.08
-3 -5 16 0.83 0.1
2 5 -16 0.1 0.04
2 5 -16 0.13 0.05
-2 -5 16 0.15 0.04
-2 -5 16 0.17 0.05
1 5 -16 0.15 0.05
1 5 -16 0.1 0.05
-1 -5 16 0.15 0.05
-1 -5 16 0.14 0.04
0 5 -16 0.3 0.06
0 5 -16 0.33 0.06
0 -5 16 0.36 0.06
0 -5 16 0.38 0.06
-1 5 -16 0.14 0.05
1 -5 16 0.2 0.05
1 -5 16 0.18 0.05
-2 5 -16 0.1 0.05
2 -5 16 0.11 0.04
3 -5 16 0.02 0.04
4 -5 16 0.03 0.05
5 -5 16 1.62 0.12
6 -5 16 0.6 0.09
7 4 -16 0.07 0.04
7 4 -16 0.05 0.06
-7 -4 16 -0.01 0.05
-7 -4 16 0.07 0.03
6 4 -16 1.84 0.14
6 4 -16 2.06 0.12
-6 -4 16 1.98 0.14
-6 -4 16 1.96 0.1
5 4 -16 1.26 0.11
5 4 -16 1.12 0.1
-5 -4 16 1.12 0.12
-5 -4 16 1.31 0.09
4 4 -16 2.79 0.15
4 4 -16 2.97 0.14
-4 -4 16 2.85 0.15
-4 -4 16 2.88 0.12
3 4 -16 1.08 0.1
3 4 -16 1.12 0.1
-3 -4 16 1.33 0.09
-3 -4 16 1.13 0.1
2 4 -16 1.57 0.11
2 4 -16 1.64 0.11
-2 -4 16 1.69 0.1
-2 -4 16 1.8 0.11
1 4 -16 0.76 0.08
1 4 -16 0.65 0.07
-1 -4 16 0.62 0.07
-1 -4 16 0.74 0.08
0 4 -16 5.86 0.19
0 -4 16 5.84 0.18
0 -4 16 5.6 0.19
-1 4 -16 0.91 0.09
1 -4 16 0.91 0.08
1 -4 16 0.64 0.07
-2 4 -16 0.13 0.05
2 -4 16 0.14 0.05
3 -4 16 0.08 0.05
4 -4 16 0.93 0.1
5 -4 16 2.64 0.14
-6 4 -16 0.14 0.05
6 -4 16 0.08 0.05
7 3 -16 0.02 0.04
7 3 -16 -0.04 0.06
-7 -3 16 0 0.03
-7 -3 16 -0.02 0.05
6 3 -16 0.04 0.04
6 3 -16 0.04 0.06
-6 -3 16 0.08 0.05
-6 -3 16 0.05 0.03
5 3 -16 -0.08 0.04
5 3 -16 -0.01 0.04
-5 -3 16 -0.04 0.04
-5 -3 16 0.04 0.03
4 3 -16 0.01 0.04
4 3 -16 -0.04 0.04
-4 -3 16 -0.02 0.04
-4 -3 16 0.02 0.03
3 3 -16 0.32 0.06
3 3 -16 0.23 0.05
-3 -3 16 0.39 0.07
-3 -3 16 0.26 0.05
2 3 -16 1.09 0.09
2 3 -16 1.05 0.09
-2 -3 16 0.91 0.08
-2 -3 16 0.99 0.09
1 3 -16 0.2 0.05
1 3 -16 0.2 0.05
-1 -3 16 0.17 0.04
-1 -3 16 0.15 0.04
0 3 -16 0.15 0.05
0 -3 16 0.09 0.04
0 -3 16 0.12 0.04
-1 3 -16 4.46 0.16
1 -3 16 4.68 0.16
-2 3 -16 1.09 0.08
2 -3 16 0.95 0.08
3 -3 16 0.37 0.06
-4 3 -16 0.11 0.04
4 -3 16 0.07 0.05
-5 3 -16 0.07 0.05
-5 3 -16 -0.02 0.04
5 -3 16 -0.05 0.04
-6 3 -16 2.06 0.12
-6 3 -16 1.94 0.12
6 -3 16 1.81 0.13
7 2 -16 0.17 0.05
7 2 -16 0.11 0.06
-7 -2 16 0.22 0.07
-7 -2 16 0.09 0.04
6 2 -16 1.6 0.11
6 2 -16 1.57 0.13
-6 -2 16 1.4 0.12
-6 -2 16 1.34 0.09
5 2 -16 0.07 0.06
5 2 -16 0.09 0.04
-5 -2 16 0.1 0.04
-5 -2 16 0.06 0.04
4 2 -16 6.18 0.21
4 2 -16 6.41 0.2
-4 -2 16 6.06 0.21
-4 -2 16 6.01 0.18
3 2 -16 0.63 0.08
3 2 -16 0.67 0.07
-3 -2 16 0.6 0.07
-3 -2 16 0.73 0.07
2 2 -16 0.15 0.04
2 2 -16 0.16 0.05
-2 -2 16 0.14 0.04
-2 -2 16 0.11 0.04
1 2 -16 0.91 0.09
-1 -2 16 0.92 0.08
-1 -2 16 0.91 0.08
0 2 -16 0.24 0.05
0 -2 16 0.37 0.06
0 -2 16 0.3 0.05
-1 2 -16 0.04 0.04
1 -2 16 0.06 0.04
-2 2 -16 1.39 0.09
-2 2 -16 1.29 0.08
2 -2 16 1.16 0.09
-3 2 -16 4.99 0.17
3 -2 16 4.86 0.17
-4 2 -16 4.84 0.16
-4 2 -16 4.85 0.17
4 -2 16 4.89 0.17
-5 2 -16 0.18 0.05
-5 2 -16 0.15 0.05
5 -2 16 0.15 0.05
5 -2 16 0.12 0.05
-6 2 -16 0.51 0.07
-6 2 -16 0.59 0.08
6 -2 16 0.51 0.07
6 -2 16 0.58 0.09
-7 2 -16 0.11 0.06
-7 2 -16 -0.01 0.04
7 -2 16 0.02 0.05
7 -2 16 0.03 0.04
-8 -1 16 0 0.03
7 1 -16 0.87 0.1
7 1 -16 0.89 0.09
-7 -1 16 0.86 0.08
-7 -1 16 1.02 0.11
6 1 -16 2.04 0.13
6 1 -16 1.92 0.12
-6 -1 16 1.78 0.1
-6 -1 16 1.73 0.12
5 1 -16 2.32 0.12
5 1 -16 2.31 0.14
-5 -1 16 2.54 0.12
-5 -1 16 2.36 0.13
4 1 -16 6.74 0.22
4 1 -16 6.66 0.21
-4 -1 16 6.88 0.2
-4 -1 16 6.55 0.21
3 1 -16 0.05 0.04
3 1 -16 0.01 0.05
-3 -1 16 0.07 0.04
-3 -1 16 0 0.03
2 1 -16 0.2 0.05
-2 -1 16 0.19 0.05
-2 -1 16 0.18 0.05
1 1 -16 0.06 0.04
-1 -1 16 -0.02 0.03
-1 -1 16 -0.01 0.03
0 1 -16 0.69 0.08
0 -1 16 0.69 0.07
-1 1 -16 3.12 0.13
-1 1 -16 3.14 0.13
1 -1 16 3.13 0.12
-2 1 -16 2.45 0.11
-2 1 -16 2.5 0.1
-2 1 -16 2.8 0.12
2 -1 16 2.53 0.11
-3 1 -16 0.29 0.05
-3 1 -16 0.26 0.05
3 -1 16 0.51 0.06
3 -1 16 0.36 0.06
-4 1 -16 4.04 0.15
-4 1 -16 3.96 0.15
4 -1 16 3.87 0.15
4 -1 16 3.79 0.15
-5 1 -16 0.31 0.06
-5 1 -16 0.46 0.07
5 -1 16 0.4 0.06
5 -1 16 0.33 0.06
-6 1 -16 0.85 0.09
-6 1 -16 0.59 0.08
6 -1 16 0.78 0.08
6 -1 16 0.68 0.09
-7 1 -16 1.63 0.11
-7 1 -16 1.95 0.13
7 -1 16 1.72 0.11
7 -1 16 1.79 0.12
7 0 -16 0.09 0.04
7 0 -16 0.04 0.05
-7 0 16 -0.02 0.03
-7 0 16 0.09 0.05
6 0 -16 0.18 0.05
6 0 -16 0.25 0.06
-6 0 16 0.13 0.05
-6 0 16 0.16 0.05
5 0 -16 0.66 0.08
5 0 -16 0.64 0.08
-5 0 16 0.73 0.07
-5 0 16 0.77 0.09
4 0 -16 3.15 0.14
4 0 -16 3.18 0.15
-4 0 16 2.97 0.13
-4 0 16 2.86 0.13
3 0 -16 5.67 0.19
-3 0 16 5.64 0.18
-3 0 16 5.68 0.18
2 0 -16 2.14 0.11
-2 0 16 2.13 0.11
-2 0 16 2.2 0.1
1 0 -16 3.86 0.15
-1 0 16 4.04 0.14
0 0 -16 0.06 0.04
0 0 -16 0.02 0.03
0 0 16 0.02 0.03
-1 0 -16 1.32 0.09
-1 0 -16 1.23 0.08
1 0 16 1.17 0.07
1 0 16 1.25 0.07
-2 0 -16 2.76 0.12
-2 0 -16 2.94 0.12
-2 0 -16 2.74 0.11
2 0 16 2.63 0.11
2 0 16 3.02 0.12
-3 0 -16 0.21 0.04
-3 0 -16 0.29 0.05
-3 0 -16 0.36 0.06
3 0 16 0.25 0.05
3 0 16 0.29 0.05
-4 0 -16 0.17 0.05
-4 0 -16 0.19 0.05
4 0 16 0.14 0.04
4 0 16 0.16 0.05
-5 0 -16 0.23 0.05
-5 0 -16 0.31 0.05
5 0 16 0.22 0.05
5 0 16 0.4 0.06
-6 0 -16 0.22 0.06
-6 0 -16 0.19 0.05
6 0 16 0.16 0.05
6 0 16 0.13 0.05
7 -1 -16 0.15 0.05
-7 1 16 0.17 0.05
-7 1 16 0.12 0.06
6 -1 -16 0.14 0.05
-6 1 16 0.06 0.04
-6 1 16 0.08 0.04
5 -1 -16 0.24 0.06
-5 1 16 0.25 0.05
-5 1 16 0.32 0.06
4 -1 -16 -0.09 0.04
-4 1 16 0.02 0.04
-4 1 16 -0.01 0.03
3 -1 -16 0.33 0.07
-3 1 16 0.39 0.05
2 -1 -16 4.8 0.17
-2 1 16 4.7 0.15
1 -1 -16 0.21 0.05
1 -1 -16 0.26 0.05
-1 1 16 0.22 0.04
0 -1 -16 1.06 0.09
0 -1 -16 1 0.08
0 1 16 1.02 0.06
0 1 16 1.07 0.07
-1 -1 -16 0.38 0.06
-1 -1 -16 0.36 0.05
1 1 16 0.32 0.05
1 1 16 0.38 0.05
-2 -1 -16 5.44 0.17
-2 -1 -16 5.45 0.18
2 1 16 5.27 0.17
2 1 16 5.36 0.16
-3 -1 -16 5.72 0.18
-3 -1 -16 5.57 0.18
-3 -1 -16 5.7 0.18
3 1 16 5.82 0.18
-4 -1 -16 0.04 0.04
-4 -1 -16 0.03 0.04
4 1 16 0.03 0.04
-5 -1 -16 1.73 0.1
-5 -1 -16 1.69 0.11
5 1 16 1.67 0.1
-6 -1 -16 2.82 0.15
-6 -1 -16 2.85 0.13
6 1 16 2.94 0.13
7 -2 -16 1.09 0.11
-7 2 16 0.66 0.08
6 -2 -16 0.06 0.05
-6 2 16 0 0.03
5 -2 -16 0.4 0.07
4 -2 -16 2.46 0.13
3 -2 -16 0.01 0.04
2 -2 -16 2.2 0.12
1 -2 -16 0.87 0.09
1 -2 -16 0.73 0.08
-1 2 16 0.76 0.06
0 -2 -16 0.08 0.04
0 -2 -16 0.1 0.05
0 2 16 0.1 0.03
0 2 16 0.07 0.03
-1 -2 -16 0.39 0.06
-1 -2 -16 0.37 0.05
1 2 16 0.43 0.06
1 2 16 0.35 0.05
-2 -2 -16 1.16 0.09
-2 -2 -16 1.19 0.09
2 2 16 1.18 0.08
2 2 16 1.08 0.08
-3 -2 -16 0.17 0.05
-3 -2 -16 0.09 0.04
3 2 16 0.1 0.04
3 2 16 0.04 0.04
-4 -2 -16 0.01 0.04
-4 -2 -16 0.03 0.03
4 2 16 -0.02 0.03
-5 -2 -16 0.13 0.05
-5 -2 -16 0.05 0.04
5 2 16 0.1 0.04
-6 -2 -16 0.22 0.06
-6 -2 -16 0.19 0.05
6 2 16 0.11 0.05
6 -3 -16 0 0.04
5 -3 -16 0.3 0.07
4 -3 -16 0.1 0.05
3 -3 -16 0.09 0.05
2 -3 -16 0.1 0.05
2 -3 -16 0.03 0.04
-2 3 16 0.04 0.03
1 -3 -16 0.13 0.05
1 -3 -16 0.08 0.04
-1 3 16 0.21 0.04
0 -3 -16 0.1 0.04
0 -3 -16 0.1 0.05
0 3 16 0.06 0.03
0 3 16 0.04 0.03
-1 -3 -16 1.32 0.1
-1 -3 -16 1.22 0.09
1 3 16 1.34 0.08
1 3 16 1.34 0.09
-2 -3 -16 8.47 0.25
-2 -3 -16 8.84 0.23
2 3 16 8.57 0.23
2 3 16 8.9 0.23
-3 -3 -16 2.35 0.11
-3 -3 -16 2.3 0.12
3 3 16 2.41 0.12
3 3 16 2.22 0.11
-4 -3 -16 1.76 0.1
4 3 16 1.74 0.1
4 3 16 1.81 0.11
-5 -3 -16 8 0.21
5 3 16 8.17 0.25
5 3 16 7.74 0.22
6 -4 -16 0.04 0.05
5 -4 -16 0.76 0.09
4 -4 -16 0.2 0.06
3 -4 -16 1.99 0.13
-3 4 16 1.75 0.1
2 -4 -16 1.32 0.1
2 -4 -16 1.43 0.11
-2 4 16 1.39 0.09
1 -4 -16 0.16 0.05
1 -4 -16 0.11 0.04
-1 4 16 0.15 0.04
0 -4 -16 0.12 0.05
0 -4 -16 0.09 0.05
0 4 16 0.15 0.04
0 4 16 0.09 0.04
-1 -4 -16 0.05 0.04
-1 -4 -16 0.08 0.05
1 4 16 0.07 0.04
1 4 16 0.13 0.04
-2 -4 -16 2.01 0.11
-2 -4 -16 2.02 0.13
2 4 16 2.09 0.11
2 4 16 2.18 0.11
-3 -4 -16 0.62 0.08
-3 -4 -16 0.72 0.07
3 4 16 0.58 0.07
3 4 16 0.64 0.08
-4 -4 -16 0.01 0.03
4 4 16 -0.03 0.03
4 4 16 0.05 0.05
5 -5 -16 0.13 0.05
4 -5 -16 0 0.04
-4 5 16 0.12 0.05
3 -5 -16 0.24 0.07
-3 5 16 0.12 0.05
2 -5 -16 0.08 0.05
2 -5 -16 0.09 0.05
-2 5 16 0.08 0.04
1 -5 -16 0.83 0.1
1 -5 -16 0.61 0.07
-1 5 16 0.68 0.07
0 -5 -16 0.67 0.09
0 -5 -16 0.61 0.07
0 5 16 0.73 0.08
0 5 16 0.66 0.07
-1 -5 -16 8.55 0.27
-1 -5 -16 8.14 0.23
1 5 16 8.78 0.24
1 5 16 8.41 0.24
-2 -5 -16 0.56 0.07
-2 -5 -16 0.96 0.11
2 5 16 0.64 0.08
2 5 16 0.58 0.07
-3 -5 -16 0.16 0.04
-3 -5 -16 0.08 0.05
3 5 16 0.04 0.04
3 5 16 0.14 0.04
3 -6 -16 0.19 0.06
-3 6 16 0.1 0.05
2 -6 -16 1.45 0.11
2 -6 -16 1.27 0.13
-2 6 16 1.19 0.1
1 -6 -16 1.08 0.1
1 -6 -16 1.04 0.11
-1 6 16 1.17 0.09
0 -6 -16 0.92 0.09
0 -6 -16 0.98 0.11
0 6 16 1.04 0.09
0 6 16 0.94 0.09
-1 -6 -16 1.05 0.1
-1 -6 -16 1.01 0.11
1 6 16 1.08 0.1
1 6 16 1.21 0.1
1 8 -17 0.1 0.05
1 8 -17 0.05 0.06
-1 -8 17 0 0.04
-1 -8 17 0.02 0.05
0 8 -17 0.86 0.1
0 -8 17 0.85 0.1
0 -8 17 0.7 0.08
-1 8 -17 0.08 0.05
1 -8 17 0.19 0.06
1 -8 17 0.27 0.06
4 7 -17 0.13 0.06
4 7 -17 0.21 0.06
-4 -7 17 0.15 0.04
-4 -7 17 0.19 0.07
3 7 -17 0.05 0.04
3 7 -17 0.17 0.06
-3 -7 17 0.07 0.04
-3 -7 17 0.14 0.06
2 7 -17 0.06 0.05
2 7 -17 0.02 0.04
-2 -7 17 0.01 0.03
-2 -7 17 0.01 0.04
1 7 -17 0 0.04
1 7 -17 0.02 0.05
-1 -7 17 0.05 0.05
-1 -7 17 0.06 0.04
0 7 -17 0.13 0.06
0 -7 17 0.12 0.05
0 -7 17 0.12 0.06
-1 7 -17 0.54 0.08
1 -7 17 0.68 0.09
1 -7 17 0.57 0.08
2 -7 17 0.43 0.08
3 -7 17 0.02 0.04
5 6 -17 0.44 0.08
5 6 -17 0.34 0.06
-5 -6 17 0.52 0.09
-5 -6 17 0.32 0.05
4 6 -17 0.83 0.1
4 6 -17 0.72 0.08
-4 -6 17 0.72 0.1
-4 -6 17 0.74 0.07
3 6 -17 0.11 0.05
3 6 -17 0.14 0.06
-3 -6 17 0.16 0.06
-3 -6 17 0.09 0.04
2 6 -17 0.43 0.07
2 6 -17 0.46 0.08
-2 -6 17 0.39 0.06
-2 -6 17 0.47 0.08
1 6 -17 0.08 0.05
1 6 -17 -0.01 0.05
-1 -6 17 0 0.04
-1 -6 17 0.01 0.04
0 6 -17 0.03 0.05
0 -6 17 -0.02 0.04
0 -6 17 0.06 0.05
-1 6 -17 0.03 0.04
1 -6 17 0.01 0.04
1 -6 17 -0.07 0.04
2 -6 17 0.02 0.04
3 -6 17 0.5 0.08
4 -6 17 0.03 0.05
6 5 -17 2.45 0.13
6 5 -17 2.29 0.15
-6 -5 17 2.38 0.11
-6 -5 17 2.31 0.15
5 5 -17 0.01 0.05
5 5 -17 0.03 0.04
-5 -5 17 0.01 0.03
-5 -5 17 0 0.05
4 5 -17 1.85 0.12
4 5 -17 2.05 0.13
-4 -5 17 2 0.11
-4 -5 17 1.9 0.14
3 5 -17 0.54 0.07
3 5 -17 0.5 0.08
-3 -5 17 0.49 0.08
-3 -5 17 0.66 0.07
2 5 -17 1.05 0.09
2 5 -17 0.97 0.1
-2 -5 17 0.75 0.07
-2 -5 17 0.93 0.1
1 5 -17 0.06 0.04
1 5 -17 0 0.04
-1 -5 17 -0.01 0.04
-1 -5 17 0.05 0.04
0 5 -17 0.15 0.05
0 -5 17 0.18 0.05
0 -5 17 0.16 0.05
-1 5 -17 0.73 0.08
1 -5 17 0.78 0.09
1 -5 17 0.82 0.09
2 -5 17 2.86 0.14
3 -5 17 1.17 0.1
4 -5 17 0.03 0.04
5 -5 17 0.01 0.05
6 4 -17 -0.01 0.04
6 4 -17 -0.09 0.05
-6 -4 17 -0.01 0.03
-6 -4 17 -0.03 0.04
5 4 -17 0.45 0.07
5 4 -17 0.35 0.08
-5 -4 17 0.46 0.08
-5 -4 17 0.55 0.06
4 4 -17 0.55 0.07
4 4 -17 0.48 0.09
-4 -4 17 0.47 0.08
-4 -4 17 0.52 0.07
3 4 -17 -0.01 0.05
3 4 -17 0.06 0.04
-3 -4 17 0.06 0.04
-3 -4 17 0.05 0.04
2 4 -17 0.9 0.09
2 4 -17 1 0.09
-2 -4 17 1 0.08
-2 -4 17 1.03 0.09
1 4 -17 5.57 0.19
1 4 -17 5.62 0.19
-1 -4 17 5.7 0.2
-1 -4 17 5.54 0.18
0 4 -17 0 0.05
0 -4 17 0.04 0.04
0 -4 17 0.02 0.03
-1 4 -17 1.25 0.1
1 -4 17 1.36 0.1
-2 4 -17 1.59 0.11
2 -4 17 1.45 0.1
3 -4 17 0.39 0.07
4 -4 17 4.05 0.17
5 -4 17 0.11 0.06
6 -4 17 0.04 0.05
7 3 -17 0.28 0.06
7 3 -17 0.07 0.07
-7 -3 17 0.26 0.05
-7 -3 17 0.24 0.07
6 3 -17 1.45 0.11
6 3 -17 1.44 0.14
-6 -3 17 1.49 0.09
-6 -3 17 1.55 0.13
5 3 -17 0.51 0.09
5 3 -17 0.68 0.08
-5 -3 17 0.51 0.08
-5 -3 17 0.68 0.07
4 3 -17 0.1 0.04
4 3 -17 0.15 0.06
-4 -3 17 0.29 0.05
-4 -3 17 0.19 0.06
3 3 -17 0.07 0.05
3 3 -17 0.07 0.06
-3 -3 17 0.07 0.04
-3 -3 17 0.08 0.05
2 3 -17 0.54 0.07
2 3 -17 0.52 0.08
-2 -3 17 0.79 0.09
-2 -3 17 0.57 0.07
1 3 -17 0.99 0.1
-1 -3 17 0.86 0.08
-1 -3 17 0.87 0.08
0 3 -17 0.18 0.06
0 -3 17 0.23 0.05
0 -3 17 0.12 0.04
-1 3 -17 0.07 0.05
1 -3 17 0.11 0.05
-2 3 -17 0.5 0.07
2 -3 17 0.46 0.06
3 -3 17 0.62 0.08
4 -3 17 9.17 0.26
-5 3 -17 3.4 0.15
5 -3 17 3.41 0.16
-6 3 -17 0.28 0.06
6 -3 17 0.24 0.07
7 2 -17 0.59 0.09
7 2 -17 0.37 0.07
-7 -2 17 0.58 0.09
-7 -2 17 0.44 0.06
6 2 -17 0.02 0.06
6 2 -17 0 0.04
-6 -2 17 0 0.04
-6 -2 17 0.03 0.04
5 2 -17 2.16 0.13
5 2 -17 2.01 0.12
-5 -2 17 2.24 0.13
-5 -2 17 2.17 0.11
4 2 -17 0.03 0.04
4 2 -17 -0.04 0.05
-4 -2 17 -0.04 0.03
-4 -2 17 0 0.04
3 2 -17 1.32 0.11
3 2 -17 1.44 0.1
-3 -2 17 1.43 0.1
-3 -2 17 1.22 0.09
2 2 -17 4.13 0.17
-2 -2 17 3.93 0.15
-2 -2 17 3.77 0.15
1 2 -17 2.65 0.14
-1 -2 17 2.66 0.12
-1 -2 17 2.68 0.12
0 2 -17 2.15 0.12
0 -2 17 2.26 0.11
-1 2 -17 0.64 0.07
1 -2 17 0.5 0.06
-2 2 -17 2.3 0.11
2 -2 17 2.06 0.11
-3 2 -17 0.04 0.04
3 -2 17 0.02 0.04
-4 2 -17 -0.06 0.03
4 -2 17 0.01 0.04
-5 2 -17 0.04 0.04
-5 2 -17 0.01 0.04
5 -2 17 0.01 0.05
-6 2 -17 -0.03 0.04
-6 2 -17 0.02 0.05
6 -2 17 0 0.05
7 1 -17 0.15 0.06
7 1 -17 0.12 0.05
-7 -1 17 0.19 0.07
-7 -1 17 0.17 0.05
6 1 -17 0.63 0.09
6 1 -17 0.76 0.08
-6 -1 17 0.62 0.09
-6 -1 17 0.88 0.09
5 1 -17 0.18 0.05
5 1 -17 0.19 0.06
-5 -1 17 0.2 0.06
-5 -1 17 0.15 0.05
4 1 -17 0.85 0.08
4 1 -17 0.94 0.1
-4 -1 17 0.99 0.08
-4 -1 17 1.07 0.09
3 1 -17 1.97 0.12
-3 -1 17 2.01 0.11
-3 -1 17 2.04 0.11
2 1 -17 0.74 0.08
-2 -1 17 0.92 0.08
-2 -1 17 0.85 0.08
1 1 -17 0.23 0.05
-1 -1 17 0.21 0.04
0 1 -17 0.45 0.06
0 -1 17 0.46 0.06
-1 1 -17 1.01 0.08
-1 1 -17 0.83 0.08
1 -1 17 1.04 0.08
-2 1 -17 0.43 0.06
-2 1 -17 0.54 0.07
2 -1 17 0.65 0.07
-3 1 -17 2.8 0.13
-3 1 -17 2.69 0.12
3 -1 17 2.69 0.12
-4 1 -17 4.7 0.16
-4 1 -17 4.7 0.17
4 -1 17 4.72 0.17
4 -1 17 4.8 0.17
-5 1 -17 0.02 0.04
-5 1 -17 -0.04 0.04
5 -1 17 0.02 0.04
5 -1 17 0.02 0.04
-6 1 -17 1.48 0.11
-6 1 -17 1.4 0.11
6 -1 17 1.34 0.1
6 -1 17 1.44 0.11
7 0 -17 0.55 0.08
7 0 -17 0.46 0.08
-7 0 17 0.48 0.07
-7 0 17 0.52 0.08
6 0 -17 1.73 0.12
-6 0 17 1.78 0.11
-6 0 17 1.6 0.12
5 0 -17 0.01 0.04
-5 0 17 0.04 0.04
-5 0 17 0.08 0.04
4 0 -17 0.58 0.08
-4 0 17 0.65 0.08
-4 0 17 0.54 0.07
3 0 -17 4.42 0.17
-3 0 17 4.67 0.17
-3 0 17 4.73 0.17
2 0 -17 0.19 0.05
-2 0 17 0.14 0.04
1 0 -17 0 0.04
-1 0 17 0 0.03
0 0 -17 7.82 0.22
0 0 -17 8.07 0.23
0 0 17 7.63 0.2
-1 0 -17 3.7 0.14
-1 0 -17 3.47 0.14
1 0 17 3.48 0.13
-2 0 -17 0.02 0.03
-2 0 -17 0.03 0.04
2 0 17 0.04 0.03
2 0 17 -0.03 0.03
2 0 17 -0.02 0.03
-3 0 -17 0.86 0.08
-3 0 -17 0.89 0.08
3 0 17 0.86 0.08
3 0 17 1.02 0.08
-4 0 -17 0.1 0.04
-4 0 -17 0.09 0.05
4 0 17 0.06 0.04
4 0 17 0.13 0.05
4 0 17 0.12 0.04
-5 0 -17 2.58 0.13
-5 0 -17 2.9 0.13
5 0 17 2.42 0.13
5 0 17 2.43 0.12
-6 0 -17 0.79 0.08
-6 0 -17 0.76 0.09
6 0 17 0.64 0.09
6 0 17 0.77 0.09
7 -1 -17 0.07 0.04
-7 1 17 0.03 0.04
6 -1 -17 0.05 0.05
-6 1 17 0.06 0.04
5 -1 -17 0.11 0.05
-5 1 17 0.15 0.05
4 -1 -17 0.64 0.08
3 -1 -17 0.02 0.04
2 -1 -17 -0.04 0.03
1 -1 -17 0.87 0.09
0 -1 -17 0.1 0.05
0 -1 -17 0.16 0.04
-1 -1 -17 0.07 0.04
-1 -1 -17 0.03 0.03
1 1 17 0.11 0.03
-2 -1 -17 2.85 0.13
-2 -1 -17 3.2 0.14
2 1 17 2.82 0.11
2 1 17 2.78 0.12
-3 -1 -17 8.52 0.23
3 1 17 8.22 0.23
3 1 17 8.5 0.23
-4 -1 -17 0.66 0.07
-4 -1 -17 0.9 0.08
4 1 17 0.58 0.07
-5 -1 -17 0.03 0.04
-5 -1 -17 0.05 0.05
5 1 17 -0.01 0.04
-6 -1 -17 3.75 0.17
-6 -1 -17 4.12 0.15
6 1 17 3.95 0.16
6 1 17 3.84 0.16
6 -2 -17 0.02 0.05
5 -2 -17 0.03 0.04
4 -2 -17 3.83 0.17
3 -2 -17 1.65 0.11
2 -2 -17 0.06 0.05
1 -2 -17 4.53 0.16
1 -2 -17 4.65 0.18
0 -2 -17 10.27 0.27
0 -2 -17 10.43 0.28
0 2 17 10.53 0.24
-1 -2 -17 2.03 0.11
-1 -2 -17 1.93 0.12
1 2 17 1.84 0.1
1 2 17 1.87 0.1
-2 -2 -17 2.43 0.13
-2 -2 -17 2.37 0.12
2 2 17 2.4 0.12
2 2 17 2.47 0.11
-3 -2 -17 3.08 0.14
-3 -2 -17 3.15 0.14
3 2 17 3.2 0.13
3 2 17 3.32 0.14
-4 -2 -17 0.05 0.04
4 2 17 -0.02 0.04
4 2 17 0.02 0.03
-5 -2 -17 0.4 0.06
-5 -2 -17 0.36 0.07
5 2 17 0.49 0.07
6 -3 -17 -0.02 0.04
5 -3 -17 0.87 0.1
4 -3 -17 0.14 0.06
3 -3 -17 0.49 0.08
2 -3 -17 0.87 0.09
1 -3 -17 0.25 0.05
1 -3 -17 0.26 0.06
-1 3 17 0.32 0.05
0 -3 -17 0.36 0.07
0 -3 -17 0.34 0.06
0 3 17 0.31 0.05
-1 -3 -17 2.17 0.13
-1 -3 -17 2.26 0.12
1 3 17 2.19 0.12
1 3 17 2.15 0.11
-2 -3 -17 3.37 0.16
-2 -3 -17 3.16 0.14
2 3 17 3.21 0.14
2 3 17 3.22 0.14
-3 -3 -17 0.35 0.06
-3 -3 -17 0.35 0.07
3 3 17 0.41 0.06
3 3 17 0.31 0.06
-4 -3 -17 0.02 0.03
4 3 17 0.07 0.04
4 3 17 0.06 0.05
5 -4 -17 1 0.11
4 -4 -17 0.62 0.09
3 -4 -17 1.66 0.12
2 -4 -17 1.56 0.12
-2 4 17 1.44 0.09
1 -4 -17 9.91 0.3
1 -4 -17 9.64 0.27
-1 4 17 9.87 0.25
0 -4 -17 0.17 0.05
0 -4 -17 0.19 0.06
0 4 17 0.15 0.04
-1 -4 -17 0.11 0.05
-1 -4 -17 0.03 0.04
1 4 17 0.05 0.04
1 4 17 0.05 0.04
-2 -4 -17 0.2 0.06
-2 -4 -17 0.18 0.05
2 4 17 0.28 0.06
2 4 17 0.27 0.06
-3 -4 -17 0.07 0.04
-3 -4 -17 0.06 0.04
3 4 17 0.03 0.04
3 4 17 0.09 0.04
-4 -4 -17 0.05 0.04
4 4 17 -0.02 0.04
4 4 17 0.05 0.04
4 -5 -17 0.41 0.08
3 -5 -17 0.72 0.1
-3 5 17 0.73 0.08
2 -5 -17 0.56 0.09
2 -5 -17 0.45 0.07
-2 5 17 0.38 0.06
1 -5 -17 0.05 0.05
1 -5 -17 0.05 0.04
-1 5 17 0.03 0.03
0 -5 -17 -0.06 0.05
0 -5 -17 -0.01 0.04
0 5 17 0.04 0.04
0 5 17 0.01 0.03
-1 -5 -17 0.55 0.07
-1 -5 -17 0.58 0.09
1 5 17 0.55 0.07
1 5 17 0.58 0.07
-2 -5 -17 0.07 0.04
-2 -5 -17 0.03 0.05
2 5 17 0.01 0.04
2 5 17 0.1 0.04
-3 -7 18 0.12 0.04
2 7 -18 0.08 0.05
2 7 -18 0.06 0.05
-2 -7 18 0.02 0.05
-2 -7 18 0.1 0.04
1 7 -18 -0.02 0.04
1 7 -18 -0.02 0.04
-1 -7 18 0.01 0.05
-1 -7 18 -0.05 0.03
0 7 -18 -0.01 0.05
0 -7 18 0.02 0.04
0 -7 18 0.03 0.05
-1 7 -18 -0.06 0.04
1 -7 18 0.02 0.05
1 -7 18 -0.02 0.04
2 -7 18 -0.01 0.04
4 6 -18 0.18 0.06
4 6 -18 0.28 0.06
-4 -6 18 0.26 0.07
-4 -6 18 0.29 0.05
3 6 -18 0.47 0.07
3 6 -18 0.64 0.1
-3 -6 18 0.61 0.07
-3 -6 18 0.59 0.09
2 6 -18 0.19 0.07
2 6 -18 0.22 0.06
-2 -6 18 0.24 0.06
-2 -6 18 0.32 0.07
1 6 -18 1.9 0.13
1 6 -18 1.67 0.13
-1 -6 18 1.74 0.11
-1 -6 18 1.87 0.13
0 6 -18 3.68 0.17
0 -6 18 3.52 0.16
0 -6 18 3.74 0.17
-1 6 -18 0.67 0.09
1 -6 18 0.62 0.09
1 -6 18 0.6 0.08
2 -6 18 -0.02 0.04
3 -6 18 0.32 0.07
4 -6 18 0.33 0.07
5 5 -18 0.12 0.05
5 5 -18 0.04 0.06
-5 -5 18 0.07 0.04
-5 -5 18 0.15 0.06
4 5 -18 0.03 0.05
4 5 -18 0.05 0.05
-4 -5 18 0.08 0.06
-4 -5 18 -0.01 0.03
3 5 -18 0.3 0.07
3 5 -18 0.25 0.06
-3 -5 18 0.31 0.07
-3 -5 18 0.15 0.05
2 5 -18 0.07 0.05
2 5 -18 -0.03 0.05
-2 -5 18 0 0.04
-2 -5 18 -0.01 0.03
1 5 -18 2.63 0.14
-1 -5 18 2.52 0.13
-1 -5 18 2.43 0.14
0 5 -18 4.25 0.17
0 -5 18 4.67 0.18
0 -5 18 4.14 0.17
-1 5 -18 0.15 0.06
1 -5 18 0.23 0.06
2 -5 18 1.51 0.11
3 -5 18 0.52 0.08
4 -5 18 0.19 0.06
6 4 -18 -0.08 0.03
6 4 -18 -0.12 0.06
-6 -4 18 0.02 0.05
-6 -4 18 -0.04 0.03
5 4 -18 0.75 0.09
5 4 -18 0.87 0.11
-5 -4 18 0.97 0.08
-5 -4 18 0.84 0.11
4 4 -18 2.78 0.15
4 4 -18 2.69 0.14
-4 -4 18 2.62 0.15
-4 -4 18 2.83 0.13
3 4 -18 0.27 0.06
3 4 -18 0.32 0.07
-3 -4 18 0.39 0.06
-3 -4 18 0.36 0.07
2 4 -18 0.85 0.09
2 4 -18 0.89 0.1
-2 -4 18 0.76 0.08
-2 -4 18 0.79 0.1
1 4 -18 2.98 0.16
-1 -4 18 2.64 0.13
-1 -4 18 2.57 0.14
0 4 -18 0.05 0.06
0 -4 18 0.16 0.05
0 -4 18 0.05 0.05
-1 4 -18 1.95 0.12
1 -4 18 1.93 0.12
2 -4 18 12.31 0.32
3 -4 18 2.06 0.12
4 -4 18 0.28 0.07
5 -4 18 0.01 0.05
6 3 -18 0.03 0.04
6 3 -18 -0.04 0.06
-6 -3 18 0.01 0.04
-6 -3 18 0.04 0.04
5 3 -18 0.03 0.06
5 3 -18 0 0.04
-5 -3 18 0.03 0.04
-5 -3 18 0.02 0.05
4 3 -18 -0.05 0.04
4 3 -18 -0.05 0.06
-4 -3 18 -0.03 0.03
-4 -3 18 0.03 0.04
3 3 -18 1.08 0.11
3 3 -18 1.31 0.11
-3 -3 18 1.32 0.11
-3 -3 18 1.39 0.1
2 3 -18 2.34 0.15
-2 -3 18 2.63 0.14
-2 -3 18 2.46 0.12
1 3 -18 0.35 0.08
-1 -3 18 0.39 0.07
-1 -3 18 0.36 0.06
0 3 -18 1.11 0.1
0 -3 18 1.01 0.09
-1 3 -18 0.32 0.07
1 -3 18 0.28 0.06
-2 3 -18 0.23 0.06
2 -3 18 0.29 0.06
3 -3 18 0.35 0.07
4 -3 18 0.2 0.06
-5 3 -18 0.12 0.05
5 -3 18 0.1 0.06
6 2 -18 1.99 0.14
6 2 -18 2.13 0.13
-6 -2 18 1.93 0.11
-6 -2 18 2.13 0.14
5 2 -18 0.36 0.07
5 2 -18 0.34 0.07
-5 -2 18 0.36 0.07
-5 -2 18 0.47 0.07
4 2 -18 -0.03 0.03
4 2 -18 0.08 0.06
-4 -2 18 -0.05 0.04
-4 -2 18 -0.05 0.03
3 2 -18 1.67 0.12
-3 -2 18 1.69 0.11
-3 -2 18 1.47 0.1
2 2 -18 12.28 0.32
-2 -2 18 11.97 0.31
-2 -2 18 12.31 0.3
1 2 -18 5.64 0.2
-1 -2 18 5.57 0.2
-1 -2 18 5.6 0.19
0 2 -18 1.17 0.1
0 -2 18 1.14 0.09
-1 2 -18 5.38 0.18
1 -2 18 5.73 0.19
-2 2 -18 3.66 0.14
2 -2 18 3.79 0.15
-3 2 -18 -0.03 0.04
3 -2 18 -0.01 0.04
-4 2 -18 0.94 0.09
4 -2 18 1.02 0.09
-5 2 -18 1.58 0.11
5 -2 18 1.49 0.11
6 1 -18 2.09 0.14
6 1 -18 1.76 0.12
-6 -1 18 2.02 0.12
-6 -1 18 1.54 0.12
5 1 -18 0.13 0.06
-5 -1 18 0.16 0.05
-5 -1 18 0.08 0.05
4 1 -18 0.57 0.08
-4 -1 18 0.68 0.08
-4 -1 18 0.68 0.09
3 1 -18 0.11 0.05
-3 -1 18 0.1 0.04
-3 -1 18 0.08 0.04
2 1 -18 -0.06 0.04
-2 -1 18 0 0.03
-2 -1 18 -0.04 0.03
1 1 -18 0.17 0.05
-1 -1 18 0.15 0.05
0 1 -18 0.01 0.04
0 -1 18 0.03 0.03
-1 1 -18 0.03 0.04
1 -1 18 0.06 0.04
-2 1 -18 0.75 0.08
-2 1 -18 0.81 0.08
2 -1 18 0.77 0.08
-3 1 -18 6.09 0.2
3 -1 18 6.4 0.2
-4 1 -18 0.14 0.05
4 -1 18 0.2 0.05
-5 1 -18 0.11 0.05
-5 1 -18 0 0.04
5 -1 18 -0.01 0.04
6 0 -18 0.81 0.1
-6 0 18 0.82 0.09
-6 0 18 0.66 0.09
5 0 -18 0.23 0.06
-5 0 18 0.12 0.05
-5 0 18 0.17 0.05
4 0 -18 1.9 0.13
-4 0 18 1.69 0.11
-4 0 18 1.69 0.11
3 0 -18 10.7 0.3
-3 0 18 11.17 0.28
2 0 -18 2.32 0.13
-2 0 18 2.12 0.11
1 0 -18 0.79 0.09
-1 0 18 0.71 0.07
0 0 -18 6.04 0.2
0 0 18 5.98 0.18
-1 0 -18 8.48 0.24
-1 0 -18 8.59 0.24
1 0 18 8.58 0.23
-2 0 -18 0.98 0.09
-2 0 -18 0.95 0.09
2 0 18 1 0.07
-3 0 -18 0.01 0.03
-3 0 -18 -0.02 0.04
3 0 18 0.08 0.04
-4 0 -18 1.56 0.1
-4 0 -18 1.83 0.11
4 0 18 1.57 0.11
-5 0 -18 0.1 0.04
-5 0 -18 0.19 0.05
5 0 18 0.11 0.05
5 0 18 0.22 0.05
6 -1 -18 0.19 0.06
-6 1 18 0.18 0.05
5 -1 -18 0.16 0.06
4 -1 -18 0.08 0.05
3 -1 -18 0.07 0.05
2 -1 -18 1.61 0.11
1 -1 -18 0.3 0.07
0 -1 -18 0.06 0.04
0 -1 -18 -0.01 0.04
-1 -1 -18 0.56 0.08
-1 -1 -18 0.41 0.07
-2 -1 -18 0.01 0.04
-2 -1 -18 -0.01 0.04
2 1 18 0 0.03
-3 -1 -18 0 0.04
3 1 18 0.05 0.04
3 1 18 0.06 0.04
-4 -1 -18 0.61 0.07
-4 -1 -18 0.66 0.08
4 1 18 0.61 0.07
-5 -1 -18 -0.02 0.04
-5 -1 -18 -0.04 0.03
5 1 18 -0.02 0.04
6 -2 -18 0.38 0.07
5 -2 -18 0 0.05
4 -2 -18 6.82 0.24
3 -2 -18 3.52 0.16
2 -2 -18 0.39 0.07
1 -2 -18 2.39 0.13
0 -2 -18 2.41 0.13
0 -2 -18 2.75 0.14
-1 -2 -18 0.47 0.07
-1 -2 -18 0.39 0.06
1 2 18 0.49 0.06
-2 -2 -18 0.09 0.05
-2 -2 -18 0.1 0.05
2 2 18 0.13 0.04
2 2 18 0.12 0.04
-3 -2 -18 1 0.09
3 2 18 0.99 0.09
3 2 18 1.25 0.09
-4 -2 -18 0.76 0.08
4 2 18 0.79 0.09
4 2 18 0.76 0.08
5 -3 -18 0.67 0.1
4 -3 -18 0.13 0.06
3 -3 -18 1.3 0.11
2 -3 -18 0.88 0.1
1 -3 -18 1.95 0.12
1 -3 -18 1.98 0.13
0 -3 -18 2.42 0.14
0 -3 -18 2.56 0.13
0 3 18 2.39 0.11
-1 -3 -18 0.01 0.04
-1 -3 -18 0.01 0.04
1 3 18 0.1 0.04
1 3 18 0.03 0.03
-2 -3 -18 0.77 0.09
-2 -3 -18 0.84 0.08
2 3 18 0.73 0.08
2 3 18 0.68 0.07
-3 -3 -18 0.08 0.04
3 3 18 0.05 0.04
3 3 18 0.09 0.04
-4 -3 -18 0.02 0.04
4 3 18 0.02 0.04
4 3 18 0.09 0.04
4 -4 -18 1.97 0.14
3 -4 -18 0.11 0.05
2 -4 -18 0.01 0.05
1 -4 -18 0.7 0.08
1 -4 -18 0.54 0.08
-1 4 18 0.63 0.07
0 -4 -18 0.49 0.07
0 -4 -18 0.42 0.08
0 4 18 0.32 0.06
-1 -4 -18 0.44 0.08
-1 -4 -18 0.43 0.07
1 4 18 0.34 0.06
1 4 18 0.34 0.06
-2 -4 -18 1.67 0.11
-2 -4 -18 1.8 0.12
2 4 18 1.89 0.12
2 4 18 2 0.12
2 -5 -18 1.18 0.13
-2 5 18 1.25 0.1
1 -5 -18 0.85 0.09
1 -5 -18 0.89 0.11
-1 5 18 0.94 0.08
0 -5 -18 -0.02 0.04
0 -5 -18 -0.07 0.03
0 5 18 0 0.03
0 -7 19 0.28 0.06
3 6 -19 -0.05 0.04
3 6 -19 0.1 0.06
-3 -6 19 0.03 0.04
-3 -6 19 0 0.04
2 6 -19 0.92 0.1
2 6 -19 0.96 0.11
-2 -6 19 1.11 0.09
-2 -6 19 1.06 0.11
1 6 -19 0.43 0.08
-1 -6 19 0.44 0.07
-1 -6 19 0.37 0.08
0 6 -19 0.31 0.07
0 -6 19 0.32 0.06
0 -6 19 0.29 0.07
-1 6 -19 1.82 0.13
1 -6 19 1.89 0.13
2 -6 19 0.2 0.06
4 5 -19 0.01 0.06
4 5 -19 0.11 0.05
-4 -5 19 0.1 0.04
-4 -5 19 0 0.05
3 5 -19 0.1 0.07
3 5 -19 0.02 0.05
-3 -5 19 0.12 0.04
-3 -5 19 0.09 0.05
2 5 -19 0.12 0.06
2 5 -19 0.08 0.05
-2 -5 19 0.13 0.05
-2 -5 19 0.07 0.05
1 5 -19 0.11 0.07
-1 -5 19 0.2 0.06
-1 -5 19 0.18 0.05
0 5 -19 1.98 0.13
0 -5 19 2.05 0.13
0 -5 19 2.16 0.14
-1 5 -19 0 0.05
1 -5 19 0.05 0.05
2 -5 19 0.01 0.04
3 -5 19 1.15 0.1
4 -5 19 0.23 0.06
5 4 -19 -0.09 0.06
5 4 -19 -0.03 0.04
-5 -4 19 0 0.03
-5 -4 19 0.02 0.05
4 4 -19 -0.01 0.06
4 4 -19 0.02 0.05
-4 -4 19 0.05 0.04
-4 -4 19 0.04 0.04
3 4 -19 -0.02 0.04
3 4 -19 0.01 0.06
-3 -4 19 0.05 0.04
-3 -4 19 -0.01 0.04
2 4 -19 2.61 0.15
-2 -4 19 2.48 0.14
-2 -4 19 2.37 0.12
1 4 -19 4.77 0.19
-1 -4 19 4.95 0.19
-1 -4 19 4.36 0.17
0 4 -19 0.1 0.07
0 -4 19 0.16 0.06
-1 4 -19 -0.04 0.05
1 -4 19 0.16 0.06
2 -4 19 0.37 0.07
3 -4 19 0.51 0.08
4 -4 19 0.58 0.08
5 3 -19 -0.05 0.04
5 3 -19 -0.14 0.06
-5 -3 19 -0.05 0.04
-5 -3 19 0.01 0.03
4 3 -19 1.3 0.13
4 3 -19 1.37 0.11
-4 -3 19 1.46 0.11
-4 -3 19 1.32 0.1
3 3 -19 1.55 0.12
-3 -3 19 1.4 0.1
-3 -3 19 1.37 0.11
2 3 -19 0.07 0.06
-2 -3 19 0.01 0.04
-2 -3 19 0.19 0.05
1 3 -19 -0.02 0.06
-1 -3 19 0.13 0.05
-1 -3 19 0.19 0.05
0 3 -19 -0.08 0.04
0 -3 19 0.03 0.04
-1 3 -19 0.26 0.07
1 -3 19 0.32 0.06
2 -3 19 0.52 0.07
3 -3 19 0.09 0.05
4 -3 19 0.03 0.04
5 -3 19 0 0.05
6 2 -19 0.12 0.06
6 2 -19 0.09 0.04
-6 -2 19 0.14 0.05
-6 -2 19 0.13 0.06
5 2 -19 0.59 0.08
5 2 -19 0.65 0.09
-5 -2 19 0.59 0.09
-5 -2 19 0.6 0.07
4 2 -19 0 0.05
-4 -2 19 0.09 0.05
-4 -2 19 0.01 0.04
3 2 -19 0.37 0.07
-3 -2 19 0.47 0.07
-3 -2 19 0.41 0.06
2 2 -19 4.72 0.19
-2 -2 19 4.72 0.18
-2 -2 19 4.45 0.17
1 2 -19 1.72 0.13
-1 -2 19 1.74 0.11
0 2 -19 0.09 0.05
0 -2 19 0.08 0.04
-1 2 -19 7.11 0.22
1 -2 19 7.15 0.22
-2 2 -19 0.6 0.07
2 -2 19 0.59 0.07
3 -2 19 0.06 0.04
-4 2 -19 -0.07 0.04
4 -2 19 0.04 0.04
-5 2 -19 0.15 0.06
5 -2 19 0.18 0.06
6 1 -19 0.16 0.06
-6 -1 19 0.11 0.05
-6 -1 19 0.08 0.04
5 1 -19 1.01 0.11
-5 -1 19 1.16 0.11
-5 -1 19 1.18 0.1
4 1 -19 0.69 0.09
-4 -1 19 0.64 0.08
-4 -1 19 0.56 0.07
3 1 -19 0.03 0.05
-3 -1 19 0.12 0.05
-3 -1 19 0.06 0.04
2 1 -19 0.07 0.06
-2 -1 19 0.12 0.05
1 1 -19 0.07 0.05
-1 -1 19 0.06 0.04
0 1 -19 0.27 0.06
0 -1 19 0.28 0.05
-1 1 -19 8.05 0.24
1 -1 19 7.69 0.22
-2 1 -19 1.18 0.09
2 -1 19 0.95 0.08
-3 1 -19 1.47 0.11
3 -1 19 1.75 0.11
-4 1 -19 0.21 0.06
4 -1 19 0.2 0.05
-5 1 -19 0.23 0.06
5 -1 19 0.27 0.06
6 0 -19 0.14 0.06
-6 0 19 0.09 0.05
5 0 -19 0.05 0.05
-5 0 19 0.06 0.04
4 0 -19 0.8 0.1
-4 0 19 0.61 0.08
3 0 -19 3.23 0.16
-3 0 19 2.91 0.14
2 0 -19 2.16 0.13
-2 0 19 2.22 0.12
1 0 -19 0.55 0.08
0 0 -19 0.2 0.05
-1 0 -19 0.78 0.09
-2 0 -19 -0.04 0.04
-2 0 -19 0 0.04
-3 0 -19 0.87 0.09
-4 0 -19 0.9 0.09
5 -1 -19 0.7 0.09
4 -1 -19 0.13 0.05
3 -1 -19 0.38 0.07
2 -1 -19 0.66 0.09
1 -1 -19 4.12 0.17
0 -1 -19 3.33 0.15
-1 -1 -19 1.73 0.11
-1 -1 -19 1.57 0.11
-2 -1 -19 -0.01 0.04
-2 -1 -19 0.09 0.04
-3 -1 -19 0.03 0.04
-4 -1 -19 0.99 0.09
4 1 19 1.1 0.09
4 1 19 1.06 0.09
5 -2 -19 0.19 0.07
4 -2 -19 0.02 0.05
3 -2 -19 0 0.04
2 -2 -19 1.26 0.11
1 -2 -19 -0.01 0.04
0 -2 -19 2.15 0.13
0 -2 -19 1.77 0.12
-1 -2 -19 0.46 0.08
-1 -2 -19 0.42 0.07
-2 -2 -19 0.67 0.08
-2 -2 -19 0.6 0.08
-3 -2 -19 -0.01 0.03
3 2 19 -0.05 0.03
3 2 19 0 0.03
4 2 19 -0.04 0.03
4 -3 -19 0.27 0.07
3 -3 -19 0.08 0.05
2 -3 -19 0.13 0.06
1 -3 -19 0.93 0.11
0 -3 -19 0.33 0.06
0 -3 -19 0.55 0.09
-1 -3 -19 0.24 0.06
-1 -3 -19 0.18 0.06
1 3 19 0.22 0.05
-2 -3 -19 3.18 0.15
-2 -3 -19 2.92 0.16
2 3 19 3.17 0.14
2 3 19 3.31 0.15
-3 -3 -19 0.26 0.06
3 3 19 0.2 0.06
3 3 19 0.28 0.06
2 -4 -19 0.09 0.06
1 -4 -19 0.04 0.04
1 -4 -19 0.07 0.05
0 -4 -19 0.2 0.06
0 -4 -19 0.03 0.04
0 4 19 0.07 0.04
-1 -4 -19 0.04 0.04
-1 -4 -19 0.02 0.04
1 4 19 0 0.03
1 6 -20 -0.03 0.06
-1 -6 20 0.03 0.05
-1 -6 20 0.08 0.05
0 6 -20 1.03 0.12
0 -6 20 1.05 0.11
0 -6 20 0.92 0.1
1 -6 20 0.08 0.05
3 5 -20 0.52 0.08
3 5 -20 0.32 0.08
-3 -5 20 0.47 0.07
-3 -5 20 0.26 0.07
2 5 -20 -0.08 0.06
-2 -5 20 -0.01 0.04
-2 -5 20 0.02 0.04
1 5 -20 0.66 0.1
-1 -5 20 1.22 0.11
-1 -5 20 0.97 0.1
0 5 -20 1.09 0.12
0 -5 20 1.02 0.11
-1 5 -20 -0.02 0.06
1 -5 20 0.03 0.05
2 -5 20 0.02 0.04
4 4 -20 -0.07 0.04
4 4 -20 -0.06 0.07
-4 -4 20 0 0.04
-4 -4 20 0 0.04
3 4 -20 0.04 0.07
-3 -4 20 0.1 0.06
-3 -4 20 0.17 0.05
2 4 -20 -0.01 0.06
-2 -4 20 0.03 0.04
-2 -4 20 0.07 0.04
1 4 -20 0.66 0.1
-1 -4 20 0.6 0.08
-1 -4 20 0.68 0.09
0 4 -20 0.18 0.07
0 -4 20 0.25 0.06
-1 4 -20 0 0.05
1 -4 20 0.02 0.04
2 -4 20 -0.02 0.04
3 -4 20 0.16 0.06
5 3 -20 0 0.06
5 3 -20 0.03 0.05
-5 -3 20 0.05 0.04
-5 -3 20 -0.01 0.05
4 3 -20 0.46 0.09
-4 -3 20 0.27 0.07
-4 -3 20 0.36 0.06
3 3 -20 0.18 0.07
-3 -3 20 0.41 0.07
-3 -3 20 0.22 0.06
2 3 -20 0.48 0.08
-2 -3 20 0.67 0.08
-2 -3 20 0.55 0.08
1 3 -20 0 0.06
-1 -3 20 0.02 0.04
0 3 -20 0.82 0.1
0 -3 20 0.72 0.09
-1 3 -20 0.83 0.09
1 -3 20 0.75 0.09
2 -3 20 2.35 0.13
3 -3 20 1.12 0.1
4 -3 20 0.12 0.05
5 2 -20 -0.01 0.05
-5 -2 20 0.02 0.04
-5 -2 20 0.04 0.04
4 2 -20 0.23 0.07
-4 -2 20 0.27 0.06
-4 -2 20 0.27 0.06
3 2 -20 0.27 0.07
-3 -2 20 0.18 0.05
-3 -2 20 0.18 0.06
2 2 -20 0.35 0.07
-2 -2 20 0.33 0.07
1 2 -20 1.13 0.11
-1 -2 20 1.17 0.1
0 2 -20 0.24 0.07
0 -2 20 0.28 0.06
-1 2 -20 0.94 0.1
1 -2 20 0.72 0.08
2 -2 20 2.16 0.12
3 -2 20 0.18 0.05
4 -2 20 0.07 0.05
5 1 -20 0.31 0.07
-5 -1 20 0.23 0.06
-5 -1 20 0.28 0.06
4 1 -20 0.77 0.1
-4 -1 20 0.8 0.1
-4 -1 20 0.69 0.08
3 1 -20 1.24 0.12
-3 -1 20 1.09 0.1
2 1 -20 1.02 0.11
-2 -1 20 0.93 0.09
1 1 -20 0.21 0.06
-1 -1 20 0.17 0.05
0 1 -20 1.21 0.11
0 -1 20 1.14 0.09
-1 1 -20 0.41 0.07
1 -1 20 0.44 0.07
-2 1 -20 1 0.11
2 -1 20 1.2 0.09
-3 1 -20 0.26 0.06
3 -1 20 0.29 0.06
-4 1 -20 1.41 0.11
4 -1 20 1.64 0.11
5 0 -20 0.47 0.08
4 0 -20 2.11 0.14
3 0 -20 0.45 0.08
2 0 -20 0.08 0.05
1 0 -20 0.86 0.1
0 0 -20 0.04 0.05
-1 0 -20 0.57 0.08
-2 0 -20 0.05 0.04
-2 0 -20 0 0.04
-3 0 -20 0.28 0.06
-4 0 -20 -0.06 0.04
4 -1 -20 0.22 0.07
3 -1 -20 0.07 0.06
2 -1 -20 0.29 0.07
1 -1 -20 0.11 0.06
0 -1 -20 1.95 0.13
-1 -1 -20 2.54 0.14
-1 -1 -20 2.63 0.14
-2 -1 -20 1.28 0.1
-2 -1 -20 1.1 0.1
-3 -1 -20 0.79 0.09
4 -2 -20 -0.02 0.04
3 -2 -20 0.08 0.05
2 -2 -20 0.47 0.08
1 -2 -20 0.97 0.11
0 -2 -20 1.52 0.11
-1 -2 -20 0.1 0.05
-1 -2 -20 0.02 0.04
-2 -2 -20 3.14 0.16
-2 -2 -20 3.34 0.15
2 -3 -20 0.87 0.11
1 -3 -20 1.41 0.12
0 -3 -20 0.39 0.08
0 -3 -20 0.51 0.08
-1 -3 -20 0.25 0.06
-1 -3 -20 0.34 0.07
1 5 -21 -0.1 0.06
-1 -5 21 -0.03 0.04
-1 -5 21 0.03 0.05
0 5 -21 0.19 0.08
0 -5 21 0.33 0.07
3 4 -21 0.04 0.06
-3 -4 21 0.2 0.05
-3 -4 21 0.33 0.07
2 4 -21 1.25 0.13
-2 -4 21 1.32 0.12
-2 -4 21 1.25 0.1
1 4 -21 -0.09 0.06
-1 -4 21 0.07 0.05
0 4 -21 0.13 0.07
0 -4 21 0.15 0.05
-1 4 -21 0.54 0.09
1 -4 21 0.74 0.09
2 -4 21 0.36 0.07
-4 -3 21 0.23 0.06
3 3 -21 0.07 0.07
-3 -3 21 0.08 0.05
-3 -3 21 0.1 0.05
2 3 -21 -0.02 0.05
-2 -3 21 0.03 0.05
1 3 -21 0.71 0.1
-1 -3 21 0.82 0.09
0 3 -21 1.01 0.11
0 -3 21 0.77 0.09
-1 3 -21 0.1 0.05
1 -3 21 0.08 0.05
2 -3 21 0.92 0.1
4 2 -21 0.9 0.1
-4 -2 21 0.64 0.08
-4 -2 21 0.91 0.11
3 2 -21 0.64 0.1
-3 -2 21 0.58 0.08
2 2 -21 0.23 0.06
-2 -2 21 0.24 0.06
1 2 -21 0.27 0.07
-1 -2 21 0.17 0.06
0 2 -21 2.17 0.14
0 -2 21 2.13 0.13
-1 2 -21 0.48 0.07
1 -2 21 0.48 0.07
2 -2 21 0.42 0.07
3 -2 21 0.92 0.1
4 1 -21 0.42 0.08
-4 -1 21 0.52 0.08
3 1 -21 -0.05 0.05
-3 -1 21 0.03 0.04
2 1 -21 0.06 0.05
-2 -1 21 0.1 0.05
1 1 -21 0.21 0.06
-1 -1 21 0.1 0.05
0 1 -21 0.43 0.08
0 -1 21 0.38 0.06
-1 1 -21 2.07 0.13
1 -1 21 2.16 0.12
4 0 -21 0.02 0.05
3 0 -21 0.05 0.05
2 0 -21 0.27 0.07
1 0 -21 2.76 0.15
0 0 -21 2.37 0.14
-1 0 -21 0.07 0.05
3 -1 -21 0.22 0.07
2 -1 -21 0.25 0.07
1 -1 -21 0 0.05
0 -1 -21 4.04 0.18
-1 -1 -21 0.38 0.07
-2 -1 -21 0.06 0.05
2 -2 -21 0.52 0.09
1 -2 -21 1.51 0.13
0 -2 -21 1.7 0.12
-2 -3 22 0.11 0.06
1 3 -22 0.06 0.06
-1 -3 22 0.05 0.05
0 3 -22 0.1 0.06
0 -3 22 0.06 0.05
2 2 -22 0.4 0.08
-2 -2 22 0.36 0.07
1 2 -22 0.55 0.09
-1 -2 22 0.63 0.09
0 2 -22 0.74 0.09
0 -2 22 0.61 0.08
-1 2 -22 0.06 0.05
1 -2 22 0.04 0.04
2 1 -22 0.08 0.05
1 1 -22 0.72 0.1
0 1 -22 -0.01 0.04
-1 1 -22 0.04 0.04
2 0 -22 0.65 0.09
1 0 -22 -0.04 0.05
0 0 -22 0.09 0.05
