#------------------------------------------------------------------------------
#$Date: 2021-09-04 05:02:14 +0300 (Sat, 04 Sep 2021) $
#$Revision: 268463 $
#$URL: file:///home/coder/svn-repositories/cod/cif/8/00/05/8000532.cif $
#------------------------------------------------------------------------------
#
# This file is available in the Crystallography Open Database (COD),
# http://www.crystallography.net/
#
# All data on this site have been placed in the public domain by the
# contributors.
#
data_8000532
loop_
_publ_author_name
'Zhang, Chao'
'Feng, Xuezhen'
'Song, Qilin'
'Zhou, Chaocheng'
'Peng, Lin'
'Chen, Jing'
'Liu, Xiaolin'
'Chen, Hong'
'Lin, Jia'
'Chen, Xianfeng'
_publ_section_title
;
 Blue-Violet Emission with Near-Unity Photoluminescence Quantum Yield from
 Cu(I)-Doped Rb<sub>3</sub>InCl<sub>6</sub> Single Crystals.
;
_journal_issue                   33
_journal_name_full               'The journal of physical chemistry letters'
_journal_page_first              7928
_journal_page_last               7934
_journal_paper_doi               10.1021/acs.jpclett.1c01751
_journal_volume                  12
_journal_year                    2021
_chemical_formula_moiety         'Cl6 In Rb3'
_chemical_formula_sum            'Cl6 In Rb3'
_chemical_formula_weight         583.93
_space_group_crystal_system      monoclinic
_space_group_IT_number           15
_space_group_name_Hall           '-C 2yc'
_space_group_name_H-M_alt        'C 1 2/c 1'
_atom_sites_solution_primary     iterative
_audit_creation_date             2020-08-17
_audit_creation_method
;
Olex2 1.2
(compiled 2018.05.29 svn.r3508 for OlexSys, GUI svn.r5506)
;
_cell_angle_alpha                90
_cell_angle_beta                 99.618(3)
_cell_angle_gamma                90
_cell_formula_units_Z            8
_cell_length_a                   25.2717(16)
_cell_length_b                   7.7302(4)
_cell_length_c                   12.4159(7)
_cell_measurement_reflns_used    9939
_cell_measurement_temperature    101(2)
_cell_measurement_theta_max      27.581
_cell_measurement_theta_min      2.759
_cell_volume                     2391.4(2)
_computing_cell_refinement       'SAINT V8.38A (?, 2016)'
_computing_data_reduction        'SAINT V8.38A (?, 2016)'
_computing_molecular_graphics    'Olex2 (Dolomanov et al., 2009)'
_computing_publication_material  'Olex2 (Dolomanov et al., 2009)'
_computing_structure_refinement  'ShelXL (Sheldrick, 2015)'
_computing_structure_solution    'olex2.solve (Bourhis et al., 2015)'
_diffrn_ambient_temperature      101.2
_diffrn_measured_fraction_theta_full 0.999
_diffrn_measured_fraction_theta_max 0.998
_diffrn_measurement_device_type  'Bruker APEX-II CCD'
_diffrn_measurement_method       '\f and \w scans'
_diffrn_radiation_type           MoK\a
_diffrn_radiation_wavelength     0.71073
_diffrn_reflns_av_R_equivalents  0.0520
_diffrn_reflns_av_unetI/netI     0.0335
_diffrn_reflns_Laue_measured_fraction_full 0.999
_diffrn_reflns_Laue_measured_fraction_max 0.998
_diffrn_reflns_limit_h_max       32
_diffrn_reflns_limit_h_min       -32
_diffrn_reflns_limit_k_max       10
_diffrn_reflns_limit_k_min       -10
_diffrn_reflns_limit_l_max       16
_diffrn_reflns_limit_l_min       -16
_diffrn_reflns_number            16783
_diffrn_reflns_point_group_measured_fraction_full 0.999
_diffrn_reflns_point_group_measured_fraction_max 0.998
_diffrn_reflns_theta_full        25.242
_diffrn_reflns_theta_max         27.587
_diffrn_reflns_theta_min         2.759
_diffrn_standards_number         0
_exptl_absorpt_coefficient_mu    15.388
_exptl_absorpt_correction_T_max  0.7456
_exptl_absorpt_correction_T_min  0.4392
_exptl_absorpt_correction_type   multi-scan
_exptl_absorpt_process_details
;
SADABS-2016/2 (Bruker,2016/2) was used for absorption correction.
wR2(int) was 0.1253 before and 0.0629 after correction.
The Ratio of minimum to maximum transmission is 0.5891.
The \l/2 correction factor is Not present.
;
_exptl_crystal_colour            'clear light white'
_exptl_crystal_colour_lustre     clear
_exptl_crystal_colour_modifier   light
_exptl_crystal_colour_primary    white
_exptl_crystal_density_diffrn    3.244
_exptl_crystal_description       block
_exptl_crystal_F_000             2096
_exptl_crystal_size_max          0.143
_exptl_crystal_size_mid          0.123
_exptl_crystal_size_min          0.097
_refine_diff_density_max         0.693
_refine_diff_density_min         -1.360
_refine_diff_density_rms         0.236
_refine_ls_extinction_method     none
_refine_ls_goodness_of_fit_ref   1.131
_refine_ls_hydrogen_treatment    undef
_refine_ls_matrix_type           full
_refine_ls_number_parameters     93
_refine_ls_number_reflns         2760
_refine_ls_number_restraints     0
_refine_ls_restrained_S_all      1.131
_refine_ls_R_factor_all          0.0247
_refine_ls_R_factor_gt           0.0222
_refine_ls_shift/su_max          0.001
_refine_ls_shift/su_mean         0.000
_refine_ls_structure_factor_coef Fsqd
_refine_ls_weighting_details
'w=1/[\s^2^(Fo^2^)+(0.0173P)^2^+1.8998P] where P=(Fo^2^+2Fc^2^)/3'
_refine_ls_weighting_scheme      calc
_refine_ls_wR_factor_gt          0.0499
_refine_ls_wR_factor_ref         0.0507
_reflns_Friedel_coverage         0.000
_reflns_number_gt                2581
_reflns_number_total             2760
_reflns_threshold_expression     'I > 2\s(I)'
_cod_data_source_file            jz1c01751_si_002.cif
_cod_data_source_block           1
_cod_database_code               8000532
_shelx_shelxl_version_number     2017/1
_shelx_space_group_comment
;
The symmetry employed for this shelxl refinement is uniquely defined
by the following loop, which should always be used as a source of
symmetry information in preference to the above space-group names.
They are only intended as comments.
;
_shelx_estimated_absorpt_t_max   0.317
_shelx_estimated_absorpt_t_min   0.217
_olex2_refinement_description
;
;
_shelx_res_file
;
TITL 1_a.res in C2/c
    1.res
    created by SHELXL-2017/1 at 19:51:02 on 16-Aug-2020
REM Old TITL 1 in C2/c
REM SHELXT solution in C2/c
REM R1 0.065, Rweak 0.003, Alpha 0.016, Orientation as input
REM Formula found by SHELXT: Cl6 Rb3 In
CELL 0.71073 25.2717 7.7302 12.4159 90 99.618 90
ZERR 8 0.0016 0.0004 0.0007 0 0.003 0
LATT 7
SYMM -X,+Y,0.5-Z
SFAC Cl In Rb
UNIT 48 8 24

L.S. 4 0 0
PLAN  20
SIZE 0.097 0.123 0.143
TEMP -171.95
list 4
fmap 2 53
acta
REM <olex2.extras>
REM <HklSrc "%.\\1.hkl">
REM </olex2.extras>

WGHT    0.017300    1.899800
FVAR       0.11168
IN01  2    0.500000    0.213943    0.750000    10.50000    0.00541    0.00597 =
         0.00520    0.00000    0.00097    0.00000
IN02  2    0.750000    1.250000    0.500000    10.50000    0.00583    0.00469 =
         0.00590    0.00045    0.00115   -0.00066
RB03  3    0.654417    0.682871    0.645861    11.00000    0.00893    0.00673 =
         0.01014    0.00076    0.00140   -0.00086
RB04  3    0.338371    0.186468    0.699914    11.00000    0.00752    0.00708 =
         0.01149   -0.00031    0.00215   -0.00013
RB05  3    0.550830   -0.248346    0.934190    11.00000    0.01343    0.02606 =
         0.01918    0.01115    0.00654    0.00677
CL06  1    0.679872    1.039437    0.534943    11.00000    0.01400    0.01040 =
         0.01060    0.00035    0.00343   -0.00640
CL07  1    0.750024    1.115523    0.314856    11.00000    0.00936    0.00811 =
         0.00707   -0.00083    0.00191   -0.00062
CL08  1    0.673276    1.445324    0.421198    11.00000    0.01075    0.00996 =
         0.01097    0.00192    0.00041    0.00383
CL09  1    0.443042    0.218153    0.567113    11.00000    0.00903    0.02381 =
         0.00614    0.00065   -0.00059   -0.00201
CL0A  1    0.557314    0.442914    0.682046    11.00000    0.01139    0.01235 =
         0.01664    0.00477    0.00178   -0.00468
CL0B  1    0.442136   -0.026384    0.806849    11.00000    0.00935    0.01091 =
         0.01831    0.00665    0.00368   -0.00063
HKLF 4




REM  1_a.res in C2/c
REM R1 =  0.0222 for    2581 Fo > 4sig(Fo)  and  0.0247 for all    2760 data
REM     93 parameters refined using      0 restraints

END

WGHT      0.0173      1.8998

REM Highest difference peak  0.693,  deepest hole -1.360,  1-sigma level  0.236
Q1    1   0.5839  0.5500  0.7608  11.00000  0.05    0.69
Q2    1   0.5018  0.4453  0.6022  11.00000  0.05    0.65
Q3    1   0.4022  0.0033  0.7447  11.00000  0.05    0.65
Q4    1   0.6821  0.7633  0.7401  11.00000  0.05    0.59
Q5    1   0.4631  0.3319  0.6457  11.00000  0.05    0.59
Q6    1   0.2978  0.2455  0.5735  11.00000  0.05    0.59
Q7    1   0.7172  1.2206  0.2742  11.00000  0.05    0.59
Q8    1   0.6837  1.0336  0.6218  11.00000  0.05    0.57
Q9    1   0.3801  0.2907  0.8050  11.00000  0.05    0.57
Q10   1   0.4016  0.1446  0.5522  11.00000  0.05    0.56
Q11   1   0.6174  1.4554  0.3107  11.00000  0.05    0.56
Q12   1   0.6161  0.6979  0.5239  11.00000  0.05    0.55
Q13   1   0.6931  1.4425  0.4826  11.00000  0.05    0.54
Q14   1   0.7264  1.0701  0.6525  11.00000  0.05    0.54
Q15   1   0.8326  1.1263  0.3252  11.00000  0.05    0.54
Q16   1   0.6137  0.5761  0.7433  11.00000  0.05    0.54
Q17   1   0.6402  1.4147  0.4705  11.00000  0.05    0.52
Q18   1   0.4990 -0.2953  0.8326  11.00000  0.05    0.52
Q19   1   0.4586  0.0616  0.9279  11.00000  0.05    0.52
Q20   1   0.4587  0.2005  0.6422  11.00000  0.05    0.51
;
_shelx_res_checksum              57557
_shelx_hkl_file
;
  -1  -1   0   47.70    3.50
   1   1   0   52.09    3.60
   1   1   0   55.89    3.50
  -2  -2   0  132.89    8.50
  -2  -2   0  132.79    8.50
   2   2   0  135.39    9.10
   2   2   0  114.09    8.60
   2   2   0  120.99    8.60
   2   2   0  138.69    8.50
  -3  -3   0  193.28   13.30
  -3  -3   0  193.48   13.70
   3   3   0  198.18   13.30
   3   3   0  208.58   13.60
   3   3   0  207.78   14.20
   3   3   0  213.28   13.50
  -4  -4   0  585.04   38.20
  -4  -4   0  570.64   38.10
   4   4   0  603.24   38.30
   4   4   0  630.64   39.60
   4   4   0  640.74   38.60
   4   4   0  598.04   38.50
  -5  -5   0  240.88   15.70
  -5  -5   0  228.08   15.80
   5   5   0  224.78   16.20
   5   5   0  230.68   16.30
   5   5   0  235.08   17.20
  -6  -6   0 1472.25   95.19
  -6  -6   0 1589.64   94.99
   6   6   0 1561.64   97.19
   6   6   0 1465.45   95.49
  -7  -7   0  126.69   10.90
  -7  -7   0  131.29   10.40
  -7  -7   0  137.89   11.20
   7   7   0  145.69   13.30
  -8  -8   0  251.77   18.00
  -8  -8   0  224.98   18.80
   8   8   0  264.37   21.10
  -9  -9   0    9.90    5.40
   9   9   0   16.40    8.00
   9   9  -1   31.40    8.80
  -9  -9   1   34.50    6.60
   8   8  -1   18.10    6.50
  -8  -8   1   25.00    4.20
  -8  -8   1   14.00    5.00
   7   7  -1   67.49    8.90
  -7  -7   1   65.89    6.90
  -7  -7   1   64.39    6.90
  -7  -7   1   65.59    7.00
   6   6  -1 1582.24  100.29
  -6  -6   1 1484.65   98.49
  -6  -6   1 1527.05   98.59
  -6  -6   1 1708.93   98.39
   5   5  -1   33.40    5.20
   5   5  -1   34.80    5.40
  -5  -5   1   29.60    4.10
  -5  -5   1   33.50    4.30
  -5  -5   1   30.70    3.90
   4   4  -1   32.00    4.10
   4   4  -1   33.00    3.80
   4   4  -1   42.70    4.30
   4   4  -1   37.90    5.70
  -4  -4   1   28.80    3.50
  -4  -4   1   29.60    3.60
   3   3  -1   36.20    3.60
   3   3  -1   39.70    4.50
   3   3  -1   41.60    3.70
  -3  -3   1   36.60    4.30
  -3  -3   1   31.90    3.40
   2   2  -1   17.90    2.10
   2   2  -1   17.00    2.60
  -2  -2   1   19.10    2.10
  -2  -2   1   17.20    2.50
  -2  -2   1   20.40    2.10
  -2  -2   1   18.20    2.20
   1   1  -1    6.90    1.00
   1   1  -1    6.30    1.20
   1   1  -1    7.00    1.10
  -1  -1   1    7.90    0.90
  -1  -1  -1  925.21   56.19
  -1  -1  -1  955.80   56.39
  -1  -1  -1  954.00   56.39
   1   1   1  850.91   56.39
   1   1   1  881.51   56.19
   1   1   1  898.81   56.39
  -2  -2  -1   25.50    2.50
  -2  -2  -1   27.90    2.70
  -2  -2  -1   28.10    2.50
   2   2   1   25.80    2.70
   2   2   1   28.00    2.70
   2   2   1   27.90    2.40
  -3  -3  -1    0.90    1.30
  -3  -3  -1    3.00    1.20
  -3  -3  -1    2.60    1.60
   3   3   1    3.50    1.40
   3   3   1    1.30    1.40
   3   3   1    9.10    1.80
  -4  -4  -1  113.19    8.30
  -4  -4  -1  116.79    8.30
   4   4   1  112.49    9.90
   4   4   1  110.79    8.30
   4   4   1  116.29    8.80
   4   4   1  115.69    8.70
  -5  -5  -1  117.39    8.40
  -5  -5  -1  111.99    8.40
   5   5   1  118.59    9.10
   5   5   1  100.69    9.00
   5   5   1  100.09    9.60
  -6  -6  -1  691.33   38.90
  -6  -6  -1  597.54   38.90
   6   6   1  510.25   39.10
   6   6   1  619.14   40.90
  -7  -7  -1   30.20    4.20
  -7  -7  -1   19.00    3.90
   7   7   1   18.90    6.00
   7   7   1   29.30    5.50
  -8  -8  -1   -0.30    4.20
   8   8   1   -1.10    5.30
  -9  -9  -1  382.06   29.20
   9   9   1  462.05   32.70
   9   9  -2   43.00    9.60
  -9  -9   2   42.80    7.10
   8   8  -2   28.80    6.70
  -8  -8   2   34.90    5.70
  -8  -8   2   16.80    4.50
   7   7  -2  561.24   43.50
  -7  -7   2  673.03   41.80
  -7  -7   2  679.53   42.20
  -7  -7   2  668.23   41.70
   6   6  -2   56.29    8.30
  -6  -6   2   94.99    7.50
  -6  -6   2   71.89    7.00
  -6  -6   2   79.49    7.00
   5   5  -2  269.47   19.10
   5   5  -2  262.67   19.40
  -5  -5   2  272.37   18.20
  -5  -5   2  287.67   18.30
  -5  -5   2  261.77   18.20
  -5  -5   2  262.07   19.40
   4   4  -2    6.90    2.70
   4   4  -2    2.90    1.90
  -4  -4   2    5.40    1.80
  -4  -4   2    5.50    3.00
  -4  -4   2    3.40    1.60
  -4  -4   2    4.60    1.90
   3   3  -2    8.50    1.90
   3   3  -2    6.30    2.40
  -3  -3   2    8.10    2.60
  -3  -3   2    7.00    1.80
  -3  -3   2    8.10    1.80
  -3  -3   2    2.90    1.50
   2   2  -2   23.90    2.40
   2   2  -2   25.90    3.20
  -2  -2   2   26.60    2.70
  -2  -2   2   20.80    3.20
  -2  -2   2   22.50    2.30
   1   1  -2  212.88   13.50
   1   1  -2  210.58   14.10
   1   1  -2  221.58   14.10
  -1  -1   2  212.88   14.10
  -1  -1   2  216.98   13.60
   0   0  -2  140.99    8.70
   0   0  -2  145.59    9.40
   0   0  -2  124.89    9.20
   0   0   2  163.28    9.30
   0   0   2  127.79    8.70
  -1  -1  -2   13.50    1.80
  -1  -1  -2   14.40    1.30
  -1  -1  -2   12.20    1.80
   1   1   2   15.10    1.90
   1   1   2   12.70    1.30
  -2  -2  -2  854.01   50.99
  -2  -2  -2  759.62   50.59
   2   2   2  748.73   50.99
   2   2   2  863.41   50.69
   2   2   2  855.11   50.99
  -3  -3  -2  243.48   15.80
  -3  -3  -2  242.08   16.00
  -3  -3  -2  222.18   16.20
   3   3   2  252.27   15.80
   3   3   2  249.18   16.40
   3   3   2  247.28   16.20
  -4  -4  -2  667.53   38.70
  -4  -4  -2  609.04   39.30
  -4  -4  -2  620.64   38.40
   4   4   2  589.94   38.80
   4   4   2  575.44   39.00
   4   4   2  581.74   38.40
  -5  -5  -2 1995.60  119.99
  -5  -5  -2 1869.91  119.89
   5   5   2 1983.00  121.69
   5   5   2 1761.12  120.39
   5   5   2 2044.70  120.49
  -6  -6  -2   25.50    3.80
  -6  -6  -2   23.40    3.60
   6   6   2   16.80    4.60
   6   6   2   11.60    4.40
  -7  -7  -2  175.38   13.70
  -7  -7  -2  204.98   13.90
   7   7   2  156.88   15.80
   7   7   2  197.38   16.50
  -8  -8  -2   66.29    8.80
   8   8   2   88.99   11.70
  -9  -9  -2  214.98   17.40
   9   9   2  202.78   20.50
   9   9  -3   12.00    7.40
  -9  -9   3    2.60    6.50
   8   8  -3   14.60    5.70
  -8  -8   3   11.10    4.70
  -8  -8   3   10.60    4.50
   7   7  -3 1903.91  113.69
  -7  -7   3 1592.74  111.29
  -7  -7   3 1889.31  111.89
  -7  -7   3 1732.53  111.09
   6   6  -3  339.17   25.70
  -6  -6   3  396.06   24.50
  -6  -6   3  347.37   24.10
   5   5  -3 1022.30   71.99
  -5  -5   3 1302.67   71.39
  -5  -5   3 1133.49   71.09
  -5  -5   3 1059.59   72.19
  -5  -5   3 1123.39   70.89
   4   4  -3    6.10    2.40
   4   4  -3    2.50    2.10
  -4  -4   3    2.20    1.60
  -4  -4   3    4.90    3.30
  -4  -4   3    1.10    1.90
  -4  -4   3    3.80    2.10
   3   3  -3   37.40    4.70
   3   3  -3   29.50    3.20
  -3  -3   3   26.70    3.50
  -3  -3   3   24.50    3.50
  -3  -3   3   22.10    3.20
  -3  -3   3   26.60    4.30
   2   2  -3  237.88   16.80
   2   2  -3  262.87   16.90
   2   2  -3  258.07   15.90
  -2  -2   3  246.98   16.60
  -2  -2   3  257.07   16.00
  -2  -2   3  226.28   17.00
   1   1  -3 7167.88  431.86
  -1  -1   3 6857.21  431.76
   0   0  -3    1.40    1.30
   0   0  -3    0.90    0.50
   0   0   3    1.30    0.50
   0   0   3    1.60    1.20
   0   0   3    4.80    1.30
  -1  -1  -3   22.40    2.60
  -1  -1  -3   19.10    2.60
  -1  -1  -3   19.10    1.70
   1   1   3   24.20    2.70
   1   1   3   20.40    2.70
   1   1   3   21.60    1.80
  -2  -2  -3   17.70    2.40
  -2  -2  -3   14.10    1.80
  -2  -2  -3   10.70    2.20
   2   2   3   13.40    1.80
   2   2   3   11.40    2.20
   2   2   3   18.40    2.80
  -3  -3  -3  910.61   56.59
  -3  -3  -3  864.01   57.19
  -3  -3  -3  990.80   57.19
   3   3   3  984.50   57.29
   3   3   3  838.72   57.29
   3   3   3  863.11   56.49
  -4  -4  -3  202.78   13.70
  -4  -4  -3  201.58   14.50
  -4  -4  -3  198.48   14.10
   4   4   3  212.28   14.40
   4   4   3  207.98   14.80
   4   4   3  199.58   13.70
  -5  -5  -3  544.85   34.80
  -5  -5  -3  557.34   35.60
  -5  -5  -3  489.25   34.40
   5   5   3  524.95   35.60
   5   5   3  579.74   35.20
  -6  -6  -3   15.60    3.70
  -6  -6  -3   21.20    3.60
   6   6   3   20.90    5.20
   6   6   3   16.00    4.40
  -7  -7  -3   24.60    4.20
  -7  -7  -3   27.90    4.70
   7   7   3   14.10    4.50
   7   7   3   13.10    6.20
  -8  -8  -3   18.30    4.40
   8   8   3   14.60    6.90
   8   8   3   16.00    5.70
  -9  -9  -3   24.10    6.40
   9   9   3    7.80    8.80
   9   9  -4  421.66   32.00
  -9  -9   4  424.76   30.60
   8   8  -4    6.50    5.70
  -8  -8   4    1.20    3.00
  -8  -8   4    2.50    4.30
   7   7  -4  616.14   42.00
  -7  -7   4  682.23   40.80
  -7  -7   4  584.44   40.20
  -7  -7   4  580.14   39.80
   6   6  -4  241.38   21.00
  -6  -6   4  334.97   20.80
  -6  -6   4  286.37   22.70
  -6  -6   4  297.67   20.00
   5   5  -4  607.94   38.80
  -5  -5   4  525.55   39.20
  -5  -5   4  592.24   37.70
  -5  -5   4  591.84   37.30
   4   4  -4  112.49    8.50
   4   4  -4  106.89    9.40
  -4  -4   4   96.99   10.80
  -4  -4   4  125.69    9.30
  -4  -4   4  121.49    9.10
  -4  -4   4  102.19    8.20
   3   3  -4   92.09    9.30
   3   3  -4  100.89    7.50
   3   3  -4  103.89    9.00
  -3  -3   4  110.99    9.80
  -3  -3   4  103.69    7.60
  -3  -3   4  105.59    8.30
   2   2  -4    3.30    1.90
   2   2  -4    0.60    1.80
   2   2  -4    5.20    1.30
  -2  -2   4    3.00    1.70
  -2  -2   4    5.70    2.70
  -2  -2   4    2.10    1.20
   1   1  -4 3328.37  182.38
   1   1  -4 2852.71  182.28
  -1  -1   4 2745.93  182.18
  -1  -1   4 2763.62  181.18
  -1  -1   4 3032.80  182.38
   0   0  -4  427.56   25.90
   0   0  -4  411.36   27.10
   0   0  -4  428.76   26.00
   0   0  -4  365.36   26.80
   0   0   4  412.66   27.20
   0   0   4  461.05   27.10
  -1  -1  -4  296.77   20.80
  -1  -1  -4  344.17   20.80
   1   1   4  300.07   21.00
   1   1   4  323.37   20.90
  -2  -2  -4    2.20    1.60
  -2  -2  -4    5.90    2.10
  -2  -2  -4    3.20    1.10
   2   2   4    3.70    1.90
   2   2   4    2.70    1.10
   2   2   4    2.70    1.70
  -3  -3  -4   73.19    5.60
  -3  -3  -4   73.39    6.40
   3   3   4   78.59    6.80
   3   3   4   68.29    5.50
   3   3   4   64.69    6.80
  -4  -4  -4 2350.26  157.48
  -4  -4  -4 2435.66  158.48
  -4  -4  -4 2583.84  158.28
   4   4   4 2724.63  158.98
   4   4   4 2753.82  158.48
   4   4   4 2450.95  157.48
  -5  -5  -4 3111.19  179.68
  -5  -5  -4 2799.62  180.18
  -5  -5  -4 2908.61  179.08
   5   5   4 2755.92  180.18
  -6  -6  -4  142.09   12.20
  -6  -6  -4  150.08   10.70
  -6  -6  -4  135.99   11.50
   6   6   4  130.39   11.70
  -7  -7  -4    2.50    2.70
   7   7   4    2.60    4.10
   7   7   4   -1.30    4.90
  -8  -8  -4  234.78   18.00
   8   8   4  286.27   21.70
   8   8   4  218.58   21.60
  -9  -9  -4  137.39   14.80
   9   9   4  173.48   19.00
   9   9  -5   26.20    7.60
  -9  -9   5   23.60    6.90
   8   8  -5  128.29   13.90
  -8  -8   5  123.99   10.40
  -8  -8   5  115.19   11.70
   7   7  -5    5.30    4.20
  -7  -7   5    7.50    3.10
  -7  -7   5    5.50    3.50
   6   6  -5   98.99    9.90
  -6  -6   5   94.99    8.40
  -6  -6   5  106.39   10.10
  -6  -6   5   88.79    8.40
   5   5  -5   25.00    4.70
  -5  -5   5   22.90    3.40
  -5  -5   5   23.80    4.40
  -5  -5   5   27.80    4.10
   4   4  -5  172.48   11.70
   4   4  -5  175.58   12.90
  -4  -4   5  149.79   12.80
  -4  -4   5  154.38   14.50
  -4  -4   5  178.48   13.00
  -4  -4   5  150.98   11.50
   3   3  -5  285.37   19.20
   3   3  -5  280.57   17.20
   3   3  -5  244.38   18.30
  -3  -3   5  230.88   19.30
  -3  -3   5  270.27   18.30
   2   2  -5  598.64   37.50
   2   2  -5  571.34   39.00
  -2  -2   5  637.04   39.50
  -2  -2   5  611.14   38.90
  -2  -2   5  584.64   37.60
   1   1  -5  149.39   11.20
   1   1  -5  156.78    9.40
   1   1  -5  135.69   10.70
  -1  -1   5  135.09    9.50
  -1  -1   5  142.49   11.10
  -1  -1   5  150.68   11.10
   0   0  -5   -0.90    1.70
   0   0  -5    0.10    0.70
   0   0  -5    3.20    2.20
   0   0  -5    0.20    0.70
   0   0   5   -0.50    1.80
   0   0   5    2.20    1.90
  -1  -1  -5  309.77   22.10
  -1  -1  -5  378.36   23.80
  -1  -1  -5  339.87   23.30
   1   1   5  374.46   22.30
   1   1   5  377.46   23.90
  -2  -2  -5   44.00    4.80
  -2  -2  -5   28.70    4.50
  -2  -2  -5   36.80    3.10
   2   2   5   41.90    4.80
   2   2   5   35.30    5.50
   2   2   5   39.30    3.30
  -3  -3  -5  227.58   14.50
  -3  -3  -5  213.58   15.60
  -3  -3  -5  209.58   15.40
   3   3   5  200.98   14.40
   3   3   5  216.28   15.70
   3   3   5  255.37   15.90
  -4  -4  -5 3739.33  228.48
  -4  -4  -5 3478.55  229.58
  -4  -4  -5 3959.80  229.58
   4   4   5 3530.75  228.48
   4   4   5 3699.93  229.88
   4   4   5 3815.92  229.58
  -5  -5  -5   51.79    4.90
  -5  -5  -5   53.89    6.70
  -5  -5  -5   42.60    6.90
   5   5   5   47.80    6.50
  -6  -6  -5  107.89    8.30
  -6  -6  -5  101.79   10.00
  -6  -6  -5   96.79   10.10
   6   6   5   87.99    9.90
  -7  -7  -5  214.88   18.10
  -7  -7  -5  227.28   15.90
   7   7   5  188.08   17.00
   7   7   5  248.88   19.00
  -8  -8  -5  244.28   19.10
   8   8   5  295.47   23.60
   9   9  -6  104.99   13.80
  -9  -9   6   96.79   12.10
   8   8  -6 1284.77   81.09
  -8  -8   6 1288.67   78.89
  -8  -8   6 1145.29   78.89
   7   7  -6   82.19    9.70
  -7  -7   6   75.99    8.00
  -7  -7   6   79.39    8.40
   6   6  -6 1522.15  100.79
  -6  -6   6 1554.04   99.69
  -6  -6   6 1505.95   99.09
  -6  -6   6 1752.62  100.49
   5   5  -6   38.10    5.90
  -5  -5   6   30.20    4.00
  -5  -5   6   27.90    5.50
  -5  -5   6   27.70    4.50
   4   4  -6  226.18   17.20
   4   4  -6  194.08   14.50
   4   4  -6  222.08   15.90
  -4  -4   6  217.28   14.50
  -4  -4   6  200.88   15.30
   3   3  -6    5.80    1.90
   3   3  -6    4.90    2.70
   3   3  -6    8.20    3.90
  -3  -3   6    2.80    2.00
  -3  -3   6    7.20    2.00
  -3  -3   6    5.70    4.60
   2   2  -6 8575.14  550.34
   2   2  -6 9229.18  550.94
  -2  -2   6 8929.41  550.94
  -2  -2   6 8984.10  550.64
   1   1  -6   -3.20    2.30
   1   1  -6    2.80    1.00
   1   1  -6    0.50    1.60
  -1  -1   6    9.10    2.50
  -1  -1   6    3.00    1.20
  -1  -1   6    0.90    2.90
   0   0  -6  136.09   10.20
   0   0  -6  132.09    8.50
   0   0  -6  111.59   10.30
   0   0  -6  134.59    8.50
   0   0   6  116.49   10.20
   0   0   6  159.98   10.90
  -1  -1  -6   60.39    6.10
  -1  -1  -6   48.90    3.80
  -1  -1  -6   57.09    5.20
   1   1   6   60.89    6.20
   1   1   6   54.19    5.50
  -2  -2  -6  259.37   17.70
  -2  -2  -6  288.67   19.60
  -2  -2  -6  300.97   19.30
   2   2   6  257.47   17.80
   2   2   6  299.07   19.80
  -3  -3  -6    6.50    3.10
  -3  -3  -6   11.10    2.00
  -3  -3  -6    3.80    2.20
   3   3   6    8.70    3.60
   3   3   6    8.10    2.70
   3   3   6    5.00    1.90
  -4  -4  -6   73.69    7.50
  -4  -4  -6   81.19    6.10
  -4  -4  -6   75.99    8.10
   4   4   6   74.29    6.50
   4   4   6   75.09    7.80
  -5  -5  -6  211.98   14.10
  -5  -5  -6  200.58   15.70
   5   5   6  196.08   16.00
  -6  -6  -6  107.19   10.70
  -6  -6  -6  103.99    8.40
   6   6   6   96.39   10.60
  -7  -7  -6   19.20    4.00
  -7  -7  -6   26.50    6.50
   7   7   6   20.60    5.70
  -8  -8  -6   10.80    4.50
   8   8   6   -1.30    7.20
   8   8  -7   31.80    7.40
  -8  -8   7   45.20    7.20
  -8  -8   7   37.90    6.60
   7   7  -7  124.79   12.40
  -7  -7   7  114.09   10.80
  -7  -7   7  128.59   11.00
   6   6  -7    7.90    4.00
  -6  -6   7    9.80    3.40
  -6  -6   7    7.10    3.30
   5   5  -7   33.10    5.70
  -5  -5   7   42.20    5.10
  -5  -5   7   40.20    5.60
   4   4  -7   15.70    5.90
   4   4  -7    5.10    3.10
  -4  -4   7    5.90    2.20
  -4  -4   7    0.30    2.40
   3   3  -7  243.78   19.20
   3   3  -7  274.77   16.50
   3   3  -7  238.58   18.10
  -3  -3   7  249.78   16.60
  -3  -3   7  232.28   18.00
   2   2  -7 1717.33  101.69
   2   2  -7 1613.04  103.39
   2   2  -7 1580.44  103.89
  -2  -2   7 1629.34  104.09
  -2  -2   7 1569.24  101.79
  -2  -2   7 1754.02  103.89
   1   1  -7  224.48   17.80
   1   1  -7  256.77   15.60
   1   1  -7  255.37   17.60
  -1  -1   7  230.88   17.60
  -1  -1   7  260.37   18.30
  -1  -1   7  236.38   15.80
   0   0  -7    1.10    0.80
   0   0  -7   -1.70    3.10
   0   0  -7   -0.40    0.90
   0   0  -7    1.50    2.00
   0   0   7    1.20    2.00
   0   0   7    4.40    2.90
  -1  -1  -7   25.70    3.90
  -1  -1  -7   23.70    2.10
  -1  -1  -7   21.00    2.50
  -1  -1  -7   20.90    4.60
   1   1   7   17.10    4.60
   1   1   7   18.00    3.90
  -2  -2  -7  444.56   29.00
  -2  -2  -7  424.36   27.20
  -2  -2  -7  415.26   29.50
   2   2   7  450.45   29.70
   2   2   7  436.76   27.50
  -3  -3  -7 1173.78   74.69
  -3  -3  -7 1171.28   73.09
   3   3   7 1181.18   75.29
   3   3   7 1181.28   73.19
  -4  -4  -7  751.62   50.99
  -4  -4  -7  803.92   52.69
   4   4   7  928.01   53.69
   4   4   7  787.72   51.19
  -5  -5  -7   28.80    5.40
  -5  -5  -7   28.90    3.90
   5   5   7   29.30    5.40
  -6  -6  -7   11.40    2.70
  -6  -6  -7    1.20    4.00
   6   6   7   11.50    5.00
  -7  -7  -7  231.98   19.60
  -7  -7  -7  241.88   16.30
   7   7   7  197.98   18.90
  -8  -8  -7  149.88   17.30
  -8  -8  -7  155.18   13.20
   8   8   7  166.18   19.70
   8   8  -8  309.47   25.70
  -8  -8   8  308.97   22.80
   7   7  -8   11.00    5.20
  -7  -7   8   10.90    4.10
  -7  -7   8   13.70    4.20
   6   6  -8   68.99    9.30
  -6  -6   8   80.69    8.40
  -6  -6   8   72.99    7.60
   5   5  -8   65.19    8.40
  -5  -5   8   72.99    7.60
  -5  -5   8   64.39    6.60
   4   4  -8  383.16   27.80
  -4  -4   8  406.96   26.20
  -4  -4   8  412.86   27.90
   3   3  -8  890.41   58.69
   3   3  -8  904.41   56.69
  -3  -3   8  905.91   58.89
  -3  -3   8  927.31   56.99
   2   2  -8    2.60    2.80
   2   2  -8    5.50    1.60
  -2  -2   8    1.10    1.80
  -2  -2   8    6.40    2.90
   1   1  -8   20.90    4.20
   1   1  -8   24.10    2.60
  -1  -1   8   29.30    4.90
  -1  -1   8   23.50    3.00
   0   0  -8  933.41   66.29
   0   0  -8 1195.68   64.39
   0   0   8  981.10   66.99
  -1  -1  -8   -1.10    1.10
  -1  -1  -8    2.00    0.90
  -1  -1  -8    1.30    2.20
   1   1   8   -2.90    2.20
  -2  -2  -8  527.15   36.90
  -2  -2  -8  539.55   34.90
   2   2   8  601.84   35.30
   2   2   8  566.04   37.80
  -3  -3  -8  830.52   53.09
  -3  -3  -8  743.43   51.09
   3   3   8  829.12   53.99
   3   3   8  882.41   51.49
  -4  -4  -8  413.66   27.20
  -4  -4  -8  441.86   29.40
   4   4   8  432.16   27.70
   4   4   8  414.16   29.80
  -5  -5  -8   17.90    4.80
   5   5   8   14.30    4.80
  -6  -6  -8   80.39    7.20
   6   6   8   82.09   10.50
  -7  -7  -8   86.39    7.90
  -7  -7  -8   65.59   10.80
   7   7   8   74.59   10.60
  -8  -8  -8  315.47   21.80
  -8  -8  -8  285.47   25.60
   8   8  -9  348.07   26.00
  -8  -8   9  283.27   23.10
   7   7  -9  593.74   39.00
  -7  -7   9  502.45   36.50
  -7  -7   9  553.64   37.40
   6   6  -9   24.70    6.00
  -6  -6   9   12.40    4.40
  -6  -6   9   28.00    4.70
   5   5  -9  106.29   11.10
  -5  -5   9  116.99    9.80
  -5  -5   9  138.09   11.70
   4   4  -9    3.50    3.50
  -4  -4   9    9.30    3.80
  -4  -4   9    5.90    2.50
   3   3  -9 2488.05  148.49
  -3  -3   9 2411.56  151.08
  -3  -3   9 2304.07  148.69
   2   2  -9   72.69    7.90
   2   2  -9   75.59    5.70
  -2  -2   9   68.89    6.20
  -2  -2   9   71.49    7.80
   1   1  -9   32.30    3.10
   1   1  -9   31.30    5.40
  -1  -1   9   23.00    4.90
  -1  -1   9   35.50    3.60
   0   0  -9    0.80    1.00
   0   0  -9    0.60    2.40
   0   0   9   -3.40    2.50
  -1  -1  -9   78.99    5.60
  -1  -1  -9   88.79    6.00
  -1  -1  -9   84.89    8.40
   1   1   9   74.99    8.40
  -2  -2  -9   10.80    3.50
  -2  -2  -9   11.70    2.10
  -2  -2  -9   10.80    1.70
   2   2   9    8.40    3.80
  -3  -3  -9  200.68   12.80
  -3  -3  -9  185.38   15.00
   3   3   9  204.48   13.40
   3   3   9  170.78   15.60
  -4  -4  -9   50.29    7.50
  -4  -4  -9   65.99    5.30
   4   4   9   60.89    6.80
   4   4   9   70.69    8.80
  -5  -5  -9  310.67   23.40
  -5  -5  -9  313.77   20.90
   5   5   9  328.57   24.40
  -6  -6  -9  172.78   15.40
  -6  -6  -9  167.58   12.30
   6   6   9  166.18   16.10
  -7  -7  -9   47.70    5.90
  -7  -7  -9   56.49   15.30
   7   7   9   48.90    9.70
   7   7 -10    8.90    6.60
  -7  -7  10   15.00    5.30
   6   6 -10   -2.30    4.90
  -6  -6  10    5.30    4.20
  -6  -6  10   -5.80    3.40
   5   5 -10   42.30    7.20
  -5  -5  10   38.60    6.20
  -5  -5  10   41.60    5.40
   4   4 -10   32.30    5.80
  -4  -4  10   36.30    6.10
  -4  -4  10   43.60    5.10
   3   3 -10 1814.72  106.69
   3   3 -10 1548.15  108.99
  -3  -3  10 1800.52  109.89
  -3  -3  10 1715.93  106.99
   2   2 -10  598.74   45.30
   2   2 -10  734.73   42.90
  -2  -2  10  742.33   46.40
  -2  -2  10  662.33   43.20
   1   1 -10   49.00    4.30
   1   1 -10   49.70    3.90
   1   1 -10   45.50    7.20
  -1  -1  10   47.30    7.40
   0   0 -10    6.90    3.50
   0   0 -10    3.50    1.10
   0   0  10    0.80    3.00
  -1  -1 -10    1.40    1.00
  -1  -1 -10   -2.60    3.00
   1   1  10    3.50    3.40
  -2  -2 -10 1850.31  121.79
  -2  -2 -10 1966.90  124.69
   2   2  10 2122.59  126.09
  -3  -3 -10 1234.58   90.49
  -3  -3 -10 1619.04   88.59
  -3  -3 -10 1426.86   88.19
   3   3  10 1407.96   91.99
  -4  -4 -10   66.19    8.20
  -4  -4 -10   67.69    5.70
   4   4  10   86.29   10.30
  -5  -5 -10    2.90    4.40
  -5  -5 -10    5.10    2.30
   5   5  10   10.50    5.20
  -6  -6 -10  251.57   17.30
   6   6  10  252.67   21.70
  -7  -7 -10   -5.90    7.70
  -7  -7 -10    4.80    3.50
   7   7  10   12.20    8.80
   7   7 -11   15.30    7.00
  -7  -7  11   24.70    5.80
  -7  -7  11   14.00    6.20
   6   6 -11   15.80    6.30
  -6  -6  11   11.20    4.40
  -6  -6  11    7.20    5.10
   5   5 -11  146.69   13.70
  -5  -5  11  122.09   12.60
  -5  -5  11  116.99   10.50
   4   4 -11  368.26   26.00
  -4  -4  11  324.27   23.30
  -4  -4  11  362.36   26.10
   3   3 -11   22.00    5.90
   3   3 -11   21.70    3.30
  -3  -3  11   19.80    5.20
  -3  -3  11   20.00    3.40
   2   2 -11  120.09   11.60
   2   2 -11  129.59    8.70
  -2  -2  11  109.99    9.40
  -2  -2  11  131.39   12.40
   1   1 -11  176.48   11.40
   1   1 -11  178.28   11.20
   1   1 -11  163.98   14.30
  -1  -1  11  158.98   14.90
   0   0 -11    2.60    0.90
   0   0 -11    0.90    1.00
   0   0 -11    1.90    3.50
   0   0  11    2.20    3.80
  -1  -1 -11  840.72   47.80
  -1  -1 -11  748.03   51.09
  -1  -1 -11  735.73   47.70
   1   1  11  759.32   52.09
  -2  -2 -11  719.23   42.00
  -2  -2 -11  623.44   44.80
  -2  -2 -11  650.73   41.70
   2   2  11  690.93   46.50
  -3  -3 -11  170.18   17.20
  -3  -3 -11  161.78   11.00
   3   3  11  155.88   15.30
  -4  -4 -11    3.10    1.80
  -4  -4 -11    6.70    4.90
   4   4  11   -1.50    5.30
  -5  -5 -11   98.99    7.80
   5   5  11   98.99   13.30
  -6  -6 -11   61.59    6.80
  -6  -6 -11   75.09   12.10
   6   6  11   67.69   17.80
   6   6 -12    4.20    6.70
  -6  -6  12    8.20    4.70
   5   5 -12  103.89   12.60
  -5  -5  12  129.39   10.60
  -5  -5  12  121.29   13.20
   4   4 -12  597.64   53.79
  -4  -4  12  753.52   48.80
  -4  -4  12  742.83   45.40
   3   3 -12  297.07   23.80
  -3  -3  12  289.77   20.70
  -3  -3  12  363.76   25.00
   2   2 -12   37.00    7.10
  -2  -2  12   28.40    4.10
  -2  -2  12   24.60    6.60
   1   1 -12   54.69    8.90
   1   1 -12   83.99    5.50
   1   1 -12   74.69    5.40
  -1  -1  12   66.09    9.70
   0   0 -12  261.37   20.40
   0   0  12  270.37   21.60
  -1  -1 -12   36.70    6.60
   1   1  12   32.60    6.90
  -2  -2 -12  279.07   17.00
  -2  -2 -12  226.18   20.60
   2   2  12  309.27   23.00
  -3  -3 -12   12.40    2.10
  -3  -3 -12    4.20    5.50
   3   3  12    5.60    6.00
  -4  -4 -12    5.70    4.80
  -5  -5 -12   16.60    7.00
   5   5  12   12.10    7.70
   5   5 -13   82.39   12.80
  -5  -5  13   64.79   10.50
  -5  -5  13   87.59    9.30
   4   4 -13 2253.97  142.69
  -4  -4  13 2297.97  142.99
  -4  -4  13 2167.48  139.19
   3   3 -13  374.16   28.20
  -3  -3  13  338.37   33.80
  -3  -3  13  380.16   24.60
   2   2 -13   -2.00    2.40
   2   2 -13    4.60    5.60
  -2  -2  13    0.40    6.00
  -1  -1  13   69.49   11.00
   0   0 -13    3.70    8.90
   0   0  13   -2.50    6.80
   1   1  13  484.35   38.60
  -2  -2 -13  314.27   24.20
   2   2  13  324.87   26.10
  -3  -3 -13    1.10    5.40
   3   3  13    6.20    7.20
  -4  -4 -13  121.39   14.30
   4   4  13  137.39   17.10
  -5  -5 -13  173.68   18.10
   5   5  13  200.88   20.90
   5   5 -14  220.68   20.70
  -5  -5  14  205.28   20.90
   4   4 -14  136.99   16.60
  -4  -4  14  148.29   16.90
   3   3 -14   -6.50    5.60
  -3  -3  14   -6.20    5.40
   2   2 -14   47.80    9.50
  -2  -2  14   77.39   11.90
   1   1 -14    5.90    6.20
  -1  -1  14    7.60    6.60
   0   0 -14  273.47   23.90
   0   0  14  321.07   25.20
  -1  -1 -14  156.78   15.70
   1   1  14  114.99   16.10
  -2  -2 -14  540.35   40.70
   2   2  14  623.74   43.40
  -3  -3 -14   52.49   10.20
   3   3  14   44.50   10.90
  -4  -4 -14   71.99   12.90
   4   4  14   63.89   14.00
   3   3 -15    4.70    6.40
  -3  -3  15    4.60   10.30
   2   2 -15    0.90    9.00
  -2  -2  15    1.30    8.70
   1   1 -15  133.49   16.70
  -1  -1  15  132.49   17.10
   0   0 -15    4.50    7.10
   0   0  15   11.90    9.10
  -1  -1 -15  274.37   26.00
   1   1  15  296.97   28.30
  -2  -2 -15  264.07   24.10
   2   2  15  288.17   25.80
  -2   0  16   23.70   10.20
   2   0 -16   10.50    8.50
  -3  -1  16   24.70   10.80
   3   1 -16   12.60    9.60
   1   3  15    0.40    9.10
  -1  -3 -15    4.30    6.90
   0   2  15  203.78   24.10
   0  -2 -15  194.88   20.90
  -1   1  15  157.38   19.40
   1  -1 -15  133.79   17.10
  -2   0  15   -0.50    7.50
   2   0 -15    0.70    6.70
  -3  -1  15  104.69   16.50
   3   1 -15  119.89   14.90
  -4  -2  15   77.39   12.50
   4   2 -15   94.59   14.60
  -5  -3  15  546.55   39.20
   5   3 -15  448.66   36.60
   2   4  14   88.29   14.90
  -2  -4 -14   81.89   13.40
   1   3  14  193.98   20.40
  -1  -3 -14  175.48   17.60
   0  -2 -14  792.42   53.79
  -1   1  14   11.70    7.00
   1  -1 -14    1.60    5.40
  -2   0  14   -1.90    6.40
   2   0 -14    4.20    5.60
  -3  -1  14   45.70    9.50
   3   1 -14   43.20    8.70
  -4  -2  14    2.70    6.30
   4   2 -14   14.20    5.80
  -5  -3  14    2.90    6.80
   5   3 -14   13.10    6.90
  -6  -4  14  468.35   34.30
   6   4 -14  423.16   33.30
   3   5  13    0.70    8.20
  -3  -5 -13    2.40    6.30
   2   4  13 1001.50   63.69
  -2  -4 -13  844.42   60.99
   1   3  13  425.86   32.30
  -1  -3 -13  410.06   30.40
   0   2  13  126.69   21.70
   0  -2 -13  133.89   13.40
  -1   1  13   75.79   11.30
  -2   0  13    0.70    5.70
   2   0 -13   -5.60    3.80
  -3  -1  13  356.86   27.30
   3   1 -13  344.87   26.40
  -4  -2  13  161.68   18.00
  -5  -3  13   89.49   14.70
   5   3 -13   99.49   11.80
  -6  -4  13    2.90    4.20
  -6  -4  13  -13.10    5.20
   6   4 -13    7.10    5.70
  -7  -5  13    9.90    5.40
  -7  -5  13   22.90    7.30
   7   5 -13   18.00    7.10
   4   6  12   52.49   11.40
  -4  -6 -12   70.99   11.50
   3   5  12  117.49   17.50
  -3  -5 -12  136.49   14.40
   2   4  12  158.48   16.70
  -2  -4 -12  155.88   14.80
   1   3  12    7.50    5.20
  -1  -3 -12   11.80    5.30
   0   2  12  278.47   22.10
   0  -2 -12  255.77   20.20
  -1   1  12   77.39   11.30
   1  -1 -12   75.29    9.00
  -2   0  12   77.49   10.30
   2   0 -12   60.89    9.00
  -3  -1  12  445.86   32.40
   3   1 -12  431.06   31.20
  -4  -2  12 2172.88  138.69
  -4  -2  12 2258.47  143.09
   4   2 -12 2310.37  142.19
  -5  -3  12    7.90    4.60
  -5  -3  12   -1.30    2.50
   5   3 -12    2.80    4.00
  -6  -4  12  105.99    9.90
  -6  -4  12  135.99   13.30
   6   4 -12  143.39   13.50
  -7  -5  12   22.60    6.00
  -7  -5  12   23.90    4.40
   7   5 -12   25.50    6.10
  -8  -6  12  482.55   32.40
  -8  -6  12  364.16   29.10
   8   6 -12  462.15   32.20
   4   6  11   28.00    8.30
  -4  -6 -11   28.40    8.20
  -4  -6 -11   28.50    4.00
   3   5  11   19.40    7.50
  -3  -5 -11   41.60    4.20
   2   4  11  270.37   22.60
  -2  -4 -11  277.67   21.30
  -2  -4 -11  281.57   18.40
   1   3  11   35.80    7.40
  -1  -3 -11   51.19    3.90
  -1  -3 -11   36.50    6.90
   0   2  11   56.69    8.60
   0  -2 -11   45.20    7.00
  -1   1  11  169.88   14.60
   1  -1 -11  145.39   13.10
  -2   0  11   -5.50    3.00
   2   0 -11    3.20    3.60
  -3  -1  11  285.67   22.70
   3   1 -11  257.67   21.50
   3   1 -11  281.07   18.30
   3   1 -11  334.07   18.50
  -4  -2  11  223.28   17.80
  -4  -2  11  197.38   14.10
   4   2 -11  210.58   13.50
   4   2 -11  202.88   16.80
  -5  -3  11  105.59   10.90
  -5  -3  11  103.99    8.10
   5   3 -11  102.29   10.20
   5   3 -11   92.09    7.60
  -6  -4  11  152.08   11.80
  -6  -4  11  167.48   14.80
   6   4 -11  160.98   14.50
  -7  -5  11   19.80    3.90
  -7  -5  11   11.80    5.20
   7   5 -11   10.60    4.70
  -8  -6  11   85.39   10.70
  -8  -6  11   78.29    9.00
   8   6 -11   63.09    9.50
  -9  -7  11    4.80    6.40
  -9  -7  11   15.00    5.70
   9   7 -11   19.10    6.70
   5   7  10  133.69   17.20
  -5  -7 -10  161.48   17.10
  -5  -7 -10  162.58   12.10
   4   6  10   15.00    6.50
  -4  -6 -10   19.00    3.20
   3   5  10  995.90   72.29
  -3  -5 -10 1154.38   68.99
  -3  -5 -10 1152.48   71.99
   2   4  10  563.84   39.40
  -2  -4 -10  574.94   35.70
  -2  -4 -10  560.04   38.40
   1   3  10   15.90    5.20
  -1  -3 -10   17.60    4.70
  -1  -3 -10   20.10    2.70
   0   2  10  197.58   16.40
   0  -2 -10  215.48   12.50
   0  -2 -10  174.88   12.40
   0  -2 -10  199.58   15.60
  -1   1  10   41.90    6.80
   1  -1 -10   27.70    5.10
  -2   0  10  121.29   11.90
   2   0 -10  124.79   11.10
  -3  -1  10  139.39   12.40
   3   1 -10  135.09   11.70
  -4  -2  10  738.83   47.50
  -4  -2  10  743.93   50.59
   4   2 -10  781.42   47.20
   4   2 -10  765.12   49.90
  -5  -3  10  155.18   13.10
  -5  -3  10  147.49   10.40
   5   3 -10  151.58   12.50
   5   3 -10  130.19   10.10
  -6  -4  10    1.80    3.70
  -6  -4  10   11.10    2.70
   6   4 -10    4.10    3.50
  -7  -5  10  219.08   15.90
  -7  -5  10  227.68   18.00
   7   5 -10  217.78   17.60
  -8  -6  10  369.76   25.60
  -8  -6  10  404.96   27.70
   8   6 -10  353.66   27.10
  -9  -7  10   55.89    8.30
  -9  -7  10   52.99    8.90
   9   7 -10   75.69   10.10
   5   7   9    4.60    6.30
  -5  -7  -9   -1.00    6.40
  -5  -7  -9    0.90    3.10
   4   6   9  148.19   15.30
  -4  -6  -9  171.98   15.10
  -4  -6  -9  167.28   12.00
   3   5   9 1107.39   73.09
  -3  -5  -9 1142.59   70.09
  -3  -5  -9 1112.09   72.59
   2   4   9   58.69    8.50
   2   4   9   57.39    6.30
  -2  -4  -9   66.49    8.10
  -2  -4  -9   65.59    5.10
   1   3   9  426.76   29.90
   1   3   9  415.06   26.80
  -1  -3  -9  429.06   26.50
  -1  -3  -9  409.26   28.80
   0   2   9  161.28   14.10
   0  -2  -9  164.88   10.70
   0  -2  -9  178.18   13.50
  -1   1   9   45.00    6.70
   1  -1  -9   38.00    5.40
  -2   0   9    3.50    3.00
   2   0  -9    1.40    2.50
  -3  -1   9 3256.87  196.68
  -3  -1   9 3060.89  193.38
   3   1  -9 3121.19  195.68
   3   1  -9 3127.29  193.18
  -4  -2   9    1.60    1.90
  -4  -2   9   10.30    3.60
   4   2  -9    2.80    1.50
   4   2  -9   -2.00    3.20
  -5  -3   9   48.90    7.20
  -5  -3   9   59.19    5.10
   5   3  -9   55.49    7.40
   5   3  -9   51.59    5.00
  -6  -4   9  174.68   14.00
  -6  -4   9  158.18   11.60
   6   4  -9  145.99   13.10
  -7  -5   9 1243.48   79.39
  -7  -5   9 1149.89   77.29
   7   5  -9 1301.47   79.39
  -8  -6   9   63.39    8.20
  -8  -6   9   50.09    6.80
   8   6  -9   51.19    8.30
  -9  -7   9  284.17   20.50
  -9  -7   9  260.47   23.80
   9   7  -9  240.08   20.70
 -10  -8   9  234.38   19.30
  10   8  -9  246.18   21.00
  -6  -8  -8   13.60    8.30
  -6  -8  -8   10.80    3.90
   5   7   8   76.29   11.80
  -5  -7  -8   88.39    8.10
  -5  -7  -8  103.59   12.20
   4   6   8   50.49    7.90
  -4  -6  -8   38.50    7.50
  -4  -6  -8   39.70    5.10
   3   5   8  667.53   45.90
  -3  -5  -8  656.73   43.40
  -3  -5  -8  739.83   46.00
   2   4   8  847.72   55.19
   2   4   8  830.22   57.49
  -2  -4  -8  968.80   57.49
  -2  -4  -8  884.41   55.09
   1   3   8    1.50    2.60
   1   3   8    3.40    1.90
  -1  -3  -8    1.00    1.40
  -1  -3  -8    1.50    2.50
   0   2   8  228.18   14.20
   0   2   8  228.78   16.90
   0  -2  -8  194.38   13.80
   0  -2  -8  230.68   16.20
  -1   1   8   17.00    3.90
   1  -1  -8   20.20    3.80
  -2   0   8  541.35   34.20
   2   0  -8  462.65   33.00
  -3  -1   8   12.20    1.90
  -3  -1   8   17.40    3.90
   3   1  -8   14.00    1.80
   3   1  -8   11.60    3.30
  -4  -2   8  543.75   35.10
  -4  -2   8  545.35   37.40
   4   2  -8  580.24   34.90
  -5  -3   8   69.59    7.80
  -5  -3   8   66.79    5.90
   5   3  -8   63.39    7.40
   5   3  -8   78.89    5.90
  -6  -4   8    1.70    2.20
  -6  -4   8    8.00    3.40
   6   4  -8    5.10    3.10
  -7  -5   8   46.10    6.60
  -7  -5   8   34.20    4.70
   7   5  -8   41.00    6.40
  -8  -6   8   30.20    5.50
  -8  -6   8   25.90    4.80
   8   6  -8   35.90    6.40
  -9  -7   8   98.79   10.00
  -9  -7   8   88.79    9.40
   9   7  -8   65.99   10.70
 -10  -8   8  102.69   12.20
 -10  -8   8   76.39   10.10
  10   8  -8   83.49   13.10
  -6  -8  -7  117.79   10.50
   5   7   7  197.38   17.00
  -5  -7  -7  183.68   17.60
  -5  -7  -7  212.98   14.60
   4   6   7  333.87   25.40
  -4  -6  -7  368.06   23.40
  -4  -6  -7  357.06   25.70
   3   5   7  569.34   39.20
  -3  -5  -7  617.04   37.30
  -3  -5  -7  565.34   39.10
   2   4   7  214.88   16.40
   2   4   7  199.28   14.50
  -2  -4  -7  234.98   16.30
  -2  -4  -7  218.08   14.30
   1   3   7    3.10    2.70
   1   3   7    2.60    1.60
  -1  -3  -7   -0.30    3.40
  -1  -3  -7    2.40    1.40
  -1  -3  -7    1.10    2.60
   0   2   7   71.69    7.90
   0   2   7   83.09    5.70
   0  -2  -7   75.09    5.40
   0  -2  -7   81.59    8.30
   0  -2  -7   85.89    7.30
  -1   1   7  247.08   17.60
  -1   1   7  234.68   17.50
   1  -1  -7  231.18   16.70
   1  -1  -7  239.08   17.60
   1  -1  -7  242.28   14.90
   1  -1  -7  234.08   14.80
  -2   0   7    0.60    2.80
  -2   0   7    6.30    2.60
   2   0  -7    0.30    0.50
   2   0  -7    1.10    1.90
   2   0  -7    1.00    0.50
   2   0  -7    2.80    3.20
  -3  -1   7   17.60    4.50
  -3  -1   7   14.00    2.00
  -3  -1   7   19.80    3.90
   3   1  -7   19.90    3.60
   3   1  -7   20.30    2.10
  -4  -2   7   15.80    4.90
  -4  -2   7   10.50    2.10
  -4  -2   7   13.70    3.40
   4   2  -7   15.90    4.50
   4   2  -7   14.30    1.90
   4   2  -7    9.50    3.10
  -5  -3   7  156.68   11.00
  -5  -3   7  163.78   12.60
   5   3  -7  144.79   14.40
   5   3  -7  161.38   10.90
  -6  -4   7   25.80    4.60
  -6  -4   7   29.70    4.00
   6   4  -7   23.20    4.40
  -7  -5   7  338.77   22.70
  -7  -5   7  294.07   21.20
   7   5  -7  314.57   22.60
  -8  -6   7  474.75   34.60
  -8  -6   7  533.45   35.90
   8   6  -7  589.14   36.60
  -9  -7   7    7.30    4.10
  -9  -7   7    3.30    3.80
   9   7  -7    3.90    4.50
 -10  -8   7  153.18   14.30
 -10  -8   7  162.88   14.50
  10   8  -7  172.78   15.90
   6   8   6   10.70    7.10
   5   7   6   -0.90    4.10
  -5  -7  -6    1.20    3.00
  -5  -7  -6    4.80    5.00
   4   6   6 1408.86   89.89
  -4  -6  -6 1428.56   88.09
  -4  -6  -6 1388.56   90.09
   3   5   6   -2.90    2.70
  -3  -5  -6    2.90    3.10
  -3  -5  -6    5.50    3.60
  -3  -5  -6   -1.10    1.60
   2   4   6  643.44   39.90
   2   4   6  635.84   38.20
  -2  -4  -6  586.94   38.00
  -2  -4  -6  528.75   39.40
  -2  -4  -6  625.34   39.50
   1   3   6   13.90    3.10
   1   3   6   24.40    2.80
   1   3   6   26.70    4.60
  -1  -3  -6   17.70    2.30
  -1  -3  -6   19.80    3.90
  -1  -3  -6   15.70    3.20
   0   2   6  146.79   11.20
   0   2   6  157.88   11.40
   0   2   6  130.99    9.20
   0  -2  -6  145.19   10.80
   0  -2  -6  135.89    9.20
   0  -2  -6  143.19   11.20
  -1   1   6   -0.10    2.40
  -1   1   6    0.30    1.80
   1  -1  -6    0.50    1.60
   1  -1  -6    1.70    0.60
   1  -1  -6    5.50    2.90
   1  -1  -6    0.50    0.60
  -2   0   6 7192.78  408.46
  -2   0   6 6598.04  408.76
   2   0  -6 5891.71  407.86
   2   0  -6 6791.62  408.76
  -3  -1   6   64.79    4.80
  -3  -1   6   61.29    6.30
  -3  -1   6   56.49    6.70
   3   1  -6   78.09    7.40
   3   1  -6   76.49    6.30
  -4  -2   6  435.86   28.90
  -4  -2   6  416.26   28.50
  -4  -2   6  406.66   26.90
   4   2  -6  376.56   27.90
   4   2  -6  469.35   26.80
   4   2  -6  440.16   29.10
  -5  -3   6  166.68   16.40
  -5  -3   6  218.38   15.60
  -5  -3   6  212.68   14.20
   5   3  -6  237.28   14.20
   5   3  -6  206.28   15.30
   5   3  -6  221.18   16.90
  -6  -4   6  374.96   25.10
  -6  -4   6  360.56   23.70
  -6  -4   6  355.16   25.30
  -6  -4   6  378.36   27.00
   6   4  -6  332.27   24.70
   6   4  -6  379.36   24.20
  -7  -5   6  596.04   39.10
  -7  -5   6  582.44   40.10
  -7  -5   6  633.74   40.80
   7   5  -6  623.44   40.40
  -8  -6   6 1171.68   77.79
  -8  -6   6 1268.77   78.89
   8   6  -6 1266.17   79.29
  -9  -7   6   18.40    4.20
  -9  -7   6   16.90    4.40
   9   7  -6   17.10    5.00
 -10  -8   6    4.30    4.80
 -10  -8   6    6.10    4.30
  10   8  -6    0.40    5.50
   7   9   5  201.28   20.80
  -7  -9  -5  209.98   16.80
   6   8   5  111.29   15.10
   5   7   5   14.10    4.20
   5   7   5   15.90    5.90
  -5  -7  -5   13.50    5.30
  -5  -7  -5   11.80    3.40
   4   6   5   81.69    9.60
  -4  -6  -5  115.29   10.90
  -4  -6  -5  109.29    9.80
  -4  -6  -5  121.79    8.80
   3   5   5   51.19    6.40
  -3  -5  -5   50.39    6.30
  -3  -5  -5   53.89    5.00
  -3  -5  -5   60.59    6.80
   2   4   5   37.70    4.10
   2   4   5   41.40    5.20
   2   4   5   50.29    6.10
  -2  -4  -5   34.50    5.30
  -2  -4  -5   33.30    5.00
  -2  -4  -5   40.90    3.80
   1   3   5  103.19    9.00
   1   3   5  105.29    7.60
   1   3   5  117.29    9.40
  -1  -3  -5  116.99    9.00
  -1  -3  -5  103.09    8.80
  -1  -3  -5  114.59    7.70
   0   2   5   81.69    7.00
   0   2   5   71.69    5.00
   0   2   5   65.29    6.70
   0  -2  -5   70.29    5.00
   0  -2  -5   66.99    6.40
   0  -2  -5   75.49    6.40
  -1   1   5  146.89    9.10
  -1   1   5  142.99   10.90
   1  -1  -5  140.59    9.00
   1  -1  -5  144.59   10.50
   1  -1  -5  139.79   10.90
  -2   0   5    3.90    2.40
  -2   0   5   -0.40    1.90
   2   0  -5    1.00    0.40
   2   0  -5    2.10    2.10
   2   0  -5    3.80    1.90
  -3  -1   5  238.98   15.10
  -3  -1   5  207.78   13.40
  -3  -1   5  215.08   15.20
   3   1  -5  185.38   14.50
   3   1  -5  209.58   15.20
  -4  -2   5  374.66   25.80
  -4  -2   5  376.26   24.10
  -4  -2   5  414.76   25.80
   4   2  -5  393.96   26.00
   4   2  -5  411.46   24.10
   4   2  -5  315.67   24.90
  -5  -3   5   24.60    4.10
  -5  -3   5   29.40    5.40
   5   3  -5   30.50    3.50
   5   3  -5   30.90    4.30
   5   3  -5   36.00    5.60
  -6  -4   5  757.32   49.80
  -6  -4   5  731.13   48.80
  -6  -4   5  766.22   48.80
  -6  -4   5  675.13   47.60
   6   4  -5  767.22   47.70
   6   4  -5  836.52   49.00
  -7  -5   5  214.18   16.70
  -7  -5   5  217.48   16.00
  -7  -5   5  241.68   17.50
   7   5  -5  259.47   17.40
  -8  -6   5    9.50    3.10
  -8  -6   5   16.40    5.00
  -8  -6   5    5.10    3.00
   8   6  -5   13.10    4.00
  -9  -7   5   18.10    4.30
  -9  -7   5   18.20    4.20
   9   7  -5   16.70    4.50
 -10  -8   5   12.20    4.90
 -10  -8   5    8.40    4.20
  10   8  -5   11.90    5.40
 -11  -9   5  396.16   29.10
  11   9  -5  417.26   30.40
   7   9   4  432.76   36.90
  -7  -9  -4  428.56   29.90
   6   8   4   10.30    6.40
   5   7   4  572.44   36.50
   5   7   4  432.76   33.40
  -5  -7  -4  535.75   35.00
  -5  -7  -4  487.15   32.90
  -4  -6  -4  183.28   13.30
  -4  -6  -4  187.78   13.80
  -4  -6  -4  192.98   15.10
   3   5   4   34.00    5.40
  -3  -5  -4   45.60    5.70
  -3  -5  -4   28.70    3.90
  -3  -5  -4   35.40    4.90
   2   4   4   62.89    6.40
   2   4   4   49.80    6.00
   2   4   4   47.80    4.90
  -2  -4  -4   54.29    4.70
  -2  -4  -4   63.69    5.60
  -2  -4  -4   57.59    5.80
   1   3   4    3.20    1.40
   1   3   4    4.60    2.30
   1   3   4    2.20    1.90
  -1  -3  -4    5.50    2.10
  -1  -3  -4    4.40    1.40
  -1  -3  -4    9.70    2.20
   0   2   4  332.47   20.40
   0   2   4  298.67   19.20
   0   2   4  286.77   20.30
   0  -2  -4  311.77   20.30
   0  -2  -4  297.67   19.20
   0  -2  -4  307.17   20.20
  -1   1   4 2658.93  173.48
   1  -1  -4 2913.21  173.28
   1  -1  -4 2830.32  173.48
  -2   0   4  976.00   55.59
  -2   0   4  897.51   55.79
   2   0  -4  943.71   55.79
   2   0  -4  832.82   54.19
   2   0  -4  764.92   55.19
  -3  -1   4  894.31   56.99
  -3  -1   4  919.51   55.69
  -3  -1   4  876.71   56.69
   3   1  -4  938.51   56.59
   3   1  -4  959.40   57.19
   3   1  -4  814.42   55.59
  -4  -2   4  304.47   19.70
  -4  -2   4  274.27   19.30
  -4  -2   4  289.67   18.20
   4   2  -4  262.57   19.00
   4   2  -4  284.77   18.10
   4   2  -4  295.87   19.80
  -5  -3   4  106.69    9.20
  -5  -3   4  102.79    8.20
  -5  -3   4   92.69    8.20
   5   3  -4   83.59    8.00
   5   3  -4   98.69    7.10
  -6  -4   4  867.61   49.10
  -6  -4   4  800.22   49.70
  -6  -4   4  738.23   47.90
  -6  -4   4  769.92   48.90
   6   4  -4  642.54   48.60
   6   4  -4  743.83   47.80
  -7  -5   4 1570.84  107.49
  -7  -5   4 1661.13  106.79
  -7  -5   4 1676.93  106.19
  -7  -5   4 1884.21  107.19
   7   5  -4 1720.93  107.29
  -8  -6   4   26.30    4.30
  -8  -6   4   29.70    5.40
  -8  -6   4   35.70    5.10
   8   6  -4   27.70    4.90
  -9  -7   4   -0.50    3.00
  -9  -7   4   -0.70    3.20
   9   7  -4    2.20    4.20
 -10  -8   4  229.48   17.10
 -10  -8   4  230.88   17.90
  10   8  -4  231.18   19.00
 -11  -9   4  290.17   24.30
  11   9  -4  362.96   26.10
   7   9   3    0.30    7.90
  -7  -9  -3   10.80    4.70
   6   8   3  454.65   32.00
  -6  -8  -3  387.96   29.10
  -5  -7  -3 1449.55   88.09
  -5  -7  -3 1363.96   88.39
   4   6   3   90.09   10.50
   4   6   3   96.39    9.10
  -4  -6  -3  101.79    8.30
  -4  -6  -3  105.69    8.20
   3   5   3 1170.38   80.49
   3   5   3 1278.77   80.59
  -3  -5  -3 1352.06   80.09
  -3  -5  -3 1271.77   79.89
  -3  -5  -3 1329.57   81.19
   2   4   3  263.17   16.50
   2   4   3  233.88   16.20
   2   4   3  206.58   15.50
  -2  -4  -3  228.68   15.40
  -2  -4  -3  240.78   16.50
  -2  -4  -3  236.98   15.80
   1   3   3   26.50    2.90
   1   3   3   29.40    3.80
   1   3   3   32.80    3.60
  -1  -3  -3   24.00    3.70
  -1  -3  -3   26.70    3.30
  -1  -3  -3   27.20    2.90
   0   2   3  112.29    7.80
   0   2   3  112.59    8.50
   0   2   3  133.39    8.80
   0  -2  -3  113.89    7.80
   0  -2  -3  121.29    8.50
   0  -2  -3  123.89    8.70
  -2   0   3    0.80    1.20
  -2   0   3    0.80    1.20
   2   0  -3    0.90    1.10
   2   0  -3   -0.50    0.90
   2   0  -3    0.70    0.20
  -3  -1   3    2.90    1.50
  -3  -1   3    2.60    1.40
  -3  -1   3    2.00    0.70
   3   1  -3    2.80    0.70
   3   1  -3    4.90    1.40
   3   1  -3    3.30    1.50
  -4  -2   3  114.39    8.90
  -4  -2   3  113.49    9.00
  -4  -2   3  142.39    9.50
  -4  -2   3  111.69    8.10
   4   2  -3  127.69    8.80
   4   2  -3  128.59    9.50
   4   2  -3  112.49    8.10
  -5  -3   3 1407.36   81.59
  -5  -3   3 1182.68   80.89
  -5  -3   3 1272.67   81.69
  -5  -3   3 1254.47   81.39
   5   3  -3 1269.67   81.39
   5   3  -3 1406.06   80.69
  -6  -4   3  363.56   23.80
  -6  -4   3  350.36   23.00
  -6  -4   3  303.37   24.00
  -6  -4   3  392.06   23.90
   6   4  -3  358.76   24.20
   6   4  -3  354.06   23.00
  -7  -5   3  475.85   30.00
  -7  -5   3  509.25   30.90
  -7  -5   3  474.55   30.80
  -7  -5   3  428.96   31.20
   7   5  -3  422.46   30.90
  -8  -6   3  950.60   60.99
  -8  -6   3  914.41   60.49
  -8  -6   3 1061.19   61.29
   8   6  -3  891.41   61.59
  -9  -7   3    4.60    4.70
  -9  -7   3    8.00    3.30
  -9  -7   3    1.00    3.00
   9   7  -3   -7.10    3.90
 -10  -8   3  206.18   16.70
 -10  -8   3  201.68   15.80
  10   8  -3  228.78   18.20
 -11  -9   3   46.50    8.00
  11   9  -3   42.90    8.10
   7   9   2  110.79   15.60
  -7  -9  -2  113.59   11.40
   6   8   2   31.50    8.10
  -6  -8  -2   30.70    5.80
   5   7   2  111.59   10.20
   5   7   2  109.19   12.40
  -5  -7  -2  117.09    9.00
  -5  -7  -2  114.69    9.70
   4   6   2   36.20    6.50
   4   6   2   38.40    5.50
  -4  -6  -2   31.70    4.20
  -4  -6  -2   35.30    4.80
   3   5   2   25.10    4.30
   3   5   2   31.80    4.30
   3   5   2   25.10    4.90
  -3  -5  -2   29.00    3.50
  -3  -5  -2   29.10    3.70
   2   4   2  236.18   16.90
   2   4   2  236.28   16.60
   2   4   2  251.97   16.40
  -2  -4  -2  256.17   16.30
  -2  -4  -2  259.07   16.30
  -2  -4  -2  245.38   17.20
   1   3   2 1103.29   65.79
   1   3   2 1084.59   65.59
   1   3   2 1169.78   66.09
  -1  -3  -2 1001.70   65.59
  -1  -3  -2  982.00   66.09
  -1  -3  -2  992.80   65.49
   0   2   2   69.69    4.90
   0   2   2   60.39    4.50
   0   2   2   70.19    5.10
   0  -2  -2   61.09    4.70
   0  -2  -2   67.59    5.10
   0  -2  -2   59.49    4.50
  -1   1   2  209.68   13.60
  -1   1   2  235.48   14.20
  -1   1   2  205.48   14.20
   1  -1  -2  217.98   13.60
   1  -1  -2  208.48   14.10
   1  -1  -2  235.38   14.20
  -2   0   2  472.45   30.50
  -2   0   2  485.35   29.70
   2   0  -2  445.46   29.70
   2   0  -2  530.55   30.60
  -3  -1   2   15.80    2.20
  -3  -1   2   12.40    1.40
  -3  -1   2    8.70    1.70
   3   1  -2    9.40    1.90
   3   1  -2   13.70    1.80
   3   1  -2   13.60    1.30
  -4  -2   2  346.07   23.80
  -4  -2   2  363.56   23.20
  -4  -2   2  371.16   23.80
  -4  -2   2  379.56   23.90
   4   2  -2  386.16   23.70
   4   2  -2  354.76   23.10
  -5  -3   2   60.09    5.80
  -5  -3   2   63.89    5.40
  -5  -3   2   58.19    5.10
  -5  -3   2   55.09    5.40
   5   3  -2   52.59    4.70
   5   3  -2   60.59    5.50
  -6  -4   2 1512.15   87.99
  -6  -4   2 1209.18   87.99
  -6  -4   2 1428.26   87.49
  -6  -4   2 1414.46   88.19
   6   4  -2 1364.46   87.39
   6   4  -2 1500.65   88.39
  -7  -5   2 1279.27   87.59
  -7  -5   2 1505.35   88.19
  -7  -5   2 1346.17   88.29
   7   5  -2 1484.55   88.19
  -8  -6   2  349.67   22.90
  -8  -6   2  310.77   22.20
   8   6  -2  313.17   23.40
   8   6  -2  348.47   23.20
  -9  -7   2  246.08   17.90
  -9  -7   2  219.98   17.00
  -9  -7   2  223.28   17.20
   9   7  -2  261.07   18.90
 -10  -8   2  662.03   44.00
 -10  -8   2  654.03   44.40
  10   8  -2  711.83   46.20
 -11  -9   2  103.29   13.60
  11   9  -2  126.59   14.40
   7   9   1   45.80    9.90
  -7  -9  -1   47.00    7.30
   6   8   1    2.50    5.90
  -6  -8  -1    4.00    3.90
   5   7   1  156.58   13.80
   5   7   1  129.09   10.80
  -5  -7  -1  128.69   10.90
  -5  -7  -1  142.99   10.00
   4   6   1   66.89    8.00
   4   6   1   55.49    6.10
  -4  -6  -1   58.49    5.00
  -4  -6  -1   52.09    5.60
   3   5   1    5.10    2.10
   3   5   1    9.20    2.80
   3   5   1    9.10    3.20
  -3  -5  -1    6.50    1.60
  -3  -5  -1    5.90    2.20
   2   4   1  321.37   19.70
   2   4   1  287.07   19.10
   2   4   1  294.37   19.00
  -2  -4  -1  267.37   18.70
  -2  -4  -1  295.37   19.00
   1   3   1   18.30    3.40
   1   3   1   23.50    2.80
   1   3   1   19.30    2.30
  -1  -3  -1   20.00    2.10
   0   2   1  754.62   47.30
   0   2   1  773.22   47.70
   0   2   1  799.02   47.40
   0  -2  -1  761.92   47.20
   0  -2  -1  719.53   47.70
   0  -2  -1  767.42   47.30
  -1   1   1    6.60    0.90
  -1   1   1    9.20    1.20
  -1   1   1    8.50    1.00
   1  -1  -1    6.20    1.00
   1  -1  -1    6.70    1.00
   1  -1  -1    7.00    0.90
  -3  -1   1  873.81   55.99
  -3  -1   1  806.82   55.69
  -3  -1   1 1003.10   56.29
   3   1  -1  878.71   55.79
   3   1  -1  909.41   56.29
   3   1  -1  948.71   55.89
  -4  -2   1  319.07   20.00
  -4  -2   1  326.77   20.40
  -4  -2   1  309.47   20.30
   4   2  -1  307.27   20.50
   4   2  -1  317.77   19.90
   4   2  -1  309.17   20.30
  -5  -3   1  580.74   37.20
  -5  -3   1  570.74   37.60
  -5  -3   1  667.43   37.80
   5   3  -1  557.94   37.70
   5   3  -1  576.04   37.10
   5   3  -1  595.24   37.90
  -6  -4   1 1541.15   87.99
  -6  -4   1 1336.57   87.49
   6   4  -1 1376.56   87.49
   6   4  -1 1306.37   88.19
   6   4  -1 1550.94   87.79
   6   4  -1 1321.17   88.19
  -7  -5   1   72.99    6.70
  -7  -5   1   62.49    6.00
   7   5  -1   64.19    6.80
   7   5  -1   71.39    6.50
   7   5  -1   56.19    7.00
  -8  -6   1  422.46   27.00
  -8  -6   1  374.26   26.50
   8   6  -1  407.26   27.00
   8   6  -1  375.46   27.60
   8   6  -1  424.26   28.00
  -9  -7   1  555.54   34.00
  -9  -7   1  486.95   33.70
  -9  -7   1  511.95   34.00
   9   7  -1  485.75   35.10
 -10  -8   1   16.20    4.40
 -10  -8   1   18.10    5.20
  10   8  -1   28.60    6.20
 -11  -9   1  285.37   23.30
  11   9  -1  316.97   24.80
   7   9   0   34.40    8.50
  -7  -9   0    6.00    4.90
   6   8   0 2573.34  154.18
  -6  -8   0 2265.57  151.68
   5   7   0  134.79   12.10
  -5  -7   0  103.29    9.30
  -5  -7   0  102.49    8.10
  -5  -7   0  103.59    7.90
   4   6   0 1457.55   94.89
  -4  -6   0 1500.75   92.29
  -4  -6   0 1369.16   92.69
  -4  -6   0 1600.04   92.09
   3   5   0  183.98   12.50
   3   5   0  188.28   13.50
   3   5   0  194.08   14.50
  -3  -5   0  177.38   12.80
  -3  -5   0  173.98   12.70
   2   4   0  714.13   43.50
   2   4   0  698.13   43.90
   2   4   0  655.43   43.10
   2   4   0  680.63   44.80
  -2  -4   0  708.43   43.40
  -2  -4   0  674.63   42.90
   1   3   0  119.09    8.10
   1   3   0  124.49    8.90
   1   3   0  131.29    8.60
   1   3   0  127.89    9.60
  -1  -3   0  113.79    8.50
  -1  -3   0  121.69    8.00
   0   2   0 3793.12  230.58
   0   2   0 3548.45  230.88
   0   2   0 3883.81  230.38
  -1   1   0   17.00    1.80
  -3  -1   0   49.00    3.40
  -3  -1   0   41.30    3.00
   3   1   0   44.00    2.90
   3   1   0   36.90    3.30
   3   1   0   40.50    3.00
  -4  -2   0  467.05   27.50
  -4  -2   0  404.96   27.00
   4   2   0  448.76   27.30
   4   2   0  461.35   27.00
   4   2   0  376.46   27.40
   4   2   0  423.56   27.00
  -5  -3   0  153.58   10.70
  -5  -3   0  164.58   11.10
   5   3   0  169.08   10.70
   5   3   0  153.38   11.20
   5   3   0  156.98   11.20
   5   3   0  146.59   10.60
  -6  -4   0   76.29    6.00
  -6  -4   0   73.89    6.40
   6   4   0   71.69    6.20
   6   4   0   71.89    6.10
   6   4   0   87.79    7.30
   6   4   0   65.19    6.70
  -7  -5   0    4.60    1.90
  -7  -5   0    2.40    2.40
   7   5   0   -0.30    2.50
   7   5   0    3.80    2.90
   7   5   0    3.70    2.80
  -8  -6   0   24.50    3.80
  -8  -6   0   17.30    3.70
   8   6   0   14.30    4.80
   8   6   0   18.20    4.10
   8   6   0   19.30    4.70
  -9  -7   0  118.29   10.30
  -9  -7   0  143.49   11.20
   9   7   0  114.19   12.10
   9   7   0  116.29   11.20
 -10  -8   0    3.30    3.70
 -10  -8   0    5.50    4.10
  10   8   0    4.70    5.60
 -11  -9   0    6.50    6.40
  11   9   0    5.20    7.10
   7   9  -1   17.40    7.70
  -7  -9   1   20.90    6.10
   6   8  -1   18.80    6.60
  -6  -8   1   31.20    9.70
   5   7  -1  403.26   28.40
  -5  -7   1  399.16   24.60
  -5  -7   1  370.16   25.80
  -5  -7   1  363.26   24.70
   4   6  -1  172.48   14.40
  -4  -6   1  176.18   11.70
  -4  -6   1  174.08   11.80
  -4  -6   1  158.08   12.30
   3   5  -1   72.69    7.10
   3   5  -1   70.49    7.40
  -3  -5   1   59.79    5.20
  -3  -5   1   65.39    5.30
  -3  -5   1   68.59    5.90
   2   4  -1    8.60    2.50
   2   4  -1    6.70    2.30
  -2  -4   1    8.90    1.60
  -2  -4   1    7.10    1.50
  -2  -4   1    9.70    2.00
   1   3  -1   96.19    6.60
   1   3  -1   81.39    7.50
  -1  -3   1   82.99    6.20
  -1  -3   1   97.99    6.70
  -1  -3   1   86.49    6.10
  -1  -3   1   95.89    7.60
   0   2  -1  717.83   49.70
   0   2  -1  819.32   49.00
   0   2  -1  818.52   49.10
   0  -2   1  790.82   49.70
   0  -2   1  783.52   48.90
   0  -2   1  804.52   49.10
  -1   1  -1  942.71   56.49
  -1   1  -1  918.01   56.89
  -1   1  -1  855.81   56.49
   1  -1   1  840.42   56.39
   1  -1   1 1013.20   56.99
  -2   0  -1    0.20    0.50
  -2   0  -1    0.00    0.20
  -2   0  -1    0.30    0.40
  -2   0  -1    0.00    0.50
   2   0   1    0.40    0.50
   2   0   1    0.00    0.30
  -3  -1  -1   18.80    2.10
  -3  -1  -1   23.60    1.90
  -3  -1  -1   18.70    1.80
   3   1   1   21.30    1.90
   3   1   1   18.60    2.20
  -4  -2  -1 1347.27   86.89
  -4  -2  -1 1486.05   87.39
  -4  -2  -1 1330.87   86.99
   4   2   1 1472.75   86.89
   4   2   1 1391.26   87.39
  -5  -3  -1 2837.12  184.38
  -5  -3  -1 2940.51  184.48
  -5  -3  -1 2822.32  184.38
   5   3   1 3040.20  184.18
   5   3   1 3159.08  184.88
   5   3   1 3114.19  184.28
  -6  -4  -1  685.03   44.80
  -6  -4  -1  727.43   45.20
   6   4   1  682.03   44.80
   6   4   1  735.03   45.00
   6   4   1  771.72   46.00
   6   4   1  667.03   45.50
  -7  -5  -1  586.44   37.60
  -7  -5  -1  546.65   37.30
   7   5   1  638.74   38.80
   7   5   1  574.14   38.40
   7   5   1  572.94   37.50
  -8  -6  -1  321.57   21.30
  -8  -6  -1  311.77   21.00
   8   6   1  282.37   22.20
   8   6   1  310.17   21.30
   8   6   1  317.37   22.60
  -9  -7  -1 1084.99   64.09
  -9  -7  -1  991.40   63.89
   9   7   1  897.31   64.39
   9   7   1 1040.50   65.89
 -10  -8  -1   85.59    9.20
  10   8   1   82.79   10.30
  10   8   1   90.89   11.80
 -11  -9  -1  379.16   29.00
  11   9   1  429.56   31.10
   7   9  -2    9.10    7.50
  -7  -9   2    7.70    5.60
   6   8  -2    4.30    5.50
   5   7  -2  428.06   28.80
  -5  -7   2  404.86   25.30
  -5  -7   2  370.16   25.10
  -5  -7   2  357.76   26.10
   4   6  -2   14.80    4.40
  -4  -6   2   17.20    2.60
  -4  -6   2   12.60    2.70
  -4  -6   2   13.70    3.30
   3   5  -2  183.28   14.60
  -3  -5   2  186.38   13.10
  -3  -5   2  205.58   12.90
  -3  -5   2  159.68   14.60
  -3  -5   2  192.78   12.70
   2   4  -2 1145.89   74.19
   2   4  -2 1227.98   72.99
  -2  -4   2 1057.59   73.89
  -2  -4   2 1182.28   72.69
  -2  -4   2 1267.07   72.79
  -2  -4   2 1119.69   72.79
   1   3  -2 2680.93  171.58
   1   3  -2 2842.02  170.58
  -1  -3   2 2725.43  171.58
  -1  -3   2 2821.12  170.58
  -1  -3   2 2719.83  170.58
  -1  -3   2 2791.42  170.68
   0   2  -2   64.89    4.90
   0   2  -2   58.59    4.60
   0   2  -2   64.89    5.70
   0  -2   2   61.89    4.70
   0  -2   2   65.69    4.80
   0  -2   2   66.19    5.70
  -1   1  -2   14.80    1.90
  -1   1  -2   15.40    2.30
  -1   1  -2   19.20    1.70
   1  -1   2   13.70    1.60
   1  -1   2   16.60    2.50
   1  -1   2   14.80    1.90
  -2   0  -2  430.56   26.50
  -2   0  -2  416.76   26.20
  -2   0  -2  429.86   26.10
   2   0   2  402.06   26.60
  -3  -1  -2    4.60    1.20
  -3  -1  -2    5.70    1.40
  -3  -1  -2    3.90    0.90
   3   1   2    3.60    0.90
   3   1   2    3.90    1.20
  -4  -2  -2 4079.59  264.67
  -4  -2  -2 4152.18  264.17
  -4  -2  -2 4077.79  264.47
   4   2   2 4132.29  264.87
   4   2   2 4580.64  264.27
   4   2   2 4734.43  264.57
  -5  -3  -2 2036.60  136.89
  -5  -3  -2 2381.16  137.19
  -5  -3  -2 2112.29  136.79
   5   3   2 2462.85  136.89
   5   3   2 2142.39  136.59
   5   3   2 2125.59  137.39
  -6  -4  -2  256.37   18.00
  -6  -4  -2  281.17   17.80
  -6  -4  -2  259.87   17.30
   6   4   2  277.37   17.50
   6   4   2  226.58   18.10
   6   4   2  258.57   17.30
  -7  -5  -2    1.40    2.40
  -7  -5  -2    5.10    2.20
   7   5   2    7.50    3.10
   7   5   2    2.40    2.70
   7   5   2    1.60    3.80
  -8  -6  -2   93.69    8.80
  -8  -6  -2   92.69    8.10
   8   6   2  104.59   10.20
   8   6   2   94.79    9.80
   8   6   2   88.29    9.00
  -9  -7  -2  189.08   14.80
  -9  -7  -2  171.08   13.20
   9   7   2  186.78   15.40
   9   7   2  142.29   13.80
 -10  -8  -2  337.67   22.40
  10   8   2  271.17   23.00
  10   8   2  328.37   24.70
 -11  -9  -2   -6.60    5.80
  11   9   2   15.80    8.00
   7   9  -3  660.03   45.80
  -7  -9   3  624.64   42.90
   6   8  -3   45.80    8.30
  -6  -8   3   42.20    8.30
   5   7  -3  954.90   61.99
  -5  -7   3  901.51   59.49
  -5  -7   3  982.30   58.89
  -5  -7   3  889.21   58.49
   4   6  -3  286.17   22.10
  -4  -6   3  288.87   20.50
  -4  -6   3  293.07   20.10
  -4  -6   3  333.27   20.60
   3   5  -3    0.20    2.70
  -3  -5   3   -0.10    4.30
  -3  -5   3    9.30    2.50
  -3  -5   3    4.90    2.40
  -3  -5   3    6.10    1.90
   2   4  -3  192.98   15.10
   2   4  -3  204.58   14.00
  -2  -4   3  184.08   15.50
  -2  -4   3  205.58   13.90
  -2  -4   3  218.48   14.10
  -2  -4   3  209.28   13.90
   1   3  -3 3296.67  209.58
   1   3  -3 3517.75  209.08
   1   3  -3 3593.84  208.48
  -1  -3   3 3122.99  209.58
  -1  -3   3 3339.37  208.38
  -1  -3   3 3399.76  208.68
   0   2  -3  124.39    8.60
   0   2  -3  131.19    9.70
   0   2  -3  116.29    9.10
   0  -2   3  123.69    9.00
   0  -2   3  154.48   10.30
   0  -2   3  120.89    8.60
  -1   1  -3   21.30    2.10
  -1   1  -3   13.00    2.50
  -1   1  -3   20.10    2.70
   1  -1   3   21.40    2.60
   1  -1   3   20.40    2.00
   1  -1   3   24.40    3.40
  -2   0  -3    3.10    1.30
  -2   0  -3    0.80    0.70
  -2   0  -3    0.60    0.70
  -2   0  -3    0.00    1.10
   2   0   3    2.60    1.40
   2   0   3    2.00    1.20
  -3  -1  -3   13.80    2.20
  -3  -1  -3   16.20    1.70
  -3  -1  -3   17.10    2.60
   3   1   3   16.80    2.40
   3   1   3   16.30    2.50
   3   1   3   18.50    1.80
  -4  -2  -3    6.60    1.80
  -4  -2  -3    1.20    1.60
  -4  -2  -3    3.60    1.20
   4   2   3    2.00    1.60
   4   2   3    2.20    1.60
   4   2   3    1.70    1.10
  -5  -3  -3   78.89    7.00
  -5  -3  -3   82.59    7.00
   5   3   3   76.79    7.40
   5   3   3   84.19    6.30
   5   3   3   94.49    6.90
  -6  -4  -3  989.60   63.49
  -6  -4  -3 1065.89   64.29
   6   4   3  910.01   63.49
   6   4   3 1125.29   64.09
   6   4   3  989.90   64.79
  -7  -5  -3  137.29   11.50
  -7  -5  -3  148.99   11.60
  -7  -5  -3  147.19   10.60
   7   5   3  153.18   11.60
   7   5   3  136.79   11.70
  -8  -6  -3  471.65   32.00
  -8  -6  -3  465.95   32.40
   8   6   3  568.44   34.30
   8   6   3  463.85   33.20
  -9  -7  -3   18.00    3.90
   9   7   3   23.20    5.80
   9   7   3   17.70    5.10
 -10  -8  -3   24.00    4.90
  10   8   3   13.30    6.10
  10   8   3   32.40    7.60
 -11  -9  -3  226.68   19.50
  11   9   3  275.67   22.90
   7   9  -4  405.56   31.20
  -7  -9   4  380.16   28.10
   6   8  -4  103.29   13.20
  -6  -8   4  105.89    9.90
   5   7  -4   13.70    4.90
  -5  -7   4    5.10    3.50
  -5  -7   4   15.10    3.90
   4   6  -4    6.30    3.60
  -4  -6   4    1.20    2.40
  -4  -6   4    2.00    2.40
  -4  -6   4    8.10    3.20
   3   5  -4   67.09    8.30
  -3  -5   4   84.09    7.10
  -3  -5   4   89.59    7.70
  -3  -5   4   84.09    7.00
   2   4  -4  737.13   44.60
   2   4  -4  797.42   45.80
   2   4  -4  684.73   45.90
  -2  -4   4  717.83   44.80
  -2  -4   4  691.63   44.50
  -2  -4   4  591.94   46.10
   1   3  -4 1851.81  110.69
   1   3  -4 1546.85  110.79
   1   3  -4 1899.41  109.69
  -1  -3   4 1652.33  109.99
  -1  -3   4 1761.72  110.19
  -1  -3   4 1909.71  111.59
   0   2  -4  256.47   20.50
   0   2  -4  308.87   20.50
   0   2  -4  335.47   19.60
   0  -2   4  324.97   21.20
   0  -2   4  296.17   19.60
   0  -2   4  312.77   20.30
  -1   1  -4  332.37   19.80
  -1   1  -4  323.37   20.90
  -1   1  -4  315.27   20.80
   1  -1   4  294.17   19.80
   1  -1   4  295.67   20.70
  -2   0  -4  886.91   54.59
  -2   0  -4  845.52   53.49
  -2   0  -4  876.11   54.39
   2   0   4  881.71   54.39
   2   0   4  825.82   54.49
  -3  -1  -4   25.40    2.30
  -3  -1  -4   21.40    3.30
  -3  -1  -4   25.30    3.60
   3   1   4   25.00    2.40
   3   1   4   27.70    3.60
   3   1   4   28.20    3.40
  -4  -2  -4 3285.17  193.88
  -4  -2  -4 3194.88  193.58
  -4  -2  -4 3134.49  192.68
   4   2   4 2928.51  192.68
   4   2   4 3100.79  193.88
  -5  -3  -4  737.13   53.49
  -5  -3  -4  826.92   52.99
  -5  -3  -4  897.31   53.89
   5   3   4  792.72   52.69
   5   3   4  973.40   53.69
  -6  -4  -4  513.55   32.20
  -6  -4  -4  486.65   33.00
  -6  -4  -4  505.65   33.10
   6   4   4  438.86   32.10
   6   4   4  513.25   33.60
   6   4   4  574.84   33.20
  -7  -5  -4   84.29    8.20
  -7  -5  -4   89.59    8.80
  -7  -5  -4   96.79    7.40
   7   5   4   71.69    8.40
   7   5   4   98.39    9.00
  -8  -6  -4  883.91   57.39
  -8  -6  -4  899.01   56.19
  -8  -6  -4  930.21   57.09
   8   6   4  822.62   57.39
  -9  -7  -4   24.20    4.20
   9   7   4   17.90    5.90
   9   7   4   13.20    5.20
 -10  -8  -4  403.96   25.90
  10   8   4  314.47   27.10
  10   8   4  391.96   28.80
   7   9  -5    6.80    8.50
  -7  -9   5   17.00    7.40
   6   8  -5    9.60    6.00
  -6  -8   5   -1.90    4.10
   5   7  -5   33.40    6.90
  -5  -7   5   38.80    5.10
  -5  -7   5   37.90    5.80
   4   6  -5  236.98   19.80
  -4  -6   5  249.88   18.10
  -4  -6   5  290.17   19.10
  -4  -6   5  263.77   18.10
   3   5  -5  331.57   24.50
  -3  -5   5  331.47   22.70
  -3  -5   5  365.86   23.70
   2   4  -5 1736.43  103.79
   2   4  -5 1634.94  105.39
   2   4  -5 1755.32  105.29
  -2  -4   5 1599.24  105.99
  -2  -4   5 1620.24  103.79
  -2  -4   5 1664.93  104.39
   1   3  -5   22.00    4.30
   1   3  -5   27.40    3.40
  -1  -3   5   20.80    5.20
  -1  -3   5   23.20    3.90
   0   2  -5   68.39    6.80
   0   2  -5   67.19    6.60
   0   2  -5   73.79    5.30
   0  -2   5   63.59    6.40
   0  -2   5   66.09    5.40
   0  -2   5   67.79    7.40
  -1   1  -5  394.46   23.80
  -1   1  -5  381.76   25.10
  -1   1  -5  350.36   25.10
   1  -1   5  404.16   25.40
   1  -1   5  361.56   23.80
   1  -1   5  371.26   25.10
  -2   0  -5    0.50    0.90
  -2   0  -5    2.50    2.10
  -2   0  -5    1.60    2.20
  -2   0  -5   -0.50    0.90
   2   0   5   -0.20    2.00
   2   0   5    2.50    2.10
  -3  -1  -5 1543.85   93.19
  -3  -1  -5 1546.35   93.49
  -3  -1  -5 1309.17   91.99
   3   1   5 1427.66   93.19
   3   1   5 1628.74   92.29
  -4  -2  -5  528.55   36.90
  -4  -2  -5  587.84   38.30
   4   2   5  676.73   38.40
   4   2   5  608.94   37.10
   4   2   5  557.64   38.40
  -5  -3  -5  178.38   13.80
  -5  -3  -5  187.78   13.40
  -5  -3  -5  190.48   12.40
   5   3   5  189.38   13.70
   5   3   5  169.38   12.50
   5   3   5  196.48   13.90
  -6  -4  -5    4.80    1.70
  -6  -4  -5    4.30    3.10
  -6  -4  -5    2.10    2.50
   6   4   5    3.50    2.50
   6   4   5    4.80    3.10
  -7  -5  -5   37.10    5.90
  -7  -5  -5   45.50    4.80
   7   5   5   42.60    6.60
  -8  -6  -5  168.48   13.50
  -8  -6  -5  166.88   11.90
   8   6   5  134.89   13.50
  -9  -7  -5  986.70   63.09
  -9  -7  -5 1000.00   61.19
   9   7   5  866.41   62.69
   9   7   5  980.90   63.69
 -10  -8  -5   12.10    4.90
  10   8   5    3.10    7.00
  10   8   5    7.60    7.00
  -7  -9   6   45.60    8.20
   6   8  -6  663.93   46.50
  -6  -8   6  679.63   44.40
   5   7  -6   98.19   10.80
  -5  -7   6   93.79    8.90
  -5  -7   6   79.69    8.00
   4   6  -6   26.10    5.70
  -4  -6   6   35.50    5.90
  -4  -6   6   43.20    5.40
  -4  -6   6   39.90    5.30
   3   5  -6   54.99    8.00
  -3  -5   6   78.59    6.80
  -3  -5   6   73.49    8.60
  -3  -5   6   82.19    7.20
   2   4  -6  574.14   39.80
   2   4  -6  614.24   41.80
   2   4  -6  668.43   41.80
  -2  -4   6  657.33   40.90
  -2  -4   6  627.54   40.00
   1   3  -6 1165.88   77.69
   1   3  -6 1240.88   75.99
   1   3  -6 1140.29   77.59
  -1  -3   6 1263.07   76.19
  -1  -3   6 1255.47   78.59
  -1  -3   6 1260.07   77.29
   0   2  -6  146.29    9.80
   0   2  -6  143.99   11.70
   0   2  -6  139.89   11.30
   0  -2   6  135.49    9.90
   0  -2   6  154.58   12.50
   0  -2   6  140.39   11.10
  -1   1  -6   58.99    6.00
  -1   1  -6   63.19    4.60
  -1   1  -6   57.29    6.60
   1  -1   6   79.39    7.10
   1  -1   6   56.19    6.00
   1  -1   6   53.69    4.80
  -2   0  -6  532.45   33.10
  -2   0  -6  549.35   34.60
  -2   0  -6  498.25   34.70
  -2   0  -6  538.15   33.10
   2   0   6  489.65   34.70
   2   0   6  566.44   34.90
  -3  -1  -6  231.28   16.00
  -3  -1  -6  224.28   16.50
  -3  -1  -6  228.78   14.70
  -3  -1  -6  250.27   14.80
   3   1   6  223.28   16.50
   3   1   6  210.08   16.10
  -4  -2  -6  240.08   17.00
  -4  -2  -6  206.38   15.10
  -4  -2  -6  250.87   16.60
   4   2   6  251.47   15.40
   4   2   6  226.28   16.90
  -5  -3  -6   53.79    6.00
  -5  -3  -6   53.89    6.90
  -5  -3  -6   63.89    4.80
   5   3   6   50.99    5.10
   5   3   6   55.49    6.40
   5   3   6   57.89    7.20
  -6  -4  -6   43.70    4.20
  -6  -4  -6   42.60    5.60
   6   4   6   30.40    5.50
   6   4   6   49.50    5.70
  -7  -5  -6   62.19    7.40
  -7  -5  -6   58.19    5.80
   7   5   6   63.19    8.10
  -8  -6  -6   32.40    6.40
  -8  -6  -6   44.10    5.10
   8   6   6   27.50    6.20
  -9  -7  -6   54.99    8.50
  -9  -7  -6   45.60    5.90
   9   7   6   34.30    7.10
 -10  -8  -6  258.87   18.10
  10   8   6  227.18   21.50
  10   8   6  210.98   28.50
   6   8  -7  155.28   17.00
  -6  -8   7  146.69   13.70
   5   7  -7    3.50    5.10
  -5  -7   7    8.70    3.10
  -5  -7   7    7.60    3.80
   4   6  -7    7.70    4.00
  -4  -6   7   10.70    3.30
  -4  -6   7    5.40    3.00
   3   5  -7   52.59    9.20
   3   5  -7   51.49    7.20
  -3  -5   7   47.40    5.60
  -3  -5   7   56.79    6.30
   2   4  -7  956.50   62.99
   2   4  -7  851.11   62.29
  -2  -4   7 1076.59   62.29
  -2  -4   7  979.50   60.79
   1   3  -7 1128.99   75.49
   1   3  -7 1326.37   73.59
   1   3  -7 1162.18   75.29
  -1  -3   7 1144.99   74.99
  -1  -3   7 1124.19   73.49
   0   2  -7   61.79    7.20
   0   2  -7   87.89    6.00
   0   2  -7   79.29    8.80
   0  -2   7   73.19    6.20
   0  -2   7   81.39    7.40
  -1   1  -7   20.60    4.00
  -1   1  -7   18.30    4.10
   1  -1   7   12.60    4.10
   1  -1   7   24.90    3.10
   1  -1   7   17.50    3.60
  -2   0  -7    0.30    2.20
  -2   0  -7    2.40    1.40
  -2   0  -7    3.50    3.00
  -2   0  -7    2.00    1.20
   2   0   7    2.20    2.20
   2   0   7   -0.30    3.20
  -3  -1  -7 2461.75  141.49
  -3  -1  -7 2421.66  143.09
  -3  -1  -7 2237.28  143.69
  -3  -1  -7 2060.79  141.19
   3   1   7 2281.17  143.59
  -4  -2  -7 1469.15   90.89
  -4  -2  -7 1340.37   92.39
   4   2   7 1421.16   93.09
   4   2   7 1640.14   91.29
  -5  -3  -7  184.88   12.00
  -5  -3  -7  161.68   13.30
   5   3   7  185.78   12.40
   5   3   7  181.08   14.30
  -6  -4  -7  260.07   17.70
  -6  -4  -7  285.67   19.60
   6   4   7  259.67   20.00
  -7  -5  -7  864.91   53.79
  -7  -5  -7  844.02   55.59
   7   5   7  846.22   56.29
  -8  -6  -7  344.27   22.70
  -8  -6  -7  328.97   24.80
   8   6   7  338.17   25.30
  -9  -7  -7  339.27   26.40
  -9  -7  -7  386.66   24.20
   9   7   7  324.27   26.70
 -10  -8  -7   39.40    5.90
  10   8   7   14.60    9.30
   6   8  -8   63.99   10.60
  -6  -8   8   75.79   10.00
   5   7  -8   51.09    8.80
  -5  -7   8   61.29    7.50
  -5  -7   8   52.79    6.80
   4   6  -8  417.56   29.70
  -4  -6   8  376.56   27.30
  -4  -6   8  433.96   28.30
   3   5  -8  416.86   27.90
  -3  -5   8  377.56   26.60
  -3  -5   8  363.76   25.60
   2   4  -8  624.44   42.90
  -2  -4   8  652.33   42.50
  -2  -4   8  648.24   41.10
   1   3  -8  177.88   13.80
   1   3  -8  170.38   11.60
  -1  -3   8  165.28   13.20
  -1  -3   8  153.28   11.60
   0   2  -8  249.28   14.60
   0   2  -8  201.78   16.50
   0  -2   8  201.88   14.80
   0  -2   8  223.98   16.60
  -1   1  -8    1.20    1.50
  -1   1  -8   -0.60    2.50
   1  -1   8    1.30    2.30
   1  -1   8    1.10    1.70
  -2   0  -8 2367.16  157.08
   2   0   8 2666.83  157.88
  -3  -1  -8  190.88   11.90
  -3  -1  -8  180.18   11.60
  -3  -1  -8  157.88   13.40
   3   1   8  174.88   14.20
  -4  -2  -8  375.66   26.90
  -4  -2  -8  395.06   25.00
   4   2   8  411.46   25.50
   4   2   8  393.26   27.60
  -5  -3  -8   22.40    4.30
  -5  -3  -8   29.30    3.20
   5   3   8   42.40    4.60
   5   3   8   22.50    5.00
  -6  -4  -8   46.80    7.20
  -6  -4  -8   60.39    5.10
   6   4   8   53.29    8.20
  -7  -5  -8   13.30    2.80
  -7  -5  -8   13.80    4.70
   7   5   8    6.70    4.70
  -8  -6  -8  767.12   48.00
  -8  -6  -8  733.83   50.19
   8   6   8  751.72   51.19
  -9  -7  -8  109.79   10.00
  -9  -7  -8  111.79   14.20
   9   7   8  104.29   14.00
   6   8  -9   34.40    9.10
  -6  -8   9   36.10    6.90
  -5  -7   9    4.00    4.40
  -5  -7   9   -4.00    4.00
   4   6  -9   12.80    5.30
  -4  -6   9   10.10    3.80
  -4  -6   9   15.30    4.20
   3   5  -9   23.40    5.90
  -3  -5   9   23.60    5.20
  -3  -5   9   25.10    4.30
   2   4  -9  135.59   13.30
  -2  -4   9  168.18   13.40
  -2  -4   9  160.58   11.50
   1   3  -9  106.99   11.30
   1   3  -9  136.39    9.20
  -1  -3   9  114.39    9.10
  -1  -3   9  131.59   11.50
   0   2  -9  189.18   11.40
   0   2  -9  137.09   13.60
   0  -2   9  165.98   11.80
   0  -2   9  157.38   13.60
  -1   1  -9   75.99    8.30
  -1   1  -9   88.19    6.20
   1  -1   9   71.69    8.20
   1  -1   9   81.69    6.30
  -2   0  -9    0.80    1.30
  -2   0  -9    1.10    1.60
  -2   0  -9    0.80    2.90
   2   0   9    5.40    2.90
  -3  -1  -9  545.05   39.90
  -3  -1  -9  677.23   38.10
  -3  -1  -9  599.44   37.80
   3   1   9  588.74   41.00
  -4  -2  -9  362.56   25.10
  -4  -2  -9  439.46   25.60
  -4  -2  -9  400.46   27.60
   4   2   9  385.66   28.10
  -5  -3  -9   67.29    8.00
  -5  -3  -9   63.09    5.40
   5   3   9   77.39    8.80
   5   3   9   71.29    6.90
  -6  -4  -9  296.47   22.10
  -6  -4  -9  311.07   19.90
   6   4   9  298.97   23.00
  -7  -5  -9   91.79   10.20
  -7  -5  -9   86.89    7.40
   7   5   9   84.99   11.40
  -8  -6  -9    7.60    3.00
  -8  -6  -9   -4.40    4.80
   8   6   9   -5.50    5.90
  -9  -7  -9  149.99   12.50
   9   7   9  115.79   16.00
   5   7 -10   -1.10    5.70
  -5  -7  10    2.70    4.50
   4   6 -10  155.78   16.10
  -4  -6  10  158.68   13.80
  -4  -6  10  136.29   12.20
   3   5 -10  888.51   57.89
  -3  -5  10  887.01   57.39
  -3  -5  10  835.42   55.29
   2   4 -10   43.40    7.10
  -2  -4  10   41.80    6.80
  -2  -4  10   44.90    5.60
   1   3 -10   19.00    4.80
   1   3 -10   22.20    3.20
  -1  -3  10   15.10    3.10
  -1  -3  10   15.90    4.40
   0   2 -10  196.18   12.50
   0   2 -10  187.58   15.40
   0  -2  10  176.18   13.40
   0  -2  10  175.68   15.40
  -1   1 -10    1.90    3.60
  -1   1 -10   -1.20    1.80
  -1   1 -10    2.50    1.70
   1  -1  10   -4.10    3.00
  -2   0 -10 2238.38  147.59
  -2   0 -10 2334.47  150.38
  -2   0 -10 2644.84  147.69
   2   0  10 2351.66  151.08
  -3  -1 -10   76.59    5.60
  -3  -1 -10   61.19    7.50
  -3  -1 -10   61.99    5.10
   3   1  10   66.49    8.60
  -4  -2 -10  840.32   59.99
  -4  -2 -10  919.51   57.49
  -4  -2 -10 1012.60   57.89
   4   2  10  917.81   61.19
  -5  -3 -10   23.30    3.70
  -5  -3 -10   21.10    2.80
  -5  -3 -10   17.20    4.90
   5   3  10   25.90    5.70
  -6  -4 -10  472.25   33.80
  -6  -4 -10  501.15   31.30
   6   4  10  494.35   35.20
  -7  -5 -10   39.40    5.10
  -7  -5 -10   33.20    7.10
   7   5  10   35.00    8.10
  -8  -6 -10  118.69   16.60
  -8  -6 -10  150.88   10.90
   8   6  10  128.29   16.30
   5   7 -11  655.33   41.50
  -5  -7  11  560.44   39.00
  -5  -7  11  492.15   37.40
   4   6 -11  141.09   15.60
  -4  -6  11  185.88   15.10
  -4  -6  11  148.69   13.00
   3   5 -11   63.19   10.30
  -3  -5  11   63.79    7.50
  -3  -5  11   69.89    9.40
   2   4 -11   42.50    7.30
  -2  -4  11   47.50    6.10
  -2  -4  11   53.39    8.00
   1   3 -11   14.10    5.70
   1   3 -11    9.40    3.00
  -1  -3  11   13.20    3.00
  -1  -3  11    5.10    3.80
   0   2 -11   70.79    9.50
   0   2 -11   64.39    5.70
   0  -2  11   63.99    9.00
  -1   1 -11  850.11   55.59
  -1   1 -11  881.31   52.09
  -1   1 -11  819.42   52.19
   1  -1  11  786.82   55.79
  -2   0 -11   -1.60    4.00
  -2   0 -11    3.40    1.80
  -2   0 -11    1.20    1.50
   2   0  11    0.00    3.80
  -3  -1 -11 1658.73  114.49
  -3  -1 -11 1801.12  111.59
  -3  -1 -11 1992.00  111.89
   3   1  11 1769.12  115.89
  -4  -2 -11    3.10    1.90
  -4  -2 -11   -2.00    3.90
  -4  -2 -11    5.80    2.70
   4   2  11   -1.60    4.30
  -5  -3 -11   88.99   10.50
  -5  -3 -11   86.19    6.50
   5   3  11   75.29   11.20
  -6  -4 -11   83.09    6.80
  -6  -4 -11   79.09   10.30
   6   4  11   92.99   11.90
  -7  -5 -11  299.07   20.00
  -8  -6 -11  209.98   20.40
  -8  -6 -11  228.58   16.10
   8   6  11  243.08   22.50
   4   6 -12   31.00    7.90
  -4  -6  12   18.40    6.60
  -4  -6  12   20.80    5.50
   3   5 -12  348.57   29.70
  -3  -5  12  412.46   27.40
  -3  -5  12  457.35   30.40
   2   4 -12  183.58   17.00
  -2  -4  12  193.28   16.90
  -2  -4  12  175.48   13.60
   1   3 -12   40.40    7.60
  -1  -3  12   39.20    7.40
  -1  -3  12   35.00    4.70
   0   2 -12  294.47   22.60
   0   2 -12  313.57   20.00
   0  -2  12  259.17   22.80
  -1   1 -12   57.79    5.10
  -1   1 -12   52.09    8.70
   1  -1  12   54.59    9.00
  -2   0 -12   69.79    9.90
  -2   0 -12   75.79    5.70
   2   0  12   99.49   11.00
  -3  -1 -12   54.69    4.30
  -3  -1 -12   57.79    9.20
   3   1  12   46.70    8.90
  -4  -2 -12    2.40    5.00
  -4  -2 -12   14.10    2.20
   4   2  12   11.90    6.20
  -5  -3 -12  145.29    9.90
  -5  -3 -12  141.09   13.60
  -6  -4 -12  300.17   20.20
  -6  -4 -12  302.27   23.30
   6   4  12  322.87   25.90
  -7  -5 -12    1.50    6.10
   7   5  12   10.80    7.70
   3   5 -13  254.57   20.80
  -3  -5  13  175.88   15.50
  -3  -5  13  201.58   18.80
   2   4 -13    8.50    5.90
  -2  -4  13    7.20    4.00
  -2  -4  13   11.90    5.70
   1   3 -13   17.70    6.20
  -1  -3  13   30.30    4.40
  -1  -3  13   21.40    8.20
   0   2 -13  133.29   14.20
  -1   1 -13  396.66   30.60
   1  -1  13  379.66   37.10
  -2   0 -13   11.20    7.90
   2   0  13    3.50    5.90
  -3  -1 -13   40.70    8.30
   3   1  13   37.20    8.00
  -4  -2 -13    4.50    5.60
   4   2  13    5.60    6.70
  -5  -3 -13  536.55   37.30
   5   3  13  510.15   39.20
  -6  -4 -13  357.96   27.30
   6   4  13  333.07   29.10
   3   5 -14   17.30    8.00
   2   4 -14   79.09   13.90
  -2  -4  14   68.49   11.60
   1   3 -14   11.40    7.00
  -1  -3  14    1.70    6.60
   0   2 -14  851.11   57.29
   0  -2  14  822.22   57.59
  -1   1 -14  136.29   15.30
   1  -1  14  126.49   15.80
  -2   0 -14  514.85   38.40
   2   0  14  574.64   40.60
  -3  -1 -14  226.58   20.40
   3   1  14  202.18   20.80
  -4  -2 -14   10.60    7.40
   4   2  14   -2.60    7.30
  -5  -3 -14    5.50    7.70
   5   3  14    9.70   10.30
   1   3 -15   90.49   13.30
  -1  -3  15  104.89   15.90
   0   2 -15  251.77   22.70
   0  -2  15  207.48   23.70
  -1   1 -15  302.37   26.50
   1  -1  15  276.87   27.40
  -2   0 -15   -1.00    8.50
   2   0  15   12.90   10.50
  -3  -1 -15   43.50   11.50
   3   1  15   30.90    9.40
  -4  -2 -15    8.90    6.90
   4   2  15    8.50    8.20
  -3   1  16   12.50    9.50
   3  -1 -16    2.60    8.10
  -4   0  16  871.81   59.09
   4   0 -16  774.82   56.09
  -5  -1  16   64.89   14.20
   5   1 -16   99.89   14.60
  -1   3  15  100.99   16.10
   1  -3 -15   76.79   11.80
  -2   2  15   17.10    9.90
   2  -2 -15    3.50    8.80
  -3   1  15  123.29   17.30
   3  -1 -15   98.49   14.60
  -4   0  15    0.60    8.00
   4   0 -15    6.80    7.60
  -5  -1  15 1336.87   85.59
   5   1 -15 1209.28   82.89
  -6  -2  15    5.20    8.50
   6   2 -15    4.30    5.40
  -7  -3  15   37.00   12.00
   7   3 -15   36.60   10.60
   0   4  14  147.99   18.60
   0  -4 -14  128.79   17.30
  -1   3  14    5.00    7.90
   1  -3 -14    8.00    6.10
  -2   2  14   48.90   10.10
   2  -2 -14   65.09   10.10
  -3   1  14   50.19    9.90
   3  -1 -14   36.30    7.70
  -4   0  14  421.96   33.20
   4   0 -14  434.26   31.70
  -5  -1  14  173.88   18.90
   5   1 -14  198.08   17.10
  -6  -2  14   45.50    9.50
   6   2 -14   49.00    8.40
  -7  -3  14   67.99   11.20
   7   3 -14   53.99    9.40
  -8  -4  14   12.20    6.90
   8   4 -14    0.40    5.90
   1   5  13  430.66   34.30
  -1  -5 -13  441.06   32.70
   0   4  13   34.50    8.90
   0  -4 -13   32.20    7.70
  -1   3  13   22.90    8.70
   1  -3 -13   25.40    7.20
  -2   2  13   16.50    7.50
   2  -2 -13    1.30    5.30
  -3   1  13  377.56   27.50
   3  -1 -13  301.37   26.30
  -4   0  13   -5.30    5.30
   4   0 -13    6.40    5.10
  -5  -1  13   -3.80    5.30
   5   1 -13    0.20    4.80
   6   2 -13   27.50    7.40
  -7  -3  13  243.78   20.50
   7   3 -13  243.48   21.10
  -8  -4  13  113.59   14.10
   8   4 -13  102.49   12.70
  -9  -5  13  368.66   28.40
   9   5 -13  346.17   27.10
   2   6  12  537.65   41.00
  -2  -6 -12  578.54   40.40
   1   5  12   53.39   10.00
  -1  -5 -12   51.49    9.10
   0   4  12  225.58   19.90
   0  -4 -12  215.88   18.40
  -1   3  12   29.10    6.80
   1  -3 -12   34.90    7.00
  -2   2  12   17.90    6.40
   2  -2 -12   19.20    5.30
  -3   1  12  424.76   29.70
   3  -1 -12  363.76   28.10
  -4   0  12 4524.55  266.57
   4   0 -12 3976.90  264.27
  -5  -1  12  128.19   13.00
   5   1 -12  127.19   12.00
  -6  -2  12    7.50    2.50
  -6  -2  12    9.10    5.40
   6   2 -12   11.90    4.10
  -7  -3  12    8.80    2.80
  -7  -3  12   10.00    5.00
   7   3 -12    8.60    4.60
  -8  -4  12  514.45   35.30
  -8  -4  12  460.45   31.30
   8   4 -12  479.95   33.90
  -9  -5  12  544.15   37.30
   9   5 -12  606.74   40.20
 -10  -6  12  433.86   31.20
 -10  -6  12  486.15   34.40
  10   6 -12  476.55   33.90
   3   7  11   88.39   13.70
  -3  -7 -11  115.49   15.60
   2   6  11  934.61   66.69
  -2  -6 -11 1033.70   62.79
  -2  -6 -11 1022.90   66.59
   1   5  11   -9.00    5.20
  -1  -5 -11    8.30    2.10
   0   4  11   11.20    5.40
   0  -4 -11   16.90    5.20
   0  -4 -11   15.60    2.40
  -1   3  11   15.70    5.50
   1  -3 -11   15.40    5.20
  -2   2  11  130.59   12.90
   2  -2 -11  118.29   11.40
  -3   1  11  329.47   24.00
   3  -1 -11  287.27   22.10
  -4   0  11   -0.80    3.80
   4   0 -11    3.80    3.20
  -5  -1  11   84.69    9.70
   5   1 -11   76.19    8.40
  -6  -2  11   13.00    2.70
  -6  -2  11   15.30    4.70
   6   2 -11   10.70    1.90
   6   2 -11   19.90    5.10
  -7  -3  11   -1.10    2.20
  -7  -3  11    4.00    4.30
   7   3 -11    2.80    3.80
   7   3 -11    1.30    2.20
  -8  -4  11   -0.50    2.80
  -8  -4  11    5.00    4.60
   8   4 -11   15.60    4.90
  -9  -5  11  125.19   12.50
  -9  -5  11  115.89    9.80
   9   5 -11   97.29   11.40
 -10  -6  11  196.58   17.80
 -10  -6  11  194.98   15.40
 -11  -7  11   35.80    7.90
 -11  -7  11   20.40    6.60
  11   7 -11   32.10    8.30
   3   7  10  451.05   35.70
  -3  -7 -10  499.55   31.70
  -3  -7 -10  499.45   35.90
   2   6  10  354.86   29.00
  -2  -6 -10  422.66   25.80
   1   5  10   43.60    7.60
  -1  -5 -10   37.50    6.80
  -1  -5 -10   43.90    4.40
   0   4  10   20.50    3.90
   0   4  10   16.10    5.30
   0  -4 -10   18.10    2.70
   0  -4 -10   18.30    4.90
  -1   3  10   14.80    5.00
   1  -3 -10   17.80    4.80
   1  -3 -10   18.70    2.30
  -2   2  10  789.72   50.49
   2  -2 -10  710.13   48.90
  -3   1  10  143.69   12.90
   3  -1 -10  139.19   11.80
  -4   0  10    4.00    3.00
   4   0 -10    4.00    3.00
  -5  -1  10   41.30    3.40
  -5  -1  10   43.70    6.60
   5   1 -10   45.50    6.30
   5   1 -10   41.20    3.00
  -6  -2  10   52.89    7.40
  -6  -2  10   41.20    4.50
   6   2 -10   38.10    3.60
   6   2 -10   28.00    5.20
  -7  -3  10  255.67   19.50
  -7  -3  10  230.58   16.40
   7   3 -10  240.78   16.10
   7   3 -10  261.67   18.60
  -8  -4  10  139.99   13.00
  -8  -4  10  121.69   10.40
   8   4 -10  165.48   12.80
  -9  -5  10 1140.39   74.69
  -9  -5  10 1113.59   72.19
   9   5 -10 1183.18   74.19
 -10  -6  10   77.39    8.70
 -10  -6  10   68.89   10.80
  10   6 -10  101.49   10.60
 -11  -7  10   54.89    8.10
 -11  -7  10   37.50    6.40
  -4  -8  -9   53.29   10.50
   3   7   9  450.15   36.20
  -3  -7  -9  537.95   33.70
  -3  -7  -9  559.94   37.40
   2   6   9  128.19   14.00
  -2  -6  -9  162.78   11.40
  -2  -6  -9  169.98   14.30
   1   5   9  535.55   36.60
  -1  -5  -9  493.75   36.00
  -1  -5  -9  549.15   33.60
   0   4   9   15.60    4.30
   0   4   9   15.80    3.00
   0  -4  -9    9.30    3.80
  -1   3   9  135.59    8.90
  -1   3   9  132.09   12.00
   1  -3  -9  120.29   10.90
   1  -3  -9  126.29    8.60
  -2   2   9   55.99    7.80
   2  -2  -9   70.29    7.00
  -3   1   9 3298.67  195.18
   3  -1  -9 2934.41  193.78
  -4   0   9    3.30    2.90
   4   0  -9    3.80    2.70
  -5  -1   9   76.89    5.50
  -5  -1   9   82.39    8.60
   5   1  -9   74.89    5.20
   5   1  -9   82.79    7.70
  -6  -2   9   98.49   10.00
  -6  -2   9   96.09    7.40
   6   2  -9   93.89    8.90
   6   2  -9  103.59    6.90
  -7  -3   9  183.28   12.50
  -7  -3   9  194.28   15.20
   7   3  -9  189.78   14.20
   7   3  -9  165.18   12.20
  -8  -4   9 1134.79   72.89
  -8  -4   9 1110.79   70.39
  -9  -5   9  803.92   53.89
  -9  -5   9  821.52   51.89
 -10  -6   9  115.69   12.00
 -10  -6   9  113.99   10.40
  10   6  -9  126.69   11.60
 -11  -7   9   42.10    8.20
 -11  -7   9   48.30    7.50
  11   7  -9   33.40    6.40
  -4  -8  -8  333.77   27.40
   3   7   8  150.48   15.00
  -3  -7  -8  171.28   12.50
  -3  -7  -8  176.78   16.40
   2   6   8   11.90    4.80
  -2  -6  -8   21.90    3.30
  -2  -6  -8   25.50    6.00
   1   5   8   81.69    9.20
   1   5   8   77.19    8.10
  -1  -5  -8   87.79    9.60
  -1  -5  -8   91.49    6.80
   0   4   8    7.90    3.40
   0   4   8    0.20    2.10
   0  -4  -8    7.70    3.50
  -1   3   8  152.78   13.40
  -1   3   8  176.18   10.90
   1  -3  -8  160.58   12.80
   1  -3  -8  157.68   10.70
  -2   2   8    9.00    3.30
   2  -2  -8    7.80    2.90
  -3   1   8   10.60    3.20
   3  -1  -8    9.00    2.90
  -4   0   8  147.19   11.90
   4   0  -8  129.29   10.80
  -5  -1   8    1.80    2.50
  -5  -1   8    1.40    1.20
   5   1  -8    4.20    2.30
  -6  -2   8   30.00    3.60
  -6  -2   8   26.60    5.10
   6   2  -8   27.80    2.90
   6   2  -8   35.80    5.10
  -7  -3   8   92.09    9.00
  -7  -3   8   86.89    6.80
   7   3  -8   85.09    8.30
   7   3  -8   83.09    6.60
  -8  -4   8 2096.29  133.29
  -8  -4   8 2184.38  135.59
   8   4  -8 2165.38  134.69
  -9  -5   8  784.82   53.39
  -9  -5   8  821.42   55.39
   9   5  -8  916.31   54.89
 -10  -6   8  103.99   10.30
 -10  -6   8   84.49    8.80
  10   6  -8   91.59    9.70
 -11  -7   8  155.68   13.40
 -11  -7   8  118.39   16.50
  11   7  -8  127.49   12.90
 -12  -8   8  468.25   32.20
 -12  -8   8  417.86   31.50
  12   8  -8  462.85   32.30
   4   8   7   33.70    8.50
  -4  -8  -7   20.30    8.80
  -4  -8  -7   22.90    5.00
   3   7   7   22.00    5.70
  -3  -7  -7   27.40    7.00
  -3  -7  -7   17.10    3.50
   2   6   7   10.10    4.50
  -2  -6  -7   15.10    4.70
  -2  -6  -7   15.00    2.90
   1   5   7   22.00    4.40
  -1  -5  -7   20.40    2.90
  -1  -5  -7   20.40    4.40
   0   4   7   87.99    6.60
   0   4   7   83.29    8.20
   0  -4  -7   82.59    6.20
   0  -4  -7   77.39    8.20
   0  -4  -7   80.49    8.90
  -1   3   7 1147.39   71.39
  -1   3   7 1256.17   73.89
   1  -3  -7 1028.80   72.89
   1  -3  -7 1170.38   71.39
   1  -3  -7 1160.28   73.39
  -2   2   7 1665.93  108.79
  -2   2   7 1790.52  106.39
   2  -2  -7 1678.03  106.29
   2  -2  -7 1778.82  108.39
   2  -2  -7 1716.03  108.69
  -3   1   7   10.60    3.90
   3  -1  -7    9.40    3.50
   3  -1  -7   16.30    3.10
  -4   0   7   -0.50    2.20
  -4   0   7    0.40    3.00
   4   0  -7    0.90    1.80
   4   0  -7    2.70    2.90
  -5  -1   7  291.07   19.00
  -5  -1   7  282.57   21.30
  -5  -1   7  313.97   21.50
   5   1  -7  319.17   20.70
   5   1  -7  300.37   22.00
  -6  -2   7  385.56   27.70
  -6  -2   7  411.56   25.80
  -6  -2   7  399.46   28.10
   6   2  -7  385.16   27.00
   6   2  -7  436.66   25.60
  -7  -3   7  202.48   15.50
  -7  -3   7  193.28   13.30
  -7  -3   7  178.98   16.90
   7   3  -7  207.08   13.30
   7   3  -7  200.98   14.50
  -8  -4   7 1656.43  102.29
  -8  -4   7 1669.03  104.19
   8   4  -7 1605.74  103.39
  -9  -5   7  417.36   29.20
  -9  -5   7  431.06   27.70
   9   5  -7  411.76   28.70
 -10  -6   7   19.30    4.10
 -10  -6   7   19.50    4.80
  10   6  -7   17.70    4.50
 -11  -7   7    0.50    4.10
 -11  -7   7    7.30    4.20
  11   7  -7    1.10    3.90
 -12  -8   7  228.68   17.80
 -12  -8   7  185.68   17.70
  12   8  -7  230.78   18.30
   5   9   6   73.09   13.70
  -5  -9  -6   60.79    7.80
   4   8   6 1584.84  100.89
  -4  -8  -6 1487.25   96.39
   3   7   6   58.19    8.70
  -3  -7  -6   71.59   10.40
  -3  -7  -6   84.19    7.30
   2   6   6  721.53   48.30
  -2  -6  -6  677.13   48.60
  -2  -6  -6  770.72   47.90
  -2  -6  -6  779.32   47.00
   1   5   6  194.38   15.80
  -1  -5  -6  227.38   16.50
  -1  -5  -6  218.18   16.10
  -1  -5  -6  219.38   14.50
   0   4   6  214.38   15.70
   0   4   6  203.48   14.20
   0  -4  -6  215.88   15.70
   0  -4  -6  220.68   14.20
   0  -4  -6  217.18   15.90
  -1   3   6 1213.08   79.09
  -1   3   6 1220.08   77.29
  -1   3   6 1437.76   79.39
   1  -3  -6 1182.78   78.79
   1  -3  -6 1210.08   77.39
   1  -3  -6 1239.68   78.99
  -2   2   6 9030.40  582.44
  -2   2   6 9999.00  582.34
   2  -2  -6 9313.67  582.34
  -3   1   6   78.19    7.40
  -3   1   6   66.39    6.90
   3  -1  -6   85.19    6.70
   3  -1  -6   71.09    7.30
  -4   0   6   19.70    3.70
  -4   0   6   14.00    2.90
   4   0  -6   15.30    3.50
   4   0  -6   20.70    3.30
  -5  -1   6   11.30    2.90
  -5  -1   6   14.80    3.70
  -5  -1   6   15.30    2.00
   5   1  -6   11.80    3.70
   5   1  -6   10.90    2.70
   5   1  -6   15.40    1.80
  -6  -2   6  209.18   16.40
  -6  -2   6  222.68   14.50
  -6  -2   6  205.38   16.10
   6   2  -6  229.98   15.60
   6   2  -6  236.98   14.40
   6   2  -6  221.58   17.10
  -7  -3   6  717.63   47.30
  -7  -3   6  709.33   47.40
  -7  -3   6  760.62   48.00
  -7  -3   6  731.23   45.60
   7   3  -6  694.13   45.50
   7   3  -6  743.23   46.60
  -8  -4   6   70.19    9.00
  -8  -4   6   75.79   10.30
  -8  -4   6   72.79    6.20
  -8  -4   6   63.19    7.30
   8   4  -6   80.89    7.20
  -9  -5   6    9.00    3.30
  -9  -5   6   11.70    3.00
   9   5  -6    8.80    3.20
 -10  -6   6   -1.30    2.80
 -10  -6   6   -4.10    3.00
  10   6  -6    9.80    3.70
 -11  -7   6   34.60    5.40
 -11  -7   6   26.20    5.20
  11   7  -6   36.00    5.80
 -12  -8   6   59.49    8.40
 -12  -8   6   55.59    7.70
  12   8  -6   49.99    7.90
   5   9   5  118.59   17.10
  -5  -9  -5  112.99   11.30
   4   8   5  357.76   29.00
  -4  -8  -5  375.26   25.10
   3   7   5   15.80    4.30
   3   7   5   18.50    6.10
  -3  -7  -5    9.90    5.10
  -3  -7  -5   23.30    3.90
   2   6   5   49.30    6.80
  -2  -6  -5   59.89    7.80
  -2  -6  -5   49.50    6.80
  -2  -6  -5   54.49    5.40
   1   5   5    4.90    4.90
  -1  -5  -5    3.30    3.00
  -1  -5  -5   -0.20    2.60
  -1  -5  -5   -1.90    1.60
   0   4   5  425.06   28.10
   0   4   5  405.16   29.10
   0  -4  -5  444.46   28.10
   0  -4  -5  464.05   29.60
   0  -4  -5  469.95   29.10
  -1   3   5   23.70    2.60
  -1   3   5   32.60    5.10
  -1   3   5   16.30    3.40
   1  -3  -5   24.80    3.80
   1  -3  -5   14.30    2.90
   1  -3  -5   20.90    2.60
  -2   2   5  693.43   39.90
  -2   2   5  568.94   39.70
   2  -2  -5  636.64   39.80
   2  -2  -5  603.94   38.20
   2  -2  -5  579.64   39.40
  -3   1   5  193.38   14.20
  -3   1   5  202.08   14.60
   3  -1  -5  201.08   14.30
   3  -1  -5  202.58   14.00
  -4   0   5    2.50    2.40
  -4   0   5   -0.20    1.90
   4   0  -5    2.10    2.00
   4   0  -5   -1.30    1.40
  -5  -1   5  320.07   20.20
  -5  -1   5  371.66   21.80
  -5  -1   5  310.17   21.90
   5   1  -5  300.27   20.20
   5   1  -5  318.07   21.30
   5   1  -5  311.97   22.10
  -6  -2   5  110.39    8.80
  -6  -2   5   96.69    7.30
  -6  -2   5  119.29    9.30
   6   2  -5   97.59    7.10
   6   2  -5  114.39    9.90
   6   2  -5   99.09    8.30
  -7  -3   5 1277.77   89.19
  -7  -3   5 1364.76   87.59
  -7  -3   5 1458.65   89.29
  -7  -3   5 1424.56   89.09
   7   3  -5 1528.75   87.69
  -8  -4   5 1424.86   92.39
  -8  -4   5 1441.46   90.99
  -8  -4   5 1529.45   92.59
  -8  -4   5 1477.35   92.89
   8   4  -5 1433.36   91.79
  -9  -5   5  217.98   18.20
  -9  -5   5  210.18   15.10
  -9  -5   5  225.68   17.00
  -9  -5   5  223.68   16.40
   9   5  -5  206.08   15.80
 -10  -6   5  178.08   14.10
 -10  -6   5  182.58   13.30
  10   6  -5  165.38   13.80
 -11  -7   5 1254.87   77.89
 -11  -7   5 1154.88   76.99
  11   7  -5 1227.88   77.79
 -12  -8   5  321.47   23.70
 -12  -8   5  319.87   23.40
  12   8  -5  332.47   24.00
   5   9   4   11.60   10.00
  -5  -9  -4   34.10    6.20
   4   8   4    6.70    6.60
  -4  -8  -4   11.90    3.90
   3   7   4    8.80    5.20
   3   7   4   11.50    4.20
  -3  -7  -4    7.90    3.30
  -3  -7  -4    1.60    2.70
   2   6   4   10.50    3.50
  -2  -6  -4   12.20    2.80
  -2  -6  -4   11.10    4.40
  -2  -6  -4   14.00    3.10
   1   5   4  151.18   12.00
  -1  -5  -4  162.28   11.20
  -1  -5  -4  158.68   11.60
  -1  -5  -4  163.28   12.80
   0   4   4  648.54   42.50
   0   4   4  623.34   42.70
   0   4   4  662.33   41.80
   0  -4  -4  696.83   42.30
   0  -4  -4  671.83   43.00
   0  -4  -4  683.93   41.80
  -1   3   4 1733.53  107.29
  -1   3   4 1717.23  108.29
  -1   3   4 1670.63  108.09
   1  -3  -4 1753.02  107.29
   1  -3  -4 1721.23  108.39
   1  -3  -4 1822.02  108.09
  -2   2   4    1.60    0.90
  -2   2   4    0.50    1.50
  -2   2   4    2.70    1.90
   2  -2  -4    3.90    2.00
   2  -2  -4    3.30    0.90
   2  -2  -4    0.90    1.60
  -3   1   4  764.22   54.29
  -3   1   4  902.91   54.79
  -3   1   4  844.32   53.19
   3  -1  -4  950.80   54.79
  -4   0   4  560.74   34.30
  -4   0   4  506.25   33.10
  -4   0   4  484.05   34.60
   4   0  -4  552.14   34.80
   4   0  -4  581.24   34.20
  -5  -1   4   43.30    5.00
  -5  -1   4   37.50    3.20
  -5  -1   4   45.90    4.50
   5   1  -4   47.30    5.30
   5   1  -4   42.00    3.10
   5   1  -4   45.20    4.20
  -6  -2   4  637.64   42.80
  -6  -2   4  759.82   43.00
  -6  -2   4  675.83   43.10
  -6  -2   4  635.64   41.60
   6   2  -4  591.64   41.40
   6   2  -4  700.43   42.20
  -7  -3   4  987.50   73.99
  -7  -3   4 1271.47   73.29
  -7  -3   4 1217.98   73.29
  -7  -3   4 1088.29   71.79
   7   3  -4 1146.79   72.49
   7   3  -4 1207.08   71.79
  -8  -4   4   79.99    7.00
  -8  -4   4   91.49    9.50
  -8  -4   4  102.69    8.40
  -8  -4   4   99.39    8.90
  -9  -5   4    5.30    3.70
  -9  -5   4    2.50    2.40
  -9  -5   4   -0.70    4.20
  -9  -5   4    1.70    2.20
   9   5  -4   -1.10    2.50
 -10  -6   4   23.50    5.80
 -10  -6   4   26.60    4.30
 -10  -6   4   28.60    4.80
  10   6  -4   16.80    4.40
 -11  -7   4   12.80    4.10
 -11  -7   4    6.90    3.80
  11   7  -4    9.30    4.50
 -12  -8   4  139.09   13.40
 -12  -8   4  154.68   13.20
  12   8  -4  147.79   13.80
 -13  -9   4   14.00    6.70
   5   9   3 1311.37   88.39
  -5  -9  -3 1315.27   83.59
   4   8   3   91.89   13.30
  -4  -8  -3   82.49    8.60
   3   7   3  643.54   46.80
   3   7   3  813.92   50.89
  -3  -7  -3  735.03   47.20
  -3  -7  -3  766.22   46.50
   2   6   3   14.00    4.60
   2   6   3    8.40    2.80
  -2  -6  -3    8.60    2.40
  -2  -6  -3   14.10    2.80
   1   5   3   12.10    2.70
  -1  -5  -3   16.10    3.70
  -1  -5  -3   14.40    2.50
  -1  -5  -3   19.40    2.70
   0   4   3  908.21   53.09
   0   4   3  806.62   52.29
   0   4   3  771.22   52.09
   0  -4  -3  813.82   53.09
   0  -4  -3  839.42   52.09
   0  -4  -3  854.91   52.19
  -1   3   3 3485.75  211.08
  -1   3   3 3483.55  211.88
  -1   3   3 3331.77  211.48
   1  -3  -3 3344.77  211.08
   1  -3  -3 3480.05  211.48
   1  -3  -3 3430.66  211.98
  -2   2   3  245.78   16.10
  -2   2   3  282.47   17.00
  -2   2   3  240.08   16.80
   2  -2  -3  264.57   16.20
   2  -2  -3  260.47   16.80
   2  -2  -3  235.38   16.90
  -3   1   3    4.00    0.70
  -3   1   3    3.60    1.40
  -3   1   3    2.80    1.50
   3  -1  -3    7.00    1.60
   3  -1  -3    2.30    0.60
   3  -1  -3    2.30    1.30
  -4   0   3    0.10    1.30
  -4   0   3    1.20    1.30
  -4   0   3    0.60    0.40
   4   0  -3    1.70    0.50
   4   0  -3    0.10    1.10
   4   0  -3    1.30    1.40
  -5  -1   3    9.60    1.20
  -5  -1   3   10.50    2.30
  -5  -1   3    8.60    1.80
  -5  -1   3    7.90    2.00
   5   1  -3    7.60    1.10
   5   1  -3    6.30    1.50
   5   1  -3    5.80    2.10
  -6  -2   3  510.65   34.60
  -6  -2   3  517.15   35.80
  -6  -2   3  614.14   35.70
  -6  -2   3  607.34   35.90
   6   2  -3  516.25   34.60
   6   2  -3  559.94   35.10
  -7  -3   3   24.50    4.20
  -7  -3   3   24.60    4.00
  -7  -3   3   29.90    4.00
  -7  -3   3   26.20    3.00
   7   3  -3   21.50    3.60
   7   3  -3   25.30    3.10
  -8  -4   3   80.29    7.70
  -8  -4   3   75.09    6.20
  -8  -4   3   84.29    7.80
   8   4  -3   75.79    7.30
   8   4  -3   64.89    6.80
  -9  -5   3   34.20    5.20
  -9  -5   3   32.00    4.40
  -9  -5   3   25.90    5.30
  -9  -5   3   38.00    5.20
   9   5  -3   27.40    4.40
 -10  -6   3   16.50    4.60
 -10  -6   3    4.60    3.20
 -10  -6   3   10.10    3.00
  10   6  -3   12.10    3.60
  10   6  -3    6.70    4.20
 -11  -7   3   99.39    9.70
 -11  -7   3  105.39   10.10
  11   7  -3  116.89   10.90
 -12  -8   3  143.59   12.40
 -12  -8   3  139.69   12.60
  12   8  -3  119.89   13.20
 -13  -9   3  251.67   20.20
   5   9   2    1.80    8.30
  -5  -9  -2    3.40    4.70
   4   8   2  141.99   15.40
  -4  -8  -2  139.39   11.70
   3   7   2   76.99    6.70
   3   7   2  100.39   11.10
  -3  -7  -2   70.99    7.40
   2   6   2   20.80    3.20
   2   6   2   16.60    5.30
  -2  -6  -2   25.80    3.80
  -2  -6  -2   23.20    3.10
   1   5   2    5.20    1.90
   1   5   2    4.80    3.20
   1   5   2    6.90    3.60
  -1  -5  -2    8.90    2.20
   0   4   2  843.22   54.39
   0   4   2  883.61   54.59
   0   4   2  932.41   55.29
   0  -4  -2  868.61   54.19
   0  -4  -2  885.11   55.39
   0  -4  -2  813.62   54.39
  -1   3   2 2897.71  172.08
  -1   3   2 2692.13  171.48
  -1   3   2 2887.01  171.48
   1  -3  -2 2828.92  171.38
   1  -3  -2 2641.74  172.08
   1  -3  -2 2732.33  171.48
  -2   2   2   28.30    2.40
  -2   2   2   26.30    2.90
  -2   2   2   24.80    2.60
   2  -2  -2   25.50    3.00
   2  -2  -2   23.90    2.30
   2  -2  -2   27.10    2.60
  -3   1   2   11.20    1.80
  -3   1   2   10.30    1.70
  -3   1   2   14.40    1.40
   3  -1  -2   15.60    1.30
   3  -1  -2   12.40    2.00
   3  -1  -2   12.50    1.90
  -4   0   2    2.90    0.60
  -4   0   2    2.70    1.10
  -4   0   2    3.10    1.30
  -4   0   2    5.30    1.10
   4   0  -2    2.40    0.60
   4   0  -2    4.60    1.40
   4   0  -2    4.30    1.00
  -5  -1   2   37.80    3.70
  -5  -1   2   30.00    3.00
  -5  -1   2   31.50    2.70
   5   1  -2   39.40    2.70
   5   1  -2   33.80    2.80
   5   1  -2   32.20    3.50
  -7  -3   2 2136.09  134.69
  -7  -3   2 2373.76  135.19
  -7  -3   2 2129.29  134.29
   7   3  -2 2070.99  134.59
   7   3  -2 2218.78  135.39
   7   3  -2 2102.59  134.19
  -8  -4   2  135.29   10.30
  -8  -4   2  126.89    9.50
  -8  -4   2  136.39   10.70
   8   4  -2  139.69   10.40
   8   4  -2  131.79   11.20
   8   4  -2  128.29   10.20
  -9  -5   2  159.98   12.50
  -9  -5   2  159.08   11.50
   9   5  -2  146.59   12.50
   9   5  -2  154.88   11.80
   9   5  -2  157.48   12.90
 -10  -6   2 1032.60   63.49
 -10  -6   2  984.60   63.59
 -10  -6   2  943.01   62.59
  10   6  -2  984.00   62.79
  10   6  -2  993.10   63.49
 -11  -7   2   67.59    7.80
 -11  -7   2   76.39   12.80
 -11  -7   2   79.29    8.50
  11   7  -2   70.19    9.10
 -12  -8   2  647.54   44.00
 -12  -8   2  679.13   44.20
  12   8  -2  669.33   44.90
 -13  -9   2  120.29   12.80
   5   9   1    5.40    7.40
  -5  -9  -1    7.20    4.60
   4   8   1  252.87   20.50
  -4  -8  -1  211.38   16.90
   3   7   1   10.50    5.10
  -3  -7  -1    1.10    2.50
   2   6   1  160.88   13.70
  -2  -6  -1  141.19   11.30
  -2  -6  -1  157.58   10.10
   1   5   1 1344.77   84.59
   1   5   1 1307.77   85.89
   1   5   1 1514.15   87.69
  -1  -5  -1 1310.87   85.19
  -1  -5  -1 1367.46   84.39
   0   4   1 3705.23  222.28
   0   4   1 3334.27  219.98
   0   4   1 3515.75  221.08
   0   4   1 3802.02  220.68
   0  -4  -1 3512.15  220.48
   0  -4  -1 3584.44  219.88
  -1   3   1   82.29    5.90
  -1   3   1   80.69    6.90
  -1   3   1  105.09    6.70
  -1   3   1   92.89    8.00
   1  -3  -1   92.49    7.10
   1  -3  -1   92.09    6.60
   1  -3  -1   91.99    5.90
  -2   2   1   19.90    2.10
  -2   2   1   21.70    2.50
  -2   2   1   22.60    1.80
   2  -2  -1   18.70    1.80
   2  -2  -1   19.00    2.20
   2  -2  -1   21.90    2.60
  -3   1   1  891.61   54.79
  -3   1   1  917.31   54.89
  -3   1   1  893.21   54.79
  -3   1   1  851.61   54.49
   3  -1  -1  856.81   54.49
  -4   0   1    0.80    0.60
  -4   0   1    1.20    0.80
  -4   0   1    0.80    0.50
   4   0  -1    1.50    0.60
   4   0  -1    0.40    0.50
  -5  -1   1 1103.99   69.09
  -5  -1   1 1199.18   69.89
  -5  -1   1 1017.70   69.19
   5   1  -1 1143.59   69.89
   5   1  -1 1135.79   69.19
  -6  -2   1 4420.56  250.87
  -6  -2   1 4263.47  250.07
  -6  -2   1 3556.14  249.97
   6   2  -1 3967.50  250.07
   6   2  -1 4120.49  249.97
   6   2  -1 4044.80  250.87
  -7  -3   1 1433.06   92.39
  -7  -3   1 1585.34   93.19
   7   3  -1 1420.46   93.29
   7   3  -1 1423.06   92.59
   7   3  -1 1581.64   92.29
  -8  -4   1   62.39    6.40
  -8  -4   1   58.39    5.30
   8   4  -1   68.09    5.50
   8   4  -1   64.69    6.30
   8   4  -1   57.29    7.20
   8   4  -1   62.09    6.00
  -9  -5   1    1.70    3.10
  -9  -5   1    0.50    2.20
   9   5  -1    0.90    2.70
   9   5  -1    4.10    2.50
   9   5  -1    0.10    3.00
 -10  -6   1   27.60    4.30
 -10  -6   1   32.10    5.30
  10   6  -1   25.40    5.00
  10   6  -1   30.00    5.30
  10   6  -1   34.50    5.00
 -11  -7   1  509.85   34.10
 -11  -7   1  578.34   36.90
  11   7  -1  452.95   35.00
  11   7  -1  527.25   35.10
 -12  -8   1    5.80    4.50
 -12  -8   1    2.60    4.40
  12   8  -1    8.00    5.40
 -13  -9   1  158.58   14.60
   5   9   0   35.20    9.10
  -5  -9   0   34.20    6.10
   4   8   0 1319.67   82.69
  -4  -8   0 1181.48   79.09
   3   7   0  111.79   13.00
  -3  -7   0  127.69   10.10
   2   6   0  114.19   11.50
  -2  -6   0  113.89    9.20
   1   5   0  761.72   46.20
   1   5   0  693.13   47.20
  -1  -5   0  688.03   45.30
   0   4   0 2977.50  167.28
   0   4   0 2383.76  167.48
   0   4   0 2696.73  168.58
   0  -4   0 2759.02  167.18
  -1   3   0  122.69    8.10
  -1   3   0   98.19    9.10
  -1   3   0  109.09    8.50
   1  -3   0  122.19    8.10
  -2   2   0  131.69    8.70
  -2   2   0  121.59    9.50
  -2   2   0  133.19    9.10
   2  -2   0  135.29    9.40
   2  -2   0  131.69    8.70
  -3   1   0   40.60    3.10
  -3   1   0   43.50    3.50
  -3   1   0   41.50    3.10
   3  -1   0   40.90    3.40
   3  -1   0   41.60    3.00
   3  -1   0   38.90    3.00
  -4   0   0  436.66   27.50
  -4   0   0  416.26   27.10
  -4   0   0  430.56   27.10
   4   0   0  439.06   27.10
   4   0   0  453.55   27.50
   4   0   0  436.56   27.10
  -5  -1   0   57.99    4.80
  -5  -1   0   57.99    4.20
   5   1   0   56.89    4.20
   5   1   0   57.49    4.80
   5   1   0   62.29    3.80
  -6  -2   0  166.58   11.40
  -6  -2   0  161.88   10.70
   6   2   0  172.58   10.40
   6   2   0  154.38   10.60
   6   2   0  150.38   11.40
   6   2   0  160.08   10.60
  -7  -3   0   35.10    4.20
  -7  -3   0   33.60    3.30
   7   3   0   30.10    4.30
   7   3   0   26.90    3.30
   7   3   0   34.00    3.10
   7   3   0   31.60    3.80
  -8  -4   0  346.87   21.80
  -8  -4   0  316.67   21.00
   8   4   0  288.77   22.10
   8   4   0  310.97   21.50
   8   4   0  315.07   21.40
   8   4   0  340.77   20.90
  -9  -5   0   52.59    5.70
  -9  -5   0   59.19    7.00
   9   5   0   53.39    6.80
   9   5   0   61.09    5.90
   9   5   0   62.69    7.30
 -10  -6   0   35.50    5.30
 -10  -6   0   31.00    4.50
  10   6   0   23.40    5.00
  10   6   0   26.20    5.00
  10   6   0   26.20    4.60
 -11  -7   0  104.79    9.50
 -11  -7   0  131.89   15.80
  11   7   0  111.89   11.20
  11   7   0  104.89   11.30
 -12  -8   0  333.97   24.20
  12   8   0  387.06   25.60
  12   8   0  299.67   25.20
 -13  -9   0  116.49   12.70
   5   9  -1   64.49   11.20
  -5  -9   1   79.29    9.60
   4   8  -1   60.59    9.40
  -4  -8   1   46.60    6.70
   3   7  -1    4.20    5.00
  -3  -7   1    4.80    3.00
   2   6  -1   72.69    8.70
  -2  -6   1   61.89    6.20
   1   5  -1 1338.57   77.79
   1   5  -1 1202.88   76.39
  -1  -5   1 1186.38   74.49
  -1  -5   1 1124.49   74.39
  -1  -5   1 1196.28   75.49
   0   4  -1 3680.33  211.28
   0   4  -1 3226.08  212.48
   0  -4   1 3323.07  210.28
   0  -4   1 3416.56  212.18
   0  -4   1 3420.96  211.18
   0  -4   1 3451.65  210.38
  -1   3  -1   22.60    2.70
  -1   3  -1   16.50    3.40
   1  -3   1   19.90    2.60
   1  -3   1   14.70    3.20
   1  -3   1   18.20    1.70
   1  -3   1   13.40    1.40
  -2   2  -1   25.80    2.10
  -2   2  -1   21.40    3.50
  -2   2  -1   29.00    2.50
   2  -2   1   26.30    2.60
   2  -2   1   23.10    3.20
   2  -2   1   23.90    2.00
  -3   1  -1   22.50    2.00
  -3   1  -1   14.70    2.30
  -3   1  -1   23.90    2.20
   3  -1   1   17.60    1.90
   3  -1   1   19.00    1.90
  -4   0  -1    1.00    0.70
  -4   0  -1    2.00    0.80
   4   0   1    0.00    0.90
   4   0   1   -0.10    0.80
  -5  -1  -1 5498.85  315.97
  -5  -1  -1 4750.02  315.27
   5   1   1 5133.19  315.97
  -6  -2  -1 2330.07  132.09
  -6  -2  -1 2056.69  131.19
  -6  -2  -1 2050.29  131.29
   6   2   1 2286.97  131.19
   6   2   1 1896.21  131.89
   6   2   1 2136.69  131.29
  -7  -3  -1    2.40    1.60
  -7  -3  -1    3.10    1.90
  -7  -3  -1    2.20    1.40
   7   3   1    2.50    1.40
   7   3   1    3.00    1.60
   7   3   1    3.50    2.30
  -8  -4  -1   56.59    5.50
  -8  -4  -1   76.09    6.80
   8   4   1   60.79    7.00
   8   4   1   64.79    5.50
   8   4   1   68.39    6.70
  -9  -5  -1  648.74   41.20
  -9  -5  -1  597.04   40.50
   9   5   1  589.44   41.60
   9   5   1  693.43   40.50
 -10  -6  -1    4.50    2.90
 -10  -6  -1    5.20    3.70
  10   6   1    4.40    3.30
  10   6   1    7.80    3.50
  10   6   1   -1.80    3.10
 -11  -7  -1  739.03   47.60
  11   7   1  731.03   49.00
 -12  -8  -1    0.10    4.60
  12   8   1   -2.80    5.60
  12   8   1   -0.30    5.60
 -13  -9  -1   43.70    7.40
   5   9  -2  200.98   21.60
  -5  -9   2  241.88   17.90
   4   8  -2   47.10    8.70
  -4  -8   2   40.20    6.70
   3   7  -2  116.69   13.20
  -3  -7   2  149.59   11.10
   2   6  -2  630.64   45.30
  -2  -6   2  652.53   42.10
  -2  -6   2  672.73   43.40
  -2  -6   2  739.13   42.30
   1   5  -2 1141.79   70.69
  -1  -5   2 1031.90   68.49
  -1  -5   2 1063.09   70.19
  -1  -5   2 1066.69   67.79
  -1  -5   2 1162.08   67.99
   0   4  -2  798.32   53.79
   0   4  -2  836.92   52.49
   0  -4   2  846.02   51.89
   0  -4   2  839.62   53.79
   0  -4   2  840.52   52.39
   0  -4   2  838.32   51.99
  -1   3  -2 1178.68   67.39
  -1   3  -2 1062.69   65.89
  -1   3  -2 1070.49   65.99
   1  -3   2  995.30   65.59
   1  -3   2  990.10   66.99
   1  -3   2 1057.49   65.99
  -2   2  -2  796.42   51.49
  -2   2  -2  905.81   51.49
   2  -2   2  770.42   51.29
   2  -2   2  806.32   51.39
   2  -2   2  850.61   52.39
  -3   1  -2    2.60    1.50
  -3   1  -2    1.10    1.00
  -3   1  -2    2.30    1.10
   3  -1   2    5.10    1.60
   3  -1   2    2.20    1.00
   3  -1   2    3.20    1.00
  -4   0  -2  494.85   30.80
  -4   0  -2  503.25   30.70
  -4   0  -2  476.35   31.20
  -4   0  -2  490.85   31.10
  -5  -1  -2    4.40    1.10
  -5  -1  -2    4.20    1.50
  -5  -1  -2    4.60    1.30
   5   1   2    2.80    1.00
   5   1   2    3.60    1.60
  -6  -2  -2 1556.84   98.19
  -6  -2  -2 1602.84   98.89
  -6  -2  -2 1557.34   98.09
   6   2   2 1725.13   98.29
   6   2   2 1549.74   99.09
   6   2   2 1521.15   98.09
  -7  -3  -2   13.20    2.10
  -7  -3  -2   18.90    3.10
  -7  -3  -2   14.90    2.50
   7   3   2   11.00    2.10
   7   3   2   19.20    2.80
   7   3   2   12.60    3.30
  -8  -4  -2   59.69    5.80
  -8  -4  -2   47.50    5.90
  -8  -4  -2   47.20    4.90
   8   4   2   57.39    5.20
   8   4   2   49.30    5.90
  -9  -5  -2   19.30    3.40
  -9  -5  -2   23.20    4.40
   9   5   2   26.10    4.10
   9   5   2   27.10    4.60
   9   5   2   32.50    5.10
 -10  -6  -2 1081.69   76.19
 -10  -6  -2 1221.38   75.89
  10   6   2 1037.90   76.79
  10   6   2 1378.66   77.49
  10   6   2 1293.57   75.99
 -11  -7  -2  622.44   39.20
  11   7   2  496.85   40.10
  11   7   2  673.73   41.10
 -12  -8  -2    4.20    4.60
  12   8   2    6.50    6.20
  12   8   2    5.40    6.10
 -13  -9  -2   10.00    5.60
   5   9  -3  519.25   37.10
  -5  -9   3  442.46   32.70
   4   8  -3   10.00    6.30
   3   7  -3  188.18   16.60
  -3  -7   3  199.58   13.00
  -3  -7   3  177.78   12.20
  -3  -7   3  167.38   13.70
   2   6  -3  302.57   21.20
  -2  -6   3  246.98   17.60
  -2  -6   3  250.97   18.50
  -2  -6   3  290.77   18.10
   1   5  -3  550.14   36.80
  -1  -5   3  581.64   34.70
  -1  -5   3  512.15   34.80
  -1  -5   3  525.15   34.30
   0   4  -3  839.12   52.29
   0   4  -3  896.21   52.09
   0   4  -3  817.42   53.59
   0  -4   3  782.32   51.99
   0  -4   3  832.52   51.79
   0  -4   3  788.12   53.59
  -1   3  -3   29.20    3.70
  -1   3  -3   30.70    3.50
   1  -3   3   30.40    5.00
   1  -3   3   24.90    3.40
   1  -3   3   33.20    3.30
  -2   2  -3   16.70    3.30
  -2   2  -3   13.00    2.00
  -2   2  -3   12.30    2.20
   2  -2   3   11.40    1.90
   2  -2   3   15.70    3.10
   2  -2   3   13.90    2.10
  -3   1  -3   13.60    2.20
  -3   1  -3   18.10    2.10
  -3   1  -3   17.80    2.90
   3  -1   3   13.90    1.90
   3  -1   3   17.30    3.00
   3  -1   3   15.00    2.30
  -4   0  -3    0.10    1.20
  -4   0  -3    0.50    0.80
  -4   0  -3    0.80    1.50
  -4   0  -3   -0.10    0.90
   4   0   3   -0.60    1.20
   4   0   3    2.20    1.30
  -5  -1  -3 2630.74  161.78
  -5  -1  -3 2852.31  162.28
  -5  -1  -3 2349.86  161.28
   5   1   3 2549.54  162.18
   5   1   3 2797.12  161.78
   5   1   3 2529.35  161.38
  -6  -2  -3   17.80    2.50
  -6  -2  -3   16.90    3.00
  -6  -2  -3   20.40    3.10
   6   2   3   19.10    2.40
   6   2   3   14.70    3.40
   6   2   3   19.80    3.10
  -7  -3  -3  481.75   30.80
  -7  -3  -3  473.85   30.30
  -7  -3  -3  422.86   29.80
   7   3   3  466.35   29.90
   7   3   3  539.55   30.30
   7   3   3  425.56   32.10
  -8  -4  -3   36.90    5.00
  -8  -4  -3   22.70    3.20
  -8  -4  -3   28.50    4.30
   8   4   3   25.50    4.20
   8   4   3   25.70    3.90
  -9  -5  -3   53.19    6.10
  -9  -5  -3   47.60    6.90
  -9  -5  -3   53.89    5.50
   9   5   3   44.80    6.70
   9   5   3   52.59    6.40
 -10  -6  -3  623.64   41.30
  10   6   3  671.23   42.90
  10   6   3  575.64   42.70
  10   6   3  689.83   43.00
 -11  -7  -3  762.72   46.50
  11   7   3  613.94   47.60
  11   7   3  769.22   48.40
 -12  -8  -3  120.89   11.40
  12   8   3   89.49   13.60
  12   8   3  143.09   13.90
   5   9  -4  160.38   24.10
  -5  -9   4  144.39   13.80
   4   8  -4    6.50    6.40
  -4  -8   4    2.60    4.30
   3   7  -4   63.99   10.10
  -3  -7   4   76.89    7.90
  -3  -7   4   72.89    6.50
  -3  -7   4   86.69    7.70
   2   6  -4  759.12   52.79
  -2  -6   4  792.02   50.69
  -2  -6   4  746.73   49.99
  -2  -6   4  875.21   50.59
   1   5  -4  999.80   70.09
  -1  -5   4 1055.99   68.29
  -1  -5   4 1095.29   68.09
  -1  -5   4 1187.48   68.49
   0   4  -4  633.34   46.90
   0   4  -4  709.13   45.50
   0   4  -4  756.92   46.30
   0  -4   4  716.63   45.50
   0  -4   4  706.23   45.50
   0  -4   4  794.62   47.90
  -1   3  -4    3.10    2.00
  -1   3  -4    2.30    2.10
  -1   3  -4    3.40    2.20
   1  -3   4    1.90    1.70
   1  -3   4    6.10    3.40
  -2   2  -4    2.40    1.90
  -2   2  -4    3.10    2.40
  -2   2  -4    1.10    1.30
   2  -2   4    2.00    1.50
   2  -2   4    2.80    1.50
   2  -2   4    0.00    2.60
  -3   1  -4   22.10    2.60
  -3   1  -4   25.30    3.40
  -3   1  -4   26.80    4.20
   3  -1   4   24.00    3.40
   3  -1   4   28.10    4.00
   3  -1   4   25.60    2.80
  -4   0  -4 8711.43  532.45
  -4   0  -4 8578.24  532.25
   4   0   4 8645.93  532.35
  -5  -1  -4  919.31   63.29
  -5  -1  -4  959.00   62.59
  -5  -1  -4 1084.49   63.89
   5   1   4 1087.59   63.49
   5   1   4  963.50   63.79
   5   1   4 1047.70   62.79
  -6  -2  -4   44.50    3.80
  -6  -2  -4   42.40    5.10
  -6  -2  -4   42.20    4.40
   6   2   4   28.30    4.50
   6   2   4   36.60    3.80
   6   2   4   36.70    4.40
  -7  -3  -4  603.94   40.30
  -7  -3  -4  633.44   40.90
  -7  -3  -4  593.84   39.70
   7   3   4  658.73   39.80
   7   3   4  595.14   41.10
   7   3   4  691.43   40.40
  -8  -4  -4  975.00   62.09
  -8  -4  -4 1020.30   62.59
  -8  -4  -4  938.71   61.29
   8   4   4  971.60   61.79
   8   4   4  986.40   63.09
  -9  -5  -4   78.99    6.90
  -9  -5  -4   80.29    7.90
   9   5   4   85.99    8.10
   9   5   4   57.59    8.20
 -10  -6  -4  450.65   32.40
 -10  -6  -4  530.85   31.70
  10   6   4  455.65   33.20
 -11  -7  -4  245.98   17.90
  11   7   4  207.18   19.60
  11   7   4  286.87   20.40
 -12  -8  -4   63.39    8.20
  12   8   4   66.49   10.40
  12   8   4   61.69    9.90
   5   9  -5   22.40    8.40
  -5  -9   5    9.20    6.20
   4   8  -5    9.30    6.10
  -4  -8   5    6.50    4.10
   3   7  -5  816.32   50.49
  -3  -7   5  716.13   46.70
  -3  -7   5  678.13   47.30
   2   6  -5  547.95   42.00
  -2  -6   5  640.84   40.10
  -2  -6   5  611.54   40.30
  -2  -6   5  685.73   40.70
   1   5  -5  571.54   35.80
   1   5  -5  520.85   36.20
  -1  -5   5  541.35   34.40
  -1  -5   5  483.15   34.00
   0   4  -5  442.76   31.20
   0   4  -5  445.26   30.70
   0   4  -5  487.25   29.60
   0  -4   5  449.26   29.60
   0  -4   5  461.85   30.00
  -1   3  -5  121.69    9.80
  -1   3  -5  119.69    8.40
  -1   3  -5  105.09    9.40
   1  -3   5   99.39   10.40
   1  -3   5  104.39    8.10
   1  -3   5  118.89    9.10
  -2   2  -5   37.60    3.70
  -2   2  -5   32.30    4.50
  -2   2  -5   39.30    5.10
   2  -2   5   33.20    3.80
   2  -2   5   37.70    5.90
   2  -2   5   34.70    4.50
  -3   1  -5 1601.74   94.59
  -3   1  -5 1538.75   95.79
  -3   1  -5 1388.96   96.49
   3  -1   5 1596.34   95.89
   3  -1   5 1561.74   95.99
   3  -1   5 1474.85   94.59
  -4   0  -5    1.60    2.10
  -4   0  -5    5.60    2.50
  -4   0  -5    0.60    1.10
  -4   0  -5    2.30    1.30
   4   0   5    1.60    2.10
   4   0   5    3.00    1.90
  -5  -1  -5 2618.54  158.28
  -5  -1  -5 2517.75  156.78
  -5  -1  -5 2334.27  157.68
   5   1   5 2499.15  158.28
   5   1   5 2710.53  157.08
   5   1   5 2577.14  157.88
  -6  -2  -5   46.70    5.80
  -6  -2  -5   35.70    3.90
   6   2   5   46.50    4.20
   6   2   5   41.20    5.30
   6   2   5   37.90    4.70
  -7  -3  -5   16.30    4.00
  -7  -3  -5    9.80    2.00
  -7  -3  -5   12.90    2.90
   7   3   5   17.10    3.80
   7   3   5   10.20    2.50
   7   3   5    8.10    3.10
  -8  -4  -5   18.60    2.90
  -8  -4  -5   17.60    3.50
   8   4   5   11.70    3.90
   8   4   5   10.60    3.60
  -9  -5  -5  870.41   51.69
  -9  -5  -5  777.42   52.59
   9   5   5  790.82   53.59
 -10  -6  -5  407.96   28.30
 -10  -6  -5  416.36   27.00
  10   6   5  385.76   29.00
 -11  -7  -5  300.37   20.60
  11   7   5  258.57   22.60
  11   7   5  303.07   22.80
 -12  -8  -5    4.70    4.80
  12   8   5    0.00    7.20
  12   8   5    1.20    7.00
   5   9  -6  130.19   16.70
  -5  -9   6  113.69   14.10
   4   8  -6   -1.50    6.70
  -4  -8   6    3.70    4.60
   3   7  -6  634.44   43.20
  -3  -7   6  635.74   40.00
  -3  -7   6  585.54   40.40
   2   6  -6   22.60    5.40
  -2  -6   6   29.20    4.30
  -2  -6   6   27.90    5.40
  -2  -6   6   24.10    3.80
   1   5  -6  187.38   15.10
   1   5  -6  187.68   14.90
  -1  -5   6  156.38   12.30
  -1  -5   6  159.88   12.50
   0   4  -6  222.88   17.20
   0   4  -6  224.28   17.20
   0  -4   6  218.38   15.30
   0  -4   6  226.98   16.00
  -1   3  -6   17.00    4.20
  -1   3  -6   21.00    4.20
  -1   3  -6   28.70    3.60
   1  -3   6   15.80    2.60
   1  -3   6   25.60    3.70
  -2   2  -6  312.17   18.20
  -2   2  -6  275.27   19.70
  -2   2  -6  285.87   19.70
   2  -2   6  234.48   20.00
   2  -2   6  277.87   18.30
   2  -2   6  273.27   19.20
  -3   1  -6  246.08   16.90
  -3   1  -6  203.78   16.90
  -3   1  -6  262.97   15.50
   3  -1   6  240.18   17.40
   3  -1   6  231.78   15.50
   3  -1   6  226.68   16.70
  -4   0  -6  630.14   39.10
  -4   0  -6  596.54   40.40
  -4   0  -6  673.63   39.20
  -4   0  -6  605.94   40.70
   4   0   6  647.74   40.70
   4   0   6  586.74   40.60
  -5  -1  -6  142.49    9.80
  -5  -1  -6  141.49   11.00
  -5  -1  -6  157.38    9.90
  -5  -1  -6  139.29   11.70
   5   1   6  139.29   11.30
   5   1   6  144.19   11.40
  -6  -2  -6  426.86   29.20
  -6  -2  -6  421.86   28.20
  -6  -2  -6  441.46   29.80
   6   2   6  469.95   29.60
   6   2   6  438.36   29.90
   6   2   6  450.65   28.20
  -7  -3  -6    1.50    1.50
  -7  -3  -6    4.00    2.20
   7   3   6    1.30    3.30
   7   3   6    2.60    2.30
   7   3   6    1.30    2.60
  -8  -4  -6  100.49    9.40
  -8  -4  -6  112.59    8.40
   8   4   6  114.29   10.50
  -9  -5  -6   80.39    9.30
  -9  -5  -6  103.49    8.10
   9   5   6  105.49   10.60
 -10  -6  -6  180.28   15.00
 -10  -6  -6  180.08   13.10
  10   6   6  156.28   15.50
 -11  -7  -6   34.80    5.90
 -11  -7  -6   22.30    6.80
  11   7   6   20.70    6.70
 -12  -8  -6  421.56   27.80
  12   8   6  318.17   33.20
  12   8   6  427.26   30.90
   5   9  -7   25.90    9.30
  -5  -9   7   22.80    6.50
   4   8  -7  168.58   17.00
  -4  -8   7  162.48   14.20
   3   7  -7  656.43   46.00
  -3  -7   7  637.94   43.40
  -3  -7   7  702.13   43.40
   2   6  -7 2906.91  173.88
  -2  -6   7 2758.12  172.28
  -2  -6   7 2779.22  171.58
  -2  -6   7 2578.54  171.08
   1   5  -7  140.19   11.50
   1   5  -7   80.89   13.00
  -1  -5   7  103.19    9.10
  -1  -5   7  119.89    9.70
   0   4  -7   76.09   10.20
   0   4  -7  101.19    9.60
   0  -4   7   66.39    6.80
   0  -4   7   87.89    7.80
  -1   3  -7    2.50    2.20
  -1   3  -7    3.80    3.90
  -1   3  -7    3.20    2.70
   1  -3   7    5.50    2.00
   1  -3   7    1.30    2.40
  -2   2  -7  355.96   28.60
  -2   2  -7  411.26   29.30
  -2   2  -7  463.35   27.30
   2  -2   7  429.26   27.40
   2  -2   7  466.25   29.10
  -3   1  -7 2462.05  137.69
  -3   1  -7 2069.69  139.29
  -3   1  -7 2141.89  139.39
   3  -1   7 2141.39  139.39
   3  -1   7 2144.19  137.69
   3  -1   7 2402.46  140.99
  -4   0  -7    0.20    1.60
  -4   0  -7    4.20    2.30
  -4   0  -7    1.20    1.40
   4   0   7    2.60    2.20
   4   0   7   -0.20    3.20
  -5  -1  -7    2.00    1.60
  -5  -1  -7    4.30    2.30
  -5  -1  -7    3.10    1.50
   5   1   7    1.30    2.30
   5   1   7    1.90    3.70
  -6  -2  -7  159.28   12.10
  -6  -2  -7  153.48   11.10
   6   2   7  155.48   11.10
   6   2   7  148.69   12.70
  -7  -3  -7  407.76   25.30
  -7  -3  -7  385.26   26.60
   7   3   7  394.26   25.60
   7   3   7  378.86   27.50
  -8  -4  -7  125.69    9.20
  -8  -4  -7  120.29   10.60
   8   4   7  123.79   11.80
  -9  -5  -7   29.80    4.20
  -9  -5  -7   34.70    5.70
   9   5   7   31.00    6.40
 -10  -6  -7  575.14   33.90
 -10  -6  -7  483.65   35.50
  10   6   7  481.65   36.30
 -11  -7  -7  154.68   15.10
  11   7   7  120.19   15.30
   4   8  -8  193.18   19.70
  -4  -8   8  203.48   16.60
   3   7  -8   58.49   10.30
  -3  -7   8   82.29    8.90
  -3  -7   8   93.29    8.60
   2   6  -8  687.03   49.50
  -2  -6   8  764.32   48.00
  -2  -6   8  742.93   47.30
   1   5  -8   99.29   10.60
  -1  -5   8   87.39    8.10
  -1  -5   8   89.39    8.70
   0   4  -8    3.90    3.10
   0  -4   8    1.00    2.30
   0  -4   8    4.70    2.70
  -1   3  -8   -2.20    2.30
  -1   3  -8    2.50    3.40
   1  -3   8   -0.90    2.40
   1  -3   8    0.10    1.90
  -2   2  -8  570.94   39.90
  -2   2  -8  623.54   37.90
   2  -2   8  598.34   39.90
  -3   1  -8  188.88   11.40
  -3   1  -8  147.89   13.00
   3  -1   8  160.58   11.50
   3  -1   8  160.28   13.30
  -4   0  -8 2180.38  127.09
  -4   0  -8 2096.99  127.09
   4   0   8 1876.61  129.19
  -5  -1  -8   25.80    4.60
  -5  -1  -8   26.20    3.40
  -5  -1  -8   29.70    3.80
   5   1   8   22.60    4.80
  -6  -2  -8   43.80    4.80
  -6  -2  -8   33.00    5.30
  -6  -2  -8   46.80    3.90
   6   2   8   49.00    5.50
   6   2   8   38.30    6.30
  -7  -3  -8   23.70    4.50
  -7  -3  -8   22.10    3.00
   7   3   8   24.40    4.20
   7   3   8   20.00    4.70
  -8  -4  -8 1724.13  101.09
  -8  -4  -8 1588.34  102.79
   8   4   8 1552.34  103.79
  -9  -5  -8 1573.14   89.69
  -9  -5  -8 1303.67   91.09
   9   5   8 1414.36   92.69
 -10  -6  -8    5.70    3.10
 -10  -6  -8    5.70    5.00
  10   6   8    3.60    5.80
 -11  -7  -8   54.29   10.30
 -11  -7  -8   62.49    7.20
  11   7   8   47.00    9.60
   4   8  -9  103.99   15.00
  -4  -8   9  111.69   12.20
   3   7  -9    4.30    5.30
  -3  -7   9   -3.60    4.00
  -3  -7   9    1.50    4.50
   2   6  -9  386.86   28.60
  -2  -6   9  411.66   27.10
  -2  -6   9  351.46   25.90
   1   5  -9  236.08   19.30
  -1  -5   9  230.38   16.80
  -1  -5   9  242.58   18.00
   0   4  -9    9.50    4.20
   0  -4   9   16.00    3.30
   0  -4   9   11.50    3.50
  -1   3  -9  409.76   31.20
  -1   3  -9  467.15   29.10
   1  -3   9  467.75   31.30
   1  -3   9  450.75   29.20
  -2   2  -9   11.90    3.90
  -2   2  -9   11.40    2.70
   2  -2   9    5.50    2.40
   2  -2   9    7.60    3.30
  -3   1  -9  616.94   41.60
  -3   1  -9  646.24   39.30
  -3   1  -9  640.14   39.10
   3  -1   9  566.44   41.30
  -4   0  -9    1.70    3.10
  -4   0  -9    1.10    1.80
  -4   0  -9    1.60    2.00
   4   0   9    2.70    3.40
  -5  -1  -9   50.79    7.40
  -5  -1  -9   79.29    6.10
  -5  -1  -9   68.69    5.50
   5   1   9   62.29    7.70
  -6  -2  -9    3.20    2.40
  -6  -2  -9    1.90    1.50
  -6  -2  -9   -2.40    3.40
   6   2   9   -5.10    3.10
  -7  -3  -9  291.97   18.70
  -7  -3  -9  278.67   20.90
   7   3   9  272.27   21.80
   7   3   9  292.87   19.80
  -8  -4  -9  123.79    9.20
  -8  -4  -9  119.29   11.30
   8   4   9  123.69   12.60
  -9  -5  -9   64.89    9.10
  -9  -5  -9   75.49    6.80
   9   5   9   58.29   10.00
 -10  -6  -9  139.89   15.00
 -10  -6  -9  179.68   12.60
  10   6   9  150.98   16.80
 -11  -7  -9  161.28   25.20
 -11  -7  -9  212.28   15.00
  11   7   9  158.58   23.50
   3   7 -10   64.59   11.20
  -3  -7  10   62.19    9.10
   2   6 -10  174.88   18.40
  -2  -6  10  193.68   15.20
  -2  -6  10  168.78   14.00
   1   5 -10   10.90    4.70
  -1  -5  10    8.10    4.10
  -1  -5  10    8.50    3.30
   0   4 -10   10.40    4.90
   0  -4  10   12.80    4.30
   0  -4  10   12.20    3.40
  -1   3 -10   21.70    3.50
  -1   3 -10   12.00    5.30
   1  -3  10   11.90    4.60
   1  -3  10   17.70    3.50
  -2   2 -10 2286.97  141.59
  -2   2 -10 2638.64  145.09
   2  -2  10 2204.08  144.39
   2  -2  10 2037.70  141.69
  -3   1 -10   65.49    6.30
  -3   1 -10   65.69    8.70
  -3   1 -10   69.69    5.90
   3  -1  10   64.09    8.30
  -4   0 -10   76.09    6.30
  -4   0 -10   80.19    6.50
  -4   0 -10   74.99    8.80
   4   0  10   67.59    8.90
  -5  -1 -10  162.88   15.10
  -5  -1 -10  214.08   13.20
  -5  -1 -10  180.58   12.90
   5   1  10  195.88   16.20
  -6  -2 -10  492.95   39.10
  -6  -2 -10  661.63   37.50
  -6  -2 -10  610.24   36.90
   6   2  10  564.24   40.40
  -7  -3 -10  409.86   33.10
  -7  -3 -10  551.94   31.90
  -7  -3 -10  493.55   31.00
   7   3  10  487.25   34.90
  -8  -4 -10   -4.70    4.10
  -8  -4 -10    2.70    2.20
   8   4  10    1.90    4.90
  -9  -5 -10  272.17   22.40
  -9  -5 -10  319.07   20.00
   9   5  10  280.07   24.50
 -10  -6 -10   33.60    4.70
 -10  -6 -10   31.50    9.30
  10   6  10   23.70    8.60
   3   7 -11 1849.11  112.09
  -3  -7  11 1847.32  110.09
  -3  -7  11 1479.15  108.19
   2   6 -11    2.60    6.60
  -2  -6  11    9.50    5.00
  -2  -6  11   -3.80    4.10
   1   5 -11   27.20    7.30
  -1  -5  11   27.00    5.60
  -1  -5  11   21.60    4.40
   0   4 -11    2.80    5.20
   0  -4  11   17.00    4.80
   0  -4  11   19.10    3.50
  -1   3 -11   47.60    8.10
   1  -3  11   40.30    5.70
   1  -3  11   52.69    7.70
  -2   2 -11  698.43   41.30
  -2   2 -11  626.14   44.40
   2  -2  11  638.34   41.50
   2  -2  11  638.74   44.50
  -3   1 -11 1508.45  108.99
  -3   1 -11 1959.60  106.29
   3  -1  11 1650.63  109.69
  -4   0 -11    1.40    2.50
  -4   0 -11    0.80    2.00
  -4   0 -11   -0.90    3.70
   4   0  11   -3.60    3.60
  -5  -1 -11   37.20    4.90
  -5  -1 -11   23.00    5.80
   5   1  11   32.60    6.90
  -6  -2 -11    2.30    3.80
  -6  -2 -11   -0.40    1.70
   6   2  11    2.30    4.30
  -7  -3 -11  202.58   13.30
  -7  -3 -11  171.08   16.20
   7   3  11  210.78   18.00
  -8  -4 -11  370.06   23.60
  -8  -4 -11  367.76   26.50
   8   4  11  316.17   33.10
  -9  -5 -11    0.50    2.90
   9   5  11    5.60    7.40
 -10  -6 -11   43.70    9.80
   2   6 -12  102.69   14.40
  -2  -6  12   83.39   10.20
  -2  -6  12   97.69   12.40
   1   5 -12  214.18   17.60
  -1  -5  12  174.38   16.30
  -1  -5  12  155.38   13.80
   0   4 -12  229.78   20.00
   0  -4  12  240.18   19.30
   0  -4  12  221.68   16.50
  -1   3 -12   21.50    7.10
   1  -3  12   13.20    3.60
   1  -3  12   13.20    5.20
  -2   2 -12  327.87   20.80
  -2   2 -12  286.17   24.10
   2  -2  12  324.57   24.60
  -3   1 -12   67.29    9.10
   3  -1  12   56.19    9.30
  -4   0 -12   76.09    6.30
  -4   0 -12   81.69    9.80
   4   0  12   66.79   10.00
  -5  -1 -12    2.90    3.90
  -5  -1 -12    0.80    5.00
   5   1  12   -3.90    4.90
  -6  -2 -12  386.46   28.90
  -6  -2 -12  397.36   25.10
  -7  -3 -12   33.20    8.30
  -7  -3 -12   33.20    4.10
   7   3  12   33.50    8.30
  -8  -4 -12   11.80    6.20
  -8  -4 -12   16.70    3.20
   8   4  12   20.60    8.60
  -9  -5 -12   58.29   10.10
   9   5  12   61.09   11.80
   1   5 -13   -2.10    7.30
  -1  -5  13    5.10    6.10
  -1  -5  13    2.20    4.20
   0   4 -13   45.70    9.80
   0  -4  13   37.90    5.80
   0  -4  13   46.40    8.70
  -1   3 -13  458.85   33.30
   1  -3  13  431.36   32.20
   1  -3  13  418.06   28.70
  -2   2 -13  311.47   26.50
  -2   2 -13  351.66   22.70
   2  -2  13  379.96   27.60
  -3   1 -13   39.90    8.00
   3  -1  13   43.30    8.10
  -4   0 -13    1.80    2.80
  -4   0 -13    4.30    4.80
   4   0  13    2.70    5.10
  -5  -1 -13  258.67   21.20
   5   1  13  244.48   22.10
  -6  -2 -13   33.50    7.90
   6   2  13   38.10    9.20
  -7  -3 -13    0.30    5.90
   7   3  13    9.90    7.80
  -8  -4 -13  629.54   45.30
   8   4  13  676.23   48.40
   0   4 -14  157.38   19.40
   0  -4  14  154.88   16.90
  -1   3 -14  162.18   19.40
   1  -3  14  211.38   19.10
  -2   2 -14  642.34   47.60
   2  -2  14  712.93   48.50
  -3   1 -14  202.18   19.80
   3  -1  14  206.28   20.00
  -4   0 -14   27.90    8.10
   4   0  14   34.90    9.00
  -5  -1 -14   32.10    8.80
   5   1  14   19.20    8.30
  -6  -2 -14  400.76   31.30
   6   2  14  420.26   34.20
  -7  -3 -14  255.17   24.90
   7   3  14  335.97   27.60
  -1   3 -15    9.40    8.00
   1  -3  15   27.70    9.10
  -2   2 -15  249.58   23.20
   2  -2  15  266.97   25.00
  -3   1 -15   58.29   10.60
   3  -1  15   45.60   10.70
  -4   0 -15   13.10    8.50
   4   0  15   -9.20    7.90
  -5  -1 -15  150.48   18.20
   5   1  15  211.08   19.70
  -5   1  16   91.69   13.90
   5  -1 -16   63.89   11.10
  -6   0  16  668.43   47.50
   6   0 -16  598.94   44.60
  -7  -1  16   21.40   10.80
   7   1 -16    6.60    7.50
  -3   3  15   -2.60   11.60
   3  -3 -15   14.00    6.40
  -4   2  15   79.49   12.80
   4  -2 -15   76.59   12.80
  -5   1  15 1384.66   91.39
   5  -1 -15 1336.67   88.59
  -6   0  15    5.20    8.20
   6   0 -15   -7.90    6.70
  -7  -1  15    2.90    7.40
   7   1 -15    0.80    5.90
  -8  -2  15    4.00    9.10
   8   2 -15    2.30    6.10
  -9  -3  15  293.57   26.30
   9   3 -15  289.07   24.10
  -2   4  14   59.69   12.00
   2  -4 -14   65.89   11.80
  -3   3  14    6.50    7.50
   3  -3 -14    0.00    4.80
  -4   2  14    8.40    7.50
   4  -2 -14   -1.60    4.90
  -5   1  14  199.28   19.10
   5  -1 -14  161.28   16.40
  -6   0  14   34.10    8.90
   6   0 -14   24.50    6.80
  -7  -1  14   43.00    9.30
   7   1 -14   46.40    8.20
  -8  -2  14   -0.20    6.20
   8   2 -14    2.30    5.10
  -9  -3  14    8.50    6.80
   9   3 -14    4.60    5.90
 -10  -4  14  580.04   44.10
  10   4 -14  621.94   42.00
  -1   5  13   -9.20    7.50
   1  -5 -13    3.50    5.80
  -2   4  13    9.30    6.50
   2  -4 -13   10.70    6.20
   3  -3 -13  363.36   27.20
  -4   2  13  174.68   17.30
   4  -2 -13  152.88   15.60
  -5   1  13    9.00    6.00
   5  -1 -13    9.50    5.00
  -6   0  13    2.00    4.90
   6   0 -13    0.80    4.00
  -7  -1  13   50.59    9.10
   7   1 -13   60.19    8.30
  -8  -2  13   49.40   13.30
   8   2 -13   80.19    9.90
  -9  -3  13   26.10    6.80
 -10  -4  13  813.62   54.59
  10   4 -13  761.72   52.59
 -11  -5  13  138.29   15.80
  11   5 -13  119.29   14.20
   0   6  12  486.25   36.80
   0  -6 -12  459.75   34.80
  -1   5  12  181.18   17.90
   1  -5 -12  174.48   16.20
  -2   4  12  204.98   18.60
   2  -4 -12  176.78   16.20
  -3   3  12  335.37   26.20
   3  -3 -12  321.17   24.50
  -4   2  12 2279.67  138.99
   4  -2 -12 2067.09  136.99
  -5   1  12  137.29   14.40
   5  -1 -12  141.49   12.70
  -6   0  12  375.46   26.60
   6   0 -12  300.17   24.10
  -7  -1  12   66.79    9.90
   7   1 -12   60.89    7.80
  -8  -2  12   25.30    3.30
  -8  -2  12   27.20    6.50
   8   2 -12   35.70    6.40
  -9  -3  12  161.18   12.30
  -9  -3  12  176.08   16.20
   9   3 -12  189.68   15.10
 -10  -4  12  142.99   10.70
 -10  -4  12  125.79   14.40
  10   4 -12  128.79   12.60
 -11  -5  12   42.40    7.60
 -11  -5  12   44.90    5.90
 -12  -6  12    4.60    4.70
 -12  -6  12   12.20    7.60
  12   6 -12   -3.70    5.40
   1   7  11   40.90    9.40
  -1  -7 -11   29.90    8.30
   0   6  11  114.59   14.50
   0  -6 -11  125.79    9.60
   0  -6 -11  119.69   13.40
  -1   5  11   23.60    6.90
   1  -5 -11   31.00    3.70
  -2   4  11   37.70    7.30
   2  -4 -11   47.90    7.60
   2  -4 -11   49.90    4.10
  -3   3  11   32.10    7.10
   3  -3 -11   25.20    5.20
  -4   2  11  229.58   18.20
   4  -2 -11  197.38   16.70
  -5   1  11   91.69   10.50
   5  -1 -11   83.79    9.30
  -6   0  11    0.50    3.90
   6   0 -11   -3.70    3.00
  -7  -1  11  267.67   20.80
   7   1 -11  244.18   18.80
  -8  -2  11   92.79   10.40
  -8  -2  11   90.49    7.20
   8   2 -11  100.19    6.60
   8   2 -11   77.99    9.20
  -9  -3  11  550.94   36.70
  -9  -3  11  622.34   40.70
   9   3 -11  611.04   39.20
   9   3 -11  541.75   36.40
 -10  -4  11   30.20    4.20
 -10  -4  11   24.50    6.30
  10   4 -11   38.70    6.10
 -11  -5  11    0.40    5.00
 -11  -5  11    7.70    3.40
  11   5 -11    7.40    4.40
 -12  -6  11   58.89    7.20
  12   6 -11   51.59    8.10
   1   7  10   85.19   13.50
  -1  -7 -10  104.29   14.10
  -1  -7 -10  104.19    8.50
   0   6  10   11.50    5.40
   0  -6 -10   11.50    6.20
   0  -6 -10   12.30    2.60
  -1   5  10   14.20    4.90
   1  -5 -10    6.60    4.60
   1  -5 -10    5.60    2.00
  -2   4  10   39.60    5.00
  -2   4  10   54.49    8.30
   2  -4 -10   45.50    4.20
   2  -4 -10   47.10    7.30
  -3   3  10 1693.53  105.59
   3  -3 -10 1598.14  104.19
  -4   2  10  782.82   50.89
   4  -2 -10  725.73   49.30
  -5   1  10   42.80    6.60
   5  -1 -10   35.10    5.80
  -6   0  10  242.08   19.20
   6   0 -10  242.78   18.00
  -7  -1  10    5.70    4.40
   7   1 -10   11.60    3.50
  -8  -2  10  350.26   25.40
  -8  -2  10  332.97   21.90
   8   2 -10  345.07   21.60
   8   2 -10  338.37   24.00
  -9  -3  10  653.93   42.40
  -9  -3  10  680.13   45.80
   9   3 -10  648.54   44.30
   9   3 -10  702.53   42.20
 -10  -4  10  222.98   18.10
 -10  -4  10  216.88   15.20
  10   4 -10  214.58   16.80
 -11  -5  10    3.70    3.30
 -11  -5  10   24.30    5.40
  11   5 -10    7.80    4.20
 -12  -6  10   61.59    7.90
 -12  -6  10   57.49    8.70
  12   6 -10   55.39    8.60
 -13  -7  10  155.38   14.40
 -13  -7  10  171.78   16.50
  13   7 -10  159.48   14.90
  -2  -8  -9    8.40    3.90
  -2  -8  -9    5.70    7.90
   1   7   9  245.58   22.10
  -1  -7  -9  283.57   19.00
  -1  -7  -9  299.57   22.60
   0   6   9   35.40    6.50
   0  -6  -9   39.00    7.50
   0  -6  -9   37.70    4.60
  -1   5   9  234.28   18.10
  -1   5   9  194.58   15.20
   1  -5  -9  232.58   18.00
   1  -5  -9  231.18   14.80
  -2   4   9  116.89   10.00
  -2   4   9  156.18   13.10
   2  -4  -9  155.78   10.00
   2  -4  -9  154.78   12.40
  -3   3   9 2409.76  152.68
   3  -3  -9 2293.87  151.68
   3  -3  -9 2561.94  149.29
  -4   2   9   -2.20    2.90
   4  -2  -9   -1.00    2.40
  -5   1   9   76.29    8.20
   5  -1  -9   72.89    7.50
  -6   0   9    1.40    2.90
   6   0  -9   -0.10    2.40
  -7  -1   9   63.99    4.90
  -7  -1   9   78.09    8.40
   7   1  -9   65.39    6.90
   7   1  -9   71.19    4.70
  -8  -2   9  400.36   26.10
  -8  -2   9  409.66   29.20
   8   2  -9  393.56   25.80
   8   2  -9  439.56   28.10
  -9  -3   9  108.19   10.80
  -9  -3   9  105.59    8.00
   9   3  -9  104.89    7.80
   9   3  -9  103.79    9.60
 -10  -4   9  113.79    9.20
 -10  -4   9  132.49   11.70
  10   4  -9  114.49   10.80
 -11  -5   9  156.98   11.40
 -11  -5   9  134.59   13.40
  11   5  -9  138.59   12.10
 -12  -6   9   -0.50    4.60
 -12  -6   9    1.20    3.60
  12   6  -9    2.00    3.70
 -13  -7   9   20.70    5.50
 -13  -7   9   31.30    6.90
  13   7  -9   23.10    5.60
  -2  -8  -8   26.30    9.60
  -2  -8  -8   23.40    4.40
   1   7   8   71.79   10.80
  -1  -7  -8   88.29   12.70
  -1  -7  -8  104.29    8.20
   0   6   8    6.00    3.90
   0  -6  -8    1.80    3.90
   0  -6  -8   -2.30    2.00
  -1   5   8   81.69    7.60
  -1   5   8   83.19    9.50
   1  -5  -8  107.09    9.60
   1  -5  -8   91.49    7.00
  -2   4   8  503.25   36.80
  -2   4   8  612.04   39.50
   2  -4  -8  649.24   37.00
   2  -4  -8  588.64   39.10
  -3   3   8  899.91   57.59
  -3   3   8  845.82   54.69
   3  -3  -8  902.01   54.69
   3  -3  -8  885.21   56.99
  -4   2   8  539.85   36.50
   4  -2  -8  537.55   35.60
  -5   1   8   -1.30    2.40
   5  -1  -8    0.20    2.30
  -6   0   8  159.58   13.10
   6   0  -8  151.28   11.70
  -7  -1   8    0.10    2.50
  -7  -1   8    1.90    1.20
   7   1  -8    1.40    2.30
   7   1  -8    1.80    1.20
  -8  -2   8 2261.77  136.39
  -8  -2   8 2298.87  139.29
   8   2  -8 2145.99  137.79
   8   2  -8 2125.89  136.09
  -9  -3   8  563.14   38.10
  -9  -3   8  605.34   35.60
   9   3  -8  529.25   35.20
   9   3  -8  536.95   36.70
 -10  -4   8   72.29    8.80
 -10  -4   8   82.49    6.70
  10   4  -8   66.59    7.40
 -11  -5   8  252.27   20.30
 -11  -5   8  257.37   18.30
  11   5  -8  284.77   19.30
 -12  -6   8  678.53   44.40
 -12  -6   8  753.32   46.70
  12   6  -8  630.74   45.00
 -13  -7   8   44.10    6.70
 -13  -7   8   43.30    7.60
  13   7  -8   59.59    8.10
 -14  -8   8  603.44   42.90
  14   8  -8  657.03   42.90
   2   8   7   33.80    9.10
  -2  -8  -7   23.30    7.70
  -2  -8  -7   33.90    4.80
   1   7   7    8.50    4.50
  -1  -7  -7    8.50    3.00
  -1  -7  -7   14.90    6.30
   0   6   7    7.20    3.70
   0  -6  -7   10.80    2.70
   0  -6  -7    4.00    4.50
   0  -6  -7    8.90    4.20
  -1   5   7   98.59    9.70
  -1   5   7   94.69    8.40
   1  -5  -7  113.49   10.40
   1  -5  -7  110.69   10.50
   1  -5  -7  111.99    7.90
  -2   4   7  967.60   63.99
  -2   4   7  999.10   62.09
   2  -4  -7  995.00   62.29
   2  -4  -7 1004.70   63.89
   2  -4  -7 1017.80   64.19
  -3   3   7  252.17   18.50
  -3   3   7  256.67   16.20
   3  -3  -7  243.98   18.40
   3  -3  -7  247.88   18.10
   3  -3  -7  264.47   16.30
  -4   2   7   10.50    1.40
  -4   2   7   15.30    3.60
   4  -2  -7   10.80    3.60
   4  -2  -7   10.60    1.40
   4  -2  -7   16.50    3.20
  -5   1   7  297.27   20.80
   5  -1  -7  276.57   20.70
   5  -1  -7  294.47   20.00
  -6   0   7    3.50    3.60
  -6   0   7    5.40    2.60
   6   0  -7    0.60    3.10
   6   0  -7   -0.10    1.60
  -7  -1   7  239.18   17.00
  -7  -1   7  214.38   16.90
  -7  -1   7  226.58   14.40
   7   1  -7  222.88   14.30
   7   1  -7  198.28   17.30
   7   1  -7  243.88   15.90
  -8  -2   7 1511.75   99.19
  -8  -2   7 1563.54   96.79
  -8  -2   7 1481.55   98.69
   8   2  -7 1581.54   96.69
   8   2  -7 1677.53   98.19
  -9  -3   7   49.90    6.60
  -9  -3   7   49.30    7.70
  -9  -3   7   52.39    4.70
   9   3  -7   49.50    5.80
   9   3  -7   56.19    4.80
 -10  -4   7  442.76   27.50
 -10  -4   7  447.06   29.60
  10   4  -7  378.76   28.00
 -11  -5   7  156.68   12.70
 -11  -5   7  143.19   10.80
  11   5  -7  121.09   11.10
 -12  -6   7  398.76   26.60
 -12  -6   7  377.76   28.00
  12   6  -7  400.86   27.10
 -13  -7   7  188.38   16.00
  13   7  -7  174.08   14.90
 -14  -8   7    9.90    6.10
 -14  -8   7    9.50    6.10
  14   8  -7    6.90    5.40
   3   9   6   23.10   11.10
  -3  -9  -6   40.30    6.40
   2   8   6  810.72   57.39
  -2  -8  -6  772.82   50.59
   1   7   6  145.09   12.80
  -1  -7  -6  172.88   11.90
  -1  -7  -6  144.69   14.60
   0   6   6  198.48   16.40
   0  -6  -6  229.78   15.50
   0  -6  -6  236.98   17.90
   0  -6  -6  235.78   16.70
  -1   5   6  140.19   11.00
  -1   5   6  137.69   11.80
   1  -5  -6  163.58   13.00
   1  -5  -6  160.58   12.30
   1  -5  -6  161.48   10.80
  -2   4   6  599.84   38.40
  -2   4   6  636.24   39.90
   2  -4  -6  641.24   39.90
   2  -4  -6  566.14   39.90
  -3   3   6    3.90    2.50
  -3   3   6    4.20    1.40
   3  -3  -6    2.70    2.50
   3  -3  -6    7.00    2.60
   3  -3  -6    1.30    1.30
  -4   2   6  429.26   26.40
  -4   2   6  424.16   28.60
  -4   2   6  465.75   28.60
   4  -2  -6  446.56   26.40
   4  -2  -6  356.76   27.70
  -5   1   6   12.60    3.00
  -5   1   6   11.00    3.30
   5  -1  -6   14.50    2.70
   5  -1  -6   11.30    3.20
  -6   0   6  182.78   10.90
  -6   0   6  166.88   13.20
  -6   0   6  181.98   13.30
  -6   0   6  167.28   10.90
   6   0  -6  176.48   13.80
   6   0  -6  168.08   12.40
  -7  -1   6   74.39    5.20
  -7  -1   6   78.09    7.40
  -7  -1   6   80.09    7.50
   7   1  -6   62.59    5.00
   7   1  -6   81.39    6.50
  -8  -2   6   83.89    8.20
  -8  -2   6   98.69    9.30
  -8  -2   6   92.89    6.70
  -8  -2   6   94.89    9.20
   8   2  -6   85.49    6.50
   8   2  -6   98.99    7.70
   8   2  -6   88.89   10.00
  -9  -3   6   88.29    8.50
  -9  -3   6   84.79    6.70
  -9  -3   6   90.29    9.80
  -9  -3   6   90.29    9.70
   9   3  -6   90.09    6.80
 -10  -4   6   17.10    6.10
 -10  -4   6   38.40    5.50
 -10  -4   6   22.30    3.40
  10   4  -6   30.50    4.50
 -11  -5   6   20.60    4.80
 -11  -5   6   23.70    3.90
  11   5  -6   23.50    4.20
 -12  -6   6    3.00    3.80
 -12  -6   6    6.30    3.10
  12   6  -6    5.90    3.20
 -13  -7   6    6.90    4.50
  13   7  -6   15.40    5.00
 -14  -8   6   58.09    8.10
 -14  -8   6   53.69    8.00
  14   8  -6   47.10    7.50
   3   9   5  302.77   26.20
  -3  -9  -5  254.97   19.90
   2   8   5  216.88   19.60
  -2  -8  -5  184.98   14.60
   1   7   5   57.99    8.50
   1   7   5   67.79   10.50
  -1  -7  -5   65.79    9.30
  -1  -7  -5   56.69    6.40
   0   6   5  167.58   14.30
   0  -6  -5  193.68   15.20
   0  -6  -5  181.88   13.00
   0  -6  -5  188.88   13.60
  -1   5   5  515.45   33.90
  -1   5   5  495.65   33.00
   1  -5  -5  546.95   33.60
   1  -5  -5  494.65   32.80
   1  -5  -5  521.25   34.60
  -2   4   5 1597.14  103.69
  -2   4   5 1660.23  102.69
   2  -4  -5 1764.02  103.69
   2  -4  -5 1674.13  104.19
   2  -4  -5 1592.64  102.99
  -3   3   5  281.87   18.90
  -3   3   5  258.07   18.70
  -3   3   5  262.47   17.20
   3  -3  -5  268.17   17.30
   3  -3  -5  278.07   18.60
   3  -3  -5  267.47   18.60
  -4   2   5  374.76   26.40
  -4   2   5  378.16   26.20
   4  -2  -5  418.66   26.10
   4  -2  -5  394.26   26.30
   4  -2  -5  405.76   24.70
  -5   1   5  319.57   19.60
  -5   1   5  334.47   22.00
  -5   1   5  293.57   19.60
   5  -1  -5  328.27   21.80
  -6   0   5    3.00    2.40
  -6   0   5   -0.10    2.10
  -6   0   5    2.00    0.60
   6   0  -5    3.40    2.60
   6   0  -5    1.40    1.70
  -7  -1   5 6126.09  394.76
  -7  -1   5 6243.88  393.96
   7   1  -5 6587.94  395.26
   7   1  -5 6604.24  393.76
  -8  -2   5  168.88   12.60
  -8  -2   5  134.69   11.90
  -8  -2   5  160.88   12.10
  -8  -2   5  141.79   10.40
   8   2  -5  158.98   11.30
   8   2  -5  170.18   10.40
  -9  -3   5   88.59    9.10
  -9  -3   5   99.39    7.10
  -9  -3   5   94.29    9.50
  -9  -3   5   99.89    8.80
   9   3  -5   86.39    6.90
   9   3  -5   91.99    7.80
 -10  -4   5  164.08   11.40
 -10  -4   5  162.98   13.90
 -10  -4   5  161.78   13.00
 -10  -4   5  141.19   13.30
  10   4  -5  164.38   11.80
 -11  -5   5 1006.70   63.39
 -11  -5   5  929.21   61.69
 -11  -5   5  947.11   63.29
  11   5  -5 1021.00   62.19
 -12  -6   5   61.59    7.40
 -12  -6   5   77.09    8.60
  12   6  -5   72.79    7.50
 -13  -7   5  838.52   58.09
 -13  -7   5  934.11   58.79
  13   7  -5  899.51   57.69
 -14  -8   5  347.17   27.10
 -14  -8   5  392.86   27.00
  14   8  -5  386.56   26.60
   3   9   4  948.11   65.19
  -3  -9  -4  930.41   60.39
  -2  -8  -4   53.79    6.90
   1   7   4   52.49    8.90
   1   7   4   42.50    6.30
  -1  -7  -4   52.29    5.90
  -1  -7  -4   56.59    5.70
   0   6   4  288.77   21.10
   0  -6  -4  309.57   22.80
   0  -6  -4  345.47   20.90
   0  -6  -4  307.17   20.90
  -1   5   4 1041.30   69.19
  -1   5   4 1047.70   69.09
   1  -5  -4 1122.59   70.39
   1  -5  -4 1113.49   68.89
   1  -5  -4 1175.58   69.09
  -2   4   4  646.14   46.40
  -2   4   4  854.41   47.40
  -2   4   4  704.63   46.00
   2  -4  -4  706.43   47.20
   2  -4  -4  717.93   46.00
   2  -4  -4  774.02   46.50
  -3   3   4   95.19    8.20
  -3   3   4   99.09    7.90
  -3   3   4   89.19    6.90
   3  -3  -4  112.39    8.10
   3  -3  -4   93.09    6.90
   3  -3  -4  103.59    7.80
  -4   2   4  267.27   19.00
  -4   2   4  274.57   18.90
  -4   2   4  281.07   17.80
   4  -2  -4  286.47   18.90
   4  -2  -4  290.37   17.80
   4  -2  -4  288.67   19.00
  -5   1   4   41.50    4.70
  -5   1   4   43.30    3.10
  -5   1   4   46.80    4.70
   5  -1  -4   44.00    3.10
   5  -1  -4   43.50    4.30
  -6   0   4 2928.81  184.58
  -6   0   4 2704.73  182.88
  -6   0   4 3088.89  183.98
   6   0  -4 2762.12  182.88
   6   0  -4 3244.78  184.88
   6   0  -4 3124.69  183.78
  -7  -1   4  740.43   46.20
  -7  -1   4  798.52   47.80
  -7  -1   4  770.22   48.00
   7   1  -4  660.33   46.10
   7   1  -4  755.12   46.70
  -8  -2   4 1100.89   66.39
  -8  -2   4 1084.29   65.49
  -8  -2   4 1072.99   66.99
   8   2  -4  998.70   65.29
   8   2  -4 1009.60   65.79
  -9  -3   4  265.77   17.40
  -9  -3   4  288.57   19.10
  -9  -3   4  258.67   18.70
  -9  -3   4  259.07   19.00
   9   3  -4  256.67   17.30
   9   3  -4  266.07   17.80
 -10  -4   4   -0.40    1.80
 -10  -4   4   -3.90    3.40
 -10  -4   4    9.30    3.60
 -10  -4   4   -2.30    2.20
  10   4  -4    2.40    2.50
 -11  -5   4   10.70    5.50
 -11  -5   4    6.80    4.70
 -11  -5   4    8.60    3.10
 -11  -5   4   12.20    3.40
  11   5  -4   11.30    3.00
 -12  -6   4  477.75   33.70
 -12  -6   4  529.95   35.20
  12   6  -4  489.25   33.90
  12   6  -4  558.04   34.50
 -13  -7   4  265.07   18.60
 -13  -7   4  233.48   19.20
  13   7  -4  246.88   18.30
 -14  -8   4   22.20    6.40
 -14  -8   4   31.30    6.10
  14   8  -4   17.20    5.60
   3   9   3  223.08   29.80
  -3  -9  -3  269.97   19.10
   2   8   3  105.09   13.90
  -2  -8  -3   99.29    9.30
   1   7   3  533.55   37.60
  -1  -7  -3  527.85   32.80
  -1  -7  -3  501.75   33.90
   0   6   3    6.80    2.20
   0   6   3    7.10    4.50
   0  -6  -3    4.30    2.40
   0  -6  -3    5.10    1.90
  -1   5   3  494.55   34.10
   1  -5  -3  536.45   34.30
   1  -5  -3  539.05   34.00
   1  -5  -3  583.64   35.80
  -2   4   3  217.98   13.90
  -2   4   3  196.58   14.60
  -2   4   3  191.98   13.70
   2  -4  -3  193.98   14.70
   2  -4  -3  212.58   13.70
   2  -4  -3  218.58   13.80
  -3   3   3   28.30    3.30
  -3   3   3   27.70    3.10
  -3   3   3   38.10    4.40
   3  -3  -3   28.00    3.30
   3  -3  -3   28.40    3.10
   3  -3  -3   21.70    4.00
  -4   2   3  118.19    8.90
  -4   2   3  125.09    9.00
  -4   2   3  126.89    8.20
   4  -2  -3  120.29    8.90
   4  -2  -3  113.89    8.80
   4  -2  -3  127.69    8.10
  -5   1   3    6.90    1.70
  -5   1   3    3.80    1.80
  -5   1   3    6.60    1.00
   5  -1  -3    6.80    1.80
   5  -1  -3    5.40    1.70
  -6   0   3    1.10    1.20
  -6   0   3    3.40    1.60
  -6   0   3   -0.10    0.60
  -6   0   3    5.40    2.10
   6   0  -3    1.80    0.70
   6   0  -3    1.40    1.10
  -7  -1   3 1908.41  135.39
  -7  -1   3 2380.96  136.79
  -7  -1   3 2236.28  136.99
  -7  -1   3 2282.37  135.89
   7   1  -3 2107.89  135.39
   7   1  -3 2274.07  135.69
  -8  -2   3  205.78   13.90
  -8  -2   3  238.28   14.70
  -8  -2   3  200.88   15.50
  -8  -2   3  219.18   15.20
   8   2  -3  197.38   13.70
   8   2  -3  215.08   13.90
   8   2  -3  208.88   15.60
  -9  -3   3  867.51   54.69
  -9  -3   3  895.51   54.39
  -9  -3   3  837.32   52.99
  -9  -3   3  860.71   53.49
   9   3  -3  841.82   52.89
   9   3  -3  851.71   53.09
   9   3  -3  758.12   54.59
 -10  -4   3  157.48   11.20
 -10  -4   3  154.68   12.00
 -10  -4   3  146.79   12.50
 -10  -4   3  153.88   12.90
  10   4  -3  156.48   11.40
  10   4  -3  176.28   13.10
 -11  -5   3   29.10    5.50
 -11  -5   3   33.00    4.60
 -11  -5   3   38.70    6.20
  11   5  -3   43.30    5.80
 -12  -6   3  173.18   13.40
 -12  -6   3  164.28   14.30
  12   6  -3  170.98   13.40
  12   6  -3  193.68   13.80
 -13  -7   3  645.14   43.10
 -13  -7   3  610.94   41.80
  13   7  -3  653.83   42.10
 -14  -8   3  178.38   15.50
 -14  -8   3  165.98   15.20
  14   8  -3  181.38   14.80
   3   9   2  345.47   30.80
  -3  -9  -2  296.07   22.40
   2   8   2   53.39   10.50
  -2  -8  -2   45.60    6.20
   1   7   2    5.50    5.20
  -1  -7  -2    3.30    2.70
   0   6   2 1189.28   76.09
   0  -6  -2 1142.39   73.19
  -1   5   2 1030.40   68.29
  -1   5   2 1214.18   71.79
   1  -5  -2 1046.10   69.09
   1  -5  -2 1138.19   68.39
  -2   4   2 1154.98   74.39
  -2   4   2 1206.58   75.59
  -2   4   2 1229.88   74.99
   2  -4  -2 1188.38   75.79
   2  -4  -2 1215.38   74.89
   2  -4  -2 1217.48   74.49
  -3   3   2    6.20    1.30
  -3   3   2    4.30    1.60
  -3   3   2    4.70    1.90
   3  -3  -2    6.40    2.30
   3  -3  -2    4.90    1.50
   3  -3  -2    7.80    1.40
  -4   2   2  375.26   23.40
  -4   2   2  348.67   23.30
  -4   2   2  367.76   23.60
  -4   2   2  369.16   23.00
   4  -2  -2  350.16   22.90
   4  -2  -2  365.16   23.50
   4  -2  -2  370.86   23.30
  -5   1   2   34.80    3.40
  -5   1   2   34.50    3.60
  -5   1   2   30.70    2.80
  -5   1   2   41.60    3.30
   5  -1  -2   29.60    3.10
   5  -1  -2   33.40    2.70
  -6   0   2 3189.68  208.08
  -6   0   2 3632.64  209.08
  -6   0   2 3325.27  208.28
  -7  -1   2    2.40    1.10
  -7  -1   2    0.60    1.50
  -7  -1   2    4.10    1.20
   7   1  -2    1.80    0.90
   7   1  -2    2.50    0.90
   7   1  -2    2.00    1.70
  -8  -2   2  408.96   26.90
  -8  -2   2  477.35   28.20
  -8  -2   2  418.76   26.90
   8   2  -2  394.86   26.70
   8   2  -2  418.56   28.20
   8   2  -2  429.16   26.70
  -9  -3   2  331.67   21.90
  -9  -3   2  326.77   21.80
  -9  -3   2  362.96   23.10
   9   3  -2  353.96   21.80
   9   3  -2  322.27   21.70
   9   3  -2  326.57   23.30
 -10  -4   2 1311.17   86.09
 -10  -4   2 1446.16   87.29
  10   4  -2 1336.57   86.09
  10   4  -2 1471.15   85.89
  10   4  -2 1330.97   87.59
 -11  -5   2   51.09    5.70
 -11  -5   2   47.60    7.40
  11   5  -2   44.90    6.80
  11   5  -2   53.09    6.80
  11   5  -2   52.79    5.70
 -12  -6   2  635.34   41.30
  12   6  -2  594.24   42.70
  12   6  -2  700.53   41.10
  12   6  -2  605.94   41.40
 -13  -7   2    5.90    3.60
 -13  -7   2    2.40    4.40
  13   7  -2    2.90    3.70
 -14  -8   2   57.49    8.10
 -14  -8   2   69.29    8.70
  14   8  -2   49.70    7.50
   3   9   1   98.89   14.10
  -3  -9  -1   90.99   10.30
   2   8   1  281.67   23.00
  -2  -8  -1  240.48   18.30
   1   7   1  291.77   23.20
  -1  -7  -1  286.67   19.90
   0   6   1 1188.38   73.09
   0  -6  -1 1048.10   70.09
  -1   5   1 1251.47   77.29
  -1   5   1 1198.58   76.59
   1  -5  -1 1144.29   74.79
  -2   4   1    8.10    3.40
  -2   4   1    6.50    2.40
  -2   4   1    6.60    2.10
   2  -4  -1    9.70    2.10
  -3   3   1   34.50    3.50
  -3   3   1   34.70    4.10
  -3   3   1   31.30    4.90
  -3   3   1   36.40    2.60
  -3   3   1   34.30    2.50
   3  -3  -1   35.60    3.50
  -4   2   1  323.67   20.70
  -4   2   1  338.17   20.60
  -4   2   1  345.77   20.60
  -4   2   1  290.67   20.90
   4  -2  -1  313.67   21.00
   4  -2  -1  331.27   20.60
  -5   1   1 1092.29   69.69
  -5   1   1 1166.18   69.99
  -5   1   1 1126.19   69.59
   5  -1  -1 1135.99   69.99
   5  -1  -1 1146.19   69.59
   5  -1  -1 1079.29   69.69
  -6   0   1   -0.20    1.10
  -6   0   1    1.40    0.80
  -6   0   1    0.40    0.70
   6   0  -1    0.00    1.00
   6   0  -1    2.10    0.90
   6   0  -1    1.50    0.60
  -7  -1   1 1083.09   64.79
  -7  -1   1  970.60   63.79
   7   1  -1 1034.30   63.79
   7   1  -1 1030.60   64.79
  -8  -2   1   15.70    2.80
  -8  -2   1   10.80    2.10
   8   2  -1   10.70    2.70
   8   2  -1    9.00    1.30
   8   2  -1   10.40    1.40
   8   2  -1   10.10    1.80
  -9  -3   1   42.10    4.00
  -9  -3   1   44.10    5.40
   9   3  -1   45.20    4.10
   9   3  -1   44.60    4.00
   9   3  -1   34.60    5.30
 -10  -4   1 1005.00   61.59
 -10  -4   1  934.11   60.49
  10   4  -1  948.91   60.49
  10   4  -1 1015.20   60.09
  10   4  -1  902.41   61.79
 -11  -5   1  910.41   58.19
 -11  -5   1  884.21   59.19
  11   5  -1  861.11   59.49
  11   5  -1  967.20   57.79
  11   5  -1  965.00   58.49
 -12  -6   1  844.02   55.69
  12   6  -1  852.51   57.39
  12   6  -1  940.31   55.39
  12   6  -1  849.52   55.99
 -13  -7   1   11.70    4.60
  13   7  -1   20.90    4.60
  13   7  -1    1.70    5.30
 -14  -8   1  177.48   14.60
 -14  -8   1  170.48   15.80
  14   8  -1  159.38   14.80
   3   9   0   70.69   11.60
  -3  -9   0   55.39    7.90
   2   8   0   12.20    7.10
  -2  -8   0   13.50    4.10
   1   7   0   79.09   10.70
  -1  -7   0   66.29    7.10
   0   6   0   67.59    9.10
   0  -6   0   74.79    6.60
  -1   5   0  705.73   45.90
  -1   5   0  689.43   44.60
   1  -5   0  667.93   43.60
  -2   4   0  738.13   47.10
  -2   4   0  757.32   46.40
  -2   4   0  738.13   48.00
   2  -4   0  708.53   46.30
  -3   3   0  184.38   13.10
  -3   3   0  206.18   12.80
  -3   3   0  175.68   13.90
   3  -3   0  190.38   12.70
  -4   2   0  429.76   28.30
  -4   2   0  441.06   27.30
  -4   2   0  463.25   27.50
   4  -2   0  430.96   27.20
   4  -2   0  399.86   28.00
   4  -2   0  442.76   27.40
  -5   1   0   57.49    4.20
  -5   1   0   54.99    4.70
  -5   1   0   57.79    4.60
   5  -1   0   58.09    4.50
   5  -1   0   57.69    4.60
  -6   0   0 1009.80   64.89
  -6   0   0  988.90   64.79
  -6   0   0 1094.59   65.49
   6   0   0 1092.09   64.89
   6   0   0 1096.19   65.49
   6   0   0 1007.00   64.79
  -7  -1   0   20.70    3.20
  -7  -1   0   22.10    2.30
   7   1   0   19.90    3.10
   7   1   0   22.60    2.30
  -8  -2   0  987.10   61.29
  -8  -2   0  966.30   60.29
   8   2   0  931.71   60.19
   8   2   0 1004.50   59.79
   8   2   0  960.80   61.39
   8   2   0  958.00   59.89
  -9  -3   0   20.50    2.80
  -9  -3   0   21.10    3.60
   9   3   0   21.80    2.90
   9   3   0   17.90    2.70
   9   3   0   18.00    3.60
 -10  -4   0  493.95   31.40
 -10  -4   0  492.05   32.40
  10   4   0  450.45   32.50
  10   4   0  540.25   30.90
  10   4   0  450.85   31.40
 -11  -5   0  195.08   13.80
 -11  -5   0  185.18   15.00
  11   5   0  214.98   13.50
  11   5   0  205.78   14.40
  11   5   0  157.68   14.80
 -12  -6   0  123.99   10.20
  12   6   0  130.69    9.90
  12   6   0  105.59   11.50
  12   6   0  119.99   10.40
 -13  -7   0  107.19   10.00
  13   7   0   83.29   11.50
  13   7   0  111.49   10.40
 -14  -8   0  339.57   23.00
  14   8   0  337.97   23.40
  14   8   0  248.48   23.90
   3   9  -1    4.10    8.10
  -3  -9   1    8.70    5.30
   2   8  -1  668.33   43.50
  -2  -8   1  540.55   39.10
   1   7  -1  529.05   36.50
  -1  -7   1  493.05   33.50
   0   6  -1 1060.49   69.99
   0  -6   1 1081.39   67.59
  -1   5  -1 1361.06   85.79
   1  -5   1 1317.87   83.69
  -2   4  -1  229.58   19.40
  -2   4  -1  311.37   18.30
   2  -4   1  267.87   19.30
   2  -4   1  281.17   18.10
  -3   3  -1    3.80    1.60
  -3   3  -1    2.00    2.60
  -3   3  -1    2.80    0.90
   3  -3   1    1.10    2.20
   3  -3   1    2.80    0.80
   3  -3   1    1.00    1.60
  -4   2  -1 1240.68   88.29
  -4   2  -1 1530.25   87.69
  -4   2  -1 1470.35   87.49
   4  -2   1 1422.26   88.29
   4  -2   1 1417.16   87.59
   4  -2   1 1396.26   87.39
  -5   1  -1 5378.26  308.87
  -5   1  -1 4907.01  308.17
  -5   1  -1 5026.20  308.47
   5  -1   1 5047.40  308.67
   5  -1   1 4686.03  308.17
  -6   0  -1    0.80    1.10
  -6   0  -1    1.40    1.10
  -6   0  -1    1.10    0.90
   6   0   1    0.30    1.30
  -7  -1  -1   13.60    2.40
  -7  -1  -1   10.30    1.40
  -7  -1  -1    8.90    1.50
   7   1   1    8.30    1.20
   7   1   1    7.20    2.10
   7   1   1    8.60    1.60
  -8  -2  -1    2.30    1.40
  -8  -2  -1    2.40    2.00
  -8  -2  -1    2.10    1.00
   8   2   1    0.70    1.80
   8   2   1   -1.10    1.10
   8   2   1    1.80    1.00
  -9  -3  -1 1138.69   75.09
  -9  -3  -1 1178.38   75.39
  -9  -3  -1 1296.67   76.49
   9   3   1 1152.68   75.29
   9   3   1 1287.47   75.09
 -10  -4  -1 1020.20   66.49
 -10  -4  -1 1094.49   67.59
  10   4   1 1056.19   66.79
  10   4   1  995.10   67.79
  10   4   1 1132.79   66.19
 -11  -5  -1  471.85   31.00
 -11  -5  -1  466.75   31.90
  11   5   1  489.65   30.60
  11   5   1  516.45   31.80
  11   5   1  423.26   32.20
 -12  -6  -1 1553.14   98.09
  12   6   1 1330.27   99.29
  12   6   1 1687.53   98.79
  12   6   1 1668.23   97.69
 -13  -7  -1   17.00    4.50
  13   7   1   22.10    4.90
  13   7   1   10.10    5.30
 -14  -8  -1  160.68   13.50
  14   8   1  162.88   14.30
  14   8   1  109.69   15.10
  -3  -9   2    7.10    5.40
   2   8  -2   89.09   11.60
  -2  -8   2   78.09    8.60
   1   7  -2   58.99    9.30
  -1  -7   2   58.39    6.60
   0   6  -2 1239.88   77.19
   0  -6   2 1126.79   74.29
  -1   5  -2    6.80    3.50
   1  -5   2    7.30    2.40
   1  -5   2    5.70    1.20
   1  -5   2    5.20    1.00
  -2   4  -2  237.78   17.90
  -2   4  -2  248.18   15.90
  -2   4  -2  264.77   16.60
   2  -4   2  230.68   15.50
   2  -4   2  236.78   16.30
   2  -4   2  243.28   18.00
  -3   3  -2  208.78   17.40
  -3   3  -2  257.07   15.50
  -3   3  -2  227.38   15.10
   3  -3   2  229.48   16.60
   3  -3   2  232.78   15.00
   3  -3   2  231.38   15.80
  -4   2  -2 4305.07  251.97
  -4   2  -2 4276.17  250.87
  -4   2  -2 4010.20  250.87
   4  -2   2 3590.84  251.47
   4  -2   2 4010.50  250.77
   4  -2   2 4230.18  250.77
  -5   1  -2    4.90    1.30
  -5   1  -2    2.20    1.60
   5  -1   2    3.60    1.30
   5  -1   2    3.00    1.60
   5  -1   2    5.40    1.40
  -6   0  -2  394.46   27.00
  -6   0  -2  433.16   27.40
  -6   0  -2  432.86   26.70
  -6   0  -2  419.46   26.80
   6   0   2  414.86   27.40
   6   0   2  445.76   27.10
  -7  -1  -2  331.57   21.60
  -7  -1  -2  311.77   20.60
  -7  -1  -2  327.07   20.60
   7   1   2  329.97   20.60
   7   1   2  313.27   21.60
  -8  -2  -2   71.69    6.50
  -8  -2  -2   62.09    5.70
  -8  -2  -2   71.99    5.40
   8   2   2   67.09    6.80
   8   2   2   74.69    5.40
   8   2   2   69.09    5.50
  -9  -3  -2  134.89    9.90
  -9  -3  -2  141.49   11.10
  -9  -3  -2  139.59   10.00
   9   3   2  138.39   10.00
   9   3   2  142.39   11.30
   9   3   2  154.48    9.90
 -10  -4  -2 1403.66   83.69
 -10  -4  -2 1261.27   82.59
 -10  -4  -2 1300.17   82.59
  10   4   2 1452.25   82.49
  10   4   2 1191.28   83.89
 -11  -5  -2  974.00   64.09
 -11  -5  -2  984.30   62.89
  11   5   2  865.41   64.19
  11   5   2 1006.40   64.59
  11   5   2 1140.49   62.89
 -12  -6  -2    3.30    3.00
  12   6   2   -0.90    3.40
  12   6   2   -4.50    3.70
 -13  -7  -2  545.65   37.20
  13   7   2  496.75   38.20
  13   7   2  607.44   37.80
 -14  -8  -2   34.00    6.10
  14   8   2   35.80    7.50
  14   8   2   37.60    8.30
   3   9  -3   49.00   11.40
  -3  -9   3   42.40    7.00
   2   8  -3   10.60    6.90
  -2  -8   3    7.90    7.70
   1   7  -3  313.77   23.50
  -1  -7   3  285.67   20.70
   0   6  -3    1.90    4.00
   0  -6   3    6.80    1.90
   0  -6   3    5.70    2.70
   0  -6   3    3.90    1.30
  -1   5  -3   19.00    4.60
   1  -5   3   18.30    2.60
   1  -5   3   22.30    3.40
   1  -5   3   15.30    2.40
  -2   4  -3  238.18   15.30
  -2   4  -3  236.68   15.30
  -2   4  -3  180.78   16.40
   2  -4   3  206.08   16.80
   2  -4   3  236.68   15.20
   2  -4   3  228.48   14.70
  -3   3  -3  945.51   56.59
  -3   3  -3  884.71   56.69
   3  -3   3  845.22   56.79
   3  -3   3  887.81   56.49
   3  -3   3  954.20   58.19
  -4   2  -3    1.30    2.70
  -4   2  -3    3.70    1.60
  -4   2  -3    0.30    1.40
   4  -2   3    5.00    2.50
   4  -2   3    0.70    1.30
   4  -2   3    2.50    1.60
  -5   1  -3 2779.12  161.78
  -5   1  -3 2622.94  161.98
  -5   1  -3 2769.82  161.18
   5  -1   3 2591.04  161.08
   5  -1   3 2429.06  161.88
   5  -1   3 2470.65  161.58
  -6   0  -3    1.20    1.10
  -6   0  -3    2.80    1.70
  -6   0  -3    2.10    1.20
  -6   0  -3    0.20    1.60
   6   0   3    1.30    1.60
   6   0   3    0.30    1.50
  -7  -1  -3   96.79    7.20
  -7  -1  -3   88.89    7.90
  -7  -1  -3  103.09    6.90
   7   1   3   91.69    8.10
   7   1   3   96.99    7.20
   7   1   3   96.89    7.00
  -8  -2  -3  177.08   13.20
  -8  -2  -3  179.78   12.30
   8   2   3  198.68   12.30
   8   2   3  183.78   13.30
   8   2   3  153.68   12.00
  -9  -3  -3 1118.79   65.79
  -9  -3  -3 1019.80   64.69
  -9  -3  -3  993.30   64.39
   9   3   3 1152.28   64.69
   9   3   3 1013.50   65.89
   9   3   3  886.51   64.29
 -10  -4  -3   24.10    4.30
 -10  -4  -3   31.30    3.80
 -10  -4  -3   20.10    4.40
  10   4   3   33.40    4.40
  10   4   3   20.70    4.30
 -11  -5  -3    9.50    2.70
 -11  -5  -3    8.00    3.00
  11   5   3    4.90    3.70
  11   5   3   10.30    3.20
 -12  -6  -3  198.58   14.30
  12   6   3  198.78   14.90
  12   6   3  205.48   15.50
  12   6   3  160.78   15.80
  13   7   3  102.09   13.30
  13   7   3  123.49   12.00
 -14  -8  -3   -3.70    4.40
  14   8   3    4.50    7.00
  14   8   3  -14.00    6.60
   3   9  -4   37.20    9.30
  -3  -9   4   32.70    7.10
   2   8  -4  426.06   32.70
   1   7  -4  634.44   39.20
  -1  -7   4  483.15   34.00
  -1  -7   4  574.74   34.50
  -1  -7   4  493.15   35.40
   0   6  -4  311.17   24.50
   0  -6   4  330.97   22.20
   0  -6   4  311.67   21.10
   0  -6   4  348.17   21.70
  -1   5  -4  186.58   13.00
  -1   5  -4  151.08   13.70
   1  -5   4  164.88   12.00
   1  -5   4  158.28   11.50
  -2   4  -4   57.49    6.00
  -2   4  -4   50.49    5.50
  -2   4  -4   61.99    7.00
   2  -4   4   44.50    7.80
   2  -4   4   51.79    4.90
   2  -4   4   45.50    5.00
  -3   3  -4   70.19    5.90
  -3   3  -4   64.59    6.90
  -3   3  -4   66.79    6.50
   3  -3   4   73.99    5.80
   3  -3   4   78.79    8.20
   3  -3   4   71.49    6.00
  -4   2  -4 3297.57  198.18
  -4   2  -4 3273.07  196.58
  -4   2  -4 3056.79  197.18
   4  -2   4 3599.74  198.28
   4  -2   4 2821.62  196.48
   4  -2   4 3070.59  196.98
  -5   1  -4 1112.29   63.39
  -5   1  -4  874.11   64.19
  -5   1  -4 1015.10   64.19
   5  -1   4 1010.30   64.09
   5  -1   4  999.80   63.29
   5  -1   4 1084.49   64.49
  -6   0  -4 1263.67   77.89
  -6   0  -4 1267.87   78.19
  -6   0  -4 1257.77   77.09
  -6   0  -4 1203.98   77.09
   6   0   4 1250.77   77.89
   6   0   4 1207.38   78.09
  -7  -1  -4   14.40    2.70
  -7  -1  -4   13.00    2.20
  -7  -1  -4   19.10    3.60
   7   1   4   17.20    3.10
   7   1   4   15.80    2.40
   7   1   4   18.70    3.00
  -8  -2  -4 1032.40   66.99
  -8  -2  -4  984.70   66.29
  -8  -2  -4 1069.79   65.79
   8   2   4 1014.90   65.89
   8   2   4 1025.10   67.29
   8   2   4 1208.98   66.49
  -9  -3  -4  588.14   38.30
  -9  -3  -4  602.54   38.90
  -9  -3  -4  612.64   39.70
   9   3   4  657.23   38.90
   9   3   4  561.34   38.30
   9   3   4  604.54   40.10
 -10  -4  -4   74.99    6.50
 -10  -4  -4   69.29    7.10
  10   4   4   86.39    7.70
  10   4   4   78.79    8.30
 -11  -5  -4  160.78   11.80
 -11  -5  -4  158.18   12.40
  11   5   4  149.99   13.70
  11   5   4  162.08   12.50
 -12  -6  -4   92.89    8.20
 -12  -6  -4   82.09    9.00
  12   6   4   80.39   10.20
  12   6   4   89.59    9.70
 -13  -7  -4   38.20    8.10
  13   7   4   52.49    9.20
  13   7   4   55.09    8.00
 -14  -8  -4   22.90    6.10
  14   8   4   13.20    7.90
   3   9  -5  221.28   22.20
  -3  -9   5  228.98   18.50
   2   8  -5   37.70    7.90
  -2  -8   5   42.60    6.50
   1   7  -5 1388.96  100.29
  -1  -7   5 1630.84   97.89
  -1  -7   5 1631.64   96.79
   0   6  -5  179.68   16.20
   0  -6   5  211.58   14.50
   0  -6   5  189.28   13.70
   0  -6   5  191.28   14.20
  -1   5  -5    0.80    3.70
  -1   5  -5    2.00    3.50
   1  -5   5    1.70    2.30
   1  -5   5    3.30    2.30
  -2   4  -5   35.00    5.80
  -2   4  -5   37.00    5.40
   2  -4   5   47.50    5.00
   2  -4   5   36.90    4.40
  -3   3  -5  255.07   17.60
  -3   3  -5  249.68   15.80
  -3   3  -5  230.48   16.60
   3  -3   5  207.58   17.60
   3  -3   5  226.68   16.10
   3  -3   5  224.08   15.60
  -4   2  -5  539.55   39.00
  -4   2  -5  662.83   38.20
  -4   2  -5  523.75   39.40
   4  -2   5  702.83   40.40
   4  -2   5  593.64   38.20
  -5   1  -5 2697.93  158.58
  -5   1  -5 2505.15  159.88
  -5   1  -5 2643.64  159.88
   5  -1   5 2422.56  158.58
  -6   0  -5    1.50    1.50
  -6   0  -5   -0.40    1.40
  -6   0  -5    2.20    2.50
   6   0   5   -0.50    2.30
   6   0   5   -0.40    1.40
  -7  -1  -5    4.90    2.90
  -7  -1  -5    2.30    2.50
  -7  -1  -5    6.30    1.90
   7   1   5    1.50    1.90
   7   1   5    5.80    2.10
   7   1   5    5.70    2.50
  -8  -2  -5  229.28   16.80
  -8  -2  -5  226.38   15.00
   8   2   5  269.17   16.30
   8   2   5  199.48   16.40
   8   2   5  212.88   15.30
  -9  -3  -5  251.27   17.70
  -9  -3  -5  262.27   17.10
   9   3   5  241.58   18.70
   9   3   5  268.77   18.00
 -10  -4  -5 1704.03  104.99
 -10  -4  -5 1592.54  105.69
  10   4   5 1850.41  105.89
  10   4   5 1594.84  106.99
 -11  -5  -5   66.99    7.70
 -11  -5  -5   68.49    6.40
  11   5   5   58.69    8.80
  11   5   5   73.39    9.70
 -12  -6  -5  304.07   21.20
 -12  -6  -5  298.17   22.30
  12   6   5  314.87   23.60
 -13  -7  -5  240.18   17.20
  13   7   5  223.98   19.10
  13   7   5  223.68   20.10
 -14  -8  -5   44.80    7.50
  14   8   5   24.50    9.30
   3   9  -6   34.40   10.00
  -3  -9   6    8.10    7.20
  -2  -8   6   -3.30    4.40
   1   7  -6  376.86   26.60
  -1  -7   6  300.97   23.00
  -1  -7   6  331.17   22.20
   0   6  -6  225.28   19.00
   0  -6   6  237.08   17.00
   0  -6   6  231.08   16.40
   0  -6   6  252.67   17.90
  -1   5  -6  224.88   17.50
  -1   5  -6  207.68   17.70
   1  -5   6  222.58   15.40
   1  -5   6  212.18   15.30
  -2   4  -6  664.13   41.50
  -2   4  -6  571.04   40.30
   2  -4   6  612.74   39.20
   2  -4   6  603.64   39.60
  -3   3  -6   12.80    2.90
  -3   3  -6    4.80    2.90
  -3   3  -6   11.70    4.00
   3  -3   6    6.60    2.20
   3  -3   6    5.50    2.00
  -4   2  -6  283.87   17.30
  -4   2  -6  243.38   18.60
  -4   2  -6  242.98   18.70
   4  -2   6  311.57   20.20
   4  -2   6  226.88   18.00
  -5   1  -6  155.38   10.00
  -5   1  -6  117.59   11.30
  -5   1  -6  135.79   11.10
   5  -1   6  139.69   10.10
   5  -1   6  142.09   10.90
   5  -1   6  155.18   12.10
  -6   0  -6  729.73   46.80
  -6   0  -6  717.13   45.00
  -6   0  -6  675.13   45.00
  -6   0  -6  668.53   46.20
   6   0   6  724.73   46.60
   6   0   6  788.72   46.60
  -7  -1  -6  154.88   11.40
  -7  -1  -6  168.28   12.20
  -7  -1  -6  169.98   11.30
   7   1   6  151.68   12.60
   7   1   6  167.48   12.70
  -8  -2  -6 2741.33  167.98
  -8  -2  -6 2473.75  168.88
   8   2   6 3116.89  169.48
   8   2   6 2689.93  169.98
   8   2   6 2578.44  168.18
  -9  -3  -6    1.10    2.30
  -9  -3  -6    0.90    1.70
   9   3   6    6.30    3.20
   9   3   6    5.70    3.80
 -10  -4  -6    9.10    3.20
 -10  -4  -6    9.30    2.40
  10   4   6    8.10    3.90
 -11  -5  -6   42.90    7.10
 -11  -5  -6   49.80    5.80
  11   5   6   63.59    8.50
 -12  -6  -6  110.89    9.50
 -12  -6  -6   88.59   11.00
  12   6   6  114.99   12.20
 -13  -7  -6  283.47   19.50
 -13  -7  -6  267.17   21.10
  13   7   6  266.57   21.70
  13   7   6  228.58   22.20
  -3  -9   7  198.98   17.00
   2   8  -7    2.60    7.40
  -2  -8   7   10.00    5.00
   1   7  -7  233.48   21.10
  -1  -7   7  253.27   18.50
  -1  -7   7  267.37   17.90
   0   6  -7    3.90    4.40
   0   6  -7    6.40    7.40
   0  -6   7    8.50    2.80
   0  -6   7    9.20    3.30
  -1   5  -7   16.60    4.90
  -1   5  -7   13.90    6.60
   1  -5   7   20.90    3.70
   1  -5   7   16.10    3.50
  -2   4  -7  214.48   17.50
  -2   4  -7  193.98   17.40
   2  -4   7  253.97   16.40
   2  -4   7  213.18   15.30
  -3   3  -7 1101.19   76.39
  -3   3  -7 1309.67   74.79
  -3   3  -7 1244.88   76.89
   3  -3   7 1118.09   74.69
   3  -3   7 1193.18   75.89
  -4   2  -7 1576.04   93.19
  -4   2  -7 1446.16   96.29
  -4   2  -7 1524.05   95.19
   4  -2   7 1455.05   94.49
   4  -2   7 1476.85   93.19
  -5   1  -7   -1.20    2.50
  -5   1  -7   -0.70    2.00
   5  -1   7    3.50    2.30
   5  -1   7    0.00    2.00
  -6   0  -7    2.50    1.70
  -6   0  -7    2.30    1.90
  -6   0  -7    2.80    2.80
   6   0   7    0.10    2.10
   6   0   7   -0.30    3.50
  -7  -1  -7  735.83   49.90
  -7  -1  -7  842.52   50.19
  -7  -1  -7  729.23   51.29
   7   1   7  894.01   53.19
   7   1   7  798.82   52.19
  -8  -2  -7  324.17   19.70
  -8  -2  -7  269.37   20.80
   8   2   7  302.37   21.90
   8   2   7  306.37   20.20
  -9  -3  -7   16.50    3.80
  -9  -3  -7   17.90    2.80
   9   3   7   12.40    3.70
 -10  -4  -7  981.80   62.19
 -10  -4  -7  980.10   63.39
  10   4   7 1000.60   64.89
 -11  -5  -7   70.19    6.50
 -11  -5  -7   62.99    7.90
  11   5   7   50.49    8.40
 -12  -6  -7   31.20    6.70
 -12  -6  -7   47.50    6.00
  12   6   7   27.80    7.20
 -13  -7  -7  132.59   15.00
  13   7   7  136.39   16.00
  -2  -8   8  970.80   62.79
  -1  -7   8   31.50    4.80
  -1  -7   8   32.50    5.70
   0   6  -8    6.00    4.90
   0  -6   8    0.60    3.10
   0  -6   8    5.40    3.10
  -1   5  -8   72.89   10.50
   1  -5   8  102.29    9.10
   1  -5   8  117.99    9.00
  -2   4  -8 1004.20   61.79
   2  -4   8  858.51   59.09
   2  -4   8  949.71   60.39
  -3   3  -8  835.62   54.59
  -3   3  -8  869.51   52.29
   3  -3   8  771.92   52.19
   3  -3   8  827.92   53.69
  -4   2  -8  432.56   27.00
  -4   2  -8  381.86   28.80
   4  -2   8  441.66   28.90
   4  -2   8  408.46   27.00
  -5   1  -8   28.30    5.20
  -5   1  -8   28.20    3.50
  -5   1  -8   34.70    4.00
   5  -1   8   21.90    4.40
  -6   0  -8  177.18   11.80
  -6   0  -8  157.48   13.40
   6   0   8  163.08   13.70
  -7  -1  -8    2.80    3.00
  -7  -1  -8    1.10    2.40
  -7  -1  -8    5.10    1.70
   7   1   8    3.20    3.10
  -8  -2  -8  260.27   20.70
  -8  -2  -8  313.57   19.80
  -8  -2  -8  315.67   19.40
   8   2   8  283.47   21.90
  -9  -3  -8  956.60   65.39
  -9  -3  -8 1096.99   63.99
   9   3   8 1002.50   66.69
 -10  -4  -8  157.78   13.60
 -10  -4  -8  169.68   11.80
  10   4   8  153.88   14.70
 -11  -5  -8  156.38   14.00
 -11  -5  -8  166.58   12.20
  11   5   8  160.28   15.80
 -12  -6  -8  140.39   10.80
 -12  -6  -8  128.09   13.30
  12   6   8   93.79   14.20
 -13  -7  -8   17.70    8.10
 -13  -7  -8    9.50    5.10
   2   8  -9   -3.70    9.20
  -2  -8   9    6.10    5.50
   1   7  -9   15.90    6.50
  -1  -7   9   24.20    4.80
  -1  -7   9   21.40    5.90
   0   6  -9   34.50    8.40
   0  -6   9   46.90    6.30
   0  -6   9   44.60    6.20
  -1   5  -9  539.95   39.50
   1  -5   9  577.54   38.10
   1  -5   9  576.74   37.00
  -2   4  -9   65.19    8.70
   2  -4   9   74.79    7.90
   2  -4   9   64.39    6.90
  -3   3  -9  175.58   15.30
   3  -3   9  195.88   15.10
   3  -3   9  190.68   13.50
  -4   2  -9  441.06   27.10
   4  -2   9  400.96   27.00
   4  -2   9  402.76   29.20
  -5   1  -9   67.69    9.00
  -5   1  -9   74.59    6.30
  -5   1  -9   89.79    7.00
   5  -1   9   74.79    8.50
  -6   0  -9    5.00    2.50
  -6   0  -9    2.10    3.70
  -6   0  -9    1.60    1.60
   6   0   9    1.60    3.10
  -7  -1  -9  783.92   55.29
  -7  -1  -9  890.71   53.39
  -7  -1  -9  934.31   53.79
   7   1   9  785.12   56.09
  -8  -2  -9   42.90    5.40
  -8  -2  -9   28.40    3.80
  -8  -2  -9   28.50    5.60
   8   2   9   29.70    6.10
  -9  -3  -9  749.92   50.79
  -9  -3  -9  805.72   48.90
   9   3   9  761.42   52.19
 -10  -4  -9  343.97   22.20
 -10  -4  -9  303.97   23.70
  10   4   9  351.76   26.20
 -11  -5  -9    8.80    3.00
 -11  -5  -9    1.00    4.70
  11   5   9    0.20    5.60
 -12  -6  -9   14.50    6.50
  12   6   9   19.80   13.00
   1   7 -10  207.88   19.30
  -1  -7  10  164.68   14.90
  -1  -7  10  184.68   14.90
   0   6 -10   -0.10    5.30
   0  -6  10   12.40    4.30
   0  -6  10    6.00    4.20
  -1   5 -10   46.40    8.10
   1  -5  10   41.40    6.70
   1  -5  10   48.50    6.10
  -2   4 -10  584.34   39.80
   2  -4  10  535.95   36.70
   2  -4  10  583.44   38.70
  -3   3 -10 1329.07   89.19
   3  -3  10 1533.45   89.29
   3  -3  10 1297.07   86.69
  -4   2 -10  845.52   59.09
  -4   2 -10  983.90   56.49
   4  -2  10  873.11   59.09
   4  -2  10  873.01   56.59
  -5   1 -10  224.58   14.40
  -5   1 -10  190.88   16.60
  -5   1 -10  212.28   14.20
   5  -1  10  189.58   16.40
  -6   0 -10 1517.75   89.89
  -6   0 -10 1348.17   89.59
  -6   0 -10 1491.45   92.59
   6   0  10 1414.36   92.89
  -7  -1 -10   81.29    6.40
  -7  -1 -10   77.59    9.20
  -7  -1 -10   82.39    7.60
   7   1  10   80.09    9.20
  -8  -2 -10    6.00    3.90
  -8  -2 -10    7.90    3.70
  -8  -2 -10    8.20    2.10
   8   2  10    0.20    4.20
  -9  -3 -10  597.84   43.00
  -9  -3 -10  696.33   40.90
   9   3  10  626.14   44.40
 -10  -4 -10   40.30    5.30
 -10  -4 -10   40.30    6.90
  10   4  10   29.80    7.70
 -11  -5 -10  142.39   15.10
 -11  -5 -10  178.68   12.60
  11   5  10  163.48   17.50
 -12  -6 -10   93.09   15.50
 -12  -6 -10  117.79   11.20
  12   6  10  110.29   17.00
   1   7 -11  130.99   18.20
  -1  -7  11   91.59   12.00
  -1  -7  11  129.49   12.80
   0   6 -11  130.39   14.90
   0  -6  11  102.79   11.10
   0  -6  11  127.19   12.30
  -1   5 -11    5.80    5.00
   1  -5  11    9.10    3.80
   1  -5  11    3.60    4.00
  -2   4 -11  292.47   22.60
   2  -4  11  281.37   21.50
   2  -4  11  266.97   19.50
  -3   3 -11  170.58   15.20
   3  -3  11  154.08   12.40
   3  -3  11  174.48   14.90
  -4   2 -11    0.70    4.40
  -4   2 -11    1.20    2.30
  -4   2 -11    3.50    3.30
   4  -2  11    2.50    4.00
  -5   1 -11   29.00    7.00
  -5   1 -11   37.80    4.60
  -5   1 -11   29.50    4.10
   5  -1  11   30.90    6.40
  -6   0 -11    2.50    3.20
  -6   0 -11   -2.50    1.80
  -6   0 -11    2.90    3.90
   6   0  11   -5.70    4.10
  -7  -1 -11   80.19    8.40
  -7  -1 -11   77.89    6.30
  -7  -1 -11   77.69    9.60
   7   1  11   76.09   10.20
  -8  -2 -11  437.26   25.30
  -8  -2 -11  323.57   27.80
   8   2  11  395.96   29.50
  -9  -3 -11   97.29   11.40
  -9  -3 -11  108.69    7.90
   9   3  11   66.39   13.50
 -10  -4 -11  113.79   13.10
 -10  -4 -11  134.49   10.20
  10   4  11  158.98   16.00
 -11  -5 -11   54.69    6.80
  11   5  11   43.10   10.50
   0   6 -12  588.94   40.20
   0  -6  12  473.85   35.40
   0  -6  12  541.65   37.60
  -1   5 -12   78.09   12.00
   1  -5  12   60.29    8.50
   1  -5  12   71.69   10.70
  -2   4 -12  136.19   16.00
   2  -4  12  163.18   12.80
   2  -4  12  162.18   15.00
  -3   3 -12    8.40    6.20
   3  -3  12    6.70    5.00
   3  -3  12   12.30    3.50
  -4   2 -12   11.10    2.90
  -4   2 -12   11.30    5.20
   4  -2  12   12.00    4.70
  -5   1 -12    3.60    2.20
  -5   1 -12   -3.10    4.70
   5  -1  12    1.40    4.60
  -6   0 -12 1693.33  114.39
  -6   0 -12 1897.01  110.99
   6   0  12 1764.32  115.29
  -7  -1 -12   14.30    5.20
  -7  -1 -12   20.70    2.90
  -8  -2 -12  540.85   39.70
  -8  -2 -12  590.64   36.10
   8   2  12  566.04   41.10
  -9  -3 -12   24.00    3.50
   9   3  12   16.10    8.00
 -10  -4 -12   -0.60    3.00
 -10  -4 -12   11.20    6.70
  10   4  12    5.40    7.70
  -1   5 -13  420.56   35.80
   1  -5  13  423.16   30.50
   1  -5  13  509.45   33.90
  -2   4 -13 1069.29   68.19
   2  -4  13  904.51   63.89
   2  -4  13 1058.89   67.69
  -3   3 -13    6.10    6.00
   3  -3  13   -2.00    4.70
   3  -3  13    4.10    3.50
  -4   2 -13    6.50    6.00
  -4   2 -13   10.60    3.00
   4  -2  13    8.60    5.80
  -5   1 -13  276.87   17.70
  -5   1 -13  231.18   21.50
   5  -1  13  284.47   23.00
  -6   0 -13   -2.30    2.20
  -6   0 -13    3.10    6.00
   6   0  13    2.40    5.70
  -7  -1 -13   35.50    8.80
   7   1  13   32.80    8.40
  -8  -2 -13  173.58   16.90
   8   2  13  192.38   19.30
  -9  -3 -13  295.97   25.30
   9   3  13  336.87   27.70
  -2   4 -14   75.69   12.60
   2  -4  14   66.89   10.70
  -3   3 -14   46.70   12.00
   3  -3  14   39.30    8.50
  -4   2 -14   11.50    8.50
   4  -2  14    1.10    6.10
  -5   1 -14   15.00    7.30
   5  -1  14   37.50    8.40
  -6   0 -14    1.70    6.90
   6   0  14   -5.60    7.40
  -7  -1 -14  120.19   15.60
   7   1  14  110.99   17.40
  -8  -2 -14  612.14   47.00
   8   2  14  733.03   49.60
  -4   2 -15   -3.20    7.20
   4  -2  15   -5.00    6.90
  -5   1 -15  169.38   18.90
   5  -1  15  174.58   19.40
  -6   0 -15  -12.50    6.50
   6   0  15  -14.50    8.30
  -7   1  16    0.80    9.00
   7  -1 -16   17.20    8.00
  -8   0  16    5.60    9.90
   8   0 -16    9.90    6.10
  -5   3  15  483.95   38.50
   5  -3 -15  458.55   34.00
  -6   2  15    5.90    8.30
   6  -2 -15    5.00    7.70
  -7   1  15  -13.50    7.40
   7  -1 -15   -1.30    6.00
  -8   0  15    4.90    8.50
   8   0 -15    5.60    6.90
  -9  -1  15   31.90    9.70
   9   1 -15   42.30    8.50
 -10  -2  15  752.62   48.40
  10   2 -15  547.45   43.40
 -11  -3  15    7.60    8.00
  11   3 -15    5.20    6.70
   3  -5 -14    9.60    7.60
  -4   4  14  192.78   20.10
   4  -4 -14  146.59   18.00
  -5   3  14   -8.70    7.70
   5  -3 -14    2.50    4.90
  -6   2  14   53.19   10.30
   6  -2 -14   53.59    9.00
  -7   1  14   34.60    9.10
   7  -1 -14   33.30    7.40
  -8   0  14   20.40    7.50
   8   0 -14   20.90    5.70
  -9  -1  14   30.70    8.20
   9   1 -14   27.70    7.00
 -10  -2  14 2451.75  144.19
  10   2 -14 2027.00  140.79
 -11  -3  14   51.69    9.80
  11   3 -14   64.79    9.20
 -12  -4  14    5.50    8.90
  12   4 -14    8.70    6.10
  -3   5  13  200.98   20.30
   3  -5 -13  204.38   19.30
  -4   4  13 2154.08  141.59
   4  -4 -13 2188.38  138.09
  -5   3  13   72.49   13.30
   5  -3 -13   63.79    9.30
  -6   2  13   29.80    8.30
   6  -2 -13   27.10    7.10
  -7   1  13   79.19   11.80
   7  -1 -13   62.19    8.60
  -8   0  13    6.50    5.00
   8   0 -13   -2.80    4.60
   9   1 -13   -6.70    4.00
  10   2 -13  311.67   23.10
 -11  -3  13  183.18   18.30
 -12  -4  13   44.30    9.30
  12   4 -13   46.10    7.20
 -13  -5  13   51.29    9.60
  13   5 -13   45.10    8.20
  -2   6  12  100.99   15.30
   2  -6 -12  105.49   14.20
  -3   5  12  408.96   31.50
   3  -5 -12  416.76   30.70
  -4   4  12  828.42   53.69
   4  -4 -12  727.83   51.59
  -5   3  12    2.00    5.10
   5  -3 -12    3.10    4.10
  -6   2  12    5.70    5.60
   6  -2 -12    0.60    3.60
  -7   1  12   66.89   10.30
   7  -1 -12   69.09    8.90
  -8   0  12  152.38   15.00
   8   0 -12  152.78   13.70
  -9  -1  12  213.38   18.80
   9   1 -12  213.08   16.90
 -10  -2  12  147.59   14.60
 -10  -2  12  150.38   10.00
  10   2 -12  126.49   12.40
 -11  -3  12   37.90    8.40
 -11  -3  12   35.80    4.20
  11   3 -12   25.10    5.70
 -12  -4  12    8.90    5.70
 -12  -4  12    1.60    3.00
  12   4 -12    1.90    4.00
 -13  -5  12    2.90    3.90
 -13  -5  12   15.70    7.10
  13   5 -12   10.20    5.80
  14   6 -12   20.00    6.80
  -1   7  11  107.29   16.00
   1  -7 -11  138.99   17.70
  -2   6  11   -7.30    5.80
   2  -6 -11   -0.20    6.00
  -3   5  11   50.69    8.80
   3  -5 -11   73.19    8.10
   3  -5 -11   62.59    9.50
  -4   4  11  384.26   30.20
   4  -4 -11  424.36   25.60
  -5   3  11  100.99   11.60
   5  -3 -11   90.19    9.70
  -6   2  11   13.30    5.00
   6  -2 -11   12.30    4.40
  -7   1  11  265.67   21.90
   7  -1 -11  281.77   20.20
  -8   0  11    2.90    3.60
   8   0 -11    2.40    3.20
  -9  -1  11 3167.28  200.98
   9   1 -11 3214.08  199.08
 -10  -2  11  124.69   12.40
 -10  -2  11  118.19    8.60
  10   2 -11  104.49    8.00
  10   2 -11  130.59   10.80
 -11  -3  11  341.47   26.80
 -11  -3  11  351.86   23.00
  11   3 -11  362.76   25.00
 -12  -4  11   49.30    6.20
 -12  -4  11   68.49    9.30
  12   4 -11   49.40    7.80
 -13  -5  11  543.35   38.10
 -13  -5  11  484.25   34.30
  13   5 -11  551.24   36.10
 -14  -6  11  169.68   17.00
 -14  -6  11  142.59   13.30
  14   6 -11  167.88   14.50
  -1   7  10  145.89   15.70
   1  -7 -10  178.08   17.20
   1  -7 -10  155.88   11.70
  -2   6  10  149.88   15.40
   2  -6 -10  180.98   11.90
   2  -6 -10  159.08   15.40
  -3   5  10  880.31   57.99
   3  -5 -10  826.52   57.09
   3  -5 -10  892.21   54.19
  -4   4  10   31.00    4.20
  -4   4  10   24.90    6.80
   4  -4 -10   40.70    6.30
   4  -4 -10   36.80    3.50
  -5   3  10  161.78   14.30
   5  -3 -10  148.79   13.10
  -6   2  10   33.00    6.10
   6  -2 -10   40.20    5.90
  -7   1  10    6.60    4.10
   7  -1 -10    5.40    3.00
  -8   0  10  372.06   28.10
   8   0 -10  402.86   26.90
  -9  -1  10  100.69   10.90
  -9  -1  10   92.79    6.60
   9   1 -10  105.09    6.60
   9   1 -10   97.29    8.90
 -10  -2  10    0.40    2.00
 -10  -2  10    4.20    3.70
  10   2 -10   -2.90    2.40
  10   2 -10   -0.90    1.50
 -11  -3  10   20.70    5.40
 -11  -3  10   17.10    3.00
  11   3 -10   25.20    4.80
 -12  -4  10    7.70    4.10
 -12  -4  10    1.60    2.40
  12   4 -10    1.20    3.30
 -13  -5  10  120.89   12.80
 -13  -5  10  124.69    9.90
  13   5 -10  105.79   10.60
 -14  -6  10  219.98   19.60
 -14  -6  10  227.68   16.40
  14   6 -10  199.58   17.10
 -15  -7  10  248.98   20.70
 -15  -7  10  201.08   18.20
  15   7 -10  221.88   18.20
   0  -8  -9   14.90    3.70
   0  -8  -9    8.10    8.90
  -1   7   9   16.80    6.30
   1  -7  -9   34.30    8.00
   1  -7  -9   25.30    3.80
  -2   6   9  332.47   27.10
   2  -6  -9  401.86   24.80
   2  -6  -9  400.16   28.10
  -3   5   9   29.40    3.90
  -3   5   9   19.80    5.60
   3  -5  -9   24.10    3.10
   3  -5  -9   39.00    6.70
  -4   4   9    7.80    2.20
  -4   4   9    9.90    4.00
   4  -4  -9    6.90    3.30
   4  -4  -9   11.10    2.00
  -5   3   9   50.09    4.20
  -5   3   9   61.99    7.90
   5  -3  -9   60.69    6.80
   5  -3  -9   66.49    4.20
  -6   2   9   97.49    9.80
   6  -2  -9   98.89    9.30
  -7   1   9   78.59    8.70
   7  -1  -9   71.19    7.50
  -8   0   9    5.10    3.00
   8   0  -9   -2.30    2.40
  -9  -1   9  443.76   27.70
  -9  -1   9  443.86   31.40
   9   1  -9  419.16   29.50
   9   1  -9  459.45   27.70
 -10  -2   9   40.80    4.30
 -10  -2   9   36.80    6.60
  10   2  -9   30.70    5.00
  10   2  -9   44.70    3.70
 -11  -3   9  138.49    9.40
 -11  -3   9  121.59   12.30
  11   3  -9  127.19   10.80
  11   3  -9  123.29    9.20
 -12  -4   9    3.30    3.90
 -12  -4   9    5.10    2.50
  12   4  -9    5.70    3.10
 -13  -5   9   62.99    9.50
 -13  -5   9   72.49    7.20
  13   5  -9   67.99    7.60
 -14  -6   9  639.54   44.70
 -14  -6   9  675.53   47.30
  14   6  -9  747.53   45.70
 -15  -7   9   51.99    7.60
 -15  -7   9   31.60    8.00
  15   7  -9   35.40    6.50
   0  -8  -8   16.00    8.60
   0  -8  -8   19.20    4.00
  -1   7   8   30.30    6.30
   1  -7  -8   37.60    5.10
  -2   6   8  566.44   42.90
   2  -6  -8  694.13   44.20
   2  -6  -8  682.73   41.30
  -3   5   8  346.67   25.70
  -3   5   8  341.07   23.50
   3  -5  -8  379.86   23.40
   3  -5  -8  381.76   25.90
  -4   4   8  366.66   27.90
  -4   4   8  397.56   25.50
   4  -4  -8  423.96   25.60
   4  -4  -8  413.56   27.90
  -5   3   8   73.69    7.90
  -5   3   8   62.89    5.00
   5  -3  -8   78.69    5.20
   5  -3  -8   69.69    7.60
  -6   2   8   30.60    5.50
   6  -2  -8   32.40    5.10
  -7   1   8    2.90    2.90
   7  -1  -8    1.30    2.00
  -8   0   8 8631.64  523.05
   8   0  -8 8281.67  521.35
  -9  -1   8   15.70    4.40
  -9  -1   8   17.80    2.40
   9   1  -8   20.00    3.70
   9   1  -8   16.70    2.10
 -10  -2   8  171.88   11.50
 -10  -2   8  172.08   14.30
  10   2  -8  158.08   11.10
  10   2  -8  171.68   12.70
 -11  -3   8  104.59    7.70
 -11  -3   8   98.29   10.10
  11   3  -8  115.59    9.10
  11   3  -8   90.69    7.60
 -12  -4   8 1524.45   96.69
 -12  -4   8 1439.46   93.79
  12   4  -8 1549.74   94.89
 -13  -5   8    4.20    3.90
 -13  -5   8    3.60    2.60
  13   5  -8    6.60    3.00
 -14  -6   8  440.86   29.60
 -14  -6   8  410.06   27.20
  14   6  -8  353.56   27.10
 -15  -7   8  143.69   13.00
 -15  -7   8  145.49   14.80
  15   7  -8  140.39   12.90
   1   9   7   23.60   10.30
  -1  -9  -7   24.80    4.90
   0   8   7  136.99   17.30
   0  -8  -7  137.99   11.10
   0  -8  -7  125.39   15.60
  -1   7   7  234.98   19.10
   1  -7  -7  259.67   17.80
   1  -7  -7  283.67   21.30
  -2   6   7 2268.37  154.28
   2  -6  -7 2367.46  155.28
   2  -6  -7 2606.14  153.08
   2  -6  -7 2632.14  154.38
  -3   5   7   40.80    6.30
  -3   5   7   43.10    5.40
   3  -5  -7   43.70    4.30
   3  -5  -7   47.70    7.30
   3  -5  -7   50.79    7.10
  -4   4   7    3.00    2.70
  -4   4   7    7.30    2.00
   4  -4  -7    4.50    1.90
   4  -4  -7   -0.60    2.70
   4  -4  -7    6.30    3.50
  -5   3   7  159.18   12.40
  -5   3   7  151.28    9.90
   5  -3  -7  133.99   11.80
   5  -3  -7  162.78   10.00
   5  -3  -7  145.39   12.50
  -6   2   7  383.06   25.50
  -6   2   7  414.86   28.40
   6  -2  -7  395.36   28.40
   6  -2  -7  451.75   25.60
   6  -2  -7  413.66   27.60
  -7   1   7  240.48   17.80
  -7   1   7  246.78   17.40
   7  -1  -7  229.88   17.90
   7  -1  -7  222.28   16.40
  -8   0   7    0.80    2.10
  -8   0   7   -2.30    3.40
  -8   0   7    1.30    0.90
  -8   0   7   -0.10    0.70
   8   0  -7   -2.90    3.40
   8   0  -7   -1.90    1.70
  -9  -1   7  551.54   35.10
  -9  -1   7  544.45   32.90
  -9  -1   7  521.75   35.60
   9   1  -7  539.05   34.20
   9   1  -7  476.75   32.80
 -10  -2   7  327.77   23.40
 -10  -2   7  311.67   20.70
  10   2  -7  314.47   20.50
  10   2  -7  334.77   21.80
 -11  -3   7   24.30    3.00
 -11  -3   7   19.10    4.40
 -11  -3   7   25.60    6.30
  11   3  -7   22.00    3.00
  11   3  -7   16.70    3.40
 -12  -4   7  340.57   27.00
 -12  -4   7  345.87   25.80
 -12  -4   7  366.96   23.50
  12   4  -7  364.76   24.10
 -13  -5   7  288.57   21.50
 -13  -5   7  273.27   19.20
 -14  -6   7  791.82   53.39
 -14  -6   7  759.62   51.29
  14   6  -7  836.32   51.59
 -15  -7   7   -3.70    5.00
 -15  -7   7    6.60    4.30
  15   7  -7   -4.60    4.00
 -16  -8   7  116.99   14.10
 -16  -8   7   97.29   13.50
   1   9   6   -8.40    9.90
  -1  -9  -6   -6.10    3.90
   0   8   6   20.20   13.40
   0  -8  -6   20.60    4.10
   1  -7  -6  324.07   24.60
   1  -7  -6  326.07   21.90
  -2   6   6   32.00    4.70
   2  -6  -6   23.20    5.70
   2  -6  -6   30.60    4.80
   2  -6  -6   30.10    3.90
  -3   5   6   73.09    7.50
  -3   5   6   75.49    6.90
   3  -5  -6   80.39    8.20
   3  -5  -6   74.39    6.20
   3  -5  -6   83.09    8.60
  -4   4   6  209.58   14.30
  -4   4   6  223.08   15.80
   4  -4  -6  218.98   14.60
   4  -4  -6  207.08   15.90
   4  -4  -6  219.48   15.90
  -5   3   6  204.88   14.80
  -5   3   6  200.58   12.90
   5  -3  -6  183.38   14.40
   5  -3  -6  211.98   13.00
   5  -3  -6  186.28   14.80
  -6   2   6  281.97   17.80
  -6   2   6  232.78   17.60
  -6   2   6  223.38   15.40
   6  -2  -6  257.37   15.50
   6  -2  -6  240.08   17.10
   6  -2  -6  235.58   17.70
  -7   1   6   92.49    8.10
  -7   1   6   69.89    5.10
  -7   1   6   75.19    7.40
  -7   1   6   80.69    5.10
   7  -1  -6   83.29    6.90
   7  -1  -6   79.99    8.30
  -8   0   6  311.97   19.70
  -8   0   6  306.67   22.20
  -8   0   6  298.07   19.60
  -8   0   6  304.17   21.60
   8   0  -6  353.76   21.20
  -9  -1   6  246.28   16.50
  -9  -1   6  230.18   17.30
  -9  -1   6  225.48   17.10
  -9  -1   6  220.38   14.60
   9   1  -6  223.08   14.60
 -10  -2   6  135.79    9.40
 -10  -2   6  142.39   11.50
 -10  -2   6  132.59   11.70
 -10  -2   6  143.39   11.40
  10   2  -6  130.79   10.50
  10   2  -6  120.29    9.00
 -11  -3   6   50.69    4.80
 -11  -3   6   51.99    6.80
 -11  -3   6   53.19    8.40
  11   3  -6   53.29    4.90
  11   3  -6   55.99    5.50
 -12  -4   6  154.38   11.50
 -12  -4   6  152.38   14.80
 -12  -4   6  156.18   13.50
  12   4  -6  170.18   11.80
 -13  -5   6  321.17   23.60
 -13  -5   6  307.07   21.50
 -13  -5   6  293.97   24.40
  13   5  -6  340.07   21.80
 -14  -6   6  151.28   13.50
 -14  -6   6  136.29   11.80
  14   6  -6  143.79   11.40
 -15  -7   6  229.68   16.50
 -15  -7   6  218.78   18.00
  15   7  -6  187.48   15.70
 -16  -8   6  415.96   30.90
 -16  -8   6  433.16   31.30
   1   9   5   13.40    9.20
  -1  -9  -5    5.90    4.30
   0   8   5   56.19   10.90
   0  -8  -5   62.19    7.10
  -1   7   5 1756.92  108.69
  -1   7   5 1481.15  104.19
   1  -7  -5 1874.91  106.49
   1  -7  -5 1625.44  104.39
   1  -7  -5 1634.94  106.79
  -2   6   5  576.54   39.10
   2  -6  -5  607.34   38.80
   2  -6  -5  617.34   40.90
   2  -6  -5  621.64   39.10
  -3   5   5  313.37   21.40
  -3   5   5  302.17   21.90
   3  -5  -5  334.17   21.30
   3  -5  -5  338.97   22.00
   3  -5  -5  331.67   22.90
  -4   4   5  156.78   12.00
  -4   4   5  165.98   11.10
   4  -4  -5  154.38   11.90
   4  -4  -5  156.98   12.20
  -5   3   5   29.40    3.10
  -5   3   5   32.50    4.90
  -5   3   5   24.80    4.50
   5  -3  -5   24.70    4.00
   5  -3  -5   30.70    4.20
   5  -3  -5   29.50    3.00
  -6   2   5  111.69    7.60
  -6   2   5  122.09    9.60
  -6   2   5  116.69    9.70
   6  -2  -5  110.39    9.40
   6  -2  -5  110.99    7.60
   6  -2  -5  111.39    8.70
  -7   1   5 6783.12  366.06
  -7   1   5 5115.59  364.36
  -7   1   5 5798.92  366.76
   7  -1  -5 5507.85  365.86
   7  -1  -5 6453.45  366.66
  -8   0   5    1.30    2.00
  -8   0   5    1.20    0.90
  -8   0   5   -1.20    2.30
  -8   0   5    2.00    2.20
   8   0  -5    1.60    1.90
   8   0  -5   -0.10    2.40
  -9  -1   5    0.60    1.90
  -9  -1   5    6.80    2.40
  -9  -1   5    0.60    2.70
  -9  -1   5    8.10    1.50
   9   1  -5    5.60    1.30
   9   1  -5    2.40    1.80
 -10  -2   5   25.60    4.70
 -10  -2   5   39.50    5.70
 -10  -2   5   37.80    5.20
 -10  -2   5   30.20    3.70
  10   2  -5   32.40    4.10
  10   2  -5   36.80    3.40
 -11  -3   5  342.37   24.20
 -11  -3   5  339.17   24.10
 -11  -3   5  378.56   23.90
 -11  -3   5  335.97   22.10
  11   3  -5  303.37   21.90
  11   3  -5  345.17   22.50
 -12  -4   5   -2.90    2.80
 -12  -4   5    3.70    4.20
 -12  -4   5    4.80    2.30
 -13  -5   5  167.28   14.10
 -13  -5   5  152.28   11.90
 -13  -5   5  158.28   13.50
  13   5  -5  149.69   11.50
 -14  -6   5   25.40    6.10
 -14  -6   5   30.70    4.90
  14   6  -5   22.30    4.00
 -15  -7   5  111.99   12.30
 -15  -7   5  117.19   10.90
  15   7  -5  118.29   10.30
 -16  -8   5   45.20    7.70
 -16  -8   5   48.20    8.30
   1   9   4  161.18   19.30
  -1  -9  -4  149.29   13.20
   0   8   4  218.78   20.10
   0  -8  -4  196.08   15.20
  -1   7   4  435.36   29.70
  -1   7   4  510.65   34.70
   1  -7  -4  475.75   30.80
  -2   6   4  849.22   55.99
   2  -6  -4  847.52   52.39
   2  -6  -4  865.61   54.59
   2  -6  -4  766.82   52.49
  -3   5   4   77.49    7.50
  -3   5   4   82.29    7.10
   3  -5  -4   85.99    8.40
   3  -5  -4   90.69    7.10
   3  -5  -4   81.39    6.70
  -4   4   4  114.69    8.60
  -4   4   4  108.29    8.90
  -4   4   4  137.89   11.30
   4  -4  -4  109.59    9.40
   4  -4  -4  120.39    9.00
   4  -4  -4  120.39    8.40
  -5   3   4   89.19    8.00
  -5   3   4   95.89    6.90
  -5   3   4   99.59    8.00
   5  -3  -4   95.39    7.90
   5  -3  -4  104.79    7.90
   5  -3  -4   92.99    6.90
  -6   2   4  694.43   43.90
  -6   2   4  730.53   45.10
  -6   2   4  688.43   45.20
   6  -2  -4  702.83   43.80
   6  -2  -4  706.83   45.10
  -7   1   4  747.73   50.39
  -7   1   4  751.12   48.90
  -7   1   4  797.32   50.29
   7  -1  -4  801.52   49.60
   7  -1  -4  839.72   50.59
  -8   0   4  229.18   16.70
  -8   0   4  230.08   17.00
  -8   0   4  237.68   16.00
  -8   0   4  261.07   15.20
   8   0  -4  231.78   15.70
   8   0  -4  230.68   15.10
  -9  -1   4   97.59    9.10
  -9  -1   4  109.09    9.10
  -9  -1   4  119.79    8.20
  -9  -1   4  105.89    7.40
   9   1  -4  101.89    7.30
   9   1  -4  106.79    7.70
 -10  -2   4   11.00    3.00
 -10  -2   4    5.50    2.40
 -10  -2   4    3.30    2.60
 -10  -2   4    6.20    1.80
  10   2  -4    8.20    1.90
  10   2  -4    7.00    1.70
 -11  -3   4  702.93   44.80
 -11  -3   4  747.83   44.10
 -11  -3   4  725.63   46.10
 -11  -3   4  735.93   45.80
  11   3  -4  623.24   43.80
  11   3  -4  654.73   43.80
 -12  -4   4 1939.11  124.89
 -12  -4   4 2064.99  126.99
 -12  -4   4 2059.79  125.39
  12   4  -4 1974.40  124.69
 -13  -5   4 1517.65   91.29
 -13  -5   4 1527.45   89.19
 -13  -5   4 1222.98   89.09
 -14  -6   4   27.10    5.80
 -14  -6   4   35.60    5.30
  14   6  -4   34.40    5.60
  14   6  -4   28.70    4.40
 -15  -7   4   69.19    8.30
 -15  -7   4   76.19   10.00
  15   7  -4   64.49    7.70
 -16  -8   4   86.29   11.20
 -16  -8   4   68.69   10.10
   1   9   3   25.50    9.30
  -1  -9  -3    9.10    4.40
   0   8   3  170.68   17.50
   0  -8  -3  181.38   13.70
  -1   7   3  298.27   24.50
   1  -7  -3  305.07   20.70
  -2   6   3  312.97   22.60
   2  -6  -3  263.47   19.10
  -3   5   3    8.00    1.90
   3  -5  -3    7.60    2.30
   3  -5  -3    3.80    2.40
   3  -5  -3    6.60    2.10
  -4   4   3    0.70    1.90
  -4   4   3    5.00    1.60
  -4   4   3    3.10    2.80
   4  -4  -3    3.20    2.30
   4  -4  -3    6.80    1.70
   4  -4  -3    1.90    1.50
  -5   3   3 1387.66   82.29
  -5   3   3 1284.77   81.79
  -5   3   3 1324.77   81.39
   5  -3  -3 1295.97   81.39
   5  -3  -3 1315.87   81.89
   5  -3  -3 1261.67   82.19
  -6   2   3  595.14   36.20
  -6   2   3  546.05   36.10
  -6   2   3  576.94   35.40
  -6   2   3  557.14   36.30
   6  -2  -3  532.65   36.00
   6  -2  -3  578.54   35.30
  -7   1   3 2160.48  137.59
  -7   1   3 2218.28  138.59
  -7   1   3 2150.38  138.89
  -7   1   3 2490.65  138.29
   7  -1  -3 2180.18  137.49
   7  -1  -3 2187.18  137.99
  -8   0   3    2.70    1.80
  -8   0   3    2.70    2.00
  -8   0   3    1.20    0.90
  -8   0   3    2.30    1.40
   8   0  -3    2.20    1.20
   8   0  -3    0.60    0.90
   8   0  -3    2.80    2.10
  -9  -1   3  153.68   11.80
  -9  -1   3  165.18   10.80
  -9  -1   3  147.89   10.50
   9   1  -3  167.68   10.60
   9   1  -3  153.48   12.10
   9   1  -3  157.98   10.40
 -10  -2   3   19.20    2.90
 -10  -2   3   11.80    2.40
 -10  -2   3   15.80    3.40
  10   2  -3   14.60    2.20
  10   2  -3   13.80    2.20
  10   2  -3   16.00    3.50
 -11  -3   3 1442.76   91.09
 -11  -3   3 1420.46   91.19
 -11  -3   3 1612.64   92.79
  11   3  -3 1446.06   92.99
  11   3  -3 1395.26   90.79
  11   3  -3 1478.95   90.99
 -12  -4   3 1637.84   96.19
 -12  -4   3 1481.65   95.99
 -12  -4   3 1538.75   97.59
  12   4  -3 1494.65   95.79
  12   4  -3 1553.04   98.19
 -13  -5   3   57.69    6.20
  13   5  -3   63.19    6.20
  13   5  -3   61.39    6.20
  13   5  -3   38.60    7.00
 -14  -6   3   31.90    6.00
 -14  -6   3   34.80    5.20
  14   6  -3   30.50    4.80
  14   6  -3   28.40    4.20
 -15  -7   3   65.29   10.00
 -15  -7   3   65.79    8.70
  15   7  -3   58.49    7.20
 -16  -8   3  216.78   18.30
 -16  -8   3  187.78   17.10
   1   9   2   37.90   10.40
  -1  -9  -2   55.29    7.20
   0   8   2  791.42   53.59
   0  -8  -2  735.23   49.10
  -1   7   2   66.59    9.60
   1  -7  -2   65.99    6.80
  -2   6   2  587.74   43.60
   2  -6  -2  681.63   41.00
  -3   5   2  211.28   16.40
   3  -5  -2  194.48   13.90
  -4   4   2   -0.30    2.50
  -4   4   2    4.70    1.30
  -4   4   2    7.10    2.80
  -4   4   2    6.40    2.10
  -4   4   2    3.70    1.10
   4  -4  -2    3.60    1.90
   4  -4  -2    2.60    1.50
  -5   3   2   55.19    4.60
  -5   3   2   59.39    4.90
  -5   3   2   49.30    5.50
  -5   3   2   55.99    4.70
   5  -3  -2   56.89    4.60
  -7   1   2    2.20    1.10
  -7   1   2    3.00    1.40
  -7   1   2    3.50    1.50
   7  -1  -2    0.90    1.10
   7  -1  -2    2.30    1.60
   7  -1  -2    1.40    1.00
  -8   0   2  767.82   45.90
  -8   0   2  654.83   45.00
  -8   0   2  674.93   44.70
   8   0  -2  689.23   45.80
   8   0  -2  755.82   44.80
   8   0  -2  767.32   44.70
  -9  -1   2  458.35   27.90
  -9  -1   2  378.06   26.40
  -9  -1   2  402.46   26.20
   9   1  -2  395.06   27.70
   9   1  -2  435.26   26.10
   9   1  -2  439.36   26.40
 -10  -2   2 1649.33  104.89
 -10  -2   2 1876.31  106.79
  10   2  -2 1721.33  104.69
  10   2  -2 1726.03  105.19
  10   2  -2 1516.95  107.69
 -11  -3   2  354.56   23.00
 -11  -3   2  365.86   24.60
  11   3  -2  336.17   22.90
  11   3  -2  368.36   22.50
  11   3  -2  345.87   24.60
 -12  -4   2  198.18   15.10
 -12  -4   2  195.98   13.60
  12   4  -2  184.68   15.30
  12   4  -2  174.28   13.00
  12   4  -2  210.88   13.00
 -13  -5   2  416.36   28.10
  13   5  -2  456.65   27.40
  13   5  -2  401.46   30.00
  13   5  -2  418.16   27.70
 -14  -6   2   68.79    7.40
  14   6  -2   67.19    7.00
  14   6  -2   69.49    9.40
 -15  -7   2    0.60    4.20
 -15  -7   2    6.00    5.50
  15   7  -2   -0.80    3.40
  15   7  -2   11.10    5.40
 -16  -8   2    3.60    6.20
 -16  -8   2   12.00    5.60
   2  10   1  198.88   23.50
  -2 -10  -1  154.88   14.90
   1   9   1  109.69   21.80
  -1  -9  -1  102.69   10.60
   0   8   1   91.69   13.50
   0  -8  -1   74.99    8.00
  -1   7   1  544.35   37.70
   1  -7  -1  498.55   33.90
  -2   6   1   68.69    9.30
   2  -6  -1   62.09    6.20
  -3   5   1   57.99    7.40
   3  -5  -1   58.49    5.40
  -4   4   1   26.70    4.30
  -4   4   1   35.60    5.10
  -4   4   1   33.10    4.00
   4  -4  -1   24.70    3.30
  -5   3   1  597.24   38.80
  -5   3   1  610.04   39.70
  -5   3   1  604.54   38.80
  -5   3   1  648.94   40.80
  -5   3   1  650.83   39.20
   5  -3  -1  616.64   39.10
  -6   2   1 4500.35  251.37
  -6   2   1 3840.52  250.47
  -6   2   1 3947.60  250.17
   6  -2  -1 3793.52  250.07
   6  -2  -1 4231.68  250.47
  -7   1   1 1029.10   64.09
  -7   1   1 1083.99   64.59
  -7   1   1 1003.40   64.39
  -7   1   1 1040.90   63.89
   7  -1  -1 1012.30   63.89
   7  -1  -1 1046.80   64.09
   7  -1  -1  990.60   64.49
  -8   0   1    2.50    1.20
  -8   0   1    0.00    1.00
  -8   0   1    1.90    1.60
  -8   0   1    0.00    0.80
   8   0  -1    0.40    0.70
   8   0  -1    0.40    1.30
   8   0  -1    2.00    1.20
  -9  -1   1    8.70    2.40
  -9  -1   1    1.60    1.20
   9   1  -1    3.30    1.30
   9   1  -1    3.70    1.90
 -10  -2   1   51.19    4.80
 -10  -2   1   60.59    6.00
  10   2  -1   55.69    6.20
  10   2  -1   51.49    4.60
 -11  -3   1  716.53   43.20
 -11  -3   1  618.14   41.70
  11   3  -1  712.83   41.00
  11   3  -1  670.03   41.10
  11   3  -1  655.83   43.30
  11   3  -1  584.84   41.50
 -12  -4   1 1501.95   93.79
 -12  -4   1 1557.64   95.09
  12   4  -1 1519.05   93.29
  12   4  -1 1317.57   95.09
  12   4  -1 1600.84   92.99
 -13  -5   1   36.20    4.90
  13   5  -1   29.10    4.10
  13   5  -1   35.80    5.00
  13   5  -1   19.10    5.10
 -14  -6   1   15.40    4.00
  14   6  -1   11.80    3.90
  14   6  -1    8.70    5.10
  14   6  -1   11.90    3.60
 -15  -7   1  124.79   11.90
  15   7  -1  117.39   13.60
  15   7  -1  134.69   11.20
 -16  -8   1  123.49   12.70
 -16  -8   1  125.39   14.50
  16   8  -1  100.39   14.60
   2  10   0   11.30   10.90
  -2 -10   0   12.50    6.00
  -1  -9   0  318.07   22.90
   0   8   0  331.27   25.20
   0  -8   0  253.57   19.90
  -1   7   0  101.59   11.60
   1  -7   0   79.09    8.00
  -2   6   0   88.59   10.40
   2  -6   0  102.39    8.10
  -3   5   0  165.88   14.40
   3  -5   0  175.08   12.20
  -4   4   0  576.54   39.80
  -4   4   0  648.54   39.30
  -4   4   0  626.44   41.00
  -5   3   0  158.18   10.30
  -5   3   0  160.68   11.00
  -5   3   0  157.08   11.40
   5  -3   0  154.08   10.80
   5  -3   0  159.98   10.30
  -6   2   0  137.09   10.80
  -6   2   0  159.68   11.50
  -6   2   0  163.28   10.60
   6  -2   0  159.48   10.50
   6  -2   0  158.48   11.20
   6  -2   0  152.28   10.40
  -7   1   0   18.00    2.90
  -7   1   0   22.40    2.50
  -7   1   0   25.10    3.00
   7  -1   0   20.20    2.80
   7  -1   0   17.80    2.70
   7  -1   0   21.90    2.50
  -8   0   0 1059.39   64.99
  -8   0   0 1000.60   64.89
  -8   0   0 1178.88   65.99
  -8   0   0  916.21   64.79
   8   0   0 1045.10   65.69
   8   0   0  986.20   64.79
   8   0   0 1138.59   65.09
  -9  -1   0    1.60    1.30
  -9  -1   0   -0.70    1.90
   9   1   0    2.40    1.30
   9   1   0    4.80    2.10
 -10  -2   0 1956.80  119.39
 -10  -2   0 1948.21  120.59
  10   2   0 1819.12  120.89
  10   2   0 1984.80  119.39
 -11  -3   0  209.98   15.40
 -11  -3   0  252.47   17.10
  11   3   0  228.18   16.80
  11   3   0  255.47   14.70
  11   3   0  225.78   14.80
  11   3   0  205.38   15.30
 -12  -4   0    9.30    2.40
 -12  -4   0   11.00    4.10
  12   4   0    8.60    1.90
  12   4   0    7.40    3.20
  12   4   0    2.50    2.20
 -13  -5   0   62.09    6.40
  13   5   0   65.39    6.60
  13   5   0   67.89    5.70
  13   5   0   56.69    8.20
 -14  -6   0  381.76   26.20
  14   6   0  411.46   26.20
  14   6   0  354.86   28.00
 -15  -7   0   63.89    8.20
  15   7   0   71.79    8.20
  15   7   0   69.59   10.50
 -16  -8   0  968.90   57.79
  16   8   0  789.32   59.19
   2  10  -1  321.87   29.00
  -2 -10   1  275.77   22.90
   1   9  -1 1011.30   77.09
  -1  -9   1 1176.68   70.89
   0   8  -1   96.59   13.80
   0  -8   1   85.39    9.10
  -1   7  -1  321.07   24.20
   1  -7   1  290.67   20.90
  -2   6  -1  160.28   14.30
   2  -6   1  145.09   11.40
  -3   5  -1    9.80    4.10
   3  -5   1    5.30    2.10
  -4   4  -1  132.99    9.10
  -4   4  -1  109.59   10.10
   4  -4   1  108.19   10.30
   4  -4   1  114.39    8.60
  -5   3  -1 3014.40  187.28
  -5   3  -1 3149.88  187.68
   5  -3   1 3033.60  187.28
   5  -3   1 2954.80  188.58
  -6   2  -1 2296.57  131.89
  -6   2  -1 2207.18  132.89
  -6   2  -1 1987.40  131.89
   6  -2   1 2163.28  131.79
   6  -2   1 1971.20  131.79
   6  -2   1 2168.88  132.59
  -7   1  -1    8.10    2.00
  -7   1  -1   12.00    1.90
   7  -1   1    9.00    1.80
   7  -1   1   10.40    2.20
   7  -1   1    5.90    1.70
  -8   0  -1   -0.10    1.00
  -8   0  -1    3.40    1.70
  -8   0  -1    0.90    1.20
  -8   0  -1    0.00    1.10
   8   0   1    0.10    1.20
   8   0   1    0.60    1.20
   8   0   1   -0.70    1.40
  -9  -1  -1  683.93   45.00
  -9  -1  -1  787.52   46.20
  -9  -1  -1  728.23   44.60
   9   1   1  652.93   45.90
   9   1   1  738.13   44.70
 -10  -2  -1    8.00    1.30
 -10  -2  -1    8.00    2.70
 -10  -2  -1    9.80    1.90
  10   2   1    7.70    1.80
  10   2   1    8.40    1.20
  10   2   1    5.50    2.30
 -11  -3  -1  415.96   27.80
 -11  -3  -1  451.25   29.10
  11   3   1  468.35   27.20
  11   3   1  390.96   29.10
  11   3   1  397.76   27.70
  11   3   1  453.95   27.50
 -12  -4  -1  340.47   24.30
 -12  -4  -1  349.37   22.90
  12   4   1  281.77   24.10
  12   4   1  358.66   22.70
  12   4   1  379.86   22.20
 -13  -5  -1  481.85   33.60
  13   5   1  439.26   35.20
  13   5   1  556.84   33.90
  13   5   1  573.24   33.10
 -14  -6  -1   34.20    5.60
  14   6   1   40.80    7.30
  14   6   1   52.59    6.40
 -15  -7  -1   15.90    4.60
  15   7   1   15.40    6.00
  15   7   1    9.30    4.20
 -16  -8  -1  167.58   14.90
  16   8   1  152.18   17.60
   1   9  -2   36.30    9.20
  -1  -9   2   30.70    5.90
   0   8  -2  727.03   50.59
   0  -8   2  705.13   46.60
  -1   7  -2   14.30    5.80
   1  -7   2    4.30    3.00
  -2   6  -2   29.30    6.40
   2  -6   2   25.80    4.20
  -3   5  -2   28.70    5.50
   3  -5   2   26.60    3.90
  -4   4  -2  675.93   39.20
  -4   4  -2  597.94   38.40
  -4   4  -2  587.24   40.70
   4  -4   2  600.54   38.30
   4  -4   2  600.14   40.40
   4  -4   2  609.34   38.90
  -5   3  -2 2260.17  142.79
  -5   3  -2 2402.86  141.39
  -5   3  -2 2244.48  141.19
   5  -3   2 2232.28  141.29
   5  -3   2 2302.27  141.09
   5  -3   2 2254.97  142.49
  -6   2  -2 1649.23  102.19
  -6   2  -2 1699.93  102.49
  -6   2  -2 1649.23  103.39
   6  -2   2 1613.94  103.09
   6  -2   2 1701.93  102.39
   6  -2   2 1574.74  102.19
  -7   1  -2  324.57   20.10
  -7   1  -2  337.97   21.00
   7  -1   2  307.47   20.00
   7  -1   2  283.37   20.50
   7  -1   2  298.47   20.50
  -8   0  -2  399.66   25.70
  -8   0  -2  351.86   24.60
  -8   0  -2  410.36   24.90
  -8   0  -2  390.86   25.10
   8   0   2  377.36   25.60
   8   0   2  397.26   25.10
  -9  -1  -2  331.17   21.40
  -9  -1  -2  326.87   21.50
  -9  -1  -2  348.37   22.60
   9   1   2  326.37   21.40
   9   1   2  329.97   21.50
   9   1   2  345.67   22.80
 -10  -2  -2 3008.70  178.28
 -10  -2  -2 2766.62  176.78
 -10  -2  -2 2805.82  177.08
  10   2   2 2913.51  177.08
  10   2   2 2920.21  176.78
  10   2   2 2782.92  178.38
 -11  -3  -2 3489.45  200.48
 -11  -3  -2 3010.50  198.78
 -11  -3  -2 3124.29  199.08
  11   3   2 2932.71  200.48
  11   3   2 3548.94  198.78
 -12  -4  -2   20.30    3.30
 -12  -4  -2   21.70    3.40
  12   4   2   18.60    2.90
  12   4   2   15.40    4.10
 -13  -5  -2  253.47   18.80
  13   5   2  280.77   18.40
  13   5   2  261.97   20.80
  13   5   2  295.67   19.60
 -14  -6  -2  274.97   20.40
  14   6   2  301.37   20.50
  14   6   2  305.17   20.70
  14   6   2  272.57   22.40
 -15  -7  -2    3.20    3.90
  15   7   2   10.10    5.70
  15   7   2    7.80    4.40
 -16  -8  -2   11.50    6.90
  16   8   2    3.50    7.60
   1   9  -3   62.59   12.30
  -1  -9   3   75.79    9.20
   0   8  -3  159.98   17.30
  -1   7  -3  464.85   34.80
   1  -7   3  482.75   31.50
  -2   6  -3   11.40    4.50
   2  -6   3   11.80    2.90
   2  -6   3    8.10    1.40
   2  -6   3    9.20    1.80
  -3   5  -3 1314.57   83.49
  -3   5  -3 1490.75   86.69
   3  -5   3 1243.28   82.99
   3  -5   3 1325.57   83.89
  -4   4  -3  197.58   15.80
  -4   4  -3  207.98   14.30
  -4   4  -3  203.18   14.00
   4  -4   3  192.68   13.90
   4  -4   3  203.08   13.50
   4  -4   3  206.48   16.30
  -5   3  -3   86.99    7.00
  -5   3  -3   88.69    8.10
  -5   3  -3   86.89    7.00
   5  -3   3   85.59    8.50
   5  -3   3   82.59    6.60
   5  -3   3   85.49    6.60
  -6   2  -3   11.10    2.60
  -6   2  -3    9.20    3.20
  -6   2  -3   26.90    3.30
   6  -2   3   14.60    2.50
   6  -2   3   17.50    2.70
   6  -2   3   19.80    4.00
  -7   1  -3   93.59    6.70
  -7   1  -3   94.59    7.50
  -7   1  -3   81.29    7.70
   7  -1   3   94.59    6.80
   7  -1   3   90.39    7.30
   7  -1   3   80.59    7.60
  -8   0  -3   10.00    2.70
  -8   0  -3    1.50    1.90
  -8   0  -3   -0.40    1.30
  -8   0  -3    1.60    1.70
   8   0   3    0.30    2.10
   8   0   3    1.20    1.80
  -9  -1  -3 2061.69  119.49
  -9  -1  -3 1732.23  118.19
   9   1   3 1818.52  118.29
   9   1   3 1861.41  119.29
   9   1   3 2072.49  118.29
 -10  -2  -3  530.75   35.90
 -10  -2  -3  595.54   37.40
 -10  -2  -3  554.64   36.00
  10   2   3  616.84   36.00
  10   2   3  588.94   37.60
  10   2   3  521.85   36.00
 -11  -3  -3  820.52   54.59
 -11  -3  -3  870.41   54.69
  11   3   3  819.12   56.29
  11   3   3  958.40   54.69
 -12  -4  -3  106.59    8.70
 -12  -4  -3  103.79    9.00
  12   4   3  124.59    9.00
  12   4   3  108.89   10.50
 -13  -5  -3  413.76   27.70
  13   5   3  451.45   27.60
  13   5   3  381.06   29.50
 -14  -6  -3  373.36   24.40
  14   6   3  386.76   24.90
  14   6   3  293.47   26.10
 -15  -7  -3  840.42   53.19
  15   7   3  730.03   55.19
  15   7   3  876.71   53.79
 -16  -8  -3   31.70    8.00
  16   8   3   29.90    9.40
   1   9  -4  111.59   17.20
  -1  -9   4   86.49   11.00
   0   8  -4  221.28   19.20
   0  -8   4  172.88   15.70
  -1   7  -4   65.29   10.50
   1  -7   4   64.39    5.20
   1  -7   4   55.59    4.60
   1  -7   4   60.69    7.10
  -2   6  -4   14.00    4.70
   2  -6   4   10.20    2.10
   2  -6   4   11.60    3.30
   2  -6   4   10.50    2.80
  -3   5  -4   27.50    5.90
  -3   5  -4   36.60    5.60
   3  -5   4   28.60    3.70
   3  -5   4   25.00    3.80
  -4   4  -4 2586.24  148.59
  -4   4  -4 2057.19  149.79
   4  -4   4 2423.76  148.19
   4  -4   4 2478.75  148.09
  -5   3  -4  812.32   52.99
  -5   3  -4  907.11   52.69
  -5   3  -4  852.51   54.29
   5  -3   4  792.62   52.59
   5  -3   4  807.62   52.49
  -6   2  -4   44.90    5.00
  -6   2  -4   31.60    4.80
  -6   2  -4   44.60    4.50
   6  -2   4   38.30    4.50
   6  -2   4   40.10    5.80
  -7   1  -4   15.00    3.10
  -7   1  -4   14.10    3.70
  -7   1  -4   21.10    2.80
   7  -1   4   17.00    2.90
   7  -1   4   25.30    4.30
  -8   0  -4 1604.84   98.99
  -8   0  -4 1740.83   99.59
  -8   0  -4 1597.14   98.19
  -8   0  -4 1575.84   98.19
   8   0   4 1582.34   98.89
   8   0   4 1393.86   98.99
  -9  -1  -4  387.46   24.00
  -9  -1  -4  396.66   25.60
  -9  -1  -4  333.67   24.40
   9   1   4  387.96   24.60
   9   1   4  369.86   24.20
   9   1   4  363.16   25.30
 -10  -2  -4  294.27   21.30
 -10  -2  -4  306.47   19.70
 -10  -2  -4  283.37   20.10
  10   2   4  324.57   20.10
  10   2   4  275.07   21.00
  10   2   4  314.27   19.90
 -11  -3  -4  636.54   40.60
 -11  -3  -4  607.54   40.90
  11   3   4  579.64   42.30
  11   3   4  722.53   41.00
 -12  -4  -4   10.70    2.60
  12   4   4    6.40    3.10
  12   4   4   10.40    3.90
 -13  -5  -4   79.19    7.40
 -13  -5  -4   73.59    7.80
  13   5   4   72.29    9.50
  13   5   4   92.99    8.40
 -14  -6  -4   48.40    6.30
  14   6   4   48.50    7.00
  14   6   4   49.50    8.10
 -15  -7  -4   11.20    4.40
  15   7   4    2.30    6.50
  15   7   4    5.70    5.40
 -16  -8  -4  105.39   11.90
  16   8   4  104.99   14.90
   1   9  -5  880.51   59.09
  -1  -9   5  776.52   54.09
   0   8  -5   70.99   11.30
   0  -8   5   60.09    8.00
  -1   7  -5   50.99    9.60
   1  -7   5   63.69    7.40
   1  -7   5   57.09    5.50
  -2   6  -5   52.79    7.60
  -2   6  -5   55.89    8.60
   2  -6   5   50.49    5.40
   2  -6   5   56.59    6.20
  -3   5  -5   56.69    7.90
  -3   5  -5   49.90    6.80
   3  -5   5   52.69    5.80
   3  -5   5   52.59    5.60
  -4   4  -5 4240.68  236.18
  -4   4  -5 3651.23  234.28
   4  -4   5 3468.85  233.68
   4  -4   5 3769.42  233.68
  -5   3  -5  170.58   14.30
  -5   3  -5  191.58   12.80
  -5   3  -5  173.88   13.70
   5  -3   5  179.38   12.50
   5  -3   5  178.28   12.90
  -6   2  -5   36.50    5.10
  -6   2  -5   44.40    4.60
  -6   2  -5   40.30    5.60
   6  -2   5   40.90    4.60
   6  -2   5   43.40    6.50
   6  -2   5   34.90    4.10
  -7   1  -5    0.10    1.90
  -7   1  -5   10.10    3.20
  -7   1  -5    4.60    2.60
   7  -1   5    4.30    2.00
   7  -1   5    7.10    2.90
  -8   0  -5    0.50    2.10
  -8   0  -5    4.00    2.70
  -8   0  -5    1.00    1.80
   8   0   5    2.40    1.80
   8   0   5   -1.20    2.60
  -9  -1  -5  518.05   35.60
  -9  -1  -5  512.85   33.90
  -9  -1  -5  519.05   34.00
   9   1   5  539.85   35.50
   9   1   5  571.44   34.90
   9   1   5  543.95   34.30
 -10  -2  -5  386.96   24.00
 -10  -2  -5  330.77   25.00
  10   2   5  403.96   24.90
  10   2   5  358.36   25.80
  10   2   5  365.06   24.20
 -11  -3  -5  169.48   11.50
 -11  -3  -5  147.09   11.90
  11   3   5  162.18   13.60
  11   3   5  163.58   12.30
 -12  -4  -5  208.98   14.40
 -12  -4  -5  189.78   14.80
  12   4   5  189.28   16.40
  12   4   5  222.08   15.30
 -13  -5  -5  150.78   11.20
 -13  -5  -5  141.49   11.90
  13   5   5  160.28   12.70
  13   5   5  113.99   13.10
 -14  -6  -5    8.60    3.80
 -14  -6  -5    2.50    4.40
  14   6   5   12.50    5.30
 -15  -7  -5   14.20    5.10
  15   7   5    2.50    7.00
  15   7   5   10.80    6.00
   1   9  -6  147.59   18.90
  -1  -9   6  152.58   15.40
   0   8  -6    6.30    6.00
   0  -8   6   14.70    5.00
  -1   7  -6  155.48   15.40
   1  -7   6  130.69   12.70
   1  -7   6  144.19   12.10
  -2   6  -6  761.32   51.39
  -2   6  -6  781.92   52.89
   2  -6   6  806.82   49.70
   2  -6   6  766.92   50.09
  -3   5  -6    5.10    4.50
  -3   5  -6    5.20    4.00
   3  -5   6    2.80    2.50
   3  -5   6    1.70    1.80
  -4   4  -6   79.99    9.00
  -4   4  -6   56.79    8.50
   4  -4   6   72.59    6.60
   4  -4   6   73.19    6.70
  -5   3  -6   61.39    7.40
  -5   3  -6   64.69    6.10
  -5   3  -6   49.30    7.60
   5  -3   6   59.99    5.80
   5  -3   6   49.30    5.50
  -6   2  -6  492.95   29.80
  -6   2  -6  435.56   31.20
  -6   2  -6  469.55   31.20
   6  -2   6  440.06   30.60
   6  -2   6  463.45   29.70
  -7   1  -6  174.98   11.50
  -7   1  -6  145.69   13.10
  -7   1  -6  177.68   13.00
  -7   1  -6  163.18   11.40
   7  -1   6  138.99   12.20
   7  -1   6  160.68   13.00
   7  -1   6  162.98   11.30
  -8   0  -6 2894.71  179.48
  -8   0  -6 3089.19  179.48
  -8   0  -6 2667.33  180.48
   8   0   6 3233.28  180.88
   8   0   6 2628.14  180.78
  -9  -1  -6    4.20    1.60
  -9  -1  -6    7.80    2.40
  -9  -1  -6    5.10    2.30
   9   1   6    5.60    3.40
   9   1   6    7.00    2.60
 -10  -2  -6 1027.00   62.79
 -10  -2  -6  982.00   63.59
  10   2   6  963.60   64.79
  10   2   6 1026.40   63.89
  10   2   6 1004.50   63.09
 -11  -3  -6  258.27   19.00
 -11  -3  -6  303.27   18.50
  11   3   6  252.77   20.40
  11   3   6  277.07   19.50
 -12  -4  -6    7.40    3.20
 -12  -4  -6    3.40    2.50
  12   4   6    6.00    4.90
  12   4   6    5.80    4.10
 -13  -5  -6  179.38   12.70
 -13  -5  -6  157.58   13.60
  13   5   6  163.68   15.60
 -14  -6  -6 1135.49   74.19
 -14  -6  -6 1212.68   73.29
  14   6   6 1103.09   75.99
 -15  -7  -6  420.26   27.20
  15   7   6  417.46   29.30
  15   7   6  318.97   30.00
   1   9  -7   78.09   15.90
  -1  -9   7   77.09   10.10
   0   8  -7  150.48   17.00
   0  -8   7  135.29   13.10
  -1   7  -7   13.00    6.10
   1  -7   7    7.00    2.90
   1  -7   7    8.20    4.00
  -2   6  -7    5.00    4.80
  -2   6  -7   11.30    7.50
   2  -6   7   14.70    3.20
   2  -6   7   16.10    3.90
  -3   5  -7  588.84   41.20
  -3   5  -7  563.24   40.80
   3  -5   7  607.94   39.00
   3  -5   7  636.14   39.40
  -4   4  -7  843.02   56.79
  -4   4  -7  906.11   57.09
   4  -4   7  869.81   55.39
   4  -4   7  825.72   54.59
  -5   3  -7  153.98   14.20
  -5   3  -7  197.78   13.30
   5  -3   7  166.48   12.30
   5  -3   7  168.68   13.10
  -6   2  -7  179.68   12.00
  -6   2  -7  154.88   13.30
   6  -2   7  160.98   12.80
   6  -2   7  153.28   11.60
  -7   1  -7  898.61   51.29
  -7   1  -7  712.13   52.49
  -7   1  -7  820.02   51.19
   7  -1   7  804.52   52.59
  -8   0  -7   -0.50    1.60
  -8   0  -7   -1.30    2.30
  -8   0  -7    0.90    2.20
   8   0   7   -0.80    2.20
  -9  -1  -7  430.96   27.40
  -9  -1  -7  454.15   27.70
  -9  -1  -7  398.26   28.60
   9   1   7  417.06   29.50
 -10  -2  -7  216.18   14.80
 -10  -2  -7  211.98   16.00
  10   2   7  231.58   17.40
 -11  -3  -7  447.26   31.90
 -11  -3  -7  512.55   31.10
  11   3   7  476.25   33.60
 -12  -4  -7  380.96   23.80
 -12  -4  -7  338.37   24.70
  12   4   7  342.47   26.60
 -13  -5  -7    4.90    2.90
 -13  -5  -7    1.80    4.20
  13   5   7    9.10    5.10
 -14  -6  -7   96.99   11.80
 -14  -6  -7  106.09   10.30
  14   6   7   98.99   13.10
 -15  -7  -7  168.08   13.50
  15   7   7  107.99   22.40
   0   8  -8   19.10    8.80
   0  -8   8    9.40    5.20
  -1   7  -8   86.29   12.00
   1  -7   8   93.39    9.70
   1  -7   8   86.59    8.40
  -2   6  -8   22.40    6.90
   2  -6   8   27.70    4.30
   2  -6   8   18.70    4.60
  -3   5  -8  669.63   47.30
   3  -5   8  677.63   44.70
   3  -5   8  728.43   45.50
  -4   4  -8  471.65   31.60
   4  -4   8  421.86   28.90
   4  -4   8  427.26   29.90
  -5   3  -8   33.60    5.90
   5  -3   8   24.60    4.40
   5  -3   8   37.40    4.70
  -6   2  -8   52.79    5.50
  -6   2  -8   30.00    5.60
   6  -2   8   41.90    4.90
   6  -2   8   40.40    5.90
  -7   1  -8   -0.60    2.60
  -7   1  -8    3.60    3.30
  -7   1  -8    5.90    2.00
   7  -1   8    5.50    2.80
  -8   0  -8  638.54   44.70
  -8   0  -8  742.03   43.00
  -8   0  -8  691.93   43.10
   8   0   8  626.94   45.00
  -9  -1  -8  232.38   14.60
  -9  -1  -8  197.98   14.90
  -9  -1  -8  217.68   16.40
   9   1   8  201.88   16.80
 -10  -2  -8   77.79    8.70
 -10  -2  -8   93.69    7.20
  10   2   8   94.19    9.80
 -11  -3  -8   39.40    4.70
 -11  -3  -8   28.00    5.30
  11   3   8   38.30    7.00
 -12  -4  -8  888.01   51.89
 -12  -4  -8  735.53   52.99
  12   4   8  819.02   55.09
 -13  -5  -8  122.89   12.00
 -13  -5  -8  131.69   10.30
  13   5   8  102.79   13.90
 -14  -6  -8   59.99    9.50
   0   8  -9   15.40   10.60
   0  -8   9    8.50    5.50
  -1   7  -9  242.48   23.90
   1  -7   9  304.07   20.40
   2  -6   9  181.98   13.70
   2  -6   9  154.68   13.70
  -3   5  -9 1251.57   78.09
   3  -5   9 1174.08   75.99
   3  -5   9 1129.99   74.79
  -4   4  -9   61.79    8.80
   4  -4   9   62.29    6.90
   4  -4   9   70.49    8.00
  -5   3  -9   51.39    7.90
   5  -3   9   59.79    6.40
   5  -3   9   61.29    7.50
  -6   2  -9    2.90    3.40
  -6   2  -9    2.40    3.20
   6  -2   9    0.00    2.20
   6  -2   9    0.80    2.80
  -7   1  -9  928.31   56.49
  -7   1  -9  993.70   56.49
  -7   1  -9  849.91   58.69
   7  -1   9  793.82   58.29
  -8   0  -9    3.00    1.90
  -8   0  -9    3.30    3.00
  -8   0  -9   -1.40    3.50
   8   0   9   -2.90    3.20
  -9  -1  -9 1484.15   84.39
  -9  -1  -9 1448.85   83.99
  -9  -1  -9 1187.58   85.69
   9   1   9 1252.27   86.69
 -10  -2  -9    4.00    3.80
 -10  -2  -9    4.70    2.10
  10   2   9    1.20    4.00
 -11  -3  -9  373.36   22.60
 -11  -3  -9  307.17   24.20
  11   3   9  329.07   26.00
 -12  -4  -9  213.98   18.60
 -12  -4  -9  274.97   17.40
  12   4   9  254.17   20.90
 -13  -5  -9  572.74   33.90
 -13  -5  -9  449.86   35.30
 -14  -6  -9   91.39   14.00
 -14  -6  -9  117.79   10.30
  14   6   9   86.59   14.00
  -1   7 -10  109.09   15.70
   1  -7  10   96.29   10.60
   1  -7  10  107.09   11.10
  -2   6 -10  363.76   30.30
   2  -6  10  416.06   27.30
   2  -6  10  402.16   28.00
  -3   5 -10 1165.28   77.29
   3  -5  10 1132.29   72.39
   3  -5  10 1128.29   73.79
  -4   4 -10   53.29    9.40
   4  -4  10   70.29    7.60
   4  -4  10   77.79    8.60
  -5   3 -10   19.60    5.30
   5  -3  10   24.10    4.20
   5  -3  10   16.30    4.20
  -6   2 -10  628.94   42.00
  -6   2 -10  601.44   38.80
   6  -2  10  547.05   38.70
   6  -2  10  649.43   41.60
  -7   1 -10   89.19    8.00
  -7   1 -10   86.29    9.80
  -7   1 -10   72.59    6.70
   7  -1  10   74.19    8.90
  -8   0 -10  177.68   12.10
  -8   0 -10  178.28   15.20
  -8   0 -10  181.88   12.90
   8   0  10  138.79   14.30
  -9  -1 -10  131.09    9.30
  -9  -1 -10  122.69   11.80
   9   1  10  111.69   12.00
 -10  -2 -10   16.50    5.20
 -10  -2 -10   23.60    3.40
  10   2  10   16.50    5.70
 -11  -3 -10    7.30    2.80
 -11  -3 -10    1.60    4.10
  11   3  10   -3.80    5.00
 -12  -4 -10   46.00    7.60
 -12  -4 -10   50.19    6.10
  12   4  10   37.80    9.20
 -13  -5 -10  193.08   18.00
 -13  -5 -10  218.88   15.40
  13   5  10  201.48   21.00
  -1   7 -11   21.00    9.40
   1  -7  11   43.80    7.00
   1  -7  11   36.80    6.80
  -2   6 -11 1021.10   70.39
   2  -6  11 1077.09   68.29
   2  -6  11 1032.60   66.79
  -3   5 -11   24.60    7.00
   3  -5  11   30.20    5.20
   3  -5  11   25.80    6.30
   4  -4  11    4.40    4.00
   4  -4  11    2.70    3.40
  -5   3 -11   77.99   10.70
   5  -3  11   89.69    8.10
   5  -3  11   82.99   10.20
  -6   2 -11    0.90    2.40
  -6   2 -11    1.60    4.50
   6  -2  11    8.00    4.90
  -7   1 -11   76.79   10.00
  -7   1 -11   85.29    7.00
   7  -1  11   71.99   10.20
  -8   0 -11   -0.30    5.00
  -8   0 -11    2.50    2.30
   8   0  11    1.70    4.30
  -9  -1 -11  210.28   14.40
  -9  -1 -11  199.78   17.50
   9   1  11  213.98   18.60
 -10  -2 -11   96.89   11.60
 -10  -2 -11  112.29    8.20
  10   2  11   57.39   15.90
 -11  -3 -11  386.76   30.60
 -11  -3 -11  461.65   28.30
  11   3  11  441.86   33.10
 -12  -4 -11  103.09   12.70
 -12  -4 -11  101.39    9.00
  12   4  11  100.79   14.80
 -13  -5 -11   64.19   11.50
 -13  -5 -11   82.79    8.50
  13   5  11  103.99   15.10
  -2   6 -12  602.24   43.40
   2  -6  12  587.74   41.30
   2  -6  12  580.94   39.50
  -3   5 -12  126.49   16.30
   3  -5  12  150.78   13.90
   3  -5  12  120.09   11.90
  -4   4 -12    6.40    7.00
   4  -4  12   -0.40    4.60
   4  -4  12   -2.40    3.70
  -5   3 -12  156.48   15.10
   5  -3  12  138.49   14.40
   5  -3  12  138.79   11.70
  -6   2 -12  461.15   29.80
   6  -2  12  449.66   33.40
  -7   1 -12   25.50    7.30
  -7   1 -12   23.50    3.60
   7  -1  12   22.30    7.70
  -8   0 -12  810.42   47.50
  -8   0 -12  705.53   50.79
   8   0  12  713.53   51.79
  -9  -1 -12  309.87   25.90
  -9  -1 -12  376.06   22.90
   9   1  12  347.47   27.20
 -10  -2 -12   58.09   11.30
 -10  -2 -12   56.19    5.80
  10   2  12   37.80    9.10
 -11  -3 -12  115.69    9.10
 -11  -3 -12   94.19   13.00
  11   3  12  122.79   15.50
 -12  -4 -12  419.56   28.20
 -12  -4 -12  411.46   31.70
  12   4  12  463.55   36.10
  -3   5 -13   12.80    8.10
   3  -5  13    6.90    6.10
   3  -5  13    1.50    5.40
  -4   4 -13  155.48   17.90
   4  -4  13  119.39   12.00
   4  -4  13  145.89   15.00
  -5   3 -13  509.85   33.70
  -5   3 -13  504.35   38.30
   5  -3  13  528.15   37.60
  -6   2 -13   36.90    4.80
  -6   2 -13   34.60    9.20
   6  -2  13   43.70    8.50
  -7   1 -13   38.40    4.60
  -7   1 -13   37.50    8.50
   7  -1  13   34.30    9.00
  -8   0 -13   -3.70    6.50
  -8   0 -13    0.30    2.60
   8   0  13    4.10    6.20
  -9  -1 -13   86.09   12.70
  -9  -1 -13   98.19    8.40
   9   1  13  106.49   14.40
 -10  -2 -13  210.98   19.60
  10   2  13  186.48   20.90
 -11  -3 -13   32.00    9.40
  11   3  13   42.60    9.60
  -4   4 -14   59.69   12.10
   4  -4  14   54.59   11.20
  -5   3 -14    0.70    8.10
   5  -3  14    6.10    8.60
  -6   2 -14  435.76   34.60
   6  -2  14  440.16   34.20
  -7   1 -14  113.59   16.20
   7  -1  14  119.09   16.20
  -8   0 -14  408.06   33.10
   8   0  14  450.55   35.70
  -9  -1 -14    3.30    8.10
   9   1  14   11.00    8.20
 -10  -2 -14  564.84   42.10
  10   0 -16   91.59   12.70
  -7   3  15   28.60   12.40
   7  -3 -15   47.90    8.10
  -8   2  15    5.90    8.40
   8  -2 -15    6.10    8.00
  -9   1  15   40.60    9.80
   9  -1 -15   27.50    7.90
 -10   0  15    3.40    8.30
  10   0 -15    4.30    5.90
 -11  -1  15  117.59   18.00
  11   1 -15  146.89   15.00
 -12  -2  15   38.00   10.20
  12   2 -15   22.70    7.90
  -5   5  14  168.18   21.60
   5  -5 -14  192.08   18.30
  -6   4  14  430.86   33.40
   6  -4 -14  386.56   30.60
  -7   3  14   66.89   12.20
   7  -3 -14   62.79   10.00
  -8   2  14    2.60    8.10
   8  -2 -14    2.70    5.50
  -9   1  14   23.80    8.50
   9  -1 -14   32.20    7.30
 -10   0  14 1761.92  110.49
  10   0 -14 1607.14  107.29
 -11  -1  14  220.58   20.50
  11   1 -14  217.78   18.40
 -12  -2  14  190.98   18.90
  12   2 -14  190.98   16.80
 -13  -3  14  165.18   19.00
  13   3 -14  162.18   15.00
 -14  -4  14  326.07   28.90
  14   4 -14  324.17   24.80
  -5   5  13   67.89   11.70
   5  -5 -13   63.39   10.70
  -6   4  13   -4.20   12.70
   6  -4 -13    0.70    5.60
  -7   3  13  237.58   27.30
   7  -3 -13  254.27   20.40
  -8   2  13   47.90   10.20
   8  -2 -13   51.59    7.80
  -9   1  13    6.50    7.10
   9  -1 -13    5.40    5.30
  10   0 -13    0.40    3.90
 -11  -1  13   42.50    8.50
  11   1 -13   36.00    6.60
 -12  -2  13   58.39   10.10
  12   2 -13   54.39    8.40
 -13  -3  13   44.80   10.20
  13   3 -13   49.90    8.50
 -14  -4  13  453.85   33.60
  14   4 -13  410.56   30.30
  15   5 -13  214.08   17.80
  -4   6  12   33.30    8.70
   4  -6 -12   18.20    8.10
  -5   5  12  112.89   14.00
   5  -5 -12  107.89   12.20
  -6   4  12  117.39   14.20
   6  -4 -12  101.79   11.50
  -7   3  12   12.50    5.60
   7  -3 -12    0.30    3.70
  -8   2  12   25.20    7.00
   8  -2 -12   24.60    5.20
  -9   1  12  236.38   19.10
   9  -1 -12  186.18   16.10
 -10   0  12   11.50    5.20
  10   0 -12    6.80    4.00
 -11  -1  12   15.40    5.70
  11   1 -12   10.80    3.90
 -12  -2  12   77.69   10.60
 -12  -2  12   77.69    7.40
  12   2 -12   76.89    8.90
 -13  -3  12  142.89   10.60
 -13  -3  12  143.49   21.00
  13   3 -12  148.59   12.70
 -14  -4  12  228.68   17.00
 -14  -4  12  279.47   22.00
  14   4 -12  236.28   18.60
 -15  -5  12   79.59   12.00
 -15  -5  12   91.09    9.60
  15   5 -12   97.49   11.00
  -3   7  11 1356.16   95.99
   3  -7 -11 1609.84   97.39
  -4   6  11  146.29   16.50
   4  -6 -11  170.08   15.60
  -5   5  11  115.49   14.10
   5  -5 -11  119.69   13.20
   5  -5 -11  151.98   10.60
  -6   4  11  165.48   15.70
   6  -4 -11  153.78   14.00
  -7   3  11   -2.10    4.30
   7  -3 -11   -0.60    3.50
  -8   2  11  111.79   11.90
   8  -2 -11   99.49   10.20
  -9   1  11 3227.68  179.48
   9  -1 -11 2448.46  176.28
 -10   0  11    0.10    4.10
  10   0 -11   -2.20    3.00
 -11  -1  11   25.40    6.00
  11   1 -11   27.00    4.90
 -12  -2  11  112.69    8.30
 -12  -2  11  134.39   12.70
  12   2 -11  109.49    8.00
  12   2 -11   97.59    9.90
 -13  -3  11  171.08   13.20
 -13  -3  11  207.68   17.70
  13   3 -11  203.78   15.10
 -14  -4  11    9.80    3.30
 -14  -4  11   10.10    5.90
  14   4 -11   10.50    3.90
 -15  -5  11   25.00    7.20
 -15  -5  11   36.50    5.30
  15   5 -11   26.70    5.60
 -16  -6  11  429.46   31.40
 -16  -6  11  448.46   35.40
  16   6 -11  507.65   32.50
  -3   7  10   66.39    9.50
   3  -7 -10   56.59    6.20
   3  -7 -10   52.69    9.30
  -4   6  10  159.38   15.10
   4  -6 -10  163.18   11.30
   4  -6 -10  153.28   14.60
  -5   5  10   40.50    7.20
   5  -5 -10   37.60    4.60
   5  -5 -10   37.90    6.60
  -6   4  10    4.00    2.00
  -6   4  10    6.70    4.30
   6  -4 -10    2.00    3.80
   6  -4 -10    2.10    1.60
  -7   3  10  242.28   20.00
   7  -3 -10  252.47   18.70
  -8   2  10  352.06   25.00
   8  -2 -10  307.27   23.20
  -9   1  10  104.29   11.00
   9  -1 -10   97.19    9.20
 -10   0  10 1053.69   70.79
  10   0 -10 1099.19   69.09
 -11  -1  10  118.49   12.60
 -11  -1  10  119.19    8.60
  11   1 -10  119.59   10.90
  11   1 -10  146.89    8.90
 -12  -2  10  104.29   11.80
 -12  -2  10  103.19    8.20
  12   2 -10  109.79    9.60
  12   2 -10  102.99    7.50
 -13  -3  10  246.58   16.70
 -13  -3  10  252.07   20.50
  13   3 -10  221.58   16.50
  13   3 -10  282.47   18.50
 -14  -4  10  329.17   26.20
 -14  -4  10  318.67   22.60
  14   4 -10  369.66   24.00
 -15  -5  10  492.35   34.60
 -15  -5  10  464.55   30.70
  15   5 -10  439.96   31.50
 -16  -6  10   27.50    7.60
 -16  -6  10   45.00    6.80
  16   6 -10   41.60    6.30
   2  -8  -9    6.10    3.30
   2  -8  -9    1.80    7.80
  -3   7   9    6.10    5.20
   3  -7  -9    5.20    2.80
   3  -7  -9    8.90    5.60
  -4   6   9   12.80    4.90
   4  -6  -9   15.60    2.80
   4  -6  -9    7.70    5.10
  -5   5   9  104.29    9.00
  -5   5   9  114.09   11.50
   5  -5  -9  114.99   11.60
   5  -5  -9  115.49    8.20
  -6   4   9  158.58   14.60
  -6   4   9  159.18   11.60
   6  -4  -9  178.38   14.20
   6  -4  -9  194.08   11.70
  -7   3   9  182.88   16.10
   7  -3  -9  224.48   12.70
   7  -3  -9  177.78   15.10
  -8   2   9  401.66   29.30
   8  -2  -9  415.66   28.00
  -9   1   9  439.56   32.20
   9  -1  -9  472.55   30.90
 -10   0   9    0.40    3.10
  10   0  -9    4.10    2.60
 -11  -1   9  380.46   24.50
 -11  -1   9  391.56   28.40
  11   1  -9  362.56   26.20
  11   1  -9  418.76   24.50
 -12  -2   9   17.50    2.80
 -12  -2   9   15.50    4.90
  12   2  -9   13.60    3.30
  12   2  -9   15.60    2.30
 -13  -3   9  382.16   27.30
 -13  -3   9  349.27   23.70
  13   3  -9  347.97   23.50
  13   3  -9  384.06   24.90
 -14  -4   9  471.85   31.50
 -14  -4   9  491.25   34.80
  14   4  -9  492.25   32.40
 -15  -5   9   82.29   10.80
 -15  -5   9   79.39    7.80
  15   5  -9   70.29    8.20
 -16  -6   9  131.99   11.40
 -16  -6   9  121.49   13.90
  16   6  -9  117.89   11.00
 -17  -7   9  539.05   38.30
 -17  -7   9  510.45   35.70
   2  -8  -8 1132.69   71.69
   2  -8  -8 1006.30   67.29
  -3   7   8   65.39    9.70
   3  -7  -8   91.59   13.20
   3  -7  -8   87.99    7.50
  -4   6   8  383.46   28.70
   4  -6  -8  426.76   26.90
   4  -6  -8  431.96   29.90
  -5   5   8   72.69    6.80
  -5   5   8   74.59    8.80
   5  -5  -8   78.89    6.10
   5  -5  -8   74.59    9.00
  -6   4   8    4.70    2.00
  -6   4   8    5.00    3.20
   6  -4  -8    9.40    3.50
   6  -4  -8    8.00    2.00
  -7   3   8   80.69    9.00
  -7   3   8   82.19    6.00
   7  -3  -8   79.89    8.10
   7  -3  -8   97.39    6.20
  -8   2   8 2362.96  145.69
   8  -2  -8 2263.37  144.39
  -9   1   8   14.40    4.20
   9  -1  -8   16.00    3.50
 -10   0   8  457.65   28.20
 -10   0   8  442.66   28.10
 -10   0   8  441.66   31.60
  10   0  -8  465.85   30.10
 -11  -1   8  187.68   14.70
 -11  -1   8  168.08   11.20
  11   1  -8  159.58   12.50
  11   1  -8  168.98   11.10
 -12  -2   8  141.09   13.00
  12   2  -8  136.39    9.60
  12   2  -8  142.49   10.80
 -13  -3   8   78.29    6.40
 -13  -3   8   84.99    9.50
  13   3  -8   69.69    6.30
  13   3  -8   70.79    7.00
 -14  -4   8  149.99   11.30
 -14  -4   8  169.48   14.30
  14   4  -8  142.79   11.70
 -15  -5   8   36.00    5.10
 -15  -5   8   49.60    7.70
  15   5  -8   36.00    6.00
 -16  -6   8    2.80    5.60
 -16  -6   8   -3.20    3.40
  16   6  -8    1.70    3.40
 -17  -7   8  146.49   13.50
 -17  -7   8  139.49   15.70
  -1   9   7   79.59   17.10
   1  -9  -7   66.79    8.90
  -2   8   7    2.40    7.20
   2  -8  -7   19.60    4.00
   2  -8  -7   16.60    7.30
  -3   7   7  552.74   39.90
   3  -7  -7  619.74   42.30
   3  -7  -7  653.93   39.30
  -4   6   7    3.10    3.30
   4  -6  -7    4.00    4.40
   4  -6  -7    2.80    2.20
   4  -6  -7   11.30    4.70
  -5   5   7   36.40    5.40
  -5   5   7   33.00    4.40
   5  -5  -7   36.60    5.50
   5  -5  -7   29.60    5.40
   5  -5  -7   33.50    3.90
  -6   4   7   26.40    3.20
  -6   4   7   21.70    4.40
   6  -4  -7   21.60    4.40
   6  -4  -7   24.20    4.60
   6  -4  -7   24.50    3.00
  -7   3   7  202.18   16.10
  -7   3   7  232.08   13.80
   7  -3  -7  203.68   15.60
   7  -3  -7  221.58   13.80
   7  -3  -7  184.98   16.20
  -8   2   7 1540.35   98.79
  -8   2   7 1558.84   95.99
  -8   2   7 1547.25   95.89
   8  -2  -7 1551.04   97.79
   8  -2  -7 1579.54   98.79
  -9   1   7  527.05   37.40
  -9   1   7  549.65   34.40
  -9   1   7  545.95   34.50
  -9   1   7  605.94   37.30
   9  -1  -7  572.34   36.20
   9  -1  -7  533.05   38.90
 -10   0   7   -2.10    3.60
 -10   0   7    0.80    1.00
 -10   0   7   -0.90    2.50
 -10   0   7    2.30    1.30
  10   0  -7   -0.80    1.80
 -11  -1   7    3.90    1.50
 -11  -1   7    4.20    3.60
 -11  -1   7    6.30    3.40
  11   1  -7    3.50    1.30
  11   1  -7    2.50    1.90
 -12  -2   7  211.38   17.60
 -12  -2   7  198.88   15.30
 -12  -2   7  254.17   17.70
  12   2  -7  242.38   15.00
  12   2  -7  236.38   15.90
 -13  -3   7 1117.49   68.89
 -13  -3   7 1240.48   71.39
 -13  -3   7 1063.89   71.69
  13   3  -7 1084.59   69.39
  13   3  -7 1005.30   68.59
 -14  -4   7  637.84   43.50
 -14  -4   7  656.43   40.80
 -14  -4   7  579.54   43.00
  14   4  -7  665.43   41.10
 -15  -5   7   58.89    8.90
 -15  -5   7   54.99    6.50
  15   5  -7   54.29    6.20
 -16  -6   7    3.60    3.80
 -16  -6   7    8.30    5.40
  16   6  -7    8.70    3.50
 -17  -7   7  398.66   28.80
 -17  -7   7  349.47   26.60
  -1   9   6  118.69   18.20
   1  -9  -6  143.39   12.00
  -2   8   6    0.40    6.30
   2  -8  -6    8.30    3.30
  -3   7   6  515.45   37.90
   3  -7  -6  636.54   40.70
   3  -7  -6  599.74   37.60
  -4   6   6   30.80    6.00
   4  -6  -6   31.50    4.30
   4  -6  -6   28.80    5.60
   4  -6  -6   45.30    5.70
  -5   5   6   27.70    4.40
  -5   5   6   19.10    3.80
   5  -5  -6   27.20    4.80
   5  -5  -6   23.80    3.20
   5  -5  -6   24.60    4.60
  -6   4   6  366.96   25.40
  -6   4   6  380.66   24.00
   6  -4  -6  391.66   25.60
   6  -4  -6  349.17   25.50
  -7   3   6  704.73   46.70
  -7   3   6  739.93   48.70
   7  -3  -6  758.42   48.30
   7  -3  -6  761.02   48.70
   7  -3  -6  781.82   46.80
  -8   2   6  100.09    7.00
  -8   2   6  101.09    9.10
  -8   2   6  121.69    9.90
   8  -2  -6  108.39    7.00
   8  -2  -6   89.69    8.20
   8  -2  -6   87.99    9.40
  -9   1   6  255.97   15.60
  -9   1   6  236.98   18.00
  -9   1   6  268.37   17.80
   9  -1  -6  218.38   16.70
 -10   0   6 1163.68   65.19
 -10   0   6  991.40   63.19
 -10   0   6 1001.60   65.89
 -10   0   6  976.20   63.19
 -10   0   6  976.30   65.49
  10   0  -6 1019.80   64.29
 -11  -1   6  165.98   16.80
 -11  -1   6  127.19    9.60
 -11  -1   6  148.59   11.40
 -11  -1   6  137.89   12.20
  11   1  -6  152.48    9.60
 -12  -2   6 2939.71  179.28
 -12  -2   6 2866.71  178.08
 -12  -2   6 2899.41  180.78
  12   2  -6 2793.52  180.18
  12   2  -6 2917.21  177.88
 -13  -3   6  604.84   38.60
 -13  -3   6  594.54   41.10
 -13  -3   6  674.13   40.60
  13   3  -6  556.64   38.30
 -14  -4   6   22.70    5.90
 -14  -4   6   12.70    3.00
 -14  -4   6   19.70    5.00
  14   4  -6   22.90    3.40
 -15  -5   6  107.69    9.40
 -15  -5   6   96.99   12.80
 -15  -5   6  133.39   12.10
  15   5  -6  109.79    9.10
 -16  -6   6  345.17   24.80
 -16  -6   6  321.37   22.50
  16   6  -6  301.67   21.70
 -17  -7   6   42.90    8.20
 -17  -7   6   51.59    7.70
  -1   9   5  783.52   56.49
   1  -9  -5  767.42   50.19
  -2   8   5   38.30   11.40
   2  -8  -5   34.00    5.10
  -3   7   5  593.74   41.80
  -3   7   5  734.53   47.20
   3  -7  -5  623.54   44.70
   3  -7  -5  698.33   42.40
  -4   6   5  227.98   18.30
   4  -6  -5  284.17   20.30
   4  -6  -5  264.87   18.00
   4  -6  -5  293.77   18.60
  -5   5   5   26.10    4.10
  -5   5   5   25.50    4.10
   5  -5  -5   25.10    3.50
   5  -5  -5   29.40    5.10
   5  -5  -5   27.00    4.20
  -6   4   5  718.03   46.90
  -6   4   5  727.13   48.00
   6  -4  -5  741.53   46.90
   6  -4  -5  736.73   48.30
   6  -4  -5  809.72   48.10
  -7   3   5 1419.36   92.29
  -7   3   5 1468.45   92.29
  -7   3   5 1496.85   90.79
   7  -3  -5 1432.16   91.99
   7  -3  -5 1481.65   90.79
   7  -3  -5 1489.55   92.29
  -8   2   5  168.48   11.00
  -8   2   5  159.18   12.50
   8  -2  -5  154.78   12.90
   8  -2  -5  180.08   11.00
   8  -2  -5  164.58   12.00
  -9   1   5    3.50    2.70
  -9   1   5    6.80    3.00
  -9   1   5    2.90    2.20
  -9   1   5    6.80    1.40
  -9   1   5    4.50    1.50
 -10   0   5    1.70    2.10
 -10   0   5    0.10    1.10
 -10   0   5   -1.00    2.60
 -10   0   5    1.40    2.50
 -10   0   5    1.20    1.10
  10   0  -5    1.40    2.00
  10   0  -5    1.70    1.10
 -11  -1   5  546.85   36.80
 -11  -1   5  629.84   35.90
 -11  -1   5  468.55   34.70
 -11  -1   5  551.34   37.20
  11   1  -5  548.95   34.70
  11   1  -5  577.04   35.30
 -12  -2   5  127.99   11.50
 -12  -2   5  138.59    9.20
 -12  -2   5  125.89   11.50
 -12  -2   5  139.89   10.50
  12   2  -5  125.89    9.30
  12   2  -5  117.49    9.00
 -13  -3   5  150.98   14.00
 -13  -3   5  179.68   13.80
 -13  -3   5  174.38   12.30
  13   3  -5  175.98   12.50
  13   3  -5  189.58   12.30
 -14  -4   5 1622.04  100.39
 -14  -4   5 1553.84  100.89
 -14  -4   5 1653.33  102.89
  14   4  -5 1599.94  100.09
 -15  -5   5   86.59    8.40
 -15  -5   5  107.99   11.00
 -15  -5   5   80.99   10.40
 -16  -6   5  440.16   31.00
 -16  -6   5  398.16   28.70
  16   6  -5  430.96   27.80
 -17  -7   5   14.70    5.00
 -17  -7   5    7.70    5.80
 -18  -8   5   85.49   13.20
 -18  -8   5   94.59   11.80
  -1   9   4   92.39   14.90
   1  -9  -4   86.99    9.80
  -2   8   4  405.86   31.90
   2  -8  -4  385.26   26.60
  -3   7   4   81.89   11.90
   3  -7  -4   66.19    6.90
  -4   6   4    3.40    4.50
  -4   6   4    3.30    2.40
  -4   6   4    2.40    2.30
   4  -6  -4    4.10    3.80
   4  -6  -4    5.50    2.20
  -5   5   4  579.74   38.70
  -5   5   4  653.73   39.30
  -5   5   4  549.85   38.40
   5  -5  -4  647.64   38.80
   5  -5  -4  590.84   40.00
   5  -5  -4  614.04   38.50
  -6   4   4  762.42   48.60
  -6   4   4  742.83   49.10
  -6   4   4  826.62   49.30
   6  -4  -4  760.82   49.20
   6  -4  -4  791.32   48.60
   6  -4  -4  752.82   49.80
  -7   3   4 1180.08   76.09
  -7   3   4 1227.18   75.29
  -7   3   4 1390.56   76.59
  -7   3   4 1163.38   76.29
   7  -3  -4 1183.78   76.19
   7  -3  -4 1161.78   75.09
   7  -3  -4 1165.48   76.19
  -8   2   4  973.50   63.89
  -8   2   4 1023.20   63.69
  -8   2   4  991.60   63.39
  -8   2   4 1017.80   62.49
   8  -2  -4 1047.90   62.49
   8  -2  -4  972.30   63.29
  -9   1   4  121.39    7.90
  -9   1   4   99.79    9.10
  -9   1   4  120.69    9.00
  -9   1   4  108.99    9.80
   9  -1  -4  110.39    8.40
 -10   0   4  623.74   35.90
 -10   0   4  540.65   34.90
 -10   0   4  544.15   37.00
 -10   0   4  538.65   36.60
  10   0  -4  548.25   35.00
  10   0  -4  547.55   35.30
 -11  -1   4  202.38   13.40
 -11  -1   4  215.98   13.10
 -11  -1   4  194.38   14.70
 -11  -1   4  180.28   14.80
  11   1  -4  186.48   13.00
  11   1  -4  187.18   12.80
 -12  -2   4  984.40   64.09
 -12  -2   4 1053.99   62.79
 -12  -2   4  910.31   64.29
 -12  -2   4  976.40   62.29
  12   2  -4  982.80   62.09
  12   2  -4  985.60   64.49
  12   2  -4 1073.69   62.19
 -13  -3   4 1518.85   97.09
 -13  -3   4 1553.64   99.29
 -13  -3   4 1614.34   96.99
  13   3  -4 1549.84   96.49
  13   3  -4 1542.25   99.29
 -14  -4   4  356.56   24.00
 -14  -4   4  329.47   24.10
 -14  -4   4  371.86   26.40
  14   4  -4  381.66   23.50
  14   4  -4  374.26   26.70
 -15  -5   4  669.83   44.90
 -15  -5   4  659.93   42.40
  15   5  -4  637.24   41.60
 -16  -6   4  499.55   34.00
 -16  -6   4  444.06   31.50
 -17  -7   4    3.30    5.40
 -17  -7   4    6.40    4.70
 -18  -8   4    6.30    7.40
 -18  -8   4   12.40    6.00
  -1   9   3   62.79   13.50
   1  -9  -3   65.99    8.50
  -2   8   3    6.40    7.00
   2  -8  -3    4.40    3.20
  -3   7   3  167.38   17.00
   3  -7  -3  179.88   13.00
  -4   6   3  294.47   22.80
   4  -6  -3  290.87   19.70
  -5   5   3 1183.78   72.79
  -5   5   3 1226.48   76.09
  -5   5   3 1082.39   72.59
   5  -5  -3 1142.29   74.49
   5  -5  -3 1220.78   73.29
  -6   4   3  366.56   24.80
  -6   4   3  378.66   23.80
  -6   4   3  388.86   23.90
  -6   4   3  342.57   23.60
   6  -4  -3  365.96   23.60
   6  -4  -3  346.57   24.60
  -7   3   3   31.70    4.70
  -7   3   3   24.10    3.80
  -7   3   3   32.80    3.70
  -7   3   3   25.90    4.10
   7  -3  -3   28.60    4.00
   7  -3  -3   30.20    3.50
  -8   2   3  227.58   15.30
  -8   2   3  214.58   14.50
  -8   2   3  222.78   15.80
  -8   2   3  218.18   15.40
   8  -2  -3  221.38   14.40
  -9   1   3  158.38   11.90
  -9   1   3  152.08   12.30
  -9   1   3  176.28   11.30
  -9   1   3  144.39   10.80
  -9   1   3  163.78   10.70
   9  -1  -3  157.78   12.00
   9  -1  -3  162.08   11.10
 -10   0   3    1.30    1.50
 -10   0   3    0.50    1.20
 -10   0   3   -0.20    2.00
  10   0  -3    0.20    1.10
  10   0  -3   -0.60    2.10
  10   0  -3    1.10    1.10
 -11  -1   3 1873.71  109.19
 -11  -1   3 1672.93  107.69
 -11  -1   3 1572.14  107.39
  11   1  -3 1728.53  109.19
  11   1  -3 1794.92  107.19
  11   1  -3 1777.92  107.39
 -12  -2   3   68.89    5.40
 -12  -2   3   56.69    5.10
 -12  -2   3   56.69    6.70
  12   2  -3   62.29    4.50
  12   2  -3   56.69    5.00
  12   2  -3   57.49    6.70
 -13  -3   3  304.57   21.40
  13   3  -3  329.87   20.70
  13   3  -3  347.87   23.80
 -14  -4   3   56.59    5.70
  14   4  -3   52.99    4.70
  14   4  -3   39.70    6.80
  14   4  -3   61.79    5.00
 -15  -5   3  660.23   41.90
  15   5  -3  722.73   40.90
  15   5  -3  608.24   40.80
  15   5  -3  579.84   43.90
 -16  -6   3  130.99   12.90
 -16  -6   3  120.79   10.50
  16   6  -3   92.59   12.60
  16   6  -3  118.09    9.50
 -17  -7   3  821.42   55.09
 -17  -7   3  796.62   52.79
 -18  -8   3    8.00    7.30
 -18  -8   3   19.20    6.30
  -1   9   2   36.40   11.50
   1  -9  -2   28.90    5.60
  -2   8   2   85.99   12.80
   2  -8  -2  104.29    9.00
  -3   7   2  168.18   16.10
   3  -7  -2  170.28   12.70
  -4   6   2   13.70    4.90
   4  -6  -2   19.70    3.40
  -5   5   2  298.77   21.60
   5  -5  -2  269.27   18.80
  -6   4   2 1439.46   90.39
  -6   4   2 1444.26   88.39
  -6   4   2 1466.45   87.99
  -6   4   2 1384.26   87.89
  -6   4   2 1412.86   89.09
   6  -4  -2 1360.56   88.19
  -7   3   2 2145.19  136.19
  -7   3   2 2207.78  135.99
  -7   3   2 2325.17  135.89
  -7   3   2 2230.08  135.69
   7  -3  -2 2094.79  136.19
   7  -3  -2 2147.89  135.59
  -8   2   2  447.56   28.30
  -8   2   2  423.86   27.60
  -8   2   2  474.85   28.20
   8  -2  -2  430.06   27.60
   8  -2  -2  373.66   27.90
   8  -2  -2  461.45   28.30
  -9   1   2  426.96   26.60
  -9   1   2  443.16   26.40
  -9   1   2  398.66   26.50
  -9   1   2  437.56   27.40
   9  -1  -2  395.26   26.20
   9  -1  -2  386.96   27.20
   9  -1  -2  414.46   26.50
 -10   0   2   71.49    5.30
 -10   0   2   64.79    5.30
  10   0  -2   65.09    4.90
  10   0  -2   68.09    6.60
  10   0  -2   70.29    5.30
 -11  -1   2  205.18   13.70
 -11  -1   2  208.78   15.30
 -11  -1   2  206.88   13.20
  11   1  -2  211.08   13.00
  11   1  -2  206.18   13.50
  11   1  -2  188.58   15.30
 -12  -2   2  330.77   22.50
 -12  -2   2  366.46   24.30
  12   2  -2  340.17   24.20
  12   2  -2  352.86   22.40
 -13  -3   2  592.64   36.10
 -13  -3   2  549.74   37.60
  13   3  -2  559.14   34.90
  13   3  -2  548.45   37.90
 -14  -4   2  535.35   35.80
  14   4  -2  573.84   34.70
  14   4  -2  559.44   38.00
  14   4  -2  547.55   34.70
 -15  -5   2  476.75   32.00
  15   5  -2  525.45   30.80
  15   5  -2  479.95   30.90
  15   5  -2  450.05   34.10
 -16  -6   2   23.70    4.80
  16   6  -2   25.90    6.60
  16   6  -2   26.80    3.90
 -17  -7   2    4.70    4.60
  17   7  -2    5.70    6.00
 -18  -8   2  363.56   26.70
 -18  -8   2  357.56   28.80
   0  10   1  222.58   26.90
   0 -10  -1  216.98   17.80
  -1   9   1 1334.97   84.09
   1  -9  -1 1142.09   78.29
  -2   8   1  603.24   42.70
   2  -8  -1  548.15   37.60
  -3   7   1    1.70    5.50
   3  -7  -1    0.50    2.40
  -4   6   1  193.68   16.10
   4  -6  -1  154.08   12.30
  -5   5   1   28.40    5.90
   5  -5  -1   32.70    4.10
  -6   4   1 1438.86   84.49
  -6   4   1 1336.57   84.49
  -6   4   1 1422.66   85.49
  -6   4   1 1318.97   85.99
  -6   4   1 1381.66   87.29
   6  -4  -1 1306.67   85.19
  -7   3   1 1456.65   94.79
  -7   3   1 1383.86   95.69
  -7   3   1 1740.43   94.49
  -7   3   1 1546.15   94.39
   7  -3  -1 1460.95   94.19
  -8   2   1    6.80    1.90
  -8   2   1    9.40    2.20
  -8   2   1   11.60    2.10
  -8   2   1    8.60    2.60
   8  -2  -1    8.40    1.80
   8  -2  -1    6.80    1.90
  -9   1   1    4.40    1.80
  -9   1   1    2.40    1.40
  -9   1   1    3.40    1.80
  -9   1   1    3.80    1.40
   9  -1  -1    2.70    1.40
   9  -1  -1    3.80    1.70
 -10   0   1    1.70    1.30
 -10   0   1    1.70    1.10
 -10   0   1    1.60    1.10
 -10   0   1    2.00    1.40
 -10   0   1    0.30    1.90
  10   0  -1    0.70    1.50
  10   0  -1    0.80    1.60
 -11  -1   1 1206.08   70.49
 -11  -1   1 1009.20   69.19
  11   1  -1 1111.39   68.89
 -12  -2   1  640.14   39.80
 -12  -2   1  699.03   41.50
  12   2  -1  604.34   39.60
  12   2  -1  573.44   41.10
 -13  -3   1  552.74   35.20
 -13  -3   1  579.64   36.90
  13   3  -1  513.35   36.80
 -14  -4   1  268.47   18.40
  14   4  -1  258.17   20.20
  14   4  -1  283.17   17.00
  14   4  -1  262.67   17.10
 -15  -5   1 1103.39   74.29
  15   5  -1 1288.17   73.09
  15   5  -1 1159.38   73.19
  15   5  -1 1146.09   76.59
 -16  -6   1  142.59   11.90
  16   6  -1  148.49   10.80
  16   6  -1  127.59   14.50
 -17  -7   1    8.50    4.60
  17   7  -1    8.10    6.10
 -18  -8   1  230.28   17.70
  18   8  -1  180.28   20.80
   0  10   0    6.00   11.90
   0 -10   0   26.90    6.10
  -1   9   0  362.96   29.50
   1  -9   0  293.67   22.90
  -2   8   0    5.20    6.40
   2  -8   0   16.50    4.30
  -3   7   0  134.79   13.40
   3  -7   0  109.29    9.90
  -4   6   0 1610.34   98.19
   4  -6   0 1422.06   94.59
  -5   5   0  199.78   17.70
   5  -5   0  241.18   15.50
  -6   4   0   61.89    7.60
  -6   4   0   82.29    6.80
  -6   4   0   73.89    7.10
  -6   4   0   75.39    5.40
  -6   4   0   72.29    5.10
   6  -4   0   80.59    6.20
  -7   3   0   34.80    4.60
  -7   3   0   34.10    4.20
  -7   3   0   30.60    3.50
  -7   3   0   35.10    4.50
   7  -3   0   29.30    3.40
   7  -3   0   27.10    3.20
  -8   2   0  884.11   59.29
  -8   2   0  931.91   60.09
  -8   2   0 1057.29   59.69
  -8   2   0  978.30   59.19
   8  -2   0  917.21   59.29
   8  -2   0  890.11   59.59
   8  -2   0  962.40   59.09
  -9   1   0    4.30    2.10
  -9   1   0    2.10    1.40
  -9   1   0    1.90    1.70
  -9   1   0    2.80    1.50
   9  -1   0    3.80    1.60
   9  -1   0    6.60    1.70
   9  -1   0    2.00    1.70
 -10   0   0 7843.82  523.05
 -10   0   0 9427.66  524.35
 -10   0   0 7626.64  522.85
  10   0   0 8586.04  524.05
  10   0   0 9036.40  523.15
 -11  -1   0   80.39    7.40
  11   1   0   74.69    5.70
  11   1   0   62.79    7.50
 -12  -2   0  715.53   44.50
 -12  -2   0  728.93   46.00
  12   2   0  676.93   44.40
  12   2   0  697.83   46.00
 -13  -3   0   50.89    7.40
 -13  -3   0   47.30    5.00
  13   3   0   57.69    6.60
 -14  -4   0   23.70    3.70
  14   4   0   10.90    3.80
  14   4   0   17.20    2.70
  14   4   0   23.00    2.50
 -15  -5   0   92.39    8.70
  15   5   0   83.59   10.40
  15   5   0  102.29    7.40
  15   5   0  110.29    7.90
 -16  -6   0 1618.74   97.29
  16   6   0 1450.65   99.39
  16   6   0 1550.54   96.19
 -17  -7   0   63.69    8.40
  17   7   0   50.99    9.50
 -18  -8   0  700.73   42.10
  18   8   0  526.85   43.80
   0  10  -1  235.68   27.00
   0 -10   1  204.48   18.20
  -1   9  -1  107.79   17.40
   1  -9   1  107.09   10.90
  -2   8  -1  275.77   23.10
   2  -8   1  228.48   18.00
  -3   7  -1    1.80    5.30
   3  -7   1    2.30    2.80
  -4   6  -1   56.09    8.70
   4  -6   1   59.49    6.20
  -5   5  -1  112.09   10.90
   5  -5   1  101.59    8.20
  -6   4  -1  648.04   43.60
  -6   4  -1  646.84   41.00
  -6   4  -1  700.73   42.00
   6  -4   1  648.94   41.60
   6  -4   1  688.83   41.00
   6  -4   1  597.64   42.80
  -7   3  -1    4.30    1.70
  -7   3  -1    6.20    2.30
  -7   3  -1    2.70    2.10
   7  -3   1    2.70    1.40
   7  -3   1    3.10    1.60
   7  -3   1    3.20    2.50
  -8   2  -1    1.10    1.80
  -8   2  -1    3.40    1.90
  -8   2  -1    2.10    2.50
   8  -2   1    2.30    1.70
   8  -2   1    2.10    2.10
   8  -2   1    3.90    1.60
  -9   1  -1  686.53   45.00
  -9   1  -1  828.52   46.10
  -9   1  -1  688.43   45.60
   9  -1   1  670.63   45.50
   9  -1   1  737.33   45.40
   9  -1   1  690.53   45.00
 -10   0  -1   -0.70    1.40
 -10   0  -1    1.90    2.00
 -10   0  -1   -0.40    1.40
 -10   0  -1    0.40    1.60
  10   0   1    0.30    1.90
  10   0   1    0.30    1.30
 -11  -1  -1  600.94   37.90
 -11  -1  -1  618.84   38.50
 -11  -1  -1  639.54   39.80
  11   1   1  613.84   38.50
  11   1   1  602.64   38.00
  11   1   1  575.14   39.50
 -12  -2  -1  643.34   39.90
 -12  -2  -1  596.44   37.40
 -12  -2  -1  616.24   38.30
  12   2   1  580.94   38.20
  12   2   1  576.94   39.70
  12   2   1  607.04   37.40
 -13  -3  -1   66.39    6.40
 -13  -3  -1   82.59    8.90
  13   3   1   75.59    8.00
  13   3   1   83.19    5.60
  13   3   1   73.49    5.30
 -14  -4  -1  770.72   47.20
  14   4   1  753.32   46.30
  14   4   1  680.73   48.80
 -15  -5  -1  161.38   13.20
  15   5   1  192.28   12.10
  15   5   1  179.88   12.60
  15   5   1  157.08   15.30
 -16  -6  -1    6.70    3.60
  16   6   1   11.70    5.20
  16   6   1    9.90    3.60
 -17  -7  -1  155.18   13.70
  17   7   1  158.38   16.60
 -18  -8  -1  183.58   15.50
  18   8   1  156.18   20.10
  -1   9  -2   41.10   10.50
   1  -9   2   50.69    7.30
  -2   8  -2   59.99   11.00
   2  -8   2   44.20    6.50
  -3   7  -2   95.79   12.10
   3  -7   2   79.19    8.00
  -4   6  -2   51.09    8.30
   4  -6   2   42.20    5.20
  -5   5  -2 1610.74  115.09
  -5   5  -2 1858.01  111.99
   5  -5   2 1870.11  111.89
   5  -5   2 1903.51  113.19
  -6   4  -2  231.88   16.60
  -6   4  -2  239.28   18.70
  -6   4  -2  268.37   17.50
   6  -4   2  271.37   16.60
   6  -4   2  235.38   19.00
   6  -4   2  266.57   17.10
  -7   3  -2   11.40    2.70
  -7   3  -2   15.80    2.60
  -7   3  -2   15.70    3.40
   7  -3   2   19.00    4.10
   7  -3   2   11.50    2.30
   7  -3   2   15.20    2.50
  -8   2  -2   89.39    6.70
  -8   2  -2   72.19    7.50
  -8   2  -2   79.69    6.30
   8  -2   2   57.89    6.60
   8  -2   2   68.09    6.10
  -9   1  -2  362.96   23.10
  -9   1  -2  371.36   23.10
  -9   1  -2  333.37   22.10
   9  -1   2  327.87   22.70
   9  -1   2  319.17   22.10
   9  -1   2  333.67   22.60
 -10   0  -2  355.46   23.30
 -10   0  -2  326.57   22.10
 -10   0  -2  345.57   22.50
  10   0   2  342.07   22.40
 -11  -1  -2  334.97   22.10
 -11  -1  -2  294.27   20.30
  11   1   2  317.57   20.70
  11   1   2  328.07   20.50
  11   1   2  309.07   21.90
 -12  -2  -2 2169.68  137.59
 -12  -2  -2 2353.86  139.19
 -12  -2  -2 2163.88  137.09
  12   2   2 2246.08  137.59
  12   2   2 2175.08  139.19
 -13  -3  -2    3.70    1.90
 -13  -3  -2    6.00    1.90
  13   3   2    4.40    2.80
  13   3   2    6.60    1.70
 -14  -4  -2 1475.85   95.19
  14   4   2 1347.97   96.99
  14   4   2 1659.03   94.99
  14   4   2 1589.44   94.39
 -15  -5  -2  350.66   24.50
  15   5   2  373.36   24.40
  15   5   2  316.87   26.50
  15   5   2  396.26   23.80
 -16  -6  -2   26.50    4.70
  16   6   2   22.70    5.60
  16   6   2   37.20    7.30
 -17  -7  -2   62.29    8.10
  17   7   2   33.90    9.10
 -18  -8  -2    4.00    5.40
  18   8   2   -1.70    8.70
  -1   9  -3    9.00    8.90
   1  -9   3    6.20    4.70
  -2   8  -3  105.19   14.70
  -3   7  -3  896.31   55.89
   3  -7   3  725.73   51.49
  -4   6  -3  109.69   11.80
   4  -6   3   92.59    8.40
  -5   5  -3  539.55   33.40
  -5   5  -3  491.15   35.90
   5  -5   3  514.05   32.90
   5  -5   3  531.45   33.80
  -6   4  -3  944.21   60.99
  -6   4  -3  967.80   63.09
   6  -4   3  994.50   61.09
   6  -4   3  969.90   60.69
  -7   3  -3  475.75   33.50
  -7   3  -3  507.45   32.10
  -7   3  -3  487.75   32.20
   7  -3   3  535.05   32.10
   7  -3   3  476.05   31.80
   7  -3   3  493.15   33.50
  -8   2  -3  186.78   12.90
  -8   2  -3  153.78   13.00
  -8   2  -3  183.78   12.10
   8  -2   3  162.78   12.40
   8  -2   3  170.38   11.90
  -9   1  -3 1942.31  113.79
  -9   1  -3 1866.81  114.69
   9  -1   3 1777.52  114.39
   9  -1   3 1743.63  113.99
 -10   0  -3    0.10    1.50
 -10   0  -3   -0.80    2.30
 -10   0  -3    0.30    1.40
 -10   0  -3    3.60    2.30
  10   0   3    3.80    2.10
  10   0   3    1.50    1.70
 -11  -1  -3 1858.31  125.79
 -11  -1  -3 1966.30  125.79
 -11  -1  -3 2269.37  127.49
  11   1   3 2047.00  125.89
  11   1   3 2108.69  125.99
  11   1   3 1934.71  127.09
 -12  -2  -3    6.60    4.20
 -12  -2  -3    2.90    1.70
 -12  -2  -3    3.90    1.90
  12   2   3    1.60    2.50
  12   2   3    5.90    1.90
  12   2   3    4.40    2.40
 -13  -3  -3   40.10    4.60
 -13  -3  -3   40.90    4.90
  13   3   3   46.40    4.60
  13   3   3   38.50    6.10
 -14  -4  -3  155.68   12.50
 -14  -4  -3  172.68   12.60
  14   4   3  188.08   12.30
  14   4   3  168.78   14.50
 -15  -5  -3  987.60   66.89
  15   5   3 1021.40   69.49
  15   5   3 1086.49   67.19
  15   5   3 1123.69   66.49
 -16  -6  -3  148.39   12.80
  16   6   3  170.38   13.40
  16   6   3  156.68   15.50
 -17  -7  -3   98.19   10.20
  17   7   3   75.89   11.50
  -1   9  -4  153.78   19.70
   1  -9   4  141.29   13.70
  -2   8  -4   68.79   11.40
   2  -8   4   58.59    7.80
  -3   7  -4    9.60    5.40
   3  -7   4    1.00    3.20
  -4   6  -4  194.98   13.70
  -4   6  -4  148.99   15.50
   4  -6   4  191.28   13.50
   4  -6   4  176.08   12.20
  -5   5  -4 2815.42  174.58
  -5   5  -4 2781.02  177.18
   5  -5   4 2851.61  174.08
   5  -5   4 2804.62  174.58
  -6   4  -4  575.24   36.00
  -6   4  -4  514.25   33.70
   6  -4   4  498.45   33.20
   6  -4   4  484.75   33.30
  -7   3  -4  604.24   39.20
  -7   3  -4  569.54   40.20
  -7   3  -4  605.94   38.60
   7  -3   4  593.34   40.30
   7  -3   4  603.04   38.60
   7  -3   4  641.84   38.90
  -8   2  -4  902.51   65.29
  -8   2  -4 1011.20   65.09
  -8   2  -4 1134.59   64.39
   8  -2   4 1053.19   65.59
   8  -2   4 1052.29   64.79
   8  -2   4  986.40   64.19
  -9   1  -4  375.06   25.80
  -9   1  -4  389.56   25.80
  -9   1  -4  382.36   24.60
  -9   1  -4  385.26   24.80
   9  -1   4  352.86   25.30
   9  -1   4  361.66   24.50
   9  -1   4  410.06   25.90
 -10   0  -4  213.08   14.60
 -10   0  -4  228.28   14.70
 -10   0  -4  224.68   16.30
 -10   0  -4  214.78   15.60
  10   0   4  208.18   15.40
  10   0   4  211.18   15.80
 -11  -1  -4  727.73   46.40
 -11  -1  -4  704.93   46.80
 -11  -1  -4  712.33   47.90
  11   1   4  800.92   46.80
  11   1   4  702.73   47.90
  11   1   4  763.82   46.90
 -12  -2  -4  349.07   24.40
 -12  -2  -4  370.76   24.20
  12   2   4  365.76   26.00
  12   2   4  396.16   24.50
 -13  -3  -4  324.77   22.80
 -13  -3  -4  342.37   22.70
  13   3   4  345.37   24.80
  13   3   4  356.96   22.70
 -14  -4  -4  756.12   46.60
 -14  -4  -4  694.63   46.60
  14   4   4  763.32   46.40
  14   4   4  691.03   48.80
 -15  -5  -4  466.65   31.40
 -15  -5  -4  473.95   31.30
  15   5   4  497.15   31.20
  15   5   4  445.86   33.70
 -16  -6  -4  212.48   17.50
  16   6   4  251.67   17.40
  16   6   4  207.98   19.70
 -17  -7  -4  322.97   21.50
  17   7   4  236.58   24.00
  -1   9  -5    7.90    9.50
   1  -9   5    2.40    6.00
  -2   8  -5  194.08   18.80
   2  -8   5  180.48   15.00
  -3   7  -5    7.10    6.70
   3  -7   5   20.80    4.40
   3  -7   5   21.90    3.10
  -4   6  -5  119.99   11.70
  -4   6  -5  111.79   12.40
   4  -6   5  123.59   10.00
   4  -6   5  115.09    9.10
  -5   5  -5   48.10    6.60
   5  -5   5   48.90    6.00
   5  -5   5   63.49    5.80
  -6   4  -5    1.60    3.50
  -6   4  -5    3.50    3.30
   6  -4   5    0.60    2.10
   6  -4   5   -1.00    1.60
  -7   3  -5   14.00    3.40
  -7   3  -5   13.20    3.90
  -7   3  -5   14.50    3.90
   7  -3   5    9.40    2.60
   7  -3   5   12.40    2.70
  -8   2  -5  226.78   16.70
  -8   2  -5  233.98   15.20
  -8   2  -5  201.58   16.20
   8  -2   5  218.48   16.80
   8  -2   5  230.48   15.70
   8  -2   5  203.28   14.90
  -9   1  -5  561.94   34.30
  -9   1  -5  584.44   35.90
  -9   1  -5  531.45   35.60
  -9   1  -5  605.74   34.60
   9  -1   5  491.75   35.10
   9  -1   5  451.85   35.30
   9  -1   5  524.85   34.20
 -10   0  -5    1.10    2.30
 -10   0  -5    3.10    2.20
 -10   0  -5    2.40    1.50
  10   0   5   -2.60    2.80
  10   0   5   -0.90    2.00
 -11  -1  -5  262.97   19.20
 -11  -1  -5  294.07   18.60
 -11  -1  -5  274.27   18.70
  11   1   5  272.37   20.20
  11   1   5  292.37   19.50
 -12  -2  -5  255.17   18.60
 -12  -2  -5  281.27   18.10
  12   2   5  282.57   18.80
  12   2   5  257.57   20.00
 -13  -3  -5 1027.90   68.59
 -13  -3  -5 1152.18   68.49
  13   3   5 1166.68   68.79
  13   3   5  997.40   70.49
 -14  -4  -5  487.05   31.00
 -14  -4  -5  457.15   31.20
  14   4   5  460.95   31.20
  14   4   5  490.25   33.80
 -15  -5  -5   39.00    5.40
 -15  -5  -5   43.70    6.70
  15   5   5   44.00    7.80
 -16  -6  -5  459.95   32.00
  16   6   5  428.46   34.60
  16   6   5  513.95   32.50
 -17  -7  -5   43.40    6.90
  17   7   5   26.70    9.70
  -1   9  -6   -3.90    8.90
   1  -9   6    0.30    6.60
  -2   8  -6  891.41   57.69
   2  -8   6  746.33   52.79
  -3   7  -6   79.09   10.70
   3  -7   6   72.19    8.00
   3  -7   6   63.89    6.90
  -4   6  -6 1423.26   93.49
  -4   6  -6 1417.26   95.59
   4  -6   6 1542.85   92.79
   4  -6   6 1502.35   92.29
  -5   5  -6  214.08   17.40
  -5   5  -6  182.98   16.40
   5  -5   6  213.38   14.70
   5  -5   6  207.98   14.90
  -6   4  -6   40.10    6.30
  -6   4  -6   50.69    7.50
   6  -4   6   47.40    5.50
   6  -4   6   48.90    5.30
  -7   3  -6    4.60    3.40
  -7   3  -6   -1.80    3.50
   7  -3   6    0.30    2.20
   7  -3   6   -1.50    1.80
  -8   2  -6 2887.51  172.88
  -8   2  -6 2864.91  174.78
  -8   2  -6 2776.82  174.68
   8  -2   6 2698.13  173.78
   8  -2   6 2723.73  172.88
  -9   1  -6    4.10    2.50
  -9   1  -6    7.80    2.90
  -9   1  -6    6.60    2.10
   9  -1   6    2.60    2.40
   9  -1   6    2.70    4.40
 -10   0  -6 1951.00  130.79
 -10   0  -6 2266.67  129.89
 -10   0  -6 2127.09  129.79
  10   0   6 2193.88  131.09
  10   0   6 1910.01  131.09
 -11  -1  -6   19.20    3.80
 -11  -1  -6   31.10    4.30
  11   1   6   29.00    4.90
  11   1   6   20.30    4.50
 -12  -2  -6   15.90    2.90
 -12  -2  -6   11.80    3.10
  12   2   6   16.50    4.20
  12   2   6   10.00    3.70
 -13  -3  -6   36.00    4.60
 -13  -3  -6   26.70    4.50
  13   3   6   31.40    5.40
  13   3   6   35.40    6.10
 -14  -4  -6  279.27   19.90
 -14  -4  -6  285.27   19.30
  14   4   6  281.27   20.30
  14   4   6  268.77   21.80
 -15  -5  -6   59.49    7.90
 -15  -5  -6   49.60    6.70
  15   5   6   46.00    8.60
 -16  -6  -6  105.99   12.70
 -16  -6  -6  140.59   11.10
  16   6   6  112.49   14.40
 -17  -7  -6  241.08   18.90
  17   7   6  222.88   23.00
  -1   9  -7   27.70   10.70
   1  -9   7   13.30    6.10
  -2   8  -7   36.20    9.20
   2  -8   7   41.20    7.10
   3  -7   7   17.20    4.60
   3  -7   7   21.00    3.30
  -4   6  -7  390.66   29.00
   4  -6   7  357.46   25.30
   4  -6   7  386.46   25.80
  -5   5  -7   13.90    5.70
   5  -5   7   30.40    4.40
   5  -5   7   30.60    4.80
  -6   4  -7  335.47   22.80
   6  -4   7  274.27   20.60
   6  -4   7  285.47   20.20
  -7   3  -7  412.16   28.70
   7  -3   7  392.46   26.40
   7  -3   7  397.26   27.30
  -8   2  -7  327.07   20.70
  -8   2  -7  274.27   21.70
   8  -2   7  297.67   19.80
   8  -2   7  276.77   20.80
  -9   1  -7  417.86   26.80
  -9   1  -7  383.36   28.20
  -9   1  -7  417.56   26.80
   9  -1   7  413.96   28.30
 -10   0  -7    3.90    2.80
 -10   0  -7    0.30    1.80
 -10   0  -7    2.80    3.10
  10   0   7    2.70    2.80
 -11  -1  -7  155.38   12.70
 -11  -1  -7  167.28   11.50
  11   1   7  156.28   13.60
 -12  -2  -7  234.68   17.50
 -12  -2  -7  252.97   16.60
  12   2   7  235.88   18.90
 -13  -3  -7  488.55   32.20
 -13  -3  -7  460.85   33.00
  13   3   7  551.64   35.60
 -14  -4  -7  235.88   19.50
 -14  -4  -7  290.87   18.90
  14   4   7  293.87   22.40
 -15  -5  -7    3.20    4.40
 -15  -5  -7    6.70    3.30
  15   5   7   -3.90    5.10
 -16  -6  -7  464.25   28.50
 -16  -6  -7  363.46   30.20
  16   6   7  400.76   39.70
  -2   8  -8   12.50   10.00
   2  -8   8   20.20    5.90
  -3   7  -8  206.58   19.50
   3  -7   8  175.18   13.90
  -4   6  -8   37.90    8.40
   4  -6   8   52.49    7.00
   4  -6   8   58.39    6.60
  -5   5  -8   24.90    6.40
   5  -5   8   23.20    4.20
   5  -5   8   23.40    4.30
  -6   4  -8   55.09    8.80
   6  -4   8   54.29    6.40
   6  -4   8   54.79    6.70
  -7   3  -8   25.10    5.60
   7  -3   8   28.70    4.10
   7  -3   8   25.20    4.80
  -8   2  -8  315.67   22.30
   8  -2   8  297.27   19.90
   8  -2   8  265.57   21.00
  -9   1  -8  202.08   13.90
  -9   1  -8  177.38   15.80
   9  -1   8  211.08   16.00
 -10   0  -8 3656.83  213.38
 -10   0  -8 3158.08  211.08
  10   0   8 3438.66  213.58
 -11  -1  -8   -0.50    2.00
 -11  -1  -8    7.20    3.50
  11   1   8    7.00    3.40
 -12  -2  -8 2264.37  129.39
 -12  -2  -8 1890.31  130.49
  12   2   8 2083.39  132.29
 -13  -3  -8  110.19   10.70
 -13  -3  -8  116.89    9.20
  13   3   8  109.39   12.30
 -14  -4  -8   17.20    5.00
 -14  -4  -8   20.80    3.70
  14   4   8   10.70    5.60
 -15  -5  -8  315.47   25.10
 -15  -5  -8  376.76   23.90
 -16  -6  -8   28.40    6.00
  16   6   8   36.40    9.70
  -2   8  -9   10.90    8.70
   2  -8   9   21.80    6.90
  -3   7  -9  585.34   43.20
   3  -7   9  561.54   39.50
   3  -7   9  631.24   39.60
  -4   6  -9  166.88   17.00
   4  -6   9  174.48   14.00
   4  -6   9  167.58   13.90
  -5   5  -9  328.37   25.20
   5  -5   9  347.67   23.40
   5  -5   9  296.37   22.40
  -6   4  -9  281.77   23.30
   6  -4   9  303.67   21.70
   6  -4   9  298.47   20.60
  -7   3  -9  297.87   23.50
   7  -3   9  327.47   22.60
   7  -3   9  295.57   21.00
  -8   2  -9   33.40    6.40
   8  -2   9   21.70    5.20
   8  -2   9   27.30    4.10
  -9   1  -9 1158.68   84.59
  -9   1  -9 1455.95   82.79
   9  -1   9 1336.07   84.99
 -10   0  -9    3.20    3.90
 -10   0  -9    2.00    2.20
  10   0   9   -1.80    3.20
 -11  -1  -9   16.70    4.70
 -11  -1  -9   21.20    3.30
  11   1   9   10.70    4.20
 -12  -2  -9   39.00    4.70
 -12  -2  -9   23.60    5.30
  12   2   9   26.00    7.10
 -13  -3  -9  160.88   13.90
 -13  -3  -9  182.78   12.50
  13   3   9  148.29   15.60
 -14  -4  -9   23.10    4.10
 -14  -4  -9   13.20    5.20
 -15  -5  -9   70.69    9.80
 -15  -5  -9   72.69    8.50
  15   5   9   64.69   11.50
  -3   7 -10  563.54   40.40
   3  -7  10  507.85   35.90
   3  -7  10  519.25   35.80
  -4   6 -10   14.20    6.60
   4  -6  10    9.80    4.40
   4  -6  10   11.50    4.40
  -5   5 -10   -4.60    5.70
   5  -5  10    3.50    3.70
   5  -5  10    6.70    3.70
  -6   4 -10  489.45   36.30
   6  -4  10  560.74   35.60
   6  -4  10  483.75   33.70
  -7   3 -10  405.16   33.40
   7  -3  10  539.65   33.30
   7  -3  10  459.55   30.90
  -8   2 -10    6.40    2.80
  -8   2 -10    7.00    4.80
   8  -2  10    6.80    4.00
  -9   1 -10  139.59   10.40
  -9   1 -10  127.99   13.10
   9  -1  10  136.69   13.10
 -10   0 -10   73.89   10.00
 -10   0 -10   80.29    7.00
  10   0  10   81.09    9.80
 -11  -1 -10   35.00    6.70
 -11  -1 -10   43.00    4.90
  11   1  10   28.00    6.60
 -12  -2 -10 1051.69   71.59
 -12  -2 -10 1168.68   69.69
  12   2  10 1091.39   73.29
 -13  -3 -10  207.28   17.60
 -13  -3 -10  241.28   15.60
  13   3  10  188.88   19.00
 -14  -4 -10    5.60    5.20
 -14  -4 -10    2.60    3.30
  14   4  10    0.00    6.90
 -15  -5 -10  309.77   25.50
  15   5  10  362.56   29.90
  -3   7 -11   98.09   16.40
   3  -7  11  102.49   12.50
   3  -7  11  123.39   12.30
  -4   6 -11   20.80    7.60
   4  -6  11   25.30    5.90
   4  -6  11   22.50    5.60
  -5   5 -11   77.59   12.30
   5  -5  11  105.19   11.10
   5  -5  11   98.79    9.90
  -6   4 -11   77.09   11.90
   6  -4  11   71.69    8.80
   6  -4  11   99.89   10.70
  -7   3 -11  174.58   18.50
   7  -3  11  240.38   16.40
   7  -3  11  235.88   18.30
  -8   2 -11  364.56   28.80
  -8   2 -11  407.16   25.90
   8  -2  11  383.56   28.70
  -9   1 -11  201.58   17.90
  -9   1 -11  211.58   14.80
   9  -1  11  210.38   18.10
 -10   0 -11   -3.10    2.60
 -10   0 -11    6.50    5.00
  10   0  11   15.10    6.20
 -11  -1 -11  805.62   60.49
 -11  -1 -11 1025.70   58.39
  11   1  11  923.61   66.89
 -12  -2 -11   54.49    6.60
 -12  -2 -11   65.39    9.90
  12   2  11   57.79   10.20
 -13  -3 -11    0.50    3.00
 -13  -3 -11   -1.20    5.40
  13   3  11   -0.30    6.60
 -14  -4 -11  610.74   37.10
 -14  -4 -11  498.85   39.10
  14   4  11  585.74   42.70
  -4   6 -12   84.39   12.70
   4  -6  12   56.79    9.00
  -5   5 -12   21.50    7.50
   5  -5  12   19.90    5.50
   6  -4  12  279.57   20.30
  -7   3 -12   27.20    7.60
  -7   3 -12   36.10    4.90
   7  -3  12   55.49    6.90
  -8   2 -12  603.94   36.30
  -8   2 -12  499.25   39.80
   8  -2  12  551.84   40.20
  -9   1 -12  394.06   23.40
  -9   1 -12  264.17   31.20
   9  -1  12  337.57   26.90
 -10   0 -12   11.80    3.30
  10   0  12   17.00    6.40
 -11  -1 -12   31.10    4.10
  11   1  12   25.20    8.30
 -12  -2 -12   26.00    4.20
 -12  -2 -12   18.90   11.10
  12   2  12   27.70    7.60
 -13  -3 -12   30.80    4.80
 -13  -3 -12   21.40    7.60
  13   3  12   34.10   11.30
  -5   5 -13  183.58   20.20
   5  -5  13  201.38   18.70
   5  -5  13  214.48   16.70
  -6   4 -13  304.47   27.70
   6  -4  13  299.47   22.70
   6  -4  13  347.67   26.00
  -7   3 -13    2.90    3.70
  -7   3 -13   -1.60    8.90
   7  -3  13    4.90    6.40
  -8   2 -13  214.88   20.50
  -8   2 -13  200.28   14.30
   8  -2  13  165.48   18.40
  -9   1 -13  102.99   13.90
  -9   1 -13  105.99    9.30
   9  -1  13  107.89   14.10
 -10   0 -13   -0.90    6.30
 -10   0 -13   -1.20    3.00
  10   0  13   16.40    7.40
 -11  -1 -13   25.50    4.20
 -11  -1 -13   14.50    8.10
  11   1  13   15.50    8.30
 -12  -2 -13  249.18   22.50
  12   2  13  252.77   23.80
  -7   3 -14  286.87   26.50
   7  -3  14  327.27   28.10
  -8   2 -14  712.23   50.99
   8  -2  14  687.63   50.89
  -9   1 -14   -0.60   10.50
   9  -1  14   -2.60    7.90
 -10   0 -14  797.02   58.59
  10   0  14  883.81   59.29
 -11  -1 -14   23.40   10.80
  11   1  14   18.10   11.30
  -9   3  15  320.57   29.90
   9  -3 -15  263.47   23.20
 -10   2  15  788.62   56.89
  10  -2 -15  771.12   53.29
 -11   1  15  137.99   20.00
  11  -1 -15  120.89   13.30
 -12   0  15   -1.20    9.40
  12   0 -15   -8.70    5.40
 -13  -1  15  317.97   26.20
  13   1 -15  248.68   22.10
 -14  -2  15   31.10    9.40
  14   2 -15   19.20    7.20
  -8   4  14    1.40    8.60
   8  -4 -14    3.80    7.10
  -9   3  14   31.00    9.30
   9  -3 -14    8.50    6.80
 -10   2  14 2588.94  156.88
  10  -2 -14 2285.37  153.28
 -11   1  14  248.28   21.40
  11  -1 -14  174.68   17.20
 -12   0  14   78.29   12.10
  12   0 -14   54.69    8.30
 -13  -1  14   33.60    9.80
  13   1 -14   34.90    7.40
 -14  -2  14  220.08   21.30
  14   2 -14  189.38   17.20
 -15  -3  14   44.60   13.10
  15   3 -14   52.59    8.50
  -7   5  13    2.50    7.50
   7  -5 -13   17.70    8.50
  -8   4  13  131.79   19.80
   8  -4 -13   91.49   11.40
   9  -3 -13   28.70    7.10
  10  -2 -13  414.66   29.70
 -11   1  13   45.10   11.60
  11  -1 -13   30.80    7.20
 -12   0  13    3.80    5.30
  12   0 -13    5.50    4.00
 -13  -1  13   23.50    7.40
  13   1 -13   13.40    5.60
 -14  -2  13   95.49   13.70
  14   2 -13   78.99    9.80
 -15  -3  13  510.75   36.40
  15   3 -13  441.06   32.70
 -16  -4  13  557.94   40.20
  16   4 -13  503.25   37.30
  -6   6  12   10.30    7.80
   6  -6 -12    0.00    8.20
  -7   5  12   28.90    8.00
   7  -5 -12   12.40    6.20
  -8   4  12  484.05   36.60
   8  -4 -12  503.95   35.00
  -9   3  12  189.48   17.00
   9  -3 -12  145.39   15.40
 -10   2  12  153.58   14.90
  10  -2 -12  122.49   11.70
 -11   1  12    2.30    5.40
  11  -1 -12   11.20    4.20
 -12   0  12   35.10    6.80
  12   0 -12   18.00    4.50
 -13  -1  12   25.50    6.90
  13   1 -12   26.90    5.00
  14   2 -12  430.26   29.80
 -15  -3  12  514.25   38.20
 -15  -3  12  506.65   33.00
  15   3 -12  519.95   34.90
 -16  -4  12  -11.40    6.60
 -16  -4  12    8.50    3.90
  16   4 -12    6.60    4.20
 -17  -5  12   86.29   13.20
 -17  -5  12   74.09    9.60
  17   5 -12   86.39   10.00
  -5   7  11  515.35   40.10
   5  -7 -11  611.64   41.50
  -6   6  11   13.20    7.20
   6  -6 -11   21.40    7.10
  -7   5  11    8.60    6.10
   7  -5 -11   19.00    6.00
  -8   4  11   -3.20    5.00
   8  -4 -11    2.50    4.40
  -9   3  11  625.54   40.90
   9  -3 -11  527.05   38.50
 -10   2  11  123.39   13.50
  10  -2 -11  130.69   11.40
 -11   1  11   23.20    5.80
  11  -1 -11   26.30    5.00
 -12   0  11    3.10    4.00
  12   0 -11    5.30    3.40
 -13  -1  11  128.79    8.70
 -13  -1  11  136.59   13.60
  13   1 -11  130.79   11.50
 -14  -2  11    3.00    2.90
 -14  -2  11    3.80    4.70
  14   2 -11    2.40    3.20
 -15  -3  11   87.29    7.50
 -15  -3  11   75.99   11.80
  15   3 -11   90.99    8.80
 -16  -4  11   20.30    7.40
 -16  -4  11   32.00    4.50
  16   4 -11   24.90    5.00
 -17  -5  11   -3.20    6.70
 -17  -5  11    8.80    4.00
  17   5 -11    0.00    4.10
  -5   7  10    1.10    6.00
   5  -7 -10    9.10    6.10
   5  -7 -10   -3.70    2.70
  -6   6  10    8.60    5.90
   6  -6 -10    6.90    5.20
  -7   5  10  191.88   17.70
   7  -5 -10  215.48   17.50
  -8   4  10  149.29   14.50
   8  -4 -10  165.78   10.30
   8  -4 -10  136.99   13.10
  -9   3  10  689.03   46.40
   9  -3 -10  666.23   44.90
 -10   2  10    2.70    4.10
  10  -2 -10    4.50    3.30
 -11   1  10  128.69   12.70
  11  -1 -10  122.39   10.60
 -12   0  10  125.89   12.30
  12   0 -10  110.49    9.80
 -13  -1  10   90.29    7.10
 -13  -1  10   84.89   11.10
  13   1 -10   96.39    9.30
  13   1 -10  114.79    7.30
 -14  -2  10 2256.67  146.79
  14   2 -10 2191.48  144.09
  14   2 -10 2465.55  142.59
 -15  -3  10 1009.80   68.79
 -15  -3  10  983.00   64.79
  15   3 -10 1107.29   66.19
 -16  -4  10  173.88   12.90
 -16  -4  10  153.68   15.90
  16   4 -10  181.68   13.70
 -17  -5  10  297.87   20.20
 -17  -5  10  280.97   23.90
  17   5 -10  272.17   20.40
 -18  -6  10  485.95   36.20
  18   6 -10  467.55   32.20
   4  -8  -9  132.89   18.90
   4  -8  -9  109.49    9.70
  -5   7   9   -0.50    4.90
   5  -7  -9    3.30    2.60
   5  -7  -9    9.30    6.30
  -6   6   9   25.80    5.90
   6  -6  -9   25.80    3.30
   6  -6  -9   18.30    6.60
  -7   5   9 1177.18   79.79
   7  -5  -9 1261.57   76.89
   7  -5  -9 1263.87   79.89
  -8   4   9 1090.39   71.49
  -8   4   9 1154.98   75.09
   8  -4  -9 1079.59   74.09
   8  -4  -9 1286.27   71.69
  -9   3   9   98.89    6.70
  -9   3   9   85.69    6.40
  -9   3   9   98.39   10.70
   9  -3  -9  111.59    9.70
 -10   2   9   35.20    6.20
  10  -2  -9   41.90    6.10
 -11   1   9  395.76   28.70
  11  -1  -9  385.96   26.50
 -12   0   9   -0.20    3.40
 -12   0   9    1.10    1.90
 -12   0   9    0.50    1.10
  12   0  -9   -0.50    2.20
 -13  -1   9  973.00   61.79
 -13  -1   9 1000.40   65.69
  13   1  -9  887.41   63.19
  13   1  -9 1111.69   61.89
 -14  -2   9  315.97   24.40
 -14  -2   9  309.07   20.60
  14   2  -9  339.47   22.00
  14   2  -9  309.57   20.60
 -15  -3   9  679.43   46.40
 -15  -3   9  643.54   42.50
  15   3  -9  689.43   43.50
 -16  -4   9   24.10    7.10
 -16  -4   9   51.19    5.80
  16   4  -9   42.30    5.80
 -17  -5   9   35.50    7.80
 -17  -5   9   31.80    5.10
  17   5  -9   40.30    5.60
 -18  -6   9   41.30    8.20
  18   6  -9   19.70    4.90
   4  -8  -8  223.58   20.80
   4  -8  -8  216.38   15.90
  -5   7   8   43.50    6.70
   5  -7  -8   71.79   10.50
   5  -7  -8   59.69    5.90
  -6   6   8   70.39    9.20
   6  -6  -8   81.49    6.70
   6  -6  -8   81.69   10.00
  -7   5   8   50.39    7.30
  -7   5   8   40.30    5.60
   7  -5  -8   46.20    6.80
   7  -5  -8   43.10    4.40
  -8   4   8 2163.78  139.49
  -8   4   8 2205.48  142.29
   8  -4  -8 2327.97  141.99
   8  -4  -8 2336.07  139.59
  -9   3   8  632.44   40.70
  -9   3   8  526.95   37.10
   9  -3  -8  543.35   39.30
   9  -3  -8  685.53   37.40
 -10   2   8  188.58   14.50
 -10   2   8  147.19   10.40
 -10   2   8  167.28   10.40
  10  -2  -8  161.58   12.70
 -11   1   8  186.18   15.30
 -11   1   8  186.28   11.80
 -11   1   8  178.48   11.60
  11  -1  -8  184.88   13.70
 -12   0   8  201.48   13.30
 -12   0   8  213.28   16.90
 -12   0   8  192.68   13.10
  12   0  -8  212.38   14.80
 -13  -1   8   -0.20    1.60
 -13  -1   8   -0.70    3.40
  13   1  -8    2.50    1.80
  13   1  -8    4.00    2.50
 -14  -2   8  192.28   15.30
 -14  -2   8  159.88   11.50
 -14  -2   8  163.98   15.10
  14   2  -8  147.59   11.40
  14   2  -8  189.48   12.60
 -15  -3   8  251.07   20.60
 -15  -3   8  275.47   23.50
 -15  -3   8  251.77   17.50
  15   3  -8  264.87   18.00
 -16  -4   8   33.50    4.60
 -16  -4   8   15.10    5.30
  16   4  -8   25.80    4.10
 -17  -5   8   17.60    6.70
 -17  -5   8   23.10    4.40
  17   5  -8   23.50    4.00
 -18  -6   8   -2.80    6.70
 -18  -6   8   -2.70    4.40
  18   6  -8    1.30    3.60
 -19  -7   8   29.20    6.80
 -19  -7   8   14.90    8.10
  -3   9   7  160.38   22.20
   3  -9  -7  158.58   13.40
  -4   8   7  184.78   20.50
   4  -8  -7  178.78   13.90
   4  -8  -7  196.38   18.10
  -5   7   7    1.30    3.60
   5  -7  -7    5.00    2.60
   5  -7  -7    2.60    5.60
  -6   6   7   13.00    3.80
   6  -6  -7    5.50    2.30
   6  -6  -7    6.00    4.70
   6  -6  -7    9.00    5.00
  -7   5   7  287.47   22.00
  -7   5   7  312.67   20.70
   7  -5  -7  323.97   20.40
   7  -5  -7  336.17   22.80
   7  -5  -7  293.27   22.40
  -8   4   7 1679.63  110.89
  -8   4   7 1770.72  108.79
   8  -4  -7 1730.63  110.89
   8  -4  -7 1861.51  109.09
   8  -4  -7 1733.03  110.79
  -9   3   7   55.09    4.70
  -9   3   7   46.60    6.80
   9  -3  -7   66.49    4.80
   9  -3  -7   49.40    6.00
   9  -3  -7   51.89    7.50
 -10   2   7  340.07   21.10
 -10   2   7  292.87   21.10
 -10   2   7  335.27   24.10
  10  -2  -7  368.96   22.90
 -11   1   7    3.90    1.20
 -11   1   7    4.80    2.90
 -11   1   7    0.50    4.10
 -11   1   7    1.40    1.60
  11  -1  -7    0.50    1.90
 -12   0   7   -0.90    2.80
 -12   0   7   -1.60    3.90
 -12   0   7    0.60    1.30
 -12   0   7    1.60    1.50
  12   0  -7    1.50    2.00
 -13  -1   7  827.02   55.99
 -13  -1   7  781.32   52.79
 -13  -1   7  894.31   54.69
  13   1  -7  792.52   53.69
  13   1  -7  938.11   52.89
 -14  -2   7  454.65   28.60
 -14  -2   7  394.26   26.40
 -14  -2   7  410.06   29.60
  14   2  -7  397.36   26.90
  14   2  -7  404.96   26.30
 -15  -3   7   23.20    5.40
 -15  -3   7   18.10    6.30
 -15  -3   7   17.60    3.20
  15   3  -7   17.50    3.10
 -16  -4   7  187.48   17.10
 -16  -4   7  175.78   13.60
 -16  -4   7  181.58   16.50
  16   4  -7  198.08   13.40
 -17  -5   7  322.17   24.50
 -17  -5   7  290.97   21.40
  17   5  -7  313.27   20.90
 -18  -6   7   90.89    9.50
 -18  -6   7   82.29   12.10
  18   6  -7   79.59    7.90
 -19  -7   7   89.19   11.60
  -3   9   6   21.90   10.70
   3  -9  -6   13.30    4.40
  -4   8   6   -0.60    8.40
   4  -8  -6    7.60    3.10
  -5   7   6   80.89    8.70
   5  -7  -6   85.99    7.60
   5  -7  -6   81.19   10.70
  -6   6   6 1615.44   96.79
  -6   6   6 1395.36   96.19
   6  -6  -6 1581.64   95.69
   6  -6  -6 1557.14   97.99
   6  -6  -6 1518.05   96.49
  -7   5   6  580.64   40.10
  -7   5   6  589.24   39.10
   7  -5  -6  605.64   38.90
   7  -5  -6  617.04   40.90
   7  -5  -6  677.43   40.50
  -8   4   6   72.79    6.40
  -8   4   6   80.59    7.60
   8  -4  -6   71.69    7.60
   8  -4  -6   66.59    8.20
   8  -4  -6   71.79    5.80
  -9   3   6   93.39    7.20
  -9   3   6   91.39    9.70
  -9   3   6  103.49    9.10
   9  -3  -6   98.59    9.70
   9  -3  -6   95.79    8.50
   9  -3  -6   93.19    7.00
 -10   2   6  152.38   12.10
 -10   2   6  151.38    9.90
 -10   2   6  134.19   10.10
 -10   2   6  141.49   12.30
 -10   2   6  152.98   12.50
  10  -2  -6  137.89   11.10
  10  -2  -6  149.79    9.80
 -11   1   6  120.89    9.20
 -11   1   6  131.99   11.90
 -11   1   6  138.29   11.70
 -11   1   6  130.19   11.10
 -11   1   6  150.88    9.50
  11  -1  -6  146.99   10.40
 -12   0   6 2316.37  148.49
 -12   0   6 2476.35  151.48
 -12   0   6 2134.09  148.49
  12   0  -6 2709.43  149.49
 -13  -1   6   91.59    8.50
 -13  -1   6   87.09    8.90
 -13  -1   6   98.39    7.00
  13   1  -6   81.29    6.60
 -14  -2   6  421.06   24.60
 -14  -2   6  358.56   27.10
 -14  -2   6  389.76   25.80
  14   2  -6  334.77   24.20
  14   2  -6  383.16   24.80
 -15  -3   6   74.39    6.40
 -15  -3   6   62.89    8.70
 -15  -3   6   76.29    9.60
  15   3  -6   73.79    6.40
 -16  -4   6    2.60    2.60
 -16  -4   6    7.60    5.10
 -16  -4   6   -4.80    3.80
 -17  -5   6   65.49    9.90
 -17  -5   6   81.99    7.80
  17   5  -6   73.89    6.70
 -18  -6   6 1264.57   81.79
 -18  -6   6 1316.87   84.69
  18   6  -6 1281.47   80.69
 -19  -7   6  387.66   30.60
 -19  -7   6  399.36   28.20
  -3   9   5  228.78   24.00
   3  -9  -5  206.68   16.40
  -4   8   5    6.60    6.50
   4  -8  -5    6.80    3.40
  -5   7   5   24.50    7.50
  -5   7   5   23.00    3.60
   5  -7  -5   34.60    4.60
  -6   6   5  104.39    9.40
  -6   6   5   86.59    8.40
   6  -6  -5  100.09    8.00
   6  -6  -5   94.49   10.30
  -7   5   5  217.58   16.40
  -7   5   5  223.78   16.30
  -7   5   5  225.88   16.60
   7  -5  -5  232.78   15.40
   7  -5  -5  238.08   17.50
  -8   4   5 1605.14   94.49
  -8   4   5 1473.75   94.39
  -8   4   5 1471.65   93.29
   8  -4  -5 1444.96   94.59
   8  -4  -5 1501.75   93.19
  -9   3   5   92.39    7.10
  -9   3   5   79.49    9.40
  -9   3   5   92.79    9.00
   9  -3  -5   94.69    7.90
   9  -3  -5   94.39    6.90
 -10   2   5   40.30    4.00
 -10   2   5   33.30    5.30
 -10   2   5   43.20    5.40
 -10   2   5   40.10    5.70
  10  -2  -5   30.10    3.60
  10  -2  -5   38.40    4.50
 -11   1   5  587.24   36.10
 -11   1   5  589.94   38.10
 -11   1   5  494.25   37.00
 -11   1   5  604.54   36.10
 -11   1   5  594.54   38.40
  11  -1  -5  565.14   36.70
 -12   0   5    0.10    3.30
 -12   0   5    1.30    1.40
 -12   0   5    2.40    1.50
 -12   0   5    3.80    2.70
 -12   0   5   11.90    3.60
  12   0  -5    1.80    1.90
  12   0  -5   -0.20    1.40
 -13  -1   5  926.11   60.19
 -13  -1   5  986.90   60.59
 -13  -1   5  870.11   62.29
  13   1  -5  991.30   59.89
  13   1  -5 1014.80   60.19
 -14  -2   5    3.40    2.90
 -14  -2   5    0.90    2.90
 -14  -2   5    4.10    1.70
  14   2  -5    2.80    1.90
  14   2  -5    1.20    1.90
 -15  -3   5  150.28   14.20
 -15  -3   5  168.78   13.30
 -15  -3   5  163.78   12.00
  15   3  -5  182.68   11.70
 -16  -4   5   96.59    9.60
 -16  -4   5   99.69   11.00
 -16  -4   5   95.19    8.40
  16   4  -5   95.19    7.60
 -17  -5   5   35.90    6.50
 -17  -5   5   27.70    4.60
  17   5  -5   23.50    3.60
 -18  -6   5   92.89    9.60
 -18  -6   5   70.19   11.20
  18   6  -5   82.59    8.00
 -19  -7   5  141.69   15.40
 -19  -7   5  120.49   12.90
  -3   9   4   44.60   12.30
   3  -9  -4   43.20    6.40
  -4   8   4    8.10    8.90
   4  -8  -4    7.20    3.30
  -5   7   4   11.50    6.30
  -6   6   4  268.67   19.70
  -6   6   4  293.97   21.90
  -6   6   4  331.67   24.20
   6  -6  -4  306.77   20.40
   6  -6  -4  331.87   22.60
  -7   5   4 1569.84  104.59
  -7   5   4 1745.53  104.89
   7  -5  -4 1706.83  106.19
   7  -5  -4 1702.23  104.59
  -8   4   4  109.79    8.60
  -8   4   4   92.99    7.90
  -8   4   4   98.49    8.40
   8  -4  -4   89.19    8.30
   8  -4  -4   93.99    7.20
  -9   3   4  265.37   18.80
  -9   3   4  244.98   18.30
  -9   3   4  286.87   18.60
  -9   3   4  263.07   17.40
   9  -3  -4  249.18   18.10
   9  -3  -4  265.17   17.20
 -10   2   4   14.10    3.30
 -10   2   4   10.20    2.30
 -10   2   4    7.00    3.10
 -10   2   4    5.90    2.90
  10  -2  -4    9.40    2.20
  10  -2  -4    9.80    2.00
 -11   1   4  181.08   13.20
 -11   1   4  223.88   14.20
 -11   1   4  196.38   14.90
 -11   1   4  201.68   13.20
 -11   1   4  181.08   14.80
  11  -1  -4  201.78   13.70
 -12   0   4 4270.77  258.37
 -12   0   4 4345.57  257.87
 -12   0   4 3613.64  255.77
 -12   0   4 4307.47  256.57
 -12   0   4 3964.40  255.97
  12   0  -4 4218.78  258.07
  12   0  -4 4144.49  256.07
  12   0  -4 4377.06  256.07
 -13  -1   4 1081.19   78.49
 -13  -1   4 1360.06   78.59
 -13  -1   4 1186.18   80.09
  13   1  -4 1225.58   80.49
  13   1  -4 1384.06   78.39
  13   1  -4 1306.67   78.19
 -14  -2   4  319.57   21.00
 -14  -2   4  342.47   21.30
  14   2  -4  323.47   23.50
  14   2  -4  319.87   20.50
  14   2  -4  297.77   20.80
 -15  -3   4  288.67   19.80
 -15  -3   4  304.17   20.00
  15   3  -4  301.07   22.40
  15   3  -4  301.67   19.10
 -16  -4   4 1167.68   81.09
 -16  -4   4 1296.77   81.89
  16   4  -4 1388.06   80.89
  16   4  -4 1367.26   84.99
 -17  -5   4  355.96   25.30
 -17  -5   4  371.86   27.90
  17   5  -4  339.27   27.90
  17   5  -4  371.06   23.90
  17   5  -4  405.76   24.00
 -18  -6   4   48.30    9.70
 -18  -6   4   64.89    7.90
  18   6  -4   51.19    6.00
 -19  -7   4  382.86   29.50
 -19  -7   4  358.26   26.60
  -3   9   3   35.10   11.40
   3  -9  -3   43.20    6.60
  -4   8   3    7.30    7.80
   4  -8  -3    4.40    3.40
  -5   7   3  905.71   61.39
   5  -7  -3  894.11   57.29
  -6   6   3  401.66   30.30
   6  -6  -3  405.76   26.60
  -7   5   3  482.45   30.40
  -7   5   3  463.05   33.20
  -7   5   3  453.35   29.90
   7  -5  -3  482.15   30.40
  -8   4   3   83.49    7.20
  -8   4   3   84.09    7.20
  -8   4   3   90.09    7.30
   8  -4  -3   71.99    7.30
   8  -4  -3   84.39    6.50
  -9   3   3  885.71   56.69
  -9   3   3  862.21   56.79
  -9   3   3  877.21   56.49
  -9   3   3  918.41   55.99
   9  -3  -3  908.11   56.69
 -10   2   3   20.40    2.90
 -10   2   3   14.80    3.00
 -10   2   3   13.00    3.80
 -10   2   3   19.60    3.60
  10  -2  -3   14.80    2.50
 -11   1   3 1897.71  113.59
 -11   1   3 1915.71  112.69
 -11   1   3 1728.73  112.29
 -11   1   3 1740.93  112.09
  11  -1  -3 1860.71  113.99
  11  -1  -3 1729.33  112.29
 -12   0   3    1.90    1.70
 -12   0   3    0.00    1.30
 -12   0   3    1.30    1.80
 -12   0   3    1.60    2.70
  12   0  -3   -0.10    1.20
  12   0  -3    0.60    1.90
  12   0  -3    3.80    1.70
 -13  -1   3 1713.43  107.59
 -13  -1   3 1806.42  109.39
  13   1  -3 1738.33  107.09
  13   1  -3 1709.83  109.59
  13   1  -3 1706.33  107.49
 -14  -2   3   15.30    2.80
 -14  -2   3   19.90    2.90
 -14  -2   3   13.40    4.80
  14   2  -3   17.00    1.80
  14   2  -3   13.70    2.60
  14   2  -3    8.60    3.50
 -15  -3   3   47.30    4.90
  15   3  -3   32.70    6.10
 -16  -4   3   78.69    7.50
  16   4  -3   88.89    5.80
  16   4  -3   83.09    5.70
  16   4  -3   72.29    9.70
 -17  -5   3 1254.97   78.59
  17   5  -3 1195.98   81.19
  17   5  -3 1267.07   76.89
 -18  -6   3   74.09    9.10
  18   6  -3   88.99   12.00
 -19  -7   3  143.29   16.20
 -19  -7   3  137.19   13.30
  -3   9   2   13.20   10.00
   3  -9  -2    7.60    4.70
  -4   8   2   42.90    9.60
   4  -8  -2   55.69    6.60
  -5   7   2  407.56   30.20
   5  -7  -2  367.86   25.70
  -6   6   2   68.19    9.70
   6  -6  -2   74.59    6.90
  -7   5   2 1290.37   80.49
  -7   5   2 1240.98   80.49
  -7   5   2 1361.96   84.69
   7  -5  -2 1331.37   81.59
  -8   4   2  134.99   10.30
  -8   4   2  146.39   12.00
  -8   4   2  138.99   10.00
  -8   4   2  150.08   10.10
   8  -4  -2  116.89    9.70
  -9   3   2  344.87   23.70
  -9   3   2  350.46   23.00
  -9   3   2  326.37   22.60
  -9   3   2  347.27   22.30
  -9   3   2  338.47   22.90
   9  -3  -2  342.27   22.80
   9  -3  -2  333.67   22.10
 -10   2   2 1762.42  107.89
 -10   2   2 1591.14  108.49
 -10   2   2 1720.03  107.49
 -10   2   2 1902.11  108.49
  10  -2  -2 1727.63  108.29
  10  -2  -2 1723.43  107.79
  10  -2  -2 1701.13  107.39
 -11   1   2  215.48   14.80
 -11   1   2  185.28   13.60
 -11   1   2  188.58   13.30
 -11   1   2  207.58   13.60
  11  -1  -2  197.68   14.60
  11  -1  -2  199.08   13.40
 -12   0   2 1409.26   83.19
 -12   0   2 1227.98   83.29
 -12   0   2 1250.77   83.09
 -12   0   2 1426.96   84.89
  12   0  -2 1285.67   82.99
  12   0  -2 1386.06   83.29
  12   0  -2 1394.26   84.89
 -13  -1   2   54.19    4.80
 -13  -1   2   48.70    4.20
 -13  -1   2   60.29    4.30
 -13  -1   2   65.79    7.30
  13   1  -2   58.59    6.50
  13   1  -2   60.29    5.00
 -14  -2   2  249.78   18.00
 -14  -2   2  231.88   15.90
  14   2  -2  235.48   15.80
  14   2  -2  224.78   17.60
 -15  -3   2   24.00    3.70
  15   3  -2   13.60    4.30
 -16  -4   2  538.65   34.10
  16   4  -2  503.85   36.30
 -17  -5   2  157.28   11.90
  17   5  -2  133.99   14.10
 -18  -6   2  285.97   19.30
  18   6  -2  225.58   21.20
 -19  -7   2   74.19    9.70
  19   7  -2   46.60    9.70
  -2  10   1  338.67   33.60
   2 -10  -1  252.87   20.90
  -3   9   1    8.80    9.50
   3  -9  -1    6.50    4.30
  -4   8   1   55.39   11.20
   4  -8  -1   60.39    7.30
  -5   7   1  341.37   27.80
   5  -7  -1  356.86   23.90
  -6   6   1 1680.83  102.59
   6  -6  -1 1489.85   98.79
  -7   5   1   81.09    8.60
   7  -5  -1   57.89    6.00
  -8   4   1   61.89    5.50
  -8   4   1   59.49    6.70
  -8   4   1   63.89    6.30
  -8   4   1   54.59    7.00
  -8   4   1   60.59    7.10
   8  -4  -1   62.69    5.50
  -9   3   1   51.39    6.10
  -9   3   1   45.10    5.20
  -9   3   1   54.19    5.20
  -9   3   1   48.80    5.10
   9  -3  -1   44.80    4.40
   9  -3  -1   41.90    4.70
 -10   2   1   54.09    5.30
 -10   2   1   55.59    5.70
 -10   2   1   58.19    6.60
 -10   2   1   52.19    5.00
  10  -2  -1   55.09    5.40
  10  -2  -1   56.09    5.30
 -11   1   1 1029.00   67.19
 -11   1   1 1131.89   68.39
 -11   1   1 1023.30   67.79
 -11   1   1 1129.49   67.39
  11  -1  -1 1080.09   68.29
 -12   0   1    1.30    1.50
 -12   0   1   -0.90    2.50
 -12   0   1    1.20    1.40
 -12   0   1   -0.80    1.40
  12   0  -1   -1.20    1.70
  12   0  -1    2.30    1.80
 -13  -1   1  113.99    9.90
 -13  -1   1  112.69    8.30
  13   1  -1  111.09    9.70
 -14  -2   1   54.89    7.40
 -14  -2   1   47.40    4.60
  14   2  -1   46.10    6.20
  14   2  -1   51.39    5.00
 -15  -3   1  475.15   29.30
  15   3  -1  416.66   30.90
 -16  -4   1  145.19   10.80
  16   4  -1  129.39   12.60
 -17  -5   1   10.40    3.10
  17   5  -1   11.60    5.50
 -18  -6   1  107.19    9.60
  18   6  -1   69.79   10.60
 -19  -7   1  214.08   17.40
  19   7  -1  209.18   20.20
  -2  10   0    7.10   16.60
   2 -10   0   19.40    5.80
  -3   9   0   55.39   12.10
   3  -9   0   57.29    7.60
  -4   8   0 1384.06   86.29
   4  -8   0 1197.78   81.29
  -5   7   0  116.79   13.50
   5  -7   0   96.59    9.10
  -6   6   0 1601.74  104.79
   6  -6   0 1643.04  101.59
  -7   5   0    1.40    3.60
   7  -5   0   15.30    3.00
  -8   4   0  320.47   20.10
  -8   4   0  259.47   21.30
  -8   4   0  265.67   20.50
  -8   4   0  284.37   19.40
   8  -4   0  319.67   19.20
   8  -4   0  308.57   19.60
  -9   3   0   16.50    3.80
  -9   3   0   25.40    3.60
  -9   3   0   21.00    3.00
  -9   3   0   12.60    3.10
   9  -3   0   17.00    2.60
   9  -3   0   17.00    2.70
 -10   2   0 1905.31  121.89
 -10   2   0 1906.81  122.69
 -10   2   0 2071.39  122.49
 -10   2   0 2000.20  121.69
  10  -2   0 1959.50  121.69
  10  -2   0 1817.52  122.19
  10  -2   0 2074.99  122.19
 -11   1   0   74.09    7.00
 -11   1   0   62.89    6.10
 -11   1   0   70.69    5.70
 -11   1   0   69.39    5.80
  11  -1   0   71.99    6.70
  11  -1   0   68.89    6.00
 -12   0   0 4021.50  219.68
 -12   0   0 3404.16  218.08
 -12   0   0 3512.85  218.18
 -12   0   0 3332.47  217.68
 -12   0   0 3311.47  217.88
  12   0   0 3631.94  219.38
 -13  -1   0    4.90    1.70
 -13  -1   0    3.00    2.90
  13   1   0    4.40    1.90
  13   1   0    6.20    2.50
 -14  -2   0  121.39   11.20
 -14  -2   0  123.59    8.80
  14   2   0  100.09    9.80
 -15  -3   0    1.10    2.00
  15   3   0    2.00    2.70
 -16  -4   0  987.40   63.19
  16   4   0 1007.00   65.49
 -17  -5   0  996.10   62.79
  17   5   0  972.90   65.29
 -18  -6   0   34.70    8.20
  18   6   0   41.00    7.60
 -19  -7   0  101.19   11.40
  19   7   0  118.49   15.30
  -2  10  -1  201.28   28.50
   2 -10   1  159.38   15.90
  -3   9  -1   87.09   14.80
   3  -9   1  102.19   10.80
  -4   8  -1  201.58   20.10
   4  -8   1  181.68   14.70
  -5   7  -1  151.48   15.70
   5  -7   1  132.99   11.20
  -6   6  -1  584.44   41.70
   6  -6   1  608.04   38.80
  -7   5  -1  569.94   39.70
   7  -5   1  601.74   36.00
   7  -5   1  557.34   37.20
  -8   4  -1   66.19    7.30
  -8   4  -1   60.39    5.60
   8  -4   1   64.39    5.30
   8  -4   1   60.79    5.70
  -9   3  -1 1264.57   73.89
  -9   3  -1 1283.47   73.79
  -9   3  -1 1098.19   74.89
   9  -3   1 1130.09   73.49
   9  -3   1 1063.39   74.39
   9  -3   1 1209.58   73.59
 -10   2  -1    7.00    2.40
 -10   2  -1    6.50    2.80
 -10   2  -1   12.60    3.10
  10  -2   1    6.90    2.10
  10  -2   1    9.40    2.00
  10  -2   1    6.20    2.70
 -11   1  -1  614.54   37.60
 -11   1  -1  576.84   38.30
 -11   1  -1  680.93   38.90
 -11   1  -1  576.24   37.80
  11  -1   1  591.44   38.40
  11  -1   1  521.65   37.80
 -12   0  -1   -1.10    2.40
 -12   0  -1    1.20    1.30
 -12   0  -1   -0.70    1.80
 -12   0  -1    1.10    1.70
  12   0   1    1.40    1.90
  12   0   1    0.50    1.40
 -13  -1  -1  721.63   45.20
 -13  -1  -1  651.83   42.80
 -13  -1  -1  654.83   43.50
  13   1   1  688.83   45.00
  13   1   1  701.13   42.90
  13   1   1  710.13   43.60
 -14  -2  -1  340.97   22.60
  14   2   1  347.47   24.40
 -15  -3  -1  203.38   14.20
  15   3   1  197.48   15.90
 -16  -4  -1   22.30    3.90
  16   4   1   31.30    6.10
 -17  -5  -1   48.10    6.50
  17   5   1   44.60    7.90
  18   6   1   36.60    8.10
 -19  -7  -1  483.65   31.40
  19   7   1  403.26   33.90
  -3   9  -2  273.47   27.10
   3  -9   2  279.77   20.70
  -4   8  -2  180.08   18.50
  -5   7  -2  120.79   13.50
   5  -7   2  114.09   10.10
  -6   6  -2   15.50    5.20
   6  -6   2   16.60    3.70
  -7   5  -2    1.50    3.90
   7  -5   2    2.40    1.50
   7  -5   2    5.20    2.30
  -8   4  -2   53.69    7.20
  -8   4  -2   43.10    5.00
   8  -4   2   49.99    4.90
   8  -4   2   52.39    4.80
  -9   3  -2  161.48   12.20
  -9   3  -2  157.48   11.20
  -9   3  -2  147.39   11.00
   9  -3   2  150.08   12.00
   9  -3   2  140.29   10.60
   9  -3   2  130.59   10.60
 -10   2  -2 3195.48  176.68
 -10   2  -2 3000.30  175.88
 -10   2  -2 2780.82  177.08
  10  -2   2 2703.03  175.68
  10  -2   2 2785.42  176.18
  10  -2   2 2579.34  176.38
 -11   1  -2  302.47   20.00
 -11   1  -2  323.37   20.30
 -11   1  -2  283.57   20.90
  11  -1   2  304.27   20.60
  11  -1   2  306.17   20.80
  11  -1   2  305.17   20.00
 -12   0  -2  342.67   23.40
 -12   0  -2  337.57   22.10
 -12   0  -2  331.97   22.10
 -12   0  -2  351.46   22.50
  12   0   2  348.27   22.30
  12   0   2  311.37   23.00
 -13  -1  -2  171.58   14.30
 -13  -1  -2  177.88   12.10
 -13  -1  -2  176.58   12.40
  13   1   2  173.98   13.80
  13   1   2  183.88   12.20
  13   1   2  182.88   12.70
 -14  -2  -2 2110.19  131.99
 -14  -2  -2 2152.18  131.29
  14   2   2 2078.99  132.29
  14   2   2 2162.98  133.89
 -15  -3  -2  258.17   17.40
 -15  -3  -2  244.88   16.20
  15   3   2  265.87   19.40
  15   3   2  245.58   16.20
 -16  -4  -2   11.80    3.10
  16   4   2   19.80    2.80
  16   4   2   13.50    5.50
 -17  -5  -2  968.60   61.49
  17   5   2  960.80   64.09
  17   5   2  974.60   60.19
  17   5   2  944.71   59.89
 -18  -6  -2   13.90    4.70
  18   6   2    9.00    6.40
 -19  -7  -2    1.80    5.50
  19   7   2   -4.40    7.40
  -3   9  -3  294.07   26.70
   3  -9   3  276.37   21.30
  -4   8  -3  118.19   15.80
   4  -8   3   89.69   10.00
  -5   7  -3 1731.33  101.79
   5  -7   3 1378.46   96.99
  -6   6  -3   14.70    2.90
  -6   6  -3   16.80    5.70
   6  -6   3   18.40    2.80
   6  -6   3   18.30    3.80
  -7   5  -3  163.88   14.00
  -7   5  -3  130.39   10.50
   7  -5   3  138.09   10.70
   7  -5   3  141.39   10.10
  -8   4  -3   25.60    4.00
  -8   4  -3   21.90    4.80
   8  -4   3   28.10    3.70
   8  -4   3   26.90    3.90
  -9   3  -3 1139.89   64.39
  -9   3  -3 1055.49   63.79
   9  -3   3  965.70   63.59
   9  -3   3  951.50   63.79
   9  -3   3  944.31   64.89
 -10   2  -3  608.14   38.40
 -10   2  -3  574.94   36.90
 -10   2  -3  584.44   37.80
  10  -2   3  579.24   36.90
  10  -2   3  561.64   37.90
  10  -2   3  551.74   37.30
 -11   1  -3 2024.00  127.29
 -11   1  -3 2341.27  128.59
 -11   1  -3 1990.50  126.99
 -11   1  -3 1957.60  127.89
  11  -1   3 1952.10  127.69
  11  -1   3 2023.40  127.99
 -12   0  -3    0.00    1.80
 -12   0  -3    1.50    1.60
 -12   0  -3    3.50    2.50
 -12   0  -3   -1.50    3.00
  12   0   3    4.60    2.20
  12   0   3    0.40    2.20
 -13  -1  -3    5.00    1.80
 -13  -1  -3    5.40    2.30
  13   1   3    6.50    3.10
  13   1   3    4.70    2.70
  13   1   3    5.60    2.30
 -14  -2  -3  251.17   17.10
 -14  -2  -3  252.37   17.40
  14   2   3  266.97   17.20
  14   2   3  258.17   19.40
 -15  -3  -3  383.86   25.40
 -15  -3  -3  397.36   25.90
  15   3   3  380.16   27.90
  15   3   3  403.46   25.30
 -16  -4  -3  177.58   13.60
 -16  -4  -3  177.08   13.10
  16   4   3  200.38   12.90
  16   4   3  182.18   16.00
 -17  -5  -3   75.99    8.10
  17   5   3   78.29   10.70
  17   5   3   86.29    8.30
 -18  -6  -3   27.90    5.20
  18   6   3   28.60    7.70
 -19  -7  -3   23.30    6.30
  19   7   3    8.10    8.70
  -3   9  -4  777.52   59.59
   3  -9   4  882.41   54.89
  -4   8  -4    2.90    6.70
   4  -8   4    6.00    4.20
  -5   7  -4  562.74   38.90
   5  -7   4  483.35   34.30
  -6   6  -4  136.69   12.10
  -6   6  -4  178.98   15.40
   6  -6   4  158.98   11.00
   6  -6   4  147.59   12.00
  -7   5  -4   98.99   10.20
  -7   5  -4   87.29    8.70
   7  -5   4   87.29    7.40
   7  -5   4   82.09    8.00
  -8   4  -4  963.20   60.59
  -8   4  -4  891.61   62.29
   8  -4   4  976.90   60.29
   8  -4   4  966.70   60.19
  -9   3  -4  527.55   37.60
  -9   3  -4  559.04   36.80
   9  -3   4  561.84   36.00
   9  -3   4  583.44   36.40
 -10   2  -4  300.67   19.50
 -10   2  -4  244.78   20.30
 -10   2  -4  299.27   20.70
  10  -2   4  282.67   19.90
  10  -2   4  283.27   19.30
  10  -2   4  320.77   21.10
 -11   1  -4  733.73   47.40
 -11   1  -4  752.62   47.30
 -11   1  -4  743.23   48.40
 -11   1  -4  789.92   48.80
  11  -1   4  685.83   48.10
  11  -1   4  772.82   48.30
 -12   0  -4  130.19    9.70
 -12   0  -4  131.79    9.60
 -12   0  -4  119.19   10.40
  12   0   4  127.49   10.40
  12   0   4  131.49   10.70
 -13  -1  -4  200.98   14.20
 -13  -1  -4  191.68   14.70
  13   1   4  223.78   14.90
  13   1   4  207.58   15.90
 -14  -2  -4  629.04   41.80
 -14  -2  -4  616.34   41.80
  14   2   4  683.53   44.00
  14   2   4  693.53   41.90
 -15  -3  -4  361.16   23.40
 -15  -3  -4  328.87   23.10
  15   3   4  339.27   25.50
  15   3   4  360.26   23.10
 -16  -4  -4    7.90    3.50
 -16  -4  -4    4.30    2.80
  16   4   4   10.60    3.20
  16   4   4    7.90    4.20
 -17  -5  -4  459.85   28.50
 -17  -5  -4  405.06   28.30
  17   5   4  388.86   31.00
 -18  -6  -4  130.19   11.90
  18   6   4  131.39   15.80
 -19  -7  -4   26.20    8.10
  19   7   4   25.20   12.70
  -3   9  -5  282.47   27.20
   3  -9   5  242.08   20.90
  -4   8  -5  314.87   28.80
   4  -8   5  353.26   24.20
  -5   7  -5    9.00    7.10
   5  -7   5   17.40    3.00
   5  -7   5   11.90    4.20
  -6   6  -5  103.09   12.60
  -6   6  -5   97.79   10.70
   6  -6   5   98.39    8.70
   6  -6   5  109.29    9.40
  -7   5  -5   35.70    7.00
  -7   5  -5   38.90    6.30
   7  -5   5   49.80    4.90
   7  -5   5   47.10    5.80
  -8   4  -5   16.60    4.50
  -8   4  -5   21.20    4.80
   8  -4   5   22.60    3.70
   8  -4   5   17.70    3.20
  -9   3  -5  186.68   17.40
  -9   3  -5  246.48   17.60
   9  -3   5  244.08   16.20
   9  -3   5  248.88   16.60
 -10   2  -5  333.57   24.90
 -10   2  -5  344.07   25.00
  10  -2   5  374.76   23.60
  10  -2   5  367.36   24.40
 -11   1  -5  295.27   19.20
 -11   1  -5  273.57   20.20
 -11   1  -5  291.67   19.10
  11  -1   5  266.97   19.90
  11  -1   5  284.87   20.50
 -12   0  -5    1.40    2.30
 -12   0  -5    0.80    1.90
  12   0   5   -0.40    3.30
  12   0   5    5.50    2.90
 -13  -1  -5 1733.13  114.39
 -13  -1  -5 1921.71  115.09
  13   1   5 1826.42  116.39
  13   1   5 1876.01  115.09
 -14  -2  -5  280.67   19.40
 -14  -2  -5  279.67   19.10
  14   2   5  279.67   19.70
  14   2   5  294.47   21.60
 -15  -3  -5   27.30    4.30
 -15  -3  -5   37.30    4.60
  15   3   5   21.30    5.10
  15   3   5   24.80    4.80
 -16  -4  -5  596.84   38.70
 -16  -4  -5  542.75   38.60
  16   4   5  606.04   41.50
  16   4   5  638.24   38.90
 -17  -5  -5  132.39   11.40
 -17  -5  -5  141.39   11.20
  17   5   5  117.79   14.00
 -18  -6  -5  528.75   34.90
  18   6   5  502.65   38.70
 -19  -7  -5  261.07   20.10
  19   7   5  219.68   24.70
  -3   9  -6   32.50   13.80
   3  -9   6   28.00    6.50
  -4   8  -6 1516.35   98.19
   4  -8   6 1431.96   93.39
  -5   7  -6    3.50    5.80
   5  -7   6   -2.80    3.40
  -6   6  -6   92.99   12.00
  -6   6  -6  110.59   12.90
   6  -6   6   93.09    9.40
   6  -6   6  107.69    8.50
  -7   5  -6   60.19    9.50
  -7   5  -6   55.29    9.10
   7  -5   6   63.79    6.90
   7  -5   6   65.69    6.20
  -8   4  -6  114.99   11.80
  -8   4  -6  106.79   11.50
   8  -4   6  113.49    9.30
   8  -4   6  112.19    9.40
  -9   3  -6    2.40    3.10
   9  -3   6    8.50    2.80
   9  -3   6    5.20    2.50
 -10   2  -6  988.40   62.39
  10  -2   6  949.51   60.49
  10  -2   6  933.51   61.39
 -11   1  -6   33.20    5.40
 -11   1  -6   36.80    4.50
  11  -1   6   33.90    5.30
 -12   0  -6    5.80    3.00
 -12   0  -6   -1.30    1.80
  12   0   6    2.60    2.60
  12   0   6    3.30    4.10
 -13  -1  -6   41.80    4.60
 -13  -1  -6   29.20    4.70
  13   1   6   32.40    5.70
  13   1   6   32.00    5.60
 -14  -2  -6  501.45   36.90
 -14  -2  -6  599.54   36.60
  14   2   6  607.74   37.50
  14   2   6  560.64   39.00
 -15  -3  -6  461.85   27.70
 -15  -3  -6  355.66   27.60
  15   3   6  445.66   28.50
  15   3   6  403.36   30.20
 -16  -4  -6   43.60    7.10
 -16  -4  -6   49.80    6.10
  16   4   6   38.50    7.50
 -17  -5  -6  196.68   15.00
 -17  -5  -6  184.68   15.10
  17   5   6  197.98   18.10
 -18  -6  -6  184.78   14.40
  18   6   6  138.99   17.70
  -4   8  -7   23.00    8.30
   4  -8   7   29.80    6.60
  -5   7  -7  222.68   21.00
   5  -7   7  219.38   15.80
  -6   6  -7    7.90    5.70
   6  -6   7    6.00    3.50
   6  -6   7    5.30    2.80
  -7   5  -7  931.91   59.29
   7  -5   7  884.51   56.39
   7  -5   7  819.82   55.99
  -8   4  -7  123.49   12.10
   8  -4   7  124.09   10.50
   8  -4   7  127.19   10.40
  -9   3  -7   23.00    5.60
   9  -3   7   20.30    3.90
   9  -3   7   14.80    3.60
 -10   2  -7  205.68   16.80
  10  -2   7  216.28   15.10
  10  -2   7  214.38   16.20
 -11   1  -7  168.38   12.20
 -11   1  -7  173.68   13.80
  11  -1   7  159.98   13.60
 -12   0  -7    6.10    2.30
 -12   0  -7    2.90    3.30
  12   0   7    4.40    3.20
 -13  -1  -7  205.58   14.70
 -13  -1  -7  211.78   15.90
  13   1   7  206.88   16.90
 -14  -2  -7  194.98   14.20
 -14  -2  -7  189.48   15.00
  14   2   7  221.28   17.20
 -15  -3  -7  244.88   19.50
 -15  -3  -7  305.77   19.20
  15   3   7  277.37   22.20
 -16  -4  -7  110.59    9.60
 -16  -4  -7  108.09   10.20
  16   4   7   92.29   12.40
 -17  -5  -7  322.57   23.50
 -18  -6  -7  474.15   31.00
  18   6   7  411.56   34.90
  -4   8  -8  354.76   31.70
   4  -8   8  326.17   25.00
  -5   7  -8   95.89   13.90
   5  -7   8   96.59   10.00
   5  -7   8   94.49    8.90
   6  -6   8   69.99    8.40
   6  -6   8   65.79    7.60
  -7   5  -8   21.50    6.70
   7  -5   8   10.30    3.80
   7  -5   8   19.00    3.80
  -8   4  -8 1715.23  106.79
   8  -4   8 1619.84  103.89
   8  -4   8 1638.24  104.79
  -9   3  -8  952.40   66.59
   9  -3   8 1064.19   65.79
   9  -3   8 1024.60   64.39
 -10   2  -8   95.79    7.90
 -10   2  -8   80.69    9.40
  10  -2   8  100.99    9.40
  10  -2   8   72.49    7.70
 -11   1  -8    6.60    2.60
 -11   1  -8    0.00    3.70
  11  -1   8    4.40    3.20
 -12   0  -8  924.51   63.89
 -12   0  -8 1062.89   62.39
  12   0   8  965.20   64.49
 -13  -1  -8   67.99    6.80
 -13  -1  -8   77.09    8.50
  13   1   8   66.29    8.60
 -14  -2  -8   49.60    7.20
 -14  -2  -8   56.19    5.90
  14   2   8   42.30    7.70
 -15  -3  -8  470.25   35.70
 -15  -3  -8  595.34   35.10
  15   3   8  539.85   38.40
 -16  -4  -8  133.69   13.50
 -16  -4  -8  183.38   12.80
 -17  -5  -8   -1.00    3.80
 -17  -5  -8    8.80    5.60
  17   5   8   -5.40    6.60
  -4   8  -9   91.29   14.10
   4  -8   9   68.69   10.50
  -5   7  -9    9.90    8.00
   5  -7   9   -2.80    4.20
   5  -7   9   -3.20    4.80
  -6   6  -9  141.49   17.30
   6  -6   9  167.88   13.20
   6  -6   9  152.58   13.20
  -7   5  -9  105.99   12.50
   7  -5   9   79.39    8.90
   7  -5   9   89.29    9.00
  -8   4  -9  120.49   13.20
   8  -4   9  111.39   10.60
   8  -4   9  113.69   10.20
  -9   3  -9  720.43   49.10
   9  -3   9  683.53   46.40
   9  -3   9  758.82   48.10
 -10   2  -9    1.70    2.60
 -10   2  -9    2.60    4.10
  10  -2   9   11.30    4.30
 -11   1  -9   14.40    3.30
 -11   1  -9   13.40    5.10
  11  -1   9   21.70    5.00
 -12   0  -9   -0.10    2.50
 -12   0  -9   -0.40    4.20
  12   0   9   -2.00    3.50
 -13  -1  -9   36.80    6.50
 -13  -1  -9   38.20    5.20
  13   1   9   36.60    7.00
 -14  -2  -9    8.60    2.90
 -14  -2  -9   -5.20    3.90
  14   2   9   -3.90    4.90
 -15  -3  -9   66.59    6.90
 -15  -3  -9   53.19    8.00
  15   3   9   44.80   14.70
 -16  -4  -9   13.40    3.90
 -16  -4  -9    6.50    5.00
  16   4   9    7.00    6.70
 -17  -5  -9  434.26   35.80
 -17  -5  -9  537.75   32.50
  17   5   9  443.36   37.00
  -5   7 -10  180.18   21.10
   5  -7  10  169.18   14.70
   5  -7  10  161.68   15.10
  -6   6 -10  244.38   22.60
   6  -6  10  269.97   19.40
   6  -6  10  225.98   19.20
  -7   5 -10   36.50    8.90
   7  -5  10   33.80    6.00
   7  -5  10   40.10    6.00
  -8   4 -10    2.20    6.20
   8  -4  10    3.30    4.30
   8  -4  10    4.80    3.50
  -9   3 -10  626.24   43.10
   9  -3  10  613.84   41.90
   9  -3  10  598.74   40.00
 -10   2 -10   19.70    6.60
 -10   2 -10   13.00    3.80
  10  -2  10   19.20    5.60
 -11   1 -10   29.60    6.90
 -11   1 -10   25.30    4.10
  11  -1  10   35.80    6.90
 -12   0 -10  152.68   14.50
 -12   0 -10  156.88   11.50
  12   0  10  134.59   14.20
 -13  -1 -10   96.99   11.70
 -13  -1 -10  129.09    9.70
  13   1  10  121.89   13.20
 -14  -2 -10   59.89    9.70
 -14  -2 -10   85.29    7.60
  14   2  10   72.39   11.40
 -15  -3 -10  293.77   24.10
 -15  -3 -10  357.86   22.70
  15   3  10  330.87   26.60
 -16  -4 -10   61.59    8.20
  16   4  10   65.39   11.80
  -6   6 -11   66.69   13.70
   6  -6  11   77.99   10.00
   6  -6  11   69.99    8.80
  -7   5 -11  337.87   26.80
   7  -5  11  299.17   22.80
   7  -5  11  318.97   24.00
  -8   4 -11  394.76   29.00
   8  -4  11  365.26   27.10
   8  -4  11  340.27   25.20
  -9   3 -11   94.29   13.20
  -9   3 -11   84.39    8.80
   9  -3  11   89.79   10.70
   9  -3  11  102.89    9.30
 -10   2 -11   80.79   12.90
 -10   2 -11   98.99    8.30
  10  -2  11   73.19   11.20
 -11   1 -11  963.90   63.49
 -11   1 -11  878.61   59.89
  11  -1  11 1003.90   64.29
 -12   0 -11    1.10    5.50
 -12   0 -11    6.20    3.00
  12   0  11   -2.80    5.00
 -13  -1 -11  146.39   15.40
 -13  -1 -11  176.48   12.70
  13   1  11  177.88   17.10
 -14  -2 -11  135.39   10.50
 -14  -2 -11  111.19   13.50
  14   2  11  123.39   15.30
 -15  -3 -11   71.89   11.70
 -15  -3 -11   84.59    8.50
  15   3  11   76.19   13.00
 -16  -4 -11  175.28   18.40
  16   4  11  204.78   21.30
  -7   5 -12    9.60    9.00
   7  -5  12    8.30    5.40
   7  -5  12    2.70    5.10
  -8   4 -12   12.30    8.10
   8  -4  12    6.90    4.80
   8  -4  12   11.50    5.40
  -9   3 -12   18.10    8.40
  -9   3 -12   32.10    5.00
   9  -3  12   37.20    7.60
 -10   2 -12   74.69    7.50
 -10   2 -12   62.29   10.70
  10  -2  12   62.99   10.40
 -11   1 -12   23.40    4.20
 -11   1 -12   35.30    8.60
  11  -1  12   23.00    6.80
 -12   0 -12  157.48   16.40
 -12   0 -12  182.78   12.60
  12   0  12  124.89   16.60
 -13  -1 -12   36.10    8.00
 -13  -1 -12   53.69    6.60
  13   1  12   56.09   10.00
 -14  -2 -12  326.37   20.80
 -14  -2 -12  257.67   24.10
 -15  -3 -12   12.50    8.10
 -15  -3 -12    9.40    4.00
  15   3  12   -4.40    7.80
  -8   4 -13  676.23   43.30
  -8   4 -13  654.63   48.00
   8  -4  13  641.14   43.50
   8  -4  13  665.63   46.60
  -9   3 -13  316.97   29.40
  -9   3 -13  358.36   24.00
   9  -3  13  360.66   27.90
 -10   2 -13  229.38   16.90
 -10   2 -13  216.08   21.80
  10  -2  13  257.17   21.90
 -11   1 -13   22.80    9.40
 -11   1 -13   22.70    4.60
  11  -1  13   30.50    9.80
 -12   0 -13   -0.40    3.40
 -12   0 -13    7.00    6.90
  12   0  13   -2.80    9.20
 -13  -1 -13  298.47   19.90
 -13  -1 -13  273.77   24.60
  13   1  13  264.97   24.80
 -10   2 -14  586.94   44.80
  10  -2  14  643.44   45.20
 -11   1 -14   24.90    8.80
  11  -1  14    7.70    9.20
 -11   3  15    4.90   13.00
  11  -3 -15    6.40    6.60
 -12   2  15   20.30   12.90
  12  -2 -15   20.50    7.50
 -13   1  15  299.97   27.90
  13  -1 -15  285.57   23.00
 -14   0  15    7.10    7.50
  14   0 -15    8.60    6.70
 -15  -1  15  305.27   26.20
  15   1 -15  259.47   22.10
 -10   4  14  540.65   42.10
  10  -4 -14  557.44   39.30
 -11   3  14   65.09   11.90
  11  -3 -14   66.99   10.40
 -12   2  14  223.48   21.80
  12  -2 -14  175.68   17.10
 -13   1  14   33.20   10.30
  13  -1 -14   27.60    6.30
 -14   0  14   -1.00    6.90
  14   0 -14   -0.50    4.90
 -15  -1  14   13.60    8.90
  15   1 -14    7.40    4.60
 -16  -2  14   34.80   11.60
  16   2 -14   51.39    8.10
 -17  -3  14   11.20    7.90
  17   3 -14    9.60    5.60
  -9   5  13  363.96   29.30
   9  -5 -13  327.07   27.10
 -10   4  13  868.31   60.69
  10  -4 -13  873.11   58.19
 -11   3  13  187.78   19.40
  11  -3 -13  193.88   17.00
 -12   2  13   43.50    8.90
  12  -2 -13   33.00    6.30
 -13   1  13   10.70    6.80
 -14   0  13   -0.60    6.30
 -15  -1  13  591.94   44.50
  15   1 -13  630.74   41.50
 -16  -2  13   58.69   11.00
  16   2 -13   47.50    7.60
 -17  -3  13   12.10    8.50
  17   3 -13   14.30    5.20
 -18  -4  13   52.89   12.70
  -8   6  12  409.16   32.50
   8  -6 -12  432.66   32.00
  -9   5  12  566.74   42.80
   9  -5 -12  622.54   41.70
 -10   4  12  149.88   16.50
  10  -4 -12  145.99   14.60
 -11   3  12   33.00    7.90
 -12   2  12   83.99   12.40
  12  -2 -12   83.69    9.80
 -13   1  12   30.60    7.10
  13  -1 -12   20.70    4.60
 -14   0  12 1819.32  111.99
  14   0 -12 1624.24  108.59
  15   1 -12  167.28   14.00
 -16  -2  12  550.84   40.40
  16   2 -12  548.45   37.10
 -17  -3  12   38.20    9.60
  17   3 -12   44.30    7.00
 -18  -4  12    4.90    6.80
  18   4 -12    9.30    4.50
   7  -7 -11   27.50    8.40
  -8   6  11   76.99   11.20
   8  -6 -11   87.59   12.10
  -9   5  11   99.89   13.60
   9  -5 -11  129.09   12.90
 -10   4  11   46.80    8.40
  10  -4 -11   32.00    6.70
 -11   3  11  363.76   29.10
  11  -3 -11  399.76   27.40
 -12   2  11  105.39   12.60
  12  -2 -11  102.09    9.90
 -13   1  11  148.69   14.00
  13  -1 -11  130.39   11.50
 -14   0  11    6.00    5.30
  14   0 -11    3.10    3.40
 -15  -1  11  488.65   36.50
 -15  -1  11  500.05   31.30
  15   1 -11  502.75   33.50
 -16  -2  11  235.98   15.80
 -16  -2  11  216.68   20.70
  16   2 -11  247.08   17.70
 -17  -3  11  255.47   22.80
 -17  -3  11  251.57   17.50
  17   3 -11  262.27   18.90
 -18  -4  11  219.18   20.50
 -18  -4  11  210.58   15.80
  18   4 -11  224.28   16.70
 -19  -5  11   40.00    9.90
 -19  -5  11   48.60    6.80
  19   5 -11   53.29    7.70
  -7   7  10   11.80    6.60
   7  -7 -10    6.50    7.70
   7  -7 -10   21.80    3.60
  -8   6  10  386.16   29.60
   8  -6 -10  426.66   26.30
   8  -6 -10  398.16   29.70
  -9   5  10 1131.09   72.99
   9  -5 -10 1086.79   73.39
 -10   4  10  229.28   19.50
  10  -4 -10  250.57   15.40
  10  -4 -10  220.78   18.40
 -11   3  10    5.90    4.50
  11  -3 -10   14.10    4.00
 -12   2  10  105.79   12.20
  12  -2 -10  120.39   10.70
 -13   1  10   86.49   10.90
  13  -1 -10  100.09    9.20
 -14   0  10 1014.10   62.79
 -14   0  10  999.00   67.69
  14   0 -10 1034.80   65.19
 -15  -1  10  208.88   14.40
 -15  -1  10  216.98   14.10
 -15  -1  10  194.78   18.30
  15   1 -10  224.38   16.00
 -16  -2  10  219.78   19.80
 -16  -2  10  209.88   15.10
  16   2 -10  233.28   16.90
  16   2 -10  241.18   15.40
 -17  -3  10  191.58   13.60
 -17  -3  10  221.98   18.50
  17   3 -10  177.18   14.60
 -18  -4  10  208.48   25.30
 -18  -4  10  198.98   15.10
  18   4 -10  220.18   15.70
 -19  -5  10  266.17   22.80
 -19  -5  10  243.28   18.40
  19   5 -10  241.58   18.00
   6  -8  -9   42.20    9.70
   6  -8  -9   35.90    5.00
   7  -7  -9  549.74   34.80
   7  -7  -9  527.55   38.80
  -8   6   9   49.10    7.80
   8  -6  -9   69.29    5.70
   8  -6  -9   43.90    8.70
  -9   5   9  794.92   55.79
   9  -5  -9  845.52   55.69
   9  -5  -9  879.41   52.79
 -10   4   9  112.19    8.80
 -10   4   9  122.19   12.30
  10  -4  -9  139.09    8.90
  10  -4  -9  113.29   11.40
 -11   3   9  137.79   13.00
 -11   3   9  126.99    8.60
 -11   3   9  114.59    8.80
  11  -3  -9  149.49   11.70
 -12   2   9   14.10    1.90
 -12   2   9   14.50    2.00
 -12   2   9   20.50    5.30
  12  -2  -9   18.70    4.20
 -13   1   9 1021.90   63.69
 -13   1   9  995.20   58.89
 -13   1   9  930.51   59.19
  13  -1  -9  875.11   60.89
 -14   0   9    0.20    2.00
 -14   0   9   -4.90    3.40
 -14   0   9   -0.70    1.40
  14   0  -9    3.20    2.60
 -15  -1   9  364.46   23.80
 -15  -1   9  368.76   27.60
  15   1  -9  406.66   23.90
  15   1  -9  336.47   24.80
 -16  -2   9  173.68   12.20
 -16  -2   9  170.68   15.70
  16   2  -9  162.38   12.20
  16   2  -9  192.58   13.30
 -17  -3   9  178.88   17.20
 -17  -3   9  188.88   13.30
  17   3  -9  185.08   13.80
 -18  -4   9  178.48   16.80
 -18  -4   9  178.88   13.30
  18   4  -9  177.58   13.30
 -19  -5   9  466.85   34.70
 -19  -5   9  414.56   30.10
  19   5  -9  469.25   29.90
 -20  -6   9   85.79   13.00
 -20  -6   9   66.69    8.90
  -6   8   8   46.70   12.90
   6  -8  -8   69.39   12.00
   6  -8  -8   48.60    6.00
  -7   7   8   10.10    4.70
   7  -7  -8    7.40    2.80
   7  -7  -8   16.70    6.80
  -8   6   8   29.50    6.10
   8  -6  -8   37.90    4.50
   8  -6  -8   37.50    6.40
  -9   5   8  795.82   52.89
  -9   5   8  753.52   50.49
   9  -5  -8  780.92   52.89
   9  -5  -8  871.21   50.49
 -10   4   8   81.59    6.80
 -10   4   8   70.29    9.30
  10  -4  -8   77.89    8.90
  10  -4  -8   88.59    6.70
 -11   3   8  107.59   11.00
 -11   3   8  110.29    8.50
 -11   3   8  105.69    8.00
  11  -3  -8  120.89    8.00
  11  -3  -8  109.49   10.10
 -12   2   8  142.19   13.20
 -12   2   8  149.99    9.90
 -12   2   8  141.49    9.80
  12  -2  -8  148.19   11.80
 -13   1   8    5.10    2.00
 -13   1   8    0.80    1.40
 -13   1   8   -2.00    3.30
  13  -1  -8    4.10    2.60
 -14   0   8 1259.77   74.59
 -14   0   8 1184.78   74.79
 -14   0   8 1212.48   78.49
  14   0  -8 1153.08   75.79
 -15  -1   8    3.00    3.90
  15   1  -8    3.60    2.00
  15   1  -8    0.60    2.10
 -16  -2   8  623.44   42.00
 -16  -2   8  655.73   45.70
 -16  -2   8  671.83   44.60
  16   2  -8  748.33   43.00
  16   2  -8  624.64   41.90
 -17  -3   8   45.20    5.30
 -17  -3   8   37.90    8.60
 -17  -3   8   52.69    8.50
  17   3  -8   41.80    5.10
 -18  -4   8  577.54   37.30
 -18  -4   8  593.74   41.30
  18   4  -8  556.64   37.10
 -19  -5   8   22.40    4.80
 -19  -5   8   25.50    7.10
  19   5  -8   16.30    3.40
 -20  -6   8   96.39   10.70
 -20  -6   8  104.79   13.80
  -5   9   7   10.10   11.60
   5  -9  -7   18.50    4.70
  -6   8   7  140.39   19.20
   6  -8  -7  143.39   11.50
   6  -8  -7  152.68   16.70
  -7   7   7  102.59   10.40
   7  -7  -7  116.49    9.10
  -8   6   7  465.75   33.70
  -8   6   7  541.85   38.20
   8  -6  -7  519.75   35.40
   8  -6  -7  503.35   32.50
  -9   5   7  392.26   27.10
  -9   5   7  390.66   29.20
  -9   5   7  424.66   28.70
   9  -5  -7  431.26   29.20
   9  -5  -7  430.06   26.80
 -10   4   7  474.25   33.40
 -10   4   7  439.26   30.30
 -10   4   7  493.25   32.70
  10  -4  -7  457.75   32.00
  10  -4  -7  505.55   30.30
 -11   3   7   23.50    3.30
 -11   3   7   16.80    4.30
  11  -3  -7   25.20    3.00
  11  -3  -7   24.80    4.20
 -12   2   7  219.48   15.60
 -12   2   7  227.78   18.40
 -12   2   7  254.57   15.70
  12  -2  -7  244.88   17.00
 -13   1   7  848.62   55.89
 -13   1   7  853.41   52.69
 -13   1   7  762.92   52.49
  13  -1  -7  909.11   53.89
 -14   0   7    4.40    2.90
 -14   0   7   -2.70    4.00
 -14   0   7   -1.00    1.70
 -14   0   7    1.80    1.90
  14   0  -7    1.90    2.10
 -15  -1   7  141.69   10.20
 -15  -1   7  136.59   13.10
 -15  -1   7  160.68   13.00
  15   1  -7  148.89   10.30
  15   1  -7  139.09   10.70
 -16  -2   7  188.78   14.40
 -16  -2   7  154.08   11.80
 -16  -2   7  166.98   14.80
  16   2  -7  194.58   12.30
  16   2  -7  140.09   11.60
 -17  -3   7 1340.47   86.49
 -17  -3   7 1227.28   82.79
 -17  -3   7 1300.57   84.49
  17   3  -7 1422.96   82.89
 -18  -4   7  876.81   57.49
 -18  -4   7  932.21   61.19
  18   4  -7  905.21   56.99
 -19  -5   7   16.40    6.30
 -19  -5   7   10.40    4.20
  19   5  -7    9.80    2.80
 -20  -6   7  627.54   40.00
 -20  -6   7  556.94   45.30
  -5   9   6  138.49   21.50
   5  -9  -6  133.89   12.10
  -6   8   6  730.13   51.69
   6  -8  -6  685.23   45.40
  -7   7   6   61.59   11.90
  -7   7   6   74.29    8.40
   7  -7  -6   80.09   10.20
   7  -7  -6   83.29    7.30
  -8   6   6 1043.50   75.49
  -8   6   6 1260.47   75.89
   8  -6  -6 1242.98   77.19
   8  -6  -6 1215.68   74.59
  -9   5   6   15.00    3.80
  -9   5   6   11.00    4.60
   9  -5  -6   11.70    2.40
   9  -5  -6    9.20    4.00
 -10   4   6   21.10    5.40
 -10   4   6   24.10    4.60
 -10   4   6   42.40    4.90
  10  -4  -6   31.10    5.10
  10  -4  -6   35.90    3.60
 -11   3   6   57.09    7.50
 -11   3   6   57.79    5.60
 -11   3   6   60.99    7.10
  11  -3  -6   53.39    6.30
  11  -3  -6   59.79    5.40
 -12   2   6 3142.69  187.78
 -12   2   6 3187.38  185.08
 -12   2   6 2891.61  187.08
 -12   2   6 2884.21  185.08
  12  -2  -6 2879.51  185.98
 -13   1   6   85.39    9.10
 -13   1   6   91.49    7.00
 -13   1   6   99.29    9.40
 -13   1   6   91.19    7.10
  13  -1  -6   88.69    7.50
 -14   0   6 1469.85  104.49
 -14   0   6 1634.14  107.59
 -14   0   6 1630.34  104.59
 -14   0   6 1830.52  106.19
  14   0  -6 1879.61  105.39
 -15  -1   6  136.79   12.60
 -15  -1   6  144.89   11.80
 -15  -1   6  145.99   10.10
  15   1  -6  139.99   10.10
 -16  -2   6   15.70    2.90
 -16  -2   6   14.00    4.50
 -16  -2   6   22.40    4.60
  16   2  -6   16.80    3.10
  16   2  -6   20.00    3.30
 -17  -3   6   13.60    5.20
 -17  -3   6   22.90    5.60
 -17  -3   6   23.40    3.50
  17   3  -6   19.40    3.30
 -18  -4   6  275.27   21.40
 -18  -4   6  228.58   18.90
 -18  -4   6  267.37   18.10
  18   4  -6  252.87   17.10
 -19  -5   6  610.54   42.50
 -19  -5   6  613.84   39.20
  19   5  -6  564.44   37.70
 -20  -6   6   58.89    7.90
 -20  -6   6   47.10    8.90
 -21  -7   6  393.16   31.40
 -21  -7   6  380.76   28.50
  -5   9   5   24.50   11.60
   5  -9  -5   27.80    5.10
  -6   8   5    1.30    7.70
   6  -8  -5    4.20    3.20
  -7   7   5    7.10    6.30
  -7   7   5    5.20    2.70
   7  -7  -5    3.60    2.60
  -8   6   5   11.30    4.10
  -8   6   5   11.40    3.60
   8  -6  -5   17.80    3.20
   8  -6  -5   10.60    3.90
  -9   5   5  209.28   16.40
  -9   5   5  218.18   16.40
   9  -5  -5  233.58   15.10
   9  -5  -5  213.48   16.70
 -10   4   5  179.28   12.60
 -10   4   5  162.98   13.90
 -10   4   5  171.28   14.00
  10  -4  -5  171.78   13.40
  10  -4  -5  183.58   12.10
 -11   3   5  352.46   22.40
 -11   3   5  329.17   23.80
 -11   3   5  345.77   24.00
  11  -3  -5  334.57   23.20
 -12   2   5  122.89   11.60
 -12   2   5  119.49   11.20
 -12   2   5  161.78   11.50
 -12   2   5  125.89    9.90
 -12   2   5  142.19    9.70
  12  -2  -5  128.49    9.30
  12  -2  -5  128.19   10.10
 -13   1   5  974.80   62.29
 -13   1   5  887.71   60.09
 -13   1   5  928.11   62.69
 -13   1   5 1081.89   61.59
  13  -1  -5  946.71   60.69
 -14   0   5    2.80    2.10
 -14   0   5    3.00    2.80
 -14   0   5   -2.30    1.70
 -14   0   5   -0.20    2.90
  14   0  -5    0.80    1.80
 -15  -1   5  716.53   50.29
 -15  -1   5  743.63   47.50
 -15  -1   5  824.32   48.10
  15   1  -5  727.23   47.30
  15   1  -5  751.02   47.40
 -16  -2   5  564.34   39.50
 -16  -2   5  553.54   36.40
 -16  -2   5  574.04   36.80
  16   2  -5  582.74   36.00
 -17  -3   5  175.48   15.70
 -17  -3   5  169.78   13.10
 -17  -3   5  164.78   12.60
  17   3  -5  182.58   11.80
 -18  -4   5   25.90    6.40
 -18  -4   5   24.80    4.20
 -18  -4   5   21.20    4.00
  18   4  -5   28.50    3.60
 -19  -5   5   92.29   12.20
 -19  -5   5   89.69    9.40
  19   5  -5   95.09    7.10
 -20  -6   5  145.79   15.40
 -20  -6   5  125.69   12.10
 -21  -7   5  684.73   52.39
 -21  -7   5  726.73   47.70
  -5   9   4  168.98   21.10
   5  -9  -4  150.18   13.10
   6  -8  -4   96.99    9.00
  -7   7   4  588.84   42.10
   7  -7  -4  556.84   37.10
  -8   6   4   27.50    4.10
  -8   6   4   34.00    7.60
  -8   6   4   29.20    4.40
   8  -6  -4   33.10    4.40
  -9   5   4    2.20    2.60
  -9   5   4    1.70    3.00
  -9   5   4    6.60    3.90
   9  -5  -4   -0.80    1.80
   9  -5  -4    2.50    2.80
 -10   4   4   -4.30    2.60
 -10   4   4   -2.30    2.70
 -10   4   4    0.50    2.90
  10  -4  -4    1.90    1.70
  10  -4  -4   -0.10    2.50
 -11   3   4  760.32   48.90
 -11   3   4  757.32   47.90
 -11   3   4  751.02   49.00
  11  -3  -4  780.12   47.70
  11  -3  -4  737.83   48.60
 -12   2   4 1117.29   64.59
 -12   2   4  987.90   64.99
 -12   2   4  972.30   63.59
 -12   2   4 1027.70   65.59
  12  -2  -4 1021.70   63.49
  12  -2  -4  973.70   64.09
 -13   1   4 1263.27   81.69
 -13   1   4 1388.36   80.19
 -13   1   4 1215.08   79.29
 -13   1   4 1321.67   81.29
 -13   1   4 1202.38   79.49
  13  -1  -4 1272.57   79.69
  13  -1  -4 1262.67   81.29
 -14   0   4 1276.97   83.79
 -14   0   4 1301.47   83.39
 -14   0   4 1364.86   85.49
  14   0  -4 1332.47   83.49
  14   0  -4 1437.26   85.89
 -15  -1   4  119.79    8.70
 -15  -1   4  111.99    8.80
  15   1  -4  113.99   10.80
  15   1  -4  117.19    8.20
  15   1  -4  117.49    8.60
 -16  -2   4  972.10   63.99
 -16  -2   4 1024.20   63.99
  16   2  -4 1029.90   66.69
  16   2  -4 1044.00   63.09
 -17  -3   4  552.04   37.80
 -17  -3   4  595.14   38.90
  17   3  -4  652.83   37.60
  17   3  -4  619.14   41.90
 -18  -4   4    0.90    2.80
  18   4  -4    8.50    5.00
 -19  -5   4  513.65   34.70
 -19  -5   4  563.94   38.10
  19   5  -4  481.85   37.50
 -20  -6   4   84.79   12.80
 -20  -6   4   86.19    9.80
 -21  -7   4   33.20   10.00
 -21  -7   4   36.80    7.40
  -5   9   3  521.15   40.60
   5  -9  -3  476.45   33.30
  -6   8   3   49.40   18.90
   6  -8  -3   53.99    6.80
  -7   7   3 1616.84  106.59
   7  -7  -3 1644.54  102.29
  -8   6   3  821.72   59.19
   8  -6  -3  928.01   55.79
  -9   5   3   36.00    5.00
  -9   5   3   30.20    4.40
  -9   5   3   29.00    6.50
   9  -5  -3   29.30    4.00
 -10   4   3  159.38   12.30
 -10   4   3  172.58   14.10
 -10   4   3  160.78   12.00
 -10   4   3  168.88   12.50
  10  -4  -3  144.79   12.30
  10  -4  -3  163.48   11.40
 -11   3   3 1584.94   93.79
 -11   3   3 1528.25   92.89
 -11   3   3 1425.56   93.49
 -11   3   3 1534.55   94.19
  11  -3  -3 1456.95   92.59
  11  -3  -3 1409.26   93.39
 -12   2   3   64.19    7.20
 -12   2   3   49.20    5.60
 -12   2   3   68.59    6.30
 -12   2   3   52.39    7.70
  12  -2  -3   61.59    5.60
  12  -2  -3   55.59    6.40
 -13   1   3 1824.72  108.59
 -13   1   3 1786.42  109.79
 -13   1   3 1634.74  108.09
  13  -1  -3 1750.32  109.69
  13  -1  -3 1719.93  108.29
 -14   0   3    0.90    2.00
 -14   0   3    0.00    1.70
 -14   0   3    1.00    1.50
 -14   0   3    3.40    3.40
  14   0  -3    0.80    1.90
  14   0  -3    3.60    2.40
  14   0  -3   -0.10    1.30
 -15  -1   3   30.70    3.70
  15   1  -3   26.20    5.10
  15   1  -3   28.30    2.80
  15   1  -3   29.30    3.90
 -16  -2   3  270.17   18.10
  16   2  -3  265.97   20.50
 -17  -3   3  208.98   15.00
  17   3  -3  214.18   17.60
 -18  -4   3  457.65   29.50
  18   4  -3  425.56   32.20
 -19  -5   3    9.10    4.00
  19   5  -3   -3.10    5.40
 -20  -6   3  322.57   22.40
  20   6  -3  280.77   25.50
 -21  -7   3   21.10    6.70
 -21  -7   3   35.60    9.50
  21   7  -3   39.50   10.10
  -5   9   2  260.87   24.30
   5  -9  -2  204.08   17.10
  -6   8   2  -13.80    6.30
   6  -8  -2    7.90    3.20
  -7   7   2  643.14   45.90
   7  -7  -2  634.94   41.40
  -8   6   2  360.66   26.30
   8  -6  -2  322.07   22.60
  -9   5   2  148.09   10.70
  -9   5   2  155.18   13.90
   9  -5  -2  152.68   11.10
 -10   4   2 1319.97   84.89
 -10   4   2 1322.97   83.09
 -10   4   2 1369.06   82.79
 -10   4   2 1263.37   82.69
  10  -4  -2 1323.57   82.49
 -11   3   2  363.96   25.40
 -11   3   2  358.36   23.90
 -11   3   2  353.56   24.40
 -11   3   2  363.36   24.50
  11  -3  -2  382.76   24.40
  11  -3  -2  355.46   23.60
 -12   2   2  325.07   22.20
 -12   2   2  345.27   22.60
 -12   2   2  355.16   23.50
  12  -2  -2  327.87   23.10
  12  -2  -2  342.87   22.10
 -13   1   2   59.99    5.70
 -13   1   2   64.89    7.10
 -13   1   2   54.79    5.30
 -13   1   2   57.49    6.10
 -13   1   2   56.39    5.40
  13  -1  -2   69.09    6.50
 -14   0   2 1074.79   64.69
 -14   0   2  959.80   62.79
 -14   0   2 1080.79   62.59
 -14   0   2  938.21   62.59
 -14   0   2  944.51   62.79
  14   0  -2 1069.19   62.89
  14   0  -2  952.00   64.29
 -15  -1   2   60.49    5.30
 -15  -1   2   60.49    4.30
 -15  -1   2   52.39    4.30
 -15  -1   2   65.69    8.90
  15   1  -2   44.80    6.20
  15   1  -2   56.09    5.30
 -16  -2   2 2221.08  140.59
  16   2  -2 2309.47  142.89
 -17  -3   2  117.69    9.20
  17   3  -2  103.69   11.20
 -18  -4   2   65.39    6.90
  18   4  -2   61.49    9.20
 -19  -5   2  371.36   25.30
  19   5  -2  358.96   28.20
 -20  -6   2  192.28   15.20
  20   6  -2  174.28   18.20
 -21  -7   2  206.78   18.30
  21   7  -2  207.68   21.70
  -5   9   1   79.29   13.50
   5  -9  -1   51.69    7.30
  -6   8   1    7.30    7.90
   6  -8  -1   22.30    4.70
  -7   7   1   75.29   11.20
   7  -7  -1   79.09    7.80
  -8   6   1  393.96   29.20
   8  -6  -1  385.16   25.90
  -9   5   1    4.90    4.00
  -9   5   1    4.50    1.80
  -9   5   1    0.30    1.60
   9  -5  -1   -0.20    1.90
 -10   4   1  962.80   61.29
 -10   4   1 1008.60   63.59
  10  -4  -1  904.21   61.09
  10  -4  -1 1017.30   61.29
 -11   3   1  723.83   44.30
 -11   3   1  733.73   45.30
 -11   3   1  702.53   43.70
 -11   3   1  653.53   44.00
  11  -3  -1  643.84   43.90
  11  -3  -1  659.93   43.40
 -12   2   1  549.05   41.20
 -12   2   1  662.43   40.60
 -12   2   1  625.34   39.50
 -12   2   1  609.74   39.70
  12  -2  -1  627.14   40.30
  12  -2  -1  647.74   39.50
 -13   1   1  118.89    8.80
 -13   1   1  115.19   10.30
 -13   1   1  142.09    9.10
 -13   1   1  113.49    8.90
 -13   1   1  112.19    9.50
  13  -1  -1  113.39    9.50
 -14   0   1    1.70    1.60
 -14   0   1    0.20    1.40
 -14   0   1    3.20    1.70
 -14   0   1    3.70    3.20
 -14   0   1    3.50    1.90
  14   0  -1   -2.00    1.80
 -15  -1   1 2900.01  168.98
 -15  -1   1 2586.44  166.78
  15   1  -1 2682.83  166.68
  15   1  -1 2605.44  168.38
 -16  -2   1 1234.58   75.29
  16   2  -1 1160.88   77.19
 -17  -3   1   19.80    3.80
  17   3  -1   24.70    5.50
 -18  -4   1 1439.96   86.99
  18   4  -1 1316.17   89.39
 -19  -5   1   68.79    7.20
  19   5  -1   45.80    8.90
 -20  -6   1  406.26   27.40
  20   6  -1  371.46   30.40
 -21  -7   1  569.44   37.20
  21   7  -1  488.15   40.00
  -5   9   0   13.40   10.60
   5  -9   0   28.20    6.30
  -6   8   0 2704.23  161.58
   6  -8   0 2312.97  155.98
  -7   7   0  126.79   14.10
   7  -7   0  113.69   10.20
  -8   6   0   13.40    5.10
   8  -6   0   23.20    3.80
  -9   5   0   52.79    5.10
  -9   5   0   54.49    4.60
  -9   5   0   61.29    8.60
   9  -5   0   44.10    5.40
 -10   4   0  441.56   32.60
 -10   4   0  463.75   30.60
  10  -4   0  480.25   30.70
  10  -4   0  502.05   30.60
 -11   3   0  237.18   15.20
 -11   3   0  183.98   15.10
 -11   3   0  235.58   15.60
 -11   3   0  212.38   16.30
  11  -3   0  208.68   15.10
  11  -3   0  212.18   14.70
 -12   2   0  726.83   46.30
 -12   2   0  706.93   45.50
 -12   2   0  739.33   45.30
  12  -2   0  714.03   45.90
  12  -2   0  681.93   45.10
 -13   1   0    6.60    3.30
 -13   1   0    4.60    2.10
 -13   1   0    6.90    2.20
 -13   1   0    8.10    2.10
 -13   1   0   10.30    2.90
  13  -1   0    4.00    1.90
 -14   0   0  139.09   11.40
 -14   0   0  133.09    9.10
 -14   0   0  124.49    9.40
 -14   0   0  128.79    9.70
 -14   0   0  137.49    9.70
  14   0   0  117.59   10.40
 -15  -1   0   29.40    3.60
  15   1   0   33.60    5.10
 -16  -2   0   10.60    2.90
  16   2   0   11.40    3.60
 -17  -3   0  389.76   26.00
  17   3   0  391.96   28.30
 -18  -4   0  500.95   31.80
  18   4   0  454.85   34.00
 -19  -5   0  261.67   18.90
  19   5   0  260.07   21.80
 -20  -6   0  127.49   11.50
  20   6   0  104.99   14.60
 -21  -7   0   33.50    8.40
  21   7   0   44.60   10.80
  -5   9  -1   10.00    9.80
   5  -9   1    6.90    5.10
  -6   8  -1    5.50    7.50
  -7   7  -1   23.10    7.10
   7  -7   1   24.10    4.60
  -8   6  -1  308.07   24.80
   8  -6   1  321.37   21.60
  -9   5  -1  580.34   40.50
  -9   5  -1  541.75   36.90
   9  -5   1  578.44   37.70
   9  -5   1  633.04   37.00
 -10   4  -1 1052.59   64.49
 -10   4  -1  983.80   66.49
  10  -4   1  968.50   64.39
  10  -4   1 1082.49   64.39
 -11   3  -1  425.06   28.20
 -11   3  -1  447.96   27.30
 -11   3  -1  407.56   26.80
  11  -3   1  428.96   27.00
  11  -3   1  392.46   26.50
  11  -3   1  339.57   27.20
 -12   2  -1  593.54   38.20
 -12   2  -1  635.84   39.30
 -12   2  -1  605.64   39.40
  12  -2   1  598.44   38.10
  12  -2   1  611.04   38.90
  12  -2   1  532.35   39.40
 -13   1  -1  629.24   43.60
 -13   1  -1  671.83   43.20
 -13   1  -1  662.13   43.00
  13  -1   1  738.13   43.50
  13  -1   1  685.73   44.00
 -14   0  -1    2.00    3.00
 -14   0  -1    3.70    2.10
 -14   0  -1    2.20    2.00
 -14   0  -1    1.70    2.20
  14   0   1    1.40    1.70
  14   0   1    4.00    2.40
 -15  -1  -1 1271.87   81.69
 -15  -1  -1 1313.67   82.59
  15   1   1 1323.67   84.19
  15   1   1 1368.26   81.79
 -16  -2  -1  363.06   23.80
  16   2   1  352.56   25.50
 -17  -3  -1  213.38   15.10
  17   3   1  206.48   17.20
 -18  -4  -1  541.65   34.80
  18   4   1  512.45   37.30
 -19  -5  -1   15.70    3.90
  19   5   1   11.50    5.80
 -20  -6  -1   31.10    6.30
  20   6   1   39.20    8.50
 -21  -7  -1 1068.99   69.49
  -5   9  -2    7.10    8.70
   5  -9   2    7.70    4.80
   6  -8   2   32.40    6.00
  -7   7  -2  194.58   19.00
   7  -7   2  185.18   14.40
  -8   6  -2   83.99   10.70
   8  -6   2   82.09    7.90
  -9   5  -2   22.70    3.50
  -9   5  -2   14.80    5.00
   9  -5   2   26.20    3.60
   9  -5   2   21.30    3.90
 -10   4  -2 1199.48   77.09
 -10   4  -2 1250.47   79.29
  10  -4   2 1212.08   76.99
  10  -4   2 1241.38   76.89
 -11   3  -2 2740.93  187.78
 -11   3  -2 3312.77  187.18
  11  -3   2 2951.80  187.48
  11  -3   2 3033.80  186.38
  11  -3   2 3001.70  186.58
 -12   2  -2 2214.18  141.69
 -12   2  -2 2277.07  140.49
 -12   2  -2 2324.77  141.49
  12  -2   2 2228.68  140.49
  12  -2   2 2226.58  141.19
  12  -2   2 2307.87  141.19
 -13   1  -2  181.48   13.30
 -13   1  -2  183.78   13.30
 -13   1  -2  184.58   14.50
 -13   1  -2  198.88   14.90
  13  -1   2  195.48   14.10
  13  -1   2  191.88   13.80
 -14   0  -2 2554.34  153.88
 -14   0  -2 2449.35  152.38
 -14   0  -2 2405.66  152.28
 -14   0  -2 2537.95  152.58
  14   0   2 2297.27  153.38
  14   0   2 2484.75  152.28
 -15  -1  -2  140.99   10.70
 -15  -1  -2  163.88   11.30
  15   1   2  161.88   10.80
  15   1   2  148.39   12.50
 -16  -2  -2   16.30    3.20
 -16  -2  -2   11.90    2.10
  16   2   2   12.60    2.10
  16   2   2   16.30    4.30
 -17  -3  -2  580.84   37.20
  17   3   2  561.54   39.40
 -18  -4  -2  468.75   30.50
  18   4   2  445.56   33.00
 -19  -5  -2  166.18   12.90
  19   5   2  143.09   15.60
 -20  -6  -2  272.07   20.00
  20   6   2  258.27   23.20
 -21  -7  -2   61.39    8.90
  21   7   2   50.39   11.00
  -5   9  -3 1504.25   95.19
   5  -9   3 1297.57   88.49
  -6   8  -3  484.75   36.30
   6  -8   3  434.16   30.80
  -7   7  -3   29.40    7.60
   7  -7   3   15.80    4.40
  -8   6  -3  418.46   31.20
  -8   6  -3  506.85   35.70
   8  -6   3  494.65   32.30
   8  -6   3  533.35   31.10
  -9   5  -3   51.39    8.30
  -9   5  -3   38.80    6.10
   9  -5   3   47.20    5.00
   9  -5   3   40.70    5.40
 -10   4  -3   33.90    6.20
 -10   4  -3   23.80    4.60
  10  -4   3   36.60    4.60
  10  -4   3   30.30    4.50
 -11   3  -3  861.31   55.49
 -11   3  -3  833.42   56.39
  11  -3   3  877.61   54.79
  11  -3   3  878.41   55.09
 -12   2  -3    1.90    3.20
 -12   2  -3    6.80    2.90
  12  -2   3    4.70    2.00
  12  -2   3    3.10    2.10
  12  -2   3    1.20    2.90
 -13   1  -3    4.90    2.70
 -13   1  -3    3.50    2.00
 -13   1  -3    3.00    3.40
  13  -1   3    2.50    2.40
  13  -1   3    2.30    3.00
 -14   0  -3   -1.70    2.90
 -14   0  -3    1.10    2.00
  14   0   3    2.80    2.70
  14   0   3   -2.60    2.30
 -15  -1  -3  132.69   10.20
 -15  -1  -3  141.29   10.40
  15   1   3  125.99   11.80
  15   1   3  148.59   10.50
 -16  -2  -3   68.09    6.50
 -16  -2  -3   59.39    5.80
  16   2   3   60.59    8.00
  16   2   3   72.39    6.10
 -17  -3  -3   29.50    4.20
 -17  -3  -3   32.00    4.50
  17   3   3   28.60    4.30
  17   3   3   22.70    5.80
 -18  -4  -3  293.17   20.70
  18   4   3  246.38   20.60
  18   4   3  344.77   19.60
  18   4   3  294.97   23.40
 -19  -5  -3  313.27   21.70
  19   5   3  296.07   25.00
 -20  -6  -3   17.80    5.10
  20   6   3   22.30    8.60
 -21  -7  -3  440.86   29.90
  21   7   3  379.96   33.90
  -5   9  -4   31.40   10.80
   5  -9   4   18.20    6.70
   6  -8   4    2.80    4.20
  -7   7  -4    0.50    6.40
   7  -7   4   11.20    4.00
  -8   6  -4  714.43   57.09
  -8   6  -4  836.42   54.29
   8  -6   4  894.21   54.79
   8  -6   4  942.01   53.89
  -9   5  -4   52.89    7.90
  -9   5  -4   74.59    9.70
   9  -5   4   79.79    7.10
   9  -5   4   59.19    6.40
 -10   4  -4   86.79    9.80
 -10   4  -4   69.19    8.50
  10  -4   4   75.69    7.30
  10  -4   4   77.69    6.90
 -11   3  -4  640.54   41.10
 -11   3  -4  642.44   42.00
  11  -3   4  637.64   40.00
  11  -3   4  566.64   40.20
 -12   2  -4  369.06   26.30
 -12   2  -4  371.46   26.40
  12  -2   4  389.26   26.40
  12  -2   4  369.86   24.70
  12  -2   4  372.96   25.50
 -13   1  -4  207.98   14.50
 -13   1  -4  222.58   15.60
  13  -1   4  189.68   15.40
  13  -1   4  197.08   15.30
 -14   0  -4 2767.52  168.78
 -14   0  -4 2601.24  169.28
  14   0   4 2818.52  169.18
  14   0   4 2691.43  170.18
 -15  -1  -4    5.70    3.50
 -15  -1  -4    5.70    2.20
  15   1   4    7.30    3.20
  15   1   4   19.10    4.20
 -16  -2  -4  473.75   32.50
 -16  -2  -4  519.85   32.80
  16   2   4  532.85   32.80
  16   2   4  480.95   34.70
 -17  -3  -4   73.89    7.20
 -17  -3  -4   72.69    7.10
  17   3   4   73.29    9.30
  17   3   4   66.59    7.00
 -18  -4  -4  110.79    9.40
 -18  -4  -4   98.29    9.10
  18   4   4  100.29   12.20
  18   4   4   99.89   10.50
  19   5   4  332.87   26.70
 -20  -6  -4  583.24   35.90
  20   6   4  436.16   43.60
  -5   9  -5   95.29   19.80
   5  -9   5  110.99   12.70
  -6   8  -5  113.09   17.00
   6  -8   5   92.99   10.70
  -7   7  -5  220.68   21.50
   7  -7   5  225.18   15.50
   7  -7   5  215.88   16.90
  -8   6  -5  193.98   17.60
  -8   6  -5  160.78   14.80
   8  -6   5  167.48   13.50
  -9   5  -5  768.02   55.19
  -9   5  -5  748.73   53.09
   9  -5   5  856.21   52.79
   9  -5   5  901.81   52.59
 -10   4  -5 1522.25  103.29
 -10   4  -5 1632.14  104.99
  10  -4   5 1734.73  102.89
  10  -4   5 1654.83  102.59
 -11   3  -5  170.78   14.20
 -11   3  -5  150.18   14.50
  11  -3   5  146.49   11.80
  11  -3   5  170.68   12.50
 -12   2  -5  304.67   20.30
  12  -2   5  250.57   19.20
  12  -2   5  258.97   18.50
 -13   1  -5 1781.02  114.69
 -13   1  -5 1911.71  113.69
  13  -1   5 1855.51  114.79
  13  -1   5 1728.03  114.39
 -14   0  -5    0.90    2.00
 -14   0  -5    3.70    2.70
  14   0   5    1.60    3.40
  14   0   5   -0.70    2.70
 -15  -1  -5   79.59    7.70
 -15  -1  -5   91.69    7.50
  15   1   5   82.39    9.20
  15   1   5   84.49    8.80
 -16  -2  -5  740.93   47.50
 -16  -2  -5  714.73   47.60
  16   2   5  763.42   47.80
  16   2   5  752.52   49.90
 -17  -3  -5  298.77   21.00
  17   3   5  278.37   23.30
  17   3   5  331.17   21.40
 -18  -4  -5   59.69    6.90
  18   4   5   46.30    9.10
 -19  -5  -5  312.77   22.00
  19   5   5  294.87   25.50
 -20  -6  -5  212.68   17.30
  20   6   5  222.68   21.80
  -5   9  -6   79.89   14.10
   5  -9   6   80.89   11.00
  -6   8  -6    2.30    8.50
   6  -8   6   -0.40    5.20
  -7   7  -6   23.20    7.20
   7  -7   6   11.30    7.00
   7  -7   6   25.10    3.90
  -8   6  -6   28.40    7.10
   8  -6   6   34.90    5.30
   8  -6   6   31.20    4.50
  -9   5  -6   94.59   11.70
  -9   5  -6   69.69   10.10
   9  -5   6  104.29    8.80
   9  -5   6  100.79    8.40
 -10   4  -6    2.70    3.90
  10  -4   6   12.40    3.50
  10  -4   6    6.70    2.80
 -11   3  -6  243.18   19.70
  11  -3   6  252.17   17.90
  11  -3   6  264.47   18.50
 -12   2  -6   16.80    4.70
  12  -2   6   18.30    3.60
 -13   1  -6   32.30    4.60
 -13   1  -6   31.20    5.50
  13  -1   6   35.70    5.70
 -14   0  -6   69.59    6.50
 -14   0  -6   71.89    7.70
  14   0   6   61.69    8.00
 -15  -1  -6   49.00    6.70
 -15  -1  -6   64.79    6.30
  15   1   6   64.49    8.00
  15   1   6   59.89    8.20
 -16  -2  -6 1725.23  107.29
 -16  -2  -6 1600.24  107.49
  16   2   6 1791.32  107.89
  16   2   6 1746.23  110.09
 -17  -3  -6  101.29    8.80
 -17  -3  -6   90.79    8.80
  17   3   6   92.99   11.50
  17   3   6  101.69   10.70
 -18  -4  -6  460.75   34.90
 -18  -4  -6  597.04   35.40
  18   4   6  545.35   38.40
 -19  -5  -6   17.20    4.60
  19   5   6    3.20    6.20
 -20  -6  -6  169.28   15.20
  20   6   6  160.08   20.10
  -6   8  -7  125.39   19.40
   6  -8   7  113.49   12.60
   7  -7   7  223.28   18.30
   7  -7   7  253.47   17.30
  -8   6  -7  335.97   27.10
   8  -6   7  320.07   22.80
   8  -6   7  341.47   23.40
  -9   5  -7   46.40    8.50
   9  -5   7   26.40    5.30
   9  -5   7   33.40    5.30
 -10   4  -7  942.61   67.59
  10  -4   7 1018.60   65.49
  10  -4   7 1120.19   66.29
 -11   3  -7  493.05   34.40
  11  -3   7  499.75   32.10
  11  -3   7  461.55   32.70
 -12   2  -7  242.48   16.60
 -12   2  -7  208.88   18.10
  12  -2   7  241.18   17.80
  12  -2   7  234.18   16.50
 -13   1  -7  205.38   16.90
 -13   1  -7  235.68   15.40
  13  -1   7  195.98   16.50
 -14   0  -7    0.60    3.50
 -14   0  -7    2.00    2.40
  14   0   7    2.50    3.40
 -15  -1  -7  567.14   41.70
 -15  -1  -7  714.73   41.30
  15   1   7  627.94   43.50
 -16  -2  -7  659.53   45.40
  16   2   7  739.03   48.10
 -17  -3  -7    5.50    3.30
 -17  -3  -7    0.00    3.40
  17   3   7   -0.10    4.60
 -18  -4  -7  315.97   20.40
 -18  -4  -7  263.97   20.50
  18   4   7  242.28   30.20
 -19  -5  -7  521.95   33.80
  19   5   7  468.05   37.70
  -6   8  -8   13.60   10.00
   6  -8   8    6.50    6.00
  -7   7  -8   73.69   12.90
   7  -7   8   71.79    8.40
   7  -7   8   81.79    9.80
  -8   6  -8  769.32   55.19
   8  -6   8  754.52   51.79
   8  -6   8  868.41   52.19
  -9   5  -8 1310.37   95.89
   9  -5   8 1655.93   94.39
   9  -5   8 1471.35   93.59
 -10   4  -8  143.59   14.90
  10  -4   8  146.29   12.20
  10  -4   8  154.68   12.80
 -11   3  -8   25.40    6.10
  11  -3   8   30.90    4.70
  11  -3   8   28.20    5.40
 -12   2  -8 1919.11  126.09
 -12   2  -8 2057.09  124.19
  12  -2   8 1978.80  125.69
 -13   1  -8   57.69    8.90
 -13   1  -8   77.09    7.20
  13  -1   8   76.29    8.80
 -14   0  -8   17.20    3.60
 -14   0  -8   15.00    5.30
  14   0   8   15.10    4.60
 -15  -1  -8   49.80    5.90
 -15  -1  -8   34.80    6.20
  15   1   8   44.80    7.40
 -16  -2  -8  346.87   25.10
 -16  -2  -8  376.46   24.10
  16   2   8  332.37   26.80
 -17  -3  -8   75.69    7.80
 -17  -3  -8   57.59    8.70
 -18  -4  -8  751.02   44.10
 -18  -4  -8  563.64   43.00
  18   4   8  656.93   47.10
 -19  -5  -8  335.37   23.50
  19   5   8  310.47   28.10
  -7   7  -9   51.49   11.80
   7  -7   9   45.40    6.30
   7  -7   9   39.20    7.00
  -8   6  -9    2.00    6.40
   8  -6   9   -3.30    3.70
   8  -6   9   -5.30    4.80
  -9   5  -9   59.39    9.60
   9  -5   9   68.39    8.30
   9  -5   9   45.60    6.90
 -10   4  -9  257.37   23.60
  10  -4   9  307.17   21.10
  10  -4   9  311.57   22.00
 -11   3  -9  317.07   25.20
  11  -3   9  314.77   23.70
  11  -3   9  332.47   22.50
 -12   2  -9   20.60    4.20
 -12   2  -9   30.20    6.50
  12  -2   9   23.20    5.60
 -13   1  -9   45.80    5.90
 -13   1  -9   60.99    8.40
  13  -1   9   33.10    6.90
 -14   0  -9    2.60    4.40
 -14   0  -9    1.40    2.80
  14   0   9   -2.10    4.30
 -15  -1  -9  476.25   35.50
 -15  -1  -9  559.44   34.20
  15   1   9  523.35   37.20
 -16  -2  -9  117.79    9.70
 -16  -2  -9   97.09   11.30
  16   2   9  117.79   13.70
 -17  -3  -9  407.76   26.50
 -17  -3  -9  366.86   27.50
  17   3   9  386.06   30.20
 -18  -4  -9   -5.00    3.70
 -18  -4  -9    7.10    5.50
  18   4   9    5.90    7.10
  -7   7 -10    2.60    7.80
   7  -7  10   -1.60    5.20
   7  -7  10    2.90    7.20
  -8   6 -10  124.99   17.90
   8  -6  10  147.39   12.80
   8  -6  10  109.09   12.10
  -9   5 -10  305.77   25.50
   9  -5  10  278.97   21.80
   9  -5  10  322.57   22.90
 -10   4 -10   34.70    7.60
  10  -4  10   26.70    5.90
  10  -4  10   30.90    5.30
 -11   3 -10    4.20    6.40
 -11   3 -10    1.50    3.20
  11  -3  10    4.00    4.40
  11  -3  10    1.10    3.50
 -12   2 -10 1215.18   75.19
  12  -2  10 1157.08   77.49
 -13   1 -10   97.09   12.90
 -13   1 -10  112.49    9.20
  13  -1  10   94.89   11.50
 -14   0 -10  466.05   34.90
 -14   0 -10  550.04   32.60
  14   0  10  435.26   40.50
 -15  -1 -10    4.00    5.40
 -15  -1 -10   -1.50    3.10
  15   1  10    9.70    5.40
 -16  -2 -10    2.20    3.40
 -16  -2 -10   -2.50    5.00
  16   2  10    3.70    6.40
 -17  -3 -10  280.07   23.50
 -17  -3 -10  332.97   22.00
  17   3  10  313.17   26.90
 -18  -4 -10  157.08   12.90
 -18  -4 -10  119.29   15.00
  18   4  10  124.89   17.40
  -8   6 -11  259.37   24.30
   8  -6  11  261.27   19.60
   8  -6  11  213.58   19.40
  -9   5 -11    5.10    7.20
   9  -5  11    3.40    5.10
   9  -5  11   -5.50    5.20
 -10   4 -11   88.79   15.00
  10  -4  11  125.09   11.60
  10  -4  11  134.89   13.10
 -11   3 -11  441.76   30.80
  11  -3  11  483.55   36.10
 -12   2 -11   44.90   14.10
 -12   2 -11   70.09    7.40
  12  -2  11   54.79    8.90
 -13   1 -11  162.28   16.60
 -13   1 -11  160.48   12.20
  13  -1  11  135.99   15.10
 -14   0 -11   -2.10    3.40
 -14   0 -11   -6.90    5.30
  14   0  11    2.50    6.10
 -15  -1 -11  802.02   58.69
 -15  -1 -11  979.80   56.69
  15   1  11  860.01   60.79
 -16  -2 -11    9.60    4.00
 -16  -2 -11    5.00    6.20
  16   2  11    7.40    8.20
 -17  -3 -11    7.30    7.40
  17   3  11   15.90    9.20
  -9   5 -12   66.49   12.10
   9  -5  12   66.89    9.30
   9  -5  12   66.69    9.90
 -10   4 -12    4.60    8.10
  10  -4  12    4.40    4.80
  10  -4  12    8.00    6.10
 -11   3 -12  140.09   11.50
 -11   3 -12  108.49   15.40
  11  -3  12  132.49   14.50
 -12   2 -12   24.50    8.40
 -12   2 -12   26.60    4.80
  12  -2  12   30.40    7.70
 -13   1 -12   68.39    8.00
 -13   1 -12   65.09   11.60
  13  -1  12   60.89   10.90
 -14   0 -12 1161.58   79.29
 -14   0 -12 1227.78   75.89
  14   0  12 1201.88   80.49
 -15  -1 -12    7.60    3.80
 -15  -1 -12   18.10    7.60
  15   1  12   10.70   10.70
 -16  -2 -12  612.04   46.90
 -16  -2 -12  698.73   44.10
  16   2  12  722.33   49.70
 -11   3 -13   45.70   10.50
 -11   3 -13   41.90    6.20
  11  -3  13   44.10    9.80
 -12   2 -13  260.27   18.90
 -12   2 -13  232.88   24.30
  12  -2  13  283.77   25.20
 -13   1 -13  243.88   24.30
 -13   1 -13  301.27   19.60
  13  -1  13  256.87   23.80
 -14   0 -13   -0.70    4.10
 -14   0 -13   -7.90    8.10
  14   0  13   -7.60    7.10
 -14   2  15    9.40    9.50
  14  -2 -15    1.30    5.20
 -15   1  15  309.87   26.80
  15  -1 -15  258.57   23.30
 -16   0  15    0.20    8.50
  16   0 -15   -9.40    5.40
 -12   4  14  -10.80    8.90
  12  -4 -14    2.20    6.20
 -13   3  14  200.38   21.00
  13  -3 -14  163.78   17.00
 -14   2  14  171.48   20.10
  14  -2 -14  187.18   16.10
 -15   1  14   13.00    8.30
  15  -1 -14    9.30    4.70
 -16   0  14  553.74   41.10
  16   0 -14  507.85   36.40
 -17  -1  14   28.80   11.30
  17   1 -14   23.70    6.20
 -18  -2  14   24.30    9.00
  18   2 -14   27.70    6.20
 -11   5  13  126.89   16.50
  11  -5 -13  140.59   15.70
 -12   4  13   68.79   11.60
  12  -4 -13   51.69    9.70
 -13   3  13   37.80    8.40
  13  -3 -13   46.40    7.80
 -14   2  13   69.99   12.20
  14  -2 -13   71.59    9.80
 -15   1  13  568.74   41.50
  15  -1 -13  536.85   39.00
 -16   0  13    6.40    7.10
  16   0 -13    1.10    4.00
 -17  -1  13  106.29   14.60
  17   1 -13   68.29    9.40
 -18  -2  13  138.99   18.30
  18   2 -13  150.38   13.40
 -19  -3  13  542.65   40.20
  19   3 -13  456.75   33.50
 -10   6  12  458.35   35.90
  10  -6 -12  482.35   34.90
 -11   5  12   39.90    9.20
  11  -5 -12   51.69    8.90
 -12   4  12  -11.20    5.70
  12  -4 -12    9.20    4.90
 -13   3  12  137.79   15.80
  13  -3 -12  130.39   13.70
 -14   2  12  491.55   36.30
  14  -2 -12  469.25   33.30
 -15   1  12  166.38   17.30
  15  -1 -12  183.58   14.80
 -16   0  12   83.09   15.40
  16   0 -12   96.79    9.70
 -17  -1  12  170.58   17.10
  17   1 -12  142.49   12.80
 -18  -2  12    1.10    6.70
  18   2 -12   10.50    3.90
 -19  -3  12   94.59   14.30
  19   3 -12   68.59    9.00
 -20  -4  12  452.05   37.80
  20   4 -12  467.75   31.70
   9  -7 -11   16.90    6.90
 -10   6  11  218.08   20.60
  10  -6 -11  223.68   19.30
 -11   5  11   -4.10    6.30
  11  -5 -11   17.40    6.10
 -12   4  11   75.19   11.50
 -13   3  11  196.08   18.40
  13  -3 -11  195.38   15.80
 -14   2  11   -3.70    5.30
  14  -2 -11   12.20    4.50
 -15   1  11  511.65   39.40
  15  -1 -11  578.94   37.10
 -16   0  11   -3.20    4.90
 -16   0  11    1.60    1.50
  16   0 -11    5.00    3.30
 -17  -1  11  430.36   28.50
 -17  -1  11  425.86   33.60
  17   1 -11  484.85   30.70
 -18  -2  11   42.30    8.40
 -18  -2  11   33.40    4.00
  18   2 -11   30.90    5.20
 -19  -3  11  323.97   26.50
 -19  -3  11  301.47   21.10
  19   3 -11  323.97   22.40
 -20  -4  11   67.89   11.30
 -20  -4  11   55.09    7.50
  20   4 -11   56.39    8.00
 -21  -5  11    6.20    5.20
 -21  -5  11   -5.30   10.10
   9  -7 -10   67.49    9.10
   9  -7 -10   73.29   12.60
 -10   6  10   80.89   12.00
  10  -6 -10   85.19    7.30
  10  -6 -10  104.29   12.40
 -11   5  10    9.30    5.30
  11  -5 -10   16.10    8.70
  11  -5 -10   11.60    2.50
 -12   4  10   -3.00    4.80
 -12   4  10    2.50    2.70
  12  -4 -10    1.20    3.60
 -13   3  10  265.77   20.90
 -13   3  10  230.88   15.50
  13  -3 -10  252.97   18.60
 -14   2  10 2385.46  148.39
  14  -2 -10 2264.27  145.59
 -15   1  10  206.08   14.80
 -15   1  10  218.48   14.10
 -15   1  10  253.37   20.10
  15  -1 -10  228.58   16.70
 -16   0  10  177.78   12.80
 -16   0  10  196.58   17.80
 -16   0  10  211.78   13.50
  16   0 -10  198.48   14.90
 -17  -1  10   -0.10    5.40
  17   1 -10   -1.30    2.80
 -18  -2  10 1345.27   88.29
 -18  -2  10 1417.26   93.09
  18   2 -10 1492.15   89.59
 -19  -3  10  122.19   10.10
  19   3 -10  130.19   10.70
 -20  -4  10    0.90    6.60
 -20  -4  10    0.30    3.60
  20   4 -10    3.60    3.60
 -21  -5  10  531.45   38.80
 -21  -5  10  477.55   33.60
   8  -8  -9  325.37   22.30
   8  -8  -9  330.97   27.40
  -9   7   9  248.58   20.70
   9  -7  -9  272.07   22.10
   9  -7  -9  240.58   17.30
 -10   6   9   96.39   12.00
  10  -6  -9  123.09    8.80
  10  -6  -9  106.39   12.30
 -11   5   9  146.39   15.20
  11  -5  -9  173.08   14.80
  11  -5  -9  193.18   12.20
 -12   4   9    0.00    2.70
 -12   4   9   -2.10    4.80
  12  -4  -9    3.30    2.40
  12  -4  -9    0.40    3.20
 -13   3   9  339.27   24.20
 -13   3   9  392.66   24.10
 -13   3   9  398.46   28.50
  13  -3  -9  395.06   26.60
 -14   2   9  321.77   24.90
 -14   2   9  334.67   20.70
 -14   2   9  309.97   20.50
  14  -2  -9  322.27   22.70
 -15   1   9  366.26   25.00
 -15   1   9  419.26   25.40
 -15   1   9  386.66   29.40
  15  -1  -9  411.86   27.10
 -16   0   9    5.20    2.80
 -16   0   9    1.80    3.90
 -16   0   9   -1.70    1.80
  16   0  -9    0.20    2.40
 -17  -1   9   30.60    7.30
 -17  -1   9   36.40    4.10
 -17  -1   9   39.30    5.30
  17   1  -9   46.90    5.30
  17   1  -9   43.10    5.30
 -18  -2   9  144.49   10.80
 -18  -2   9  163.18   15.80
  18   2  -9  148.59   11.60
 -19  -3   9  185.78   18.00
 -19  -3   9  177.78   13.50
  19   3  -9  197.18   13.90
 -20  -4   9  227.28   16.90
 -20  -4   9  193.78   26.60
  20   4  -9  252.57   16.80
 -21  -5   9   20.20    5.20
 -21  -5   9   16.20    8.20
  -8   8   8  355.86   32.30
   8  -8  -8  318.47   28.00
   8  -8  -8  328.07   22.60
  -9   7   8   99.79   11.00
   9  -7  -8   94.99    8.20
   9  -7  -8   95.09   12.80
 -10   6   8   79.59   10.40
  10  -6  -8   92.29   11.40
  10  -6  -8  105.39    7.90
 -11   5   8  275.47   21.10
 -11   5   8  262.97   18.90
  11  -5  -8  270.97   20.80
  11  -5  -8  292.37   18.40
 -12   4   8 1525.85  101.59
 -12   4   8 1546.65   98.69
  12  -4  -8 1535.05  100.79
  12  -4  -8 1741.43   98.79
 -13   3   8   81.39    7.20
 -13   3   8   80.49    6.90
 -13   3   8   74.09    9.70
  13  -3  -8   79.59    8.40
 -14   2   8  179.78   12.30
 -14   2   8  175.98   12.20
 -14   2   8  164.28   15.30
  14  -2  -8  185.88   13.80
 -15   1   8    4.90    2.60
 -15   1   8   -1.40    3.50
 -15   1   8    0.10    1.70
  15  -1  -8    3.40    2.40
 -16   0   8  271.17   19.10
 -16   0   8  301.77   23.10
 -16   0   8  294.57   19.40
  16   0  -8  305.17   20.20
 -17  -1   8   85.69    6.70
 -17  -1   8   62.69   10.00
  17   1  -8   86.29    7.30
  17   1  -8   86.29    7.10
 -18  -2   8  965.70   69.49
 -18  -2   8 1145.79   67.79
 -18  -2   8 1059.59   71.69
  18   2  -8 1133.89   68.19
 -19  -3   8    4.60    2.90
 -19  -3   8    6.30    5.50
  19   3  -8   10.60    2.60
 -20  -4   8    6.10    3.40
 -20  -4   8    7.30    5.90
  20   4  -8    6.80    2.70
 -21  -5   8   32.50    9.10
 -21  -5   8   60.79    7.90
 -22  -6   8  240.98   19.80
 -22  -6   8  263.07   24.40
  -8   8   7   37.30   10.90
   8  -8  -7   28.30    4.40
  -9   7   7    7.20    4.40
   9  -7  -7    3.20    5.30
   9  -7  -7   -1.10    2.50
 -10   6   7   16.40    4.30
  10  -6  -7   14.80    5.50
  10  -6  -7   13.30    2.90
 -11   5   7  155.18   15.80
 -11   5   7  154.18   13.10
  11  -5  -7  132.59   12.80
  11  -5  -7  166.48   11.00
 -12   4   7  371.76   27.30
 -12   4   7  375.56   25.00
  12  -4  -7  403.66   24.70
  12  -4  -7  366.76   26.50
 -13   3   7 1127.29   72.39
 -13   3   7 1098.79   69.49
  13  -3  -7 1130.09   69.59
  13  -3  -7 1092.89   70.89
 -14   2   7  454.75   32.30
 -14   2   7  448.26   29.30
 -14   2   7  458.25   29.40
  14  -2  -7  463.65   30.50
 -15   1   7  162.38   13.80
 -15   1   7  155.28   10.90
 -15   1   7  144.69   10.70
  15  -1  -7  141.69   11.30
 -16   0   7    0.90    1.80
 -16   0   7    3.30    4.50
 -16   0   7    4.30    3.80
 -16   0   7    5.00    2.50
  16   0  -7    1.10    2.10
 -17  -1   7  803.72   52.89
 -17  -1   7  930.01   51.59
 -17  -1   7  744.03   54.69
  17   1  -7  814.42   51.69
  17   1  -7  776.82   51.39
 -18  -2   7  221.28   16.90
 -18  -2   7  182.88   14.60
 -18  -2   7  215.88   18.10
  18   2  -7  229.28   14.60
 -19  -3   7   49.00    8.80
 -19  -3   7   65.39    9.10
 -19  -3   7   61.79    6.50
 -20  -4   7  221.38   19.80
 -20  -4   7  225.28   16.40
  20   4  -7  220.28   15.60
 -21  -5   7  366.66   25.20
 -21  -5   7  346.37   29.30
 -22  -6   7  322.07   23.30
 -22  -6   7  294.37   27.20
  -7   9   6   55.79   14.20
   7  -9  -6   47.90    6.80
  -8   8   6 1332.87   87.79
   8  -8  -6 1247.28   81.09
  -9   7   6   12.20    4.50
  -9   7   6   22.50   14.70
   9  -7  -6   10.40    3.40
   9  -7  -6   11.60    6.10
 -10   6   6    1.90    5.10
 -10   6   6   -5.10    4.00
  10  -6  -6    3.80    2.30
  10  -6  -6    2.60    4.00
 -11   5   6   35.90    6.30
 -11   5   6   30.00    5.00
  11  -5  -6   28.50    3.70
  11  -5  -6   23.10    5.40
 -12   4   6  154.78   13.40
 -12   4   6  146.39   14.00
 -12   4   6  159.18   12.00
  12  -4  -6  144.19   12.70
  12  -4  -6  177.38   11.20
 -13   3   6  633.74   44.80
 -13   3   6  704.63   47.00
 -13   3   6  672.13   42.70
  13  -3  -6  645.54   42.30
  13  -3  -6  704.23   43.80
 -14   2   6  391.26   25.10
 -14   2   6  368.26   25.20
 -14   2   6  370.06   27.60
  14  -2  -6  409.06   25.90
 -15   1   6  138.09   11.00
 -15   1   6  170.58   14.00
 -15   1   6  171.48   13.00
  15  -1  -6  146.19   11.30
 -16   0   6   13.10    3.90
 -16   0   6   12.40    4.40
 -16   0   6    9.00    2.50
 -16   0   6    9.90    2.20
  16   0  -6    7.60    2.30
 -17  -1   6   51.69    8.20
 -17  -1   6   47.70    5.10
 -17  -1   6   47.90    7.30
  17   1  -6   51.49    7.30
  17   1  -6   55.99    5.40
 -18  -2   6  657.73   40.50
 -18  -2   6  619.44   43.90
 -18  -2   6  580.94   41.00
  18   2  -6  662.43   40.10
 -19  -3   6  678.53   43.20
 -19  -3   6  637.04   43.40
 -19  -3   6  671.03   46.90
  19   3  -6  694.13   42.30
 -20  -4   6  115.19    9.80
 -20  -4   6  100.79   12.10
  20   4  -6  103.09    7.90
 -21  -5   6   77.79    9.20
 -21  -5   6   89.59   12.50
 -22  -6   6  191.38   16.20
 -22  -6   6  182.38   19.40
  -7   9   5   17.00   14.10
   7  -9  -5   12.40    4.50
  -8   8   5  131.79   17.10
   8  -8  -5  128.89   10.80
  -9   7   5   16.80    7.70
   9  -7  -5    9.80    3.10
 -10   6   5  186.08   14.80
 -10   6   5  216.38   18.50
 -10   6   5  172.28   14.10
  10  -6  -5  177.88   15.70
  10  -6  -5  193.78   13.50
 -11   5   5 1048.30   65.29
  11  -5  -5 1028.10   65.79
  11  -5  -5  975.00   63.89
 -12   4   5    1.20    3.00
 -12   4   5    3.50    3.10
 -12   4   5   -0.90    3.60
  12  -4  -5    4.50    2.10
  12  -4  -5    2.40    2.90
 -13   3   5  179.78   12.90
 -13   3   5  172.48   14.30
 -13   3   5  173.78   14.60
  13  -3  -5  179.28   13.30
  13  -3  -5  181.48   12.30
 -14   2   5   -1.50    2.30
 -14   2   5   -1.60    3.00
 -14   2   5    2.40    2.10
 -14   2   5   -1.00    3.60
 -14   2   5    0.20    3.80
  14  -2  -5    3.40    2.10
 -15   1   5  770.82   44.90
 -15   1   5  672.23   47.40
 -15   1   5  627.44   44.80
 -15   1   5  804.12   46.30
  15  -1  -5  672.53   45.10
 -16   0   5   -0.40    3.10
 -16   0   5   -2.60    2.00
 -16   0   5    3.10    3.00
 -16   0   5   -0.80    1.60
  16   0  -5    2.20    2.00
 -17  -1   5 1742.13  116.79
 -17  -1   5 1795.02  113.69
 -17  -1   5 2087.19  114.09
  17   1  -5 1849.81  113.39
  17   1  -5 1750.32  116.59
  17   1  -5 1734.23  113.49
 -18  -2   5   15.40    3.90
 -18  -2   5   20.30    3.40
 -18  -2   5   20.10    5.30
  18   2  -5   17.40    2.50
  18   2  -5   10.20    4.30
 -19  -3   5  148.89   12.00
 -19  -3   5  161.48   15.20
  19   3  -5  165.28   15.60
  19   3  -5  159.48   10.50
 -20  -4   5   84.29    8.20
 -20  -4   5   88.49   11.50
  20   4  -5   77.19   11.70
 -21  -5   5  167.58   13.00
 -21  -5   5  130.69   15.90
 -22  -6   5  752.82   49.00
 -22  -6   5  712.83   60.79
  -7   9   4  443.76   35.70
   7  -9  -4  363.56   27.00
  -8   8   4    0.10    7.60
   8  -8  -4    7.20    3.50
  -9   7   4   -3.30    6.70
   9  -7  -4    8.20    2.70
 -10   6   4   23.50    3.90
 -10   6   4   24.40    6.70
 -10   6   4   26.70    4.40
  10  -6  -4   31.30    4.30
 -11   5   4   15.00    3.80
 -11   5   4   11.10    5.10
 -11   5   4   17.90    4.30
  11  -5  -4   10.90    2.70
  11  -5  -4   12.60    3.80
 -12   4   4 2365.76  132.29
 -12   4   4 2020.60  131.09
  12  -4  -4 1959.10  131.89
  12  -4  -4 2087.29  130.79
 -13   3   4 1620.94   99.99
 -13   3   4 1611.64  101.79
 -13   3   4 1630.24  101.29
  13  -3  -4 1495.25  100.49
  13  -3  -4 1657.03   99.79
 -14   2   4  335.87   23.00
 -14   2   4  328.17   21.20
 -14   2   4  339.17   22.00
 -14   2   4  290.17   21.10
 -14   2   4  300.97   22.90
  14  -2  -4  310.97   21.30
 -15   1   4  116.09   11.00
 -15   1   4  114.49    8.90
 -15   1   4  129.79   10.00
 -15   1   4  114.19    9.00
  15  -1  -4  111.49   10.40
 -16   0   4 3091.69  200.98
 -16   0   4 3354.66  201.38
 -16   0   4 3188.08  201.18
  16   0  -4 3350.46  203.58
  16   0  -4 3285.47  200.88
 -17  -1   4    8.00    2.60
 -17  -1   4   10.00    2.50
  17   1  -4   10.10    1.90
  17   1  -4    5.30    3.30
 -18  -2   4   62.59    5.90
 -18  -2   4   51.99    5.40
  18   2  -4   59.49    8.80
  18   2  -4   55.99    4.30
 -19  -3   4  455.15   28.80
  19   3  -4  407.56   31.40
 -20  -4   4   41.70    5.80
  20   4  -4   21.50    6.00
 -21  -5   4   29.40    5.50
  21   5  -4   30.40    8.50
 -22  -6   4  129.89   12.90
  22   6  -4  115.19   17.80
 -23  -7   4   32.10   11.20
 -23  -7   4   19.20    6.30
  -7   9   3  791.22   52.79
   7  -9  -3  600.44   44.20
  -8   8   3   16.10    8.50
   8  -8  -3   20.50    4.60
  -9   7   3    0.00    6.30
   9  -7  -3   -1.30    2.60
 -10   6   3    4.40    2.10
 -10   6   3    6.20    4.60
 -10   6   3    7.60    2.50
  10  -6  -3    5.70    2.40
 -11   5   3   30.20    6.50
 -11   5   3   38.50    5.10
 -11   5   3   36.90    4.90
  11  -5  -3   38.00    4.70
 -12   4   3 1671.13  101.79
 -12   4   3 1628.74  103.49
 -12   4   3 1589.54  102.09
  12  -4  -3 1583.34  100.79
 -13   3   3  341.77   24.60
 -13   3   3  360.26   24.20
 -13   3   3  336.47   24.40
 -13   3   3  353.96   23.20
 -13   3   3  351.46   23.90
  13  -3  -3  329.67   23.40
  13  -3  -3  349.37   22.70
 -14   2   3   17.10    4.50
 -14   2   3   14.90    3.70
 -14   2   3   22.10    3.90
 -14   2   3   12.40    2.70
 -14   2   3   16.10    3.30
  14  -2  -3   11.30    2.30
  14  -2  -3   16.00    3.00
  14  -2  -3   10.70    3.30
 -15   1   3   24.90    3.50
 -15   1   3   34.50    4.50
 -15   1   3   19.30    3.20
 -15   1   3   27.80    5.30
  15  -1  -3   16.70    3.90
  15  -1  -3   22.70    3.50
 -16   0   3    2.10    2.30
 -16   0   3    0.20    1.80
 -16   0   3    3.10    2.20
  16   0  -3    2.70    1.70
  16   0  -3    3.80    2.60
 -17  -1   3   47.60    4.80
 -17  -1   3   38.80    4.20
  17   1  -3   40.50    6.60
 -18  -2   3  238.88   16.30
  18   2  -3  224.48   18.40
 -19  -3   3   15.80    3.50
  19   3  -3   19.60    5.00
 -20  -4   3   14.50    4.00
  20   4  -3   17.30    5.40
 -21  -5   3  112.19   10.20
  21   5  -3   83.09   13.20
 -22  -6   3    8.50    5.00
  22   6  -3   -6.30    7.70
 -23  -7   3  250.67   24.30
 -23  -7   3  202.78   18.30
  23   7  -3  212.48   23.50
  -7   9   2    5.30    9.20
   7  -9  -2    1.20    4.10
  -8   8   2   31.80   10.60
   8  -8  -2   21.10    4.70
  -9   7   2  242.88   21.20
   9  -7  -2  202.98   15.70
 -10   6   2 1058.39   67.49
  10  -6  -2  954.10   63.49
 -11   5   2   48.50    8.60
 -11   5   2   48.90    5.90
 -11   5   2   54.99    6.10
  11  -5  -2   42.90    5.30
 -12   4   2  210.78   16.30
 -12   4   2  242.58   16.10
 -12   4   2  208.08   17.50
  12  -4  -2  205.68   14.90
 -13   3   2  541.15   36.60
 -13   3   2  557.44   38.20
 -13   3   2  628.14   37.70
 -13   3   2  537.65   37.00
  13  -3  -2  576.54   36.40
 -14   2   2  256.77   18.10
 -14   2   2  230.18   17.30
 -14   2   2  248.58   16.80
 -14   2   2  223.18   16.30
  14  -2  -2  244.68   17.40
  14  -2  -2  232.08   16.10
 -15   1   2   58.79    5.60
 -15   1   2   63.89    6.00
 -15   1   2   62.79    7.50
 -15   1   2   51.19    6.40
 -15   1   2   56.49    5.70
  15  -1  -2   63.79    6.80
 -16   0   2 1747.33  114.59
 -16   0   2 1984.30  115.09
 -16   0   2 1999.20  114.49
 -16   0   2 1674.73  114.59
  16   0  -2 1823.52  116.59
 -17  -1   2   11.20    2.50
 -17  -1   2   13.20    1.80
  17   1  -2    9.80    3.50
 -18  -2   2  279.77   18.70
  18   2  -2  262.07   20.70
 -19  -3   2   90.89    7.80
  19   3  -2   68.19    9.60
 -20  -4   2  127.99   10.80
  20   4  -2  125.39   13.60
 -21  -5   2  165.48   13.30
  21   5  -2  146.39   16.40
 -22  -6   2  671.13   42.90
  22   6  -2  600.04   46.20
 -23  -7   2  257.37   21.30
  23   7  -2  282.37   26.60
  -7   9   1    6.20    9.30
   7  -9  -1    4.60    5.00
  -8   8   1   22.50   11.20
   8  -8  -1   13.70    4.70
  -9   7   1  476.15   35.40
   9  -7  -1  452.95   30.80
 -10   6   1   37.50    7.90
  10  -6  -1   28.50    4.50
 -11   5   1  947.51   59.79
 -11   5   1  974.80   63.39
 -11   5   1  975.80   60.29
  11  -5  -1  909.11   60.19
 -12   4   1 1540.95   96.09
 -12   4   1 1418.96   97.79
  12  -4  -1 1683.03   96.19
  12  -4  -1 1478.05   95.59
 -13   3   1  481.85   34.50
 -13   3   1  520.55   33.60
 -13   3   1  547.75   34.20
  13  -3  -1  510.95   32.90
  13  -3  -1  492.85   34.80
 -14   2   1   40.70    6.10
 -14   2   1   66.99    7.70
 -14   2   1   55.99    5.30
 -14   2   1   48.20    5.60
  14  -2  -1   50.89    5.70
  14  -2  -1   49.90    4.90
 -15   1   1 2508.75  159.88
 -15   1   1 2662.83  159.68
 -15   1   1 2521.55  160.18
 -15   1   1 2337.47  159.48
 -15   1   1 2867.71  161.58
  15  -1  -1 2570.44  160.98
 -16   0   1    2.20    1.80
 -16   0   1    3.70    2.00
 -16   0   1    2.30    2.10
  16   0  -1   -0.40    2.20
 -17  -1   1   20.60    3.50
  17   1  -1   17.10    4.10
 -18  -2   1  714.63   45.10
  18   2  -1  690.83   47.30
 -19  -3   1  696.23   44.80
  19   3  -1  692.73   47.30
 -20  -4   1  662.73   42.40
  20   4  -1  631.84   45.20
 -21  -5   1    5.40    3.60
  21   5  -1    8.00    6.30
 -22  -6   1   38.20    7.30
  22   6  -1   22.00    9.10
 -23  -7   1   24.90    6.90
  23   7  -1   17.30   10.20
  -7   9   0    8.60    9.70
   7  -9   0    6.70    4.60
  -8   8   0  163.38   19.90
  -9   7   0  119.69   15.20
   9  -7   0  131.79   10.90
 -10   6   0   32.20    7.30
  10  -6   0   24.00    4.30
 -11   5   0  199.88   18.00
 -11   5   0  204.28   14.50
  11  -5   0  219.88   14.40
  11  -5   0  197.28   14.70
 -12   4   0   10.80    4.40
 -12   4   0   12.80    3.40
  12  -4   0    5.40    2.60
  12  -4   0    7.00    2.70
 -13   3   0   69.39    7.40
 -13   3   0   56.59    7.20
 -13   3   0   50.79    6.10
  13  -3   0   46.40    5.30
 -14   2   0  113.09    9.90
 -14   2   0  121.49    9.70
 -14   2   0  110.39    9.30
 -14   2   0  128.19   10.70
  14  -2   0  105.19    9.40
  14  -2   0  119.39    8.90
 -15   1   0   21.40    3.50
 -15   1   0   24.00    4.00
 -15   1   0   39.70    5.90
 -15   1   0   27.60    4.40
 -15   1   0   21.00    3.40
  15  -1   0   27.50    4.40
 -16   0   0 1034.10   66.49
 -16   0   0 1073.49   65.89
 -16   0   0 1035.10   66.29
  16   0   0 1079.39   67.99
 -17  -1   0  109.59    8.90
  17   1   0  113.29   10.50
 -18  -2   0  286.97   19.30
  18   2   0  271.87   21.40
 -19  -3   0  146.59   10.90
  19   3   0  126.09   12.80
 -20  -4   0  614.54   39.40
  20   4   0  581.74   42.00
  21   5   0   11.80    7.00
 -22  -6   0  221.38   16.90
  22   6   0  185.08   21.40
 -23  -7   0   72.19   10.20
  23   7   0   49.20   12.10
  -7   9  -1   49.30   11.70
   7  -9   1   47.40    7.20
  -8   8  -1   -2.10    7.00
   8  -8   1    3.60    3.90
  -9   7  -1 1001.00   68.29
   9  -7   1  999.60   63.99
 -10   6  -1   10.50    5.50
  10  -6   1    0.20    2.60
 -11   5  -1  493.45   33.40
 -11   5  -1  426.16   29.80
  11  -5   1  485.05   29.90
  11  -5   1  436.76   30.10
 -12   4  -1  359.06   23.50
 -12   4  -1  338.07   25.20
  12  -4   1  341.47   22.90
  12  -4   1  329.67   23.10
 -13   3  -1   69.79    7.70
  13  -3   1   74.39    6.80
  13  -3   1   76.29    6.60
  13  -3   1   67.39    8.10
 -14   2  -1  347.57   23.90
 -14   2  -1  355.56   24.40
  14  -2   1  347.37   23.50
  14  -2   1  306.57   23.30
  14  -2   1  358.76   22.80
 -15   1  -1 1348.86   86.39
 -15   1  -1 1325.57   85.79
 -15   1  -1 1389.46   87.19
  15  -1   1 1396.06   86.89
  15  -1   1 1380.36   85.79
 -16   0  -1    1.60    2.30
 -16   0  -1   -3.70    1.80
  16   0   1    2.90    2.40
  16   0   1    1.20    2.00
 -17  -1  -1 1241.08   76.89
 -17  -1  -1 1299.27   78.09
 -17  -1  -1 1145.49   76.89
  17   1   1 1285.07   79.89
 -18  -2  -1  210.68   15.00
  18   2   1  204.98   17.10
 -19  -3  -1  280.27   18.70
  19   3   1  243.18   20.60
 -20  -4  -1 1214.58   79.49
  20   4   1 1299.77   82.79
 -21  -5  -1  219.28   20.30
  21   5   1  196.48   19.10
 -22  -6  -1   13.80    5.10
  22   6   1   -1.90   14.10
  -7   9  -2  110.29   18.70
  -8   8  -2   62.29   11.80
   8  -8   2   84.29    9.00
  -9   7  -2  185.58   18.50
   9  -7   2  177.28   14.00
 -10   6  -2 1220.48   82.39
  10  -6   2 1313.17   77.79
  10  -6   2 1202.48   78.89
 -11   5  -2  925.21   59.49
 -11   5  -2  952.70   62.79
  11  -5   2  945.51   59.69
  11  -5   2  933.01   59.29
 -12   4  -2   16.20    4.30
 -12   4  -2   15.40    4.60
  12  -4   2   15.80    3.70
 -13   3  -2    4.60    3.70
 -13   3  -2    6.70    3.40
  13  -3   2    9.70    2.60
  13  -3   2    8.70    2.60
 -14   2  -2 2450.85  144.59
 -14   2  -2 2248.77  144.39
  14  -2   2 2225.28  143.79
  14  -2   2 2254.87  143.09
  14  -2   2 2340.37  143.99
 -15   1  -2  150.48   11.20
  15  -1   2  137.19   11.60
  15  -1   2  157.28   11.70
 -16   0  -2   29.40    4.40
 -16   0  -2   26.50    4.10
  16   0   2   21.40    4.20
  16   0   2   34.80    4.60
 -17  -1  -2   43.00    4.70
 -17  -1  -2   47.60    5.40
  17   1   2   41.40    6.50
  17   1   2   44.30    4.80
 -18  -2  -2  101.79    8.70
  18   2   2  104.39    7.30
  18   2   2  106.49   10.50
 -19  -3  -2   37.30    5.10
  19   3   2   24.90    5.80
 -20  -4  -2  203.58   15.00
  20   4   2  183.38   17.60
 -21  -5  -2  190.28   14.60
  21   5   2  167.68   17.90
 -22  -6  -2   20.80    6.20
  22   6   2   16.90    7.90
  -7   9  -3    4.40   10.30
   7  -9   3   10.70    7.00
  -8   8  -3   22.70    8.70
   8  -8   3   24.90    5.50
  -9   7  -3   25.80    7.50
   9  -7   3   24.60    4.80
 -10   6  -3  527.45   39.30
 -10   6  -3  614.74   43.60
  10  -6   3  666.63   39.20
  10  -6   3  642.04   40.20
 -11   5  -3    5.60    3.90
 -11   5  -3    6.80    5.00
  11  -5   3    7.70    2.70
  11  -5   3   10.50    3.00
 -12   4  -3  106.89   10.30
 -12   4  -3   94.29   10.90
  12  -4   3  104.79    8.90
  12  -4   3  107.59    8.60
 -13   3  -3   42.40    6.30
 -13   3  -3   35.80    6.50
  13  -3   3   35.50    5.00
  13  -3   3   40.40    5.10
 -14   2  -3  294.47   21.00
 -14   2  -3  226.08   18.30
  14  -2   3  256.77   17.10
  14  -2   3  243.78   17.90
  14  -2   3  230.88   18.10
 -15   1  -3  138.19   11.40
 -15   1  -3  143.29   10.80
  15  -1   3  142.39   11.70
  15  -1   3  132.19   11.30
 -16   0  -3    2.80    3.20
 -16   0  -3   -1.70    2.10
  16   0   3    5.50    2.80
  16   0   3    1.00    2.80
 -17  -1  -3  974.50   60.29
 -17  -1  -3  891.61   59.69
  17   1   3  958.30   62.09
  17   1   3  971.40   59.89
 -18  -2  -3   15.70    3.10
 -18  -2  -3   21.00    4.00
  18   2   3   22.20    3.30
  18   2   3   16.50    4.60
 -19  -3  -3 1334.87   82.89
 -19  -3  -3 1405.46   84.59
  19   3   3 1256.47   83.69
  19   3   3 1366.06   87.29
 -20  -4  -3   22.30    4.60
  20   4   3   12.60    6.00
 -21  -5  -3  141.29   12.80
  21   5   3  161.58   17.00
 -22  -6  -3   10.10    5.00
  22   6   3   -4.00    8.00
   7  -9   4  419.76   30.00
  -8   8  -4  256.77   23.90
   8  -8   4  230.58   18.60
  -9   7  -4    1.80    7.50
   9  -7   4   14.90    4.70
   9  -7   4   19.20    3.20
 -10   6  -4  555.74   39.80
 -10   6  -4  466.55   36.10
  10  -6   4  543.15   36.30
  10  -6   4  626.24   35.80
 -11   5  -4  137.19   12.60
 -11   5  -4  135.99   13.80
  11  -5   4  147.89   11.00
  11  -5   4  143.79   11.40
 -12   4  -4    4.60    4.00
 -12   4  -4   -1.00    4.20
  12  -4   4    6.50    3.00
  12  -4   4    5.70    2.30
 -13   3  -4  320.27   25.10
 -13   3  -4  391.26   27.70
  13  -3   4  359.66   24.20
  13  -3   4  340.47   23.60
 -14   2  -4  650.03   42.30
 -14   2  -4  674.03   43.70
  14  -2   4  649.24   42.10
  14  -2   4  642.34   43.00
 -15   1  -4    4.20    2.30
 -15   1  -4    8.60    3.30
  15  -1   4    7.50    2.60
  15  -1   4    7.00    3.90
 -16   0  -4  361.06   24.90
 -16   0  -4  354.16   24.50
  16   0   4  371.76   26.10
  16   0   4  375.76   25.10
 -17  -1  -4   96.99    9.00
 -17  -1  -4  104.79    8.70
  17   1   4  103.59    9.00
  17   1   4   87.89    9.50
 -18  -2  -4   56.69    6.60
 -18  -2  -4   63.59    6.40
  18   2   4   52.39    6.50
  18   2   4   60.09    8.10
 -19  -3  -4  856.31   52.29
 -19  -3  -4  759.22   51.29
  19   3   4  842.92   51.39
  19   3   4  787.42   54.79
 -20  -4  -4  587.64   38.20
  20   4   4  561.94   41.10
 -21  -5  -4  116.59   11.30
 -22  -6  -4  135.29   14.10
  22   6   4   93.69   15.00
  -7   9  -5  186.38   25.00
   7  -9   5  214.28   17.40
  -8   8  -5  227.48   24.10
   8  -8   5  255.27   19.20
  -9   7  -5 1089.09   75.29
   9  -7   5 1120.49   69.69
 -10   6  -5  399.86   31.70
  10  -6   5  427.66   27.50
  10  -6   5  408.06   28.20
 -11   5  -5   74.79    9.90
 -11   5  -5   52.39    8.20
  11  -5   5   68.09    6.80
  11  -5   5   63.19    7.30
 -12   4  -5  147.59   15.00
  12  -4   5  188.58   13.50
  12  -4   5  184.38   13.50
 -13   3  -5 1102.59   71.49
  13  -3   5 1105.19   69.49
  13  -3   5 1083.09   70.19
 -14   2  -5  275.97   20.50
  14  -2   5  277.27   18.90
  14  -2   5  264.97   19.90
 -15   1  -5   80.79    8.70
 -15   1  -5   88.29    7.70
  15  -1   5   81.59    8.40
 -16   0  -5    3.70    3.20
 -16   0  -5    5.30    2.80
  16   0   5    2.90    4.00
  16   0   5   -2.10    2.60
 -17  -1  -5  897.51   57.59
 -17  -1  -5  941.21   57.39
  17   1   5  877.71   59.29
  17   1   5  882.31   57.69
 -18  -2  -5  203.98   14.80
 -18  -2  -5  197.88   14.70
  18   2   5  209.68   15.40
  18   2   5  186.88   16.70
 -19  -3  -5   20.30    5.20
 -19  -3  -5   25.00    4.60
  19   3   5   17.60    5.70
 -20  -4  -5   46.60    6.50
  20   4   5   45.30    9.30
 -21  -5  -5   77.59    9.20
  21   5   5   51.09   11.40
 -22  -6  -5  181.98   15.50
  22   6   5  150.28   20.80
  -8   8  -6   10.50   10.30
   8  -8   6    9.80    5.60
  -9   7  -6   30.90    8.80
   9  -7   6   39.00    6.20
 -10   6  -6  160.98   17.60
  10  -6   6  173.38   13.90
  10  -6   6  173.98   13.00
 -11   5  -6   62.59   10.00
  11  -5   6   59.59    6.40
  11  -5   6   51.69    7.00
 -12   4  -6    8.50    5.00
  12  -4   6    3.60    2.90
  12  -4   6    2.80    2.90
 -13   3  -6   31.90    6.40
  13  -3   6   25.00    4.20
  13  -3   6   27.30    4.90
 -14   2  -6  555.74   38.60
 -14   2  -6  570.04   36.90
  14  -2   6  562.94   37.90
 -15   1  -6   61.69    7.90
 -15   1  -6   53.29    6.40
  15  -1   6   62.09    7.80
 -16   0  -6  415.86   29.60
 -16   0  -6  454.75   28.80
  16   0   6  426.16   30.60
 -17  -1  -6    6.50    3.40
 -17  -1  -6    7.00    2.90
  17   1   6   12.40    5.10
  17   1   6   10.90    4.00
 -18  -2  -6 1602.64   96.39
 -18  -2  -6 1431.76   96.29
  18   2   6 1544.85   96.79
  18   2   6 1553.64   99.19
 -19  -3  -6    0.40    3.20
 -19  -3  -6    3.10    3.40
  19   3   6   -1.00    4.60
 -20  -4  -6   93.29   13.70
  20   4   6   79.49   12.10
 -21  -5  -6  143.09   12.50
  21   5   6   96.29   14.70
  -8   8  -7  174.28   21.80
   8  -8   7  133.29   15.10
  -9   7  -7  313.17   30.50
   9  -7   7  378.56   27.50
   9  -7   7  448.56   26.60
 -10   6  -7  460.65   38.20
  10  -6   7  504.95   33.50
  10  -6   7  528.45   34.00
 -11   5  -7   41.80    8.20
  11  -5   7   45.80    6.60
  11  -5   7   58.19    7.40
 -12   4  -7  391.26   28.40
  12  -4   7  359.76   26.40
  12  -4   7  384.76   25.90
 -13   3  -7  498.15   35.80
  13  -3   7  516.75   33.40
  13  -3   7  493.15   34.30
 -14   2  -7  210.88   17.60
 -14   2  -7  214.78   15.50
  14  -2   7  210.98   16.80
 -15   1  -7  673.83   41.90
 -15   1  -7  637.74   43.50
  15  -1   7  621.84   43.50
 -16   0  -7    5.00    2.90
 -16   0  -7   -3.00    3.70
  16   0   7   -2.30    3.20
 -17  -1  -7   87.19    9.20
 -17  -1  -7   92.09    8.30
  17   1   7   72.39   10.40
 -18  -2  -7  147.09   10.70
 -18  -2  -7  110.39   11.20
  18   2   7  111.49   12.80
 -19  -3  -7   27.90    5.30
 -19  -3  -7   40.30    5.80
  19   3   7   11.40    7.10
 -20  -4  -7  254.07   17.90
  20   4   7  204.78   21.30
 -21  -5  -7  192.58   15.50
  21   5   7  153.48   20.10
  -8   8  -8  268.07   28.30
   8  -8   8  302.77   22.90
  -9   7  -8  124.19   17.50
   9  -7   8  114.49   11.80
   9  -7   8   94.39   10.30
 -10   6  -8   12.50    7.00
  10  -6   8    0.40    3.70
 -11   5  -8  176.38   19.40
  11  -5   8  159.08   13.60
  11  -5   8  165.88   13.80
 -12   4  -8  790.72   52.99
  12  -4   8  761.92   50.89
  12  -4   8  761.62   49.99
 -13   3  -8  107.29   13.00
  13  -3   8  111.69   11.10
  13  -3   8  115.39   10.10
 -14   2  -8   39.40    5.40
 -14   2  -8   42.20    7.50
  14  -2   8   38.70    6.50
 -15   1  -8   33.20    6.70
 -15   1  -8   39.50    5.30
  15  -1   8   41.60    6.90
 -16   0  -8  107.19    9.00
 -16   0  -8  101.39   11.00
  16   0   8   82.79   10.90
 -17  -1  -8    7.90    3.20
 -17  -1  -8    1.00    4.90
  17   1   8    8.30    5.20
 -18  -2  -8   52.29    7.00
  18   2   8   49.50    9.40
 -19  -3  -8  357.76   23.20
 -19  -3  -8  268.57   23.10
  19   3   8  373.86   27.60
 -20  -4  -8   90.89    9.60
  20   4   8   56.59   11.20
  -9   7  -9  140.89   18.40
   9  -7   9  141.29   14.20
 -10   6  -9  177.48   18.50
  10  -6   9  167.98   14.20
  10  -6   9  156.98   14.40
 -11   5  -9   18.80    6.80
  11  -5   9    0.10    3.90
  11  -5   9    2.80    4.20
 -12   4  -9  242.18   21.60
  12  -4   9  257.77   19.60
  12  -4   9  258.17   18.80
 -13   3  -9  158.98   15.30
 -13   3  -9  159.38   12.90
  13  -3   9  168.68   13.20
  13  -3   9  158.48   14.40
 -14   2  -9    5.30    3.10
 -14   2  -9   -2.30    5.20
  14  -2   9   -1.30    3.70
 -15   1  -9  513.35   32.80
 -15   1  -9  477.55   35.10
  15  -1   9  486.65   35.20
 -16   0  -9    5.90    3.30
 -16   0  -9    2.30    4.70
  16   0   9    3.10    4.70
 -17  -1  -9 1000.60   69.49
 -17  -1  -9 1143.59   68.39
  17   1   9 1073.59   71.69
 -18  -2  -9    6.60    3.60
 -18  -2  -9   -1.40    4.90
  18   2   9   -3.00    6.10
 -19  -3  -9   -1.20    4.90
  19   3   9   -7.00    6.20
 -20  -4  -9    7.90    5.10
  20   4   9   -1.60    8.50
 -10   6 -10   41.40   13.20
  10  -6  10   28.10    6.40
  10  -6  10   37.50    7.40
 -11   5 -10  184.48   19.00
  11  -5  10  138.79   14.10
 -12   4 -10   35.90    8.40
  12  -4  10   51.49    6.90
  12  -4  10   33.30    6.80
 -13   3 -10  181.28   15.30
  13  -3  10  218.38   17.50
 -14   2 -10   94.19   11.70
 -14   2 -10   84.49    8.60
  14  -2  10   64.79   10.50
 -15   1 -10   -0.50    5.70
 -15   1 -10   11.60    3.80
  15  -1  10    4.50    5.00
 -16   0 -10  290.77   24.30
 -16   0 -10  330.57   22.00
 -17  -1 -10  210.18   15.00
 -17  -1 -10  164.78   16.60
  17   1  10  201.68   18.80
 -18  -2 -10  120.19   14.50
 -18  -2 -10  182.68   13.30
  18   2  10  161.28   17.20
 -19  -3 -10   26.00    7.10
 -19  -3 -10   40.20    6.70
  19   3  10   44.40   10.80
 -10   6 -11   50.79   12.50
  10  -6  11   27.80    7.20
 -11   5 -11   48.70   11.70
  11  -5  11   51.79    9.00
  11  -5  11   40.80    7.10
 -12   4 -11   84.59   12.80
  12  -4  11  111.69   11.90
  12  -4  11   94.69   11.10
 -13   3 -11    2.40    8.20
 -13   3 -11   -0.90    4.00
  13  -3  11   -2.80    5.30
 -14   2 -11  142.49   12.00
 -14   2 -11  130.69   16.00
  14  -2  11  140.99   14.80
 -15   1 -11  816.92   62.69
 -15   1 -11  997.70   58.29
  15  -1  11  884.81   61.69
 -16   0 -11   -0.40    3.90
 -16   0 -11    7.70    8.20
  16   0  11   -3.50    6.60
 -17  -1 -11    2.50    4.00
 -17  -1 -11    9.70    6.30
  17   1  11   12.30    8.10
 -18  -2 -11  -11.50    6.90
  18   2  11    3.90    7.80
 -12   4 -12  362.86   27.80
 -12   4 -12  385.06   32.50
  12  -4  12  440.46   30.70
 -13   3 -12   21.70   10.10
 -13   3 -12   22.40    5.30
  13  -3  12   29.10    8.10
 -14   2 -12  239.98   24.90
 -14   2 -12  302.77   20.30
  14  -2  12  284.27   24.70
 -15   1 -12    7.40    4.40
 -15   1 -12   13.70    8.40
  15  -1  12    6.50    8.10
 -16   0 -12 1387.36  100.49
 -16   0 -12 1704.73   97.79
  16   0  12 1542.55  101.99
 -17  -1 -12   12.60    8.90
 -17  -1 -12   15.70    5.00
  17   1  12   30.50   10.00
 -14   4  14  358.96   31.40
  14  -4 -14  339.77   27.30
 -15   3  14   48.70   11.50
  15  -3 -14   47.80   10.10
 -16   2  14   38.20   11.20
  16  -2 -14   53.89    9.10
 -17   1  14   19.00    9.40
  17  -1 -14   11.90    5.70
 -18   0  14   99.49   16.10
  18   0 -14  113.69   12.00
 -19  -1  14   17.90    9.20
  19   1 -14   15.70    5.40
 -13   5  13   65.09   12.60
  13  -5 -13   57.49   10.00
 -14   4  13  475.15   34.80
  14  -4 -13  388.46   30.80
 -15   3  13  503.15   38.90
  15  -3 -13  506.35   35.80
 -16   2  13   31.60    9.30
  16  -2 -13   38.70    7.20
 -17   1  13   97.19   14.70
  17  -1 -13   95.99   10.60
 -18   0  13   -6.80    7.60
 -19  -1  13  230.88   23.50
  19   1 -13  229.38   17.90
 -20  -2  13  301.07   29.40
  20   2 -13  299.87   22.10
 -21  -3  13    6.80    9.90
  21   3 -13   18.00    5.40
 -12   6  12    4.60    8.60
  12  -6 -12    1.70    5.50
 -13   5  12   13.30    8.60
  13  -5 -12    7.70    5.90
 -14   4  12  273.67   23.80
  14  -4 -12  257.07   20.80
 -15   3  12  551.64   41.00
  15  -3 -12  550.54   38.00
  16  -2 -12  529.05   36.10
 -17   1  12  191.78   18.40
  17  -1 -12  157.68   14.10
 -18   0  12  208.78   20.50
  18   0 -12  206.48   16.20
 -19  -1  12   11.50    7.90
  19   1 -12    7.40    3.60
 -20  -2  12  105.39   15.80
  20   2 -12  104.09   10.10
 -21  -3  12  280.27   26.20
  21   3 -12  277.77   20.40
  11  -7 -11   25.20    9.30
 -12   6  11   67.49   11.30
  12  -6 -11   75.09   11.60
 -13   5  11  519.35   38.10
  13  -5 -11  515.35   36.60
 -14   4  11    8.80    6.60
  14  -4 -11    8.20    4.90
 -15   3  11   96.19   12.90
  15  -3 -11   84.69    9.50
 -16   2  11  258.87   22.00
  16  -2 -11  237.18   18.70
 -17   1  11  459.55   34.90
  17  -1 -11  461.75   31.50
 -18   0  11    6.20    2.50
 -18   0  11    5.40    6.20
  18   0 -11    2.20    3.30
 -19  -1  11  834.42   57.69
 -19  -1  11  823.82   52.19
  19   1 -11  840.02   53.89
 -20  -2  11    6.00    6.10
 -20  -2  11   -5.20    2.70
  20   2 -11    1.50    3.20
 -21  -3  11   11.50    8.10
 -21  -3  11    5.10    3.60
  21   3 -11    7.40    3.70
 -22  -4  11   95.39   14.80
 -22  -4  11   85.99    9.50
  11  -7 -10   41.60   10.60
 -12   6  10   69.19   10.10
  12  -6 -10   65.89    6.50
  12  -6 -10   75.99   11.80
 -13   5  10  133.79   14.30
  13  -5 -10  138.59    9.70
  13  -5 -10  129.49   13.20
 -14   4  10  311.87   25.80
 -14   4  10  321.67   21.60
  14  -4 -10  347.67   24.50
 -15   3  10 1029.70   69.19
 -15   3  10 1148.09   74.49
  15  -3 -10 1182.48   72.19
 -16   2  10  206.68   14.80
 -16   2  10  260.67   20.90
  16  -2 -10  246.98   17.60
 -17   1  10    2.90    1.90
 -17   1  10    6.40    5.10
  17  -1 -10    1.00    2.90
 -18   0  10  288.17   24.40
 -18   0  10  278.57   19.20
  18   0 -10  317.47   21.00
 -19  -1  10   56.19    5.40
 -19  -1  10   44.90    8.80
  19   1 -10   61.19    6.90
 -20  -2  10   54.89    6.00
 -20  -2  10   43.70   17.20
  20   2 -10   57.79    6.50
 -21  -3  10  168.98   13.30
 -21  -3  10  186.98   18.40
  21   3 -10  177.68   13.40
 -22  -4  10  129.99   11.70
 -22  -4  10  142.19   17.60
 -23  -5  10  165.78   23.50
 -23  -5  10  187.68   15.30
 -10   8   9  234.88   27.70
  10  -8  -9  267.27   23.50
  10  -8  -9  244.98   17.80
  11  -7  -9   57.49    6.30
  11  -7  -9   55.09   10.50
 -12   6   9    1.30    5.20
  12  -6  -9    3.60    5.20
  12  -6  -9    1.90    2.40
 -13   5   9   63.09    9.30
  13  -5  -9   57.19    9.20
  13  -5  -9   70.19    6.00
 -14   4   9  512.35   37.60
  14  -4  -9  520.85   36.40
  14  -4  -9  554.64   33.80
 -15   3   9  740.83   50.19
 -15   3   9  751.82   45.90
 -15   3   9  736.73   45.80
  15  -3  -9  679.93   47.70
 -16   2   9  190.38   16.50
 -16   2   9  183.48   12.20
 -16   2   9  148.29   11.60
  16  -2  -9  170.28   13.50
 -17   1   9   44.20    8.00
 -17   1   9   46.50    5.80
 -17   1   9   34.70    4.20
  17  -1  -9   40.80    5.80
 -18   0   9   -8.30    4.30
 -18   0   9    2.20    3.30
 -18   0   9   -0.10    1.90
  18   0  -9    1.60    2.60
 -19  -1   9    4.00    2.30
 -19  -1   9    6.50    5.20
 -19  -1   9    2.30    3.70
  19   1  -9    2.90    2.60
 -20  -2   9  365.86   24.80
 -20  -2   9  372.16   29.00
  20   2  -9  388.26   25.20
 -21  -3   9   29.40   13.10
 -21  -3   9   48.50    6.30
  21   3  -9   48.60    5.60
 -22  -4   9   81.49    9.30
 -22  -4   9  108.29   14.70
 -23  -5   9  555.94   39.80
 -23  -5   9  656.33   45.50
 -10   8   8   55.59   13.40
  10  -8  -8   79.59   13.10
  10  -8  -8   58.79    7.30
  11  -7  -8  122.69    9.90
  11  -7  -8  122.19   14.40
 -12   6   8  646.74   46.80
  12  -6  -8  751.52   44.80
 -13   5   8    7.20    4.40
  13  -5  -8    0.50    2.20
  13  -5  -8    9.20    4.10
 -14   4   8  156.58   12.80
 -14   4   8  182.68   15.90
  14  -4  -8  184.28   12.10
  14  -4  -8  169.78   14.30
 -15   3   8  256.87   17.50
 -15   3   8  256.27   20.80
  15  -3  -8  249.78   18.70
 -16   2   8  713.13   44.50
 -16   2   8  691.33   48.20
  16  -2  -8  698.13   45.70
 -17   1   8   83.69   10.80
 -17   1   8   96.79    8.30
  17  -1  -8   86.99    8.20
 -18   0   8 1866.61  126.99
 -18   0   8 2008.00  131.29
 -18   0   8 2160.28  127.39
  18   0  -8 2164.98  128.09
 -19  -1   8   25.70    5.90
 -19  -1   8   23.20    3.50
 -19  -1   8   17.50    7.60
  19   1  -8   22.60    3.50
 -20  -2   8  513.75   35.60
 -20  -2   8  461.25   30.80
 -20  -2   8  414.66   33.60
  20   2  -8  505.85   31.00
 -21  -3   8  110.79   14.30
 -21  -3   8  120.39   10.00
  21   3  -8  122.59    9.20
 -22  -4   8  239.28   18.80
 -22  -4   8  292.47   23.80
 -23  -5   8  248.58   22.50
 -23  -5   8  186.18   16.60
 -10   8   7  214.88   23.10
  10  -8  -7  162.38   13.30
 -11   7   7    0.30    7.30
  11  -7  -7    6.50    3.00
  11  -7  -7    7.10    5.40
 -12   6   7  363.26   27.50
  12  -6  -7  392.76   25.90
  12  -6  -7  424.56   29.00
 -13   5   7  293.37   22.20
  13  -5  -7  293.87   19.80
  13  -5  -7  304.47   22.10
 -14   4   7  665.13   42.20
 -14   4   7  669.13   44.80
  14  -4  -7  607.34   43.40
  14  -4  -7  688.73   41.80
 -15   3   7   23.10    3.60
 -15   3   7   21.70    4.10
 -15   3   7   19.10    5.30
  15  -3  -7   15.90    4.00
 -16   2   7  184.98   12.80
 -16   2   7  187.88   15.70
 -16   2   7  153.18   12.10
  16  -2  -7  172.78   13.20
 -17   1   7  709.13   46.80
 -17   1   7  733.43   50.49
 -17   1   7  770.52   47.10
  17  -1  -7  751.42   47.70
 -18   0   7    8.40    5.10
 -18   0   7   -2.90    3.30
 -18   0   7    3.20    3.00
 -18   0   7    3.60    2.00
  18   0  -7    0.20    2.10
 -19  -1   7  163.88   15.10
 -19  -1   7  155.08   14.00
 -19  -1   7  159.38   11.80
  19   1  -7  167.08   11.70
 -20  -2   7  894.51   59.19
 -20  -2   7  928.51   63.29
 -20  -2   7  916.61   60.29
  20   2  -7  996.50   58.99
 -21  -3   7  297.37   24.50
 -21  -3   7  271.57   20.50
  21   3  -7  316.97   19.80
 -22  -4   7  853.71   58.69
 -22  -4   7  822.72   53.99
 -23  -5   7  110.99   12.00
 -23  -5   7  141.59   16.80
 -24  -6   7   15.10    9.80
 -24  -6   7   26.40    7.20
  -9   9   6  153.68   21.40
   9  -9  -6  101.99   10.80
 -10   8   6  -13.90    8.10
  10  -8  -6    9.20    3.70
 -11   7   6   29.20    8.30
  11  -7  -6   40.60    5.60
 -12   6   6    5.80    3.70
 -12   6   6    1.60    5.20
  12  -6  -6    1.40    2.50
  12  -6  -6    7.90    4.20
 -13   5   6  335.47   24.60
 -13   5   6  336.67   25.40
  13  -5  -6  336.97   24.70
  13  -5  -6  355.26   22.70
 -14   4   6   20.20    4.60
 -14   4   6   17.50    4.60
  14  -4  -6   20.40    3.00
  14  -4  -6   16.20    4.40
 -15   3   6   73.29    6.80
 -15   3   6   69.19    7.40
 -15   3   6   75.19    9.10
  15  -3  -6   65.29    7.00
  15  -3  -6   75.09    6.00
 -16   2   6   18.10    4.80
 -16   2   6   21.20    3.40
 -16   2   6   25.20    4.00
  16  -2  -6   23.60    4.00
 -17   1   6   45.80    7.00
 -17   1   6   49.50    6.00
 -17   1   6   57.99    5.30
 -17   1   6   44.40    7.80
  17  -1  -6   51.59    5.40
 -18   0   6    7.20    4.90
 -18   0   6   10.60    3.10
 -18   0   6   17.00    4.90
 -18   0   6   12.90    2.70
  18   0  -6   10.30    2.40
 -19  -1   6   46.80    6.20
 -19  -1   6   38.30    4.80
 -19  -1   6   33.10    7.20
  19   1  -6   42.80    5.20
 -20  -2   6 1109.59   73.39
 -20  -2   6 1150.28   73.69
 -20  -2   6 1126.09   77.19
  20   2  -6 1264.27   72.69
 -21  -3   6   88.49   13.10
 -21  -3   6  112.09    9.60
  21   3  -6  122.99    8.20
 -22  -4   6  358.26   25.00
 -22  -4   6  363.16   29.20
 -23  -5   6   19.70    7.60
 -23  -5   6   10.60    4.70
 -24  -6   6  153.48   20.30
 -24  -6   6  163.28   15.60
  -9   9   5   -2.10   10.60
   9  -9  -5   17.40    4.80
 -10   8   5   -9.60    8.50
  10  -8  -5   13.20    4.00
 -11   7   5 1117.09   81.49
  11  -7  -5 1213.78   74.09
 -12   6   5   76.79   10.00
 -12   6   5   71.99   11.50
 -12   6   5   67.29    9.00
  12  -6  -5   74.59    7.00
 -13   5   5  168.38   16.00
 -13   5   5  156.78   13.40
 -13   5   5  151.58   14.50
  13  -5  -5  162.88   11.90
  13  -5  -5  180.78   14.00
 -14   4   5 1667.43  106.59
 -14   4   5 1674.03  106.19
  14  -4  -5 1729.73  104.49
  14  -4  -5 1637.34  105.79
 -15   3   5  168.48   13.30
 -15   3   5  184.98   15.10
  15  -3  -5  183.68   13.50
  15  -3  -5  178.68   12.60
 -16   2   5  568.14   36.30
 -16   2   5  591.04   39.10
 -16   2   5  542.05   36.30
  16  -2  -5  556.84   36.60
 -17   1   5 1757.12  113.09
 -17   1   5 1720.53  110.09
 -17   1   5 1627.34  109.89
 -17   1   5 1923.81  111.19
  17  -1  -5 1807.52  110.19
 -18   0   5    0.80    2.90
 -18   0   5   -1.50    3.60
 -18   0   5    3.00    2.10
 -18   0   5   -3.80    3.50
  18   0  -5   -0.50    2.10
  18   0  -5   -1.30    2.80
 -19  -1   5 1193.98   76.09
 -19  -1   5 1165.28   79.39
 -19  -1   5 1218.28   76.09
  19   1  -5 1269.67   75.49
  19   1  -5 1197.18   79.09
 -20  -2   5  133.19   10.40
 -20  -2   5  110.69   12.70
 -20  -2   5  132.69   10.40
  20   2  -5  133.19    9.00
  20   2  -5  128.89   13.50
 -21  -3   5    7.40    3.40
 -21  -3   5   14.10    5.50
  21   3  -5   10.20    5.70
 -22  -4   5   10.60    6.80
 -22  -4   5    8.60    4.10
  22   4  -5    4.10    5.90
 -23  -5   5  312.87   22.70
 -24  -6   5   29.80    9.60
 -24  -6   5   24.10    7.20
  -9   9   4  546.55   44.00
   9  -9  -4  452.35   32.70
 -10   8   4  268.97   25.90
  10  -8  -4  246.08   18.40
 -11   7   4    9.80    7.90
  11  -7  -4    6.20    3.20
 -12   6   4  478.05   32.40
 -12   6   4  483.75   32.70
 -12   6   4  502.45   36.50
  12  -6  -4  514.65   32.40
 -13   5   4 1583.44   96.39
 -13   5   4 1386.96   93.39
  13  -5  -4 1477.95   92.59
 -14   4   4  315.67   25.20
 -14   4   4  350.16   24.80
 -14   4   4  355.96   24.80
  14  -4  -4  363.66   23.00
  14  -4  -4  342.27   24.00
 -15   3   4  294.37   19.80
 -15   3   4  288.97   21.40
 -15   3   4  251.97   21.00
  15  -3  -4  294.57   19.90
  15  -3  -4  290.27   19.00
 -16   2   4 1093.69   65.59
 -16   2   4 1031.00   67.19
 -16   2   4 1014.50   64.89
 -16   2   4  952.10   64.59
  16  -2  -4  998.50   64.99
  16  -2  -4 1076.99   66.69
 -17   1   4    7.00    2.70
 -17   1   4    7.60    3.00
 -17   1   4    6.00    3.40
  17  -1  -4   10.30    2.40
  17  -1  -4   13.10    3.90
 -18   0   4   15.40    2.90
 -18   0   4   14.00    3.70
  18   0  -4   10.50    3.70
  18   0  -4   19.30    3.00
 -19  -1   4   98.99    8.40
 -19  -1   4  109.09    8.70
  19   1  -4  113.79    7.80
  19   1  -4   95.09   10.90
 -20  -2   4  757.82   47.30
  20   2  -4  708.93   49.99
 -21  -3   4  747.03   46.40
  21   3  -4  678.23   49.40
 -22  -4   4  434.06   27.70
  22   4  -4  363.86   30.70
 -23  -5   4  245.18   18.50
  23   5  -4  233.48   22.90
 -24  -6   4   19.90    9.50
 -24  -6   4    5.30    6.40
  24   6  -4   22.00    9.50
  -9   9   3   -4.00   12.20
   9  -9  -3    7.00    4.70
 -10   8   3  224.78   21.50
  10  -8  -3  175.18   15.40
 -11   7   3  105.09   14.00
  11  -7  -3   93.79    8.80
 -12   6   3  148.49   11.80
 -12   6   3  145.89   15.50
 -12   6   3  177.38   12.30
  12  -6  -3  162.98   12.10
 -13   5   3   53.49    8.70
 -13   5   3   69.39    8.20
 -13   5   3   48.60    7.20
  13  -5  -3   62.89    6.00
 -14   4   3   54.69    8.50
 -14   4   3   54.39    7.40
 -14   4   3   50.39    7.20
  14  -4  -3   57.59    5.50
 -15   3   3   34.10    6.20
 -15   3   3   42.30    6.30
 -15   3   3   51.69    7.20
  15  -3  -3   45.10    5.90
  15  -3  -3   43.90    4.70
 -16   2   3  252.17   17.40
 -16   2   3  259.17   19.60
 -16   2   3  266.07   17.90
 -16   2   3  239.58   17.80
 -16   2   3  224.68   18.00
  16  -2  -3  262.77   18.60
 -17   1   3   49.50    6.20
 -17   1   3   44.70    6.50
  17  -1  -3   49.20    6.50
 -18   0   3    3.20    2.50
 -18   0   3    1.60    2.60
 -18   0   3    0.10    2.00
  18   0  -3    0.40    3.30
 -19  -1   3  607.84   41.30
 -19  -1   3  695.93   42.50
 -19  -1   3  688.83   41.40
  19   1  -3  647.44   44.90
 -20  -2   3   82.49    7.70
  20   2  -3   80.99   10.00
 -21  -3   3 2350.36  145.49
  21   3  -3 2308.87  148.69
 -22  -4   3  135.39   12.20
  22   4  -3  163.38   16.10
 -23  -5   3  193.08   15.80
  23   5  -3  201.18   20.00
 -24  -6   3  588.84   39.00
  24   6  -3  541.65   43.00
  -9   9   2   82.89   15.40
   9  -9  -2   49.10    7.50
 -10   8   2  691.43   51.19
 -11   7   2  101.19   13.50
  11  -7  -2   70.69    7.90
 -12   6   2  673.63   44.20
 -12   6   2  545.85   39.30
 -12   6   2  601.44   38.90
  12  -6  -2  644.44   39.80
 -13   5   2  433.56   28.10
 -13   5   2  404.76   28.30
 -13   5   2  404.66   30.60
  13  -5  -2  415.36   27.40
 -14   4   2  616.44   40.20
 -14   4   2  556.74   38.60
  14  -4  -2  597.84   38.30
  14  -4  -2  564.14   37.50
 -15   3   2   16.20    4.10
 -15   3   2   12.80    4.40
  15  -3  -2   13.20    3.40
  15  -3  -2   10.60    2.50
 -16   2   2 2421.96  148.79
 -16   2   2 2246.68  149.49
 -16   2   2 2597.64  150.28
 -16   2   2 2362.36  148.79
  16  -2  -2 2328.77  149.79
 -17   1   2   13.40    4.00
 -17   1   2    9.30    2.70
 -17   1   2   14.70    3.30
  17  -1  -2   12.80    3.90
 -18   0   2  831.82   56.99
 -18   0   2  970.90   56.99
 -18   0   2  932.51   57.49
  18   0  -2  883.71   59.19
 -19  -1   2    3.60    2.30
  19   1  -2   -3.80    2.70
 -20  -2   2  146.29   11.30
  20   2  -2  138.89   13.50
 -21  -3   2  452.75   29.20
  21   3  -2  409.96   31.60
 -22  -4   2  264.37   19.40
  22   4  -2  267.17   22.80
 -23  -5   2    1.60    3.90
  23   5  -2  -11.50    7.00
 -24  -6   2   98.39   11.70
  24   6  -2   78.59   14.70
  -9   9   1   34.90   13.60
   9  -9  -1   33.70    6.20
 -10   8   1    1.10    7.40
  10  -8  -1   23.60    5.50
 -11   7   1  534.95   39.60
  11  -7  -1  515.05   34.70
 -12   6   1  821.82   53.49
 -12   6   1  873.71   58.49
  12  -6  -1  872.71   54.69
 -13   5   1   27.20    7.00
 -13   5   1   37.20    5.70
 -13   5   1   32.90    5.20
  13  -5  -1   28.40    4.40
  13  -5  -1   35.80    4.70
 -14   4   1  264.17   20.80
 -14   4   1  281.77   19.80
  14  -4  -1  258.27   18.30
  14  -4  -1  269.67   20.00
 -15   3   1  390.96   30.70
 -15   3   1  456.55   30.80
  15  -3  -1  484.75   30.30
  15  -3  -1  455.05   29.20
 -16   2   1 1215.28   75.19
 -16   2   1 1256.07   76.59
 -16   2   1 1135.59   74.89
 -16   2   1 1169.18   75.89
  16  -2  -1 1183.58   75.99
  16  -2  -1 1182.28   74.59
 -17   1   1   19.60    4.50
 -17   1   1   20.10    3.50
 -17   1   1   22.10    3.60
  17  -1  -1   18.70    4.00
 -18   0   1    4.90    2.20
 -18   0   1    2.20    2.50
 -18   0   1    1.40    2.10
  18   0  -1    1.00    2.70
 -19  -1   1  722.13   45.90
  19   1  -1  704.13   47.90
 -20  -2   1   81.29    7.60
  20   2  -1   73.69    9.50
 -21  -3   1  228.48   16.90
  21   3  -1  234.58   19.70
 -22  -4   1  492.35   31.80
  22   4  -1  442.16   34.60
 -23  -5   1    3.30    4.20
  23   5  -1   14.50    8.00
 -24  -6   1  685.13   43.70
  24   6  -1  590.54   47.20
  -9   9   0    8.00   10.20
   9  -9   0   11.90    6.00
 -10   8   0   -8.40    8.60
  10  -8   0    1.90    3.70
 -11   7   0  108.29   13.40
  11  -7   0   94.49    9.30
 -12   6   0  126.29   14.20
 -12   6   0  121.09    9.60
  12  -6   0  123.59   10.30
 -13   5   0   62.09    9.30
 -13   5   0   58.79    7.60
  13  -5   0   67.49    6.90
  13  -5   0   67.59    6.70
 -14   4   0   24.20    5.00
 -14   4   0   17.00    5.00
  14  -4   0   14.70    3.20
  14  -4   0   22.40    3.60
 -15   3   0    7.70    4.00
 -15   3   0    4.60    3.30
  15  -3   0   -0.90    1.80
  15  -3   0    0.80    2.30
 -16   2   0   13.20    3.40
 -16   2   0   15.80    3.20
 -16   2   0   10.10    3.40
 -16   2   0   11.70    5.10
  16  -2   0    9.70    2.40
  16  -2   0    8.90    2.80
 -17   1   0  109.59    8.80
 -17   1   0  111.19    8.80
 -17   1   0   97.99   10.00
  17  -1   0  108.99    9.90
 -18   0   0 2598.34  167.08
 -18   0   0 2774.82  166.68
 -18   0   0 2742.03  167.58
  18   0   0 2666.83  169.08
 -19  -1   0    5.40    2.70
  19   1   0    3.70    3.30
 -20  -2   0 2876.91  172.58
  20   2   0 2670.43  174.98
 -21  -3   0   52.49    6.80
  21   3   0   61.89    9.50
 -22  -4   0  232.28   16.80
  22   4   0  205.08   19.80
 -23  -5   0  163.88   13.90
  23   5   0  150.08   17.80
 -24  -6   0  124.69   14.00
  24   6   0  110.19   16.60
  -9   9  -1  385.26   34.60
 -10   8  -1   85.69   14.80
  10  -8   1   82.69    9.70
 -11   7  -1  809.92   56.39
  11  -7   1  792.72   51.79
 -12   6  -1 1549.54   98.19
 -12   6  -1 1316.27   92.99
  12  -6   1 1503.15   94.29
  12  -6   1 1629.04   93.39
 -13   5  -1  495.85   35.30
 -13   5  -1  461.85   32.40
  13  -5   1  464.35   32.30
  13  -5   1  542.65   32.60
 -14   4  -1  746.73   50.19
 -14   4  -1  719.73   48.50
  14  -4   1  768.42   48.10
  14  -4   1  742.33   47.80
 -15   3  -1  191.28   15.90
 -15   3  -1  203.68   16.10
  15  -3   1  218.88   15.10
  15  -3   1  185.48   14.30
 -16   2  -1  324.47   23.00
 -16   2  -1  328.47   23.90
  16  -2   1  355.66   23.80
  16  -2   1  343.87   23.50
  16  -2   1  345.37   22.70
 -17   1  -1 1184.88   81.59
 -17   1  -1 1274.57   80.59
 -17   1  -1 1279.27   80.19
  17  -1   1 1351.76   81.89
  17  -1   1 1306.67   80.49
 -18   0  -1    1.20    2.10
 -18   0  -1    4.60    2.70
 -18   0  -1    2.00    2.20
  18   0   1    0.60    2.60
 -19  -1  -1   13.20    3.30
 -19  -1  -1   13.70    2.40
 -19  -1  -1   20.70    3.80
  19   1   1   11.50    3.80
 -20  -2  -1    7.90    2.90
  20   2   1   -2.20    3.50
 -21  -3  -1   68.59    7.50
  21   3   1   67.29    9.40
 -22  -4  -1  146.29   12.50
  22   4   1  146.89   15.40
 -23  -5  -1   37.90    6.80
 -24  -6  -1  260.27   20.60
  24   6   1  231.58   24.60
  -9   9  -2  235.98   29.60
   9  -9   2  211.98   18.90
 -10   8  -2  359.46   31.90
  10  -8   2  357.96   25.50
 -11   7  -2  683.13   46.60
  11  -7   2  584.24   41.10
 -12   6  -2    4.40    5.40
 -12   6  -2   -3.30    3.30
  12  -6   2    3.20    3.10
  12  -6   2   -0.40    2.60
 -13   5  -2  230.68   20.50
 -13   5  -2  280.87   19.00
  13  -5   2  256.07   18.30
 -14   4  -2 1553.24   90.79
 -14   4  -2 1283.47   91.79
  14  -4   2 1425.16   89.79
  14  -4   2 1446.36   90.09
 -15   3  -2  251.97   18.50
 -15   3  -2  207.98   17.90
  15  -3   2  233.18   16.30
  15  -3   2  236.38   17.00
 -16   2  -2   11.30    3.10
 -16   2  -2    5.00    3.60
  16  -2   2   17.10    3.30
  16  -2   2    9.70    3.20
  16  -2   2   13.80    4.10
 -17   1  -2   39.50    5.40
 -17   1  -2   43.90    6.10
  17  -1   2   46.50    6.30
  17  -1   2   49.50    6.30
 -18   0  -2  376.16   25.90
 -18   0  -2  387.56   26.00
  18   0   2  397.76   25.70
  18   0   2  385.06   27.30
 -19  -1  -2  376.46   25.10
  19   1   2  344.57   26.50
  19   1   2  384.56   24.10
 -20  -2  -2  899.61   55.99
  20   2   2  843.02   58.09
 -21  -3  -2  554.04   36.30
  21   3   2  539.85   39.10
 -22  -4  -2   38.40    7.20
  22   4   2   35.80    8.60
 -23  -5  -2  212.38   16.60
  23   5   2  183.68   19.80
 -24  -6  -2  176.28   15.70
  24   6   2  163.68   21.70
  -9   9  -3   17.50   14.30
   9  -9   3   18.20    6.20
 -10   8  -3   23.50   10.00
  10  -8   3   26.90    6.00
 -11   7  -3  719.33   51.59
  11  -7   3  712.23   46.90
 -12   6  -3  194.48   18.10
 -12   6  -3  146.49   14.00
  12  -6   3  171.58   13.20
  12  -6   3  191.88   13.90
 -13   5  -3  368.66   27.20
 -13   5  -3  414.56   30.00
  13  -5   3  417.76   26.50
  13  -5   3  375.56   26.50
 -14   4  -3  171.18   15.80
 -14   4  -3  175.68   15.00
  14  -4   3  186.08   13.10
  14  -4   3  151.98   12.70
 -15   3  -3  415.26   30.00
  15  -3   3  458.65   28.90
  15  -3   3  391.86   27.90
 -16   2  -3   56.89    6.40
 -16   2  -3   67.09    7.90
  16  -2   3   60.69    7.00
  16  -2   3   64.69    6.20
 -17   1  -3  876.41   57.89
 -17   1  -3  917.71   57.39
  17  -1   3  909.21   57.69
  17  -1   3  887.31   58.49
 -18   0  -3    5.50    2.60
  18   0   3   -1.00    3.10
  18   0   3    2.00    3.30
 -19  -1  -3 1857.91  109.69
 -19  -1  -3 1631.54  108.89
  19   1   3 1685.53  111.39
  19   1   3 1820.42  108.99
 -20  -2  -3   17.60    3.20
 -20  -2  -3   25.10    4.60
  20   2   3   14.70    5.10
  20   2   3   21.00    3.30
 -21  -3  -3   77.29    8.10
  21   3   3   64.49   10.20
 -22  -4  -3  567.24   41.20
  22   4   3  607.44   42.70
 -23  -5  -3  291.87   21.10
  23   5   3  251.97   24.40
 -24  -6  -3   50.19    8.10
  24   6   3   38.00   11.60
  -9   9  -4   94.89   17.30
   9  -9   4  114.79   12.00
 -10   8  -4  447.56   34.70
  10  -8   4  380.16   28.70
 -11   7  -4  261.87   23.90
  11  -7   4  214.88   20.40
  11  -7   4  271.37   18.60
 -12   6  -4   66.99   11.40
  12  -6   4   73.39    8.20
  12  -6   4   71.49    7.00
 -13   5  -4   61.89    8.80
 -13   5  -4   70.69   10.60
  13  -5   4   76.49    7.10
  13  -5   4   77.19    7.90
 -14   4  -4  672.13   49.40
  14  -4   4  746.03   47.50
  14  -4   4  764.52   47.20
 -15   3  -4  362.36   25.20
  15  -3   4  311.77   23.30
  15  -3   4  331.17   22.80
 -16   2  -4  488.55   30.50
 -16   2  -4  427.36   31.40
  16  -2   4  451.75   31.20
 -17   1  -4   97.59    9.70
 -17   1  -4   96.59    8.60
  17  -1   4   97.69    9.80
  17  -1   4   99.79   10.30
 -18   0  -4   32.40    4.80
 -18   0  -4   36.10    5.40
  18   0   4   37.10    5.60
  18   0   4   30.10    5.50
 -19  -1  -4   30.90    4.70
 -19  -1  -4   25.00    7.70
  19   1   4   23.30    4.60
  19   1   4   17.90    5.00
 -20  -2  -4    8.20    3.30
 -20  -2  -4    0.90    3.00
  20   2   4    0.60    3.30
  20   2   4   -3.30    3.70
 -21  -3  -4  253.77   17.80
 -21  -3  -4  271.17   19.30
  21   3   4  277.27   22.20
 -22  -4  -4   94.29    9.90
  22   4   4   83.99   13.10
 -23  -5  -4  186.98   15.60
  23   5   4  166.08   19.90
 -10   8  -5   13.00   11.80
  10  -8   5    8.40    5.50
 -11   7  -5  302.27   26.40
  11  -7   5  279.17   21.10
 -12   6  -5  371.56   28.40
  12  -6   5  333.67   23.50
  12  -6   5  333.27   24.10
 -13   5  -5  127.79   14.70
  13  -5   5  138.09   11.10
  13  -5   5  131.99   11.30
 -14   4  -5  469.55   33.40
  14  -4   5  453.85   31.00
  14  -4   5  453.45   30.70
 -15   3  -5   18.50    5.20
  15  -3   5   23.90    4.60
  15  -3   5   20.20    4.20
 -16   2  -5  734.03   45.40
 -16   2  -5  639.14   46.50
  16  -2   5  724.13   46.50
 -17   1  -5  881.31   58.59
 -17   1  -5  921.41   57.59
  17  -1   5  897.51   58.99
 -18   0  -5   -3.30    2.40
 -18   0  -5   -3.60    3.20
  18   0   5   12.80    4.70
  18   0   5    1.80    3.20
 -19  -1  -5   18.10    3.90
 -19  -1  -5   16.70    4.00
  19   1   5   18.10    5.00
  19   1   5   18.60    5.00
 -20  -2  -5  321.57   21.20
 -20  -2  -5  282.87   20.70
  20   2   5  299.17   23.70
 -21  -3  -5    2.80    4.40
 -21  -3  -5    2.30    3.90
  21   3   5    3.70    4.60
 -22  -4  -5  905.11   54.79
  22   4   5  762.92   57.69
 -23  -5  -5   43.90    7.80
  23   5   5   42.70   10.40
 -10   8  -6  272.77   27.30
  10  -8   6  227.28   19.90
 -11   7  -6   28.40    8.70
  11  -7   6   26.30    6.10
  11  -7   6   32.00    5.80
  12  -6   6  104.89   11.40
  12  -6   6  135.89   10.70
 -13   5  -6  161.98   17.30
  13  -5   6  185.18   14.40
  13  -5   6  182.88   14.00
 -14   4  -6  275.77   22.10
  14  -4   6  265.47   19.70
  14  -4   6  267.77   19.40
 -15   3  -6  342.37   28.10
  15  -3   6  398.46   27.40
  15  -3   6  422.96   26.70
 -16   2  -6 1682.13  104.49
 -16   2  -6 1653.23  106.19
  16  -2   6 1649.33  105.79
 -17   1  -6   13.10    4.50
 -17   1  -6   16.80    3.50
  17  -1   6    5.30    3.70
 -18   0  -6 3136.99  198.28
 -18   0  -6 3188.28  197.58
  18   0   6 3212.28  199.78
 -19  -1  -6  136.09   11.70
 -19  -1  -6  146.09   11.50
  19   1   6  128.99   13.50
 -20  -2  -6   25.40    5.20
 -20  -2  -6   28.90    5.30
  20   2   6   33.30    7.50
 -21  -3  -6   43.00    6.00
  21   3   6   48.30    8.80
 -22  -4  -6  172.98   14.80
  22   4   6  170.58   18.70
 -23  -5  -6   39.50    8.50
  23   5   6   55.39   14.50
 -10   8  -7   25.40   11.40
  10  -8   7   18.30    6.70
 -11   7  -7  178.08   20.60
  11  -7   7  152.28   14.60
 -12   6  -7   27.30    9.70
  12  -6   7   30.20    6.30
  12  -6   7   21.80    4.60
 -13   5  -7    8.60    5.90
  13  -5   7   11.70    4.40
  13  -5   7   -0.40    3.20
 -14   4  -7  265.17   22.30
  14  -4   7  270.77   20.20
  14  -4   7  284.97   19.90
 -15   3  -7  236.38   20.80
  15  -3   7  251.87   18.60
  15  -3   7  286.37   20.00
 -16   2  -7  726.63   46.10
 -16   2  -7  686.03   48.00
  16  -2   7  712.23   47.60
 -17   1  -7   76.09    7.90
 -17   1  -7   78.09   10.00
  17  -1   7   79.09    9.60
 -18   0  -7   -0.90    3.00
 -18   0  -7    3.70    4.50
  18   0   7    9.30    5.00
 -19  -1  -7   18.20    4.60
 -19  -1  -7   11.60    4.50
  19   1   7    6.00    4.80
 -20  -2  -7   13.50    4.00
 -20  -2  -7   19.40    5.00
  20   2   7   20.90    6.30
 -21  -3  -7   32.60    8.50
 -21  -3  -7   32.00    5.40
  21   3   7   25.50    7.60
 -22  -4  -7  135.59   13.00
  22   4   7  110.49   16.60
 -11   7  -8   48.30   13.40
  11  -7   8   55.89    8.60
 -12   6  -8  125.39   17.30
  12  -6   8  138.19   12.80
  12  -6   8  128.29   11.80
 -13   5  -8  110.99   13.80
  13  -5   8  119.49   11.10
  13  -5   8  105.69   11.10
 -14   4  -8   24.10    7.50
  14  -4   8   24.80    5.10
  14  -4   8   21.80    5.00
 -15   3  -8  522.65   33.80
 -15   3  -8  487.75   36.30
  15  -3   8  495.35   35.00
  15  -3   8  504.75   33.70
 -16   2  -8  274.67   23.50
 -16   2  -8  305.47   21.60
  16  -2   8  341.17   23.80
 -17   1  -8    1.70    5.10
 -17   1  -8    8.10    3.30
  17  -1   8    1.90    3.90
 -18   0  -8  415.16   28.40
 -18   0  -8  366.56   26.70
  18   0   8  398.86   29.70
 -19  -1  -8   35.70    6.90
 -19  -1  -8   50.79    6.70
  19   1   8   45.90    8.40
 -20  -2  -8   18.50    6.10
 -20  -2  -8   12.90    4.40
  20   2   8    6.50    6.70
 -21  -3  -8  239.18   18.10
  21   3   8  220.48   22.20
 -22  -4  -8  150.88   14.40
  22   4   8  160.58   19.20
 -11   7  -9  204.88   24.40
  11  -7   9  220.78   19.30
 -12   6  -9   -8.10    8.40
  12  -6   9   -5.30    4.30
  12  -6   9    2.10    5.20
 -13   5  -9  481.55   37.90
  13  -5   9  508.95   34.80
  13  -5   9  509.45   34.80
 -14   4  -9   23.70    7.50
  14  -4   9   28.50    6.10
  14  -4   9   29.10    5.50
 -15   3  -9   68.99    7.80
 -15   3  -9   69.69   10.50
  15  -3   9   51.09    8.00
 -16   2  -9   97.79    9.10
 -16   2  -9   83.19   12.10
  16  -2   9   78.39   11.10
 -17   1  -9 1021.00   64.79
 -17   1  -9 1003.00   67.09
 -18   0  -9    0.40    3.50
 -18   0  -9   -1.40    5.20
  18   0   9   -2.40    5.30
 -19  -1  -9  276.47   22.70
 -19  -1  -9  334.07   21.50
  19   1   9  277.47   24.60
 -20  -2  -9  136.59   14.70
  20   2   9  152.68   17.50
 -21  -3  -9  776.42   47.50
  21   3   9  647.44   51.19
 -12   6 -10  147.49   18.30
  12  -6  10  117.49   13.10
  12  -6  10  114.99   12.60
 -13   5 -10  154.18   19.10
  13  -5  10  191.18   15.50
  13  -5  10  174.68   16.10
 -14   4 -10    3.10    6.70
  14  -4  10   -0.10    5.40
 -15   3 -10  331.67   22.30
 -15   3 -10  270.67   25.20
  15  -3  10  323.47   24.60
 -16   2 -10   -3.90    3.50
  16  -2  10   10.00    5.50
 -17   1 -10  197.58   14.80
 -17   1 -10  194.28   18.20
  17  -1  10  168.38   17.80
 -18   0 -10  182.58   13.70
 -18   0 -10  145.99   16.00
  18   0  10  164.68   17.50
 -19  -1 -10  115.09   14.20
  19   1  10  137.39   15.40
 -20  -2 -10  416.76   33.10
  20   2  10  508.45   36.60
 -13   5 -11   95.19   13.60
  13  -5  11   73.19   10.80
  13  -5  11   99.09   12.20
 -14   4 -11  560.94   39.10
 -14   4 -11  564.54   43.80
  14  -4  11  623.84   41.80
 -15   3 -11   70.39   13.00
  15  -3  11   71.99   10.60
 -16   2 -11   -4.20    7.60
 -16   2 -11   11.20    4.50
  16  -2  11   25.70    7.40
 -17   1 -11    5.20    7.40
 -17   1 -11    2.80    4.40
  17  -1  11   11.60    8.00
 -18   0 -11   -0.60    6.80
  18   0  11   -4.80    9.20
 -19  -1 -11   26.90    5.60
  19   1  11   47.20    9.90
 -15   3 -12   16.40   11.70
 -15   3 -12    9.90    5.20
  15  -3  12   11.00    9.90
 -16   2 -12  668.53   53.09
 -16   2 -12  820.12   49.20
  16  -2  12  748.23   53.19
 -17   1 -12   30.60    9.80
 -17   1 -12   20.90    5.20
  17  -1  12   21.80    8.20
 -17   3  14    4.90   11.10
  17  -3 -14    7.00    6.30
 -18   2  14   38.70   14.30
  18  -2 -14   37.20    8.10
 -19   1  14   15.50    9.00
  19  -1 -14   11.80    5.50
 -20   0  14  471.05   38.20
  20   0 -14  473.55   33.20
  15  -5 -13  196.18   19.40
 -16   4  13  534.05   41.30
  16  -4 -13  521.15   37.80
 -17   3  13   13.00    8.90
  17  -3 -13   31.70    7.20
 -18   2  13  145.09   19.30
  18  -2 -13  156.18   14.10
 -19   1  13  234.98   23.20
  19  -1 -13  233.58   18.50
 -20   0  13   -2.30    8.60
 -21  -1  13  299.97   28.80
  21   1 -13  278.07   21.30
 -22  -2  13   83.59   14.50
  22   2 -13   94.99   10.20
  14  -6 -12   27.40    8.80
 -15   5  12   99.19   16.90
  15  -5 -12  110.69   15.20
  16  -4 -12    5.50    6.00
 -17   3  12   40.80    9.90
  17  -3 -12   44.90    8.00
 -18   2  12    9.20    7.40
 -19   1  12    0.40    7.10
  19  -1 -12    8.80    4.00
 -20   0  12  299.67   26.70
  20   0 -12  307.07   22.10
 -21  -1  12   35.30    9.40
  21   1 -12   31.40    5.70
 -22  -2  12  125.79   18.20
  22   2 -12  106.79   10.30
 -23  -3  12  187.38   21.00
  23   3 -12  188.28   19.30
 -14   6  11  194.88   20.50
  14  -6 -11  193.88   19.10
 -15   5  11   29.40    7.70
  15  -5 -11   20.70    7.00
 -16   4  11   -6.00    6.90
  16  -4 -11   22.00    6.00
 -17   3  11  280.27   24.10
  17  -3 -11  269.77   21.00
 -18   2  11   29.40    8.90
  18  -2 -11   35.00    6.20
 -19   1  11  737.83   60.89
  19  -1 -11  879.01   53.79
 -20   0  11   -5.70    6.00
  20   0 -11    3.00    3.50
 -21  -1  11  788.72   54.19
 -21  -1  11  705.13   47.70
  21   1 -11  788.02   49.30
 -22  -2  11   -0.10    6.80
 -22  -2  11    3.50    3.20
  22   2 -11   -0.40    3.40
 -23  -3  11    8.90    4.30
 -23  -3  11   10.80    9.00
  23   3 -11    7.90    4.00
  13  -7 -10  147.49   15.40
 -14   6  10  197.08   19.20
  14  -6 -10  216.48   19.20
 -15   5  10  548.95   35.60
 -15   5  10  480.45   37.60
  15  -5 -10  505.65   36.50
  15  -5 -10  538.65   33.20
 -16   4  10  159.38   16.60
  16  -4 -10  167.28   14.30
 -17   3  10  198.38   14.60
 -17   3  10  225.28   19.90
  17  -3 -10  222.98   17.00
 -18   2  10 1461.15   92.59
 -18   2  10 1296.17   86.79
  18  -2 -10 1458.65   89.29
 -19   1  10   54.89    6.10
 -19   1  10   63.09   10.60
  19  -1 -10   63.09    7.30
 -20   0  10   78.29   12.50
 -20   0  10   82.49    6.80
  20   0 -10   83.09    8.40
 -21  -1  10    3.10    2.50
 -21  -1  10    4.60    6.30
  21   1 -10    2.30    3.20
 -22  -2  10    3.50    3.10
 -22  -2  10    2.60    7.30
  22   2 -10    2.90    3.20
 -23  -3  10  241.78   24.00
 -23  -3  10  248.78   17.90
  23   3 -10  250.47   17.70
 -24  -4  10   85.49   15.90
 -24  -4  10   66.19    8.20
  13  -7  -9   20.00    3.80
  13  -7  -9   19.40    8.40
 -14   6   9  653.53   47.10
  14  -6  -9  668.33   47.20
  14  -6  -9  742.13   44.20
 -15   5   9   86.19   12.10
  15  -5  -9  105.69    8.00
 -16   4   9   53.19    8.20
 -16   4   9   44.00    5.30
  16  -4  -9   41.00    6.80
 -17   3   9  173.88   12.90
 -17   3   9  188.88   17.30
  17  -3  -9  184.68   14.50
 -18   2   9  147.59   15.10
 -18   2   9  158.68   15.40
 -18   2   9  143.99   12.20
  18  -2  -9  136.99   12.00
 -19   1   9    3.70    2.30
 -19   1   9   -0.30    4.70
 -19   1   9   14.40    5.00
  19  -1  -9    7.90    3.20
 -20   0   9   -5.90    4.80
 -20   0   9   -2.70    2.30
  20   0  -9   -2.40    2.70
 -21  -1   9  181.48   18.00
 -21  -1   9  169.98   13.00
  21   1  -9  189.68   13.50
 -22  -2   9    6.70    3.30
 -22  -2   9   -2.70    6.40
  22   2  -9   -4.70    2.50
 -23  -3   9  407.46   33.60
 -23  -3   9  419.56   28.60
  23   3  -9  445.66   28.10
 -24  -4   9   14.90    4.80
 -24  -4   9   14.20    8.10
 -12   8   8  396.36   34.80
  12  -8  -8  437.36   28.30
 -13   7   8   60.09   11.70
  13  -7  -8   52.49    6.30
  13  -7  -8   39.50    8.00
 -14   6   8  407.26   30.90
  14  -6  -8  423.16   31.10
  14  -6  -8  464.45   28.50
 -15   5   8   41.30    7.20
  15  -5  -8   51.19    5.40
  15  -5  -8   52.09    7.60
 -16   4   8   25.70    6.40
 -16   4   8   24.80    5.50
 -16   4   8   34.10    4.80
  16  -4  -8   32.50    4.20
  16  -4  -8   27.30    5.60
 -17   3   8   52.29    5.70
 -17   3   8   42.40    7.80
 -17   3   8   53.79    6.30
  17  -3  -8   57.79    6.60
 -18   2   8 1266.47   75.49
 -18   2   8 1151.78   75.59
 -18   2   8 1173.18   79.49
  18  -2  -8 1222.48   76.69
 -19   1   8   18.50    5.70
 -19   1   8   23.40    3.40
 -19   1   8   28.60    4.70
  19  -1  -8   21.90    4.20
 -20   0   8  195.28   18.70
 -20   0   8  187.38   14.40
  20   0  -8  236.78   15.30
 -21  -1   8   29.20    4.20
 -21  -1   8   28.40    7.30
 -21  -1   8   23.20    8.70
  21   1  -8   31.70    4.50
 -22  -2   8   16.30    3.50
 -22  -2   8   -2.10    5.70
  22   2  -8   15.40    2.90
 -23  -3   8   59.29   10.20
 -23  -3   8   52.49    7.10
  23   3  -8   52.09    5.50
 -24  -4   8  727.83   52.79
 -24  -4   8  736.73   48.00
 -25  -5   8  116.09   13.40
 -25  -5   8  156.28   20.50
 -12   8   7  217.38   27.10
  12  -8  -7  180.48   14.50
 -13   7   7  192.78   21.00
  13  -7  -7  179.18   13.90
  13  -7  -7  193.78   17.80
 -14   6   7  696.73   44.90
  14  -6  -7  635.44   46.60
 -15   5   7   60.59    8.90
  15  -5  -7   82.69    9.30
  15  -5  -7   61.49    6.30
 -16   4   7  194.18   16.70
  16  -4  -7  196.58   13.60
  16  -4  -7  191.08   15.50
 -17   3   7 1371.36   87.39
 -17   3   7 1337.57   83.99
 -17   3   7 1296.17   83.99
  17  -3  -7 1349.56   84.99
 -18   2   7  223.38   15.30
 -18   2   7  209.08   15.80
 -18   2   7  236.28   19.00
  18  -2  -7  205.58   15.80
 -19   1   7  168.48   12.70
 -19   1   7  197.88   16.80
 -19   1   7  171.48   13.50
  19  -1  -7  175.68   13.10
 -20   0   7   -3.90    2.10
 -20   0   7   -0.70    5.90
 -20   0   7   -3.10    4.40
  20   0  -7   -0.20    2.00
 -21  -1   7  532.95   40.90
 -21  -1   7  562.74   36.90
 -21  -1   7  580.24   38.30
  21   1  -7  594.24   36.70
 -22  -2   7   38.60    5.20
 -22  -2   7   33.50    7.50
  22   2  -7   48.80    6.80
 -23  -3   7   86.49   14.00
 -23  -3   7  104.99    9.50
  23   3  -7  100.39    8.00
 -24  -4   7  314.97   27.80
 -24  -4   7  330.77   23.20
 -25  -5   7   18.80    5.80
 -25  -5   7   15.60    8.70
 -12   8   6   43.40   12.40
  12  -8  -6   50.99    6.50
 -13   7   6    0.80    8.60
  13  -7  -6    8.90    3.30
 -14   6   6  139.39   12.20
 -14   6   6  149.79   16.40
  14  -6  -6  141.49   10.70
  14  -6  -6  119.69   13.00
 -15   5   6  114.99   11.50
  15  -5  -6  100.89   10.90
  15  -5  -6  118.69    9.00
 -16   4   6   12.50    4.60
  16  -4  -6    3.40    2.90
  16  -4  -6    3.50    2.10
 -17   3   6   13.30    4.90
 -17   3   6   19.40    3.70
  17  -3  -6   14.00    3.50
 -18   2   6  617.74   42.80
 -18   2   6  638.24   39.70
 -18   2   6  572.34   39.70
  18  -2  -6  630.34   40.10
 -19   1   6   44.90    5.50
 -19   1   6   42.80    7.30
 -19   1   6   53.89    7.80
  19  -1  -6   47.50    5.20
 -20   0   6  183.58   14.80
 -20   0   6  177.48   12.70
 -20   0   6  159.08   15.70
  20   0  -6  166.28   12.30
 -21  -1   6  218.38   17.20
 -21  -1   6  229.48   16.20
 -21  -1   6  224.78   19.90
  21   1  -6  236.78   15.70
 -22  -2   6 2114.19  147.09
 -22  -2   6 2288.97  145.69
 -22  -2   6 2386.16  150.18
  22   2  -6 2552.24  144.59
 -23  -3   6   19.20    7.50
 -23  -3   6   25.10    4.70
 -24  -4   6   52.99    7.30
 -24  -4   6   57.89   11.40
 -25  -5   6  277.27   25.60
 -25  -5   6  267.17   21.10
 -11   9   5  424.86   37.10
  11  -9  -5  393.76   28.00
 -12   8   5  287.07   28.20
  12  -8  -5  287.87   23.60
 -13   7   5  895.51   61.59
  13  -7  -5  850.91   55.59
 -14   6   5   28.30    5.40
 -14   6   5   27.50    7.50
  14  -6  -5   33.90    4.60
 -15   5   5  100.79   12.20
 -15   5   5   88.19   11.20
 -15   5   5   96.39   10.20
  15  -5  -5   96.69    8.10
  15  -5  -5   91.19    9.50
 -16   4   5  108.79   11.20
 -16   4   5  117.99   12.30
  16  -4  -5  120.19    8.80
  16  -4  -5  100.29    9.70
 -17   3   5  184.38   15.90
 -17   3   5  171.98   13.50
  17  -3  -5  175.48   13.70
  17  -3  -5  192.28   12.90
 -18   2   5   17.60    3.60
 -18   2   5   22.60    5.50
  18  -2  -5   13.90    3.20
 -19   1   5 1206.08   82.29
 -19   1   5 1384.46   80.39
 -19   1   5 1188.88   79.19
  19  -1  -5 1283.77   79.19
  19  -1  -5 1233.88   81.89
 -20   0   5    2.60    4.40
 -20   0   5    0.20    4.20
 -20   0   5    0.00    2.30
  20   0  -5   -3.20    3.10
 -21  -1   5   41.40    6.80
 -21  -1   5   48.90    5.90
  21   1  -5   49.80    5.00
  21   1  -5   36.00    7.20
 -22  -2   5  299.37   19.20
 -22  -2   5  284.67   20.60
  22   2  -5  300.07   24.10
 -23  -3   5    8.50    3.90
  23   3  -5    1.00    5.40
 -24  -4   5    4.10    4.30
 -25  -5   5    7.10    5.40
 -25  -5   5    5.40    8.60
 -11   9   4  297.37   31.30
  11  -9  -4  323.27   22.70
  13  -7  -4  256.67   18.30
 -14   6   4   23.00    5.70
 -14   6   4   23.50    7.50
  14  -6  -4   24.60    4.00
 -15   5   4  673.03   47.10
 -15   5   4  694.33   45.20
 -15   5   4  673.53   45.10
  15  -5  -4  675.73   43.60
 -16   4   4 1344.07   87.09
 -16   4   4 1342.87   88.09
 -16   4   4 1378.76   87.59
  16  -4  -4 1374.76   85.29
 -17   3   4  639.04   42.40
 -17   3   4  597.94   42.70
  17  -3  -4  638.74   40.10
 -18   2   4   55.49    8.10
 -18   2   4   43.50    5.80
 -18   2   4   55.49    8.20
 -18   2   4   51.49    7.10
  18  -2  -4   60.19    7.30
  18  -2  -4   50.19    5.50
 -19   1   4  114.69   10.20
 -19   1   4  120.59    9.10
 -19   1   4   88.99    9.00
  19  -1  -4  105.39   10.50
  19  -1  -4  101.79    8.30
 -20   0   4    6.60    3.20
 -20   0   4    3.00    2.70
 -20   0   4    3.40    3.50
  20   0  -4    1.30    3.40
 -21  -1   4    6.40    2.60
 -21  -1   4    7.80    3.00
 -21  -1   4    4.60    2.80
  21   1  -4    8.80    4.50
 -22  -2   4  213.88   15.40
  22   2  -4  199.88   17.90
 -23  -3   4  868.31   54.29
  23   3  -4  806.72   57.39
 -24  -4   4    6.40    4.30
  24   4  -4   13.00    7.50
 -25  -5   4   39.30    7.70
  25   5  -4   56.29   11.00
 -26  -6   4  176.38   23.90
 -26  -6   4  174.98   15.70
  26   6  -4  127.09   20.90
 -11   9   3   46.80   15.80
  11  -9  -3   33.00    6.00
 -12   8   3  143.19   19.30
  12  -8  -3  108.59   11.30
 -13   7   3  614.34   45.50
  13  -7  -3  615.44   40.20
 -14   6   3   29.10    5.10
 -14   6   3   21.70    7.10
 -14   6   3   38.30    6.00
  14  -6  -3   20.40    4.00
 -15   5   3  576.84   43.90
 -15   5   3  670.93   42.50
 -15   5   3  649.83   42.40
  15  -5  -3  641.34   41.00
 -16   4   3   75.69   10.10
 -16   4   3   88.79    9.40
 -16   4   3   63.39    9.60
  16  -4  -3   76.89    7.10
 -17   3   3  198.18   16.80
  17  -3  -3  218.18   16.40
  17  -3  -3  212.98   14.80
 -18   2   3  252.17   17.60
 -18   2   3  239.38   17.80
 -18   2   3  213.28   16.70
  18  -2  -3  246.18   18.30
 -19   1   3  775.42   44.90
 -19   1   3  617.94   44.90
 -19   1   3  689.83   44.70
  19  -1  -3  688.73   46.50
 -20   0   3    3.50    3.00
 -20   0   3    2.90    3.00
 -20   0   3   -1.70    3.00
  20   0  -3   -0.70    3.20
 -21  -1   3 1831.62  105.09
 -21  -1   3 1586.24  103.39
  21   1  -3 1605.94  107.39
 -22  -2   3   14.20    3.70
  22   2  -3   14.10    5.30
 -23  -3   3   55.29    7.30
  23   3  -3   43.00    8.50
 -24  -4   3  141.59   13.40
  24   4  -3  140.59   16.20
 -25  -5   3  301.97   21.90
  25   5  -3  258.57   25.70
 -26  -6   3  330.27   23.90
  26   6  -3  272.37   29.00
 -11   9   2  123.29   22.20
  11  -9  -2  106.19   11.50
 -12   8   2  635.74   47.10
  12  -8  -2  602.24   40.60
 -13   7   2    2.50    7.70
  13  -7  -2   -2.80    3.00
 -14   6   2   71.89    8.40
 -14   6   2   71.19   11.60
 -14   6   2   71.39    8.40
  14  -6  -2   67.79    7.20
 -15   5   2  482.75   31.50
 -15   5   2  435.16   33.50
 -15   5   2  421.86   35.10
  15  -5  -2  481.75   30.40
 -16   4   2  524.65   36.70
 -16   4   2  495.95   35.70
  16  -4  -2  523.25   34.10
  16  -4  -2  554.14   35.20
 -17   3   2  143.19   13.90
 -17   3   2  133.59   11.90
  17  -3  -2  119.39    9.80
  17  -3  -2  125.89   11.10
 -18   2   2  272.27   19.20
 -18   2   2  284.57   18.90
 -18   2   2  240.28   19.40
  18  -2  -2  273.47   20.00
 -19   1   2    2.70    4.00
 -19   1   2    0.30    3.30
 -19   1   2   -0.50    2.30
  19  -1  -2    1.40    3.00
 -20   0   2  137.69   10.00
 -20   0   2  112.59    9.90
 -20   0   2  127.79   10.20
  20   0  -2  113.69   11.90
 -21  -1   2  198.78   14.60
  21   1  -2  199.08   16.60
 -22  -2   2  524.15   34.40
  22   2  -2  516.95   37.30
 -23  -3   2    1.50    3.60
  23   3  -2    0.50    4.90
  24   4  -2   -4.60    6.30
 -25  -5   2   79.49   10.40
  25   5  -2   68.29   12.90
 -26  -6   2  131.49   13.40
  26   6  -2   94.19   15.50
 -11   9   1  255.97   30.00
  11  -9  -1  272.17   20.50
 -12   8   1    1.90   10.10
  12  -8  -1    4.30    4.10
 -13   7   1    4.10    7.80
  13  -7  -1   19.40    4.60
 -14   6   1   14.50    4.40
 -14   6   1   14.80    7.00
 -14   6   1    8.70    4.10
  14  -6  -1   14.80    3.50
 -15   5   1 1273.67   78.59
 -15   5   1 1109.49   75.19
  15  -5  -1 1132.19   74.69
  15  -5  -1 1231.68   76.49
 -16   4   1  145.29   13.40
 -16   4   1  142.39   13.80
  16  -4  -1  136.59   11.00
  16  -4  -1  153.78   11.80
 -17   3   1   28.60    5.40
 -17   3   1   19.30    6.00
  17  -3  -1   24.00    4.00
  17  -3  -1   16.00    3.60
 -18   2   1  672.03   44.00
 -18   2   1  629.74   43.10
 -18   2   1  655.73   43.10
  18  -2  -1  709.23   44.40
 -19   1   1  655.93   44.50
 -19   1   1  650.93   44.10
 -19   1   1  736.03   43.90
  19  -1  -1  682.43   45.60
 -20   0   1    1.50    2.90
 -20   0   1   -1.80    2.70
 -20   0   1    3.90    2.70
  20   0  -1   -1.70    3.30
 -21  -1   1   18.50    3.90
  21   1  -1   12.60    4.50
 -22  -2   1   91.89    8.80
  22   2  -1   91.69   10.80
 -23  -3   1  152.98   12.90
  23   3  -1  157.68   15.90
 -24  -4   1  131.29   12.90
  24   4  -1  132.39   16.10
 -25  -5   1  234.58   18.50
  25   5  -1  221.08   22.60
 -26  -6   1  432.26   30.10
  26   6  -1  376.36   35.50
 -11   9   0  -17.10   14.40
  11  -9   0    5.70    6.30
 -12   8   0  356.66   31.50
  12  -8   0  341.37   24.60
 -13   7   0  140.79   17.00
  13  -7   0  113.89   10.80
 -14   6   0  425.16   30.40
 -14   6   0  333.47   25.20
 -14   6   0  374.36   26.10
  14  -6   0  394.06   25.70
 -15   5   0  100.99   10.60
 -15   5   0   92.79   11.20
  15  -5   0   96.39    8.60
  15  -5   0   95.39    8.60
 -16   4   0 1130.79   70.89
 -16   4   0 1051.29   69.29
  16  -4   0 1077.69   68.79
  16  -4   0 1050.99   68.19
 -17   3   0  375.26   27.40
  17  -3   0  387.96   26.60
  17  -3   0  391.56   25.80
 -18   2   0  256.07   19.90
 -18   2   0  281.47   19.30
 -18   2   0  261.97   19.10
  18  -2   0  290.37   20.20
 -19   1   0   -1.10    2.50
 -19   1   0    4.10    3.10
  19  -1   0   -0.40    2.60
 -20   0   0 3533.35  233.18
 -20   0   0 3844.02  232.88
 -20   0   0 3818.12  233.98
  20   0   0 3899.41  235.88
 -21  -1   0    4.90    3.00
  21   1   0    4.20    3.70
 -22  -2   0  194.78   14.90
  22   2   0  204.28   17.50
 -23  -3   0  264.97   19.00
  23   3   0  249.28   21.80
 -24  -4   0   32.00    5.90
  24   4   0   17.00    7.20
 -25  -5   0    0.70    4.80
  25   5   0   13.40    8.20
 -26  -6   0  681.43   43.50
  26   6   0  557.04   47.50
 -11   9  -1  428.56   38.20
  11  -9   1  369.96   28.40
 -12   8  -1   -0.10    9.50
  12  -8   1   -1.20    4.50
 -13   7  -1   15.60    7.10
  13  -7   1   11.90    4.30
 -14   6  -1   49.30    9.40
 -14   6  -1   44.40    6.80
  14  -6   1   47.60    6.40
  14  -6   1   50.99    6.80
 -15   5  -1  156.78   15.90
 -15   5  -1  154.28   14.30
  15  -5   1  160.58   12.70
  15  -5   1  174.28   12.70
 -16   4  -1   30.80    6.60
 -16   4  -1   36.70    6.70
  16  -4   1   31.60    5.00
  16  -4   1   31.10    4.50
 -17   3  -1  204.28   16.50
  17  -3   1  220.68   15.00
  17  -3   1  187.28   15.30
 -18   2  -1  177.18   14.60
 -18   2  -1  203.78   15.80
 -18   2  -1  206.98   14.80
  18  -2   1  201.58   15.40
 -19   1  -1   23.40    4.30
 -19   1  -1   13.80    3.90
 -19   1  -1   14.40    3.90
  19  -1   1   15.20    4.10
 -20   0  -1    1.60    2.70
 -20   0  -1    1.50    2.70
 -20   0  -1    0.10    2.90
  20   0   1   -2.30    3.10
 -21  -1  -1   31.20    5.20
 -21  -1  -1   30.90    3.90
 -21  -1  -1   31.40    4.00
  21   1   1   23.70    5.60
 -22  -2  -1    6.30    3.50
  22   2   1    3.30    4.50
 -23  -3  -1   50.99    6.90
  23   3   1   42.00    8.60
 -24  -4  -1    4.30    4.40
 -25  -5  -1  359.26   25.40
  25   5   1  318.97   29.60
 -11   9  -2   28.50   12.80
 -12   8  -2   19.60    8.90
  12  -8   2   -0.10    4.90
 -14   6  -2  272.77   24.90
  14  -6   2  317.47   20.50
  14  -6   2  268.47   20.50
 -15   5  -2  302.27   24.30
 -15   5  -2  337.67   26.10
  15  -5   2  338.97   23.10
  15  -5   2  351.26   23.00
 -16   4  -2   13.40    6.50
 -16   4  -2   14.30    5.40
  16  -4   2   13.60    3.40
  16  -4   2   13.90    3.70
 -17   3  -2  552.54   38.40
  17  -3   2  566.44   37.40
  17  -3   2  556.04   36.60
 -18   2  -2   92.29    8.80
 -18   2  -2   96.79    9.90
  18  -2   2  101.29    9.50
  18  -2   2  109.19   11.30
 -19   1  -2  353.76   24.50
 -19   1  -2  333.87   24.00
  19  -1   2  360.66   25.50
  19  -1   2  359.56   24.30
 -20   0  -2   65.39    8.00
  20   0   2   70.49    7.20
  20   0   2   56.99    8.10
 -21  -1  -2  588.14   36.30
 -21  -1  -2  545.55   34.80
 -21  -1  -2  522.45   34.90
  21   1   2  536.95   38.20
 -22  -2  -2    9.50    3.60
  22   2   2    8.90    4.70
 -23  -3  -2  387.96   25.20
  23   3   2  320.97   27.60
 -24  -4  -2  179.78   15.00
  24   4   2  170.28   18.30
 -25  -5  -2  527.75   36.10
  25   5   2  502.25   39.80
 -11   9  -3  268.17   28.50
  11  -9   3  224.18   19.00
 -12   8  -3  136.19   19.40
  12  -8   3  113.79   12.20
 -13   7  -3  102.79   14.20
  13  -7   3   95.99   10.10
 -14   6  -3  318.47   27.60
  14  -6   3  389.16   23.30
  14  -6   3  294.97   23.30
 -15   5  -3  999.60   65.39
 -15   5  -3 1000.80   67.59
  15  -5   3  988.20   64.39
  15  -5   3 1038.50   64.49
 -16   4  -3  170.08   15.70
  16  -4   3  169.98   13.30
  16  -4   3  169.98   13.20
 -17   3  -3   26.60    5.90
  17  -3   3   23.50    4.70
  17  -3   3   31.00    4.80
 -18   2  -3   22.30    4.20
 -18   2  -3   21.50    5.20
  18  -2   3   15.90    4.00
 -19   1  -3 1631.74  102.89
 -19   1  -3 1694.33  102.39
  19  -1   3 1606.14  103.59
  19  -1   3 1578.44  102.39
 -20   0  -3   -1.60    2.60
 -20   0  -3   -1.90    3.10
  20   0   3   -2.70    3.60
  20   0   3    3.10    3.10
 -21  -1  -3  130.89   11.10
 -21  -1  -3  150.68   11.80
  21   1   3  147.69   11.00
  21   1   3  132.29   12.90
 -22  -2  -3   30.80    5.70
  22   2   3   33.40    7.30
 -23  -3  -3  549.85   40.40
  23   3   3  609.64   42.10
 -24  -4  -3  308.47   22.70
  24   4   3  304.67   26.60
 -25  -5  -3  199.38   17.90
  25   5   3  174.98   21.30
 -12   8  -4   66.39   14.00
  12  -8   4   64.69    9.30
 -13   7  -4   41.30   10.30
  13  -7   4   53.39    7.50
 -14   6  -4   49.00   10.10
  14  -6   4   56.29    6.30
  14  -6   4   36.30    6.20
 -15   5  -4  449.76   33.10
  15  -5   4  447.66   29.90
  15  -5   4  425.26   29.60
 -16   4  -4    5.90    4.80
  16  -4   4    8.50    3.40
 -17   3  -4   72.79   10.00
  17  -3   4   73.69    8.00
  17  -3   4   74.99    7.70
 -18   2  -4   52.69    6.70
 -18   2  -4   52.49    8.10
  18  -2   4   60.19    7.30
 -19   1  -4   27.60    5.00
 -19   1  -4   13.20    3.50
  19  -1   4   16.40    4.40
 -20   0  -4  302.57   19.90
 -20   0  -4  265.87   19.60
  20   0   4  281.67   20.00
  20   0   4  255.37   21.20
 -21  -1  -4    8.60    3.80
  21   1   4    0.00    3.70
  21   1   4   -2.10    3.90
 -22  -2  -4  171.08   13.30
 -22  -2  -4  152.58   12.30
  22   2   4  167.08   15.70
 -23  -3  -4  199.78   15.30
  23   3   4  172.28   18.10
 -24  -4  -4  755.12   48.70
  24   4   4  711.63   52.19
 -25  -5  -4  583.84   38.60
  25   5   4  533.35   43.70
 -12   8  -5   22.00   14.60
  12  -8   5    7.00    6.60
 -13   7  -5  256.47   23.60
  13  -7   5  231.68   18.80
  14  -6   5   11.40    3.50
 -15   5  -5   43.50    9.00
  15  -5   5   34.40    6.00
  15  -5   5   34.20    5.30
 -16   4  -5  570.54   39.90
  16  -4   5  563.14   37.90
  16  -4   5  561.04   37.40
 -17   3  -5  301.77   22.20
 -17   3  -5  265.57   20.00
  17  -3   5  250.77   20.50
  17  -3   5  307.97   20.20
 -18   2  -5  207.98   15.70
 -18   2  -5  205.78   17.30
  18  -2   5  216.38   17.00
 -19   1  -5   18.80    5.10
 -19   1  -5   18.10    4.30
  19  -1   5   14.30    4.40
 -20   0  -5    0.70    3.20
 -20   0  -5    2.90    3.90
  20   0   5    9.50    4.40
 -21  -1  -5  140.19   11.90
 -21  -1  -5  123.89   11.10
  21   1   5  142.99   14.00
 -22  -2  -5   85.89    8.60
  22   2   5   50.59   11.80
 -23  -3  -5   70.39    8.40
  23   3   5   47.70    9.60
 -24  -4  -5  403.76   29.30
  24   4   5  424.76   33.50
 -12   8  -6  424.26   34.50
  12  -8   6  389.46   29.10
 -13   7  -6  269.07   25.90
  13  -7   6  301.37   21.90
 -14   6  -6 1186.38   84.09
  14  -6   6 1201.18   80.29
  14  -6   6 1378.56   80.49
 -15   5  -6   54.79   10.50
  15  -5   6   46.10    6.80
  15  -5   6   51.99    7.30
 -16   4  -6   42.30    8.20
  16  -4   6   45.20    6.30
  16  -4   6   36.10    5.50
 -17   3  -6   85.19    9.10
 -17   3  -6   91.59   11.40
  17  -3   6  109.69   10.00
  17  -3   6   89.59    9.20
 -18   2  -6 1445.56   96.69
 -18   2  -6 1559.74   95.19
  18  -2   6 1510.75   96.59
 -19   1  -6  143.49   11.70
 -19   1  -6  142.59   13.10
  19  -1   6  131.79   12.90
 -20   0  -6  853.21   50.29
 -20   0  -6  728.93   50.49
  20   0   6  728.33   51.99
 -21  -1  -6    4.60    3.90
 -21  -1  -6   -1.00    3.40
  21   1   6   -2.30    4.40
 -22  -2  -6  230.78   17.10
  22   2   6  227.08   20.00
 -23  -3  -6    7.60    5.00
  23   3   6   11.20    7.00
 -24  -4  -6    7.30    5.80
  24   4   6    0.60   10.40
 -13   7  -7  146.49   23.30
  13  -7   7  174.68   15.50
 -14   6  -7   92.59   14.50
  14  -6   7   91.79    9.70
  14  -6   7  102.59   11.10
 -15   5  -7   -3.30    7.50
  15  -5   7    4.90    3.90
 -16   4  -7  102.69   13.40
  16  -4   7  108.09   10.40
  16  -4   7  108.49   10.80
 -17   3  -7   -3.50    5.30
 -17   3  -7    1.80    3.40
  17  -3   7    3.70    3.70
 -18   2  -7  113.89   12.70
 -18   2  -7  107.19   10.50
  18  -2   7  117.89   12.00
 -19   1  -7    3.20    4.90
 -19   1  -7    0.20    3.70
  19  -1   7    4.90    4.50
 -20   0  -7   -5.00    3.40
 -20   0  -7   -3.10    4.90
  20   0   7   -4.60    4.70
 -21  -1  -7  116.79   12.00
 -21  -1  -7  149.49   12.20
  21   1   7  136.79   15.00
 -22  -2  -7   -2.00    4.70
 -22  -2  -7   -6.70    3.70
  22   2   7    8.50    6.30
 -23  -3  -7  778.62   49.70
  23   3   7  720.13   53.29
 -13   7  -8   10.40    8.60
  13  -7   8   23.70    8.40
 -14   6  -8   64.29   12.90
  14  -6   8   48.60    7.60
  14  -6   8   70.79    9.00
 -15   5  -8  353.26   28.90
  15  -5   8  341.47   25.00
  15  -5   8  339.47   24.90
  16  -4   8  149.49   13.80
  16  -4   8  178.98   14.80
 -17   3  -8   52.79    6.80
 -17   3  -8   61.99   10.30
  17  -3   8   58.69    8.50
 -18   2  -8   37.50    5.90
 -18   2  -8   20.00    6.60
  18  -2   8   30.60    6.70
 -19   1  -8   48.90    8.70
 -19   1  -8   40.50    6.10
 -20   0  -8   90.69   11.20
 -20   0  -8   97.59    9.70
  20   0   8   81.89   12.10
 -21  -1  -8   87.59   11.10
  21   1   8   96.29   12.80
 -22  -2  -8  108.49   13.60
 -22  -2  -8  146.69   12.50
  22   2   8  135.09   16.70
 -23  -3  -8  237.78   18.70
  23   3   8  218.58   22.20
 -14   6  -9  102.19   15.80
  14  -6   9  100.29   12.00
  14  -6   9  104.79   11.40
 -15   5  -9   55.69   10.90
  15  -5   9   76.29   10.30
  15  -5   9   75.99   10.00
 -16   4  -9   10.80    7.50
 -16   4  -9    3.70    4.20
  16  -4   9    5.10    4.40
  16  -4   9    5.60    4.90
 -17   3  -9  306.57   25.90
 -18   2  -9   -3.70    3.80
 -18   2  -9   -5.40    6.10
  18  -2   9    5.80    4.80
 -19   1  -9  308.07   21.60
 -19   1  -9  295.27   24.00
  19  -1   9  281.57   24.10
 -20   0  -9   -5.30    5.60
  20   0   9   -1.00    6.40
 -21  -1  -9  556.64   44.90
 -21  -1  -9  761.22   44.60
  21   1   9  707.53   48.40
 -22  -2  -9   11.40    5.40
  22   2   9   -4.60    7.10
 -15   5 -10  331.97   30.70
  15  -5  10  370.16   27.00
  15  -5  10  366.36   26.60
 -16   4 -10   46.40   10.10
 -16   4 -10   48.30    7.40
  16  -4  10   30.60    7.50
 -17   3 -10  307.77   26.20
 -17   3 -10  295.57   21.70
  17  -3  10  297.67   24.20
 -18   2 -10  133.99   12.50
 -18   2 -10  121.99   16.00
  18  -2  10  177.48   16.30
 -19   1 -10  170.18   13.90
  19  -1  10  156.58   16.80
 -20   0 -10   73.19    9.40
 -20   0 -10   49.80   10.20
  20   0  10   60.09   12.00
 -21  -1 -10   78.59   10.60
 -21  -1 -10   74.49   11.10
  21   1  10   94.29   14.40
 -16   4 -11  231.28   17.90
 -16   4 -11  205.08   23.00
  16  -4  11  208.18   19.70
 -17   3 -11    2.80    9.00
 -17   3 -11    2.80    5.30
  17  -3  11   12.80    7.60
 -18   2 -11   29.80    9.90
 -18   2 -11   12.90    5.20
  18  -2  11    7.50    8.80
 -19   1 -11   39.70    7.00
 -19   1 -11   49.10   11.10
  19  -1  11   44.70    9.90
 -20   0 -11    2.30    8.70
 -18   4  13   48.50   12.60
  18  -4 -13   51.19    9.20
 -19   3  13  476.75   37.60
  19  -3 -13  446.96   33.20
 -20   2  13  281.27   28.60
  20  -2 -13  319.37   23.50
 -21   1  13  311.67   30.10
  21  -1 -13  286.17   22.50
 -22   0  13    6.10    9.00
  22   0 -13   -2.00    4.20
 -23  -1  13  240.58   24.30
 -17   5  12   95.19   14.40
  17  -5 -12   88.19   13.70
 -18   4  12   -4.10    8.00
  18  -4 -12   12.40    5.20
 -19   3  12   92.69   14.50
  19  -3 -12   79.69   10.80
 -20   2  12  123.49   17.60
  20  -2 -12  114.09   11.60
 -21   1  12   32.20   10.20
  21  -1 -12   23.70    5.90
 -22   0  12  376.16   32.60
  22   0 -12  389.96   27.20
 -23  -1  12   15.60   10.40
  23   1 -12   19.90    5.00
 -24  -2  12  449.16   36.60
  24   2 -12  452.45   30.80
 -16   6  11  424.66   34.90
  16  -6 -11  475.45   33.90
 -17   5  11   -7.50    7.20
  17  -5 -11   -4.60    5.60
 -18   4  11  209.28   21.90
  18  -4 -11  235.48   19.00
 -19   3  11  358.46   30.50
 -20   2  11    5.60    7.40
  20  -2 -11    9.20    4.10
 -21   1  11  790.12   54.89
  21  -1 -11  748.43   50.19
 -22   0  11    6.30    8.10
  22   0 -11    2.20    3.60
 -23  -1  11   29.70    9.60
  23   1 -11   20.70    4.30
 -24  -2  11   -1.60    9.60
  24   2 -11   -4.20    3.40
 -25  -3  11   18.80    8.80
  15  -7 -10  238.98   22.10
 -16   6  10   43.00    8.70
  16  -6 -10   42.80    8.20
 -17   5  10  323.37   27.30
  17  -5 -10  344.67   25.90
 -18   4  10  180.58   15.10
 -18   4  10  251.07   21.10
  18  -4 -10  241.58   23.10
 -19   3  10  120.99   15.50
 -19   3  10  128.89   10.00
  19  -3 -10  135.69   12.20
 -20   2  10   45.20    8.70
 -20   2  10   47.30    5.30
  20  -2 -10   56.19    7.40
 -21   1  10    0.50    2.50
 -21   1  10   -4.50    5.90
  21  -1 -10    6.70    3.50
 -22   0  10  751.72   54.29
 -22   0  10  870.01   60.29
  22   0 -10  976.70   55.99
 -23  -1  10   66.09    7.10
 -23  -1  10   48.20   10.40
  23   1 -10   78.39    7.80
 -24  -2  10  317.57   28.40
 -24  -2  10  302.47   21.90
  24   2 -10  338.97   22.20
 -25  -3  10  386.16   34.10
 -25  -3  10  365.86   26.00
  15  -7  -9   45.10    9.00
  15  -7  -9   31.20    4.80
 -16   6   9  136.19   15.10
  16  -6  -9  146.89   11.20
  16  -6  -9  140.89   15.20
 -17   5   9   40.70    6.00
 -17   5   9   43.10    8.40
  17  -5  -9   47.60    5.40
  17  -5  -9   42.20    7.40
 -18   4   9  156.88   13.40
 -18   4   9  193.68   18.20
  18  -4  -9  202.08   15.50
 -19   3   9  198.08   18.80
 -19   3   9  180.58   13.80
  19  -3  -9  205.78   15.60
 -20   2   9  397.86   30.20
 -20   2   9  362.76   24.80
  20  -2  -9  383.16   26.30
 -21   1   9  181.78   13.40
 -21   1   9  184.08   18.40
  21  -1  -9  198.88   14.60
 -22   0   9   -1.40    2.70
 -22   0   9    6.10    6.40
  22   0  -9   -1.60    2.80
 -23  -1   9 1538.95  107.69
 -23  -1   9 1713.53  102.99
  23   1  -9 1672.53  103.19
 -24  -2   9  155.28   18.00
 -24  -2   9  132.89   11.60
  24   2  -9  145.29   10.90
 -25  -3   9    3.90    4.60
 -25  -3   9   17.50    8.40
 -26  -4   9  512.15   41.40
 -26  -4   9  500.65   34.50
 -14   8   8  703.93   53.69
  14  -8  -8  640.84   43.40
 -15   7   8  137.19   19.10
  15  -7  -8  154.38   16.00
  15  -7  -8  155.68   11.90
 -16   6   8   -4.00    5.60
  16  -6  -8    2.90    2.80
 -17   5   8   26.80    6.70
  17  -5  -8   24.90    6.30
  17  -5  -8   30.20    4.10
 -18   4   8  574.34   40.80
 -18   4   8  554.84   37.30
  18  -4  -8  585.94   38.80
 -19   3   8    3.60    5.40
 -19   3   8   -0.60    3.00
  19  -3  -8   -1.20    3.10
 -20   2   8  475.35   34.50
 -20   2   8  425.46   30.00
  20  -2  -8  490.05   31.30
 -21   1   8   22.40    3.90
 -21   1   8   21.40    6.80
  21  -1  -8   26.00    4.30
 -22   0   8    1.10    5.20
 -22   0   8    4.10    2.90
  22   0  -8    8.00    2.80
 -23  -1   8  114.59   13.90
 -23  -1   8   89.39    9.20
  23   1  -8  101.29    8.30
 -24  -2   8   41.70    5.90
 -24  -2   8   47.50    9.70
  24   2  -8   46.40    5.30
 -25  -3   8   19.50    5.00
 -25  -3   8   10.20    8.00
 -26  -4   8   20.50    5.60
 -26  -4   8    4.10    8.00
 -14   8   7    9.20   11.20
 -15   7   7   11.00    9.20
  15  -7  -7    6.70    3.30
 -16   6   7    5.70    7.40
 -16   6   7   -5.90    4.80
  16  -6  -7    7.50    5.30
  16  -6  -7    4.40    2.70
 -17   5   7  282.57   23.30
  17  -5  -7  278.37   22.00
  17  -5  -7  324.07   20.30
 -18   4   7  979.30   64.59
 -18   4   7  929.31   61.49
  18  -4  -7  944.21   62.49
  18  -4  -7 1002.50   60.79
 -19   3   7   59.29    9.80
 -19   3   7   75.19    7.10
  19  -3  -7   61.39    7.40
 -20   2   7  954.70   65.39
  20  -2  -7  987.10   62.29
 -21   1   7  601.54   40.60
 -21   1   7  488.85   35.90
  21  -1  -7  587.14   36.40
 -22   0   7    8.90    7.20
 -22   0   7   -4.00    4.90
 -22   0   7   -3.70    2.50
  22   0  -7    1.60    2.30
 -23  -1   7  114.19    9.70
 -23  -1   7   94.19   12.50
  23   1  -7  111.59    8.60
 -24  -2   7   27.40   11.60
  24   2  -7   36.80    5.10
 -25  -3   7   52.49    6.90
 -25  -3   7   35.80   10.00
 -26  -4   7  415.36   29.80
 -26  -4   7  446.26   35.50
 -14   8   6   63.59   17.10
  14  -8  -6   52.79    7.70
 -15   7   6  227.68   23.80
  15  -7  -6  219.38   16.30
 -16   6   6  365.26   31.40
 -16   6   6  341.17   25.90
  16  -6  -6  368.86   24.10
 -17   5   6   58.39    8.80
 -17   5   6   79.09   12.40
  17  -5  -6   66.89    9.10
  17  -5  -6   74.59    6.90
 -18   4   6  255.37   21.50
  18  -4  -6  248.58   19.40
  18  -4  -6  294.57   18.40
 -19   3   6  658.33   45.50
 -19   3   6  625.64   42.30
  19  -3  -6  676.33   43.00
 -20   2   6 1086.29   73.49
 -20   2   6 1200.28   77.29
  20  -2  -6 1209.98   73.99
 -21   1   6  214.08   19.60
 -21   1   6  223.78   16.10
  21  -1  -6  229.38   15.90
 -22   0   6 2757.22  169.08
 -22   0   6 2538.35  172.08
 -22   0   6 2709.43  168.38
  22   0  -6 2811.52  167.98
 -23  -1   6  351.36   29.20
 -23  -1   6  384.86   25.70
  23   1  -6  388.76   24.80
 -24  -2   6   17.30    4.40
 -24  -2   6   15.70    7.40
 -25  -3   6  205.98   16.10
 -25  -3   6  196.08   20.60
 -26  -4   6  197.98   21.80
 -26  -4   6  201.58   16.70
 -27  -5   6  316.57   23.50
 -27  -5   6  245.78   30.50
 -14   8   5  335.87   32.60
  14  -8  -5  365.06   24.70
 -15   7   5  111.89   17.20
  15  -7  -5  115.09   10.00
 -16   6   5  437.06   31.10
 -16   6   5  483.85   35.30
  16  -6  -5  436.46   29.70
 -17   5   5   29.50    8.20
 -17   5   5   19.40    5.70
  17  -5  -5   23.30    3.80
 -18   4   5   20.60    5.30
 -18   4   5   26.50    6.50
  18  -4  -5   33.00    4.40
 -19   3   5  145.69   12.30
 -19   3   5  151.78   14.10
 -19   3   5  145.29   14.70
  19  -3  -5  179.68   12.80
 -20   2   5  127.49   13.20
 -20   2   5  116.49   10.10
 -20   2   5  117.19   11.40
  20  -2  -5  120.39    9.90
 -21   1   5   49.10    6.70
 -21   1   5   51.79    7.70
 -21   1   5   49.50    8.60
 -21   1   5   55.79    6.30
  21  -1  -5   50.49    7.40
  21  -1  -5   45.80    5.50
 -22   0   5    0.90    4.90
 -22   0   5    5.90    3.00
  22   0  -5   -4.40    4.10
 -23  -1   5   56.99    6.70
 -23  -1   5   46.80    6.30
 -23  -1   5   62.39    7.70
  23   1  -5   50.39    9.30
 -24  -2   5    1.60    3.60
  24   2  -5    6.10    5.50
 -25  -3   5   38.50    6.30
  25   3  -5   36.40   11.70
 -26  -4   5  139.19   18.70
 -26  -4   5  126.39   12.80
  26   4  -5  146.09   18.20
 -27  -5   5  228.18   25.30
 -27  -5   5  199.18   18.50
 -13   9   4    8.60   15.00
  13  -9  -4   16.70    5.60
 -14   8   4   21.70   11.50
  14  -8  -4   18.40    4.50
 -15   7   4   71.29   12.90
  15  -7  -4   60.09    7.30
 -16   6   4  459.65   31.50
 -16   6   4  449.66   35.10
  16  -6  -4  464.35   30.40
 -17   5   4  337.07   26.70
 -17   5   4  366.36   28.30
 -17   5   4  354.56   26.20
  17  -5  -4  365.46   24.00
 -18   4   4    3.90    4.10
 -18   4   4    3.20    4.90
  18  -4  -4    2.50    2.80
 -19   3   4  431.06   31.40
 -19   3   4  428.36   30.70
 -19   3   4  432.86   29.00
 -20   2   4  700.83   47.20
 -20   2   4  717.13   46.10
  20  -2  -4  721.23   48.10
 -21   1   4    4.40    3.10
 -21   1   4    3.20    3.10
 -21   1   4    5.50    4.70
  21  -1  -4    9.50    4.00
 -22   0   4  704.03   43.50
 -22   0   4  719.73   43.70
 -22   0   4  589.04   43.10
  22   0  -4  673.23   46.10
 -23  -1   4   84.69    8.10
 -23  -1   4   72.39    6.70
  23   1  -4   78.19    9.80
 -24  -2   4  212.48   15.20
  24   2  -4  172.08   17.60
 -25  -3   4  355.66   24.00
  25   3  -4  301.87   27.70
 -26  -4   4  205.48   16.60
  26   4  -4  180.98   20.70
 -27  -5   4  874.11   58.29
  27   5  -4  895.01   63.59
 -13   9   3  292.07   30.00
  13  -9  -3  282.97   21.80
 -14   8   3  156.78   22.00
  14  -8  -3  175.68   14.10
 -15   7   3   68.99   12.00
  15  -7  -3   44.50    6.10
 -16   6   3  125.89   15.20
  16  -6  -3  121.49   10.20
 -17   5   3 1262.27   82.19
 -17   5   3 1334.17   84.09
 -17   5   3 1180.48   81.49
  17  -5  -3 1319.57   80.29
 -18   4   3  473.75   34.00
 -18   4   3  450.15   34.10
  18  -4  -3  472.25   31.40
  18  -4  -3  515.75   33.10
 -19   3   3   24.30    5.40
 -19   3   3   17.40    4.50
  19  -3  -3   23.80    3.70
  19  -3  -3   20.50    4.90
 -20   2   3   72.79    7.90
 -20   2   3   80.59    9.90
 -20   2   3   88.59    9.00
  20  -2  -3   86.69    9.30
 -21   1   3 1517.55  103.29
 -21   1   3 1571.14  103.19
 -21   1   3 1816.12  103.29
  21  -1  -3 1669.73  105.49
 -22   0   3   -1.50    2.70
 -22   0   3    1.00    3.60
 -22   0   3   -3.40    3.00
  22   0  -3    9.40    3.90
 -23  -1   3   46.60    6.30
  23   1  -3   43.10    7.80
 -24  -2   3  287.57   19.80
  24   2  -3  250.67   22.00
 -25  -3   3  840.52   54.59
  25   3  -3  834.82   58.29
 -26  -4   3   63.09    9.10
  26   4  -3   72.89   12.20
 -27  -5   3  438.46   31.50
  27   5  -3  421.46   36.00
 -13   9   2  117.69   18.70
  13  -9  -2  122.79   13.40
 -14   8   2   48.80   11.70
  14  -8  -2   50.69    7.00
 -15   7   2   -0.30    7.40
  15  -7  -2   13.60    3.80
 -16   6   2   21.30    6.20
 -16   6   2   17.80    7.70
  16  -6  -2   19.60    3.90
 -17   5   2  162.68   15.20
 -17   5   2  168.98   16.20
 -17   5   2  157.48   14.20
  17  -5  -2  156.18   12.30
 -18   4   2   57.59    9.50
  18  -4  -2   70.39    6.70
  18  -4  -2   52.79    7.20
 -19   3   2   97.89   10.00
 -19   3   2   90.99    8.60
  19  -3  -2   79.79    8.90
  19  -3  -2   78.29    7.60
 -20   2   2  138.59   12.80
 -20   2   2  152.38   12.00
 -20   2   2  141.59   12.80
  20  -2  -2  160.98   13.40
 -21   1   2  197.08   15.70
 -21   1   2  243.58   16.20
 -21   1   2  187.18   15.50
  21  -1  -2  222.08   17.60
 -22   0   2  647.34   40.90
 -22   0   2  642.34   40.00
 -22   0   2  578.44   40.10
  22   0  -2  632.14   42.90
 -23  -1   2   47.20    6.50
  23   1  -2   42.30    7.50
 -24  -2   2  817.32   53.99
  24   2  -2  855.11   57.29
 -25  -3   2  206.28   15.70
  25   3  -2  167.58   18.40
 -26  -4   2  781.62   49.70
  26   4  -2  711.03   52.99
 -27  -5   2  258.27   21.30
  27   5  -2  232.98   25.60
 -13   9   1  196.68   23.20
  13  -9  -1  165.38   16.20
 -14   8   1  199.68   21.10
  14  -8  -1  167.18   14.80
 -15   7   1  107.39   22.20
  15  -7  -1  133.49   11.40
 -16   6   1  136.79   14.20
 -16   6   1  143.39   16.40
  16  -6  -1  145.09   11.60
 -17   5   1    3.10    5.60
 -17   5   1    9.80    5.70
  17  -5  -1    2.70    3.10
  17  -5  -1    5.30    2.90
 -18   4   1 1456.85   94.19
  18  -4  -1 1529.85   92.59
  18  -4  -1 1376.36   91.29
 -19   3   1  645.14   45.20
 -19   3   1  731.83   47.00
  19  -3  -1  716.23   46.30
  19  -3  -1  691.23   44.80
 -20   2   1   75.09    8.80
 -20   2   1   62.79    8.40
 -20   2   1   76.79    7.60
  20  -2  -1   78.99    8.60
 -21   1   1   14.20    3.90
 -21   1   1   11.20    4.20
  21  -1  -1   11.20    4.40
 -22   0   1    0.50    3.20
 -22   0   1    1.20    3.00
 -22   0   1   -1.90    3.10
  22   0  -1   -1.00    3.20
 -23  -1   1  131.09   10.90
  23   1  -1  115.89   12.50
 -24  -2   1  239.98   16.90
  24   2  -1  195.48   18.60
 -25  -3   1   20.50    6.00
  25   3  -1   10.40    6.40
 -26  -4   1  230.08   17.90
  26   4  -1  195.58   21.70
 -27  -5   1  189.88   17.70
  27   5  -1  186.88   22.70
 -13   9   0  148.29   22.50
  13  -9   0  103.59   12.30
 -14   8   0  331.27   28.90
  14  -8   0  289.87   22.40
 -15   7   0   62.69   13.50
 -16   6   0 1693.63  107.59
  16  -6   0 1587.24  103.09
 -17   5   0  957.30   65.99
 -17   5   0 1055.39   68.69
  17  -5   0 1073.79   65.79
  17  -5   0 1006.10   65.19
 -18   4   0  528.35   37.70
  18  -4   0  559.44   36.00
  18  -4   0  512.45   35.00
 -19   3   0  137.09   12.40
 -19   3   0  114.59   10.50
  19  -3   0  124.89   10.10
  19  -3   0  119.49   11.10
 -20   2   0 2360.36  160.48
 -20   2   0 2594.44  161.78
 -20   2   0 2584.34  160.98
  20  -2   0 2790.12  162.48
 -21   1   0    9.50    3.80
 -21   1   0    3.20    3.70
 -21   1   0   11.00    3.50
  21  -1   0    1.20    3.70
 -22   0   0  249.97   18.60
 -22   0   0  283.17   18.40
 -22   0   0  269.07   19.30
  22   0   0  269.27   21.10
 -23  -1   0    4.80    3.50
  23   1   0   13.80    5.10
 -24  -2   0  812.62   51.79
  24   2   0  777.52   54.29
  25   3   0  117.69   17.30
 -26  -4   0  195.08   16.00
  26   4   0  170.48   19.60
 -27  -5   0  129.99   14.10
  27   5   0  156.48   20.70
 -13   9  -1   45.80   14.90
  13  -9   1   40.40    7.80
 -14   8  -1  145.19   20.60
  14  -8   1  136.39   13.00
 -15   7  -1    9.60    7.80
  15  -7   1    4.60    4.20
 -16   6  -1   12.10    7.20
  16  -6   1    9.20    3.30
  16  -6   1    5.60    3.40
 -17   5  -1   53.09    9.30
 -17   5  -1   36.10    8.10
  17  -5   1   51.39    6.30
  17  -5   1   53.59    6.70
 -18   4  -1  590.54   38.70
  18  -4   1  509.45   35.70
  18  -4   1  536.25   36.50
 -19   3  -1  245.38   18.50
 -19   3  -1  264.47   20.20
  19  -3   1  256.17   19.10
  19  -3   1  255.67   18.10
 -20   2  -1    2.90    2.90
 -20   2  -1    1.30    3.70
  20  -2   1   -0.10    3.30
 -21   1  -1   30.40    5.40
 -21   1  -1   34.60    5.10
 -21   1  -1   24.90    4.60
  21  -1   1   20.40    4.70
 -22   0  -1   -0.30    3.20
 -22   0  -1    2.50    3.30
 -22   0  -1   -1.50    2.70
  22   0   1    0.80    3.20
 -23  -1  -1  221.48   16.30
  23   1   1  201.48   18.10
 -24  -2  -1    6.00    4.10
  24   2   1   11.50    5.60
 -25  -3  -1  567.84   36.80
  25   3   1  514.75   40.40
 -26  -4  -1  181.38   15.50
  26   4   1  157.08   19.40
 -27  -5  -1   50.09    8.10
  27   5   1   58.59   13.30
 -13   9  -2   -3.90   12.70
  13  -9   2    6.10    6.40
 -14   8  -2   39.70   11.50
  14  -8   2   35.30    6.60
 -15   7  -2    3.00    7.30
  15  -7   2    6.20    4.70
 -16   6  -2   28.60    8.80
  16  -6   2   29.20    5.80
  16  -6   2   39.80    6.00
 -17   5  -2 1024.10   65.79
  17  -5   2  916.91   62.09
  17  -5   2  974.40   62.49
 -18   4  -2  433.16   32.30
  18  -4   2  459.05   30.30
  18  -4   2  430.56   29.60
 -19   3  -2   19.50    4.10
 -19   3  -2   28.40    6.40
  19  -3   2   25.90    4.80
  19  -3   2   19.80    4.00
 -20   2  -2  871.51   56.99
 -20   2  -2  822.22   55.79
  20  -2   2  911.61   57.19
 -21   1  -2  493.05   34.80
 -21   1  -2  508.15   34.50
 -21   1  -2  543.55   34.90
  21  -1   2  538.65   36.40
  21  -1   2  537.15   34.80
 -22   0  -2    5.60    3.70
 -22   0  -2    5.90    4.10
 -22   0  -2    4.60    3.50
  22   0   2    4.90    3.90
 -23  -1  -2  127.29   10.60
 -23  -1  -2  106.09    8.80
  23   1   2  106.69   12.30
 -24  -2  -2   98.99   10.10
  24   2   2  100.59   12.60
 -25  -3  -2  347.37   24.10
  25   3   2  309.27   26.40
 -26  -4  -2  159.58   14.60
  26   4   2  137.59   18.60
 -27  -5  -2  199.18   18.00
  27   5   2  172.38   24.60
 -14   8  -3   16.10   11.40
  14  -8   3    1.40    5.10
 -15   7  -3  845.72   59.59
  15  -7   3  827.02   54.59
 -16   6  -3  167.58   18.40
  16  -6   3  129.99   16.00
  16  -6   3  166.38   12.90
 -17   5  -3   53.49   10.40
  17  -5   3   71.59    7.90
  17  -5   3   79.29    8.30
 -18   4  -3  294.17   23.80
  18  -4   3  292.57   21.20
  18  -4   3  312.27   21.80
 -19   3  -3 1307.77   85.19
 -19   3  -3 1322.97   86.89
  19  -3   3 1370.16   86.09
  19  -3   3 1368.46   84.89
 -20   2  -3   32.80    5.20
 -20   2  -3   12.50    4.80
  20  -2   3   21.60    4.60
 -21   1  -3  126.69   12.20
 -21   1  -3  154.38   11.80
  21  -1   3  141.69   12.80
  21  -1   3  147.69   13.10
 -22   0  -3    3.30    3.30
 -22   0  -3   -1.50    3.30
  22   0   3    3.20    3.90
  22   0   3   -2.50    3.80
 -23  -1  -3 1003.60   60.19
 -23  -1  -3  882.31   58.59
  23   1   3  904.91   62.19
 -24  -2  -3    2.50    7.90
  24   2   3   -2.70    8.40
 -25  -3  -3    2.40    4.60
  25   3   3    0.50    6.70
 -26  -4  -3  163.38   15.30
  26   4   3  151.98   18.80
 -14   8  -4   14.30   13.40
  14  -8   4   18.70    7.20
 -15   7  -4   24.80    8.80
  15  -7   4   13.90    5.10
  16  -6   4  235.78   16.40
  16  -6   4  191.38   16.60
 -17   5  -4  482.55   36.20
  17  -5   4  485.25   32.80
 -18   4  -4   86.19   12.20
  18  -4   4  102.69    9.80
  18  -4   4   98.79    9.60
 -19   3  -4  748.23   51.19
 -19   3  -4  729.53   49.30
  19  -3   4  817.42   49.30
  19  -3   4  735.23   49.99
 -20   2  -4    0.50    4.00
 -20   2  -4    3.80    3.30
  20  -2   4    3.00    3.70
 -21   1  -4    2.60    4.10
 -21   1  -4    3.80    3.30
  21  -1   4    1.30    3.50
 -22   0  -4 1307.67   85.29
 -22   0  -4 1420.96   85.69
  22   0   4 1345.87   87.59
  22   0   4 1321.57   85.39
 -23  -1  -4  113.69   10.00
  23   1   4   79.69   10.90
 -24  -2  -4 1090.49   69.29
  24   2   4 1063.89   71.99
 -25  -3  -4  455.15   30.70
  25   3   4  419.46   33.80
 -26  -4  -4   45.10    9.00
  26   4   4   44.70   12.60
 -14   8  -5   38.00   11.40
  14  -8   5   28.60    6.80
 -15   7  -5   -4.50    7.90
  15  -7   5    6.60    5.10
 -16   6  -5  546.15   39.50
  16  -6   5  491.05   34.50
  16  -6   5  494.05   34.10
 -17   5  -5  126.29   15.20
  17  -5   5  132.19   11.60
  17  -5   5  115.29   12.40
  18  -4   5   36.10    5.90
  18  -4   5   52.89    6.90
 -19   3  -5   36.60    6.20
 -19   3  -5   27.90    6.90
  19  -3   5   27.30    5.50
 -20   2  -5  279.47   21.00
 -20   2  -5  302.67   22.50
  20  -2   5  298.77   22.40
 -21   1  -5  128.49   12.40
 -21   1  -5  137.59   11.70
  21  -1   5  136.89   13.50
 -22   0  -5   -2.80    3.60
 -22   0  -5   -7.70    3.90
  22   0   5    1.50    4.60
 -23  -1  -5   88.89    9.50
 -23  -1  -5  113.69   11.30
  23   1   5   98.89   11.70
 -24  -2  -5  269.17   20.10
  24   2   5  260.17   23.20
 -25  -3  -5   81.69   10.70
  25   3   5   88.09   13.50
 -26  -4  -5   54.29    8.60
  26   4   5   63.09   13.10
 -15   7  -6  442.06   37.10
  15  -7   6  420.06   30.70
 -16   6  -6  135.79   18.00
  16  -6   6  132.29   12.00
  17  -5   6  192.38   15.30
  17  -5   6  177.18   14.90
 -18   4  -6  525.85   39.20
  18  -4   6  556.24   37.40
  18  -4   6  551.64   36.80
 -19   3  -6    2.50    3.60
 -19   3  -6    7.40    5.80
  19  -3   6   -1.10    3.80
 -20   2  -6   32.90    5.90
 -20   2  -6   26.90    6.70
  20  -2   6   36.70    6.70
 -21   1  -6    1.20    3.60
 -21   1  -6    5.70    5.00
  21  -1   6   -0.10    4.10
 -22   0  -6 1455.25   90.19
 -22   0  -6 1385.36   90.49
 -23  -1  -6   -6.80    4.10
 -23  -1  -6    6.90    3.90
  23   1   6    1.40    5.30
 -24  -2  -6  126.59   11.80
  24   2   6   95.29   14.20
 -25  -3  -6  116.49   12.40
  25   3   6   89.09   16.00
 -15   7  -7  130.69   19.10
  15  -7   7  172.58   16.00
 -16   6  -7  439.76   34.60
  16  -6   7  408.66   29.90
  16  -6   7  415.86   29.40
 -17   5  -7  312.17   27.60
  17  -5   7  343.27   24.40
 -18   4  -7  267.47   22.40
  18  -4   7  230.98   20.00
  18  -4   7  278.47   20.50
 -19   3  -7   27.40    7.10
 -19   3  -7   23.30    6.00
  19  -3   7   26.60    5.90
 -20   2  -7   20.60    5.30
 -20   2  -7   11.60    6.20
  20  -2   7   21.70    6.00
 -21   1  -7  134.69   12.00
 -21   1  -7  137.69   13.90
  21  -1   7  123.49   14.90
 -22   0  -7   -2.50    5.00
 -22   0  -7   -5.30    7.20
  22   0   7   -1.20    5.20
 -23  -1  -7  495.45   38.60
 -23  -1  -7  647.44   39.10
  23   1   7  603.34   42.10
 -24  -2  -7  152.28   13.80
  24   2   7  133.79   17.80
 -25  -3  -7   73.19   10.80
  25   3   7   80.09   14.10
 -16   6  -8   30.00   12.70
  16  -6   8   37.90    7.30
  16  -6   8   39.60    6.30
 -17   5  -8   -6.10    8.60
  17  -5   8    2.80    5.20
 -18   4  -8  610.34   42.80
 -18   4  -8  717.43   46.70
  18  -4   8  614.14   42.80
  18  -4   8  637.64   44.00
 -19   3  -8  310.67   22.70
 -19   3  -8  333.67   26.40
  19  -3   8  309.67   26.70
 -20   2  -8    7.20    4.60
 -20   2  -8   10.00    6.60
  20  -2   8   19.20    5.80
 -21   1  -8   81.79   11.20
 -21   1  -8   78.09    9.10
  21  -1   8   84.79   11.80
 -22   0  -8   -3.90    4.60
 -22   0  -8    5.50    5.80
  22   0   8   -2.20    5.90
 -23  -1  -8   43.90    8.10
 -23  -1  -8   68.09    8.50
  23   1   8   62.09   10.70
 -24  -2  -8  417.76   28.80
  24   2   8  374.06   31.70
 -17   5  -9  424.66   36.90
  17  -5   9  471.95   32.10
 -18   4  -9    3.10    4.60
 -18   4  -9   -3.60    7.50
  18  -4   9    9.50    5.40
 -19   3  -9    3.20    8.00
 -19   3  -9    5.50    4.70
  19  -3   9   -3.80    5.60
 -20   2  -9  179.08   15.40
  20  -2   9  196.68   18.20
 -21   1  -9  709.33   45.90
 -21   1  -9  667.73   48.00
  21  -1   9  699.73   48.90
 -22   0  -9  -12.00    6.30
 -22   0  -9    6.30    5.30
  22   0   9    4.50    8.10
 -23  -1  -9  214.98   21.40
  23   1   9  216.48   21.10
 -18   4 -10  126.59   13.60
 -18   4 -10  138.19   20.60
  18  -4  10  147.09   15.50
 -19   3 -10   27.40    6.30
 -19   3 -10   31.70   10.60
  19  -3  10   35.20    7.80
 -20   2 -10  487.05   33.00
 -20   2 -10  448.06   36.80
  20  -2  10  497.55   36.40
 -21   1 -10   69.59   11.80
 -21   1 -10   67.99    9.20
  21  -1  10  106.19   15.00
 -22   0 -10  701.63   45.40
  22   0  10  644.64   49.10
 -21   3  13    0.50   12.50
  21  -3 -13   12.10    7.30
 -22   2  13   95.99   16.70
  22  -2 -13   87.19   11.40
 -23   1  13  317.67   29.30
  23  -1 -13  307.57   23.70
 -20   4  12  453.75   37.10
  20  -4 -12  456.35   32.80
 -21   3  12  288.97   28.40
  21  -3 -12  297.57   23.00
 -22   2  12  131.19   18.90
  22  -2 -12  123.59   13.00
 -23   1  12   22.60   10.30
 -24   0  12 2353.76  153.28
  24   0 -12 2357.36  147.79
 -25  -1  12    3.00    8.90
  25   1 -12    2.70    4.50
 -19   5  11   49.40   13.70
  19  -5 -11   51.29    8.50
 -20   4  11   74.39   13.10
  20  -4 -11   79.39   10.80
 -21   3  11   -4.50    8.00
  21  -3 -11    2.60    4.70
 -22   2  11    2.30    7.50
  22  -2 -11    1.50    4.50
 -23   1  11   24.70    9.60
  23  -1 -11   15.90    4.60
 -24   0  11    0.50    7.90
  24   0 -11    2.50    3.80
 -25  -1  11   13.70   11.30
  25   1 -11   14.30    4.40
 -26  -2  11   11.60    8.80
 -18   6  10  442.46   36.70
  18  -6 -10  522.55   36.10
 -19   5  10  257.37   23.80
  19  -5 -10  261.07   21.50
 -20   4  10    7.60    7.50
  20  -4 -10    2.20    4.80
 -21   3  10  158.78   18.40
 -21   3  10  137.19   11.60
  21  -3 -10  161.98   13.60
 -22   2  10    7.60    3.10
 -22   2  10  -17.70    9.10
  22  -2 -10    3.10    3.90
 -23   1  10   71.09   11.50
 -23   1  10   61.79    7.00
  23  -1 -10   68.29    8.10
 -24   0  10  563.04   38.50
 -24   0  10  572.04   44.90
  24   0 -10  653.13   39.70
 -25  -1  10   75.29    7.90
 -25  -1  10   72.59   12.30
  25   1 -10   69.29    8.00
 -26  -2  10   -0.50    4.10
 -26  -2  10   -8.60   10.90
 -17   7   9  586.84   44.80
  17  -7  -9  557.24   36.80
  17  -7  -9  555.54   40.90
 -18   6   9   21.40    7.80
  18  -6  -9   27.00    7.80
  18  -6  -9   24.90    4.10
 -19   5   9  467.35   35.50
 -19   5   9  451.15   31.30
  19  -5  -9  485.25   33.30
 -20   4   9  245.38   21.70
 -20   4   9  219.48   16.60
  20  -4  -9  221.98   18.20
 -21   3   9   39.70    5.70
 -21   3   9   62.09   10.60
  21  -3  -9   45.10    6.90
 -22   2   9    0.80    6.30
 -22   2   9    2.50    3.10
  22  -2  -9    0.40    3.30
 -23   1   9 1466.15  104.79
 -23   1   9 1597.84   97.59
  23  -1  -9 1595.24   98.39
 -24   0   9  -13.50    6.10
 -24   0   9    0.70    3.30
  24   0  -9   -5.70    3.00
 -25  -1   9    9.10    3.80
 -25  -1   9    8.30    7.60
  25   1  -9    9.50    3.30
 -26  -2   9   53.59   10.60
 -26  -2   9   29.30    5.70
 -27  -3   9  572.64   39.00
 -27  -3   9  595.64   45.30
 -17   7   8  184.08   22.70
  17  -7  -8  133.39   11.70
 -18   6   8   18.50    9.20
 -18   6   8    1.40    6.20
  18  -6  -8   -8.50    5.30
  18  -6  -8   10.80    3.50
 -19   5   8   25.70    7.30
 -19   5   8   19.80    5.10
  19  -5  -8   22.60    7.00
  19  -5  -8   19.40    3.70
 -20   4   8    0.20    3.50
 -20   4   8    3.20    6.30
  20  -4  -8    5.30    3.60
 -21   3   8   92.39    9.10
  21  -3  -8  100.69    9.90
 -22   2   8    8.50    3.80
 -22   2   8   10.70    6.20
  22  -2  -8   22.70    4.20
 -23   1   8  102.19    9.20
 -23   1   8   93.09   13.50
  23  -1  -8  111.19    9.60
 -24   0   8   22.80    4.50
 -24   0   8   31.40    9.00
  24   0  -8   39.50    5.40
 -25  -1   8   13.20    3.80
 -25  -1   8   15.30    7.50
 -26  -2   8   93.29   15.00
 -26  -2   8   90.09    9.70
 -27  -3   8   69.49   13.10
 -27  -3   8   53.89   11.90
 -16   8   7   92.89   18.70
  16  -8  -7  127.69   10.80
 -17   7   7  421.06   35.10
  17  -7  -7  369.46   26.10
 -18   6   7   97.69   15.90
 -18   6   7   76.09   11.10
  18  -6  -7   99.39    8.60
 -19   5   7    5.40    6.00
 -19   5   7    2.10    6.90
  19  -5  -7    4.70    4.40
  19  -5  -7    8.90    3.10
 -20   4   7  227.28   16.40
 -20   4   7  201.38   19.50
  20  -4  -7  213.58   16.80
 -21   3   7  292.37   24.40
 -21   3   7  285.27   20.90
  21  -3  -7  314.87   21.60
 -22   2   7   39.60    7.90
 -22   2   7   46.50    6.10
  22  -2  -7   44.30    6.20
 -23   1   7  118.19   14.30
 -23   1   7  116.99    9.70
  23  -1  -7   92.59    9.00
 -24   0   7   10.50    3.40
 -24   0   7    3.10    6.00
 -25  -1   7  206.48   23.20
 -25  -1   7  211.18   16.70
  25   1  -7  241.28   15.70
 -26  -2   7   -0.50    4.30
 -26  -2   7    3.20    7.50
 -27  -3   7  203.78   22.10
 -28  -4   7  952.70   64.29
 -28  -4   7 1029.50   70.69
 -16   8   6  510.65   39.90
  16  -8  -6  430.26   31.00
 -17   7   6   58.39   12.90
  17  -7  -6   44.20    5.90
 -18   6   6 1253.47   80.89
 -18   6   6 1145.19   83.49
  18  -6  -6 1322.47   78.69
 -19   5   6  566.34   42.90
 -19   5   6  558.24   41.70
  19  -5  -6  650.03   38.70
 -20   4   6  106.69   10.60
 -20   4   6  128.89   13.40
 -20   4   6   99.89   12.90
  20  -4  -6  112.69   10.40
 -21   3   6  115.39   10.20
 -21   3   6  114.69   12.60
 -21   3   6  117.19   13.30
  21  -3  -6  106.39   10.10
 -22   2   6 2350.76  162.68
 -22   2   6 2830.02  159.58
  22  -2  -6 2480.65  159.28
 -23   1   6  346.97   25.40
 -23   1   6  378.06   29.60
  23  -1  -6  390.16   25.10
 -24   0   6  207.28   15.40
 -24   0   6  183.08   15.30
 -24   0   6  207.18   19.90
  24   0  -6  221.78   14.70
 -25  -1   6  106.69   10.50
 -25  -1   6  116.79   10.20
 -25  -1   6  111.09   15.30
 -26  -2   6  157.58   13.70
 -26  -2   6  164.08   18.60
 -27  -3   6   16.90    9.90
 -28  -4   6   24.20    6.90
 -28  -4   6    0.00   12.10
 -16   8   5   32.10   13.40
  16  -8  -5   24.50    5.30
 -17   7   5    3.00    9.30
  17  -7  -5    8.00    3.80
 -18   6   5   68.39    9.60
 -18   6   5   67.49   19.50
  18  -6  -5   76.89    7.70
 -19   5   5  117.49   12.70
 -19   5   5  100.99   14.00
  19  -5  -5   88.39    8.60
 -20   4   5  105.79   12.00
 -20   4   5   83.39   11.70
 -20   4   5   86.49    9.10
  20  -4  -5   92.59    8.20
 -21   3   5   13.60    3.90
 -21   3   5    5.70    5.90
 -21   3   5   13.80    5.20
 -22   2   5  315.17   25.40
 -22   2   5  302.57   23.10
 -22   2   5  322.27   22.10
 -23   1   5   61.99    8.90
 -23   1   5   56.59    9.70
 -23   1   5   47.60    7.80
 -23   1   5   59.59    7.30
  23  -1  -5   62.49    9.40
 -24   0   5    0.90    3.20
  24   0  -5    0.40    4.60
 -25  -1   5  152.18   12.20
 -25  -1   5  133.29   10.90
  25   1  -5  140.49   14.30
 -26  -2   5   16.80    5.00
  26   2  -5    6.50    6.20
 -27  -3   5  456.35   33.10
  27   3  -5  489.25   37.30
 -28  -4   5   75.79   14.40
 -28  -4   5   59.69    8.80
  28   4  -5   52.69   12.50
 -16   8   4   77.59   19.10
  16  -8  -4   87.59    9.70
 -17   7   4   -1.40    8.20
  17  -7  -4    0.60    3.50
 -18   6   4   65.39   12.30
 -18   6   4   43.10    7.80
  18  -6  -4   51.99    6.60
 -19   5   4  489.75   36.80
 -19   5   4  535.85   38.70
  19  -5  -4  549.05   34.60
 -20   4   4   40.30    8.00
 -20   4   4   52.29    8.40
  20  -4  -4   42.10    5.60
 -21   3   4  687.93   44.90
 -21   3   4  666.53   47.60
 -21   3   4  676.83   46.50
  21  -3  -4  711.13   46.70
 -22   2   4  219.68   17.20
 -22   2   4  201.88   16.00
  22  -2  -4  223.38   18.10
 -23   1   4   89.59   10.80
 -23   1   4   64.59    8.30
 -23   1   4   79.89    8.30
  23  -1  -4   89.79   10.50
 -24   0   4   24.70    5.70
 -24   0   4    5.40    3.50
 -24   0   4   12.60    4.80
  24   0  -4    9.40    4.80
 -25  -1   4   76.59    8.60
  25   1  -4   70.49   10.90
 -26  -2   4   47.40    7.40
 -27  -3   4  554.54   36.10
  27   3  -4  489.85   39.80
 -28  -4   4  244.78   20.10
  28   4  -4  255.37   25.40
 -16   8   3  208.98   26.00
  16  -8  -3  218.58   17.10
 -17   7   3  870.21   62.19
 -18   6   3  100.69   11.30
 -18   6   3  100.29   14.60
  18  -6  -3  105.19    9.60
 -19   5   3    3.70    5.50
 -19   5   3    7.20    5.30
  19  -5  -3    4.20    3.10
 -20   4   3   12.70    5.70
 -20   4   3    7.10    5.50
  20  -4  -3   11.40    3.70
  20  -4  -3   11.80    3.10
 -21   3   3 2223.48  142.99
 -21   3   3 2257.07  141.59
  21  -3  -3 2304.57  143.19
 -22   2   3   22.00    4.30
 -22   2   3   17.10    4.70
  22  -2  -3   16.50    5.00
 -23   1   3   55.49    7.30
 -23   1   3   63.99    9.20
 -23   1   3   51.89    6.90
  23  -1  -3   47.40    8.00
 -24   0   3    1.30    4.20
 -24   0   3    5.40    3.70
 -24   0   3    5.60    3.80
  24   0  -3    4.50    4.50
 -25  -1   3  724.93   47.40
  25   1  -3  723.03   50.39
 -26  -2   3  281.07   19.90
  26   2  -3  238.88   24.30
 -27  -3   3   12.70    5.00
  27   3  -3    0.40    7.40
 -28  -4   3    4.70    5.80
  28   4  -3    6.50    8.40
 -16   8   2   25.60   10.80
  16  -8  -2    8.00    5.00
 -17   7   2    2.50    9.30
  17  -7  -2    3.00    4.10
 -18   6   2  278.27   20.60
 -18   6   2  240.08   23.70
  18  -6  -2  265.97   19.10
 -19   5   2  370.96   28.90
 -19   5   2  335.07   27.50
  19  -5  -2  386.96   25.40
  19  -5  -2  392.76   26.50
 -20   4   2  132.59   14.10
  20  -4  -2  125.59   10.90
  20  -4  -2  147.59   12.30
 -21   3   2  364.16   29.10
 -21   3   2  413.36   28.00
  21  -3  -2  454.15   29.70
 -22   2   2  548.05   35.20
 -22   2   2  497.15   34.20
  22  -2  -2  492.75   35.70
 -23   1   2   44.60    6.60
 -23   1   2   40.50    5.90
 -23   1   2   47.00    6.40
  23  -1  -2   36.10    7.20
 -24   0   2  611.34   38.00
 -24   0   2  646.14   39.10
 -24   0   2  523.05   37.80
  24   0  -2  570.04   41.10
 -25  -1   2   25.50    5.60
  25   1  -2   29.10    6.20
 -26  -2   2 2084.89  127.99
  26   2  -2 1978.50  131.99
 -27  -3   2  180.78   15.70
  27   3  -2  186.28   19.40
 -28  -4   2    9.50    6.20
  28   4  -2    1.60    8.40
 -16   8   1  162.98   20.90
  16  -8  -1  111.79   12.30
 -17   7   1    4.80    9.20
  17  -7  -1    2.60    3.80
 -18   6   1  110.79   11.80
 -18   6   1   86.79   14.20
  18  -6  -1   97.89    9.60
 -19   5   1   53.19   10.10
  19  -5  -1   48.80    6.80
  19  -5  -1   71.29    7.80
 -20   4   1  624.64   45.80
  20  -4  -1  638.04   43.30
  20  -4  -1  738.13   44.90
 -21   3   1  211.28   15.60
 -21   3   1  189.18   17.10
  21  -3  -1  202.38   16.50
 -22   2   1   82.99    8.50
 -22   2   1   76.19    9.30
  22  -2  -1   74.39    9.10
 -23   1   1  113.99   10.80
 -23   1   1  126.69   10.80
 -23   1   1  127.59   11.40
  23  -1  -1  114.09   12.10
 -24   0   1    1.30    3.50
 -24   0   1   -3.30    3.40
 -24   0   1   -0.50    3.50
  24   0  -1    1.00    4.30
 -25  -1   1  222.38   16.60
  25   1  -1  202.08   18.50
 -26  -2   1  661.23   41.60
  26   2  -1  545.75   48.70
 -27  -3   1   -1.70    4.90
  27   3  -1    9.40    6.80
 -28  -4   1  323.67   25.20
  28   4  -1  330.97   28.80
 -16   8   0 1023.40   70.59
  16  -8   0  954.30   63.89
 -17   7   0   49.99   11.30
  17  -7   0   66.49    8.40
 -18   6   0   54.39   11.10
  18  -6   0   51.29    7.00
  18  -6   0   33.60    6.10
 -19   5   0  255.17   23.10
  19  -5   0  304.67   20.50
  19  -5   0  259.77   19.60
 -20   4   0  545.15   41.10
  20  -4   0  612.64   38.80
  20  -4   0  603.94   39.70
 -21   3   0   51.29    6.80
 -21   3   0   44.80    7.70
  21  -3   0   47.10    7.00
 -22   2   0  201.68   16.10
 -22   2   0  188.18   15.10
  22  -2   0  190.58   16.00
 -23   1   0   16.40    4.20
 -23   1   0   16.50    4.70
 -23   1   0   16.90    4.60
  23  -1   0   17.40    4.70
 -24   0   0  516.15   36.50
 -24   0   0  575.04   37.70
 -24   0   0  599.64   36.60
  24   0   0  572.34   39.80
 -25  -1   0    2.40    3.90
  25   1   0   -5.70    4.10
  26   2   0  194.28   25.40
 -27  -3   0  179.08   15.10
  27   3   0  144.09   18.30
 -28  -4   0    2.30    7.40
  28   4   0   17.80   10.00
 -16   8  -1  217.58   25.40
  16  -8   1  203.18   17.60
 -17   7  -1  159.58   18.90
  17  -7   1  146.89   13.50
 -18   6  -1   37.30    9.60
  18  -6   1   48.70    7.30
 -19   5  -1   13.30    6.20
  19  -5   1   17.90    4.60
  19  -5   1   28.10    4.80
 -20   4  -1 1284.17   80.49
  20  -4   1 1200.18   77.59
  20  -4   1 1186.18   78.49
 -21   3  -1   76.69   10.30
 -21   3  -1   63.29    7.90
  21  -3   1   77.59    8.80
 -22   2  -1    4.80    3.30
 -22   2  -1    0.60    4.30
  22  -2   1    8.50    3.80
 -23   1  -1  207.78   16.40
 -23   1  -1  219.98   16.50
 -23   1  -1  211.68   16.40
  23  -1   1  231.38   18.20
 -24   0  -1   -0.30    3.80
 -24   0  -1   -0.60    3.50
  24   0   1    3.40    4.90
 -25  -1  -1 1585.94   99.09
  25   1   1 1539.65  101.59
 -26  -2  -1  284.47   20.60
  26   2   1  260.27   23.20
 -27  -3  -1   59.79    8.30
  27   3   1   37.50    8.80
 -28  -4  -1  161.48   16.00
  28   4   1  156.98   21.60
 -16   8  -2  -10.50   14.70
  16  -8   2    5.10    6.80
 -17   7  -2   51.19   11.50
  17  -7   2   40.80    7.00
 -18   6  -2    9.90    8.10
  18  -6   2   14.20    4.30
  18  -6   2   18.40    4.80
 -19   5  -2  140.59   16.50
  19  -5   2  156.78   12.90
 -20   4  -2  209.88   18.70
  20  -4   2  199.88   16.60
  20  -4   2  226.08   16.20
 -21   3  -2  560.54   36.90
 -21   3  -2  488.75   34.70
  21  -3   2  505.75   35.50
 -22   2  -2    3.80    3.40
 -22   2  -2    2.10    4.40
  22  -2   2    9.70    4.00
 -23   1  -2   77.79    9.80
 -23   1  -2  115.19   10.20
 -23   1  -2  102.79   10.60
  23  -1   2  109.79   11.40
 -24   0  -2   61.39    9.60
 -24   0  -2   80.99    8.60
  24   0   2   65.99    9.90
 -25  -1  -2  142.19   12.50
  25   1   2  131.09   13.90
 -26  -2  -2  411.16   27.20
  26   2   2  342.87   29.60
 -27  -3  -2   32.40    6.60
  27   3   2   19.30    8.50
 -28  -4  -2   43.60    8.00
  28   4   2   40.60   12.40
 -16   8  -3   24.30   13.00
  16  -8   3   26.70    6.70
 -17   7  -3   92.29   16.10
  17  -7   3  103.69   11.10
 -18   6  -3   20.90    9.90
  18  -6   3   28.50    5.20
  18  -6   3   43.20    6.70
 -19   5  -3  241.48   23.60
  19  -5   3  324.57   21.80
  19  -5   3  308.37   22.20
 -20   4  -3   12.60    6.10
  20  -4   3    5.60    3.70
  20  -4   3    5.90    3.80
 -21   3  -3   67.49   10.20
 -21   3  -3   67.79    8.10
  21  -3   3   85.49    9.20
 -22   2  -3   33.20    5.50
 -22   2  -3   33.50    6.30
  22  -2   3   36.10    6.20
 -23   1  -3  919.61   58.59
 -23   1  -3  899.81   58.79
  23  -1   3  895.21   60.39
 -24   0  -3   -1.40    3.40
 -24   0  -3    1.20    3.90
  24   0   3    7.20    4.60
 -25  -1  -3  348.67   25.70
  25   1   3  342.77   27.50
 -26  -2  -3   30.90    6.60
  26   2   3   21.90    8.40
 -27  -3  -3   60.99    9.20
  27   3   3   58.59   11.70
 -28  -4  -3  146.49   16.80
  28   4   3  182.68   20.50
 -16   8  -4   73.59   15.10
  16  -8   4   90.69   11.50
 -17   7  -4  322.47   30.30
  17  -7   4  309.87   23.70
 -18   6  -4  163.88   18.40
  18  -6   4  143.49   12.60
  18  -6   4  129.89   12.80
 -19   5  -4  376.66   29.90
  19  -5   4  380.26   26.90
 -20   4  -4  445.06   37.40
  20  -4   4  555.34   36.20
  20  -4   4  571.04   35.60
 -21   3  -4  266.07   19.60
 -21   3  -4  259.77   21.50
  21  -3   4  270.97   20.50
 -22   2  -4  147.89   12.60
 -22   2  -4  161.38   14.70
  22  -2   4  138.79   13.70
 -23   1  -4   80.49   10.40
 -23   1  -4   86.09    9.50
  23  -1   4   98.39   11.10
 -24   0  -4 2452.25  139.09
 -24   0  -4 2030.50  133.69
  24   0   4 1969.80  136.89
 -25  -1  -4   27.50    5.90
  25   1   4   21.60    7.20
 -26  -2  -4   67.29    9.10
  26   2   4   61.99   11.20
 -27  -3  -4   42.90    8.60
  27   3   4   26.90   11.60
 -17   7  -5   38.70   13.30
  17  -7   5   49.60    9.30
 -18   6  -5  539.15   41.20
  18  -6   5  556.94   37.10
  18  -6   5  527.35   36.60
  19  -5   5  286.97   21.70
  19  -5   5  300.77   21.70
 -20   4  -5   43.10    7.30
 -20   4  -5   29.10    7.40
  20  -4   5   56.89    7.70
  20  -4   5   36.30    7.30
 -21   3  -5   -2.10    4.30
 -21   3  -5    4.80    5.40
  21  -3   5    0.80    3.60
 -22   2  -5   70.89    8.30
 -22   2  -5   57.39    9.40
  22  -2   5   61.79    8.90
 -23   1  -5   89.59   10.90
  23  -1   5  107.89   12.00
 -24   0  -5    3.20    3.90
 -24   0  -5    4.60    4.70
  24   0   5    3.90    5.40
 -25  -1  -5  286.07   21.00
  25   1   5  264.87   23.50
 -26  -2  -5  444.26   30.50
  26   2   5  415.96   33.90
 -27  -3  -5   27.20    7.20
  27   3   5   36.80    9.60
 -17   7  -6  209.38   24.70
  17  -7   6  221.28   18.40
 -18   6  -6  172.08   21.20
  18  -6   6  193.78   15.90
  18  -6   6  191.68   16.60
 -19   5  -6    6.60    7.10
  19  -5   6   11.70    4.60
  19  -5   6   10.70    5.00
 -20   4  -6   58.49    8.50
 -20   4  -6   53.39   10.70
  20  -4   6   52.99    8.10
  20  -4   6   57.19    8.00
 -21   3  -6   41.20    8.70
 -21   3  -6   37.90    6.30
  21  -3   6   45.30    7.60
 -22   2  -6  234.18   17.60
 -22   2  -6  232.18   19.90
  22  -2   6  223.08   19.10
 -23   1  -6   -0.20    5.40
 -23   1  -6   -4.00    3.70
  23  -1   6    2.80    4.50
 -24   0  -6  268.17   22.00
 -24   0  -6  315.07   22.00
  24   0   6  295.57   24.20
 -25  -1  -6    7.20    5.00
  25   1   6    2.50    6.30
 -26  -2  -6   88.49   10.50
  26   2   6   60.29   12.90
 -18   6  -7  433.76   37.30
  18  -6   7  445.36   32.00
  18  -6   7  434.16   30.90
  19  -5   7  519.25   33.60
  19  -5   7  439.46   33.20
 -20   4  -7  201.98   16.70
 -20   4  -7  200.68   20.10
  20  -4   7  204.08   17.50
 -21   3  -7   32.90    6.00
 -21   3  -7   28.30    8.00
 -22   2  -7   -6.90    6.00
 -22   2  -7    0.70    4.60
  22  -2   7    5.90    5.10
 -23   1  -7  542.05   41.00
 -23   1  -7  661.03   40.30
  23  -1   7  585.94   42.30
 -24   0  -7    4.80    5.00
 -24   0  -7    0.00    5.60
  24   0   7    1.10    5.70
 -25  -1  -7   21.20    6.30
  25   1   7    9.30    9.20
 -26  -2  -7  195.18   17.90
  26   2   7  204.98   22.70
 -19   5  -8  310.97   28.30
  19  -5   8  301.37   23.50
  19  -5   8  293.07   25.70
 -20   4  -8   79.19    9.90
 -20   4  -8   73.69   12.80
  20  -4   8   68.89   10.50
 -21   3  -8  205.58   16.40
 -21   3  -8  178.18   19.00
  21  -3   8  197.48   17.90
 -22   2  -8  103.69   14.60
 -22   2  -8  143.99   12.60
  22  -2   8  113.19   14.50
 -23   1  -8   57.29    8.30
 -23   1  -8   51.09    9.80
  23  -1   8   41.00    9.60
 -24   0  -8  249.48   18.50
 -24   0  -8  185.28   19.80
  24   0   8  247.48   23.20
 -25  -1  -8    6.10    7.30
  25   1   8   11.70    8.40
 -20   4  -9   -0.20   10.30
 -20   4  -9   -3.50    6.30
  20  -4   9    4.60    5.60
 -21   3  -9  621.54   46.30
 -21   3  -9  648.34   43.20
  21  -3   9  653.03   45.20
 -22   2  -9   10.90    8.50
 -22   2  -9    3.00    5.20
  22  -2   9   10.90    7.00
 -23   1  -9  245.08   19.20
 -23   1  -9  225.38   24.00
  23  -1   9  220.78   22.00
 -23   3  12  194.58   24.60
  23  -3 -12  181.88   17.00
 -24   2  12  479.65   40.70
  24  -2 -12  443.06   32.10
 -25   1  12    0.40    9.60
  25  -1 -12    9.70    4.80
 -21   5  11   10.30   10.60
  21  -5 -11    5.60    7.20
 -22   4  11  105.19   16.00
  22  -4 -11  114.09   12.60
 -23   3  11    9.50    9.20
  23  -3 -11   11.00    5.50
 -24   2  11    7.10    9.40
 -25   1  11   36.40   11.80
 -26   0  11   -0.60    9.80
  26   0 -11    1.60    3.90
 -27  -1  11   36.50   11.90
  20  -6 -10   99.59   12.40
 -21   5  10  549.74   41.70
  21  -5 -10  524.75   37.80
  22  -4 -10  144.29   14.30
 -23   3  10  259.47   24.60
 -24   2  10  319.07   28.30
 -24   2  10  291.37   21.60
  24  -2 -10  326.37   22.80
 -25   1  10   57.19    7.80
 -25   1  10   63.49   12.20
  25  -1 -10   59.19    8.00
 -26   0  10  433.96   31.80
 -26   0  10  471.85   38.80
  26   0 -10  533.85   32.50
 -27  -1  10   68.29   13.60
 -27  -1  10   65.19    7.60
 -28  -2  10   64.69    8.20
 -28  -2  10   56.39   14.60
 -20   6   9  102.29   13.90
 -20   6   9   79.39   13.00
 -20   6   9   74.19   17.00
  20  -6  -9   94.29   13.70
  20  -6  -9   99.49    8.80
 -21   5   9   22.60    5.40
 -21   5   9   13.80    8.40
  21  -5  -9   19.10    6.20
 -22   4   9   99.09   10.70
 -22   4   9  149.19   16.10
  22  -4  -9  105.89   12.50
 -23   3   9  468.75   30.50
 -23   3   9  433.26   35.70
  23  -3  -9  450.85   31.50
 -24   2   9  124.59   16.10
 -24   2   9  112.89   10.60
  24  -2  -9  131.59   11.50
 -25   1   9    5.60    7.40
 -25   1   9   12.60    3.90
  25  -1  -9    5.80    3.50
 -26   0   9    3.40    7.00
 -26   0   9   -6.10    3.70
  26   0  -9    3.50    3.70
 -27  -1   9  414.56   34.70
 -27  -1   9  410.76   28.30
 -28  -2   9  234.68   18.40
 -28  -2   9  237.18   24.90
 -19   7   8   31.70   11.90
  19  -7  -8   21.40    4.80
 -20   6   8  110.49   15.80
 -20   6   8   73.19   12.50
  20  -6  -8  108.19    9.10
 -21   5   8   51.39    7.30
 -21   5   8   49.50   10.60
 -21   5   8   43.00   10.90
  21  -5  -8   61.89    9.40
 -22   4   8  250.97   19.00
 -22   4   8  265.17   23.60
  22  -4  -8  262.47   20.10
 -23   3   8   52.09    7.20
 -23   3   8   67.19   11.00
  23  -3  -8   69.89    8.20
 -24   2   8   44.50    6.50
 -24   2   8   49.00   10.20
  24  -2  -8   47.20    6.60
 -25   1   8    8.70    6.80
 -25   1   8    6.50    3.90
  25  -1  -8    5.20    3.50
 -26   0   8 1200.58   81.19
 -26   0   8 1251.87   86.39
  26   0  -8 1390.26   81.19
 -27  -1   8    7.10    7.30
 -27  -1   8    4.10    4.50
 -28  -2   8 1187.98   78.29
 -28  -2   8 1272.37   85.19
 -29  -3   8    5.80    6.50
 -29  -3   8    4.00    9.70
 -19   7   7   97.59   20.00
  19  -7  -7  128.09   10.80
 -20   6   7  591.34   47.50
 -20   6   7  650.23   45.70
  20  -6  -7  692.53   42.20
 -21   5   7  365.76   26.50
 -21   5   7  363.26   29.80
  21  -5  -7  398.56   25.40
 -22   4   7  879.21   57.19
 -22   4   7  858.61   60.19
 -22   4   7  877.21   61.09
  22  -4  -7  928.01   58.29
 -23   3   7   93.99   13.50
 -23   3   7  108.59    9.60
 -23   3   7   71.89   11.40
  23  -3  -7   86.39    9.20
 -24   2   7   41.40    6.50
 -24   2   7   41.90    8.70
  24  -2  -7   56.99    6.90
 -25   1   7  193.38   21.70
 -25   1   7  260.27   17.20
 -25   1   7  200.38   17.80
  25  -1  -7  242.28   16.60
 -26   0   7    0.20    4.10
 -26   0   7    1.00    3.90
 -26   0   7    1.80    6.30
  26   0  -7   -0.30    2.90
 -27  -1   7   21.30    8.50
 -27  -1   7   40.50    6.50
 -28  -2   7  150.88   20.00
 -28  -2   7  138.59   13.70
 -29  -3   7   62.69    9.30
 -29  -3   7   67.29   14.10
 -19   7   6  439.26   37.70
 -20   6   6   60.59   12.40
 -20   6   6   38.70    8.70
  20  -6  -6   54.99    6.90
 -21   5   6   71.59   12.70
 -21   5   6   88.69   12.90
  21  -5  -6   76.79    7.80
 -22   4   6  390.76   29.00
 -22   4   6  365.56   29.10
 -22   4   6  361.26   26.00
 -23   3   6   24.50    6.90
 -23   3   6   16.90    5.80
 -23   3   6   24.00    5.30
 -24   2   6    9.30    4.80
 -24   2   6    7.00    4.10
 -24   2   6    8.40    6.10
 -25   1   6  133.29   11.40
 -25   1   6  127.69   15.30
 -25   1   6  116.09   11.80
 -26   0   6  804.02   52.19
 -26   0   6  692.23   65.69
 -26   0   6  879.61   52.79
 -27  -1   6   38.20    9.20
  27   1  -6   33.00    8.30
 -28  -2   6   64.09   12.30
 -29  -3   6   92.19   12.30
 -29  -3   6  107.19   19.80
 -18   8   5   97.89   16.80
  18  -8  -5   87.39   10.40
 -19   7   5  115.99   17.70
  19  -7  -5  125.49   11.90
 -20   6   5  105.19   14.50
 -20   6   5  141.09   16.20
  20  -6  -5  139.89   11.10
 -21   5   5  153.18   17.10
 -21   5   5  137.89   16.60
  21  -5  -5  168.98   12.50
 -22   4   5    6.80    5.90
 -22   4   5   10.70    4.20
 -22   4   5   11.30    6.10
 -23   3   5    8.40    5.90
 -23   3   5   14.30    4.20
 -23   3   5    2.70    5.10
 -24   2   5    6.10    4.60
 -24   2   5   -5.50    5.70
 -24   2   5   -1.00    3.70
  24  -2  -5   -7.50    4.40
 -25   1   5  134.09   15.80
 -25   1   5  149.69   12.60
 -25   1   5  144.09   12.60
  25  -1  -5  146.59   15.10
 -26   0   5   -2.10    3.80
  26   0  -5   -4.20    5.70
 -27  -1   5 1890.31  118.49
  27   1  -5 1866.81  122.09
  28   2  -5  101.29   14.80
 -29  -3   5   17.00    6.30
  29   3  -5   13.00    9.60
 -18   8   4   23.60   12.80
  18  -8  -4   27.70    6.00
 -19   7   4  374.66   32.30
  19  -7  -4  331.67   24.20
 -20   6   4   70.59   13.90
 -20   6   4   90.79   11.50
  20  -6  -4   91.19    8.90
 -21   5   4   27.70    7.40
 -21   5   4   48.00    9.20
  21  -5  -4   35.00    5.20
 -22   4   4  425.76   32.40
 -22   4   4  433.76   29.40
 -22   4   4  420.26   31.80
 -23   3   4  846.62   56.69
 -23   3   4  845.32   55.19
 -23   3   4  841.12   58.39
  23  -3  -4  866.71   57.09
 -24   2   4  192.18   15.80
 -24   2   4  180.98   15.00
  24  -2  -4  193.58   17.00
 -25   1   4   71.29    8.80
 -25   1   4   69.79    8.70
  25  -1  -4   76.39   10.70
 -26   0   4  121.89   11.50
 -26   0   4  120.29   11.40
  26   0  -4  126.39   14.20
 -27  -1   4    6.10    4.40
  27   1  -4    5.00    5.30
 -28  -2   4   10.10    4.70
  28   2  -4   -1.40    6.50
 -29  -3   4  257.07   20.10
  29   3  -4  215.98   24.20
 -30  -4   4    7.70    7.00
  30   4  -4   20.20   10.10
 -18   8   3   24.30   13.50
  18  -8  -3   16.40    5.20
 -19   7   3  100.19   16.50
  19  -7  -3  118.59   11.10
 -20   6   3  335.87   26.10
  20  -6  -3  340.17   23.70
 -21   5   3  116.79   14.10
 -21   5   3  138.29   15.30
  21  -5  -3  105.69   10.20
 -22   4   3  130.59   12.70
 -22   4   3  148.09   15.40
 -22   4   3  127.79   14.80
  22  -4  -3  144.79   13.70
  22  -4  -3  166.88   11.80
 -23   3   3   54.09    7.30
 -23   3   3   46.40    8.50
  23  -3  -3   52.39    7.90
 -24   2   3  279.17   20.50
 -24   2   3  266.47   21.10
  24  -2  -3  300.77   22.40
 -25   1   3  724.93   45.40
 -25   1   3  629.94   44.80
  25  -1  -3  713.73   47.80
 -26   0   3    0.50    4.10
 -26   0   3    1.90    4.50
  26   0  -3    0.60    4.60
 -27  -1   3  265.77   19.40
  27   1  -3  230.78   23.40
 -28  -2   3  184.98   15.60
  28   2  -3  166.68   18.90
 -29  -3   3    8.00    6.00
  29   3  -3   10.50    9.80
 -30  -4   3  287.77   23.10
  30   4  -3  283.77   27.60
 -18   8   2  355.76   35.70
  18  -8  -2  363.46   26.10
 -19   7   2   59.79   12.70
  19  -7  -2   49.30    7.20
 -20   6   2  162.48   16.70
 -20   6   2  209.38   22.00
  20  -6  -2  167.48   14.80
 -21   5   2  160.68   16.40
 -21   5   2  173.28   17.60
  21  -5  -2  148.79   12.90
  21  -5  -2  178.58   14.40
 -22   4   2  250.47   22.00
 -22   4   2  290.17   20.20
  22  -4  -2  261.37   20.80
  22  -4  -2  274.07   19.20
 -23   3   2    2.70    4.80
 -23   3   2    5.70    3.90
  23  -3  -2    0.30    4.00
 -24   2   2  803.82   52.49
 -24   2   2  772.62   52.99
  24  -2  -2  840.52   54.39
 -25   1   2   28.30    5.30
 -25   1   2   30.30    5.50
  25  -1  -2   18.70    6.20
 -26   0   2 1721.83  117.09
 -26   0   2 2020.30  118.99
  26   0  -2 1921.21  121.49
 -27  -1   2   19.10    5.40
  27   1  -2    0.70    7.00
 -28  -2   2    7.90    5.10
  28   2  -2    7.80    6.60
 -29  -3   2    9.40    5.70
  29   3  -2    2.40    9.30
 -30  -4   2  540.35   35.80
  30   4  -2  456.05   39.90
 -18   8   1  236.28   29.90
  18  -8  -1  211.48   18.20
 -19   7   1  229.28   23.90
  19  -7  -1  240.38   18.20
 -20   6   1  376.76   34.20
 -20   6   1  376.56   28.70
 -21   5   1    4.40    6.60
  21  -5  -1    0.70    4.10
  21  -5  -1    1.60    3.40
 -22   4   1  486.95   36.00
  22  -4  -1  501.45   34.70
  22  -4  -1  502.25   33.20
 -23   3   1  113.09   12.70
 -23   3   1  117.79   11.40
  23  -3  -1  140.89   12.70
 -24   2   1  213.08   16.70
 -24   2   1  202.88   17.10
  24  -2  -1  226.58   17.90
 -25   1   1  185.38   15.00
 -25   1   1  188.28   15.20
  25  -1  -1  189.48   16.90
 -26   0   1   -1.00    3.60
 -26   0   1   -6.20    3.70
  26   0  -1    0.90    4.80
  27   1  -1  117.79   14.20
 -28  -2   1  353.56   25.10
  28   2  -1  318.37   27.90
 -29  -3   1    6.20    6.80
  29   3  -1   -1.60    9.10
 -30  -4   1   61.89   10.50
  30   4  -1   61.89   13.40
 -18   8   0  759.32   54.39
  18  -8   0  649.04   46.50
 -19   7   0  125.39   19.20
  19  -7   0  105.89   11.60
  20  -6   0  115.69   11.30
  20  -6   0  124.79   11.60
 -21   5   0   -0.50    7.00
  21  -5   0    8.30    4.30
  21  -5   0    8.10    4.00
 -22   4   0  192.28   16.60
 -22   4   0  235.08   19.50
  22  -4   0  216.18   17.40
  22  -4   0  219.68   16.30
 -23   3   0  253.57   21.00
 -23   3   0  257.57   19.40
  23  -3   0  276.27   20.70
 -24   2   0  701.53   50.29
 -24   2   0  813.22   50.09
  24  -2   0  773.32   51.39
 -25   1   0    0.20    3.90
 -25   1   0    9.80    4.20
  25  -1   0    5.10    4.80
 -26   0   0  233.88   17.90
 -26   0   0  272.77   19.60
  26   0   0  263.17   21.40
 -27  -1   0    6.00    4.30
  27   1   0    8.30    5.80
 -28  -2   0   85.69   11.20
  28   2   0   95.29   13.70
 -29  -3   0  161.08   15.70
  29   3   0  123.39   18.60
 -18   8  -1  161.98   22.00
  18  -8   1  151.18   14.40
 -19   7  -1  438.96   37.20
  19  -7   1  443.26   30.90
 -20   6  -1   35.10   10.00
  20  -6   1   37.20    6.40
  20  -6   1   23.50    5.30
 -21   5  -1  213.28   20.90
  21  -5   1  239.88   18.20
 -22   4  -1  127.59   14.40
 -22   4  -1  107.89   11.40
  22  -4   1  138.69   12.40
  22  -4   1  127.19   11.40
 -23   3  -1   41.10    7.80
 -23   3  -1   38.70    6.20
  23  -3   1   45.30    7.30
 -24   2  -1   -4.30    4.50
 -24   2  -1    4.60    3.80
  24  -2   1    3.20    4.20
 -25   1  -1 1313.47   93.79
 -25   1  -1 1523.25   94.49
  25  -1   1 1641.94   96.99
 -26   0  -1    6.50    4.30
 -26   0  -1   -0.40    5.10
  26   0   1   -6.20    4.90
 -27  -1  -1  255.37   19.60
  27   1   1  248.28   21.60
 -28  -2  -1    1.60    5.50
  28   2   1   -5.20    6.70
 -29  -3  -1  555.74   37.20
  29   3   1  477.55   41.30
 -18   8  -2   -5.00    9.70
  18  -8   2    8.70    5.80
 -19   7  -2    5.70    8.90
  19  -7   2   -3.70    5.10
 -20   6  -2  244.18   24.60
  20  -6   2  252.27   20.00
  20  -6   2  278.77   20.10
 -21   5  -2  178.68   18.60
  21  -5   2  185.28   15.30
  21  -5   2  187.98   14.90
 -22   4  -2   40.10   10.40
 -22   4  -2   29.10    7.40
  22  -4   2   35.50    6.00
  22  -4   2   35.70    6.80
 -23   3  -2  301.87   24.20
 -23   3  -2  391.46   26.80
  23  -3   2  341.67   25.40
 -24   2  -2   92.39    9.80
 -24   2  -2   87.89   10.80
  24  -2   2   97.99   10.90
 -25   1  -2  108.59   11.10
 -25   1  -2  116.69   11.20
  25  -1   2  108.89   12.30
 -26   0  -2   76.49   11.30
 -26   0  -2  103.39   10.50
  26   0   2   90.59   17.50
 -27  -1  -2  169.88   14.80
  27   1   2  176.98   17.50
 -28  -2  -2  249.68   19.90
  28   2   2  243.08   22.90
 -29  -3  -2  127.49   13.30
  29   3   2   98.49   15.60
 -19   7  -3   -9.40   11.60
  19  -7   3   15.20    6.70
 -20   6  -3   10.80    9.30
  20  -6   3    7.80    4.60
  20  -6   3   21.50    6.20
 -21   5  -3  104.39   16.60
  21  -5   3  163.38   13.40
  21  -5   3  151.08   13.00
 -22   4  -3  615.34   41.50
 -22   4  -3  507.05   38.30
  22  -4   3  588.14   39.30
  22  -4   3  582.34   38.30
 -23   3  -3  547.75   40.40
  23  -3   3  613.44   40.30
 -24   2  -3   -0.40    4.90
  24  -2   3   -7.50    4.20
 -25   1  -3  376.16   25.60
 -25   1  -3  303.77   24.20
  25  -1   3  348.17   26.40
 -26   0  -3   -5.80    4.00
 -26   0  -3   -4.50    4.40
  26   0   3   -0.60    5.10
 -27  -1  -3  107.29   11.70
  27   1   3   99.79   14.20
 -28  -2  -3   92.39   11.90
  28   2   3   67.19   12.20
 -29  -3  -3  129.99   14.50
  29   3   3  137.29   18.60
 -19   7  -4   37.00   15.80
  19  -7   4   24.20    6.20
 -20   6  -4  631.44   45.20
  20  -6   4  580.14   40.40
  20  -6   4  587.54   40.30
  21  -5   4   85.29   10.20
  21  -5   4   89.99   10.30
 -22   4  -4   81.89   10.10
 -22   4  -4   96.79   12.90
  22  -4   4   92.59    9.90
  22  -4   4   69.29    9.90
 -23   3  -4  141.99   15.30
 -23   3  -4  154.68   13.80
  23  -3   4  194.78   15.30
 -24   2  -4 1054.39   67.29
 -24   2  -4  977.00   67.99
  24  -2   4 1096.79   69.19
 -25   1  -4   19.50    6.00
 -25   1  -4   36.20    6.50
  25  -1   4   31.50    6.70
 -26   0  -4   40.50    7.20
 -26   0  -4   22.20    6.20
  26   0   4   25.50    7.00
 -27  -1  -4   36.50    7.20
  27   1   4   36.60    9.20
 -28  -2  -4  929.71   58.59
  28   2   4  823.92   61.59
 -19   7  -5  235.28   26.20
  19  -7   5  235.98   20.00
 -20   6  -5  231.28   23.90
  20  -6   5  215.38   17.90
  20  -6   5  231.08   19.50
 -21   5  -5   58.09   12.10
  21  -5   5   79.89   10.40
  21  -5   5   82.19    9.80
 -22   4  -5  723.83   51.99
 -22   4  -5  854.71   55.09
  22  -4   5  803.22   53.09
 -23   3  -5   68.19    9.00
 -23   3  -5   68.99   10.40
  23  -3   5   65.69    9.40
 -24   2  -5  216.28   19.70
 -24   2  -5  253.17   18.60
  24  -2   5  226.98   21.10
 -25   1  -5  274.37   19.70
 -25   1  -5  236.08   19.80
  25  -1   5  242.08   21.10
 -26   0  -5   -2.40    5.30
  26   0   5   -0.40    6.50
 -27  -1  -5   26.30    6.60
  27   1   5   21.40    9.60
 -28  -2  -5  118.99   13.00
  28   2   5  117.09   15.90
 -20   6  -6  183.08   23.90
  20  -6   6  156.78   15.70
  20  -6   6  182.18   15.50
 -21   5  -6  110.69   16.80
  21  -5   6  143.19   13.10
  21  -5   6  103.99   12.30
 -22   4  -6  175.38   14.20
 -22   4  -6  126.39   18.40
  22  -4   6  142.49   14.30
 -23   3  -6    9.60    7.00
 -23   3  -6   10.30    4.60
  23  -3   6   11.40    5.20
 -24   2  -6  124.19   12.10
 -24   2  -6  113.59   14.00
  24  -2   6  117.89   13.40
 -25   1  -6    6.90    6.20
 -25   1  -6   -4.20    5.00
  25  -1   6   15.60    6.80
 -26   0  -6  185.38   16.10
  26   0   6  165.48   18.70
 -27  -1  -6    4.90    7.40
  27   1   6    5.40    7.60
 -21   5  -7  139.49   15.40
 -21   5  -7  183.68   20.70
  21  -5   7  158.38   15.90
  21  -5   7  137.19   19.10
 -22   4  -7  122.79   13.10
 -22   4  -7  124.59   16.70
  22  -4   7  115.29   13.10
 -23   3  -7  640.54   42.70
  23  -3   7  628.94   44.50
 -24   2  -7  117.99   12.40
 -24   2  -7  119.09   15.20
  24  -2   7  135.99   15.00
 -25   1  -7    8.60    7.30
 -25   1  -7   18.70    6.30
  25  -1   7   13.60    7.20
 -26   0  -7    7.50    7.40
  26   0   7   12.70    7.60
 -22   4  -8  152.58   14.80
 -22   4  -8  146.09   19.50
  22  -4   8  138.39   15.20
 -23   3  -8  164.58   17.80
 -23   3  -8  195.98   20.00
  23  -3   8  206.38   18.20
 -24   2  -8  369.26   27.90
  24  -2   8  373.76   30.50
 -25   1  -8   -3.00    7.70
 -25   1  -8   -9.70    7.00
  25  -1   8   10.80    6.80
 -25   3  11   19.20   12.10
  25  -3 -11    8.20    5.60
 -26   2  11   10.60   13.80
  26  -2 -11   15.20    4.80
 -27   1  11   23.70   11.00
  27  -1 -11   29.90    6.10
 -23   5  10  179.58   22.80
  23  -5 -10  197.98   19.60
 -24   4  10   67.09   13.60
  24  -4 -10   85.39   11.30
 -25   3  10  382.76   32.50
  25  -3 -10  356.86   26.50
 -26   2  10    4.80    8.70
 -27   1  10   77.69   16.00
  27  -1 -10   84.89    9.30
 -28   0  10    5.20    9.80
 -23   5   9  597.24   47.00
 -23   5   9  626.64   42.80
 -23   5   9  637.14   47.10
  23  -5  -9  647.14   43.60
 -24   4   9   18.70    5.30
 -24   4   9    1.70   11.70
  24  -4  -9   10.70    5.50
 -25   3   9    9.40    9.20
 -25   3   9   13.70    4.90
  25  -3  -9   20.60    5.70
 -26   2   9   35.10    5.90
 -26   2   9   27.00   10.60
  26  -2  -9   45.90    6.70
 -27   1   9  403.16   35.10
 -27   1   9  422.76   29.40
  27  -1  -9  454.95   29.60
 -28   0   9    7.20    5.00
 -28   0   9   -5.70   10.50
 -29  -1   9  142.79   13.50
 -29  -1   9  128.39   18.70
 -22   6   8  233.98   24.50
 -22   6   8  221.58   19.90
 -22   6   8  254.27   27.50
  22  -6  -8  272.47   17.90
 -23   5   8  240.48   22.60
 -23   5   8  220.08   22.80
 -23   5   8  198.88   17.30
 -24   4   8  752.82   51.49
 -24   4   8  672.33   46.40
 -25   3   8   41.00    8.70
 -25   3   8   33.00    5.90
  25  -3  -8   20.30    5.40
 -26   2   8   97.79   10.30
 -26   2   8   79.99   13.40
 -26   2   8   85.89   12.40
  26  -2  -8  108.49   10.00
 -27   1   8    8.80    8.20
 -27   1   8    4.90    5.50
 -27   1   8    8.20    4.40
  27  -1  -8   10.70    3.70
 -28   0   8 1672.13  120.99
 -28   0   8 1993.10  116.19
 -29  -1   8   87.89   16.40
 -29  -1   8   92.79   11.00
 -30  -2   8  116.99   19.60
 -30  -2   8  141.39   14.40
 -21   7   7   19.00   11.00
 -22   6   7  347.37   28.70
 -22   6   7  318.37   30.60
  22  -6  -7  347.07   23.40
 -23   5   7   83.79   13.30
 -23   5   7  105.89   11.40
 -23   5   7  109.39   16.30
 -24   4   7  336.27   23.00
 -24   4   7  287.67   25.50
 -24   4   7  317.67   27.10
 -25   3   7   50.79   10.60
 -25   3   7   31.10    8.20
 -25   3   7   51.29    7.10
 -26   2   7    5.90    5.70
 -26   2   7    2.30    4.20
 -27   1   7   30.70    9.50
 -27   1   7   21.40    5.60
 -27   1   7   21.10    6.40
 -28   0   7    1.00    7.40
 -28   0   7   -1.40    4.30
 -29  -1   7   -3.10    5.80
 -29  -1   7   15.60    9.50
 -30  -2   7  168.68   16.50
 -30  -2   7  168.58   21.60
 -21   7   6  406.96   37.30
  21  -7  -6  395.86   27.50
 -22   6   6  194.28   19.60
 -22   6   6  167.58   22.30
  22  -6  -6  202.68   15.00
 -23   5   6   37.20    6.70
 -23   5   6   31.20    9.40
 -23   5   6   31.10   15.30
 -24   4   6   55.89   10.30
 -24   4   6   45.70    9.70
 -24   4   6   65.59    8.80
 -25   3   6  222.88   21.60
 -25   3   6  227.68   17.50
 -25   3   6  219.98   19.70
 -26   2   6  139.29   12.60
 -26   2   6  133.49   13.60
 -26   2   6  114.49   16.40
 -27   1   6   32.40    9.00
 -27   1   6   38.60    7.20
 -27   1   6   60.19    7.60
 -28   0   6   63.19   12.80
 -28   0   6   77.19    9.70
 -29  -1   6  130.29   16.70
  29   1  -6  120.19   16.10
 -30  -2   6  126.39   13.70
 -30  -2   6  107.09   18.20
 -21   7   5  664.83   52.29
  21  -7  -5  678.43   44.30
 -22   6   5  775.62   54.39
 -22   6   5  713.33   51.59
 -23   5   5  304.17   25.70
 -23   5   5  303.47   26.70
 -23   5   5  282.87   22.40
  23  -5  -5  321.87   21.30
 -24   4   5   -4.70    6.60
 -24   4   5  -10.00    4.30
 -24   4   5    0.90    6.20
 -25   3   5   47.70    6.90
 -25   3   5   54.49   10.80
 -25   3   5   34.00    7.80
 -26   2   5    9.20    4.80
 -26   2   5   15.80    5.80
 -26   2   5   14.90    6.40
  26  -2  -5    5.30    5.60
 -27   1   5 1622.74  108.99
 -27   1   5 1835.62  109.39
 -28   0   5   -3.80    4.40
  28   0  -5    2.70    5.80
 -29  -1   5  196.18   17.90
  29   1  -5  217.18   21.70
 -30  -2   5   54.19    9.10
  30   2  -5   47.70   13.60
 -21   7   4   37.80   12.90
  21  -7  -4   32.30    5.80
 -22   6   4  187.28   20.70
 -22   6   4  153.08   17.30
  22  -6  -4  147.59   13.70
 -23   5   4  234.38   22.20
 -23   5   4  246.88   18.90
 -23   5   4  217.68   21.90
  23  -5  -4  262.57   17.90
 -24   4   4   10.00    7.10
 -24   4   4   12.10    6.40
 -24   4   4   14.80    5.10
 -25   3   4  314.47   23.80
 -25   3   4  335.27   25.30
 -25   3   4  318.47   27.30
  25  -3  -4  354.56   26.10
 -26   2   4   45.20    7.60
 -26   2   4   63.19    7.90
  26  -2  -4   36.90    7.90
 -27   1   4    2.40    4.60
 -27   1   4   -4.00    4.40
  27  -1  -4    3.40    5.40
 -28   0   4  509.95   33.90
  28   0  -4  467.45   36.40
 -29  -1   4   15.80    5.40
  29   1  -4    8.00    6.60
 -30  -2   4   29.30    7.30
  30   2  -4    5.90    8.00
 -31  -3   4   45.40   10.40
  31   3  -4   43.10   12.80
 -21   7   3   35.50   12.90
  21  -7  -3   38.10    6.60
 -22   6   3    4.70    6.80
 -22   6   3    4.30    9.10
  22  -6  -3    4.20    3.60
 -23   5   3  212.58   19.90
 -23   5   3  183.98   19.90
  23  -5  -3  203.98   15.60
 -24   4   3   99.99   14.00
 -24   4   3  139.09   12.20
  24  -4  -3  132.19   13.20
 -25   3   3  643.84   48.90
 -25   3   3  751.22   47.90
  25  -3  -3  790.12   50.09
 -26   2   3  272.47   19.40
 -26   2   3  231.68   19.70
  26  -2  -3  247.78   20.90
 -27   1   3  256.47   18.60
 -27   1   3  207.58   18.00
  27  -1  -3  272.17   21.70
 -28   0   3    1.30    5.30
  28   0  -3    9.90    5.70
 -29  -1   3   31.00    7.00
  29   1  -3   11.90    7.90
 -30  -2   3   69.09   10.50
  30   2  -3   62.39   12.10
 -31  -3   3  213.38   19.20
  31   3  -3  197.88   21.40
 -20   8   2  384.26   36.90
 -21   7   2  292.37   27.50
  21  -7  -2  237.08   19.40
 -22   6   2  577.14   46.50
 -22   6   2  661.23   45.00
  22  -6  -2  657.53   42.10
 -23   5   2   -0.60    7.10
  23  -5  -2    0.50    4.70
 -24   4   2    8.50    6.30
 -24   4   2    6.90    4.30
  24  -4  -2   -5.40    4.60
 -25   3   2  149.19   15.80
 -25   3   2  156.58   14.00
  25  -3  -2  189.78   16.00
 -26   2   2 1729.93  115.09
 -26   2   2 1855.21  114.79
  26  -2  -2 1864.91  116.89
 -27   1   2   28.70    6.30
 -27   1   2   13.40    5.20
  27  -1  -2   10.60    6.20
  28   0  -2  387.76   30.10
 -29  -1   2    2.70    5.10
  29   1  -2   -1.00    6.50
 -30  -2   2  259.07   20.90
  30   2  -2  243.48   24.60
 -31  -3   2   23.20    7.00
 -21   7   1  600.34   45.50
  21  -7  -1  553.04   38.70
 -22   6   1   31.40    8.30
 -22   6   1   26.10    9.90
  22  -6  -1   39.40    6.60
  22  -6  -1   43.20    6.70
 -23   5   1   -1.70    7.40
  23  -5  -1   16.70    5.30
  23  -5  -1    6.10    4.10
 -24   4   1  132.89   13.80
 -24   4   1  135.29   15.40
  24  -4  -1  160.08   14.30
 -25   3   1   16.70    5.40
 -25   3   1    5.10    5.70
  25  -3  -1   15.10    5.50
 -26   2   1  659.53   44.20
 -26   2   1  627.04   44.60
  26  -2  -1  710.43   46.30
 -27   1   1  122.29   13.10
 -27   1   1  114.69   11.50
  27  -1  -1  127.29   13.90
 -28   0   1    7.20    5.10
  28   0  -1   -6.40    5.10
 -29  -1   1    8.40    5.70
  29   1  -1   10.90    8.20
 -30  -2   1   91.39   12.10
  30   2  -1   61.09   11.60
 -31  -3   1  357.86   26.90
  31   3  -1  331.77   30.80
 -21   7   0   37.90   12.70
  21  -7   0   26.90    5.90
 -22   6   0  201.98   22.50
  22  -6   0  226.98   17.50
  22  -6   0  196.78   16.80
 -23   5   0  164.48   17.80
  23  -5   0  167.58   14.60
  23  -5   0  147.99   13.60
 -24   4   0   19.90    7.90
 -24   4   0   18.10    6.00
  24  -4   0   28.20    5.90
 -25   3   0  110.59   12.90
 -25   3   0  137.79   18.30
  25  -3   0  108.49   12.00
 -26   2   0  213.48   19.40
  26  -2   0  273.97   20.50
 -27   1   0    1.50    4.20
 -27   1   0    2.10    4.40
  27  -1   0   -4.40    5.60
 -28   0   0   79.29   10.50
  28   0   0  103.69   13.40
 -29  -1   0   10.20    5.80
  29   1   0  -10.30    6.40
 -30  -2   0   79.19   11.50
  30   2   0   62.49   13.10
 -21   7  -1 1097.19   73.29
  21  -7   1  985.20   67.39
 -22   6  -1   14.90   10.20
  22  -6   1   13.70    5.70
  22  -6   1   17.50    5.60
 -23   5  -1   33.10    9.70
  23  -5   1   34.30    6.60
  23  -5   1   22.80    5.60
 -24   4  -1   14.20    4.80
 -24   4  -1   11.00    6.90
  24  -4   1    5.20    5.00
 -25   3  -1  533.65   36.90
 -25   3  -1  477.15   34.90
  25  -3   1  530.35   36.50
 -26   2  -1  244.58   19.30
 -26   2  -1  233.38   20.00
  26  -2   1  280.27   21.00
 -27   1  -1  228.98   17.40
 -27   1  -1  194.98   16.40
  27  -1   1  207.68   20.20
 -28   0  -1    2.30    4.90
  28   0   1   -1.10    5.50
 -29  -1  -1 1122.69   69.29
  29   1   1  995.40   71.49
 -30  -2  -1   89.79   11.90
  30   2   1   51.29   13.20
 -21   7  -2   92.19   18.80
  21  -7   2   49.99    8.20
 -22   6  -2    7.40   10.60
  22  -6   2    9.80    6.20
  22  -6   2   11.20    5.20
 -23   5  -2  221.18   21.60
  23  -5   2  195.78   16.60
  23  -5   2  203.48   17.20
 -24   4  -2  131.79   16.90
 -24   4  -2  147.19   13.20
  24  -4   2  148.89   14.00
 -25   3  -2  291.17   21.70
 -25   3  -2  282.57   23.30
  25  -3   2  300.67   22.90
 -26   2  -2  340.47   27.10
 -26   2  -2  385.66   26.90
  26  -2   2  398.86   28.60
 -27   1  -2  139.19   13.50
 -27   1  -2  164.88   14.00
  27  -1   2  146.79   15.40
 -28   0  -2    8.60    5.50
  28   0   2    2.90    5.80
 -29  -1  -2   41.70    8.00
  29   1   2   27.80   10.30
 -30  -2  -2 1180.98   72.99
  30   2   2 1048.30   75.59
 -21   7  -3  463.65   39.00
  21  -7   3  463.15   32.70
 -22   6  -3   -3.60   10.60
  22  -6   3    0.90    6.50
  22  -6   3    1.70    5.10
 -23   5  -3  251.17   25.50
  23  -5   3  309.17   22.60
  23  -5   3  295.47   21.80
 -24   4  -3  306.27   24.90
 -24   4  -3  261.67   21.70
  24  -4   3  314.57   23.00
 -25   3  -3   10.00    5.50
 -25   3  -3    3.50    6.50
  25  -3   3    6.90    4.60
 -26   2  -3   30.40    7.00
 -26   2  -3   28.90    6.70
  26  -2   3   29.10    7.70
 -27   1  -3   84.89   10.50
 -27   1  -3   66.19   10.40
  27  -1   3   96.69   12.20
 -28   0  -3    0.40    5.30
  28   0   3    5.00    6.80
 -29  -1  -3   29.90    8.90
  29   1   3   24.30   10.60
 -30  -2  -3  174.78   17.60
  30   2   3  161.68   21.30
 -22   6  -4  181.18   21.30
  22  -6   4  138.19   13.90
  22  -6   4  124.89   13.70
 -23   5  -4  153.68   15.60
 -23   5  -4  157.28   19.70
  23  -5   4  182.08   15.30
  23  -5   4  166.48   15.50
 -24   4  -4  664.13   45.20
 -24   4  -4  667.03   47.90
  24  -4   4  686.83   46.10
 -25   3  -4  337.07   27.00
 -25   3  -4  367.56   25.70
 -26   2  -4   42.70    8.20
 -26   2  -4   47.20    7.80
  26  -2   4   43.70    8.60
 -27   1  -4   33.80    7.50
 -27   1  -4   34.00    6.90
  27  -1   4   44.20    8.60
 -28   0  -4  385.16   27.00
  28   0   4  333.97   29.10
 -29  -1  -4   33.00    7.70
  29   1   4   39.30    9.60
 -22   6  -5  213.98   26.70
  22  -6   5  172.78   16.80
  22  -6   5  174.48   16.40
 -23   5  -5   24.40   10.20
 -23   5  -5   39.90    9.20
  23  -5   5   36.80    7.10
  23  -5   5   52.99    9.20
 -24   4  -5  361.66   31.30
 -24   4  -5  378.36   27.40
 -25   3  -5   86.39   13.40
 -25   3  -5   58.79    9.50
  25  -3   5   79.69   11.30
 -26   2  -5  347.77   28.30
 -26   2  -5  375.96   27.20
  26  -2   5  406.36   29.50
 -27   1  -5   19.60    6.60
 -27   1  -5   21.50    9.20
  27  -1   5   29.20    8.30
 -28   0  -5    2.40    7.20
  28   0   5   -0.50    8.50
 -23   5  -6   36.80   11.30
 -23   5  -6   38.30    7.30
  23  -5   6   34.10    7.40
 -24   4  -6   -5.40    8.50
 -24   4  -6    3.80    6.10
  24  -4   6   14.10    6.00
 -25   3  -6   84.39   11.10
 -25   3  -6   83.19   12.50
  25  -3   6   82.89   12.00
 -26   2  -6   66.39   10.80
 -26   2  -6  101.39   12.70
  26  -2   6   75.19   11.40
 -27   1  -6    6.70    6.20
  27  -1   6    3.90    8.60
 -28   0  -6   70.29    9.60
  28   0   6   45.10   10.20
 -25   3  -7   96.69   11.10
 -25   3  -7   93.39   14.30
  25  -3   7   69.09   10.80
 -26   2  -7  150.88   18.20
 -26   2  -7  143.09   14.50
  26  -2   7  171.98   18.50
  27  -3 -10   72.99   10.30
 -28   2  10  100.29   18.60
  28  -2 -10   99.49   11.30
 -26   4   9  563.24   41.70
 -26   4   9  563.44   44.30
 -26   4   9  490.85   40.70
  26  -4  -9  581.14   38.70
 -27   3   9  555.74   37.90
 -27   3   9  571.44   44.40
 -28   2   9  235.78   25.50
 -28   2   9  193.98   20.10
 -28   2   9  218.38   17.60
  28  -2  -9  231.78   17.50
 -29   1   9  119.59   12.90
 -29   1   9  144.59   20.60
 -25   5   8  115.29   18.70
 -25   5   8  133.49   20.40
 -25   5   8   96.49   12.70
 -26   4   8   -1.20    7.90
 -26   4   8    6.50    6.00
 -26   4   8   18.90   10.00
 -27   3   8   49.99   10.60
 -27   3   8   81.89    9.50
 -27   3   8   52.19   12.80
 -28   2   8 1237.58   82.49
 -28   2   8 1231.18   76.69
 -28   2   8 1121.59   78.09
 -29   1   8   92.59   11.50
 -29   1   8  126.19   17.10
 -30   0   8    0.00    8.80
 -30   0   8   10.90    8.00
 -24   6   7   22.20    7.10
 -24   6   7    6.40   13.40
 -25   5   7    6.30   10.10
 -25   5   7   25.20   10.40
 -25   5   7   27.10    6.50
 -26   4   7  414.46   34.10
 -26   4   7  380.66   34.20
 -26   4   7  382.96   28.00
 -27   3   7  251.97   19.60
 -27   3   7  243.08   24.00
 -28   2   7  124.09   12.90
 -28   2   7  109.39   14.50
 -28   2   7  143.59   18.60
 -29   1   7   -2.70    8.70
 -29   1   7    6.20    5.20
 -30   0   7    7.20   12.10
 -31  -1   7   25.70    7.80
 -31  -1   7   20.20   10.00
 -24   6   6  161.98   25.10
 -24   6   6  140.49   15.40
 -24   6   6  203.38   23.00
  24  -6  -6  151.48   13.10
 -25   5   6  228.58   22.60
 -25   5   6  210.58   22.90
 -25   5   6  215.28   19.20
 -26   4   6  203.38   16.50
 -26   4   6  188.68   21.00
 -26   4   6  192.68   19.70
 -27   3   6   29.50    6.30
 -27   3   6   10.00    6.90
 -28   2   6   49.60   11.70
 -28   2   6   59.29    9.30
 -28   2   6   71.69    8.90
 -29   1   6  127.99   18.60
 -29   1   6  120.69   13.00
 -30   0   6   14.80    5.70
 -30   0   6   15.70   11.30
 -31  -1   6   51.99    9.10
 -31  -1   6   77.39   14.70
 -24   6   5    9.20    9.70
 -24   6   5   28.40   11.40
 -24   6   5   13.50    6.10
  24  -6  -5    5.00    4.30
 -25   5   5    9.10    8.10
 -25   5   5  -10.10    7.30
 -26   4   5  130.79   15.40
 -26   4   5  116.99   12.60
 -26   4   5  118.89   16.80
 -27   3   5  454.45   36.30
 -27   3   5  456.35   33.50
 -27   3   5  453.05   31.80
 -28   2   5  103.89   15.40
 -28   2   5   78.19   12.50
 -28   2   5   81.79   10.90
  28  -2  -5   94.49   13.10
 -29   1   5  163.98   20.00
  29  -1  -5  196.68   19.40
 -30   0   5    2.30    5.30
  30   0  -5    7.70    7.20
 -31  -1   5 1102.09   69.69
  31   1  -5 1022.10   73.89
 -23   7   4   30.50   14.80
  23  -7  -4   38.70    7.00
 -24   6   4    1.70    8.90
 -24   6   4   -1.90    9.80
  24  -6  -4   10.40    4.90
 -25   5   4   48.30    7.30
 -25   5   4   33.00   10.00
 -26   4   4  176.78   20.60
 -26   4   4  190.88   19.50
 -27   3   4  456.45   33.70
 -27   3   4  488.45   37.90
 -27   3   4  452.95   35.10
  27  -3  -4  560.14   36.60
 -28   2   4    9.40    6.30
 -28   2   4    5.90    5.90
  28  -2  -4    2.10    5.70
 -29   1   4   26.00    7.10
  29  -1  -4   11.30    6.60
 -30   0   4  242.28   20.10
  30   0  -4  247.88   23.20
 -31  -1   4   -1.70    6.00
  31   1  -4   -4.60   10.20
 -32  -2   4  599.74   40.50
  32   2  -4  515.85   44.10
 -23   7   3  182.68   28.20
  23  -7  -3  187.48   16.50
 -24   6   3  623.04   45.90
 -24   6   3  613.34   47.70
  24  -6  -3  647.94   42.00
 -25   5   3  312.07   26.30
 -25   5   3  268.17   28.70
 -25   5   3  279.07   22.00
 -26   4   3   58.09   10.70
 -26   4   3   71.49    9.30
  26  -4  -3   57.89    9.20
 -27   3   3    4.10    6.20
  27  -3  -3    7.20    5.70
 -28   2   3  149.09   17.00
 -28   2   3  176.08   15.80
 -29   1   3   16.90    5.80
  29  -1  -3   12.50    6.90
 -30   0   3    3.20    6.20
  30   0  -3   13.90    7.40
 -31  -1   3   67.89   10.10
  31   1  -3   83.59   15.10
 -32  -2   3   50.49    9.60
  32   2  -3   48.40   11.50
 -23   7   2  353.56   34.20
  23  -7  -2  282.87   23.60
 -24   6   2   80.79   15.20
 -24   6   2   81.09   13.30
  24  -6  -2   72.09    9.80
 -25   5   2   75.69   10.40
 -25   5   2   81.19   13.40
  25  -5  -2   88.49   11.60
  25  -5  -2   83.79    9.30
 -26   4   2  645.44   47.40
 -26   4   2  697.43   49.99
  26  -4  -2  813.42   49.90
 -27   3   2  149.79   13.70
 -27   3   2  128.59   15.30
  27  -3  -2  167.68   15.40
 -28   2   2   14.40    5.40
 -28   2   2   -4.20    5.70
 -29   1   2    7.80    5.90
  29  -1  -2   -2.70    5.80
 -30   0   2 1163.88   73.09
  30   0  -2 1078.39   75.69
 -31  -1   2   -3.50    6.20
  31   1  -2   10.90    9.70
 -32  -2   2   13.90    7.80
  32   2  -2   22.20    9.40
 -23   7   1   15.40   15.30
  23  -7  -1   13.50    5.80
 -24   6   1  644.84   48.90
 -24   6   1  621.94   50.29
  24  -6  -1  758.82   46.60
  24  -6  -1  671.13   45.10
 -25   5   1  217.68   23.10
 -25   5   1  211.28   18.80
  25  -5  -1  248.68   19.80
  25  -5  -1  239.28   17.90
 -26   4   1  185.38   19.80
 -26   4   1  193.58   16.90
  26  -4  -1  237.28   18.90
 -27   3   1   -3.70    5.90
 -27   3   1    5.10    5.00
  27  -3  -1   -9.80    4.80
 -28   2   1  296.57   22.60
 -28   2   1  289.97   22.90
  28  -2  -1  299.77   26.40
 -29   1   1    3.40    6.00
  29  -1  -1   14.30    6.30
 -30   0   1   -5.50    5.60
  30   0  -1   13.30    7.60
 -31  -1   1  608.84   42.00
  31   1  -1  595.94   46.40
 -32  -2   1   77.39   11.30
  32   2  -1   60.99   13.90
 -23   7   0   42.40   15.30
  23  -7   0   40.40    7.40
 -24   6   0   95.69   15.90
  24  -6   0  101.29   12.10
  24  -6   0  125.39   13.00
 -25   5   0   -4.00    5.50
  25  -5   0   15.20    6.00
  25  -5   0   13.00    4.90
 -26   4   0  161.28   15.50
 -26   4   0  181.28   19.00
  26  -4   0  191.88   16.80
 -27   3   0  148.09   14.10
 -27   3   0  162.08   16.20
  27  -3   0  141.49   15.40
 -28   2   0   94.99   11.40
 -28   2   0   65.99   11.20
  28  -2   0   90.19   11.40
 -29   1   0    2.00    5.60
  29  -1   0    3.80    6.10
 -30   0   0  425.26   30.50
  30   0   0  404.56   32.00
 -31  -1   0   16.50    8.50
  31   1   0   18.50   10.70
 -24   6  -1  250.87   26.40
  24  -6   1  272.57   21.40
  24  -6   1  254.47   21.40
 -25   5  -1  278.97   24.40
 -25   5  -1  334.07   30.80
  25  -5   1  374.56   25.70
  25  -5   1  323.97   24.10
 -26   4  -1  139.19   16.90
 -26   4  -1  167.18   14.70
  26  -4   1  148.89   15.10
 -27   3  -1   46.80    9.50
 -27   3  -1   48.20    7.90
  27  -3   1   56.59    9.60
 -28   2  -1   -1.50    4.90
 -28   2  -1   13.70    6.10
  28  -2   1   -3.80    5.00
 -29   1  -1 1042.10   68.29
  29  -1   1 1052.69   70.59
 -30   0  -1   -1.50    6.00
  30   0   1    0.10    7.70
 -31  -1  -1  276.37   23.30
  31   1   1  318.67   26.70
 -24   6  -2  247.08   24.20
  24  -6   2  179.28   17.30
  24  -6   2  206.48   18.20
 -25   5  -2  498.75   37.60
 -25   5  -2  536.35   41.20
  25  -5   2  590.64   38.40
  25  -5   2  522.85   37.00
 -26   4  -2  120.99   13.30
 -26   4  -2  107.59   16.50
  26  -4   2  156.18   14.60
 -27   3  -2   10.20    5.20
 -27   3  -2   14.80    7.30
  27  -3   2   15.30    6.70
 -28   2  -2  227.38   18.00
 -28   2  -2  203.58   18.50
  28  -2   2  219.68   19.90
 -29   1  -2   40.60    8.40
  29  -1   2   27.80    8.20
 -30   0  -2  361.36   26.30
  30   0   2  295.07   28.60
 -31  -1  -2  270.77   21.10
  31   1   2  214.48   22.40
 -24   6  -3   35.90   12.70
  24  -6   3   24.90    7.30
  24  -6   3   41.20    8.10
 -25   5  -3  172.58   22.30
 -25   5  -3  210.28   17.70
  25  -5   3  187.38   17.00
 -26   4  -3  124.49   17.80
 -26   4  -3  139.09   14.60
 -27   3  -3   76.29    9.50
 -27   3  -3   59.89   10.60
  27  -3   3   71.09   10.30
 -28   2  -3   93.69   11.40
 -28   2  -3   52.19    9.40
  28  -2   3   57.39   10.20
 -29   1  -3   26.50    8.20
  29  -1   3   25.90    8.80
 -30   0  -3   -7.20    5.60
  30   0   3    2.40    7.70
 -25   5  -4  490.65   36.30
 -25   5  -4  549.15   41.30
  25  -5   4  526.15   37.80
 -26   4  -4   42.00    7.60
 -26   4  -4   58.69   12.40
  26  -4   4   50.29    8.50
 -27   3  -4   20.70    7.70
 -27   3  -4   23.60    8.70
  27  -3   4   30.60    8.00
 -28   2  -4  749.82   54.19
 -28   2  -4  845.52   54.19
  28  -2   4  835.22   55.99
 -29   1  -4   41.20    8.00
  29  -1   4   26.80   10.30
 -30   0  -4    1.70    7.30
  30   0   4    3.40    8.00
 -26   4  -5   55.99   12.20
  26  -4   5   59.79    9.60
 -27   3  -5   39.80    7.30
 -27   3  -5   38.90   10.00
  27  -3   5   20.20    7.70
 -28   2  -5   84.29   13.00
 -28   2  -5  105.09   12.40
  28  -2   5  108.59   16.60
 -29   3   8    3.70    8.70
 -29   3   8   -0.90    6.70
 -29   3   8   -6.20   10.80
 -30   2   8  119.19   20.10
 -28   4   7 1098.79   68.49
 -28   4   7  862.51   62.49
 -28   4   7  909.61   64.89
 -29   3   7   40.70   10.50
 -29   3   7   60.19   12.80
 -30   2   7  168.28   16.40
 -30   2   7  145.59   20.40
 -31   1   7    4.50   10.40
 -31   1   7    8.70    6.70
 -27   5   6  265.97   26.20
 -27   5   6  248.98   21.40
 -27   5   6  283.97   28.60
 -28   4   6   16.20    9.70
 -28   4   6   22.50    6.90
 -29   3   6   68.79   12.20
 -29   3   6   91.89   15.60
 -29   3   6   86.99   11.70
 -30   2   6  106.29   13.40
 -30   2   6  113.09   17.00
 -31   1   6   40.00    8.80
 -31   1   6   44.30   14.40
 -32   0   6  192.18   23.80
 -32   0   6  190.18   18.00
 -27   5   5  199.78   22.80
 -27   5   5  189.58   17.10
 -27   5   5  167.18   22.20
 -28   4   5   63.29   13.10
 -28   4   5   73.39   13.10
 -28   4   5   48.90    8.70
 -29   3   5   16.80   10.00
 -29   3   5   25.40    7.30
 -29   3   5   23.20    8.80
 -30   2   5   53.79    9.10
 -30   2   5   64.39   14.20
  30  -2  -5   77.89   12.60
 -31   1   5 1035.40   67.99
 -31   1   5 1045.20   73.59
  31  -1  -5 1033.40   71.49
 -32   0   5    3.00    9.60
 -32   0   5    4.20    6.10
  32   0  -5   18.90    9.10
 -26   6   4  101.29   18.30
 -26   6   4  122.09   15.20
  26  -6  -4  139.89   12.70
 -27   5   4  791.62   54.49
 -27   5   4  835.32   58.49
 -27   5   4  844.32   58.99
 -28   4   4  222.18   19.50
 -28   4   4  246.58   22.70
 -28   4   4  239.68   34.40
 -29   3   4  195.28   19.30
 -29   3   4  164.78   21.90
 -29   3   4  219.28   18.30
  29  -3  -4  222.88   20.00
 -30   2   4   25.80    7.70
  30  -2  -4    5.90    6.90
 -31   1   4    2.90    7.10
  31  -1  -4   12.60    9.10
 -32   0   4 1586.24   95.89
  32   0  -4 1379.96   98.39
 -26   6   3  293.37   24.20
 -26   6   3  302.47   29.90
  26  -6  -3  285.17   22.20
 -27   5   3  434.86   34.00
 -27   5   3  356.46   32.40
 -27   5   3  395.26   28.90
 -28   4   3    3.10    8.10
 -28   4   3    8.10    6.10
  28  -4  -3   14.00    7.10
 -29   3   3   10.80    6.20
 -29   3   3   -0.50    7.40
  29  -3  -3   -9.20    5.90
 -30   2   3   71.39   10.30
  30  -2  -3   72.69   12.00
 -31   1   3   64.99    9.90
  31  -1  -3   38.10   10.40
 -32   0   3   -1.40    6.80
  32   0  -3   -1.30    8.10
 -26   6   2  113.09   17.70
 -26   6   2  116.29   15.40
  26  -6  -2  100.99   13.20
 -27   5   2  245.48   20.70
 -27   5   2  215.78   23.40
  27  -5  -2  265.27   21.30
 -28   4   2   -6.30    5.80
 -28   4   2    6.00    7.80
  28  -4  -2   11.30    6.90
 -29   3   2   -4.90    6.00
 -29   3   2    7.10    7.40
  29  -3  -2   -4.30    6.40
 -30   2   2  219.08   19.30
  30  -2  -2  233.98   21.20
 -31   1   2   14.70    6.80
  31  -1  -2    3.80    8.20
 -32   0   2  727.33   47.80
  32   0  -2  642.64   49.90
 -26   6   1  443.86   35.50
 -26   6   1  368.06   29.70
  26  -6  -1  410.66   28.70
 -27   5   1  164.18   17.50
 -27   5   1  161.68   20.30
  27  -5  -1  217.78   18.10
 -28   4   1  274.47   21.90
 -28   4   1  257.07   23.80
  28  -4  -1  291.17   26.30
 -29   3   1   18.50    6.10
 -29   3   1    9.40    7.70
  29  -3  -1   10.60    6.80
 -30   2   1   72.79   10.50
  30  -2  -1   98.39   13.30
 -31   1   1  564.04   39.00
  31  -1  -1  542.55   41.40
 -32   0   1   13.20    7.10
  32   0  -1   -7.80    7.70
 -26   6   0  603.14   47.80
  26  -6   0  625.24   41.70
 -27   5   0  137.19   18.90
 -27   5   0  125.49   15.80
  27  -5   0  151.58   15.30
 -28   4   0    4.70    8.60
 -28   4   0    5.00    5.80
  28  -4   0   22.80   11.10
 -29   3   0  130.69   13.90
 -29   3   0  131.79   15.80
  29  -3   0  128.09   14.90
 -30   2   0   51.69    9.20
  30  -2   0   73.69   11.30
 -31   1   0   20.40    8.60
  31  -1   0   33.80    8.60
 -32   0   0 1006.30   66.69
  32   0   0 1017.50   69.49
 -27   5  -1   39.50    8.10
 -27   5  -1   54.19   12.50
  27  -5   1   71.99   10.40
 -28   4  -1  148.39   15.80
 -28   4  -1  145.89   18.90
  28  -4   1  148.09   15.60
 -29   3  -1  430.36   33.60
 -29   3  -1  455.85   33.10
  29  -3   1  469.95   34.20
 -30   2  -1   66.29   10.90
  30  -2   1   52.19    9.50
 -31   1  -1  279.07   23.30
  31  -1   1  315.47   27.90
 -32   0  -1    6.20    8.40
  32   0   1    1.80    8.90
 -27   5  -2  193.28   23.40
 -27   5  -2  162.28   17.50
 -28   4  -2   25.20   11.70
 -28   4  -2   35.80    7.60
  28  -4   2   56.39    9.20
 -29   3  -2   87.89   11.70
 -29   3  -2   83.99   12.60
  29  -3   2  106.99   14.10
 -30   2  -2 1000.50   66.69
  30  -2   2 1040.80   69.29
 -31   1  -2  208.78   19.50
  31  -1   2  242.68   21.50
 -28   4  -3  148.19   18.50
 -28   4  -3  148.99   16.50
  28  -4   3  167.68   16.50
 -29   3  -3   91.69   15.20
 -29   3  -3  110.99   13.10
  29  -3   3  123.69   15.30
 -30   2  -3  146.59   15.80
  30  -2   3  143.39   20.10
 -30   4   4   11.10   11.80
 -31   3   4   36.50    9.00
 -31   3   4   29.30   12.40
  31  -3  -4   44.90   10.40
 -32   2   4  586.74   39.70
  32  -2  -4  519.75   43.30
 -30   4   3  274.77   26.60
 -30   4   3  266.87   24.50
 -30   4   3  312.77   29.50
  30  -4  -3  289.57   25.10
 -31   3   3  173.18   19.70
  31  -3  -3  211.38   20.20
 -32   2   3   48.00   11.50
  32  -2  -3   50.59   13.00
 -30   4   2  460.75   34.20
 -30   4   2  433.66   36.80
  30  -4  -2  526.75   36.60
 -31   3   2   12.80    8.10
  31  -3  -2   17.60    8.30
 -32   2   2   15.30    7.20
  32  -2  -2    4.10   10.50
 -30   4   1   34.50   11.40
  30  -4  -1   41.10    9.80
 -31   3   1  319.57   25.00
  31  -3  -1  323.17   27.40
 -32   2   1   71.19   10.30
  32  -2  -1   90.39   14.80
   0   0   0    0.00    0.00

_computing_structure_solution     'SHELXT 2014/5 (Sheldrick, 2014)'
;
_shelx_hkl_checksum              29664
_olex2_submission_special_instructions 'No special instructions were received'
loop_
_space_group_symop_operation_xyz
'x, y, z'
'-x, y, -z+1/2'
'x+1/2, y+1/2, z'
'-x+1/2, y+1/2, -z+1/2'
'-x, -y, -z'
'x, -y, z-1/2'
'-x+1/2, -y+1/2, -z'
'x+1/2, -y+1/2, z-1/2'
loop_
_atom_site_label
_atom_site_type_symbol
_atom_site_fract_x
_atom_site_fract_y
_atom_site_fract_z
_atom_site_U_iso_or_equiv
_atom_site_adp_type
_atom_site_occupancy
_atom_site_site_symmetry_order
_atom_site_calc_flag
_atom_site_refinement_flags_posn
_atom_site_refinement_flags_adp
_atom_site_refinement_flags_occupancy
_atom_site_disorder_assembly
_atom_site_disorder_group
In01 In 0.500000 0.21394(4) 0.750000 0.00552(7) Uani 1 2 d S T P . .
In02 In 0.750000 1.250000 0.500000 0.00545(7) Uani 1 2 d S T P . .
Rb03 Rb 0.65442(2) 0.68287(3) 0.64586(2) 0.00862(7) Uani 1 1 d . . . . .
Rb04 Rb 0.33837(2) 0.18647(3) 0.69991(2) 0.00863(7) Uani 1 1 d . . . . .
Rb05 Rb 0.55083(2) -0.24835(4) 0.93419(3) 0.01912(9) Uani 1 1 d . . . . .
Cl06 Cl 0.67987(3) 1.03944(9) 0.53494(6) 0.01151(15) Uani 1 1 d . . . . .
Cl07 Cl 0.75002(3) 1.11552(9) 0.31486(5) 0.00812(14) Uani 1 1 d . . . . .
Cl08 Cl 0.67328(3) 1.44532(9) 0.42120(6) 0.01072(15) Uani 1 1 d . . . . .
Cl09 Cl 0.44304(3) 0.21815(10) 0.56711(6) 0.01320(16) Uani 1 1 d . . . . .
Cl0A Cl 0.55731(3) 0.44291(9) 0.68205(6) 0.01352(16) Uani 1 1 d . . . . .
Cl0B Cl 0.44214(3) -0.02638(9) 0.80685(6) 0.01270(15) Uani 1 1 d . . . . .
loop_
_atom_site_aniso_label
_atom_site_aniso_U_11
_atom_site_aniso_U_22
_atom_site_aniso_U_33
_atom_site_aniso_U_23
_atom_site_aniso_U_13
_atom_site_aniso_U_12
In01 0.00541(15) 0.00597(14) 0.00520(15) 0.000 0.00097(10) 0.000
In02 0.00583(15) 0.00469(15) 0.00590(15) 0.00045(9) 0.00115(11) -0.00066(10)
Rb03 0.00893(14) 0.00673(15) 0.01014(15) 0.00076(10) 0.00140(11) -0.00086(10)
Rb04 0.00752(14) 0.00708(15) 0.01149(15) -0.00031(10) 0.00215(11) -0.00013(10)
Rb05 0.01343(18) 0.02606(19) 0.01918(19) 0.01115(12) 0.00654(13) 0.00677(13)
Cl06 0.0140(4) 0.0104(4) 0.0106(4) 0.0004(3) 0.0034(3) -0.0064(3)
Cl07 0.0094(3) 0.0081(3) 0.0071(3) -0.0008(2) 0.0019(3) -0.0006(2)
Cl08 0.0107(4) 0.0100(3) 0.0110(4) 0.0019(3) 0.0004(3) 0.0038(3)
Cl09 0.0090(4) 0.0238(4) 0.0061(4) 0.0006(3) -0.0006(3) -0.0020(3)
Cl0A 0.0114(4) 0.0123(4) 0.0166(4) 0.0048(3) 0.0018(3) -0.0047(3)
Cl0B 0.0093(4) 0.0109(4) 0.0183(4) 0.0066(3) 0.0037(3) -0.0006(3)
loop_
_atom_type_symbol
_atom_type_description
_atom_type_scat_dispersion_real
_atom_type_scat_dispersion_imag
_atom_type_scat_source
Cl Cl 0.1484 0.1585 'International Tables Vol C Tables 4.2.6.8 and 6.1.1.4'
In In -0.7276 1.3100 'International Tables Vol C Tables 4.2.6.8 and 6.1.1.4'
Rb Rb -0.9393 2.9676 'International Tables Vol C Tables 4.2.6.8 and 6.1.1.4'
loop_
_geom_angle_atom_site_label_1
_geom_angle_atom_site_label_2
_geom_angle_atom_site_label_3
_geom_angle
_geom_angle_site_symmetry_1
_geom_angle_site_symmetry_3
_geom_angle_publ_flag
Rb04 In01 Rb04 173.963(11) 2_656 . ?
Rb04 In01 Rb05 70.791(6) . 2_656 ?
Rb04 In01 Rb05 103.999(8) 2_656 2_656 ?
Rb04 In01 Rb05 72.367(7) . 5_657 ?
Rb04 In01 Rb05 72.367(7) 2_656 6 ?
Rb04 In01 Rb05 70.790(6) 2_656 . ?
Rb04 In01 Rb05 108.022(7) . 6 ?
Rb04 In01 Rb05 104.000(8) . . ?
Rb04 In01 Rb05 108.022(6) 2_656 5_657 ?
Rb05 In01 Rb05 172.963(11) 5_657 6 ?
Rb05 In01 Rb05 68.400(11) 2_656 . ?
Rb05 In01 Rb05 115.013(7) . 6 ?
Rb05 In01 Rb05 71.259(8) . 5_657 ?
Rb05 In01 Rb05 71.258(8) 2_656 6 ?
Rb05 In01 Rb05 115.013(7) 2_656 5_657 ?
Cl09 In01 Rb04 124.083(17) . 2_656 ?
Cl09 In01 Rb04 56.012(17) . . ?
Cl09 In01 Rb04 56.012(17) 2_656 2_656 ?
Cl09 In01 Rb04 124.084(17) 2_656 . ?
Cl09 In01 Rb05 52.011(17) 2_656 5_657 ?
Cl09 In01 Rb05 127.872(17) 2_656 6 ?
Cl09 In01 Rb05 124.88(2) . . ?
Cl09 In01 Rb05 52.010(18) . 6 ?
Cl09 In01 Rb05 56.625(19) 2_656 . ?
Cl09 In01 Rb05 56.626(19) . 2_656 ?
Cl09 In01 Rb05 127.872(18) . 5_657 ?
Cl09 In01 Rb05 124.88(2) 2_656 2_656 ?
Cl09 In01 Cl09 178.50(4) . 2_656 ?
Cl09 In01 Cl0A 91.10(2) . 2_656 ?
Cl09 In01 Cl0A 91.10(2) 2_656 . ?
Cl09 In01 Cl0A 87.84(2) 2_656 2_656 ?
Cl09 In01 Cl0A 87.84(2) . . ?
Cl09 In01 Cl0B 89.48(2) . . ?
Cl09 In01 Cl0B 89.48(2) 2_656 2_656 ?
Cl09 In01 Cl0B 91.62(2) 2_656 . ?
Cl09 In01 Cl0B 91.62(2) . 2_656 ?
Cl0A In01 Rb04 57.635(17) . 2_656 ?
Cl0A In01 Rb04 127.537(18) . . ?
Cl0A In01 Rb04 57.634(18) 2_656 . ?
Cl0A In01 Rb04 127.538(19) 2_656 2_656 ?
Cl0A In01 Rb05 128.419(18) 2_656 2_656 ?
Cl0A In01 Rb05 122.253(19) . 5_657 ?
Cl0A In01 Rb05 122.709(18) . 2_656 ?
Cl0A In01 Rb05 51.694(18) 2_656 5_657 ?
Cl0A In01 Rb05 128.419(18) . . ?
Cl0A In01 Rb05 122.253(19) 2_656 6 ?
Cl0A In01 Rb05 51.693(18) . 6 ?
Cl0A In01 Rb05 122.709(18) 2_656 . ?
Cl0A In01 Cl0A 90.77(4) . 2_656 ?
Cl0A In01 Cl0B 91.77(2) 2_656 . ?
Cl0A In01 Cl0B 176.34(2) . . ?
Cl0A In01 Cl0B 176.34(2) 2_656 2_656 ?
Cl0A In01 Cl0B 91.77(2) . 2_656 ?
Cl0B In01 Rb04 52.280(17) . . ?
Cl0B In01 Rb04 122.321(18) . 2_656 ?
Cl0B In01 Rb04 122.321(18) 2_656 . ?
Cl0B In01 Rb04 52.280(17) 2_656 2_656 ?
Cl0B In01 Rb05 61.399(18) . 5_657 ?
Cl0B In01 Rb05 51.767(17) . . ?
Cl0B In01 Rb05 61.400(18) 2_656 6 ?
Cl0B In01 Rb05 51.767(18) 2_656 2_656 ?
Cl0B In01 Rb05 53.645(18) 2_656 . ?
Cl0B In01 Rb05 124.653(18) 2_656 5_657 ?
Cl0B In01 Rb05 53.647(18) . 2_656 ?
Cl0B In01 Rb05 124.653(19) . 6 ?
Cl0B In01 Cl0B 85.81(3) . 2_656 ?
Cl06 In02 Cl06 180.0 7_676 . ?
Cl06 In02 Cl07 89.88(2) . . ?
Cl06 In02 Cl07 90.12(2) . 7_676 ?
Cl06 In02 Cl07 90.12(2) 7_676 . ?
Cl06 In02 Cl07 89.88(2) 7_676 7_676 ?
Cl06 In02 Cl08 93.69(2) 7_676 . ?
Cl06 In02 Cl08 86.31(2) 7_676 7_676 ?
Cl06 In02 Cl08 86.31(2) . . ?
Cl06 In02 Cl08 93.69(2) . 7_676 ?
Cl07 In02 Cl07 180.0 . 7_676 ?
Cl08 In02 Cl07 90.60(2) . . ?
Cl08 In02 Cl07 89.40(2) . 7_676 ?
Cl08 In02 Cl07 89.40(2) 7_676 . ?
Cl08 In02 Cl07 90.60(2) 7_676 7_676 ?
Cl08 In02 Cl08 180.0 . 7_676 ?
Rb04 Rb03 Rb04 88.487(7) 2_656 3 ?
Rb04 Rb03 Rb04 129.098(8) 2_656 5_666 ?
Rb04 Rb03 Rb04 102.560(7) 2_666 5_666 ?
Rb04 Rb03 Rb04 87.884(7) 2_666 3 ?
Rb04 Rb03 Rb04 86.319(8) 5_666 3 ?
Rb04 Rb03 Rb04 127.812(11) 2_656 2_666 ?
Cl06 Rb03 Rb04 48.976(13) . 5_666 ?
Cl06 Rb03 Rb04 54.414(14) . 2_666 ?
Cl06 Rb03 Rb04 77.618(15) . 3 ?
Cl06 Rb03 Rb04 165.976(16) . 2_656 ?
Cl06 Rb03 Cl07 118.00(2) . 7_666 ?
Cl06 Rb03 Cl07 71.882(18) . 6_576 ?
Cl06 Rb03 Cl08 131.172(19) . 6_576 ?
Cl06 Rb03 Cl08 92.630(19) . 1_545 ?
Cl06 Rb03 Cl09 68.960(19) . 5_666 ?
Cl06 Rb03 Cl0B 73.109(19) . 2_666 ?
Cl07 Rb03 Rb04 44.769(13) 6_576 3 ?
Cl07 Rb03 Rb04 125.781(15) 7_666 2_666 ?
Cl07 Rb03 Rb04 48.306(13) 7_666 2_656 ?
Cl07 Rb03 Rb04 98.848(14) 7_666 5_666 ?
Cl07 Rb03 Rb04 99.581(14) 6_576 2_656 ?
Cl07 Rb03 Rb04 47.502(13) 6_576 2_666 ?
Cl07 Rb03 Rb04 111.202(14) 6_576 5_666 ?
Cl07 Rb03 Rb04 44.521(13) 7_666 3 ?
Cl07 Rb03 Cl07 78.341(10) 6_576 7_666 ?
Cl07 Rb03 Cl08 63.292(17) 6_576 6_576 ?
Cl07 Rb03 Cl08 125.431(19) 6_576 1_545 ?
Cl07 Rb03 Cl08 71.562(17) 7_666 6_576 ?
Cl07 Rb03 Cl08 63.361(17) 7_666 1_545 ?
Cl07 Rb03 Cl09 138.30(2) 6_576 5_666 ?
Cl07 Rb03 Cl09 133.534(19) 7_666 5_666 ?
Cl07 Rb03 Cl0B 92.729(18) 6_576 2_666 ?
Cl07 Rb03 Cl0B 161.701(19) 7_666 2_666 ?
Cl08 Rb03 Rb04 83.268(14) 1_545 2_656 ?
Cl08 Rb03 Rb04 45.897(13) 1_545 5_666 ?
Cl08 Rb03 Rb04 169.446(15) 6_576 5_666 ?
Cl08 Rb03 Rb04 83.681(13) 6_576 3 ?
Cl08 Rb03 Rb04 146.908(15) 1_545 2_666 ?
Cl08 Rb03 Rb04 81.223(14) 1_545 3 ?
Cl08 Rb03 Rb04 47.399(12) 6_576 2_656 ?
Cl08 Rb03 Rb04 80.471(13) 6_576 2_666 ?
Cl08 Rb03 Cl08 128.597(11) 1_545 6_576 ?
Cl08 Rb03 Cl0B 133.307(19) 1_545 2_666 ?
Cl09 Rb03 Rb04 48.403(13) 5_666 5_666 ?
Cl09 Rb03 Rb04 134.454(15) 5_666 3 ?
Cl09 Rb03 Rb04 96.522(15) 5_666 2_666 ?
Cl09 Rb03 Rb04 121.542(15) 5_666 2_656 ?
Cl09 Rb03 Cl08 70.642(18) 5_666 1_545 ?
Cl09 Rb03 Cl08 141.813(19) 5_666 6_576 ?
Cl09 Rb03 Cl0B 62.708(18) 5_666 2_666 ?
Cl0A Rb03 Rb04 116.121(17) . 2_666 ?
Cl0A Rb03 Rb04 140.663(16) . 3 ?
Cl0A Rb03 Rb04 115.337(16) . 5_666 ?
Cl0A Rb03 Rb04 52.223(15) . 2_656 ?
Cl0A Rb03 Cl06 141.54(2) . . ?
Cl0A Rb03 Cl07 97.71(2) . 7_666 ?
Cl0A Rb03 Cl07 133.31(2) . 6_576 ?
Cl0A Rb03 Cl08 71.292(18) . 6_576 ?
Cl0A Rb03 Cl08 91.03(2) . 1_545 ?
Cl0A Rb03 Cl09 76.32(2) . 5_666 ?
Cl0A Rb03 Cl0B 76.70(2) . 2_666 ?
Cl0B Rb03 Rb04 99.277(15) 2_666 5_666 ?
Cl0B Rb03 Rb04 119.212(15) 2_666 2_656 ?
Cl0B Rb03 Rb04 134.587(14) 2_666 3 ?
Cl0B Rb03 Rb04 46.797(13) 2_666 2_666 ?
Cl0B Rb03 Cl08 90.169(19) 2_666 6_576 ?
In01 Rb04 Rb03 90.713(8) . 2_646 ?
In01 Rb04 Rb03 86.160(7) . 5_666 ?
In01 Rb04 Rb03 85.265(7) . 2_656 ?
Rb03 Rb04 Rb03 102.883(7) 2_656 5_666 ?
Rb03 Rb04 Rb03 127.811(11) 2_656 2_646 ?
Rb03 Rb04 Rb03 128.778(8) 2_646 5_666 ?
Cl06 Rb04 In01 98.603(15) 5_666 . ?
Cl06 Rb04 In01 99.058(14) 2_646 . ?
Cl06 Rb04 Rb03 147.450(15) 5_666 2_656 ?
Cl06 Rb04 Rb03 172.610(15) 2_646 5_666 ?
Cl06 Rb04 Rb03 45.759(13) 5_666 5_666 ?
Cl06 Rb04 Rb03 46.446(12) 2_646 2_646 ?
Cl06 Rb04 Rb03 82.863(14) 2_646 2_656 ?
Cl06 Rb04 Rb03 84.614(14) 5_666 2_646 ?
Cl06 Rb04 Cl06 127.696(11) 5_666 2_646 ?
Cl06 Rb04 Cl0A 130.954(19) 5_666 2_656 ?
Cl07 Rb04 In01 131.607(15) 8_466 . ?
Cl07 Rb04 In01 136.316(15) 5_666 . ?
Cl07 Rb04 Rb03 49.440(13) 5_666 2_646 ?
Cl07 Rb04 Rb03 104.490(14) 5_666 5_666 ?
Cl07 Rb04 Rb03 130.838(15) 5_666 2_656 ?
Cl07 Rb04 Rb03 50.064(13) 8_466 2_656 ?
Cl07 Rb04 Rb03 102.234(15) 8_466 2_646 ?
Cl07 Rb04 Rb03 117.529(15) 8_466 5_666 ?
Cl07 Rb04 Cl06 65.187(17) 5_666 5_666 ?
Cl07 Rb04 Cl06 62.609(17) 8_466 2_646 ?
Cl07 Rb04 Cl06 128.64(2) 8_466 5_666 ?
Cl07 Rb04 Cl06 68.123(17) 5_666 2_646 ?
Cl07 Rb04 Cl07 81.041(11) 5_666 8_466 ?
Cl07 Rb04 Cl09 128.535(19) 5_666 . ?
Cl07 Rb04 Cl09 147.51(2) 8_466 . ?
Cl07 Rb04 Cl0A 94.363(19) 8_466 2_656 ?
Cl07 Rb04 Cl0A 157.26(2) 5_666 2_656 ?
Cl08 Rb04 In01 92.107(15) 5_676 . ?
Cl08 Rb04 Rb03 176.932(16) 5_676 2_646 ?
Cl08 Rb04 Rb03 50.292(13) 5_676 5_666 ?
Cl08 Rb04 Rb03 53.707(14) 5_676 2_656 ?
Cl08 Rb04 Cl06 93.766(19) 5_676 5_666 ?
Cl08 Rb04 Cl06 134.081(19) 5_676 2_646 ?
Cl08 Rb04 Cl07 127.50(2) 5_676 5_666 ?
Cl08 Rb04 Cl07 76.742(18) 5_676 8_466 ?
Cl08 Rb04 Cl09 73.909(19) 5_676 . ?
Cl08 Rb04 Cl0A 72.003(19) 5_676 2_656 ?
Cl09 Rb04 In01 37.796(12) . . ?
Cl09 Rb04 Rb03 107.757(15) . 2_646 ?
Cl09 Rb04 Rb03 49.076(13) . 5_666 ?
Cl09 Rb04 Rb03 100.167(15) . 2_656 ?
Cl09 Rb04 Cl06 67.457(18) . 5_666 ?
Cl09 Rb04 Cl06 135.086(19) . 2_646 ?
Cl09 Rb04 Cl0A 63.513(18) . 2_656 ?
Cl0A Rb04 In01 38.415(12) 2_656 . ?
Cl0A Rb04 Rb03 46.952(13) 2_656 2_656 ?
Cl0A Rb04 Rb03 111.017(15) 2_656 2_646 ?
Cl0A Rb04 Rb03 97.408(15) 2_656 5_666 ?
Cl0A Rb04 Cl06 89.911(19) 2_656 2_646 ?
Cl0B Rb04 In01 38.954(13) . . ?
Cl0B Rb04 Rb03 51.779(14) . 2_646 ?
Cl0B Rb04 Rb03 107.795(16) . 2_656 ?
Cl0B Rb04 Rb03 110.834(15) . 5_666 ?
Cl0B Rb04 Cl06 71.171(18) . 2_646 ?
Cl0B Rb04 Cl06 94.42(2) . 5_666 ?
Cl0B Rb04 Cl07 129.89(2) . 8_466 ?
Cl0B Rb04 Cl07 99.45(2) . 5_666 ?
Cl0B Rb04 Cl08 131.06(2) . 5_676 ?
Cl0B Rb04 Cl09 65.236(19) . . ?
Cl0B Rb04 Cl0A 66.438(19) . 2_656 ?
In01 Rb05 In01 108.742(8) . 5_657 ?
Cl06 Rb05 In01 89.148(13) 6_566 . ?
Cl06 Rb05 In01 92.606(13) 6_566 5_657 ?
Cl06 Rb05 Cl0A 112.523(17) 6_566 1_545 ?
Cl06 Rb05 Cl0A 164.932(18) 6_566 2_646 ?
Cl06 Rb05 Cl0B 63.627(16) 6_566 5_657 ?
Cl08 Rb05 In01 121.729(14) 6_566 . ?
Cl08 Rb05 In01 118.005(14) 6_566 5_657 ?
Cl08 Rb05 Cl06 57.380(17) 6_566 6_566 ?
Cl08 Rb05 Cl09 113.463(19) 6_566 2_656 ?
Cl08 Rb05 Cl0A 107.574(18) 6_566 2_646 ?
Cl08 Rb05 Cl0A 62.924(16) 6_566 1_545 ?
Cl08 Rb05 Cl0B 90.132(18) 6_566 2_656 ?
Cl08 Rb05 Cl0B 111.390(18) 6_566 5_657 ?
Cl09 Rb05 In01 87.832(13) 2_656 5_657 ?
Cl09 Rb05 In01 34.805(12) 6_556 5_657 ?
Cl09 Rb05 In01 34.969(12) 2_656 . ?
Cl09 Rb05 In01 90.494(14) 6_556 . ?
Cl09 Rb05 Cl06 122.678(19) 6_556 6_566 ?
Cl09 Rb05 Cl06 61.650(17) 2_656 6_566 ?
Cl09 Rb05 Cl08 147.03(2) 6_556 6_566 ?
Cl09 Rb05 Cl09 88.408(19) 6_556 2_656 ?
Cl09 Rb05 Cl0A 126.217(17) 2_656 1_545 ?
Cl09 Rb05 Cl0A 124.318(19) 6_556 1_545 ?
Cl09 Rb05 Cl0A 68.868(18) 6_556 2_646 ?
Cl09 Rb05 Cl0A 131.782(18) 2_656 2_646 ?
Cl09 Rb05 Cl0B 122.718(19) 6_556 2_656 ?
Cl09 Rb05 Cl0B 56.917(16) 2_656 5_657 ?
Cl09 Rb05 Cl0B 59.102(17) 6_556 5_657 ?
Cl0A Rb05 In01 97.349(13) 1_545 . ?
Cl0A Rb05 In01 144.061(14) 1_545 5_657 ?
Cl0A Rb05 In01 100.980(14) 2_646 . ?
Cl0A Rb05 In01 143.995(15) 6_556 . ?
Cl0A Rb05 In01 35.511(12) 6_556 5_657 ?
Cl0A Rb05 In01 94.618(13) 2_646 5_657 ?
Cl0A Rb05 Cl06 88.878(19) 6_556 6_566 ?
Cl0A Rb05 Cl08 86.539(18) 6_556 6_566 ?
Cl0A Rb05 Cl09 61.052(18) 6_556 6_556 ?
Cl0A Rb05 Cl09 116.729(19) 6_556 2_656 ?
Cl0A Rb05 Cl0A 89.346(19) 6_556 2_646 ?
Cl0A Rb05 Cl0A 116.490(10) 6_556 1_545 ?
Cl0A Rb05 Cl0A 55.50(2) 2_646 1_545 ?
Cl0A Rb05 Cl0B 173.48(2) 6_556 2_656 ?
Cl0A Rb05 Cl0B 127.377(17) 2_646 5_657 ?
Cl0A Rb05 Cl0B 59.868(17) 6_556 5_657 ?
Cl0B Rb05 In01 144.426(15) 2_656 5_657 ?
Cl0B Rb05 In01 92.938(15) . 5_657 ?
Cl0B Rb05 In01 35.911(12) . . ?
Cl0B Rb05 In01 35.944(12) 2_656 . ?
Cl0B Rb05 In01 35.523(11) 5_657 5_657 ?
Cl0B Rb05 In01 87.349(13) 5_657 . ?
Cl0B Rb05 Cl06 84.602(18) 2_656 6_566 ?
Cl0B Rb05 Cl06 122.704(19) . 6_566 ?
Cl0B Rb05 Cl08 148.92(2) . 6_566 ?
Cl0B Rb05 Cl09 62.797(18) . 6_556 ?
Cl0B Rb05 Cl09 61.656(18) . 2_656 ?
Cl0B Rb05 Cl09 59.680(17) 2_656 2_656 ?
Cl0B Rb05 Cl0A 70.126(18) . 2_646 ?
Cl0B Rb05 Cl0A 173.993(18) 5_657 1_545 ?
Cl0B Rb05 Cl0A 66.587(16) 2_656 1_545 ?
Cl0B Rb05 Cl0A 97.012(18) 2_656 2_646 ?
Cl0B Rb05 Cl0A 94.215(18) . 1_545 ?
Cl0B Rb05 Cl0A 123.846(19) . 6_556 ?
Cl0B Rb05 Cl0B 116.512(10) 2_656 5_657 ?
Cl0B Rb05 Cl0B 60.28(2) . 2_656 ?
Cl0B Rb05 Cl0B 91.784(19) . 5_657 ?
In02 Cl06 Rb03 146.85(3) . . ?
In02 Cl06 Rb04 100.73(2) . 5_666 ?
In02 Cl06 Rb04 99.02(2) . 2_666 ?
In02 Cl06 Rb05 105.68(2) . 6_565 ?
Rb03 Cl06 Rb04 85.266(18) . 5_666 ?
Rb03 Cl06 Rb04 79.140(16) . 2_666 ?
Rb03 Cl06 Rb05 107.18(2) . 6_565 ?
Rb04 Cl06 Rb04 160.17(2) 5_666 2_666 ?
Rb04 Cl06 Rb05 85.993(17) 2_666 6_565 ?
Rb04 Cl06 Rb05 86.998(18) 5_666 6_565 ?
In02 Cl07 Rb03 105.79(2) . 6_575 ?
In02 Cl07 Rb03 105.28(2) . 7_666 ?
In02 Cl07 Rb04 104.19(2) . 5_666 ?
In02 Cl07 Rb04 108.23(2) . 8_565 ?
Rb03 Cl07 Rb03 148.93(2) 6_575 7_666 ?
Rb04 Cl07 Rb03 88.973(18) 8_565 6_575 ?
Rb04 Cl07 Rb03 81.629(17) 8_565 7_666 ?
Rb04 Cl07 Rb03 83.060(18) 5_666 6_575 ?
Rb04 Cl07 Rb03 89.159(19) 5_666 7_666 ?
Rb04 Cl07 Rb04 147.57(2) 5_666 8_565 ?
In02 Cl08 Rb03 101.93(2) . 1_565 ?
In02 Cl08 Rb03 100.31(2) . 6_575 ?
In02 Cl08 Rb04 135.80(3) . 5_676 ?
In02 Cl08 Rb05 110.63(2) . 6_565 ?
Rb03 Cl08 Rb03 157.67(2) 1_565 6_575 ?
Rb03 Cl08 Rb05 87.201(18) 1_565 6_565 ?
Rb04 Cl08 Rb03 78.896(16) 5_676 6_575 ?
Rb04 Cl08 Rb03 83.811(18) 5_676 1_565 ?
Rb04 Cl08 Rb05 113.42(2) 5_676 6_565 ?
Rb05 Cl08 Rb03 86.820(18) 6_565 6_575 ?
In01 Cl09 Rb03 162.58(3) . 5_666 ?
In01 Cl09 Rb04 86.19(2) . . ?
In01 Cl09 Rb05 88.41(2) . 2_656 ?
In01 Cl09 Rb05 93.18(2) . 6 ?
Rb03 Cl09 Rb05 104.38(2) 5_666 2_656 ?
Rb03 Cl09 Rb05 98.15(2) 5_666 6 ?
Rb04 Cl09 Rb03 82.520(18) . 5_666 ?
Rb04 Cl09 Rb05 179.32(3) . 6 ?
Rb04 Cl09 Rb05 88.120(18) . 2_656 ?
Rb05 Cl09 Rb05 91.592(19) 6 2_656 ?
In01 Cl0A Rb03 163.95(3) . . ?
In01 Cl0A Rb04 83.95(2) . 2_656 ?
In01 Cl0A Rb05 92.80(2) . 6 ?
In01 Cl0A Rb05 93.24(2) . 1_565 ?
In01 Cl0A Rb05 98.85(2) . 2_666 ?
Rb03 Cl0A Rb04 80.824(18) . 2_656 ?
Rb03 Cl0A Rb05 83.951(18) . 1_565 ?
Rb03 Cl0A Rb05 96.04(2) . 2_666 ?
Rb03 Cl0A Rb05 92.98(2) . 6 ?
Rb04 Cl0A Rb05 175.46(2) 2_656 2_666 ?
Rb04 Cl0A Rb05 98.108(19) 2_656 1_565 ?
Rb05 Cl0A Rb04 92.78(2) 6 2_656 ?
Rb05 Cl0A Rb05 90.654(18) 6 2_666 ?
Rb05 Cl0A Rb05 168.05(2) 6 1_565 ?
Rb05 Cl0A Rb05 78.230(17) 2_666 1_565 ?
In01 Cl0B Rb03 169.95(3) . 2_646 ?
In01 Cl0B Rb04 88.77(2) . . ?
In01 Cl0B Rb05 90.41(2) . 2_656 ?
In01 Cl0B Rb05 83.08(2) . 5_657 ?
In01 Cl0B Rb05 92.32(2) . . ?
Rb03 Cl0B Rb05 98.841(18) 2_646 5_657 ?
Rb03 Cl0B Rb05 87.952(19) 2_646 2_656 ?
Rb04 Cl0B Rb03 81.422(18) . 2_646 ?
Rb04 Cl0B Rb05 176.89(3) . . ?
Rb04 Cl0B Rb05 93.03(2) . 2_656 ?
Rb04 Cl0B Rb05 89.029(19) . 5_657 ?
Rb05 Cl0B Rb03 97.588(19) . 2_646 ?
Rb05 Cl0B Rb05 88.215(19) . 5_657 ?
Rb05 Cl0B Rb05 173.13(2) 2_656 5_657 ?
Rb05 Cl0B Rb05 89.87(2) . 2_656 ?
loop_
_geom_bond_atom_site_label_1
_geom_bond_atom_site_label_2
_geom_bond_distance
_geom_bond_site_symmetry_2
_geom_bond_publ_flag
In01 Rb04 4.0333(4) . ?
In01 Rb04 4.0332(4) 2_656 ?
In01 Rb05 4.3207(4) 2_656 ?
In01 Rb05 4.3334(4) 5_657 ?
In01 Rb05 4.3334(4) 6 ?
In01 Rb05 4.3207(4) . ?
In01 Cl09 2.4773(7) 2_656 ?
In01 Cl09 2.4773(7) . ?
In01 Cl0A 2.5201(7) 2_656 ?
In01 Cl0A 2.5201(7) . ?
In01 Cl0B 2.5363(7) . ?
In01 Cl0B 2.5363(7) 2_656 ?
In02 Cl06 2.4971(7) . ?
In02 Cl06 2.4971(7) 7_676 ?
In02 Cl07 2.5229(7) . ?
In02 Cl07 2.5230(7) 7_676 ?
In02 Cl08 2.5224(7) . ?
In02 Cl08 2.5224(7) 7_676 ?
Rb03 Rb04 4.5848(5) 3 ?
Rb03 Rb04 4.3287(4) 2_666 ?
Rb03 Rb04 4.4436(5) 5_666 ?
Rb03 Rb04 4.2788(4) 2_656 ?
Rb03 Cl06 3.1943(7) . ?
Rb03 Cl07 3.3161(7) 7_666 ?
Rb03 Cl07 3.3129(7) 6_576 ?
Rb03 Cl08 3.5145(8) 6_576 ?
Rb03 Cl08 3.4386(8) 1_545 ?
Rb03 Cl09 3.3863(8) 5_666 ?
Rb03 Cl0A 3.1675(8) . ?
Rb03 Cl0B 3.4393(8) 2_666 ?
Rb04 Cl06 3.3639(8) 5_666 ?
Rb04 Cl06 3.5845(8) 2_646 ?
Rb04 Cl07 3.2151(7) 5_666 ?
Rb04 Cl07 3.2294(7) 8_466 ?
Rb04 Cl08 3.2096(7) 5_676 ?
Rb04 Cl09 3.3516(8) . ?
Rb04 Cl0A 3.4258(8) 2_656 ?
Rb04 Cl0B 3.1911(8) . ?
Rb05 Cl06 3.6667(8) 6_566 ?
Rb05 Cl08 3.4766(8) 6_566 ?
Rb05 Cl09 3.4206(8) 6_556 ?
Rb05 Cl09 3.6096(9) 2_656 ?
Rb05 Cl0A 3.4045(8) 6_556 ?
Rb05 Cl0A 3.9617(8) 1_545 ?
Rb05 Cl0A 3.7323(8) 2_646 ?
Rb05 Cl0B 3.3967(8) . ?
Rb05 Cl0B 3.4799(8) 2_656 ?
Rb05 Cl0B 3.8326(9) 5_657 ?
