#------------------------------------------------------------------------------
#$Date: 2018-09-26 06:29:44 +0300 (Wed, 26 Sep 2018) $
#$Revision: 211175 $
#$URL: file:///home/coder/svn-repositories/cod/cif/8/00/02/8000233.cif $
#------------------------------------------------------------------------------
#
# This file is available in the Crystallography Open Database (COD),
# http://www.crystallography.net/
#
# All data on this site have been placed in the public domain by the
# contributors.
#
data_8000233
loop_
_publ_author_name
'G, Sharada'
'Mahale, Pratibha'
'Kore, Bhushan P.'
'Mukherjee, Somdutta'
'Pavan, Mysore S.'
'De, Chandan'
'Ghara, Somnath'
'Sundaresan, A.'
'Pandey, Anshu'
'Guru Row, Tayur N.'
'Sarma, D. D.'
_publ_section_title
;
 Is CH3NH3PbI3 Polar?
;
_journal_issue                   13
_journal_name_full               'The journal of physical chemistry letters'
_journal_page_first              2412
_journal_page_last               2419
_journal_paper_doi               10.1021/acs.jpclett.6b00803
_journal_volume                  7
_journal_year                    2016
_chemical_formula_sum            'I6 N8 Pb2'
_chemical_formula_weight         1287.88
_space_group_crystal_system      tetragonal
_space_group_IT_number           140
_space_group_name_Hall           '-I 4 2c'
_space_group_name_H-M_alt        'I 4/m c m'
_symmetry_space_group_name_Hall  '-I 4 2c'
_symmetry_space_group_name_H-M   'I 4/m c m'
_audit_creation_method           SHELXL-2013
_cell_angle_alpha                90
_cell_angle_beta                 90
_cell_angle_gamma                90
_cell_formula_units_Z            2
_cell_length_a                   8.8117(8)
_cell_length_b                   8.8117(8)
_cell_length_c                   12.674(2)
_cell_measurement_reflns_used    1415
_cell_measurement_temperature    180(2)
_cell_measurement_theta_max      30.4920
_cell_measurement_theta_min      3.2710
_cell_volume                     984.1(2)
_computing_structure_refinement  'SHELXL-2013 (Sheldrick, 2013)'
_diffrn_ambient_temperature      180(2)
_diffrn_detector                 'CCD plate'
_diffrn_detector_area_resol_mean 8.0419
_diffrn_detector_type            Eos
_diffrn_measured_fraction_theta_full 0.996
_diffrn_measured_fraction_theta_max 0.998
_diffrn_measurement_device       'four-circle diffractometer'
_diffrn_measurement_device_type  'Xcalibur, Eos, Nova'
_diffrn_radiation_monochromator  mirror
_diffrn_radiation_type           MoK\a
_diffrn_radiation_wavelength     0.71073
_diffrn_reflns_av_R_equivalents  0.0885
_diffrn_reflns_av_unetI/netI     0.0518
_diffrn_reflns_Laue_measured_fraction_full 0.996
_diffrn_reflns_Laue_measured_fraction_max 0.998
_diffrn_reflns_limit_h_max       12
_diffrn_reflns_limit_h_min       -10
_diffrn_reflns_limit_k_max       12
_diffrn_reflns_limit_k_min       -12
_diffrn_reflns_limit_l_max       17
_diffrn_reflns_limit_l_min       -17
_diffrn_reflns_number            2814
_diffrn_reflns_point_group_measured_fraction_full 0.996
_diffrn_reflns_point_group_measured_fraction_max 0.998
_diffrn_reflns_theta_full        25.242
_diffrn_reflns_theta_max         30.559
_diffrn_reflns_theta_min         3.215
_exptl_absorpt_coefficient_mu    26.489
_exptl_absorpt_correction_T_max  0.445
_exptl_absorpt_correction_T_min  0.198
_exptl_absorpt_correction_type   analytical
_exptl_absorpt_process_details
;
CrysAlisPro, Agilent Technologies,
Version 1.171.37.31 (release 14-01-2014 CrysAlis171 .NET)
(compiled Jan 14 2014,18:38:05)
Analytical numeric absorption correction using a multifaceted crystal
            model based on expressions derived by R.C. Clark & J.S. Reid.
(Clark, R. C. & Reid, J. S. (1995). Acta Cryst. A51, 887-897)
Empirical absorption correction using spherical harmonics,
 implemented in SCALE3 ABSPACK scaling algorithm.
;
_exptl_crystal_colour            black
_exptl_crystal_density_diffrn    4.346
_exptl_crystal_description       block
_exptl_crystal_F_000             1076
_exptl_crystal_size_max          0.0966
_exptl_crystal_size_mid          0.0598
_exptl_crystal_size_min          0.0418
_refine_diff_density_max         4.74
_refine_diff_density_min         -3.89
_refine_diff_density_rms         0.596
_refine_ls_extinction_coef       0.0013(4)
_refine_ls_extinction_expression Fc^*^=kFc[1+0.001xFc^2^\l^3^/sin(2\q)]^-1/4^
_refine_ls_extinction_method     SHELXL
_refine_ls_goodness_of_fit_ref   0.972
_refine_ls_hydrogen_treatment    undef
_refine_ls_matrix_type           full
_refine_ls_number_parameters     11
_refine_ls_number_reflns         429
_refine_ls_number_restraints     0
_refine_ls_restrained_S_all      0.972
_refine_ls_R_factor_all          0.0684
_refine_ls_R_factor_gt           0.0612
_refine_ls_shift/su_max          0.004
_refine_ls_shift/su_mean         0.001
_refine_ls_structure_factor_coef Fsqd
_refine_ls_weighting_details
;
 w=1/[\s^2^(Fo^2^)+(0.1205P)^2^+132.1827P]
 where P=(Fo^2^+2Fc^2^)/3
;
_refine_ls_weighting_scheme      calc
_refine_ls_wR_factor_gt          0.1898
_refine_ls_wR_factor_ref         0.1962
_reflns_Friedel_coverage         0.000
_reflns_number_gt                385
_reflns_number_total             429
_reflns_threshold_expression     'I > 2\s(I)'
_cod_data_source_file            jz6b00803_si_003.cif
_cod_data_source_block           n
_cod_database_code               8000233
_shelx_space_group_comment
;
The symmetry employed for this shelxl refinement is uniquely defined
by the following loop, which should always be used as a source of
symmetry information in preference to the above space-group names.
They are only intended as comments.
;
_shelxl_version_number           2013-2
_shelx_res_file
;
TITL n in I4cm New: I4/mcm
CELL 0.71073 8.811692 8.811692 12.673937 90 90 90
ZERR 4 0.000816 0.000816 0.001964 0 0 0
LATT 2
SYMM -Y,+X,+Z
SYMM -X,-Y,+Z
SYMM +Y,-X,+Z
SYMM +X,-Y,0.5-Z
SYMM +Y,+X,0.5-Z
SYMM -X,+Y,0.5-Z
SYMM -Y,-X,0.5-Z

SFAC I Pb C N H
UNIT 12 4 0 0 0

L.S. 15
PLAN  10
BOND $H
CONF
MORE -1
fmap 2
acta
MERG 2
REM <HKL>E:\Crystal_data\sharada\sharada8\struct\wingx_n\n.hkl</HKL>

WGHT    0.120543  132.182739
EXTI    0.001332
FVAR       1.47430
I1    1    0.300072    0.199928    0.000000    10.25000    0.03677    0.03677 =
         0.05999    0.00000    0.00000   -0.02282
I2    1    0.000000    0.000000    0.250000    10.12500    0.05240    0.05240 =
         0.01806    0.00000    0.00000    0.00000
PB1   2    0.000000    0.000000    0.000000    10.12500    0.01979    0.01979 =
         0.02204    0.00000    0.00000    0.00000
N1    4   10.000000   10.408400   10.250000    10.50000    0.52224
HKLF 4 1 -1 0 0 0 -1 0 0 0 1

REM  n in I4cm New: I4/mcm
REM R1 =  0.0612 for     385 Fo > 4sig(Fo)  and  0.0684 for all     429 data
REM     11 parameters refined using      0 restraints

END

WGHT      0.0876     29.6085

REM Highest difference peak  4.737,  deepest hole -3.888,  1-sigma level  0.596
Q1    1   0.2450  0.2550  0.0369  10.50000  0.05    4.74
Q2    1   0.5000  0.0000 -0.0284  10.25000  0.05    2.65
Q3    1   0.0783  0.0783  0.2500  10.50000  0.05    1.67
Q4    1   0.0506 -0.0615  0.0368  11.00000  0.05    1.62
Q5    1   0.0035  0.1007  0.2183  11.00000  0.05    1.57
Q6    1   0.1354  0.2527  0.2463  11.00000  0.05    1.32
Q7    1   0.2005  0.2995  0.1082  10.50000  0.05    1.26
Q8    1   0.2491 -0.0057  0.0000  10.50000  0.05    1.26
Q9    1   0.4090  0.3125  0.0000  10.50000  0.05    1.21
Q10   1   0.1423  0.1156  0.2915  11.00000  0.05    1.19
;
_shelx_res_checksum              92411
_shelx_hkl_file
;
   0   0 -16 52015.0 7337.39   2
   0   0 -14 13434.5 3253.49   2
   0   0 -12 170200. 10691.6   2
   0   0 -10 64346.7 5856.77   2
   0   0  -8 493012. 14356.7   2
   0   0  -6 187236. 7598.10   2
   0   0  -4 999999. 14427.0   2
   0   0  -2 300357. 5400.91   2
   0   0  -2 368932. 4488.06   3
   0   0   2 306858. 5648.03   2
   0   0   2 321199. 4283.66   3
   0   0   4 863882. 10272.0   3
   0   0   6 182303. 5917.16   3
   0   0   8 442251. 11245.6   3
  -1   0 -17-59.9722 794.982   2
   0   1 -17-535.436 721.573   2
  -1   0 -15 443.279 788.524   2
   0   1 -15 875.105 933.293   2
   0  -1 -15 655.216 886.320   2
   1   0 -13-91.7898 332.766   2
  -1   0 -13 499.504 606.094   2
   0  -1 -13 17.2564 554.282   2
   0   1 -13 778.155 771.675   2
  -1   0 -11-18.5458 467.715   2
   0  -1 -11 949.388 828.908   2
   0   1 -11-160.754 311.511   2
   1   0 -11 738.466 809.978   2
   0   1  -9 123.046 362.931   2
   0  -1  -9-152.885 384.469   2
  -1   0  -9 115.233 494.574   2
   1   0  -9 586.970 600.358   2
   1   0  -7 4507.73 1663.24   2
   0  -1  -7 364.130 505.936   2
  -1   0  -7 4308.41 1336.26   2
   0   1  -7 5530.33 1447.11   2
   1   0  -5-400.029 349.019   2
   0  -1  -5 190.881 333.009   2
  -1   0  -5 3313.68 928.270   2
   0   1  -5 3688.42 951.075   2
  -1   0  -3 19708.3 1701.52   2
   0   1  -3 20623.5 1565.66   2
   0  -1  -1 151.726 115.589   2
  -1   0  -1 174.138 92.3652   1
  -1   0  -1 241.304 146.061   2
   0   1  -1 241.295 103.231   1
   0   1  -1 236.430 174.649   3
   0   1   1 38.1662 73.0749   1
   1   0   1 112.731 90.9148   1
   1   0   1 440.718 175.372   2
   0  -1   1 158.918 91.9009   1
   0  -1   1 182.019 190.069   3
   0   1   1 68.2611 85.0942   2
   1   0   3 19905.4 1122.32   1
   0  -1   3 15362.2 1707.84   3
   1   0   5 4671.93 812.438   1
  -1   0   5 3527.09 813.700   3
  -1   0   7 1733.58 778.385   3
   0  -1   7 4024.06 1261.34   3
   0  -1   9 503.538 471.711   3
  -1   0   9 212.487 303.568   3
   1   0   9 411.933 432.465   1
   1   0  11-238.467 305.216   1
   0  -1  11 154.715 231.616   3
  -1   0  11-96.8147 220.218   3
   1   0  13 277.031 419.472   1
   0   1  13 168.812 397.242   1
   0   1  15 695.731 743.085   1
  -1  -1 -16 27256.5 5200.24   2
  -1   1 -16 40185.6 5864.31   2
   1   1 -14 2546.79 1458.93   2
  -1  -1 -14 2703.38 1480.84   2
  -1   1 -14 2291.25 1249.73   2
   1   1 -12 90689.5 8078.36   2
   1  -1 -12 87925.6 8770.24   2
  -1  -1 -12 76358.1 7165.86   2
  -1   1 -12 75719.5 6503.78   2
   1  -1 -10 5916.74 2066.49   2
  -1   1 -10 4823.77 1523.46   2
  -1  -1 -10 10171.9 2556.74   2
   1   1 -10 7824.74 2138.77   2
   1   1  -8 174723. 8739.42   2
  -1  -1  -8 167630. 8380.52   2
  -1   1  -8 158667. 7596.08   2
   1  -1  -8 158335. 9770.58   2
   1   1  -6 11373.5 2022.56   2
   1  -1  -6 11846.2 2298.87   2
  -1  -1  -6 12623.0 2061.81   2
  -1   1  -6 12047.5 1817.63   2
   1  -1  -4 273867. 5189.95   3
  -1  -1  -4 322960. 8318.26   2
  -1   1  -4 261187. 6782.31   2
   1   1  -4 316244. 8354.36   2
  -1  -1  -2 21873.8 1566.49   2
  -1   1  -2 27253.5 1640.84   2
  -1  -1   0 329992. 5898.18   1
  -1   1   0 328555. 3662.61   3
  -1  -1   0 312556. 3639.99   2
   1   1   0 309853. 5868.66   1
   1  -1   0 313166. 3815.44   3
  -1  -1   2 31462.6 1784.39   1
   1  -1   2 28487.3 1804.32   2
   1  -1   2 25692.6 1642.69   3
   1   1   4 322001. 6872.61   1
  -1  -1   4 320060. 9213.53   3
  -1   1   6 12763.0 1493.40   3
   1  -1   6 11982.7 1668.60   3
   1   1   6 34602.4 2817.20   1
  -1  -1   6 36257.9 3271.45   3
  -1  -1   8 164209. 7517.72   3
   1   1   8 183463. 7484.96   1
  -1  -1  10 8018.30 1941.40   3
   1  -1  10 8754.07 1978.99   3
   1   1  10 6265.74 1536.18   1
   1  -1  12 79067.4 5298.82   1
   1   1  12 78253.7 5723.72   1
   1   1  14 1870.19 942.392   1
  -1   1  16 33018.1 5176.80   1
  -2   0 -16 25428.1 4813.18   2
   0   2 -16 24139.4 4685.86   2
   0   2 -14 582.962 605.418   2
  -2   0 -14 1238.83 997.962   2
   0  -2 -14 744.869 1033.30   2
   0   2 -12 37433.6 4498.88   2
  -2   0 -12 39615.4 5011.41   2
   0  -2 -12 44959.0 6105.53   2
  -2   0 -10 5224.44 1617.97   2
   0   2 -10 4131.62 1424.64   2
   0  -2 -10 4675.69 1718.74   2
   0   2  -8 55614.9 4320.78   2
   0  -2  -8 58860.6 5563.68   2
   0  -2  -6 22482.3 3026.60   2
  -2   0  -6 20897.3 2545.65   2
   0   2  -6 22373.5 2306.54   2
  -2   0  -4 86514.4 4362.07   2
   0  -2  -4 80685.2 4845.33   2
   0   2  -4 87519.5 3521.35   2
  -2   0  -4 80756.6 2644.34   1
   0  -2  -2 93985.4 4309.25   2
   0   2  -2 99806.7 2451.87   2
   0   2  -2 103623. 3344.12   1
  -2   0  -2 94428.8 3726.88   2
  -2   0  -2 102818. 3199.86   1
   0   2   0 74130.1 2630.24   1
  -2   0   0 72755.0 3157.24   1
   0  -2   0 74345.9 2620.82   1
   0  -2   2 101119. 4976.61   3
   0  -2   2 104096. 3141.32   1
   0   2   2 108715. 4198.22   1
   2   0   2 98601.5 3222.10   1
   0  -2   2 108492. 2552.25   2
   2   0   4 85185.7 3040.30   1
   0  -2   4 80666.9 4578.53   3
   0  -2   4 73893.1 2779.76   1
  -2   0   4 73895.8 4171.68   3
   2   0   6 20778.9 1751.04   1
   0  -2   6 19112.2 2425.62   3
  -2   0   6 25423.4 2509.55   3
   2   0   8 57342.0 3440.44   1
  -2   0   8 60326.8 4109.47   3
  -2   0  10 3969.17 1221.66   3
   2   0  10 3932.62 1067.82   1
   0  -2  10 4456.19 1527.68   3
   2   0  12 43349.9 3923.30   1
  -2   0  12 45797.1 4688.07   3
   0  -2  12 50666.3 5677.32   3
   0   2  12 38327.0 4480.95   1
   0  -2  14 834.176 1026.42   3
   0   2  14 539.282 567.267   1
   0   2  16 21129.0 3881.43   1
  -2  -1 -17 652.115 718.982   2
  -2   1 -17 763.489 791.306   2
  -1   2 -17 982.214 966.971   2
  -1  -2 -17-1032.97 1130.16   2
  -1  -2 -15 795.142 843.679   2
  -2   1 -15 1641.27 1124.30   2
  -1   2 -15 1186.61 904.018   2
  -2  -1 -15 377.332 544.158   2
  -2  -1 -13 3742.10 1647.07   2
  -2   1 -13 2052.78 1209.51   2
  -1  -2 -13 1127.56 995.926   2
   1   2 -13 3236.76 1520.56   2
  -1   2 -13 4023.64 1521.04   2
  -1   2 -11 4588.83 1456.04   2
   1   2 -11 8479.70 2257.10   2
  -1  -2 -11 9006.46 2458.69   2
  -2   1 -11 4996.12 1629.83   2
  -2  -1 -11 9457.05 2405.39   2
  -2   1  -9 12180.1 2267.19   2
   1   2  -9 13874.8 2530.70   2
   1  -2  -9 8028.03 2798.58   2
  -2  -1  -9 11474.7 2318.20   2
  -1  -2  -9 10163.2 2307.41   2
  -1   2  -9 11531.6 2089.41   2
   1   2  -7 27494.6 3074.83   2
  -2  -1  -7 26032.0 3115.44   2
   1  -2  -7 29171.9 4069.29   2
  -1  -2  -7 22123.7 3042.62   2
  -1   2  -7 29407.6 2904.20   2
  -2   1  -7 31950.7 3279.39   2
  -2   1  -5 38047.4 3039.87   2
   1  -2  -5 38816.6 1831.67   3
  -1   2  -5 34615.1 2676.92   2
  -1  -2  -5 44343.1 3666.06   2
   1   2  -5 39213.6 2979.85   2
  -2   1  -3 63584.4 1446.80   1
  -2   1  -3 71325.2 3481.99   2
  -1   2  -3 68372.3 2933.11   2
  -1  -2  -3 69752.1 3708.85   2
   1   2  -3 66028.0 2921.51   2
  -1   2  -1 67480.0 2103.80   1
   1  -2  -1 68980.6 2573.68   3
   1   2  -1 88545.5 3754.26   1
  -1  -2  -1 79247.2 2529.44   2
  -2  -1  -1 81315.7 3135.36   2
   2   1  -1 74909.4 3723.30   1
   1   2   1 76150.6 3249.89   1
   1   2   1 82368.0 2504.79   2
  -1  -2   3 69538.3 2622.37   2
   1   2   3 62014.6 3358.06   1
   1  -2   3 67271.7 3497.74   3
   2   1   3 57896.3 2936.58   1
  -1  -2   3 58742.2 4341.78   3
   1  -2   5 31682.5 2772.70   3
  -2  -1   5 38950.5 3718.87   3
   2  -1   5 38238.0 1546.44   1
   1   2   5 53266.5 3679.54   1
  -1  -2   5 36853.2 3694.77   3
   1  -2   5 34513.8 1450.95   1
  -2   1   5 37303.6 1907.60   3
   2   1   5 52946.2 3055.29   1
  -2  -1   7 25854.2 3147.93   3
  -1  -2   7 26463.2 3333.00   3
   2   1   7 22508.6 2310.66   1
  -2   1   7 29863.0 2317.18   3
   1  -2   7 27609.8 3012.33   3
   2  -1   7 29853.3 1792.50   1
   1   2   7 25948.4 2844.17   1
   2  -1   9 11654.8 1472.45   1
   2   1   9 13353.4 2046.19   1
  -2  -1   9 10700.2 2089.41   3
  -2   1   9 14554.4 2077.60   3
   1   2   9 13264.7 2253.13   1
  -1  -2   9 13405.6 2570.22   3
   1  -2   9 11249.0 2133.43   3
   2  -1  11 6211.97 1208.07   1
   1   2  11 6228.95 1621.15   1
   1  -2  11 6777.41 1891.96   3
   2   1  11 6088.93 1549.98   1
  -2  -1  11 7641.18 2075.18   3
  -1  -2  11 7055.19 2050.34   3
   2   1  13 2735.47 1142.87   1
  -2  -1  13 3463.33 1398.03   3
   1   2  13 2868.02 1243.79   1
  -1  -2  13 4108.85 1715.90   3
   1   2  15 1004.99 644.168   1
  -1  -2  15 1840.88 1120.36   3
  -1   2  15 610.618 631.486   1
  -2  -2 -16 41221.9 6583.25   2
  -2   2 -16 38545.2 5507.92   2
  -2   2 -14 7223.83 2155.37   2
  -2  -2 -14 7524.44 2557.86   2
  -2  -2 -12 102239. 8458.83   2
  -2   2 -12 114430. 7939.12   2
  -2  -2 -10 30706.5 4141.45   2
  -2   2 -10 34582.3 3935.18   2
  -2  -2  -8 282910. 11254.1   2
  -2   2  -8 278394. 10029.9   2
   2  -2  -6 94341.4 3685.37   3
  -2  -2  -6 100755. 5820.28   2
  -2   2  -6 92160.3 5046.61   2
  -2   2  -4 540116. 10216.4   2
  -2  -2  -4 511822. 10948.4   2
   2   2  -2 221435. 7230.33   1
  -2   2  -2 215898. 6102.35   2
  -2   2   0 800127. 9163.39   3
  -2  -2   0 730786. 7812.64   2
   2   2   0 741767. 12828.5   1
   2  -2   0 824006. 8613.59   3
   2  -2   2 229488. 6080.16   3
   2   2   2 240749. 6825.64   1
   2   2   4 500047. 10319.8   1
  -2  -2   4 530621. 14582.9   3
   2  -2   6 89724.9 5073.92   3
   2   2   6 102181. 5207.08   1
  -2  -2   8 278676. 11631.8   3
   2   2   8 279257. 9761.13   1
   2  -2   8 279980. 10266.0   3
   2  -2   8 279478. 4660.43   1
   2  -2  10 32536.0 2139.30   1
   2  -2  10 32574.5 3944.91   3
  -2  -2  10 30544.7 4060.69   3
   2   2  10 32005.6 3715.90   1
   2   2  12 115030. 7614.07   1
  -2  -2  12 122302. 8633.51   3
  -2  -2  14 7087.00 2221.47   3
   2   2  14 7972.09 2152.08   1
   0   3 -17 195.082 655.625   2
  -3   0 -17 702.941 960.365   2
  -3   0 -15 211.076 397.346   2
   0   3 -15 226.229 473.874   2
   0  -3 -13-33.4184 188.848   2
   0   3 -13 165.465 306.174   2
  -3   0 -13-67.8075 222.034   2
  -3   0 -11 2050.79 1248.34   2
   0   3 -11 2057.71 983.175   2
   0  -3 -11 121.839 478.486   2
   0  -3  -9 652.696 768.873   2
   0   3  -9 3388.55 1147.15   2
  -3   0  -9 2205.63 1189.26   2
  -3   0  -7 540.479 543.725   2
   0   3  -7-70.2042 179.603   2
  -3   0  -5 24429.8 2744.29   2
   0   3  -5 21577.6 1923.03   2
  -3   0  -3 242.748 236.065   2
   0  -3  -3 133.014 224.244   2
   0   3  -3 137.819 128.277   2
   0   3  -3-74.6871 138.074   1
   0   3  -1 12527.7 1289.70   1
  -3   0  -1 17146.5 1930.45   2
   0   3   1 12865.4 1517.06   1
   0  -3   1 18863.3 2445.69   3
   3   0   3-1.81087 66.9900   1
   0  -3   3 168.159 155.521   2
   0  -3   3-154.336 137.053   3
   0   3   5 7164.67 1875.62   1
   3   0   5 24796.1 2048.06   1
   0  -3   5 32462.7 3560.85   3
   0   3   7-397.900 522.139   1
   3   0   7 13.8216 49.5610   1
  -3   0   7-54.3005 92.0078   3
   0  -3   7 386.739 473.065   3
   3   0   9 686.891 467.205   1
   0   3   9 720.964 636.499   1
  -3   0   9 154.811 412.942   3
   0  -3  11 67.9446 875.043   3
  -3   0  11-78.8816 307.998   3
   3   0  11 105.123 122.716   1
   0   3  11 39.9142 307.230   1
   0  -3  13-321.114 504.717   3
   0   3  13-118.746 193.940   1
   0   3  15 329.114 557.052   1
   0  -3  15-525.223 692.925   3
  -3   1 -16 32434.3 5237.67   2
  -1   3 -16 35262.5 5170.86   2
  -3  -1 -16 38790.4 6206.55   2
  -1  -3 -16 33468.2 6269.13   2
  -1  -3 -14 4882.19 2220.84   2
   1   3 -14 5789.83 2120.91   2
  -1   3 -14 5648.71 1900.63   2
  -3  -1 -14 5343.35 2115.07   2
  -3   1 -14 5945.13 2101.49   2
  -1  -3 -12 82145.2 8019.12   2
  -1   3 -12 87532.5 6510.70   2
   1   3 -12 91975.6 7563.34   2
  -3  -1 -12 78723.1 7383.22   2
  -3   1 -12 96688.2 7706.44   2
  -1   3 -10 27220.8 3256.70   2
  -3   1 -10 27021.8 3789.93   2
  -3  -1 -10 15572.8 2954.80   2
   1   3 -10 20699.0 3091.26   2
  -1  -3 -10 16311.7 3327.56   2
   1   3  -8 210268. 8776.73   2
  -3   1  -8 239023. 10136.1   2
  -1  -3  -8 195310. 9906.26   2
  -3  -1  -8 177443. 8964.60   2
  -1   3  -8 233007. 8555.53   2
  -1  -3  -6 42508.2 4149.70   2
   1   3  -6 46025.2 3428.21   2
  -1   3  -6 66314.8 3956.05   2
  -3   1  -6 66700.6 4698.87   2
  -3  -1  -6 39852.2 3796.05   2
  -3  -1  -4 312900. 9163.38   2
  -1   3  -4 371547. 7340.27   2
   1   3  -4 315258. 8722.60   1
   1   3  -4 363787. 7098.11   2
  -1  -3  -4 332839. 10045.4   2
  -1   3  -4 352961. 5817.53   1
  -3   1  -4 339000. 4635.61   1
  -3   1  -4 357195. 9319.81   2
  -1   3  -2 78055.5 2957.34   2
  -1  -3  -2 79048.1 3690.75   2
   1   3  -2 85294.2 4276.36   1
  -1   3  -2 81187.1 2717.37   1
  -3   1  -2 83111.9 4312.18   2
  -3  -1  -2 84711.2 4041.28   2
   1   3   0 357333. 7973.06   1
   1   3   0 389699. 3901.97   2
  -1   3   0 346748. 6971.09   1
   3   1   0 368836. 9188.42   1
   1  -3   0 371391. 8722.96   3
   3   1   2 87694.3 4325.91   1
   1  -3   2 82707.5 2860.31   1
   1   3   2 77626.7 4022.14   1
   1  -3   2 84403.9 4556.75   3
   1  -3   4 357535. 9999.85   3
  -1  -3   4 326660. 12045.9   3
   3   1   4 323112. 8092.87   1
   3  -1   4 346807. 5460.44   1
  -1  -3   4 329561. 5837.31   2
   1   3   4 328822. 9691.78   1
   1  -3   4 358589. 5137.01   1
   1  -3   6 66410.9 2353.13   1
   3   1   6 41449.5 3092.86   1
   1  -3   6 66217.1 4737.64   3
  -3   1   6 50245.1 2984.14   3
  -1  -3   6 34601.6 4084.14   3
  -3  -1   6 48026.3 4663.23   3
   3  -1   6 69857.3 2532.19   1
   1   3   6 45553.2 4006.64   1
   3  -1   8 223968. 5468.16   1
  -1  -3   8 195233. 10180.5   3
   1   3   8 201956. 9249.56   1
  -3  -1   8 196100. 9337.51   3
  -3   1   8 212149. 6674.13   3
   1  -3   8 249301. 10195.5   3
   1  -3   8 219032. 5267.09   1
   3   1   8 181121. 7072.04   1
   3  -1  10 18247.8 1796.78   1
  -3  -1  10 19658.7 3001.72   3
   3   1  10 14682.8 2265.37   1
  -1  -3  10 19139.0 3332.29   3
  -3   1  10 18513.2 2268.94   3
   1   3  10 18285.2 2990.00   1
   1  -3  12 86529.2 7603.69   3
   3   1  12 84139.9 5966.06   1
  -1  -3  12 94774.4 8018.20   3
  -3  -1  12 101851. 7068.54   3
   1   3  12 98751.3 7361.11   1
   1  -3  14 7537.17 2618.93   3
   1   3  14 2739.11 1290.62   1
  -1   3  14 5729.67 2022.55   1
  -1  -3  14 6172.39 2289.64   3
  -1   3  16 32259.2 5242.87   1
   1   3  16 33683.6 5017.45   1
  -1  -3  16 35670.8 5764.47   3
  -2  -3 -17-74.4859 391.678   2
  -3  -2 -17-781.432 429.518   2
  -3   2 -17-604.167 870.431   2
  -3  -2 -15 1315.14 1140.69   2
  -2   3 -15 326.844 466.586   2
  -3   2 -15 234.248 369.083   2
  -2  -3 -15 314.988 468.863   2
  -3  -2 -13 1158.06 1004.85   2
  -2   3 -13 1420.59 901.309   2
  -3   2 -13 474.378 569.203   2
  -2  -3 -13 2047.02 1268.66   2
  -3  -2 -11 866.645 791.531   2
  -2  -3 -11 1762.30 1038.03   2
  -3   2 -11 489.350 534.373   2
  -2   3 -11 1079.34 711.633   2
  -3  -2  -9 2997.13 1267.73   2
  -2  -3  -9 2862.47 1204.68   2
  -3   2  -9 2921.12 1137.86   2
  -2   3  -9 3111.95 1087.78   2
  -3   2  -7 6421.26 1507.40   2
  -2   3  -7 8416.71 1565.80   2
   2  -3  -7 3842.72 669.715   3
  -2  -3  -7 4365.11 1320.61   2
  -3  -2  -7 8094.24 1948.96   2
  -2   3  -5 12807.7 1676.55   2
  -3  -2  -5 11242.7 1859.11   2
  -3   2  -5 12222.8 1796.70   2
  -2  -3  -5 11138.6 1913.73   2
  -3  -2  -3 40436.7 3046.04   2
  -2   3  -3 17353.8 1006.34   1
  -3   2  -3 16647.2 1172.63   1
  -2   3  -3 16481.6 1669.47   2
  -3   2  -3 16603.3 1944.42   2
   2   3  -3 34572.7 3148.86   1
  -2  -3  -3 12540.3 1623.31   2
  -3  -2  -1 20662.7 1813.12   2
   3   2  -1 16694.6 2172.45   1
   2   3  -1 20950.0 2408.24   1
  -2  -3  -1 19238.5 1430.20   2
   2  -3  -1 17287.7 1347.41   3
   2   3   1 19661.5 2174.39   1
   3   2   1 20113.6 2341.73   1
  -2   3   1 21293.8 2163.14   3
  -3   2   1 20542.8 1595.96   3
   2  -3   1 14410.9 1576.04   3
  -2  -3   1 19329.8 915.607   2
   2   3   3 32577.2 2975.68   1
  -2  -3   3 11503.9 1010.26   2
   2  -3   3 19445.7 2164.96   3
   3   2   3 36678.2 3125.88   1
   2   3   5 8996.13 1640.83   1
  -2  -3   5 10832.4 2332.80   3
   2  -3   5 12150.1 1887.75   3
   3   2   5 11104.1 1731.54   1
  -3  -2   7 5661.87 1739.00   3
   2  -3   7 8540.90 1808.03   3
   2   3   7 6536.82 1604.65   1
   3   2   7 5524.00 1376.00   1
   2  -3   9 2488.57 1077.85   3
   3   2   9 3370.01 1157.30   1
  -2  -3   9 3816.44 1593.35   3
   2   3   9 4699.74 1471.41   1
  -3  -2   9 2546.25 1244.84   3
   2  -3  11 1269.63 839.703   3
  -3  -2  11 1506.84 964.284   3
   3   2  11 1754.65 890.456   1
   2   3  11 1870.64 1006.86   1
  -2  -3  11 836.150 775.545   3
  -2  -3  13 1174.60 1105.96   3
   2   3  13 487.106 575.915   1
  -3  -2  13 780.209 800.325   3
   3   2  13 801.930 617.881   1
  -2  -3  15 134.680 400.297   3
   2   3  15 419.602 565.899   1
  -2   3  17-100.332 388.931   1
  -3  -3 -16 17245.3 4346.05   2
  -3   3 -16 17345.7 3589.53   2
  -3   3 -14 530.013 589.569   2
  -3  -3 -14 1267.20 1102.95   2
  -3  -3 -12 31539.4 4701.49   2
  -3   3 -12 30629.5 4068.17   2
  -3  -3 -10 7474.65 2243.65   2
  -3   3 -10 2035.73 981.432   2
  -3   3  -8 44969.7 4087.00   2
  -3  -3  -8 57053.5 5184.55   2
  -3  -3  -6 37867.3 3781.20   2
  -3   3  -6 4947.63 1185.42   2
  -3   3  -4 65550.1 3983.24   2
  -3  -3  -4 65436.7 4123.75   2
  -3  -3  -2 45608.2 2927.54   2
   3   3  -2 39459.4 3805.96   1
   3   3   0 65044.0 4663.21   1
  -3  -3   0 62106.8 2685.95   2
   3  -3   2 12259.0 1671.43   3
  -3   3   2 12960.3 1475.31   3
   3   3   4 75275.1 4750.53   1
   3  -3   4 71873.4 4540.16   3
   3  -3   6 6032.57 1465.48   3
  -3  -3   6 6257.21 1936.52   3
   3  -3   8 46912.1 4510.67   3
   3   3   8 44931.7 4368.43   1
  -3  -3  10 17741.3 3906.44   3
   3   3  10 1981.13 1102.84   1
  -3  -3  12 35191.9 4897.92   3
   3   3  12 33654.8 4395.26   1
   3   3  14 1094.21 877.507   1
  -3  -3  14 823.826 993.731   3
  -4   0 -16 31505.1 5282.90   2
  -4   0 -14 6704.16 2382.32   2
   0   4 -14 4461.88 1678.82   2
   0   4 -12 80012.2 6188.03   2
  -4   0 -12 73536.8 7172.30   2
   0   4 -10 16171.3 2497.00   2
   0  -4 -10 13440.3 3361.48   2
  -4   0 -10 16753.6 3169.71   2
  -4   0  -8 185081. 9680.73   2
   0  -4  -8 202931. 12168.5   2
   0   4  -8 173742. 7107.83   2
  -4   0  -6 55607.0 4709.68   2
   0   4  -6 59312.2 3449.42   2
   0  -4  -6 47643.9 5252.10   2
  -4   0  -4 320597. 9855.37   2
   0   4  -4 333777. 6220.11   2
   0   4  -4 318091. 8129.84   1
  -4   0  -2 138287. 6072.37   2
   0   4  -2 134622. 2822.02   2
   0   4   0 420781. 9156.86   1
   0   4   0 375850. 7202.60   2
   0   4   2 110310. 5487.31   1
   0  -4   2 162379. 8295.12   3
   0   4   4 326209. 10548.2   1
   4   0   4 322216. 7917.76   1
   0   4   6 41017.2 4096.45   1
   4   0   6 57926.9 3422.59   1
  -4   0   6 37107.4 4016.35   3
   0  -4   6 70808.5 6037.56   3
   0  -4   8 168631. 9677.26   3
   0   4   8 184173. 9419.43   1
  -4   0   8 190150. 8576.92   3
   4   0   8 179184. 6454.22   1
   0  -4  10 22338.5 3780.66   3
   4   0  10 17069.7 2141.77   1
  -4   0  10 14650.3 2327.79   3
   0   4  10 14899.9 2794.53   1
   0   4  12 72600.9 6562.87   1
   0  -4  12 71086.0 7331.12   3
   0   4  14 4764.17 1831.72   1
   0  -4  14 6627.99 2450.24   3
   0   4  16 28799.1 4889.04   1
   0  -4  16 32936.4 5837.90   3
  -4  -1 -17 659.017 807.602   2
  -4   1 -17 1021.44 1018.84   2
  -1  -4 -15 1344.33 1217.44   2
  -1   4 -15 2432.59 1346.54   2
  -4  -1 -15 2113.76 1431.43   2
  -4   1 -15 1920.43 1222.27   2
   1   4 -13 6512.98 2123.41   2
  -1  -4 -13 3941.09 1936.00   2
  -1   4 -13 4477.55 1521.42   2
  -4   1 -13 3932.43 1649.09   2
  -4  -1 -13 4543.56 1930.78   2
  -4  -1 -11 12591.1 2944.16   2
  -1  -4 -11 12563.9 3201.59   2
  -4   1 -11 12556.0 2798.76   2
  -1   4 -11 13863.7 2377.65   2
   1   4 -11 12127.3 2507.50   2
   1   4  -9 25990.0 3211.08   2
  -1   4  -9 21532.2 2670.86   2
  -4  -1  -9 23376.2 3634.64   2
  -1  -4  -9 27249.9 4194.13   2
  -4   1  -9 24696.2 3581.98   2
  -4   1  -7 41572.3 4117.88   2
   1   4  -7 56392.4 3968.59   2
  -1  -4  -7 45260.4 4856.85   2
  -1   4  -7 39122.7 3130.39   2
  -4  -1  -7 54516.6 4992.80   2
  -1   4  -5 76909.9 3748.48   2
  -4  -1  -5 69463.0 5029.81   2
  -1  -4  -5 81686.2 5688.71   2
  -4   1  -5 79387.2 5097.96   2
  -1   4  -5 85044.8 3583.24   1
   1   4  -5 75279.0 3577.75   2
  -4  -1  -3 100269. 5252.90   2
   1   4  -3 103860. 5180.43   1
  -1   4  -3 74825.1 3279.11   1
  -1   4  -3 75946.2 3035.11   2
  -4   1  -3 82154.2 4744.79   2
  -1  -4  -3 101399. 5294.56   2
   1  -4  -1 109010. 5671.19   3
  -1   4  -1 115743. 4393.26   1
   1   4  -1 100426. 4782.06   1
  -4  -1  -1 104709. 4963.78   2
   1  -4   1 113558. 6058.67   3
   4   1   1 99290.0 5256.39   1
  -1   4   1 121591. 5042.00   1
   1   4   1 105466. 4964.88   1
   1   4   1 112631. 3530.73   2
   4   1   3 99262.1 5092.85   1
  -1  -4   3 99926.6 6778.32   3
   1   4   3 103966. 5606.03   1
  -1   4   3 91862.5 5125.29   1
   1   4   5 81127.3 5578.05   1
   4   1   5 57539.1 3949.71   1
  -1  -4   5 64750.4 5924.87   3
   1  -4   5 78928.9 5548.52   3
  -1   4   5 76374.1 5328.93   1
  -4   1   7 39956.7 3069.58   3
   1  -4   7 39302.8 2029.62   1
  -1   4   7 41474.2 4325.54   1
   4   1   7 52195.6 3932.54   1
   1  -4   7 31671.1 3758.04   3
   4  -1   7 38810.6 2275.27   1
  -1  -4   7 58874.3 5967.68   3
  -4  -1   7 45839.3 4882.03   3
   1   4   7 45929.6 4633.97   1
   1   4   9 26428.6 3697.90   1
   1  -4   9 25139.0 3651.84   3
   4   1   9 24052.1 2814.47   1
   4  -1   9 25261.4 1942.85   1
  -4  -1   9 24843.8 3539.92   3
  -4   1   9 23325.4 2284.79   3
  -1  -4   9 29810.2 4328.23   3
  -1   4   9 23228.7 3512.38   1
  -4  -1  11 10224.7 2241.15   3
  -1  -4  11 9569.48 2586.87   3
   1  -4  11 15778.4 3235.53   3
   4   1  11 10132.0 1971.84   1
   1   4  11 9228.76 2321.19   1
  -1   4  11 9308.98 2371.62   1
   1   4  13 3458.25 1519.01   1
  -1  -4  13 6542.57 2288.59   3
  -1   4  13 4664.97 1798.21   1
   1  -4  13 6342.77 2207.47   3
  -1   4  15 2064.89 1234.06   1
   1   4  15 1352.97 1039.69   1
  -1  -4  15 1886.41 1295.22   3
   1  -4  15 3040.96 1883.86   3
  -1  -4  17 2238.03 2125.69   3
  -1   4  17 44.3396 335.474   1
  -2   4 -16 21816.4 3996.52   2
  -2  -4 -16 25315.8 5590.34   2
  -4  -2 -16 25605.2 5225.82   2
  -4   2 -16 23075.6 4368.08   2
  -4   2 -14 2709.16 1411.97   2
  -2  -4 -14 1153.79 941.092   2
  -2   4 -14 2401.90 1205.77   2
  -4  -2 -14 1346.74 1068.17   2
  -4  -2 -12 50402.3 6145.96   2
  -2  -4 -12 43870.7 5886.03   2
  -2   4 -12 50843.3 5023.09   2
  -4   2 -12 50550.9 5578.76   2
  -2  -4 -10 3220.13 1421.46   2
  -4   2 -10 5099.05 1682.35   2
  -2   4 -10 4898.44 1418.31   2
  -4  -2 -10 6993.27 2138.81   2
  -2   4  -8 94577.0 5546.88   2
  -2  -4  -8 81231.3 6431.85   2
  -4   2  -8 95277.5 6389.74   2
  -4  -2  -8 85809.3 6626.57   2
  -4   2  -6 3181.96 1032.27   2
  -2   4  -6 4536.06 1039.70   2
  -2  -4  -6 4419.48 1432.66   2
  -4  -2  -4 116382. 6126.93   2
  -4   2  -4 114282. 5849.26   2
  -2   4  -4 123262. 3465.48   1
  -2   4  -4 108895. 4565.21   2
   2  -4  -4 116312. 3214.75   3
   2   4  -4 107831. 6113.70   1
  -2  -4  -4 126834. 6195.61   2
  -4   2  -4 123751. 3597.06   1
  -4  -2  -2 4129.30 987.691   2
  -2   4  -2 5416.96 1202.58   2
  -2  -4  -2 2452.76 666.445   2
  -4   2  -2 4862.23 1368.95   2
   2  -4  -2 2354.40 581.332   3
   2   4  -2 2707.50 886.493   1
  -2   4  -2 4465.58 794.615   1
   2   4   0 122861. 5937.48   1
   2   4   0 129680. 2851.54   2
   2  -4   0 125961. 5257.10   3
  -4  -2   0 121465. 5220.59   2
   4   2   0 121940. 6509.03   1
  -2  -4   0 132216. 3170.72   2
  -2   4   0 132583. 5035.89   1
   4   2   2 3363.58 1061.60   1
   2  -4   2 4553.67 1181.58   3
   2   4   2 2865.52 917.383   1
   2   4   4 113322. 6260.19   1
   4   2   4 113456. 6111.31   1
   2  -4   4 106779. 5833.47   3
  -2  -4   4 113630. 2970.10   2
  -2  -4   4 113708. 7575.37   3
  -4   2   6 3362.55 423.345   3
   2  -4   6 3207.50 1096.86   3
  -4  -2   6 4640.78 1594.22   3
   2   4   6 5353.18 1724.79   1
   2   4   8 97025.6 6970.50   1
  -2  -4   8 90883.8 7735.87   3
  -4  -2   8 105327. 7885.28   3
   2  -4   8 95499.0 6690.87   3
   4   2   8 85192.2 5535.04   1
   2   4  10 3035.97 1333.69   1
  -4  -2  10 1986.90 1069.58   3
  -2  -4  10 2979.08 1439.55   3
   2  -4  10 4594.74 1623.24   3
   4   2  10 3948.97 1311.54   1
   2   4  12 51710.2 5737.32   1
   4   2  12 54785.5 5091.09   1
   2  -4  12 54622.6 6227.70   3
  -2  -4  12 47079.0 5946.62   3
  -4  -2  12 51846.4 5521.94   3
  -2  -4  14 790.224 827.020   3
   2   4  14 3098.02 1486.29   1
   2  -4  14 1700.74 1291.33   3
  -2   4  14 2354.10 1383.49   1
  -2   4  16 23713.2 4969.14   1
  -2  -4  16 24714.8 4793.36   3
  -4   3 -15 528.606 687.371   2
  -4  -3 -15 2155.60 1465.12   2
  -3  -4 -15 290.996 544.370   2
  -3   4 -15 614.757 781.718   2
  -3  -4 -13 1998.88 1362.57   2
  -4  -3 -13 1496.50 1117.70   2
  -3   4 -13 1711.00 1006.59   2
  -4   3 -13 1005.20 739.509   2
  -3   4 -11 2994.61 1168.57   2
  -4  -3 -11 6124.94 2051.78   2
  -4   3 -11 2682.28 1210.32   2
  -3  -4 -11 5436.16 1926.90   2
  -3   4  -9 5382.95 1496.00   2
  -4  -3  -9 5823.97 1793.78   2
  -3  -4  -9 4765.92 1621.06   2
  -4   3  -9 5524.65 1596.60   2
  -3   4  -7 12954.4 2045.45   2
  -4  -3  -7 10436.4 2132.17   2
  -4   3  -7 14380.3 2300.13   2
  -3  -4  -7 10310.5 2130.97   2
  -3   4  -5 13724.9 1868.84   2
  -4   3  -5 15061.2 2187.82   2
  -4  -3  -5 25050.4 2966.29   2
  -3  -4  -5 22720.1 2895.84   2
  -3   4  -3 30926.6 1841.41   1
  -4  -3  -3 29100.0 2909.49   2
  -3   4  -3 30931.1 2885.16   2
   3   4  -3 23967.5 3102.46   1
  -4   3  -3 35689.6 3501.69   2
  -3  -4  -3 24477.8 2360.55   2
  -4  -3  -1 33122.3 2577.93   2
  -3  -4  -1 31483.4 2133.96   2
   3   4  -1 31767.4 3468.11   1
   4   3  -1 32234.8 3711.78   1
   3  -4  -1 30159.6 2174.97   3
  -3  -4   1 31489.1 1538.13   2
   4   3   1 34168.4 3679.91   1
  -4  -3   1 33071.8 2475.25   2
   3   4   1 33566.2 3475.20   1
   3  -4   1 28761.1 2617.21   3
   4   3   3 27735.3 3235.65   1
   3   4   3 22631.0 2770.05   1
   3  -4   3 35749.6 3337.13   3
  -4   3   3 31283.8 1819.58   3
  -3  -4   3 29567.9 1585.62   2
   3   4   5 23901.2 3174.26   1
  -3  -4   5 14708.9 2848.54   3
   4   3   5 28606.2 3333.99   1
   3  -4   5 14950.9 2348.91   3
   4   3   7 9814.23 1994.03   1
   3   4   7 13835.9 2504.79   1
  -4  -3   7 14773.7 3022.19   3
  -3  -4   7 10610.2 2644.46   3
   3  -4   7 13725.5 2406.47   3
  -4  -3   9 7465.30 2203.03   3
  -3  -4   9 8229.79 2516.70   3
   3  -4   9 6838.30 1886.81   3
   4   3   9 7615.74 1932.54   1
   3   4   9 5878.01 1765.00   1
  -4  -3  11 2370.87 1277.41   3
   3   4  11 3177.44 1413.50   1
  -3  -4  11 4749.85 2007.90   3
   3  -4  11 2423.55 1197.77   3
   4   3  11 2603.24 1164.41   1
  -4  -3  13 1503.12 1039.35   3
  -3  -4  13 1298.66 1100.39   3
   4   3  13 859.340 858.564   1
   3   4  13 2557.28 1412.59   1
   3   4  15 61.6363 385.684   1
  -3  -4  15-372.394 707.152   3
  -4  -4 -16 22614.9 5107.58   2
  -4   4 -16 25930.8 4477.06   2
  -4  -4 -14 4825.49 2106.27   2
  -4   4 -14 6615.91 2098.73   2
  -4   4 -12 56581.2 5727.19   2
  -4  -4 -12 48389.5 6070.09   2
  -4  -4 -10 12612.7 2809.41   2
  -4   4 -10 14365.5 2635.34   2
  -4   4  -8 118251. 6897.67   2
  -4  -4  -8 98069.8 6995.92   2
  -4   4  -6 32072.8 3285.35   2
  -4  -4  -6 41422.4 4042.30   2
  -4   4  -4 186364. 3810.48   1
  -4  -4  -4 177578. 7462.16   2
   4   4  -2 110854. 7298.30   1
  -4  -4  -2 130688. 5528.79   2
  -4  -4   0 236041. 5964.01   2
   4   4   0 259526. 10714.8   1
  -4  -4   2 132493. 4322.93   2
   4   4   2 121212. 7210.63   1
   4   4   4 179324. 8658.59   1
   4  -4   4 263801. 9982.28   3
  -4  -4   6 46045.5 5359.29   3
   4   4   6 38283.8 4351.30   1
   4  -4   6 38959.1 4109.21   3
   4   4   8 99680.3 7158.83   1
  -4  -4   8 113479. 8902.55   3
   4   4  10 13245.3 2858.12   1
  -4  -4  10 12422.5 3030.22   3
  -4  -4  12 49927.8 6194.22   3
   4   4  12 56876.1 6158.52   1
  -4  -4  14 4398.62 1863.49   3
   4   4  14 5144.97 2053.83   1
  -5   0 -15 1270.80 1213.50   2
  -5   0 -13 1084.72 920.622   2
  -5   0 -11 882.297 949.875   2
   0   5 -11 389.760 440.105   2
   0   5  -9 1163.94 706.349   2
  -5   0  -9 1242.82 902.836   2
  -5   0  -7 9062.04 2092.54   2
   0   5  -7 9932.34 1491.26   2
   0   5  -5 152.348 211.825   1
  -5   0  -5-46.5434 178.397   2
   0   5  -3 18018.0 1184.25   2
   0   5  -3 15398.1 1935.98   1
  -5   0  -3 15828.3 2291.42   2
  -5   0  -1 3239.62 1159.13   2
   0   5  -1 2113.66 757.504   1
   0  -5   1 2292.44 1070.66   3
   0   5   1 886.737 617.425   1
   0  -5   3 22858.0 3509.19   3
   0   5   3 3178.84 1161.13   1
   0   5   5-103.957 342.705   1
   5   0   5-68.9427 218.903   1
   0  -5   5-3.41142 218.584   3
   0   5   7 631.308 650.150   1
   0  -5   7 13522.5 2933.63   3
   5   0   7 11047.1 1640.57   1
   0   5   9 98.5652 205.827   1
  -5   0   9 36.9082 424.075   3
   0  -5   9 1884.55 1113.99   3
   5   0   9 1305.43 632.793   1
   0   5  11 767.754 714.789   1
   0  -5  11 521.893 942.405   3
   0  -5  13 2864.41 1791.04   3
   0   5  13 140.027 357.684   1
   0   5  15 706.304 835.871   1
   0  -5  15 1027.54 1129.19   3
  -5  -1 -16 23449.2 4915.09   2
  -5   1 -16 23729.4 4658.61   2
  -5   1 -14 1066.88 935.675   2
  -5  -1 -14 2689.80 1607.89   2
  -1  -5 -12 41225.2 6378.76   2
  -5   1 -12 41400.5 5370.84   2
  -5  -1 -12 42470.3 5806.60   2
  -1   5 -12 40993.6 4379.99   2
  -5   1 -10 3616.57 1499.99   2
  -1  -5 -10 5161.29 2123.59   2
  -1   5 -10 3466.17 1114.53   2
   1   5 -10 15339.5 2593.41   2
  -5  -1 -10 19801.8 3853.56   2
  -5  -1  -8 91740.6 7263.16   2
  -5   1  -8 68540.0 5895.95   2
   1   5  -8 105388. 5728.54   2
  -1  -5  -8 82852.1 7536.70   2
  -1   5  -8 67980.5 4302.66   2
  -1  -5  -6 3261.88 1563.59   2
   1   5  -6 50764.2 3148.83   2
  -1   5  -6 2162.45 665.057   2
  -5  -1  -6 47763.4 4673.79   2
  -5   1  -6 3448.16 1174.99   2
  -1   5  -4 93922.2 3670.60   2
  -1   5  -4 100946. 4408.51   1
  -5   1  -4 92273.9 5802.78   2
   1   5  -4 109765. 5833.27   1
  -5  -1  -4 108126. 6245.43   2
  -1  -5  -4 102001. 6719.06   2
  -5  -1  -2 28146.6 2920.51   2
  -1   5  -2 13182.4 1421.22   2
  -5   1  -2 12298.1 2278.24   2
   1  -5  -2 3972.03 1199.29   3
  -1   5  -2 10155.7 1500.41   1
   1   5  -2 29226.6 2826.32   1
  -1   5   0 119962. 5463.14   1
   1   5   0 114453. 5622.12   1
   1  -5   0 109397. 6793.54   3
   1   5   0 110018. 2787.82   2
   1   5   2 13744.3 2199.63   1
   1  -5   2 15527.5 2571.62   3
   5   1   4 106042. 5556.57   1
   1  -5   4 97875.7 6758.04   3
   1   5   4 105557. 6493.28   1
  -1  -5   4 113819. 8088.71   3
  -1   5   4 95216.9 5895.06   1
  -1  -5   6 66848.8 6358.16   3
  -1   5   6 3137.60 1187.14   1
   1   5   6 4275.62 1626.24   1
  -5   1   6 3465.80 1144.53   3
   5   1   6 51468.7 4051.60   1
   1  -5   6 2723.76 1148.20   3
   5  -1   8 74663.7 3635.91   1
   1   5   8 77043.1 6619.81   1
  -5  -1   8 70935.9 6432.78   3
   1  -5   8 52281.3 5439.28   3
  -5   1   8 72852.9 4371.61   3
  -1  -5   8 93465.9 7985.22   3
  -1   5   8 65839.7 5828.77   1
   5   1   8 82496.3 5453.91   1
  -1   5  10 2636.42 1282.50   1
   1   5  10 2700.21 1323.50   1
   5   1  10 11511.4 2380.76   1
  -5  -1  10 3640.78 1395.45   3
   1  -5  10 2112.46 1266.13   3
  -1  -5  10 14235.9 3220.03   3
   1   5  12 34686.0 4931.13   1
  -1   5  12 40563.1 5301.86   1
  -1  -5  12 48931.5 6139.28   3
   1  -5  12 34931.2 5293.95   3
  -1   5  14 2462.07 1395.01   1
   1   5  14 2218.61 1332.48   1
  -1  -5  14 5263.08 2455.81   3
   1  -5  14 1150.25 1123.75   3
   1  -5  16 22123.3 4956.64   3
  -1   5  16 21200.1 4460.00   1
  -1  -5  16 17211.0 4290.52   3
   1   5  16 12210.7 3234.50   1
  -5   2 -15 722.172 809.296   2
  -2  -5 -15 1135.38 1299.78   2
  -5  -2 -15-81.1484 519.379   2
  -2  -5 -13-207.847 306.578   2
  -2   5 -13 176.279 399.916   2
  -5  -2 -13 784.689 905.467   2
  -5   2 -13 812.666 861.693   2
  -2  -5 -11 314.831 470.173   2
  -5   2 -11 993.105 770.970   2
  -5  -2 -11 241.079 520.723   2
  -2   5 -11 778.261 525.326   2
  -5  -2  -9 973.818 881.151   2
  -2   5  -9 2448.45 930.173   2
  -2  -5  -9 1.93873 417.472   2
  -5   2  -9 2999.62 1272.46   2
  -2   5  -7 300.739 321.584   2
  -2  -5  -7-164.765 365.175   2
  -5  -2  -7 441.056 510.097   2
  -5   2  -7 509.162 474.115   2
  -5  -2  -5 13971.2 2421.84   2
  -2   5  -5 8775.23 1354.80   2
  -5   2  -5 7256.47 1695.93   2
  -2  -5  -5 392.434 463.797   2
  -2   5  -5 7279.16 1043.28   1
   2  -5  -5 1317.18 454.588   3
   2   5  -5 11396.8 2148.02   1
  -2   5  -3 321.154 235.538   2
  -5   2  -3 307.957 306.571   2
  -2  -5  -3 715.743 387.487   2
   2   5  -3 1051.81 626.067   1
   2  -5  -3 365.280 278.245   3
  -2   5  -3 101.940 131.240   1
  -5  -2  -3 608.372 431.410   2
  -5  -2  -1 7434.42 1429.04   2
  -2   5  -1 2501.81 806.449   1
   2   5  -1 6399.12 1495.84   1
   2  -5  -1 1323.27 694.286   3
  -2  -5  -1 686.006 330.342   2
  -2   5   1 1664.37 692.601   1
   2  -5   1 2454.58 1055.49   3
  -2   5   3 551.250 439.450   1
   2   5   3 589.425 500.203   1
   5   2   3 414.954 394.087   1
   2  -5   3 520.480 457.677   3
  -2  -5   5 13704.9 907.506   2
  -2  -5   5 13086.5 2788.13   3
   2  -5   5 14458.6 2474.38   3
   5   2   5 13310.1 2321.21   1
   2   5   5 983.344 893.874   1
  -2   5   5 1483.18 767.219   1
   2  -5   7 83.9855 303.770   3
  -2  -5   7-68.9105 377.961   3
   5   2   7 392.352 348.177   1
  -5  -2   7 97.2056 569.095   3
   2   5   7-138.573 353.480   1
   5   2   9 957.338 780.929   1
   2   5   9 43.8373 262.706   1
  -2  -5   9 687.876 939.499   3
  -5  -2   9-141.590 375.317   3
  -2   5   9 895.082 721.189   1
   5   2  11-218.851 329.558   1
   2   5  11 429.135 652.417   1
  -5  -2  11 219.735 787.925   3
  -2  -5  11-68.7278 285.278   3
   2  -5  11 1997.65 1215.13   3
  -2   5  11 240.508 475.074   1
   2   5  13 517.594 646.790   1
  -2  -5  13-197.123 639.857   3
  -2   5  13 676.742 840.419   1
   2  -5  13 750.480 849.946   3
  -2   5  15 1035.87 1132.55   1
   2   5  15 305.571 707.887   1
   2  -5  15 1665.42 1421.75   3
  -2  -5  15 577.547 858.909   3
  -3  -5 -16 33581.8 6432.76   2
  -5  -3 -16 28104.3 5684.99   2
  -5   3 -16 27364.6 4799.95   2
  -5   3 -14 10685.1 2792.81   2
  -3  -5 -14 7186.56 2628.09   2
  -5  -3 -14 7132.00 2602.57   2
  -3   5 -14 12127.3 2779.22   2
  -3   5 -12 81776.4 6593.93   2
  -3  -5 -12 58384.8 6798.64   2
  -5  -3 -12 75548.6 7799.72   2
  -5   3 -12 71733.6 6821.80   2
  -5   3 -10 40470.3 4706.26   2
  -5  -3 -10 29628.5 4401.29   2
  -3  -5 -10 26947.0 4195.47   2
  -3   5 -10 38796.9 4065.74   2
  -5   3  -8 179416. 9222.73   2
  -3  -5  -8 159646. 9398.58   2
  -3   5  -8 189080. 8048.02   2
  -5  -3  -8 151371. 9108.27   2
  -3   5  -6 89232.2 5088.65   2
  -5   3  -6 87707.7 5956.02   2
  -5  -3  -6 78377.7 5961.96   2
  -3  -5  -6 72334.3 5668.30   2
   3   5  -4 268997. 10967.1   1
  -5   3  -4 299657. 10992.6   2
  -3   5  -4 300044. 5870.81   1
  -5  -3  -4 277193. 10267.9   2
  -3   5  -4 287163. 8575.79   2
  -3  -5  -4 295285. 9469.83   2
  -5  -3  -2 141189. 6366.71   2
  -5   3  -2 162038. 9541.29   2
  -3   5  -2 160267. 7757.63   2
   3   5  -2 143269. 7757.97   1
   3  -5  -2 120979. 4421.99   3
  -3   5  -2 132597. 4959.78   1
  -3  -5  -2 129735. 5017.51   2
   5   3  -2 160609. 9816.77   1
  -5  -3   0 328579. 8629.58   2
   3   5   0 342113. 11782.4   1
   3  -5   0 354894. 9426.39   3
   5   3   0 327662. 12685.7   1
  -3  -5   0 354729. 5444.92   2
  -3   5   0 334974. 8975.17   1
   3   5   2 135555. 7279.86   1
   5   3   2 144614. 8117.71   1
   3  -5   2 126084. 6379.06   3
   3   5   4 271981. 10729.9   1
   5   3   4 266630. 10985.1   1
  -5   3   4 285106. 4737.24   3
   3   5   6 82650.1 6399.64   1
  -3  -5   6 70574.3 6685.77   3
   3  -5   6 91753.1 6490.82   3
   5   3   6 79576.0 6129.31   1
  -3  -5   8 174371. 11156.4   3
   3   5   8 166023. 9901.82   1
   5   3   8 177258. 9191.76   1
  -5  -3   8 181226. 11123.8   3
   3  -5   8 189828. 9946.23   3
   3   5  10 26931.7 4311.00   1
   5   3  10 28857.2 4032.93   1
  -3  -5  10 29462.0 4831.51   3
  -5  -3  10 33300.6 4952.37   3
   3  -5  10 44970.3 5268.01   3
   5   3  12 68996.2 6530.71   1
   3  -5  12 90190.4 8158.77   3
   3   5  12 72080.4 7446.21   1
  -5  -3  12 75481.9 7156.54   3
  -3  -5  12 72672.7 7726.54   3
  -3  -5  14 7483.54 2565.20   3
   3   5  14 11974.9 3152.87   1
  -3   5  14 13627.5 3805.02   1
  -3  -5  16 25207.3 4981.35   3
  -3   5  16 41315.1 7188.24   1
  -4   5 -15-816.253 765.618   2
  -4  -5 -15 332.596 584.975   2
  -5  -4 -15 91.2747 379.093   2
  -5   4 -15 28.1643 245.576   2
  -4  -5 -13 1085.92 1056.08   2
  -5  -4 -13-219.609 460.954   2
  -4   5 -13 815.191 852.509   2
  -5   4 -13-178.548 528.181   2
  -5  -4 -11-415.294 649.955   2
  -4  -5 -11-19.3189 344.520   2
  -5   4 -11-207.619 401.586   2
  -4   5 -11 503.413 531.176   2
  -4  -5  -9 393.487 548.421   2
  -5   4  -9 1196.12 789.312   2
  -4   5  -9 255.999 316.905   2
  -5  -4  -9 583.414 504.662   2
  -5   4  -7 1685.72 863.799   2
  -4  -5  -7 1464.83 978.874   2
  -5  -4  -7 573.767 803.668   2
  -4   5  -7 2041.96 863.578   2
  -4   5  -5 1364.00 674.256   2
  -4  -5  -5 743.997 588.057   2
  -5   4  -5 1341.31 765.442   2
  -5  -4  -5 2771.87 1077.08   2
   5   4  -3 4896.13 1986.44   1
  -4   5  -3 1283.36 490.492   1
  -5   4  -3 2431.93 1090.83   2
  -5  -4  -3 6475.94 1500.45   2
   4   5  -3 5619.28 1698.10   1
  -4   5  -3 3446.43 1255.20   2
  -4  -5  -3 5249.80 1194.00   2
   4   5  -1 894.202 571.154   1
  -5  -4  -1 415.989 338.856   2
   5   4  -1 734.597 720.712   1
  -4  -5  -1 542.664 318.530   2
  -5  -4   1 122.313 124.158   2
  -4  -5   1 222.122 166.679   2
   5   4   1 198.910 379.281   1
   4   5   1 220.658 289.398   1
   4  -5   1 519.243 431.971   3
  -4  -5   3 6096.23 640.338   2
   4  -5   3 2669.98 1105.49   3
  -5  -4   3 7312.89 1416.73   2
  -4  -5   3 967.291 274.408   2
   4   5   3 2807.10 1358.59   1
   5   4   3 6752.48 1875.15   1
   4   5   5 925.281 833.757   1
   5   4   5 1621.34 1123.92   1
   4  -5   5 1322.70 769.044   3
   4   5   7 769.147 864.514   1
  -4  -5   7 912.944 1077.41   3
   5   4   7 1139.41 990.999   1
  -5  -4   7 273.192 478.743   3
   4  -5   7 2557.60 1155.26   3
   5   4   9 12.7923 305.871   1
  -5  -4   9 747.786 875.516   3
  -4  -5   9-407.832 658.770   3
   4  -5   9-257.601 452.551   3
   4   5   9-29.4102 369.004   1
   5   4  11-293.787 570.332   1
   4   5  11-254.879 432.168   1
  -5  -4  11 31.8622 271.114   3
  -4  -5  11 524.171 569.351   3
   5   4  13 304.951 481.671   1
  -5  -4  13-22.0857 589.146   3
  -4  -5  13-85.6373 623.022   3
   4   5  13 1164.88 918.533   1
  -4  -5  15 826.142 982.590   3
  -5  -5 -14 457.234 786.312   2
  -5   5 -14-347.465 529.846   2
  -5  -5 -12 12193.9 3096.87   2
  -5   5 -12 16492.5 3291.73   2
  -5  -5 -10 3500.29 1543.82   2
  -5   5 -10 1399.54 881.379   2
  -5   5  -8 14838.7 2576.24   2
  -5  -5  -8 14383.1 2825.44   2
  -5   5  -6 2079.98 905.789   2
  -5  -5  -6 18445.8 2942.89   2
  -5   5  -4 11163.5 2234.82   2
  -5  -5  -4 11660.4 2091.79   2
   5   5  -2 28117.7 4063.89   1
  -5  -5  -2 31713.6 2957.77   2
  -5  -5   0 9950.36 1327.45   2
   5   5   0 8571.37 2195.98   1
  -5  -5   2 29982.3 2014.48   2
   5   5   2 30261.3 4041.71   1
   5   5   4 12979.1 2753.26   1
  -5  -5   4 15623.0 1684.42   2
   5   5   6 20421.0 3712.00   1
  -5  -5   8 18961.2 3766.72   3
   5   5   8 14483.1 3062.58   1
   5   5  10 3621.40 1788.12   1
  -5  -5  10 2763.52 1646.97   3
   5   5  12 14980.9 3513.30   1
  -5  -5  12 12034.7 3289.26   3
  -5  -5  14 288.938 399.091   3
  -6   0 -14 4572.01 1963.88   2
  -6   0 -12 59121.9 6884.23   2
  -6   0 -10 20758.3 3901.90   2
  -6   0  -8 109619. 8028.35   2
  -6   0  -6 34807.2 4073.67   2
   0   6  -6 37646.4 3389.95   1
   0   6  -6 43312.7 2687.29   2
  -6   0  -4 148639. 7836.82   2
   0   6  -4 153618. 6740.52   1
   0   6  -4 160141. 3919.74   2
   0   6  -2 42774.2 1704.58   2
  -6   0  -2 45463.1 4366.81   2
   0   6  -2 44282.4 3451.33   1
   0  -6   0 190046. 10177.1   3
   0   6   0 194388. 8037.31   1
   0  -6   2 46010.4 5250.80   3
   0   6   2 48659.9 4276.66   1
   0   6   4 185560. 9060.17   1
   0  -6   4 146400. 9499.17   3
   0   6   6 35177.4 4294.78   1
   0  -6   6 37679.8 4937.30   3
   6   0   6 40762.3 3623.23   1
   0   6   8 125858. 8748.85   1
  -6   0   8 113793. 7514.77   3
   0  -6   8 103848. 8536.64   3
   6   0   8 117768. 5831.12   1
   0   6  10 15316.6 3215.64   1
   0  -6  10 26663.0 4436.32   3
   0   6  12 54136.9 6311.93   1
   0  -6  12 53225.7 6697.76   3
   0   6  14 7511.70 2538.88   1
   0  -6  14 6611.52 2561.68   3
  -6  -1 -15 1412.92 1238.06   2
  -6   1 -15 573.484 810.140   2
  -6  -1 -13 3069.97 1672.75   2
  -6   1 -13 3618.60 1699.92   2
  -6  -1 -11 6566.20 2308.91   2
  -6   1 -11 7013.26 2258.44   2
  -6   1  -9 10890.7 2601.44   2
  -1   6  -9 13937.6 2105.82   2
  -6  -1  -9 13151.4 2985.66   2
  -6  -1  -7 22131.1 3506.23   2
  -1   6  -7 30384.0 2619.33   2
  -6   1  -7 22731.3 3397.34   2
  -1   6  -5 32539.9 2384.41   2
  -6  -1  -5 40681.8 4272.50   2
  -6   1  -5 32864.2 3836.76   2
   1   6  -5 41579.4 3875.42   1
  -1   6  -5 35624.1 2905.35   1
  -1   6  -3 52166.2 2649.96   2
  -6  -1  -3 47852.7 4323.42   2
  -6   1  -3 47108.3 4604.24   2
  -1   6  -3 52354.7 3601.52   1
   1  -6  -3 56611.4 5002.96   3
   1   6  -3 44572.7 3804.58   1
  -1   6  -1 60942.6 4109.11   1
  -6  -1  -1 56574.2 4631.33   2
  -6   1  -1 73418.1 6471.61   2
   1   6  -1 54007.6 4223.54   1
   1  -6  -1 60321.0 5432.17   3
  -1   6   1 61376.4 4523.07   1
   1   6   1 61872.7 4787.63   1
   1  -6   1 64564.5 5732.55   3
   1   6   3 51987.7 4722.30   1
   1  -6   3 59301.4 5689.89   3
  -1   6   3 53090.8 4499.93   1
  -1  -6   3 50394.8 5553.08   3
   6   1   3 47072.6 4281.51   1
  -1   6   5 39947.0 4201.83   1
   1   6   5 40929.9 4564.83   1
  -1  -6   5 36866.5 4883.80   3
   1  -6   5 28371.8 4042.10   3
   6   1   5 39610.3 3638.87   1
   1   6   7 24649.1 3844.98   1
   1  -6   7 29534.0 4248.65   3
  -1  -6   7 20494.1 3756.53   3
   6   1   7 22285.4 2867.52   1
  -1   6   7 23101.0 3457.89   1
   1   6   9 17181.9 3434.09   1
  -6  -1   9 15551.9 2975.60   3
   6   1   9 13611.8 2319.40   1
  -1  -6   9 13601.1 3204.43   3
   1  -6   9 11372.3 2820.21   3
  -1   6   9 13476.9 2834.30   1
  -1   6  11 4157.55 1702.06   1
   1   6  11 6110.08 2094.83   1
  -1  -6  11 4530.37 1897.51   3
   1  -6  11 8630.68 2637.63   3
  -1   6  13 1681.92 1146.44   1
   1   6  13 2146.95 1399.48   1
  -1  -6  13 2883.78 1642.07   3
   1  -6  13 3221.53 1697.86   3
  -1  -6  15 1440.26 1362.13   3
  -1   6  15 2538.81 1535.73   1
   1   6  15 924.233 1049.59   1
   1  -6  15 335.127 606.457   3
  -6   2 -14 4416.44 2002.41   2
  -6  -2 -14 5010.94 2274.93   2
  -2  -6 -14 2327.78 1743.64   2
  -2  -6 -12 31617.6 5614.81   2
  -6  -2 -12 38709.4 5745.18   2
  -6   2 -12 36130.2 5160.28   2
  -6  -2 -10 10166.1 2841.57   2
  -2  -6 -10 6227.05 2246.86   2
  -6   2 -10 8570.34 2345.13   2
  -2   6 -10 9641.16 1953.60   2
  -6   2  -8 64798.4 5943.32   2
  -2  -6  -8 63616.3 6484.84   2
  -2   6  -8 65392.1 4524.52   2
  -6  -2  -8 63619.5 6363.11   2
  -2   6  -6 21511.5 2304.17   2
  -6  -2  -6 32485.9 4157.44   2
  -6   2  -6 21065.0 3148.71   2
   2   6  -6 33274.0 4045.64   1
  -6  -2  -4 90078.7 6161.61   2
  -2   6  -4 116380. 4862.07   2
  -6   2  -4 107979. 7147.95   2
  -2   6  -4 98794.7 4461.18   1
   2   6  -4 87351.5 5842.56   1
   2  -6  -4 82298.4 4777.42   3
  -2  -6  -4 80942.2 5508.53   2
  -6  -2  -2 75581.9 5163.99   2
  -2   6  -2 20860.6 2382.26   1
  -6   2  -2 50551.6 5512.15   2
  -2   6  -2 12239.1 1810.05   2
   2   6  -2 70036.1 5213.90   1
  -2   6   0 98331.1 5350.62   1
  -6  -2   0 114756. 6615.18   2
   2  -6   0 104036. 6444.72   3
   2   6   0 119959. 6811.56   1
   2  -6   2 67684.3 5473.97   3
   6   2   2 76220.7 5918.17   1
   2   6   4 88973.6 6445.62   1
  -2  -6   4 96441.9 7891.51   3
  -2   6   4 77866.6 5428.62   1
   2  -6   4 93973.8 6589.09   3
   6   2   4 95979.5 6341.25   1
  -2   6   6 5792.10 1631.75   1
  -2  -6   6 34138.5 4832.96   3
   2  -6   6 27861.5 3811.49   3
   2   6   6 7762.19 2198.53   1
   6   2   6 33049.8 3877.35   1
   2   6   8 69526.5 6781.08   1
  -6  -2   8 56803.1 6120.16   3
  -2  -6   8 64957.0 6839.88   3
   2  -6   8 59045.5 5891.03   3
   6   2   8 61398.0 5408.14   1
  -2   6   8 55970.9 5568.50   1
  -2   6  10 3179.98 1408.97   1
   2   6  10 6411.32 2197.42   1
  -6  -2  10 2809.94 1362.94   3
   6   2  10 5896.58 1820.20   1
  -2  -6  12 30694.8 5081.81   3
   2   6  12 33977.8 5267.98   1
   2  -6  12 35161.5 5385.69   3
  -2   6  12 32888.8 5092.39   1
  -2   6  14 1144.21 1043.07   1
  -2  -6  14 2926.91 1784.25   3
   2   6  14 2532.64 1409.68   1
   2  -6  14 5507.20 2339.41   3
  -3  -6 -15 697.772 950.230   2
  -6  -3 -15 1831.81 1470.73   2
  -6   3 -15 603.964 713.013   2
  -3  -6 -13 1406.86 1141.60   2
  -6  -3 -13 1793.71 1375.65   2
  -6   3 -13 1382.13 1030.50   2
  -6  -3 -11 2879.08 1491.96   2
  -3  -6 -11 3077.58 1593.20   2
  -3   6 -11 2514.77 1083.91   2
  -6   3 -11 3420.39 1506.87   2
  -3  -6  -9 3684.52 1551.49   2
  -6  -3  -9 3437.77 1525.69   2
  -3   6  -9 6113.82 1594.50   2
  -6   3  -9 4303.16 1565.47   2
  -3   6  -7 8661.89 1709.18   2
  -3  -6  -7 8146.02 2116.79   2
  -6   3  -7 5278.23 1628.07   2
  -6  -3  -7 10809.1 2475.85   2
  -6  -3  -5 13083.4 2471.01   2
  -3   6  -5 17044.3 2157.02   2
  -6   3  -5 15669.2 2779.16   2
  -3  -6  -5 10614.9 2020.98   2
   3   6  -5 12455.3 2483.91   1
  -3  -6  -3 17185.9 2054.97   2
  -6  -3  -3 20772.1 2800.39   2
  -3   6  -3 18127.3 1977.22   1
  -3   6  -3 17123.5 2219.14   2
  -6   3  -3 20107.1 3341.94   2
   3  -6  -3 17907.2 1722.75   3
   3   6  -3 22689.7 3224.98   1
  -3   6  -1 22472.2 2407.62   1
  -6  -3  -1 19556.1 2510.66   2
   3   6  -1 19460.3 2932.41   1
   3  -6  -1 21533.1 2421.91   3
  -3  -6  -1 19537.0 1605.37   2
   6   3  -1 21811.3 3796.89   1
  -6  -3   1 21060.5 2685.17   2
   3   6   1 16896.0 2751.58   1
   3  -6   1 19138.5 2603.41   3
   6   3   1 21966.4 3413.42   1
  -3   6   1 20873.9 2473.60   1
   3   6   3 17436.9 2876.31   1
   3  -6   3 15610.4 2551.37   3
  -3   6   3 18091.7 2557.39   1
   6   3   3 21233.7 3297.49   1
   3   6   5 14020.3 2715.31   1
   3  -6   5 18021.1 2930.80   3
   6   3   5 14646.1 2750.35   1
  -3  -6   5 13833.1 3040.85   3
  -3   6   5 14315.9 2541.50   1
   3   6   7 10146.4 2504.50   1
  -3  -6   7 7182.72 2355.06   3
   3  -6   7 6916.50 1983.77   3
   6   3   7 9048.36 2296.08   1
  -3   6   7 8113.00 2111.61   1
  -3  -6   9 3306.52 1556.75   3
  -6  -3   9 6315.61 2250.56   3
   6   3   9 5755.06 1826.40   1
   3   6   9 6867.13 2214.24   1
   3  -6   9 3443.99 1495.17   3
  -3   6   9 5097.02 1861.76   1
   6   3  11 607.035 555.104   1
  -6  -3  11 2199.00 1271.36   3
  -3  -6  11 3535.02 1709.42   3
   3  -6  11 3148.82 1524.80   3
   3   6  11 2103.08 1324.22   1
  -3   6  11 1979.88 1269.43   1
  -3   6  13 2028.40 1408.91   1
  -3  -6  13 1593.24 1295.57   3
   3   6  13 2244.01 1503.60   1
   3  -6  13 1501.83 1168.12   3
  -3   6  15 563.485 874.268   1
   3   6  15 49.3972 208.565   1
  -3  -6  15 996.132 1048.39   3
  -4  -6 -14 3866.30 1962.80   2
  -6  -4 -14 4053.05 2010.83   2
  -6   4 -14 2567.49 1431.22   2
  -6   4 -12 29134.0 4542.27   2
  -4  -6 -12 25482.8 4588.89   2
  -6  -4 -12 23152.0 4395.07   2
  -4   6 -12 29784.3 4198.70   2
  -6   4 -10 8525.37 2293.04   2
  -4  -6 -10 6079.69 2051.69   2
  -6  -4 -10 7818.19 2331.78   2
  -4   6 -10 7185.72 1902.97   2
  -4   6  -8 57975.0 4885.18   2
  -6   4  -8 48123.8 5068.16   2
  -4  -6  -8 54715.1 5668.14   2
  -6  -4  -8 46358.0 5125.84   2
  -4   6  -6 8061.38 1683.70   2
  -6   4  -6 8259.27 2042.92   2
  -4  -6  -6 9176.25 2027.86   2
  -6  -4  -4 70031.0 5509.54   2
  -4   6  -4 69695.4 4932.57   2
  -6   4  -4 73100.0 6316.53   2
   4   6  -4 62769.6 5892.37   1
  -4  -6  -4 74208.2 4804.80   2
  -4   6  -2 10761.8 1536.48   1
  -6  -4  -2 10368.6 1786.80   2
  -4   6  -2 14721.6 2754.05   2
   4   6  -2 9814.60 2244.50   1
   4  -6  -2 7956.27 1243.50   3
  -6   4  -2 10139.5 2682.80   2
  -4  -6  -2 10921.8 1506.29   2
   6   4  -2 14346.4 3323.96   1
  -6  -4   0 73888.2 4531.35   2
   4   6   0 74006.9 6092.08   1
   4  -6   0 77577.5 4801.47   3
   6   4   0 75901.4 6794.96   1
  -4  -6   0 73377.7 2479.28   2
  -4   6   0 83920.2 4928.00   1
  -6  -4   2 11190.2 1783.15   2
   6   4   2 11892.5 2634.54   1
   4  -6   2 10231.0 2074.80   3
   4   6   2 8732.80 2166.26   1
   6   4   4 59473.6 5845.51   1
   4   6   4 61786.1 5730.70   1
   4  -6   4 72261.3 5779.07   3
   4   6   6 10376.4 2548.32   1
   6   4   6 15657.5 3151.15   1
  -4  -6   6 12470.2 2980.84   3
   4  -6   6 6961.17 1942.36   3
   4   6   8 54104.7 6061.23   1
  -6  -4   8 49995.9 5903.40   3
   6   4   8 49720.4 5702.00   1
   4  -6   8 46433.7 5311.22   3
  -4  -6   8 45775.5 5958.48   3
  -6  -4  10 8243.30 2780.66   3
   6   4  10 6100.77 2098.50   1
   4  -6  10 6510.95 2173.37   3
   4   6  10 5026.05 1988.73   1
   4   6  12 31977.6 5326.36   1
   6   4  12 29171.6 4662.55   1
  -6  -4  12 33526.5 5094.97   3
  -4  -6  12 31711.5 5222.28   3
  -4  -6  14 2523.28 1615.61   3
   4   6  14 8005.83 2776.58   1
  -4   6  14 2763.81 1892.53   1
  -5  -6 -13-181.958 511.736   2
  -6  -5 -13 77.6525 703.786   2
  -6   5 -13 11.6157 291.810   2
  -5   6 -13 842.529 791.348   2
  -5  -6 -11 414.297 572.293   2
  -6  -5 -11 36.7513 342.378   2
  -5   6 -11 264.994 467.300   2
  -6   5 -11 12.2898 328.750   2
  -5  -6  -9 753.068 784.214   2
  -6  -5  -9-141.777 222.049   2
  -5   6  -9 295.392 415.335   2
  -6   5  -9 178.448 317.043   2
  -5   6  -7 829.287 614.109   2
  -6   5  -7 805.751 658.123   2
  -5  -6  -7 396.636 445.435   2
  -6  -5  -7 6.15641 151.271   2
  -5  -6  -5 1039.58 707.174   2
  -6  -5  -5 1706.51 1016.41   2
  -6   5  -5 3.21518 49.9647   2
  -5   6  -5 595.323 543.019   2
   5   6  -3 3924.96 1612.48   1
  -5  -6  -3 2542.48 937.711   2
  -6  -5  -3 3302.69 1123.92   2
  -5   6  -3 1259.67 847.963   2
  -6   5  -3 1769.71 1039.12   2
   6   5  -3 3215.65 1866.97   1
   6   5  -1 625.236 700.986   1
   5   6  -1 203.333 223.706   1
  -5  -6  -1 326.048 236.464   2
  -6  -5  -1 119.345 87.4110   2
  -5   6  -1 433.298 429.528   1
   5   6   1 448.369 533.589   1
  -6  -5   1 144.183 137.943   2
   6   5   3 4165.27 1685.73   1
  -6  -5   3 2548.05 723.503   2
   5   6   3 3470.07 1562.39   1
   5  -6   3 959.537 963.940   3
   5   6   5 768.003 729.944   1
   5  -6   5 204.067 549.279   3
   6   5   5 629.979 821.538   1
   5   6   7 482.277 683.023   1
  -6  -5   7 312.537 463.141   3
  -5  -6   7 145.395 378.728   3
   6   5   7 1270.18 1135.15   1
   6   5   9-43.8595 194.290   1
  -5  -6   9 165.411 97.6043   3
  -6  -5   9-116.378 484.473   3
   5   6  11-435.542 642.910   1
   6   5  11-433.914 357.724   1
  -6  -5  11-266.099 663.700   3
  -5  -6  11 254.306 483.443   3
   5   6  13 419.604 295.230   1
  -6  -5  13-132.710 407.069   3
  -5  -6  13 98.4202 413.370   3
  -6  -6 -12 21532.6 4183.34   2
  -6   6 -12 35366.7 4945.79   2
  -6   6 -10 13797.4 2954.58   2
  -6  -6 -10 12421.0 2865.63   2
  -6   6  -8 54056.0 5457.06   2
  -6  -6  -8 52839.8 5549.72   2
  -6   6  -6 26353.8 3707.13   2
  -6  -6  -6 23353.7 3376.01   2
  -6   6  -4 101867. 7706.91   2
  -6  -6  -4 95142.4 6292.85   2
  -6   6  -2 50375.5 6478.94   2
   6   6  -2 60891.8 6547.01   1
  -6  -6  -2 66124.4 4554.17   2
   6   6   0 121737. 8972.50   1
   6   6   2 67022.3 6753.81   1
   6   6   4 87901.1 7802.92   1
   6   6   6 25874.6 4400.99   1
   6   6   8 53410.3 6517.54   1
  -6  -6   8 53474.4 6634.80   3
  -6  -6  10 11979.1 3259.58   3
   6   6  10 13707.4 3515.28   1
   6   6  12 25055.7 4974.86   1
  -6  -6  12 27316.6 4941.00   3
  -7   0 -15-49.8159 223.479   2
  -7   0 -13 810.057 937.477   2
  -7   0 -11 3724.25 1792.94   2
  -7   0  -9 502.631 546.214   2
  -7   0  -7-35.7724 266.607   2
  -7   0  -5 6728.08 1818.19   2
   0   7  -5 3751.83 1172.98   1
   0   7  -3-7.24540 288.935   1
  -7   0  -3 1.45931 97.9808   2
   0   7  -1 1252.14 800.387   1
   0  -7  -1-294.816 341.804   3
  -7   0  -1 1189.56 875.258   2
   0   7  -1 142.454 130.983   2
   0   7   1 103.446 329.783   1
   0  -7   1 1997.84 1445.06   3
   0  -7   3 521.100 500.727   3
   0   7   3 89.7970 237.191   1
   0  -7   5 6084.97 2036.92   3
   0   7   5 83.9825 147.775   1
   0   7   7 103.638 521.926   1
   0  -7   7 246.240 421.232   3
   0   7   9-119.389 291.134   1
   0  -7   9 2069.92 1253.73   3
   0   7  11 180.678 555.415   1
   0  -7  11 1206.66 987.280   3
   0   7  13 391.124 624.903   1
   0  -7  13 783.723 914.814   3
   0   7  15 327.031 649.654   1
   0  -7  15 1289.35 1323.49   3
  -7  -1 -14 4634.92 2161.41   2
  -7   1 -14 6125.57 2408.95   2
  -7  -1 -12 37968.8 5813.75   2
  -7   1 -12 44005.8 6074.89   2
  -7   1 -10 25183.7 4304.36   2
  -7  -1 -10 11185.8 2990.92   2
  -7  -1  -8 67719.2 6698.42   2
  -7   1  -8 77727.4 7018.53   2
  -7  -1  -6 23954.2 3628.31   2
   1   7  -6 24955.4 3282.31   1
  -7  -1  -4 92237.6 6649.61   2
  -7   1  -4 113794. 7799.90   2
  -1   7  -4 116863. 5885.65   1
   1   7  -4 100173. 6211.28   1
   1  -7  -4 127504. 8022.64   3
  -7  -1  -2 35952.9 4065.91   2
   1   7  -2 41085.1 4037.69   1
  -1   7  -2 28501.0 2049.65   2
  -7   1  -2 41411.5 4920.01   2
  -1   7  -2 36805.4 3562.07   1
   1  -7  -2 32819.9 4232.34   3
  -1   7   0 150848. 7623.68   1
  -7  -1   0 123792. 7989.77   2
   1   7   0 133083. 7405.46   1
   1  -7   0 147333. 9313.68   3
  -1   7   2 35178.7 3821.84   1
   1   7   2 33723.3 3994.20   1
  -1  -7   2 27891.7 4366.94   3
  -1   7   4 108983. 7158.71   1
   1   7   4 131535. 8398.30   1
  -1  -7   4 102667. 8588.03   3
   1  -7   4 121217. 8813.39   3
  -1   7   6 19077.8 3187.12   1
   1   7   6 26526.9 4055.17   1
  -1  -7   6 24437.6 4167.99   3
   7   1   6 25392.7 3319.82   1
  -1   7   8 77596.5 6878.82   1
   1   7   8 79376.7 7485.43   1
  -1  -7   8 63323.1 6910.77   3
   1  -7   8 89584.4 8082.78   3
  -7  -1   8 78311.3 6703.96   3
   7   1   8 68372.7 5443.94   1
  -1   7  10 10556.7 2685.65   1
   1   7  10 11927.0 3071.03   1
  -1  -7  10 10533.8 2942.72   3
  -1   7  12 34741.0 5337.08   1
   1   7  12 38794.1 5780.18   1
  -1  -7  12 32111.5 5261.80   3
   1  -7  12 40306.6 5941.21   3
  -1   7  14 3421.42 1829.26   1
   1   7  14 5665.57 2351.29   1
  -1  -7  14 5905.60 2443.83   3
   1  -7  14 10503.8 3346.97   3
  -7  -2 -13 573.442 770.472   2
  -7   2 -13 135.437 247.615   2
  -7  -2 -11 1287.36 1177.86   2
  -7   2 -11 1629.53 1101.80   2
  -7   2  -9 3274.31 1495.24   2
  -7  -2  -9 2541.89 1336.15   2
  -7  -2  -7 5668.41 1899.57   2
  -7   2  -7 6023.53 1886.23   2
  -2   7  -5 6610.38 1192.93   2
   2   7  -5 4984.37 1481.62   1
  -7   2  -5 7210.31 2008.76   2
  -7  -2  -5 6858.23 1898.77   2
  -7  -2  -3 10345.7 2135.61   2
  -2   7  -3 7060.64 1189.88   2
  -2   7  -3 8887.89 1581.01   1
   2  -7  -3 8884.33 1843.73   3
   2   7  -3 10589.7 2130.03   1
  -7   2  -3 8832.91 2332.58   2
  -2   7  -1 10115.9 1875.32   1
  -7  -2  -1 8862.43 1942.92   2
   2   7  -1 9445.03 2009.16   1
   2  -7  -1 9427.72 2028.99   3
  -7   2  -1 10158.2 2703.11   2
  -2   7   1 9617.08 1865.44   1
  -7  -2   1 9116.04 2102.75   2
   2   7   1 10081.4 2152.93   1
   2  -7   1 9123.15 2103.05   3
  -2   7   3 6596.74 1650.06   1
   2   7   3 10536.9 2337.59   1
   2  -7   3 8986.11 2245.13   3
  -2  -7   3 9642.33 2737.59   3
   7   2   3 9824.68 2238.59   1
   7   2   5 6806.99 1815.54   1
  -2  -7   5 7313.09 2283.80   3
   2  -7   5 4531.35 1597.43   3
   2   7   5 6078.92 1876.99   1
  -2   7   5 7690.44 1872.13   1
  -2   7   7 4663.54 1581.59   1
  -2  -7   7 6261.98 2111.17   3
   2   7   7 4892.28 1849.28   1
   2  -7   7 8177.54 2250.60   3
   7   2   7 5572.37 1682.53   1
  -2   7   9 3180.55 1407.15   1
   2  -7   9 2619.19 1384.81   3
  -7  -2   9 3086.33 1439.02   3
  -2  -7   9 1391.56 1069.52   3
   2   7   9 446.405 275.340   1
   7   2   9 2086.04 1076.46   1
  -2   7  11 918.420 780.811   1
  -2  -7  11 999.722 975.660   3
   2   7  11 929.281 865.004   1
   2  -7  11 735.785 797.588   3
  -2   7  13 949.094 1033.21   1
   2   7  13 206.394 579.688   1
  -2  -7  13 2319.85 1451.72   3
   2  -7  13 2504.23 1580.89   3
  -7   3 -14 1823.16 1267.70   2
  -7  -3 -14 2738.08 1694.15   2
  -3  -7 -14 1927.88 1487.32   2
  -3  -7 -12 20029.7 4469.73   2
  -7  -3 -12 18709.1 4093.75   2
  -7   3 -12 21493.8 4171.42   2
  -3  -7 -10-127.795 426.367   2
  -7   3 -10 1217.02 957.902   2
  -3   7  -8 24663.5 3079.78   2
  -7   3  -8 24539.9 3945.92   2
  -3  -7  -8 25568.6 4121.42   2
  -7  -3  -8 27749.2 4390.72   2
  -7  -3  -6 24596.9 3808.32   2
  -3  -7  -6 981.807 764.377   2
  -3   7  -6 1621.45 698.107   2
  -7   3  -6 1587.95 994.481   2
   3   7  -6 25126.3 3916.08   1
  -7  -3  -4 33230.9 4071.18   2
  -3   7  -4 26249.8 2682.57   2
  -7   3  -4 29611.0 4288.40   2
   3   7  -4 29820.9 3833.09   1
  -3  -7  -4 26074.2 2807.03   2
  -7  -3  -2 16845.8 2634.39   2
  -3   7  -2 1458.03 653.650   1
   3   7  -2 17283.5 2908.07   1
   3  -7  -2 1432.93 681.184   3
  -7   3  -2 432.387 470.794   2
  -3   7  -2 1180.37 730.596   2
  -3   7   0 32580.1 3311.22   1
  -7  -3   0 27246.2 3264.98   2
   3   7   0 25973.2 3619.47   1
   3  -7   0 29028.5 3355.13   3
  -3   7   2 982.370 607.229   1
  -7  -3   2 10563.6 2380.88   2
   3   7   2 8811.81 2532.60   1
   3  -7   2 2294.08 1438.66   3
   7   3   2 15520.9 3043.79   1
   3   7   4 28794.4 4075.76   1
   3  -7   4 24744.6 3595.25   3
   7   3   4 28953.9 4013.38   1
  -3   7   4 28346.5 3497.07   1
  -3  -7   4 33526.2 5038.54   3
  -3   7   6 2326.44 1153.30   1
  -3  -7   6 32376.6 5008.41   3
   7   3   6 25887.9 4065.81   1
   3  -7   6 2190.36 1170.81   3
   3   7   6 1870.77 1398.88   1
  -7  -3   8 23771.7 4078.55   3
   3   7   8 21385.4 3986.39   1
   7   3   8 31033.6 4416.81   1
  -3  -7   8 33581.8 5085.76   3
   3  -7   8 22705.7 3901.56   3
  -3   7   8 23385.5 3789.15   1
  -3   7  10 1041.21 908.830   1
  -7  -3  10 1325.63 966.792   3
   3  -7  10 92.9159 433.883   3
   3   7  10 2835.46 1591.74   1
   3   7  12 19762.2 4336.30   1
  -3  -7  12 21597.6 4470.02   3
   3  -7  12 15007.1 3669.24   3
  -3   7  12 24523.5 4721.10   1
  -3   7  14 2395.02 1556.90   1
  -3  -7  14 2585.17 1648.27   3
   3   7  14 672.738 902.533   1
   3  -7  14 3837.55 2127.06   3
  -4  -7 -13-359.237 713.828   2
  -7  -4 -13 1220.16 1194.24   2
  -7   4 -13 969.335 865.287   2
  -4  -7 -11 1431.62 1243.83   2
  -7  -4 -11 1696.88 1200.70   2
  -7   4 -11 2629.66 1413.33   2
  -4  -7  -9 2811.17 1409.93   2
  -7   4  -9 4988.25 1796.20   2
  -7  -4  -9 3366.82 1523.76   2
  -4   7  -9 4147.56 1402.24   2
  -4   7  -7 6229.05 1580.08   2
  -4  -7  -7 6479.04 1880.54   2
  -7  -4  -7 7506.05 2137.42   2
  -7   4  -7 6153.07 1926.69   2
  -7  -4  -5 11620.4 2506.24   2
  -4   7  -5 8531.78 1721.96   2
  -7   4  -5 9528.42 2447.29   2
  -4  -7  -5 10372.3 2025.68   2
   4   7  -5 10126.3 2454.64   1
  -7  -4  -3 14860.6 2530.79   2
  -4   7  -3 11573.0 2141.50   2
  -7   4  -3 15972.0 3380.61   2
   4   7  -3 15304.3 2896.22   1
  -4  -7  -3 12370.7 1647.39   2
  -4   7  -1 14136.0 2076.51   1
  -7  -4  -1 10946.2 1992.08   2
  -7   4  -1 19209.7 4271.78   2
   4  -7  -1 16283.3 2198.97   3
   4   7  -1 14366.8 2782.35   1
  -7  -4   1 12955.9 2128.92   2
   4  -7   1 13654.3 2397.56   3
   4   7   1 13326.0 2714.96   1
   7   4   1 13480.9 3015.67   1
  -4   7   1 14270.5 2278.17   1
  -7  -4   3 13731.8 2370.93   2
   4   7   3 13952.1 2916.86   1
   4  -7   3 10745.6 2288.73   3
   7   4   3 11953.2 2781.07   1
  -4   7   3 13900.4 2441.20   1
  -4  -7   5 10626.3 2931.05   3
   4   7   5 8238.95 2240.13   1
   7   4   5 11125.7 2698.95   1
   4  -7   5 10342.8 2466.39   3
  -4   7   5 7699.79 1994.85   1
   4   7   7 6594.29 2160.12   1
   7   4   7 6918.41 2198.90   1
  -4  -7   7 8962.61 2653.23   3
   4  -7   7 5055.63 1777.79   3
  -4   7   7 7996.23 2295.77   1
  -4  -7   9 3449.69 1684.14   3
   4  -7   9 4442.23 1739.70   3
  -7  -4   9 4269.50 1810.18   3
   7   4   9 2831.69 1455.92   1
  -4   7   9 5280.19 2083.33   1
   4   7   9 5232.29 2101.61   1
  -4   7  11 2688.79 1526.22   1
  -7  -4  11 1809.18 1127.42   3
  -4  -7  11 1448.04 1077.65   3
   4  -7  11 1965.74 1249.65   3
   7   4  11 3358.23 1694.28   1
   4   7  11 1909.87 1345.38   1
  -4   7  13 248.641 564.557   1
  -4  -7  13 625.821 800.133   3
   4   7  13 694.296 345.798   1
  -5  -7 -12 29800.0 5277.80   2
  -7  -5 -12 32008.4 5144.88   2
  -7   5 -12 40271.2 5755.85   2
  -5   7 -10 25081.0 3828.37   2
  -7   5 -10 20988.8 3830.76   2
  -5  -7 -10 15806.1 3542.63   2
  -7  -5 -10 15773.9 3354.23   2
  -5   7  -8 85978.2 6494.25   2
  -7   5  -8 81133.5 7206.92   2
  -5  -7  -8 77524.5 7133.17   2
  -7  -5  -8 64132.0 6278.27   2
  -5   7  -6 43043.0 4314.70   2
  -7   5  -6 46980.5 5448.75   2
  -5  -7  -6 40624.4 4497.77   2
  -7  -5  -6 43444.8 5007.31   2
  -7  -5  -4 118716. 7506.28   2
  -5   7  -4 116766. 7372.06   2
  -7   5  -4 134714. 9684.61   2
   5   7  -4 109615. 8444.09   1
  -7  -5  -2 71067.0 4947.98   2
  -7   5  -2 83914.9 8704.39   2
  -5   7  -2 88611.2 7871.71   2
   5   7  -2 66512.9 6394.44   1
  -7  -5   0 115537. 5668.20   2
   5   7   0 131314. 9032.16   1
   7   5   0 142060. 10180.6   1
  -5   7   0 141277. 7012.59   1
  -7  -5   2 59036.1 3839.92   2
   5  -7   2 62767.7 5402.96   3
   7   5   2 67648.4 6939.18   1
   5   7   2 62904.5 6418.63   1
  -5   7   2 67717.5 5569.37   1
   5   7   4 99386.8 8234.23   1
   5  -7   4 121203. 8202.19   3
   7   5   4 110902. 8873.85   1
  -5  -7   6 42500.7 6059.98   3
   5   7   6 36661.7 5150.70   1
   5  -7   6 47024.5 5567.90   3
   7   5   6 35013.2 5099.88   1
   5   7   8 71796.5 7625.17   1
  -7  -5   8 76653.1 7930.29   3
  -5  -7   8 61892.3 7288.13   3
   7   5   8 63621.6 7014.54   1
   5  -7   8 90666.2 8161.83   3
   5   7  10 18111.3 4116.16   1
  -7  -5  10 12748.5 3323.26   3
  -5  -7  10 12983.2 3331.61   3
   7   5  10 18591.1 4006.75   1
   5   7  12 32361.8 5773.61   1
  -5  -7  12 27187.5 4948.11   3
  -7  -5  12 31674.3 4990.26   3
  -6  -7 -11 898.988 911.090   2
  -7  -6 -11 552.841 704.644   2
  -6   7 -11 996.791 802.832   2
  -7   6 -11 1014.88 872.155   2
  -6  -7  -9 2304.69 1225.71   2
  -7  -6  -9 1368.98 880.559   2
  -6   7  -9 1194.01 829.873   2
  -7   6  -9 1734.49 1049.66   2
  -6  -7  -7 2345.47 1186.04   2
  -7  -6  -7 3336.96 1307.35   2
  -6   7  -7 1931.04 971.597   2
  -7   6  -7 2913.37 1351.60   2
  -6   7  -5 5001.98 1688.04   2
  -7   6  -5 4502.81 1737.73   2
  -7  -6  -5 8406.96 2097.37   2
   6   7  -3 3120.75 1456.56   1
  -7  -6  -3 4952.52 1390.07   2
  -6   7  -3 4701.76 1874.64   2
  -7   6  -3 4882.02 1955.50   2
   6   7  -1 9224.18 2531.94   1
   7   6  -1 5480.07 2126.59   1
  -7   6  -1 7407.36 2773.79   2
  -6   7  -1 5193.47 2477.14   2
   7   6   1 4690.90 1881.72   1
   6   7   1 7113.02 2254.55   1
  -6   7   1 6589.90 1706.75   1
   6   7   3 6037.88 2092.56   1
   7   6   3 5415.60 2012.72   1
   7   6   5 6858.47 2495.76   1
   6   7   5 4734.43 2045.66   1
   6   7   7 2072.14 1272.49   1
  -6  -7   7 2869.15 1561.68   3
   7   6   7 1915.23 1266.22   1
   6   7   9 1472.08 1047.89   1
  -6  -7   9 1045.29 858.633   3
  -7  -6   9 1174.49 1084.77   3
   7   6   9 182.732 363.773   1
   6   7  11 2381.39 1663.16   1
  -7  -6  11 1696.45 1351.56   3
  -6  -7  11 1151.33 1172.73   3
   7   6  11 603.728 660.970   1
  -7   7 -10 1604.90 1091.98   2
  -7   7  -8 10133.0 2589.12   2
  -7   7  -6 305.801 318.886   2
  -7   7  -4 10997.6 2880.99   2
   7   7  -2 3295.08 1671.69   1
  -7   7  -2-349.073 653.509   2
   7   7   0 7530.74 2442.29   1
   7   7   2 2074.14 1402.87   1
   7   7   4 7221.82 2565.55   1
   7   7   6 4184.37 2305.74   1
  -7  -7   8 10045.9 3559.63   3
   7   7   8 7993.50 2794.07   1
  -7  -7  10 596.588 876.140   3
   7   7  10 1737.90 1382.11   1
  -8   0 -12 17143.6 3961.06   2
  -8   0 -10 9129.89 2739.84   2
  -8   0  -8 16336.1 3426.62   2
  -8   0  -6 15170.8 3073.50   2
  -8   0  -4 22201.9 3632.96   2
   0   8  -4 20255.7 2957.07   1
   0   8  -2 5230.25 1704.28   1
   0  -8  -2 3350.65 1700.91   3
  -8   0  -2 6873.88 2115.92   2
  -8   0   0 15484.9 3247.75   2
   0   8   0 20988.9 3198.94   1
   0  -8   0 13888.3 3228.54   3
   0  -8   2 5029.69 1992.52   3
   0   8   2 4121.10 1502.23   1
   0   8   4 19879.6 3384.01   1
   0  -8   4 19063.6 3769.38   3
   0   8   6 1291.10 991.212   1
   0  -8   6 23991.1 4394.87   3
   0   8   8 16028.8 3334.26   1
   0  -8   8 17646.0 3743.59   3
   0  -8  10 15964.8 3623.38   3
   0   8  10 876.466 1004.08   1
   0  -8  12 12782.4 3402.34   3
   0   8  12 11691.0 3208.44   1
   0   8  14 1419.52 1188.73   1
  -8   1 -13 969.263 994.195   2
  -8  -1 -13 1408.36 1301.90   2
  -8  -1 -11 798.319 851.369   2
  -8   1 -11 1868.47 1283.62   2
  -8  -1  -9 1533.60 899.633   2
  -8   1  -9 1707.71 1109.90   2
  -8  -1  -7 5356.08 1881.18   2
  -8   1  -7 4111.44 1645.97   2
  -8  -1  -5 7169.14 2039.73   2
  -8   1  -5 6425.72 2010.23   2
   1   8  -5 7961.08 1870.31   1
  -8  -1  -3 11658.6 2521.10   2
  -1   8  -3 9233.18 1843.33   1
   1   8  -3 11634.4 2302.06   1
   1  -8  -3 10004.6 2472.74   3
  -8   1  -3 7352.52 2157.70   2
  -8   1  -1 12665.5 2957.91   2
  -1   8  -1 12862.6 2342.13   1
   1   8  -1 11701.6 2370.88   1
   1  -8  -1 11289.1 2764.93   3
  -8  -1  -1 8348.36 2171.49   2
  -1   8   1 15063.8 2658.20   1
  -8  -1   1 12252.8 2862.16   2
   1   8   1 11477.3 2449.00   1
   1  -8   1 12475.5 2905.00   3
  -1  -8   1 11973.6 3065.76   3
  -1   8   3 9731.95 2193.87   1
   1   8   3 13032.7 2669.84   1
  -1  -8   3 9502.20 2779.68   3
   1  -8   3 9676.96 2603.04   3
   1   8   5 9890.21 2501.00   1
  -1   8   5 7533.46 2012.64   1
  -1  -8   5 7488.98 2444.92   3
   1  -8   5 9610.47 2694.92   3
  -1   8   7 4061.52 1554.17   1
   1   8   7 4120.36 1624.52   1
  -1  -8   7 9375.54 2688.08   3
   1  -8   7 3837.23 1728.47   3
  -1   8   9 3588.78 1594.68   1
   1   8   9 1993.67 1200.93   1
  -1  -8   9 2608.22 1439.51   3
   1  -8   9 2181.57 1309.21   3
  -1   8  11 1107.22 956.481   1
   1   8  11 2053.10 1279.64   1
  -1  -8  11 944.290 1002.75   3
   1  -8  11 3455.00 1761.47   3
  -1   8  13 863.986 985.664   1
   1   8  13 885.444 939.674   1
  -1  -8  13 1070.86 1018.14   3
   1  -8  13-92.2667 270.369   3
  -8  -2 -12 37717.6 6024.04   2
  -8   2 -12 33385.1 5587.75   2
  -8   2 -10 20988.4 4064.87   2
  -8  -2 -10 14202.5 3533.11   2
  -8  -2  -8 69123.6 7224.88   2
  -8   2  -8 68593.8 7072.55   2
  -8  -2  -6 39107.4 5037.74   2
  -8   2  -6 31952.2 4686.83   2
   2   8  -6 41533.5 4685.95   1
  -8  -2  -4 94354.6 7230.58   2
  -8   2  -4 106272. 8417.48   2
   2   8  -4 100570. 7000.05   1
  -8  -2  -2 41286.5 4593.64   2
  -8   2  -2 46072.0 5857.05   2
  -2   8  -2 58979.4 4746.15   1
   2  -8  -2 46075.6 4758.51   3
   2   8  -2 42908.4 4607.76   1
  -8  -2   0 118165. 7817.56   2
   2   8   0 129082. 8347.97   1
   2  -8   0 117933. 8081.92   3
  -2   8   2 51627.7 4816.69   1
  -8  -2   2 50288.2 5613.39   2
   2   8   2 52546.6 5489.98   1
  -2  -8   2 55112.3 6787.93   3
   2  -8   2 45027.3 5058.23   3
  -2   8   4 109760. 7228.47   1
  -2  -8   4 101982. 9235.43   3
   2  -8   4 91513.1 7570.09   3
  -2   8   6 31854.4 4164.17   1
   2   8   6 36662.1 5115.51   1
  -2  -8   6 43798.8 5976.27   3
   2  -8   6 28116.7 4306.43   3
   8   2   6 39624.5 4763.37   1
  -2   8   8 66144.8 6361.75   1
   2   8   8 78149.8 8039.60   1
  -2  -8   8 66625.6 7309.73   3
   2  -8   8 60427.9 6773.17   3
   8   2   8 62388.5 6064.26   1
  -2   8  10 21765.1 4042.61   1
  -2  -8  10 21853.8 4311.93   3
   2  -8  10 17854.3 3936.36   3
   2   8  10 14948.1 3663.04   1
  -2   8  12 30237.0 5210.70   1
   2   8  12 39211.8 6226.79   1
  -2  -8  12 26273.9 4805.26   3
   2  -8  12 33120.3 5740.52   3
  -8  -3 -13 166.198 453.665   2
  -8   3 -13 821.124 894.692   2
  -8  -3 -11 926.361 939.539   2
  -8   3 -11 1236.68 1051.89   2
  -8  -3  -9 1522.83 1049.24   2
  -8   3  -9 498.265 646.218   2
  -8  -3  -7 2942.56 1460.00   2
  -8   3  -7 2407.49 1355.34   2
  -8  -3  -5 5825.15 1870.86   2
  -8   3  -5 4073.13 1776.48   2
   3   8  -5 4783.84 1623.50   1
   3   8  -3 6313.40 1822.97   1
  -8  -3  -3 7684.51 2018.79   2
  -3   8  -3 4403.45 1158.82   2
  -8   3  -3 4584.07 1924.71   2
  -3   8  -1 8160.68 1777.79   1
   3  -8  -1 8874.75 1898.67   3
  -8  -3  -1 7260.01 1876.25   2
   3   8  -1 6640.55 1889.84   1
  -8   3  -1 5482.00 2257.12   2
  -3   8   1 7901.71 1784.41   1
   3   8   1 7161.56 2065.84   1
   3  -8   1 7093.16 1819.49   3
  -8  -3   1 7698.61 1935.29   2
   3   8   3 6426.14 2074.61   1
  -3   8   3 5362.27 1564.24   1
  -3  -8   3 7951.93 2655.60   3
   8   3   3 7507.97 2225.71   1
   3  -8   3 4692.63 1621.14   3
  -8  -3   3 5645.64 1844.79   2
   3   8   5 5339.82 1897.70   1
   8   3   5 6133.22 1939.35   1
  -3   8   5 5431.33 1654.96   1
   3  -8   5 2714.45 1295.73   3
  -3  -8   5 4808.06 2014.29   3
  -3   8   7 2267.76 1206.63   1
   8   3   7 4612.16 1780.10   1
  -3  -8   7 3702.92 1754.06   3
   3  -8   7 4394.37 1738.57   3
   3   8   7 1442.38 1030.51   1
  -3   8   9 934.428 875.724   1
  -8  -3   9 3253.20 1641.29   3
  -3  -8   9 2424.79 1490.19   3
   3  -8   9 1141.43 987.066   3
   3   8   9 2014.73 1282.65   1
   8   3   9 3267.63 1488.38   1
  -3   8  11 1996.28 1365.27   1
  -3  -8  11 253.857 413.669   3
   3  -8  11 614.452 922.361   3
   3   8  11 477.475 600.057   1
  -3   8  13 618.713 1016.46   1
  -3  -8  13-79.9211 331.740   3
   3  -8  13 1363.21 1303.33   3
   3   8  13 361.750 626.660   1
  -8   4 -12 25622.6 4872.85   2
  -4  -8 -12 17061.5 4263.00   2
  -8  -4 -12 20348.9 4364.57   2
  -4  -8 -10 4101.55 2030.71   2
  -8  -4 -10 6078.46 2267.15   2
  -8   4 -10 8283.94 2602.29   2
  -8   4  -8 33566.8 5043.33   2
  -8  -4  -8 33924.2 4919.66   2
  -8  -4  -6 17951.8 3524.35   2
  -8   4  -6 14730.8 3406.63   2
  -8  -4  -4 51615.4 5411.66   2
  -4   8  -4 36203.7 3571.16   2
  -8   4  -4 48815.2 6190.81   2
   4   8  -4 40458.5 4839.10   1
  -8  -4  -2 36806.4 4221.25   2
  -4   8  -2 9670.37 2207.01   2
   4   8  -2 30186.7 4279.75   1
  -8   4  -2 10769.6 3127.93   2
  -4   8   0 49681.8 4423.67   1
  -8  -4   0 57679.0 4906.11   2
   4  -8   0 44348.7 4290.10   3
   4   8   0 54478.6 5925.09   1
  -4   8   2 9753.27 2080.16   1
  -8  -4   2 17509.1 2741.42   2
   4   8   2 21644.0 3878.52   1
   4  -8   2 14888.5 2933.86   3
  -8  -4   4 39171.1 4430.49   2
   4   8   4 45102.7 5521.34   1
   4  -8   4 49210.4 5548.99   3
   8   4   4 44538.2 5608.88   1
  -4   8   4 43815.3 4768.62   1
  -4   8   6 8543.55 2316.28   1
   4   8   6 6402.01 2234.04   1
  -4  -8   6 18862.9 4145.94   3
   4  -8   6 14766.0 3197.12   3
   8   4   6 20958.4 3827.37   1
   4   8   8 31783.6 5222.98   1
  -8  -4   8 28970.9 4949.34   3
  -4  -8   8 29091.9 5027.75   3
   4  -8   8 28711.0 4572.33   3
   8   4   8 26276.7 4519.86   1
  -4   8   8 26780.5 4472.68   1
   4   8  10 4275.96 2016.39   1
  -4   8  10 8311.99 2753.79   1
   8   4  10 4069.78 2024.82   1
  -8  -4  10 7374.50 2469.45   3
  -4  -8  10 7861.32 2622.92   3
   4  -8  10 11108.7 3103.26   3
   4   8  12 16655.8 4219.17   1
  -4  -8  12 18208.4 4032.54   3
   4  -8  12 20555.6 4501.82   3
  -4   8  12 17534.1 4298.71   1
  -8  -5 -11 251.688 504.842   2
  -8   5 -11-473.087 389.644   2
  -8  -5  -9 128.178 421.289   2
  -8   5  -9 227.291 573.490   2
  -8  -5  -7 735.108 678.616   2
  -8   5  -7-110.167 320.328   2
  -8  -5  -5 5325.21 1787.93   2
   5   8  -5 3596.95 1604.55   1
  -5   8  -5 473.671 425.856   2
  -8   5  -5 870.765 835.001   2
   5   8  -3 2444.45 1244.65   1
  -8  -5  -3 2738.16 1128.21   2
  -5   8  -3 2464.12 1148.16   2
  -8   5  -3 1174.37 1010.23   2
   5   8  -1 2566.49 1234.45   1
  -8  -5  -1 2802.73 1005.62   2
  -8   5  -1 1993.73 1356.08   2
  -5   8  -1 2949.80 1577.39   2
   5   8   1 4896.35 1872.92   1
  -5   8   1 1893.75 858.575   1
   5  -8   1 844.529 623.347   3
   8   5   1 3241.54 1670.31   1
  -5   8   3 1804.40 962.773   1
   8   5   3 1614.00 1121.22   1
   5   8   3 1229.80 959.900   1
   5  -8   3 941.245 817.977   3
  -5   8   5 1487.15 1001.35   1
  -5  -8   5 4471.95 2278.54   3
   5   8   5 1880.96 1295.18   1
   5  -8   5 536.564 544.675   3
   8   5   5 5584.79 2172.42   1
  -5   8   7 1313.30 1025.32   1
   5   8   7 1152.87 1072.53   1
  -5  -8   7 1524.79 1225.00   3
   8   5   7 1334.94 1060.54   1
   5  -8   7 639.922 679.645   3
  -5   8   9 1263.69 977.317   1
   5   8   9-641.394 947.381   1
   8   5   9 1078.68 1066.64   1
  -8  -5   9 791.642 855.478   3
  -5  -8   9 1401.73 1182.54   3
   5  -8   9 195.643 175.144   3
  -5   8  11 762.139 913.427   1
   5   8  11-45.9157 195.190   1
  -8  -5  11 749.626 852.190   3
  -5  -8  11 342.862 689.073   3
  -8  -6 -10 1981.33 1210.62   2
  -8   6 -10 3076.52 1590.83   2
  -8   6  -8 15445.8 3492.86   2
  -8  -6  -8 11832.1 2752.33   2
  -8  -6  -6 4347.93 1697.47   2
  -6   8  -6 3190.46 1308.60   2
  -8   6  -6 2341.00 1261.07   2
  -6   8  -4 13523.4 2894.74   2
  -8   6  -4 19536.0 4093.72   2
   6   8  -4 12770.9 3203.32   1
   6   8  -2 598.715 503.973   1
  -6   8  -2 1306.08 1166.67   2
  -8   6  -2 1532.45 1223.66   2
   6   8   0 15231.0 3375.82   1
   8   6   0 17912.7 3973.43   1
  -6   8   2 2247.47 1032.39   1
   6   8   2 2370.11 1362.39   1
   8   6   2 1626.94 1117.25   1
   6   8   4 12384.8 3196.37   1
   8   6   4 17703.6 3895.74   1
  -6   8   4 18089.2 3510.32   1
  -6  -8   6 7851.61 2832.01   3
   8   6   6 3872.82 1966.36   1
   6   8   6 1852.17 1293.39   1
  -6   8   6 4078.22 1922.46   1
   8   6   8 11782.6 3371.38   1
  -8  -6   8 15144.3 3999.66   3
   6   8   8 13243.9 3546.93   1
  -6  -8   8 11638.7 3444.66   3
  -6   8   8 22500.2 5124.77   1
   8   6  10 1442.39 1265.16   1
   6   8  10 2863.45 1860.26   1
  -8  -6  10 4594.74 2191.12   3
  -6  -8  10 2426.27 1630.87   3
  -6   8  10 3799.04 2194.51   1
  -8   7  -9-121.521 587.081   2
  -7   8  -7 1053.40 903.315   2
  -8   7  -7-392.361 518.296   2
  -7   8  -5-74.3661 39.2486   2
  -8   7  -5-74.2252 368.466   2
   7   8  -3 490.870 610.270   1
  -7   8  -3 554.217 799.486   2
  -8   7  -3 339.937 566.167   2
   8   7  -1 37.5410 331.805   1
   7   8  -1 571.832 713.501   1
  -8   7  -1 773.617 967.193   2
  -7   8  -1 341.916 764.014   2
   7   8   1-147.491 432.598   1
   8   7   1 61.6729 267.902   1
   8   7   3 2044.66 1445.69   1
   7   8   3 1164.74 1264.41   1
   7   8   5 807.470 1005.50   1
   8   7   5 1062.73 1152.63   1
  -7   8   5-496.344 629.791   1
   8   7   7 808.181 1220.85   1
  -8  -7   7 708.698 1007.30   3
  -7  -8   7 928.768 1206.47   3
   7   8   7 1687.90 1414.29   1
   8   7   9 1371.81 1364.38   1
  -8  -7   9 407.391 759.578   3
  -7  -8   9-550.580 992.347   3
   7   8   9-377.947 386.426   1
  -7   8   9-228.689 516.929   1
  -8   8  -8 32068.7 5238.79   2
  -8   8  -6 25043.5 4593.18   2
  -8   8  -4 57420.6 7320.87   2
  -8   8  -2 34199.6 5835.68   2
   8   8  -2 39827.3 6389.38   1
  -8   8   0 63395.0 7573.98   2
   8   8   0 71830.6 7980.91   1
   8   8   2 37434.6 5948.92   1
   8   8   4 36870.9 6074.52   1
   8   8   6 19943.5 4567.62   1
  -9   0 -11-626.427 808.833   2
  -9   0  -9-403.684 686.101   2
  -9   0  -7 311.300 356.176   2
  -9   0  -5 204.063 466.691   2
   0  -9  -3-122.265 502.785   3
   0   9  -3-150.714 274.382   1
  -9   0  -3 199.567 599.858   2
   0   9  -1 219.749 376.335   1
   0  -9  -1-353.664 913.452   3
  -9   0  -1 758.552 727.833   2
   0  -9   1-589.059 915.024   3
  -9   0   1 503.586 779.986   2
   0   9   1 24.6908 378.445   1
   0  -9   3-374.915 695.785   3
   0   9   3 165.146 283.755   1
   0   9   5-519.780 728.562   1
   0  -9   5 305.420 390.791   3
   0   9   7 393.492 676.036   1
   0  -9   7 860.512 834.880   3
   0   9   9 872.703 1221.17   1
   0  -9   9-272.991 538.940   3
   0   9  11-495.400 779.661   1
   0  -9  11-185.936 672.761   3
  -9  -1 -12 20428.0 4570.33   2
  -9   1 -12 21573.3 4677.69   2
  -9  -1 -10 19023.7 4220.31   2
  -9   1 -10 6423.38 2397.58   2
  -9  -1  -8 33427.0 5209.74   2
  -9   1  -8 29283.1 4877.83   2
  -9  -1  -6 22991.9 4051.91   2
  -9   1  -6 12845.8 3115.46   2
  -9  -1  -4 38588.3 4978.98   2
  -9   1  -4 44185.0 5643.84   2
   1   9  -4 45443.1 4786.95   1
  -9  -1  -2 14106.8 2986.74   2
  -1   9  -2 11968.4 2385.23   1
   1  -9  -2 15155.3 3378.04   3
   1   9  -2 13954.6 2884.50   1
  -9   1  -2 8748.62 2541.51   2
  -9  -1   0 44638.5 5371.81   2
  -9   1   0 51606.9 6551.41   2
  -1   9   0 63587.8 5718.56   1
   1   9   0 55005.4 5701.24   1
  -1  -9   0 61916.8 7376.18   3
   1  -9   0 51135.4 5986.57   3
  -1   9   2 11942.5 2561.38   1
  -9  -1   2 16539.0 3737.28   2
   1   9   2 15768.0 3161.75   1
  -1  -9   2 22747.8 4558.60   3
   1  -9   2 13064.0 3197.08   3
  -1   9   4 42839.2 5013.76   1
   1   9   4 47635.1 5681.04   1
  -1  -9   4 49691.1 6582.59   3
   1  -9   4 40037.9 5710.20   3
   1   9   6 13524.8 3208.95   1
  -1   9   6 7918.60 2224.84   1
   1  -9   6 10917.5 2991.70   3
  -1   9   8 30331.8 4637.49   1
   1   9   8 31610.8 5133.32   1
  -1  -9   8 33429.6 5351.59   3
   1  -9   8 25439.5 4607.77   3
  -1   9  10 6541.82 2326.37   1
   1   9  10 6581.81 2509.56   1
   1  -9  10 4773.84 2048.88   3
  -1   9  12 18259.4 4120.83   1
   1   9  12 17310.0 4150.27   1
  -1  -9  12 15681.5 3779.33   3
   1  -9  12 15471.7 3850.22   3
  -9  -2 -11 1041.33 1017.82   2
  -9   2 -11 740.655 888.066   2
  -9  -2  -9 2760.65 1534.27   2
  -9   2  -9 1895.08 1235.57   2
  -9  -2  -7 5459.17 2043.83   2
  -9   2  -7 2473.95 1369.74   2
   2   9  -5 5314.80 1707.31   1
  -9  -2  -5 3630.45 1555.40   2
  -9   2  -5 5317.10 2086.88   2
   2   9  -3 7545.47 2098.73   1
  -9  -2  -3 5082.07 1747.59   2
  -9   2  -3 5885.94 2230.42   2
  -2   9  -1 9212.96 2110.81   1
   2   9  -1 8225.56 2230.26   1
   2  -9  -1 7740.84 2092.57   3
  -9  -2  -1 8231.14 2180.36   2
  -9   2  -1 6318.63 2300.09   2
   2   9   1 7528.13 2160.84   1
  -2  -9   1 8777.10 2861.13   3
  -2   9   1 8514.08 2073.85   1
   2  -9   1 6046.46 1936.48   3
  -9  -2   1 6962.63 2111.23   2
   2   9   3 6884.14 2166.42   1
  -2   9   3 8702.43 2136.55   1
  -2  -9   3 7512.06 2634.53   3
   2  -9   3 7986.37 2315.97   3
  -9  -2   3 10724.5 3020.84   2
  -2   9   5 4353.38 1581.22   1
  -2  -9   5 8902.33 2877.98   3
   2  -9   5 7101.87 2280.42   3
   2   9   5 5992.79 2122.36   1
  -2   9   7 3993.93 1619.20   1
  -2  -9   7 3985.14 1850.59   3
   2  -9   7 1961.95 1233.18   3
   2   9   7 3197.55 1608.78   1
  -2   9   9 3374.21 1632.65   1
  -2  -9   9 2621.65 1575.49   3
   2  -9   9 1618.71 1176.49   3
   2   9   9 2879.55 1681.92   1
  -2   9  11 2467.33 1483.14   1
  -2  -9  11 990.868 924.138   3
   2   9  11 1114.30 1065.50   1
   2  -9  11 916.312 990.554   3
  -9   3 -10 15518.6 3818.48   2
  -9  -3 -10 7113.90 2636.52   2
  -9  -3  -8 24652.7 4607.74   2
  -9   3  -8 36797.6 5683.24   2
  -9  -3  -6 12791.5 3094.48   2
  -9   3  -6 15461.0 3535.71   2
   3   9  -6 10159.7 2518.73   1
  -9  -3  -4 40392.1 5189.58   2
  -9   3  -4 44954.1 6111.01   2
   3   9  -4 38669.7 4747.66   1
  -9  -3  -2 18012.8 3257.31   2
   3   9  -2 17100.5 3303.77   1
  -9   3  -2 12508.9 3228.98   2
  -9  -3   0 46435.2 5077.96   2
  -3   9   0 53059.6 5028.66   1
  -9   3   0 55942.8 7109.40   2
   3   9   0 46941.9 5543.17   1
   3  -9   0 42737.7 4686.24   3
  -3   9   2 11788.4 2423.24   1
  -9  -3   2 14022.7 2828.62   2
   3   9   2 15599.2 3366.95   1
   3  -9   2 14878.4 2955.94   3
  -3   9   4 39996.8 4730.27   1
  -9  -3   4 52893.8 6572.31   2
   3   9   4 44594.1 5775.03   1
  -3  -9   4 43576.4 6567.94   3
   3  -9   4 46448.2 5505.24   3
   3   9   6 11375.0 3039.91   1
  -3   9   6 10802.7 2561.62   1
  -3  -9   6 11511.2 3325.33   3
   9   3   6 11425.5 2928.21   1
  -3   9   8 28661.6 4580.22   1
   3   9   8 30403.4 5287.64   1
  -3  -9   8 29776.0 5224.50   3
   3  -9   8 37627.9 5563.86   3
   9   3   8 24727.7 4418.17   1
  -3   9  10 5534.84 2125.62   1
  -3  -9  10 4532.30 2042.80   3
   3   9  10 7001.77 2632.21   1
  -9  -4 -11 2215.30 1496.54   2
  -9   4 -11 2055.18 1426.81   2
  -9  -4  -9 7133.38 2546.90   2
  -9   4  -9 6497.12 2477.06   2
  -9  -4  -7 8505.63 2657.73   2
  -9   4  -7 7329.71 2589.21   2
  -9  -4  -5 15510.5 3362.74   2
  -9   4  -5 10087.0 2928.05   2
   4   9  -5 13000.8 2977.75   1
  -9  -4  -3 11568.8 2578.32   2
  -9   4  -3 14184.8 3625.37   2
   4   9  -3 10930.3 2653.58   1
  -9  -4  -1 15906.9 2805.88   2
  -9   4  -1 15541.8 3742.66   2
   4   9  -1 13867.2 3099.82   1
  -4   9   1 15933.7 2724.20   1
  -9  -4   1 13895.8 2659.96   2
   4   9   1 16936.5 3500.64   1
   4  -9   1 13939.9 2729.60   3
  -4   9   3 16705.1 3021.60   1
  -9  -4   3 11817.8 2434.19   2
   4   9   3 13947.0 3262.91   1
   4  -9   3 12880.8 2861.96   3
   9   4   3 11477.5 3149.61   1
  -4   9   5 8993.89 2350.81   1
   4   9   5 10004.6 2900.60   1
   9   4   5 10609.2 2932.24   1
  -4  -9   5 16114.0 4098.48   3
   4  -9   5 8273.02 2387.12   3
   9   4   7 3952.92 1768.60   1
   4   9   7 5243.35 2204.16   1
  -4   9   7 7084.24 2306.59   1
  -4  -9   7 7122.63 2640.32   3
   4  -9   7 8492.55 2604.96   3
   4   9   9 7929.67 2898.35   1
  -4   9   9 5011.37 2105.05   1
   9   4   9 2952.87 1598.05   1
  -4  -9   9 4138.53 1985.31   3
   4  -9   9 3397.31 1675.21   3
   4   9  11 2826.26 1778.97   1
  -4   9  11 2175.22 1554.60   1
  -4  -9  11 2873.76 1633.83   3
   4  -9  11 748.193 845.403   3
  -9  -5 -10 3437.17 1730.17   2
  -9   5 -10 4276.73 2060.45   2
  -9   5  -8 14942.8 3722.38   2
  -9  -5  -8 20415.9 4095.56   2
  -9  -5  -6 11059.6 2847.30   2
  -9   5  -6 4039.44 1964.85   2
  -9  -5  -4 24511.9 3706.18   2
  -9   5  -4 22689.1 4677.82   2
   5   9  -4 19647.6 3777.17   1
  -9  -5  -2 8561.95 1944.04   2
  -9   5  -2 4896.91 2167.88   2
   5   9  -2 6170.55 2116.30   1
  -9   5   0 20361.0 4329.89   2
   5   9   0 16662.5 3583.76   1
   9   5   2 7812.08 2735.86   1
  -5   9   2 4200.34 1469.70   1
   5  -9   2 3016.45 1339.00   3
   5   9   2 3761.19 1876.02   1
  -5  -9   4 21139.3 4740.79   3
   5   9   4 20125.5 4181.11   1
   5  -9   4 16220.7 3367.37   3
   9   5   4 24367.6 4687.75   1
  -5   9   4 22577.6 3716.72   1
  -5   9   6 3421.66 1658.34   1
   5   9   6 5299.45 2233.18   1
   9   5   6 11123.2 3281.68   1
  -5  -9   6 12304.7 3707.07   3
   5  -9   6 1788.13 1062.11   3
  -9  -5   8 19558.1 4932.17   3
   5   9   8 17996.6 4281.45   1
  -5  -9   8 21530.9 4746.97   3
   5  -9   8 14224.9 3555.26   3
   9   5   8 20931.4 4621.47   1
  -5   9   8 18609.6 4221.92   1
  -5   9  10 3291.58 1860.95   1
   5   9  10 2948.64 1796.79   1
  -5  -9  10 9072.41 3258.78   3
   5  -9  10 2846.53 1628.31   3
  -9   6  -9 3588.90 1910.02   2
  -9   6  -7 4191.77 1966.99   2
  -9   6  -5 8639.82 3002.72   2
   6   9  -3 9280.69 2703.29   1
  -9   6  -3 11800.3 3425.08   2
   6   9  -1 9607.21 2774.96   1
  -6   9  -1 13942.4 3328.91   2
  -9   6  -1 10216.0 3234.14   2
   9   6   1 9030.16 3039.57   1
   6   9   1 8986.83 2727.92   1
   6   9   3 7975.04 2654.24   1
   9   6   3 10249.5 3102.49   1
  -6   9   3 8861.79 2225.96   1
  -6   9   5 8115.38 2485.72   1
  -6  -9   5 8632.13 3119.85   3
   9   6   5 6689.81 2512.71   1
   6   9   5 7433.53 2607.53   1
   9   6   7 4550.98 2183.67   1
  -6   9   7 7113.36 2682.52   1
  -6  -9   7 4763.66 2277.50   3
   6   9   7 5090.86 2295.50   1
  -6   9   9 4817.59 2820.18   1
   6   9   9 2075.65 1490.78   1
  -9  -6   9 1455.67 1543.46   3
  -6  -9   9 3229.18 1838.85   3
   9   6   9 4469.97 2180.06   1
  -9   7  -6 14728.9 3805.75   2
  -9   7  -4 40172.1 6514.11   2
  -7   9  -2 21618.6 4258.50   2
  -9   7  -2 18564.2 4444.71   2
   7   9  -2 19286.9 4129.19   1
  -9   7   0 43420.9 6454.26   2
  -7   9   0 38980.4 5350.94   2
   7   9   0 46105.9 6410.57   1
   9   7   0 46828.4 7241.27   1
   7   9   2 19369.9 4294.81   1
   9   7   2 21137.9 4598.40   1
   7   9   4 34819.9 5834.78   1
   9   7   4 34332.5 5817.66   1
  -7   9   4 32282.7 4345.52   1
   7   9   6 12373.9 3595.97   1
  -7  -9   6 15458.6 4246.45   3
   9   7   6 15186.8 4026.94   1
  -7   9   6 14390.7 3542.70   1
  -9   8  -5 1060.90 1062.38   2
  -8   9  -3 1030.78 1004.81   2
  -9   8  -3 3797.98 2000.96   2
   8   9  -1 2732.73 1605.34   1
  -8   9  -1-10.1844 456.884   2
  -9   8  -1 2610.19 1595.05   2
   8   9   1 1595.59 1287.25   1
  -9   8   1 2585.02 1459.20   2
  -8   9   1 1677.25 1048.89   2
   9   8   1 3550.12 1963.36   1
   9   8   3 299.335 476.422   1
   8   9   3 1197.29 1096.09   1
  -8   9   5 1048.77 742.125   1
   9   8   5 1736.66 1572.35   1
   8   9   5 1331.08 1300.16   1
 -10   0 -10 17536.7 4229.22   2
 -10   0  -8 49752.3 6769.36   2
 -10   0  -6 34867.2 5337.64   2
 -10   0  -4 72412.3 7401.41   2
 -10   0  -2 44068.1 5642.59   2
   0 -10  -2 56405.4 7537.66   3
   0  10  -2 51097.0 5545.06   1
 -10   0   0 92896.2 8747.87   2
   0  10   0 98561.7 7927.49   1
 -10   0   2 60597.0 8120.15   2
   0  10   2 51248.4 5888.30   1
   0 -10   2 52204.6 7031.57   3
   0  10   4 82932.5 7642.00   1
   0 -10   4 70937.7 8164.60   3
   0  10   6 28741.5 4648.37   1
   0 -10   6 35702.3 5696.34   3
   0  10   8 46818.5 6234.96   1
   0 -10   8 38664.8 5903.91   3
   0 -10  10 19218.5 4178.35   3
   0  10  10 12772.5 3426.47   1
 -10  -1  -9 907.773 1015.63   2
 -10   1  -9-243.932 638.083   2
 -10  -1  -7 887.096 886.217   2
 -10   1  -7 1856.31 1263.40   2
 -10  -1  -5 4.69632 168.545   2
 -10   1  -5 355.119 665.753   2
  -1 -10  -3-43.0404 285.574   3
 -10  -1  -3 1991.11 1178.58   2
 -10   1  -3 1543.37 1289.67   2
   1  10  -3-43.8800 98.4248   1
  -1  10  -1-198.028 347.559   1
   1  10  -1 351.526 499.017   1
  -1 -10  -1-1347.24 1123.53   3
   1 -10  -1-62.0878 463.134   3
 -10  -1  -1 310.205 516.473   2
 -10   1  -1 295.681 467.285   2
   1  10   1-468.817 569.774   1
  -1 -10   1 522.066 735.215   3
   1 -10   1-124.210 497.957   3
 -10  -1   1 758.397 734.827   2
  -1  10   1-100.666 391.582   1
 -10   1   1-594.618 850.262   2
  -1 -10   3 1224.72 1262.52   3
   1 -10   3-805.799 834.823   3
  -1  10   3 708.956 677.046   1
 -10  -1   3 331.564 597.931   2
   1  10   3 652.287 746.025   1
  -1  10   5 1056.02 816.951   1
  -1 -10   5 321.677 753.163   3
   1 -10   5 359.359 536.063   3
   1  10   5 726.830 838.987   1
  -1  10   7-282.903 496.047   1
  -1 -10   7-486.780 747.067   3
   1 -10   7 952.648 1038.39   3
   1  10   7-310.236 491.233   1
  -1  10   9 323.160 524.012   1
  -1 -10   9 896.007 991.575   3
   1 -10   9-391.229 763.793   3
   1  10   9 685.262 945.347   1
 -10  -2 -10 4621.58 2219.77   2
 -10   2 -10 4884.83 2261.24   2
 -10  -2  -8 10163.8 3017.99   2
 -10   2  -8 11674.8 3372.33   2
 -10  -2  -6 7280.30 2479.00   2
 -10   2  -6 1257.51 1433.04   2
 -10  -2  -4 12338.1 3041.29   2
   2  10  -4 12446.6 2779.76   1
 -10   2  -4 8841.23 2769.26   2
 -10  -2  -2 4106.21 1766.92   2
 -10   2  -2 1193.75 1032.01   2
   2  10  -2 5062.65 2009.78   1
  -2  10   0 10950.0 2502.44   1
   2  10   0 10256.7 2708.02   1
  -2 -10   0 7805.42 2751.88   3
   2 -10   0 7461.09 2254.32   3
 -10  -2   0 7992.80 2310.44   2
 -10   2   0 7123.31 2674.41   2
   2  10   2 1397.24 1129.59   1
  -2  10   2 811.483 688.651   1
   2 -10   2 1190.04 967.531   3
 -10  -2   2 1923.79 1292.68   2
   2  10   4 9196.23 2702.78   1
   2 -10   4 13739.4 3258.72   3
  -2  10   4 7950.82 2244.29   1
  -2 -10   4 12796.3 3655.65   3
 -10  -2   4 12919.5 4147.76   2
  -2  10   6 1331.94 970.973   1
  -2 -10   6 8453.53 2887.39   3
   2 -10   6 7494.62 2691.54   3
   2  10   6 1265.84 1064.25   1
  -2  10   8 8185.87 2483.65   1
  -2 -10   8 7554.90 2656.51   3
   2 -10   8 10566.2 3119.54   3
   2  10   8 5207.42 2221.08   1
  -2  10  10 442.369 574.823   1
  -2 -10  10 4710.46 2137.68   3
   2 -10  10 6737.24 2571.45   3
   2  10  10 2332.10 1552.67   1
 -10  -3  -9 1527.63 1433.60   2
 -10   3  -9 254.410 602.589   2
 -10  -3  -7 563.551 656.559   2
 -10   3  -7 569.537 709.174   2
 -10  -3  -5 2757.80 1519.91   2
   3  10  -5 2373.36 1320.61   1
 -10   3  -5 990.743 1006.59   2
   3  10  -3 997.717 869.770   1
 -10  -3  -3 427.847 591.422   2
 -10   3  -3 784.917 863.847   2
 -10  -3  -1 73.0149 234.890   2
 -10   3  -1 2102.08 1419.25   2
   3  10  -1 2070.08 1272.50   1
  -3 -10   1 1175.67 1284.78   3
   3  10   1 628.116 607.581   1
  -3  10   1 978.198 702.421   1
   3 -10   1 807.850 732.052   3
 -10  -3   1 559.164 634.219   2
 -10   3   1 368.450 516.531   2
   3  10   3 727.897 779.150   1
  -3  10   3 1486.23 996.606   1
  -3 -10   3 934.824 1052.03   3
   3 -10   3 202.580 317.995   3
 -10  -3   3 724.587 725.684   2
   3  10   5 1864.86 1365.27   1
  -3  10   5 307.384 561.767   1
   3 -10   5 1313.17 939.634   3
 -10  -3   5 186.811 236.055   2
   3  10   7 785.089 1092.92   1
  -3  10   7 412.365 528.757   1
  -3 -10   7 1885.15 1567.34   3
   3 -10   7-301.053 728.592   3
   3  10   9 1458.82 1232.61   1
  -3  10   9 101.044 139.475   1
  -3 -10   9 547.646 740.646   3
   3 -10   9 598.382 676.571   3
 -10   4  -8 22232.6 4859.26   2
 -10  -4  -8 28708.1 5278.02   2
 -10  -4  -6 13531.6 3413.93   2
 -10   4  -6 9866.22 3194.23   2
   4  10  -6 11302.2 3014.30   1
 -10  -4  -4 34922.3 5140.15   2
 -10   4  -4 34620.9 5743.67   2
   4  10  -4 31487.9 4740.43   1
 -10  -4  -2 14455.7 3115.65   2
   4  10  -2 15044.5 3403.93   1
 -10   4  -2 13640.3 3570.49   2
 -10  -4   0 30546.3 4146.46   2
 -10   4   0 31761.0 5370.45   2
   4  10   0 36258.7 5434.75   1
  -4  10   2 13181.7 2685.25   1
  -4 -10   2 14876.0 3899.19   3
   4 -10   2 12173.3 2786.84   3
   4  10   2 12353.3 3256.26   1
  -4  10   4 36667.1 4864.53   1
  -4 -10   4 33241.7 6212.02   3
   4  10   4 35058.7 5688.84   1
   4 -10   4 26594.8 4428.25   3
  -4  10   6 9946.61 2774.29   1
   4  10   6 10923.3 3289.03   1
  -4 -10   6 13264.4 3940.54   3
   4 -10   6 9499.25 2769.57   3
  10   4   6 13912.7 3743.31   1
  -4  10   8 28612.4 5078.72   1
   4  10   8 25439.5 5197.04   1
  -4 -10   8 20428.9 4604.02   3
   4 -10   8 24477.9 4667.61   3
 -10  -5  -7 354.571 433.852   2
 -10   5  -7 805.341 981.706   2
   5  10  -5 2324.75 1347.26   1
 -10   5  -5 665.793 912.041   2
   5  10  -3 2790.42 1520.27   1
 -10   5  -3 2144.56 1490.45   2
   5  10  -1 1772.90 1171.02   1
 -10   5  -1 2278.24 1548.78   2
   5  10   1 3304.50 1745.89   1
 -10   5   1 2838.96 1724.30   2
  -5  10   3 3211.93 1373.06   1
  -5 -10   3 822.966 891.136   3
   5  10   3 1844.53 1446.23   1
  -5  10   5 2813.32 1488.38   1
   5  10   5 1990.03 1388.47   1
  -5 -10   5 1853.28 1533.53   3
   5 -10   5 987.851 815.757   3
  10   5   5 6466.46 2700.37   1
  -5  10   7 62.8878 344.095   1
   5  10   7 1689.78 1451.89   1
  -5 -10   7 803.281 616.612   3
  10   5   7 1808.88 1463.37   1
   5 -10   7 2067.59 1362.44   3
 -10   6  -6 14780.1 4056.70   2
 -10   6  -4 27003.1 5373.77   2
   6  10  -4 31399.3 5322.38   1
   6  10  -2 17043.8 3837.85   1
 -10   6  -2 15733.4 4010.76   2
 -10   6   0 28355.5 5262.37   2
   6  10   0 34589.2 5689.75   1
   6  10   2 12950.8 3607.44   1
  -6  10   4 25702.9 4135.37   1
  -6 -10   4 24533.0 5415.23   3
   6  10   4 25087.8 5047.23   1
  10   6   4 31900.2 6007.17   1
  -6  10   6 11299.4 3138.14   1
  10   6   6 9698.11 3311.52   1
  -6 -10   6 11253.8 3728.51   3
   6  10   6 11994.8 3579.41   1
   7  10  -3 1795.44 1434.82   1
 -10   7  -3 1842.03 1507.75   2
   7  10  -1 2042.11 1359.89   1
 -10   7  -1 893.797 887.369   2
   7  10   1 1232.26 1084.14   1
 -10   7   1 1737.68 1274.16   2
   7  10   3 1047.29 1026.73   1
  10   7   3 2417.70 1602.54   1
 -11   0  -7 1022.80 982.100   2
 -11   0  -5 804.523 878.158   2
 -11   0  -3 110.680 548.450   2
   0  11  -1 32.8795 152.338   1
   0 -11  -1 72.3403 584.116   3
 -11   0  -1 587.654 789.086   2
   0  11   1 6.83237 208.384   1
   0 -11   1 112.063 459.634   3
 -11   0   1 1082.16 971.909   2
   0 -11   3 135.685 226.492   3
 -11   0   3-126.687 289.990   2
   0  11   3 760.243 855.108   1
   0 -11   5 1212.98 1054.76   3
   0  11   5-200.439 237.352   1
   0 -11   7-383.909 537.166   3
   0  11   7-138.945 423.174   1
 -11  -1  -8 15737.5 4011.01   2
 -11   1  -8 18890.8 4522.93   2
 -11  -1  -6 4321.93 1971.60   2
 -11   1  -6 7911.37 2809.01   2
 -11  -1  -4 18252.4 3853.49   2
 -11   1  -4 18214.3 4046.72   2
  -1 -11  -2 3313.07 1857.56   3
 -11  -1  -2 4564.10 1902.04   2
 -11   1  -2 4449.23 1954.84   2
   1  11  -2 4091.43 1745.51   1
 -11  -1   0 15326.7 3594.56   2
 -11   1   0 15171.0 3781.28   2
  -1  11   0 21200.3 3813.46   1
  -1 -11   0 23138.4 4892.38   3
   1  11   0 18274.3 3823.62   1
   1 -11   0 20134.2 4322.88   3
   1  11   2 3130.70 1585.77   1
  -1 -11   2 8355.70 2993.25   3
   1 -11   2 8630.39 2898.84   3
 -11  -1   2 7251.57 2865.97   2
 -11   1   2 7741.43 3156.93   2
  -1  11   2 5816.45 2057.35   1
  -1  11   4 19153.0 3791.47   1
   1  11   4 16615.2 3674.40   1
  -1 -11   4 19462.7 4565.45   3
   1 -11   4 16652.2 4101.99   3
 -11  -1   4 26669.6 7740.48   2
  -1  11   6 4546.38 1838.24   1
  -1 -11   6 5263.64 2372.58   3
   1  11   6 5402.28 2144.71   1
  -1  11   8 15763.8 3632.80   1
   1 -11   8 20625.8 4511.91   3
  -1 -11   8 13917.2 3771.17   3
   1  11   8 12189.7 3354.69   1
 -11  -2  -7 3011.20 1782.26   2
 -11   2  -7 2213.03 1550.07   2
 -11  -2  -5 2338.05 1453.03   2
 -11   2  -5 3189.46 1750.47   2
   2  11  -3 1927.49 1148.15   1
  -2 -11  -3 1553.20 1211.08   3
 -11  -2  -3 1920.51 1266.58   2
 -11   2  -3 2222.34 1427.72   2
  -2 -11  -1 3217.30 1721.98   3
 -11  -2  -1 3333.86 1645.59   2
   2  11  -1 2766.48 1496.79   1
 -11   2  -1 2894.56 1631.94   2
   2  11   1 2262.93 1392.80   1
  -2 -11   1 2678.97 1752.93   3
   2 -11   1 2554.21 1467.50   3
 -11  -2   1 3601.21 1760.83   2
  -2  11   1 2865.57 1378.08   1
 -11   2   1 2714.64 1704.74   2
   2  11   3 2073.15 1375.20   1
  -2 -11   3 1631.81 1428.42   3
  -2  11   3 2137.41 1331.95   1
   2 -11   3 2486.54 1462.56   3
 -11  -2   3 2251.63 1558.56   2
   2  11   5 1786.53 1295.13   1
  -2  11   5 1488.77 1013.11   1
  -2 -11   5 1650.55 1350.33   3
   2 -11   5 1677.35 1198.10   3
 -11  -2   5 3514.04 2470.33   2
   2  11   7 1432.68 1193.55   1
  -2  11   7 358.999 486.647   1
  -2 -11   7 49.9537 707.079   3
   2 -11   7 1355.58 1213.78   3
 -11  -3  -6 17006.2 4042.35   2
 -11   3  -6 11578.2 3517.68   2
 -11  -3  -4 29624.3 5063.82   2
 -11   3  -4 26527.7 5186.97   2
   3  11  -4 31222.9 4977.49   1
 -11  -3  -2 16019.5 3521.95   2
   3  11  -2 19312.0 4090.77   1
 -11   3  -2 12130.4 3415.28   2
 -11  -3   0 28921.6 4629.95   2
 -11   3   0 33233.2 5776.75   2
  -3 -11   0 31772.6 5428.24   3
   3  11   0 31311.5 5360.99   1
 -11  -3   2 15453.1 3416.10   2
  -3  11   2 13596.0 2997.66   1
  -3 -11   2 17763.1 4376.21   3
   3  11   2 17505.1 4095.10   1
 -11   3   2 14624.6 3855.07   2
  -3  11   4 28406.9 4569.30   1
   3  11   4 31705.8 5565.47   1
  -3 -11   4 39387.9 6808.44   3
   3 -11   4 23398.4 4284.97   3
  -3  11   6 15263.3 3508.15   1
   3  11   6 10568.7 3260.21   1
  -3 -11   6 15956.6 4339.65   3
   3 -11   6 10359.8 2995.67   3
   4  11  -5 975.706 758.050   1
 -11  -4  -5 4733.52 2080.16   2
 -11   4  -5 5368.78 2434.43   2
 -11  -4  -3 3091.45 1500.04   2
 -11   4  -3 6050.80 2473.50   2
   4  11  -3 3718.48 1791.33   1
   4  11  -1 5706.68 2264.24   1
 -11   4  -1 5689.13 2272.36   2
  -4 -11   1 5280.84 2258.77   3
 -11   4   1 5718.12 2344.39   2
   4  11   1 5997.97 2419.16   1
  -4  11   3 3744.33 1574.85   1
  -4 -11   3 6718.44 2784.82   3
   4  11   3 5152.77 2261.92   1
   4  11   5 4948.82 2281.44   1
  -4  11   5 4740.81 1993.89   1
  -4 -11   5 2988.27 1881.55   3
   4 -11   5 4570.46 1962.49   3
   5  11  -4 11369.6 3234.61   1
 -11   5  -4 8606.91 3143.02   2
   5  11  -2 4707.94 2272.66   1
 -11   5  -2 1899.08 1445.42   2
   5  11   0 13721.5 3708.16   1
 -11   5   0 7819.02 2744.15   2
   5  11   2 3391.72 1881.01   1
  -5 -11   2 3065.68 1783.83   3
 -11   5   2 2327.71 1579.36   2
  -5  11   4 7629.78 2303.90   1
  -5 -11   4 10441.5 3547.75   3
   5  11   4 11779.2 3575.17   1
   6  11  -1 5286.74 1436.71   1
 -11   6  -1 3742.01 1947.49   2
   6  11   1 5835.45 2450.46   1
 -11   6   1 4141.47 2061.64   2
 -12   0  -4 3703.77 1887.84   2
 -12   0  -2 1885.41 1359.67   2
   0  12   0 7711.90 2610.76   1
   0 -12   0 6495.98 2741.88   3
 -12   0   0 5475.48 2473.16   2
   0  12   2 2339.10 1517.49   1
   0 -12   2 1562.75 1454.42   3
 -12   0   2 735.244 966.902   2
   0 -12   4 8074.89 3111.86   3
   0  12   4 6053.69 2266.98   1
 -12  -1  -5 1344.19 1155.94   2
 -12   1  -5 753.261 843.161   2
 -12  -1  -3 2150.60 1481.06   2
 -12   1  -3 1513.18 1182.58   2
  -1 -12  -1 1534.73 1253.65   3
   1  12  -1 2088.68 1320.73   1
 -12  -1  -1 2271.59 1435.74   2
 -12   1  -1 564.083 760.537   2
  -1  12   1 2612.78 1465.19   1
   1  12   1 1741.15 1222.71   1
  -1 -12   1 48.2721 458.857   3
 -12  -1   1 2513.28 1752.03   2
 -12   1   1 2253.52 1558.96   2
   1  12   3 582.029 757.526   1
  -1 -12   3 1810.69 1391.95   3
   1 -12   3 1297.86 1073.58   3
 -12  -1   3 2156.76 2019.87   2
 -12   1   3 843.662 1046.13   2
  -1  12   3 1831.53 1277.24   1
   1  12   5 1196.94 1063.24   1
  -1 -12   5 2611.58 1727.21   3
   1 -12   5-344.782 762.142   3
  -1  12   5 1335.72 1013.69   1
 -12  -1   5 2891.91 3510.97   2
 -12  -2  -4 27019.2 5044.32   2
 -12   2  -4 28397.7 5425.77   2
 -12  -2  -2 14280.4 3599.55   2
  -2 -12  -2 18032.4 4223.18   3
   2  12  -2 17603.3 3918.43   1
 -12   2  -2 11998.6 3458.87   2
 -12  -2   0 34994.0 5643.68   2
 -12   2   0 28243.4 5501.65   2
  -2 -12   0 27019.7 5210.82   3
   2  12   0 33753.6 5758.24   1
  -2  12   2 14154.4 3315.39   1
  -2 -12   2 18748.5 4479.70   3
   2  12   2 16894.5 4078.14   1
 -12  -2   2 16882.2 4246.29   2
 -12   2   2 16143.4 4581.79   2
 -12  -2   4 45777.3 8763.87   2
  -2  12   4 29676.8 4831.81   1
   2  12   4 29129.2 5355.58   1
  -2 -12   4 26786.3 5496.01   3
   2 -12   4 28048.4 5106.59   3
  -3 -12  -3 367.732 538.783   3
 -12  -3  -3 503.346 649.182   2
 -12   3  -3 1306.09 1161.52   2
   3  12  -3-204.718 455.108   1
   3  12  -1 401.436 533.594   1
  -3 -12  -1-427.996 610.997   3
 -12  -3  -1-371.460 608.357   2
 -12   3  -1 1099.50 1137.48   2
  -3 -12   1-305.435 675.767   3
 -12   3   1-734.877 708.169   2
   3  12   3-621.617 1103.02   1
  -3 -12   3 942.667 915.592   3
  -3  12   3 528.737 621.420   1
 -12   3   3-1513.03 1288.50   2
   0   0   0    0.00    0.00   0
TITL n in I4cm
REM I4cm (#108 in standard setting)
CELL 0.71073   8.811692   8.811692  12.673937  90.0000  90.0000  90.0000
ZERR    4.00   0.000816   0.000816   0.001964   0.0000   0.0000   0.0000
LATT -2
SYMM -x,-y, z
SYMM -y, x, z
SYMM  y,-x, z
SYMM  x,-y, z+1/2
SYMM -x, y, z+1/2
SYMM -y,-x, z+1/2
SYMM  y, x, z+1/2
SFAC C H N I Pb
UNIT 4.00 24.00 4.00 12.00 4.00
TREF
HKLF 4
END
;
_shelx_hkl_checksum              41925
loop_
_space_group_symop_operation_xyz
'x, y, z'
'-y, x, z'
'-x, -y, z'
'y, -x, z'
'x, -y, -z+1/2'
'y, x, -z+1/2'
'-x, y, -z+1/2'
'-y, -x, -z+1/2'
'x+1/2, y+1/2, z+1/2'
'-y+1/2, x+1/2, z+1/2'
'-x+1/2, -y+1/2, z+1/2'
'y+1/2, -x+1/2, z+1/2'
'x+1/2, -y+1/2, -z+1'
'y+1/2, x+1/2, -z+1'
'-x+1/2, y+1/2, -z+1'
'-y+1/2, -x+1/2, -z+1'
'-x, -y, -z'
'y, -x, -z'
'x, y, -z'
'-y, x, -z'
'-x, y, z-1/2'
'-y, -x, z-1/2'
'x, -y, z-1/2'
'y, x, z-1/2'
'-x+1/2, -y+1/2, -z+1/2'
'y+1/2, -x+1/2, -z+1/2'
'x+1/2, y+1/2, -z+1/2'
'-y+1/2, x+1/2, -z+1/2'
'-x+1/2, y+1/2, z'
'-y+1/2, -x+1/2, z'
'x+1/2, -y+1/2, z'
'y+1/2, x+1/2, z'
loop_
_atom_site_label
_atom_site_type_symbol
_atom_site_fract_x
_atom_site_fract_y
_atom_site_fract_z
_atom_site_U_iso_or_equiv
_atom_site_adp_type
_atom_site_occupancy
_atom_site_site_symmetry_order
_atom_site_calc_flag
_atom_site_refinement_flags_posn
_atom_site_refinement_flags_adp
_atom_site_refinement_flags_occupancy
I1 I 0.3001(3) 0.1999(3) 0.0000 0.0445(8) Uani 1 4 d S T P
I2 I 0.0000 0.0000 0.2500 0.0410(10) Uani 1 8 d S T P
Pb1 Pb 0.0000 0.0000 0.0000 0.0205(6) Uani 1 8 d S T P
N1 N 0.0000 0.4084 0.2500 0.52(13) Uiso 1 2 d S . P
loop_
_atom_site_aniso_label
_atom_site_aniso_U_11
_atom_site_aniso_U_22
_atom_site_aniso_U_33
_atom_site_aniso_U_23
_atom_site_aniso_U_13
_atom_site_aniso_U_12
I1 0.0368(10) 0.0368(10) 0.0600(16) 0.000 0.000 -0.0228(10)
I2 0.0524(15) 0.0524(15) 0.0181(13) 0.000 0.000 0.000
Pb1 0.0198(6) 0.0198(6) 0.0220(8) 0.000 0.000 0.000
loop_
_atom_type_symbol
_atom_type_description
_atom_type_scat_dispersion_real
_atom_type_scat_dispersion_imag
_atom_type_scat_source
I I -0.4742 1.8119 'International Tables Vol C Tables 4.2.6.8 and 6.1.1.4'
Pb Pb -3.3944 10.1111 'International Tables Vol C Tables 4.2.6.8 and 6.1.1.4'
C C 0.0033 0.0016 'International Tables Vol C Tables 4.2.6.8 and 6.1.1.4'
N N 0.0061 0.0033 'International Tables Vol C Tables 4.2.6.8 and 6.1.1.4'
H H 0.0000 0.0000 'International Tables Vol C Tables 4.2.6.8 and 6.1.1.4'
loop_
_geom_angle_atom_site_label_1
_geom_angle_atom_site_label_2
_geom_angle_atom_site_label_3
_geom_angle
_geom_angle_site_symmetry_1
_geom_angle_site_symmetry_3
Pb1 I1 Pb1 157.35(11) 13_554 .
Pb1 I2 Pb1 180.0 5 .
I2 Pb1 I2 180.0 17 .
I2 Pb1 I1 90.0 17 .
I2 Pb1 I1 90.0 . .
I2 Pb1 I1 90.0 17 17
I2 Pb1 I1 90.0 . 17
I1 Pb1 I1 180.0 . 17
I2 Pb1 I1 90.0 17 2
I2 Pb1 I1 90.0 . 2
I1 Pb1 I1 90.0 . 2
I1 Pb1 I1 90.0 17 2
I2 Pb1 I1 90.0 17 18
I2 Pb1 I1 90.0 . 18
I1 Pb1 I1 90.0 . 18
I1 Pb1 I1 90.0 17 18
I1 Pb1 I1 180.0 2 18
N1 N1 N1 90.0 28 26_455
N1 N1 N1 45.0 28 3_565
N1 N1 N1 45.0 26_455 3_565
loop_
_geom_bond_atom_site_label_1
_geom_bond_atom_site_label_2
_geom_bond_distance
_geom_bond_site_symmetry_2
I1 Pb1 3.1773(7) 13_554
I1 Pb1 3.1773(7) .
I2 Pb1 3.1685(5) 5
I2 Pb1 3.1685(5) .
Pb1 I2 3.1685(5) 17
Pb1 I1 3.1773(7) 17
Pb1 I1 3.1773(7) 2
Pb1 I1 3.1773(7) 18
N1 N1 1.14148(10) 28
N1 N1 1.14148(11) 26_455
N1 N1 1.61429(15) 3_565
