#------------------------------------------------------------------------------
#$Date: 2020-02-05 02:39:09 +0200 (Wed, 05 Feb 2020) $
#$Revision: 247871 $
#$URL: file:///home/coder/svn-repositories/cod/cif/8/00/04/8000412.cif $
#------------------------------------------------------------------------------
#
# This file is available in the Crystallography Open Database (COD),
# http://www.crystallography.net/
#
# All data on this site have been placed in the public domain by the
# contributors.
#
data_8000412
loop_
_publ_author_name
'Takahashi, Yukihiro'
'Takehisa, Mika'
'Tanaka, Eri'
'Harada, Jun'
'Kumai, Reiji'
'Inabe, Tamotsu'
_publ_section_title
;
 Incorporating Spacer Molecules into the Tetrathiafulvalene-p-Chloranil
 Charge-Transfer Framework: Modulating the Neutral-Ionic Phase Transition.
;
_journal_name_full               'The journal of physical chemistry letters'
_journal_page_first              1336
_journal_paper_doi               10.1021/acs.jpclett.9b03847
_journal_year                    2020
_chemical_formula_moiety         'C6 H4 S4, 2(C6 Cl4 O2), C20 H12'
_chemical_formula_sum            'C38 H16 Cl8 O4 S4'
_chemical_formula_weight         948.35
_space_group_crystal_system      triclinic
_space_group_IT_number           2
_space_group_name_Hall           '-P 1'
_space_group_name_H-M_alt        'P -1'
_atom_sites_solution_hydrogens   geom
_atom_sites_solution_primary     dual
_audit_creation_date             2017-03-02
_audit_creation_method
;
Olex2 1.2
(compiled 2017.02.23 svn.r3390 for OlexSys, GUI svn.r5320)
;
_cell_angle_alpha                97.7456(12)
_cell_angle_beta                 93.2272(12)
_cell_angle_gamma                92.4714(12)
_cell_formula_units_Z            1
_cell_length_a                   7.6224(5)
_cell_length_b                   7.6188(6)
_cell_length_c                   15.8758(12)
_cell_measurement_reflns_used    9987
_cell_measurement_temperature    180
_cell_measurement_theta_max      29.977
_cell_measurement_theta_min      2.595
_cell_volume                     910.90(12)
_computing_cell_refinement       'SAINT v8.34A (Bruker, 2013)'
_computing_data_collection       'Bruker APEX2 2014.1-1 (Bruker, 2014)'
_computing_data_reduction        'SAINT v8.34A (Bruker, 2013)'
_computing_molecular_graphics    'Olex2 (Dolomanov et al., 2009)'
_computing_publication_material  'Olex2 (Dolomanov et al., 2009)'
_computing_structure_refinement  'ShelXL (Sheldrick, 2015)'
_computing_structure_solution    'ShelXT (Sheldrick, 2015)'
_diffrn_ambient_temperature      180
_diffrn_detector_area_resol_mean 8.3333
_diffrn_measured_fraction_theta_full 1.000
_diffrn_measured_fraction_theta_max 0.995
_diffrn_measurement_device_type  'Bruker APEX-II CCD'
_diffrn_measurement_method       '\f and \w scans'
_diffrn_radiation_type           MoK\a
_diffrn_radiation_wavelength     0.71073
_diffrn_reflns_av_R_equivalents  0.0209
_diffrn_reflns_av_unetI/netI     0.0188
_diffrn_reflns_Laue_measured_fraction_full 1.000
_diffrn_reflns_Laue_measured_fraction_max 0.995
_diffrn_reflns_limit_h_max       10
_diffrn_reflns_limit_h_min       -10
_diffrn_reflns_limit_k_max       10
_diffrn_reflns_limit_k_min       -10
_diffrn_reflns_limit_l_max       22
_diffrn_reflns_limit_l_min       -22
_diffrn_reflns_number            20632
_diffrn_reflns_point_group_measured_fraction_full 1.000
_diffrn_reflns_point_group_measured_fraction_max 0.995
_diffrn_reflns_theta_full        25.242
_diffrn_reflns_theta_max         30.022
_diffrn_reflns_theta_min         2.595
_diffrn_source                   'rotating-anode X-ray tube'
_diffrn_standards_number         0
_exptl_absorpt_coefficient_mu    0.892
_exptl_absorpt_correction_T_max  0.9420
_exptl_absorpt_correction_T_min  0.9006
_exptl_absorpt_correction_type   multi-scan
_exptl_absorpt_process_details
'SADABS-2014/4 (Bruker,2014/4) was used for absorption correction. wR2(int) was 0.0579 before and 0.0337 after correction. The Ratio of minimum to maximum transmission is 0.9561. The \l/2 correction factor is Not present.'
_exptl_crystal_colour            green
_exptl_crystal_colour_primary    green
_exptl_crystal_density_diffrn    1.729
_exptl_crystal_description       plate
_exptl_crystal_F_000             476
_exptl_crystal_size_max          0.15
_exptl_crystal_size_mid          0.07
_exptl_crystal_size_min          0.03
_refine_diff_density_max         0.381
_refine_diff_density_min         -0.219
_refine_diff_density_rms         0.053
_refine_ls_extinction_method     none
_refine_ls_goodness_of_fit_ref   1.040
_refine_ls_hydrogen_treatment    constr
_refine_ls_matrix_type           full
_refine_ls_number_parameters     244
_refine_ls_number_reflns         5311
_refine_ls_number_restraints     0
_refine_ls_restrained_S_all      1.040
_refine_ls_R_factor_all          0.0294
_refine_ls_R_factor_gt           0.0249
_refine_ls_shift/su_max          0.001
_refine_ls_shift/su_mean         0.000
_refine_ls_structure_factor_coef Fsqd
_refine_ls_weighting_details
'w=1/[\s^2^(Fo^2^)+(0.0320P)^2^+0.2820P] where P=(Fo^2^+2Fc^2^)/3'
_refine_ls_weighting_scheme      calc
_refine_ls_wR_factor_gt          0.0641
_refine_ls_wR_factor_ref         0.0669
_reflns_Friedel_coverage         0.000
_reflns_number_gt                4708
_reflns_number_total             5311
_reflns_threshold_expression     'I > 2\s(I)'
_iucr_refine_instructions_details
;
TITL TTF_Perylene_CA2 at 180 K in P-1
CELL 0.71073   7.62240   7.61880  15.87580  97.7456  93.2272  92.4714
ZERR    1.00   0.00050   0.00060   0.00120   0.0012   0.0012   0.0012
LATT  1
SFAC C H O S CL
UNIT 38 16 4 4 8
TEMP -93
SIZE 0.03 0.07 0.15
L.S. 5
BOND $H
CONF
LIST 4
ACTA
FMAP 2
PLAN 20
WGHT      0.0320      0.2820 
FVAR       0.16397
C1    1   -0.062508    0.475353    0.025288    11.00000    0.01637    0.03513 =
         0.02057    0.00069   -0.00218   -0.00494
C2    1   -0.343606    0.355235    0.082900    11.00000    0.01992    0.03794 =
         0.03046    0.00699    0.00428   -0.00619
AFIX  43
H2    2   -0.457528    0.303520    0.087939    11.00000   -1.20000
AFIX   0
C3    1   -0.239660    0.416273    0.151273    11.00000    0.02413    0.04050 =
         0.02580    0.00778    0.00586   -0.00429
AFIX  43
H3    2   -0.276718    0.409330    0.206922    11.00000   -1.20000
AFIX   0
S1    4   -0.264589    0.373016   -0.015893    11.00000    0.01738    0.04501 =
         0.02312    0.00176   -0.00255   -0.00954
S2    4   -0.034410    0.509002    0.136163    11.00000    0.02087    0.03872 =
         0.01912    0.00191   -0.00171   -0.00545
O1    3    0.283964    0.151077    0.090298    11.00000    0.02515    0.04873 =
         0.03011   -0.00584   -0.00603   -0.01191
C4    1    0.155617    0.079403    0.048960    11.00000    0.01901    0.02905 =
         0.02422   -0.00499   -0.00114   -0.00242
C5    1    0.001813    0.014004    0.090806    11.00000    0.02268    0.02800 =
         0.01919   -0.00437    0.00008   -0.00104
C6    1   -0.143900   -0.057161    0.045225    11.00000    0.01872    0.02716 =
         0.02339   -0.00308    0.00274   -0.00246
CL1   5    0.020002    0.043776    0.198992    11.00000    0.03830    0.04286 =
         0.01898   -0.00321   -0.00105   -0.00405
CL2   5   -0.326028   -0.127526    0.091242    11.00000    0.02427    0.04225 =
         0.03395   -0.00007    0.00759   -0.00750
O2    3    0.037530    0.612565    0.666218    11.00000    0.04598    0.02821 =
         0.01844   -0.00132    0.00103    0.00449
C7    1    0.020305    0.561189    0.590703    11.00000    0.02389    0.01917 =
         0.01838    0.00122    0.00248    0.00107
C8    1    0.074465    0.383762    0.554224    11.00000    0.02106    0.01793 =
         0.02139    0.00463    0.00058    0.00266
C9    1    0.056197    0.327374    0.470596    11.00000    0.02134    0.01468 =
         0.02274    0.00100    0.00352    0.00226
CL3   5    0.161587    0.260575    0.626498    11.00000    0.03476    0.02502 =
         0.02815    0.00895   -0.00480    0.00565
CL4   5    0.117260    0.125725    0.425804    11.00000    0.03556    0.01729 =
         0.03000   -0.00137    0.00598    0.00699
C10   1    0.494974    0.210140    0.288433    11.00000    0.02653    0.02441 =
         0.01756   -0.00185    0.00062    0.00172
AFIX  43
H10   2    0.473255    0.168336    0.229478    11.00000   -1.20000
AFIX   0
C11   1    0.576729    0.106400    0.340429    11.00000    0.03240    0.02013 =
         0.02357   -0.00238    0.00153    0.00649
AFIX  43
H11   2    0.613622   -0.006526    0.317180    11.00000   -1.20000
AFIX   0
C12   1    0.607041    0.164320    0.427810    11.00000    0.02834    0.01997 =
         0.02183    0.00182   -0.00053    0.00636
AFIX  43
H12   2    0.664496    0.089741    0.462806    11.00000   -1.20000
AFIX   0
C13   1    0.342340    0.714499    0.388172    11.00000    0.02747    0.02102 =
         0.02123    0.00307   -0.00077    0.00678
AFIX  43
H13   2    0.308080    0.829525    0.409757    11.00000   -1.20000
AFIX   0
C14   1    0.315242    0.655665    0.300847    11.00000    0.03123    0.02821 =
         0.01947    0.00740   -0.00344    0.00791
AFIX  43
H14   2    0.264025    0.730822    0.264189    11.00000   -1.20000
AFIX   0
C15   1    0.362222    0.490520    0.268187    11.00000    0.02505    0.02920 =
         0.01626    0.00332   -0.00126    0.00397
AFIX  43
H15   2    0.340891    0.450017    0.209085    11.00000   -1.20000
AFIX   0
C16   1    0.442362    0.379731    0.321892    11.00000    0.01868    0.02127 =
         0.01652    0.00164    0.00086    0.00089
C17   1    0.555156    0.327818    0.464333    11.00000    0.01738    0.01719 =
         0.01740    0.00212    0.00041    0.00131
C18   1    0.417324    0.610694    0.444030    11.00000    0.01620    0.01803 =
         0.01705    0.00259    0.00037    0.00142
C19   1    0.471881    0.439575    0.410578    11.00000    0.01571    0.01681 =
         0.01597    0.00257    0.00073    0.00052
HKLF 4
 
REM  TTF_Perylene_CA2 at 180 K in P-1
REM R1 =  0.0249 for    4708 Fo > 4sig(Fo)  and  0.0294 for all    5311 data
REM    244 parameters refined using      0 restraints
 
END  
     
WGHT      0.0320      0.2820 

REM Highest difference peak  0.381,  deepest hole -0.219,  1-sigma level  0.053
Q1    1   0.4985  0.3820  0.4390  11.00000  0.05    0.38
Q2    1   0.0212  0.3805  0.4391  11.00000  0.05    0.38
Q3    1   0.4519  0.5262  0.4276  11.00000  0.05    0.37
Q4    1   0.0000  0.5000  0.0000  10.50000  0.05    0.37
Q5    1  -0.1340 -0.0775 -0.0006  11.00000  0.05    0.36
Q6    1   0.4541  0.4100  0.3650  11.00000  0.05    0.36
Q7    1  -0.0803 -0.0052  0.0703  11.00000  0.05    0.35
Q8    1   0.3977  0.4341  0.2965  11.00000  0.05    0.35
Q9    1   0.3433  0.6821  0.3449  11.00000  0.05    0.35
Q10   1   0.5687  0.3527  0.5100  11.00000  0.05    0.35
Q11   1   0.4718  0.2963  0.3064  11.00000  0.05    0.35
Q12   1   0.5898  0.1352  0.3844  11.00000  0.05    0.35
Q13   1   0.0406  0.4697  0.5656  11.00000  0.05    0.33
Q14   1   0.0460  0.3460  0.5148  11.00000  0.05    0.33
Q15   1   0.5856  0.2477  0.4437  11.00000  0.05    0.33
Q16   1   0.3750  0.6595  0.4167  11.00000  0.05    0.32
Q17   1   0.0879  0.0383  0.0669  11.00000  0.05    0.32
Q18   1   0.3478  0.5699  0.2892  11.00000  0.05    0.32
Q19   1   0.5554  0.1785  0.3166  11.00000  0.05    0.30
Q20   1  -0.1549  0.4557  0.1411  11.00000  0.05    0.29
;
_cod_data_source_file            jz9b03847_si_003.cif
_cod_data_source_block           (TTF)(perylene)(CA)2_180K
_cod_database_code               8000412
_shelxl_version_number           2014/6
_shelx_space_group_comment
;
The symmetry employed for this shelxl refinement is uniquely defined
by the following loop, which should always be used as a source of
symmetry information in preference to the above space-group names.
They are only intended as comments.
;
_shelx_estimated_absorpt_t_max   0.974
_shelx_estimated_absorpt_t_min   0.878
_olex2_refinement_description
;
1. Fixed Uiso
 At 1.2 times of:
  All C(H) groups
2.a Aromatic/amide H refined with riding coordinates:
 C2(H2), C3(H3), C10(H10), C11(H11), C12(H12), C13(H13), C14(H14), C15(H15)
;
_olex2_submission_special_instructions 'No special instructions were received'
loop_
_space_group_symop_operation_xyz
'x, y, z'
'-x, -y, -z'
loop_
_atom_site_label
_atom_site_type_symbol
_atom_site_fract_x
_atom_site_fract_y
_atom_site_fract_z
_atom_site_U_iso_or_equiv
_atom_site_adp_type
_atom_site_occupancy
_atom_site_site_symmetry_order
_atom_site_calc_flag
_atom_site_refinement_flags_posn
C1 C -0.06251(15) 0.47535(17) 0.02529(8) 0.0246(2) Uani 1 1 d .
C2 C -0.34361(16) 0.35524(18) 0.08290(9) 0.0293(3) Uani 1 1 d .
H2 H -0.4575 0.3035 0.0879 0.035 Uiso 1 1 calc R
C3 C -0.23966(17) 0.41627(19) 0.15127(9) 0.0299(3) Uani 1 1 d .
H3 H -0.2767 0.4093 0.2069 0.036 Uiso 1 1 calc R
S1 S -0.26459(4) 0.37302(5) -0.01589(2) 0.02924(8) Uani 1 1 d .
S2 S -0.03441(4) 0.50900(5) 0.13616(2) 0.02674(7) Uani 1 1 d .
O1 O 0.28396(13) 0.15108(14) 0.09030(6) 0.0364(2) Uani 1 1 d .
C4 C 0.15562(15) 0.07940(17) 0.04896(8) 0.0251(2) Uani 1 1 d .
C5 C 0.00181(16) 0.01400(16) 0.09081(8) 0.0241(2) Uani 1 1 d .
C6 C -0.14390(15) -0.05716(16) 0.04522(8) 0.0237(2) Uani 1 1 d .
Cl1 Cl 0.02000(5) 0.04378(5) 0.19899(2) 0.03435(8) Uani 1 1 d .
Cl2 Cl -0.32603(4) -0.12753(5) 0.09124(2) 0.03402(8) Uani 1 1 d .
O2 O 0.03753(14) 0.61257(12) 0.66622(6) 0.0313(2) Uani 1 1 d .
C7 C 0.02031(15) 0.56119(15) 0.59070(7) 0.0206(2) Uani 1 1 d .
C8 C 0.07446(15) 0.38376(14) 0.55422(7) 0.0199(2) Uani 1 1 d .
C9 C 0.05620(15) 0.32737(14) 0.47060(7) 0.0196(2) Uani 1 1 d .
Cl3 Cl 0.16159(4) 0.26057(4) 0.62650(2) 0.02896(7) Uani 1 1 d .
Cl4 Cl 0.11726(4) 0.12572(4) 0.42580(2) 0.02773(7) Uani 1 1 d .
C10 C 0.49497(16) 0.21014(16) 0.28843(8) 0.0233(2) Uani 1 1 d .
H10 H 0.4733 0.1683 0.2295 0.028 Uiso 1 1 calc R
C11 C 0.57673(17) 0.10640(16) 0.34043(8) 0.0257(2) Uani 1 1 d .
H11 H 0.6136 -0.0065 0.3172 0.031 Uiso 1 1 calc R
C12 C 0.60704(16) 0.16432(15) 0.42781(8) 0.0234(2) Uani 1 1 d .
H12 H 0.6645 0.0897 0.4628 0.028 Uiso 1 1 calc R
C13 C 0.34234(16) 0.71450(16) 0.38817(8) 0.0232(2) Uani 1 1 d .
H13 H 0.3081 0.8295 0.4098 0.028 Uiso 1 1 calc R
C14 C 0.31524(17) 0.65567(17) 0.30085(8) 0.0259(2) Uani 1 1 d .
H14 H 0.2640 0.7308 0.2642 0.031 Uiso 1 1 calc R
C15 C 0.36222(16) 0.49052(16) 0.26819(8) 0.0235(2) Uani 1 1 d .
H15 H 0.3409 0.4500 0.2091 0.028 Uiso 1 1 calc R
C16 C 0.44236(14) 0.37973(15) 0.32189(7) 0.0189(2) Uani 1 1 d .
C17 C 0.55516(14) 0.32782(14) 0.46433(7) 0.0174(2) Uani 1 1 d .
C18 C 0.41732(14) 0.61069(14) 0.44403(7) 0.0171(2) Uani 1 1 d .
C19 C 0.47188(13) 0.43958(14) 0.41058(7) 0.01615(19) Uani 1 1 d .
loop_
_atom_site_aniso_label
_atom_site_aniso_U_11
_atom_site_aniso_U_22
_atom_site_aniso_U_33
_atom_site_aniso_U_23
_atom_site_aniso_U_13
_atom_site_aniso_U_12
C1 0.0164(5) 0.0351(6) 0.0206(6) 0.0007(5) -0.0022(4) -0.0049(4)
C2 0.0199(5) 0.0379(7) 0.0305(7) 0.0070(5) 0.0043(5) -0.0062(5)
C3 0.0241(6) 0.0405(7) 0.0258(6) 0.0078(5) 0.0059(5) -0.0043(5)
S1 0.01738(13) 0.04501(19) 0.02312(15) 0.00176(13) -0.00255(11) -0.00954(12)
S2 0.02087(13) 0.03872(17) 0.01912(14) 0.00191(12) -0.00171(10) -0.00545(12)
O1 0.0252(4) 0.0487(6) 0.0301(5) -0.0058(4) -0.0060(4) -0.0119(4)
C4 0.0190(5) 0.0291(6) 0.0242(6) -0.0050(5) -0.0011(4) -0.0024(4)
C5 0.0227(5) 0.0280(6) 0.0192(6) -0.0044(4) 0.0001(4) -0.0010(4)
C6 0.0187(5) 0.0272(6) 0.0234(6) -0.0031(4) 0.0027(4) -0.0025(4)
Cl1 0.03830(17) 0.04286(18) 0.01898(15) -0.00321(12) -0.00105(12) -0.00405(14)
Cl2 0.02427(14) 0.04225(18) 0.03395(18) -0.00007(14) 0.00759(12) -0.00750(13)
O2 0.0460(6) 0.0282(4) 0.0184(4) -0.0013(3) 0.0010(4) 0.0045(4)
C7 0.0239(5) 0.0192(5) 0.0184(5) 0.0012(4) 0.0025(4) 0.0011(4)
C8 0.0211(5) 0.0179(5) 0.0214(5) 0.0046(4) 0.0006(4) 0.0027(4)
C9 0.0213(5) 0.0147(5) 0.0227(5) 0.0010(4) 0.0035(4) 0.0023(4)
Cl3 0.03476(16) 0.02502(14) 0.02815(16) 0.00895(11) -0.00480(12) 0.00565(12)
Cl4 0.03556(16) 0.01729(12) 0.03000(16) -0.00137(10) 0.00598(12) 0.00699(11)
C10 0.0265(6) 0.0244(5) 0.0176(5) -0.0018(4) 0.0006(4) 0.0017(4)
C11 0.0324(6) 0.0201(5) 0.0236(6) -0.0024(4) 0.0015(5) 0.0065(5)
C12 0.0283(6) 0.0200(5) 0.0218(6) 0.0018(4) -0.0005(4) 0.0064(4)
C13 0.0275(6) 0.0210(5) 0.0212(6) 0.0031(4) -0.0008(4) 0.0068(4)
C14 0.0312(6) 0.0282(6) 0.0195(6) 0.0074(5) -0.0034(5) 0.0079(5)
C15 0.0250(5) 0.0292(6) 0.0163(5) 0.0033(4) -0.0013(4) 0.0040(5)
C16 0.0187(5) 0.0213(5) 0.0165(5) 0.0016(4) 0.0009(4) 0.0009(4)
C17 0.0174(5) 0.0172(5) 0.0174(5) 0.0021(4) 0.0004(4) 0.0013(4)
C18 0.0162(4) 0.0180(5) 0.0171(5) 0.0026(4) 0.0004(4) 0.0014(4)
C19 0.0157(4) 0.0168(5) 0.0160(5) 0.0026(4) 0.0007(4) 0.0005(4)
loop_
_atom_type_symbol
_atom_type_description
_atom_type_scat_dispersion_real
_atom_type_scat_dispersion_imag
_atom_type_scat_source
C C 0.0033 0.0016 'International Tables Vol C Tables 4.2.6.8 and 6.1.1.4'
H H 0.0000 0.0000 'International Tables Vol C Tables 4.2.6.8 and 6.1.1.4'
O O 0.0106 0.0060 'International Tables Vol C Tables 4.2.6.8 and 6.1.1.4'
S S 0.1246 0.1234 'International Tables Vol C Tables 4.2.6.8 and 6.1.1.4'
Cl Cl 0.1484 0.1585 'International Tables Vol C Tables 4.2.6.8 and 6.1.1.4'
loop_
_geom_angle_atom_site_label_1
_geom_angle_atom_site_label_2
_geom_angle_atom_site_label_3
_geom_angle
_geom_angle_site_symmetry_1
_geom_angle_site_symmetry_3
C1 C1 S1 122.33(12) 2_565 .
C1 C1 S2 122.66(12) 2_565 .
S2 C1 S1 115.01(7) . .
C3 C2 H2 121.1 . .
C3 C2 S1 117.71(9) . .
S1 C2 H2 121.1 . .
C2 C3 H3 121.0 . .
C2 C3 S2 118.04(10) . .
S2 C3 H3 121.0 . .
C2 S1 C1 94.65(6) . .
C3 S2 C1 94.59(6) . .
O1 C4 C5 121.30(12) . .
O1 C4 C6 121.65(11) . 2
C6 C4 C5 117.04(10) 2 .
C4 C5 Cl1 115.52(8) . .
C6 C5 C4 121.35(11) . .
C6 C5 Cl1 123.08(10) . .
C4 C6 Cl2 115.73(8) 2 .
C5 C6 C4 121.58(11) . 2
C5 C6 Cl2 122.69(10) . .
O2 C7 C8 121.79(11) . .
O2 C7 C9 121.77(10) . 2_566
C8 C7 C9 116.45(10) . 2_566
C7 C8 Cl3 114.96(8) . .
C9 C8 C7 121.75(10) . .
C9 C8 Cl3 123.29(9) . .
C7 C9 Cl4 114.75(8) 2_566 .
C8 C9 C7 121.80(10) . 2_566
C8 C9 Cl4 123.45(9) . .
C11 C10 H10 119.9 . .
C11 C10 C16 120.21(11) . .
C16 C10 H10 119.9 . .
C10 C11 H11 119.6 . .
C10 C11 C12 120.75(11) . .
C12 C11 H11 119.6 . .
C11 C12 H12 119.2 . .
C17 C12 C11 121.50(11) . .
C17 C12 H12 119.2 . .
C14 C13 H13 118.9 . .
C18 C13 H13 118.9 . .
C18 C13 C14 122.13(11) . .
C13 C14 H14 119.9 . .
C15 C14 C13 120.17(11) . .
C15 C14 H14 119.9 . .
C14 C15 H15 119.9 . .
C14 C15 C16 120.26(11) . .
C16 C15 H15 119.9 . .
C10 C16 C19 119.49(10) . .
C15 C16 C10 120.71(11) . .
C15 C16 C19 119.80(10) . .
C12 C17 C18 122.29(10) . 2_666
C12 C17 C19 118.52(10) . .
C19 C17 C18 119.19(9) . 2_666
C13 C18 C17 122.08(10) . 2_666
C13 C18 C19 118.43(10) . .
C19 C18 C17 119.48(9) . 2_666
C16 C19 C17 119.50(10) . .
C16 C19 C18 119.18(10) . .
C17 C19 C18 121.32(10) . .
loop_
_geom_bond_atom_site_label_1
_geom_bond_atom_site_label_2
_geom_bond_distance
_geom_bond_site_symmetry_2
C1 C1 1.353(2) 2_565
C1 S1 1.7475(11) .
C1 S2 1.7439(12) .
C2 H2 0.9500 .
C2 C3 1.3258(18) .
C2 S1 1.7314(13) .
C3 H3 0.9500 .
C3 S2 1.7312(13) .
O1 C4 1.2129(14) .
C4 C5 1.4801(17) .
C4 C6 1.4792(17) 2
C5 C6 1.3428(16) .
C5 Cl1 1.6988(12) .
C6 C4 1.4791(17) 2
C6 Cl2 1.7041(12) .
O2 C7 1.2079(14) .
C7 C8 1.4823(16) .
C7 C9 1.4864(16) 2_566
C8 C9 1.3368(16) .
C8 Cl3 1.7019(11) .
C9 C7 1.4864(16) 2_566
C9 Cl4 1.6991(11) .
C10 H10 0.9500 .
C10 C11 1.3619(18) .
C10 C16 1.4128(16) .
C11 H11 0.9500 .
C11 C12 1.4009(17) .
C12 H12 0.9500 .
C12 C17 1.3849(15) .
C13 H13 0.9500 .
C13 C14 1.3992(17) .
C13 C18 1.3819(16) .
C14 H14 0.9500 .
C14 C15 1.3653(17) .
C15 H15 0.9500 .
C15 C16 1.4115(16) .
C16 C19 1.4224(15) .
C17 C18 1.4674(15) 2_666
C17 C19 1.4275(15) .
C18 C17 1.4675(15) 2_666
C18 C19 1.4282(15) .
loop_
_geom_torsion_atom_site_label_1
_geom_torsion_atom_site_label_2
_geom_torsion_atom_site_label_3
_geom_torsion_atom_site_label_4
_geom_torsion
_geom_torsion_site_symmetry_1
_geom_torsion_site_symmetry_4
C1 C1 S1 C2 -179.75(17) 2_565 .
C1 C1 S2 C3 179.83(17) 2_565 .
C2 C3 S2 C1 -0.01(13) . .
C3 C2 S1 C1 -0.25(13) . .
S1 C1 S2 C3 -0.16(9) . .
S1 C2 C3 S2 0.18(17) . .
S2 C1 S1 C2 0.24(9) . .
O1 C4 C5 C6 176.55(13) . .
O1 C4 C5 Cl1 -0.87(18) . .
C4 C5 C6 C4 2.2(2) . 2
C4 C5 C6 Cl2 -177.90(10) . .
C6 C4 C5 C6 -2.1(2) 2 .
C6 C4 C5 Cl1 -179.48(9) 2 .
Cl1 C5 C6 C4 179.38(10) . 2
Cl1 C5 C6 Cl2 -0.68(17) . .
O2 C7 C8 C9 -179.65(12) . .
O2 C7 C8 Cl3 -0.02(15) . .
C7 C8 C9 C7 -0.32(19) . 2_566
C7 C8 C9 Cl4 179.68(8) . .
C9 C7 C8 C9 0.30(18) 2_566 .
C9 C7 C8 Cl3 179.93(8) 2_566 .
Cl3 C8 C9 C7 -179.91(8) . 2_566
Cl3 C8 C9 Cl4 0.08(15) . .
C10 C11 C12 C17 0.11(19) . .
C10 C16 C19 C17 0.37(15) . .
C10 C16 C19 C18 -179.60(10) . .
C11 C10 C16 C15 178.12(12) . .
C11 C10 C16 C19 -1.40(17) . .
C11 C12 C17 C18 178.78(11) . 2_666
C11 C12 C17 C19 -1.13(17) . .
C12 C17 C19 C16 0.86(15) . .
C12 C17 C19 C18 -179.16(10) . .
C13 C14 C15 C16 -1.57(19) . .
C13 C18 C19 C16 -1.97(15) . .
C13 C18 C19 C17 178.05(10) . .
C14 C13 C18 C17 -179.68(11) . 2_666
C14 C13 C18 C19 1.37(17) . .
C14 C15 C16 C10 -178.61(11) . .
C14 C15 C16 C19 0.91(17) . .
C15 C16 C19 C17 -179.15(10) . .
C15 C16 C19 C18 0.87(15) . .
C16 C10 C11 C12 1.18(19) . .
C17 C18 C19 C16 179.05(9) 2_666 .
C17 C18 C19 C17 -0.92(17) 2_666 .
C18 C13 C14 C15 0.41(19) . .
C18 C17 C19 C16 -179.05(9) 2_666 .
C18 C17 C19 C18 0.92(16) 2_666 .
loop_
_refln_index_h
_refln_index_k
_refln_index_l
_refln_F_squared_meas
_refln_F_squared_sigma
-1 0 0 98.81 1.8
-1 0 0 93.75 1.78
-1 0 0 95.26 1.79
-1 0 0 95.39 1.83
1 0 0 96.44 2.04
1 0 0 95.26 1.77
1 0 0 101.04 1.77
-2 0 0 60.24 1.13
-2 0 0 59.56 1.15
-2 0 0 60.15 1.16
-2 0 0 59.04 1.12
2 0 0 60.19 1.11
2 0 0 60.51 1.11
2 0 0 60.39 1.11
-3 0 0 106.87 1.97
-3 0 0 102.33 1.99
-3 0 0 101.71 1.95
-3 0 0 103.93 1.98
3 0 0 104.22 1.93
3 0 0 103.92 1.93
3 0 0 104.93 1.99
3 0 0 108.35 1.92
-4 0 0 6.34 0.2
-4 0 0 5.78 0.19
-4 0 0 6.2 0.23
4 0 0 6.19 0.16
4 0 0 5.83 0.23
4 0 0 5.95 0.18
4 0 0 6.1 0.18
-5 0 0 1.17 0.13
-5 0 0 1.1 0.09
-5 0 0 1.32 0.09
5 0 0 1.1 0.08
5 0 0 1.01 0.06
5 0 0 1.23 0.09
5 0 0 1 0.12
-6 0 0 12.39 0.43
-6 0 0 13.43 0.37
6 0 0 12.87 0.36
6 0 0 13.7 0.45
-7 0 0 15.51 0.43
-7 0 0 15.26 0.52
7 0 0 15.71 0.52
7 0 0 14.94 0.43
-8 0 0 0.2 0.07
-8 0 0 0.11 0.08
8 0 0 0.29 0.1
8 0 0 0.1 0.06
-9 0 0 0.14 0.1
-9 0 0 0.08 0.06
9 0 0 0.03 0.08
9 0 0 -0.04 0.04
-10 0 0 6.46 0.4
-10 0 0 5.71 0.26
10 0 0 5.98 0.3
10 0 0 6.65 0.4
10 -1 0 6.35 0.32
10 -1 0 5.15 0.35
-10 1 0 6.35 0.4
-10 1 0 5.58 0.29
9 -1 0 3.96 0.28
9 -1 0 4.08 0.24
-9 1 0 3.67 0.28
-9 1 0 4.23 0.24
8 -1 0 2.16 0.22
8 -1 0 1.87 0.18
-8 1 0 1.83 0.17
-8 1 0 2.11 0.22
7 -1 0 26.21 0.73
7 -1 0 25.38 0.64
-7 1 0 24.89 0.65
-7 1 0 25.14 0.72
6 -1 0 3.16 0.17
6 -1 0 3.38 0.2
-6 1 0 3.21 0.2
-6 1 0 3.13 0.18
5 -1 0 28.2 0.71
5 -1 0 29.84 0.56
5 -1 0 28.84 0.66
-5 1 0 29.59 0.68
-5 1 0 29.24 0.72
-5 1 0 28.03 0.67
4 -1 0 27.53 0.53
4 -1 0 27.01 0.64
4 -1 0 26.68 0.6
-4 1 0 27.04 0.64
-4 1 0 26.88 0.62
-4 1 0 27.49 0.62
3 -1 0 0.43 0.05
3 -1 0 0.4 0.06
3 -1 0 0.4 0.03
3 -1 0 0.47 0.06
-3 1 0 0.49 0.06
-3 1 0 0.34 0.06
2 -1 0 87.69 1.66
2 -1 0 89.46 1.64
2 -1 0 88.86 1.67
2 -1 0 92.81 1.68
-2 1 0 88.13 1.66
-2 1 0 86.5 1.67
-2 1 0 90.28 1.67
1 -1 0 27.72 0.56
1 -1 0 27.99 0.54
1 -1 0 27.63 0.55
1 -1 0 27.92 0.53
-1 1 0 28.09 0.56
-1 1 0 28.51 0.55
-1 1 0 28.09 0.55
0 -1 0 30.76 0.57
0 -1 0 31.3 0.58
0 -1 0 29.04 0.57
0 -1 0 30 0.57
0 1 0 30.49 0.57
0 1 0 30.35 0.57
0 1 0 30.4 0.57
-1 -1 0 1.3 0.06
-1 -1 0 1.29 0.06
-1 -1 0 1.26 0.06
-2 -1 0 219.47 4.02
-2 -1 0 217.28 4.03
-2 -1 0 214.69 4.13
-2 -1 0 206.46 4.03
-2 -1 0 218.19 3.98
-3 -1 0 32.47 0.72
-3 -1 0 32.32 0.66
-3 -1 0 33.16 0.71
-3 -1 0 34.08 0.64
-3 -1 0 32.94 0.63
3 1 0 33.47 0.63
3 1 0 33.88 0.63
-4 -1 0 28.06 0.66
-4 -1 0 27.81 0.57
-4 -1 0 28.38 0.67
-4 -1 0 29.13 0.58
4 1 0 28.22 0.57
4 1 0 29.08 0.57
4 1 0 28.84 0.59
-5 -1 0 13.01 0.32
-5 -1 0 12.89 0.41
-5 -1 0 13.13 0.32
5 1 0 12.83 0.32
5 1 0 13.39 0.32
5 1 0 13.32 0.32
-6 -1 0 36.91 0.76
-6 -1 0 35.78 0.88
-6 -1 0 35.23 0.75
6 1 0 35.66 0.76
6 1 0 35.67 0.89
-7 -1 0 0.14 0.07
-7 -1 0 0.17 0.05
7 1 0 0.34 0.1
7 1 0 0.16 0.05
-8 -1 0 1.39 0.11
-8 -1 0 1.43 0.19
8 1 0 1.32 0.13
8 1 0 1.72 0.21
-9 -1 0 6.31 0.35
-9 -1 0 5.87 0.22
9 1 0 6.87 0.38
9 1 0 5.89 0.26
-10 -1 0 4.35 0.32
-10 -1 0 3.87 0.16
10 1 0 4.17 0.23
10 1 0 4.13 0.31
10 -2 0 2.96 0.26
10 -2 0 2.25 0.27
-10 2 0 2.56 0.3
-10 2 0 2.62 0.25
9 -2 0 5.24 0.33
9 -2 0 5.28 0.29
-9 2 0 5.17 0.34
-9 2 0 5.32 0.3
8 -2 0 3.66 0.25
8 -2 0 3.94 0.24
-8 2 0 3.8 0.27
-8 2 0 3.62 0.23
7 -2 0 0.17 0.07
7 -2 0 0.2 0.08
-7 2 0 0.3 0.08
-7 2 0 0.04 0.07
6 -2 0 10.94 0.36
-6 2 0 11.42 0.41
-6 2 0 10.82 0.38
5 -2 0 6.16 0.25
5 -2 0 5.59 0.24
5 -2 0 5.45 0.15
5 -2 0 5.54 0.22
-5 2 0 4.98 0.23
-5 2 0 5.75 0.26
4 -2 0 133.92 2.5
4 -2 0 129.47 2.51
4 -2 0 136.63 2.53
4 -2 0 131.45 2.41
-4 2 0 127.08 2.52
-4 2 0 134.25 2.49
-4 2 0 128.03 2.53
3 -2 0 23.73 0.55
3 -2 0 24.66 0.5
3 -2 0 24.08 0.55
3 -2 0 24.94 0.58
-3 2 0 23.86 0.56
-3 2 0 23.47 0.57
-3 2 0 25.19 0.55
2 -2 0 110.27 2.06
2 -2 0 107.68 2.05
2 -2 0 111.25 2.09
2 -2 0 113.88 2.07
-2 2 0 108.6 2.08
-2 2 0 109.74 2.08
-2 2 0 111.35 2.07
1 -2 0 718.75 15.02
1 -2 0 712.02 14.66
1 -2 0 742.9 14.47
1 -2 0 711.19 13.25
-1 2 0 762.85 15.95
-1 2 0 709.54 15.56
-1 2 0 738.45 15.68
0 -2 0 45.5 0.88
0 -2 0 46.73 0.85
0 -2 0 44.93 0.88
0 -2 0 46.49 0.9
0 2 0 45.25 0.87
0 2 0 45.75 0.88
0 2 0 46.18 0.87
-1 -2 0 32.34 0.6
-1 -2 0 30.88 0.65
-1 -2 0 31.28 0.6
-1 -2 0 30.85 0.62
1 2 0 31.97 0.59
1 2 0 32.52 0.64
1 2 0 31.95 0.59
-2 -2 0 106.21 1.99
-2 -2 0 104.19 1.99
-2 -2 0 107.41 1.99
-3 -2 0 130.09 2.47
-3 -2 0 132.87 2.5
-3 -2 0 133.86 2.5
-4 -2 0 1.95 0.11
-4 -2 0 2.12 0.13
-4 -2 0 2.35 0.14
4 2 0 2.32 0.07
4 2 0 2.21 0.07
-5 -2 0 17.53 0.51
-5 -2 0 17.85 0.51
5 2 0 18.4 0.39
5 2 0 18.51 0.45
5 2 0 18.3 0.39
-6 -2 0 12.37 0.42
6 2 0 12.47 0.35
6 2 0 12.94 0.31
6 2 0 12.44 0.31
6 2 0 12.55 0.44
-7 -2 0 0.28 0.09
7 2 0 0.32 0.06
7 2 0 0.22 0.09
-8 -2 0 0.15 0.08
8 2 0 0.04 0.04
8 2 0 0.01 0.07
-9 -2 0 0.98 0.18
9 2 0 0.99 0.11
9 2 0 1.17 0.2
-10 -2 0 3.28 0.33
10 2 0 3.39 0.2
10 2 0 2.99 0.32
10 -3 0 0.24 0.11
10 -3 0 0.03 0.09
-10 3 0 0.17 0.1
-10 3 0 0.05 0.1
9 -3 0 0.27 0.11
9 -3 0 0.27 0.09
-9 3 0 0.13 0.11
-9 3 0 0.22 0.1
8 -3 0 7.57 0.37
8 -3 0 8.57 0.37
-8 3 0 8.12 0.4
-8 3 0 8.4 0.38
7 -3 0 7.28 0.32
7 -3 0 7.78 0.35
-7 3 0 7.74 0.37
-7 3 0 7.14 0.34
6 -3 0 4.88 0.24
6 -3 0 4.77 0.24
-6 3 0 4.33 0.24
-6 3 0 4.61 0.26
5 -3 0 0.06 0.04
5 -3 0 0.05 0.05
5 -3 0 -0.01 0.04
5 -3 0 0.09 0.03
-5 3 0 0.04 0.05
-5 3 0 0.08 0.05
4 -3 0 40.73 0.87
4 -3 0 38.51 0.9
4 -3 0 38.87 0.86
4 -3 0 38.36 0.8
-4 3 0 38.97 0.9
-4 3 0 39.31 0.89
-4 3 0 39.65 0.87
3 -3 0 14.41 0.39
3 -3 0 14.99 0.36
3 -3 0 14.73 0.42
3 -3 0 14.47 0.37
-3 3 0 14.88 0.39
-3 3 0 14.46 0.41
-3 3 0 14.47 0.4
2 -3 0 0.03 0.03
2 -3 0 0 0.03
2 -3 0 0.01 0.02
2 -3 0 0.01 0.03
-2 3 0 0.03 0.03
-2 3 0 -0.03 0.02
-2 3 0 -0.02 0.02
1 -3 0 0.77 0.08
1 -3 0 0.9 0.09
1 -3 0 0.94 0.06
1 -3 0 0.88 0.07
-1 3 0 0.98 0.07
-1 3 0 0.98 0.08
-1 3 0 1.25 0.08
0 -3 0 0.11 0.03
0 -3 0 0.19 0.03
0 -3 0 0.28 0.05
0 -3 0 0.14 0.04
0 3 0 0.14 0.03
0 3 0 0.11 0.03
0 3 0 0.18 0.03
-1 -3 0 1.8 0.08
-1 -3 0 1.91 0.11
-1 -3 0 1.87 0.08
-1 -3 0 1.77 0.08
1 3 0 1.86 0.09
1 3 0 1.91 0.07
1 3 0 1.75 0.07
-2 -3 0 -0.01 0.03
-2 -3 0 -0.02 0.03
-2 -3 0 0 0.01
-2 -3 0 0.02 0.01
-2 -3 0 0.03 0.03
2 3 0 0.03 0.01
2 3 0 0.02 0.01
-3 -3 0 16.49 0.43
-3 -3 0 16.52 0.43
-3 -3 0 16.35 0.43
-4 -3 0 0.11 0.05
-4 -3 0 0.02 0.03
-4 -3 0 0.05 0.05
-5 -3 0 18.27 0.53
-5 -3 0 18.83 0.49
-5 -3 0 17.88 0.52
5 3 0 18.54 0.36
5 3 0 18.12 0.36
-6 -3 0 -0.01 0.05
-6 -3 0 -0.02 0.05
6 3 0 0 0.02
6 3 0 0.02 0.04
6 3 0 0.01 0.02
6 3 0 0.07 0.06
-7 -3 0 -0.02 0.07
7 3 0 0.03 0.03
7 3 0 0.01 0.07
-8 -3 0 5.97 0.32
8 3 0 5.87 0.34
8 3 0 5.98 0.21
-9 -3 0 0.08 0.09
9 3 0 0.04 0.09
9 3 0 0.01 0.04
-10 -3 0 5.33 0.38
10 3 0 5.47 0.37
10 3 0 5.16 0.23
10 -4 0 -0.08 0.07
10 -4 0 0.08 0.09
-10 4 0 0.13 0.11
-10 4 0 0.05 0.1
9 -4 0 2.01 0.24
9 -4 0 2 0.22
-9 4 0 1.62 0.22
-9 4 0 1.2 0.2
8 -4 0 7.7 0.37
8 -4 0 8.45 0.37
-8 4 0 7.55 0.4
-8 4 0 7.64 0.39
7 -4 0 1.73 0.18
7 -4 0 1.83 0.19
-7 4 0 1.95 0.22
-7 4 0 1.79 0.21
6 -4 0 47.77 1.11
6 -4 0 47.9 1.1
-6 4 0 47.78 1.16
-6 4 0 47.57 1.15
5 -4 0 27.3 0.62
5 -4 0 27.28 0.7
5 -4 0 28.07 0.69
5 -4 0 27.73 0.74
-5 4 0 26.85 0.74
-5 4 0 27.94 0.73
4 -4 0 4.21 0.17
4 -4 0 4.26 0.19
4 -4 0 4.17 0.22
4 -4 0 4.07 0.2
-4 4 0 4.16 0.21
-4 4 0 4.06 0.2
-4 4 0 4.52 0.23
3 -4 0 0.04 0.05
3 -4 0 0.07 0.04
3 -4 0 0.04 0.03
3 -4 0 0.05 0.03
-3 4 0 0 0.04
-3 4 0 -0.02 0.04
-3 4 0 0.02 0.04
2 -4 0 106.78 2.02
2 -4 0 103.88 2.03
2 -4 0 104.34 1.97
2 -4 0 104.42 2.06
-2 4 0 104.23 2.03
-2 4 0 105.28 2.06
-2 4 0 105.12 2.04
1 -4 0 36.86 0.81
1 -4 0 36.81 0.77
1 -4 0 37.11 0.74
1 -4 0 36.92 0.82
-1 4 0 37.14 0.8
-1 4 0 36.31 0.79
-1 4 0 38.57 0.81
0 -4 0 47.67 0.98
0 -4 0 48.33 0.98
0 -4 0 48.36 0.93
0 -4 0 47.41 1.02
0 4 0 48.77 0.98
0 4 0 48.71 0.96
0 4 0 46.57 0.96
-1 -4 0 22.94 0.51
-1 -4 0 23.8 0.59
-1 -4 0 24.09 0.51
-1 -4 0 24.48 0.52
1 4 0 24.11 0.51
1 4 0 23.85 0.51
1 4 0 24.08 0.55
-2 -4 0 0.08 0.02
-2 -4 0 0.07 0.05
-2 -4 0 0.08 0.02
-2 -4 0 0.09 0.04
2 4 0 0.06 0.04
2 4 0 0.05 0.02
2 4 0 0.12 0.03
-3 -4 0 6.64 0.25
-3 -4 0 7.04 0.27
-3 -4 0 7.16 0.25
3 4 0 6.97 0.16
3 4 0 6.86 0.16
3 4 0 6.96 0.25
-4 -4 0 2.56 0.16
-4 -4 0 2.69 0.17
-4 -4 0 2.75 0.17
-5 -4 0 27.94 0.71
-5 -4 0 28.58 0.73
-5 -4 0 28.58 0.72
-6 -4 0 3.75 0.23
-6 -4 0 3.51 0.2
-6 -4 0 3.77 0.23
6 4 0 3.43 0.1
6 4 0 3.48 0.1
-7 -4 0 1.46 0.19
7 4 0 1.19 0.07
7 4 0 1.2 0.17
-8 -4 0 3.59 0.26
8 4 0 3.65 0.27
8 4 0 3.38 0.13
-9 -4 0 5.22 0.34
9 4 0 4.02 0.31
9 4 0 5.17 0.18
9 -5 0 0.44 0.12
-9 5 0 0.62 0.15
-9 5 0 0.42 0.15
8 -5 0 10.9 0.45
-8 5 0 11.75 0.52
-8 5 0 11.84 0.51
7 -5 0 2.67 0.2
-7 5 0 2.59 0.26
-7 5 0 2.56 0.26
6 -5 0 1.44 0.16
-6 5 0 1.45 0.18
-6 5 0 1.75 0.21
5 -5 0 1.35 0.14
5 -5 0 1.18 0.12
5 -5 0 1.6 0.18
5 -5 0 1.32 0.17
-5 5 0 1.51 0.17
-5 5 0 1.23 0.17
4 -5 0 1.82 0.13
4 -5 0 1.7 0.13
4 -5 0 1.82 0.17
4 -5 0 1.64 0.18
-4 5 0 1.86 0.17
-4 5 0 1.94 0.19
-4 5 0 1.69 0.17
3 -5 0 0.09 0.05
3 -5 0 0.07 0.05
3 -5 0 0.08 0.04
-3 5 0 0.04 0.05
-3 5 0 0.04 0.05
-3 5 0 0.01 0.04
2 -5 0 0.41 0.08
2 -5 0 0.37 0.06
2 -5 0 0.47 0.09
-2 5 0 0.48 0.09
-2 5 0 0.33 0.08
-2 5 0 0.51 0.09
1 -5 0 0.01 0.04
1 -5 0 0.06 0.03
1 -5 0 0 0.04
-1 5 0 0.08 0.04
-1 5 0 0.09 0.04
-1 5 0 0.02 0.03
0 -5 0 8.93 0.32
0 -5 0 8.38 0.28
0 -5 0 8.6 0.23
0 -5 0 8.99 0.27
0 5 0 8.09 0.26
0 5 0 7.94 0.27
0 5 0 7.92 0.26
-1 -5 0 16.52 0.48
-1 -5 0 15.25 0.39
-1 -5 0 16.11 0.39
-1 -5 0 16.66 0.4
1 5 0 16.03 0.43
1 5 0 15.81 0.39
1 5 0 15.78 0.39
-2 -5 0 -0.01 0.03
-2 -5 0 0.04 0.05
-2 -5 0 -0.02 0.02
-2 -5 0 -0.01 0.02
2 5 0 0.05 0.04
2 5 0 0.05 0.03
2 5 0 0.05 0.03
-3 -5 0 0.32 0.08
-3 -5 0 0.41 0.07
3 5 0 0.2 0.06
3 5 0 0.31 0.04
3 5 0 0.34 0.04
-4 -5 0 53.23 1.15
-4 -5 0 52.9 1.19
4 5 0 51.35 1.14
4 5 0 52.02 0.98
4 5 0 52.09 0.98
-5 -5 0 0.07 0.06
-5 -5 0 0.03 0.05
-5 -5 0 0.03 0.05
5 5 0 0.03 0.01
5 5 0 0.02 0.01
-6 -5 0 10.27 0.39
-6 -5 0 10.33 0.4
-6 -5 0 10.32 0.41
-7 -5 0 0.04 0.08
7 5 0 0.15 0.02
7 5 0 0.13 0.08
7 5 0 0.1 0.02
-8 -5 0 0.65 0.15
8 5 0 0.74 0.04
8 5 0 0.73 0.15
9 5 0 7.1 0.41
9 5 0 6.71 0.17
9 -6 0 -0.06 0.08
-9 6 0 -0.08 0.07
8 -6 0 -0.01 0.07
-8 6 0 -0.1 0.08
7 -6 0 -0.01 0.06
-7 6 0 -0.01 0.07
6 -6 0 1.68 0.17
-6 6 0 1.47 0.19
5 -6 0 1.42 0.14
-5 6 0 1.31 0.17
4 -6 0 -0.02 0.03
4 -6 0 0 0.06
4 -6 0 0.02 0.05
-4 6 0 0.04 0.07
-4 6 0 0 0.05
3 -6 0 31.29 0.83
3 -6 0 32.38 0.8
3 -6 0 31.67 0.71
-3 6 0 32.2 0.81
-3 6 0 32.05 0.81
2 -6 0 1.23 0.15
2 -6 0 1.01 0.13
2 -6 0 1.34 0.1
-2 6 0 1.17 0.13
-2 6 0 1.01 0.13
1 -6 0 24.58 0.66
1 -6 0 25.43 0.56
1 -6 0 23.32 0.63
-1 6 0 23.48 0.62
-1 6 0 24.07 0.62
0 -6 0 0.33 0.09
0 -6 0 0.38 0.07
0 6 0 0.3 0.07
0 6 0 0.28 0.07
-1 -6 0 18.91 0.57
-1 -6 0 18.89 0.47
1 6 0 18.45 0.5
1 6 0 18.39 0.47
-2 -6 0 2.71 0.12
-2 -6 0 2.87 0.12
-2 -6 0 2.84 0.2
2 6 0 2.73 0.14
2 6 0 2.88 0.17
-3 -6 0 10.37 0.4
3 6 0 9.79 0.35
3 6 0 10.1 0.28
-4 -6 0 10.14 0.4
4 6 0 9.47 0.35
4 6 0 9.62 0.25
-5 -6 0 2.85 0.22
5 6 0 2.51 0.09
5 6 0 2.73 0.1
5 6 0 2.95 0.2
-6 -6 0 8.35 0.38
6 6 0 8.14 0.16
6 6 0 7.88 0.16
6 6 0 8.45 0.36
7 6 0 2.23 0.23
-8 7 0 1.96 0.26
-7 7 0 0.24 0.11
-6 7 0 7.36 0.39
-5 7 0 5.86 0.33
4 -7 0 1.14 0.17
4 -7 0 1.08 0.14
-4 7 0 0.86 0.14
-4 7 0 1.05 0.16
3 -7 0 4.17 0.25
3 -7 0 4.67 0.28
-3 7 0 4.38 0.25
-3 7 0 4.81 0.26
2 -7 0 8.93 0.37
2 -7 0 9.33 0.38
-2 7 0 9.27 0.37
-2 7 0 9.67 0.37
1 -7 0 4.02 0.23
1 -7 0 3.93 0.24
-1 7 0 3.68 0.22
-1 7 0 3.98 0.22
0 -7 0 -0.02 0.06
0 -7 0 -0.02 0.04
0 7 0 -0.01 0.05
0 7 0 0.04 0.05
-1 -7 0 1.09 0.11
-1 -7 0 0.84 0.14
1 7 0 1.01 0.13
1 7 0 1.04 0.12
-2 -7 0 -0.03 0.06
-2 -7 0 0.03 0.04
2 7 0 0.01 0.04
2 7 0 0.1 0.06
-3 -7 0 0.11 0.09
3 7 0 -0.01 0.05
3 7 0 0.01 0.04
-4 -7 0 8.28 0.39
4 7 0 8.14 0.34
4 7 0 8.24 0.25
-5 -7 0 17.27 0.6
5 7 0 16.63 0.54
5 7 0 16.87 0.39
-6 -7 0 0.42 0.12
6 7 0 0.41 0.04
-7 8 0 2.39 0.29
-6 8 0 2.06 0.26
-5 8 0 1.15 0.19
4 -8 0 6.17 0.36
4 -8 0 5.82 0.32
-4 8 0 6.67 0.36
3 -8 0 0 0.07
3 -8 0 0.03 0.08
-3 8 0 0.02 0.07
-3 8 0 -0.04 0.06
2 -8 0 0.65 0.14
2 -8 0 0.46 0.12
-2 8 0 0.38 0.1
-2 8 0 0.41 0.1
1 -8 0 5.03 0.31
1 -8 0 5.49 0.29
-1 8 0 5.1 0.27
-1 8 0 6.14 0.29
0 -8 0 24.05 0.74
0 -8 0 21.96 0.63
0 8 0 23.31 0.66
0 8 0 24.75 0.66
-1 -8 0 0.55 0.13
-1 -8 0 0.49 0.09
1 8 0 0.65 0.11
1 8 0 0.55 0.1
-2 -8 0 3.2 0.15
-2 -8 0 3 0.29
2 8 0 3.3 0.19
2 8 0 3.11 0.21
-3 -8 0 0.72 0.15
3 8 0 1.03 0.15
3 8 0 0.78 0.1
-4 -8 0 1.97 0.25
4 8 0 2.13 0.13
4 8 0 1.73 0.19
-5 -8 0 1.03 0.19
5 8 0 1.24 0.09
-6 -8 0 0.45 0.14
6 8 0 0.31 0.04
-6 9 0 0.36 0.13
-5 9 0 8.04 0.43
4 -9 0 0.04 0.09
4 -9 0 0.03 0.08
-4 9 0 0.03 0.08
3 -9 0 0.13 0.1
3 -9 0 0.15 0.1
-3 9 0 0.22 0.11
-3 9 0 0.37 0.13
2 -9 0 2.58 0.28
2 -9 0 2.88 0.27
-2 9 0 3.04 0.24
-2 9 0 2.26 0.23
1 -9 0 0.59 0.14
1 -9 0 0.52 0.13
-1 9 0 0.56 0.13
-1 9 0 0.41 0.11
0 -9 0 1.11 0.19
0 -9 0 1.22 0.16
0 9 0 1.01 0.16
0 9 0 0.89 0.14
-1 -9 0 7.15 0.4
-1 -9 0 7.13 0.29
1 9 0 7.51 0.33
1 9 0 7.2 0.34
-2 -9 0 0.79 0.09
-2 -9 0 0.41 0.14
2 9 0 0.74 0.13
2 9 0 0.67 0.12
-3 -9 0 4.05 0.31
3 9 0 3.66 0.25
3 9 0 4.1 0.22
-4 -9 0 0.2 0.12
4 9 0 0.21 0.07
-5 -9 0 0.47 0.16
5 9 0 0.49 0.08
4 -10 0 3 0.31
-4 10 0 3.53 0.34
3 -10 0 1.29 0.2
3 -10 0 1.45 0.23
-3 10 0 1.37 0.21
-3 10 0 1.47 0.21
2 -10 0 0.89 0.16
2 -10 0 0.77 0.18
-2 10 0 0.85 0.17
-2 10 0 1.09 0.19
1 -10 0 0.01 0.09
1 -10 0 0.1 0.09
-1 10 0 0.05 0.08
-1 10 0 0.13 0.09
0 -10 0 0.41 0.14
0 -10 0 0.26 0.09
0 10 0 0.33 0.11
0 10 0 0.48 0.12
-1 -10 0 1.66 0.17
-1 -10 0 2.11 0.27
1 10 0 1.95 0.21
1 10 0 1.94 0.22
-2 -10 0 1.09 0.22
-2 -10 0 0.87 0.1
2 10 0 0.95 0.14
-3 -10 0 0.1 0.11
3 10 0 0.06 0.06
3 10 -1 -0.04 0.05
-3 -10 1 0 0.1
2 10 -1 4.11 0.25
-2 -10 1 3.97 0.32
-2 -10 1 3.98 0.18
1 10 -1 4.2 0.26
-1 -10 1 3.56 0.35
-1 -10 1 4.15 0.23
0 10 -1 2.87 0.26
0 10 -1 2.95 0.24
0 -10 1 2.52 0.21
0 -10 1 2.32 0.28
-1 10 -1 2.22 0.24
-1 10 -1 2.02 0.23
1 -10 1 2.54 0.29
1 -10 1 1.78 0.21
-2 10 -1 0.07 0.1
-2 10 -1 -0.02 0.08
2 -10 1 0.05 0.09
2 -10 1 0.22 0.1
-3 10 -1 5.37 0.35
-3 10 -1 5.88 0.36
3 -10 1 5.49 0.36
3 -10 1 6.11 0.37
-4 10 -1 0.41 0.14
4 -10 1 0.68 0.16
5 9 -1 0.07 0.05
-5 -9 1 -0.01 0.09
4 9 -1 2.83 0.17
-4 -9 1 3.24 0.33
3 9 -1 3.71 0.21
-3 -9 1 3.66 0.29
2 9 -1 9 0.35
2 9 -1 8.91 0.38
-2 -9 1 9.44 0.3
-2 -9 1 9.48 0.47
1 9 -1 0.43 0.11
1 9 -1 0.47 0.1
-1 -9 1 0.32 0.12
0 9 -1 3.15 0.22
0 9 -1 3.29 0.23
0 -9 1 3.32 0.22
0 -9 1 3.14 0.31
-1 9 -1 7.25 0.35
-1 9 -1 7.49 0.35
1 -9 1 6.86 0.34
1 -9 1 6.92 0.38
-2 9 -1 15.01 0.55
-2 9 -1 15.35 0.55
2 -9 1 14.94 0.58
2 -9 1 16.2 0.57
-3 9 -1 -0.05 0.07
-3 9 -1 0.13 0.09
3 -9 1 0.02 0.08
3 -9 1 0.06 0.08
-4 9 -1 0.39 0.13
4 -9 1 0.52 0.14
4 -9 1 0.52 0.14
-5 9 -1 3.85 0.3
-6 9 -1 0.62 0.17
6 8 -1 1.49 0.08
-6 -8 1 1.56 0.22
5 8 -1 0.03 0.04
-5 -8 1 0.03 0.08
4 8 -1 5.7 0.22
-4 -8 1 5.07 0.33
3 8 -1 19.56 0.52
3 8 -1 20.22 0.59
-3 -8 1 19.71 0.68
2 8 -1 1.31 0.15
2 8 -1 1.44 0.14
-2 -8 1 1.56 0.11
-2 -8 1 1.06 0.17
1 8 -1 0.99 0.14
1 8 -1 1.21 0.14
-1 -8 1 1.06 0.12
-1 -8 1 0.79 0.15
0 8 -1 0.04 0.06
0 8 -1 0.01 0.06
0 -8 1 0.03 0.07
0 -8 1 -0.03 0.05
-1 8 -1 0.26 0.09
-1 8 -1 0.17 0.07
1 -8 1 0.14 0.07
1 -8 1 0.22 0.1
-2 8 -1 0.09 0.07
-2 8 -1 -0.03 0.06
2 -8 1 -0.02 0.06
2 -8 1 0.12 0.08
-3 8 -1 28.32 0.8
-3 8 -1 29.19 0.81
3 -8 1 28.6 0.83
3 -8 1 27.51 0.79
-4 8 -1 37.93 1.01
4 -8 1 36.81 0.96
4 -8 1 38.4 1.04
-5 8 -1 1.1 0.18
-6 8 -1 2.9 0.3
-7 8 -1 0.62 0.18
6 7 -1 6.2 0.16
-6 -7 1 6.76 0.36
5 7 -1 1.03 0.14
5 7 -1 0.97 0.07
-5 -7 1 0.88 0.16
4 7 -1 4.3 0.17
4 7 -1 4.17 0.23
-4 -7 1 3.93 0.27
3 7 -1 6.32 0.23
3 7 -1 6.06 0.27
-3 -7 1 6.75 0.34
2 7 -1 2.43 0.16
2 7 -1 2.18 0.14
-2 -7 1 2.27 0.12
-2 -7 1 2.48 0.24
1 7 -1 20.02 0.54
1 7 -1 19.28 0.51
-1 -7 1 19.37 0.51
-1 -7 1 18.64 0.61
0 7 -1 3.19 0.19
0 7 -1 3.36 0.2
0 -7 1 2.79 0.21
0 -7 1 3.54 0.2
-1 7 -1 1.66 0.16
-1 7 -1 1.75 0.17
1 -7 1 1.57 0.17
1 -7 1 1.38 0.17
-2 7 -1 0.72 0.12
-2 7 -1 0.78 0.12
2 -7 1 0.95 0.14
2 -7 1 0.79 0.13
-3 7 -1 0.99 0.14
-3 7 -1 1.17 0.15
3 -7 1 1.13 0.15
3 -7 1 1.53 0.18
-4 7 -1 0.07 0.07
-4 7 -1 0.01 0.06
4 -7 1 0.07 0.06
4 -7 1 0.12 0.08
-5 7 -1 0 0.07
-6 7 -1 0.03 0.08
-7 7 -1 1.09 0.19
-8 7 -1 0.28 0.13
7 6 -1 0 0.07
6 6 -1 7.84 0.34
6 6 -1 7.9 0.15
6 6 -1 7.75 0.15
-6 -6 1 7.64 0.36
-6 -6 1 7.98 0.37
5 6 -1 1.62 0.07
5 6 -1 1.87 0.18
5 6 -1 1.61 0.07
-5 -6 1 1.34 0.16
-5 -6 1 1.46 0.18
4 6 -1 20.18 0.55
4 6 -1 19.9 0.44
-4 -6 1 20.07 0.57
-4 -6 1 20.05 0.62
3 6 -1 0.63 0.07
3 6 -1 0.7 0.1
-3 -6 1 0.74 0.1
-3 -6 1 0.76 0.13
2 6 -1 1.56 0.12
2 6 -1 1.8 0.11
-2 -6 1 1.87 0.1
-2 -6 1 1.71 0.18
-2 -6 1 1.76 0.12
-2 -6 1 1.65 0.09
1 6 -1 32.59 0.78
1 6 -1 33.48 0.76
-1 -6 1 34.35 0.75
-1 -6 1 34.79 0.75
-1 -6 1 35.2 0.87
0 6 -1 24.47 0.61
0 6 -1 23.58 0.6
0 -6 1 25.01 0.67
0 -6 1 25.07 0.61
0 -6 1 25.08 0.56
-1 6 -1 0.04 0.04
-1 6 -1 -0.01 0.04
1 -6 1 -0.02 0.04
1 -6 1 0.07 0.03
1 -6 1 -0.06 0.04
-2 6 -1 37.86 0.9
-2 6 -1 38.15 0.9
2 -6 1 38.59 0.83
2 -6 1 38.43 0.91
2 -6 1 39.19 0.93
-3 6 -1 43.85 1.02
-3 6 -1 42.64 1.02
3 -6 1 43.97 1
3 -6 1 42.79 1.05
3 -6 1 43.97 0.94
-4 6 -1 2.31 0.18
-4 6 -1 2.44 0.19
4 -6 1 2.48 0.2
4 -6 1 2.3 0.16
4 -6 1 2.43 0.16
-5 6 -1 3.12 0.22
5 -6 1 3.26 0.19
-6 6 -1 11.09 0.47
6 -6 1 11.63 0.42
-7 6 -1 0.17 0.1
7 -6 1 0.28 0.1
-8 6 -1 0.19 0.13
8 -6 1 0.2 0.1
-9 6 -1 0.04 0.1
-9 6 -1 -0.06 0.1
9 -6 1 0 0.08
9 5 -1 0.19 0.03
9 5 -1 0.28 0.12
8 5 -1 6.41 0.36
8 5 -1 5.85 0.15
7 5 -1 18.99 0.37
7 5 -1 19.34 0.37
-7 -5 1 19.52 0.65
-7 -5 1 20.05 0.62
-6 -5 1 0.28 0.09
-6 -5 1 0.28 0.09
-6 -5 1 0.43 0.1
5 5 -1 0.09 0.02
5 5 -1 0.1 0.02
-5 -5 1 0.11 0.07
-5 -5 1 0.2 0.08
-5 -5 1 0.09 0.06
4 5 -1 0.67 0.05
4 5 -1 0.8 0.11
4 5 -1 0.64 0.05
-4 -5 1 0.71 0.11
-4 -5 1 0.71 0.12
3 5 -1 4.48 0.14
3 5 -1 4.56 0.14
3 5 -1 4.65 0.2
-3 -5 1 4.43 0.23
-3 -5 1 4.59 0.21
2 5 -1 25.79 0.61
2 5 -1 26.34 0.56
2 5 -1 26.18 0.55
-2 -5 1 26.04 0.6
-2 -5 1 25.57 0.67
-2 -5 1 25.36 0.54
-2 -5 1 25.83 0.54
1 5 -1 0.02 0.03
1 5 -1 0.04 0.03
1 5 -1 -0.02 0.03
-1 -5 1 0 0.03
-1 -5 1 0.03 0.03
-1 -5 1 -0.02 0.02
-1 -5 1 0.01 0.05
0 5 -1 0 0.03
0 5 -1 0.02 0.03
0 5 -1 0 0.03
0 -5 1 0.06 0.03
0 -5 1 0 0.03
0 -5 1 0.05 0.04
0 -5 1 0.08 0.05
-1 5 -1 -0.01 0.03
-1 5 -1 0.03 0.04
-1 5 -1 -0.02 0.03
1 -5 1 0.12 0.05
1 -5 1 0.06 0.04
1 -5 1 0.01 0.03
-2 5 -1 7.78 0.3
-2 5 -1 7.87 0.28
-2 5 -1 7.82 0.28
2 -5 1 7.72 0.24
2 -5 1 7.98 0.29
2 -5 1 7.57 0.3
-3 5 -1 3.88 0.21
-3 5 -1 4.22 0.21
-3 5 -1 4.86 0.24
3 -5 1 4.25 0.18
3 -5 1 3.96 0.2
3 -5 1 4.36 0.23
3 -5 1 4.05 0.19
-4 5 -1 29.91 0.78
-4 5 -1 29.36 0.75
-4 5 -1 29.86 0.77
4 -5 1 28.42 0.69
4 -5 1 29.13 0.7
4 -5 1 30.2 0.79
4 -5 1 30.45 0.74
-5 5 -1 1.6 0.18
-5 5 -1 1.41 0.17
5 -5 1 1.64 0.16
5 -5 1 1.74 0.16
-6 5 -1 -0.09 0.05
-6 5 -1 0.01 0.07
6 -5 1 0.1 0.07
-7 5 -1 8.64 0.41
-7 5 -1 8.35 0.41
7 -5 1 9.28 0.38
-8 5 -1 0.71 0.16
-8 5 -1 0.5 0.13
8 -5 1 0.63 0.14
-9 5 -1 6.62 0.41
-9 5 -1 6.89 0.41
9 -5 1 7.04 0.38
9 4 -1 0.05 0.04
9 4 -1 0.01 0.09
8 4 -1 2.78 0.28
8 4 -1 2.64 0.12
-8 -4 1 2.92 0.24
7 4 -1 0.01 0.02
-7 -4 1 0.03 0.07
-7 -4 1 0.08 0.08
6 4 -1 0.2 0.03
6 4 -1 0.1 0.06
6 4 -1 0.2 0.03
-6 -4 1 0.29 0.09
-6 -4 1 0.09 0.07
5 4 -1 11.6 0.23
5 4 -1 12.21 0.23
-5 -4 1 12.71 0.43
-5 -4 1 12.35 0.4
-5 -4 1 12.66 0.4
4 4 -1 7.89 0.15
-4 -4 1 7.82 0.29
-4 -4 1 7.52 0.28
-4 -4 1 7.72 0.29
3 4 -1 0.09 0.02
3 4 -1 0.05 0.02
3 4 -1 0.06 0.04
-3 -4 1 0.01 0.03
-3 -4 1 0.01 0.04
2 4 -1 59.94 1.21
2 4 -1 60.65 1.14
2 4 -1 60.17 1.14
-2 -4 1 59.82 1.13
-2 -4 1 59.99 1.27
-2 -4 1 61.46 1.22
-2 -4 1 62.39 1.13
1 4 -1 54.02 1.05
1 4 -1 54.89 1.04
1 4 -1 54.1 1.08
-1 -4 1 51.95 1.13
-1 -4 1 55.47 1.07
-1 -4 1 54.03 1.05
-1 -4 1 53.09 1.05
0 4 -1 0.02 0.03
0 4 -1 0.12 0.04
0 4 -1 0.04 0.03
0 -4 1 0.03 0.03
0 -4 1 0.09 0.03
0 -4 1 0.07 0.03
0 -4 1 0.04 0.04
-1 4 -1 107.81 2.11
-1 4 -1 112.29 2.14
-1 4 -1 111.43 2.11
1 -4 1 111.8 2.14
1 -4 1 113.67 2.09
1 -4 1 108.43 2.13
1 -4 1 110.15 2.07
-2 4 -1 319.03 6
-2 4 -1 326.96 6
-2 4 -1 329.46 6.1
2 -4 1 316.54 6.02
2 -4 1 322.61 5.95
2 -4 1 322.82 5.93
2 -4 1 323.39 5.98
-3 4 -1 7.84 0.29
-3 4 -1 7.86 0.3
-3 4 -1 8.12 0.28
3 -4 1 8.31 0.31
3 -4 1 8.3 0.26
3 -4 1 8.04 0.26
3 -4 1 7.78 0.27
-4 4 -1 14.08 0.44
-4 4 -1 14.26 0.45
-4 4 -1 13.98 0.42
4 -4 1 14.24 0.45
4 -4 1 14.37 0.4
4 -4 1 14.43 0.37
4 -4 1 14.19 0.42
-5 4 -1 6.77 0.31
-5 4 -1 7.58 0.32
5 -4 1 7.6 0.3
5 -4 1 7.47 0.3
5 -4 1 8.35 0.36
-6 4 -1 34.23 0.91
-6 4 -1 34.65 0.91
6 -4 1 34.72 0.86
6 -4 1 34.64 0.86
-7 4 -1 2.38 0.25
-7 4 -1 2.16 0.23
7 -4 1 2.23 0.21
7 -4 1 2.37 0.22
-8 4 -1 0.22 0.1
-8 4 -1 0.22 0.1
8 -4 1 0.18 0.09
8 -4 1 0.12 0.08
-9 4 -1 4.3 0.32
-9 4 -1 4.3 0.31
9 -4 1 4.78 0.31
9 -4 1 4.65 0.3
-10 4 -1 1.03 0.19
-10 4 -1 0.96 0.21
10 -4 1 0.88 0.18
10 -4 1 1.15 0.19
10 3 -1 0.07 0.05
10 3 -1 0.13 0.11
9 3 -1 1.51 0.22
9 3 -1 1.73 0.12
-9 -3 1 1.91 0.23
8 3 -1 18.52 0.46
8 3 -1 19.59 0.66
-8 -3 1 19.79 0.63
7 3 -1 4.65 0.16
7 3 -1 5.04 0.29
-7 -3 1 5.48 0.31
-7 -3 1 4.66 0.26
6 3 -1 0.29 0.04
6 3 -1 0.29 0.04
6 3 -1 0.43 0.08
-6 -3 1 0.38 0.09
-6 -3 1 0.33 0.09
5 3 -1 62.94 1.18
5 3 -1 63.7 1.18
5 3 -1 64.29 1.32
-5 -3 1 64.1 1.32
-5 -3 1 64.3 1.35
-5 -3 1 64.34 1.38
-4 -3 1 15.19 0.43
-4 -3 1 15.79 0.45
-4 -3 1 16.72 0.44
-3 -3 1 15.65 0.42
-3 -3 1 16.71 0.41
-3 -3 1 16.22 0.43
2 3 -1 2.29 0.07
2 3 -1 2.34 0.07
2 3 -1 2.51 0.11
-2 -3 1 2.28 0.13
-2 -3 1 2.38 0.06
-2 -3 1 2.25 0.06
-2 -3 1 2.45 0.12
-2 -3 1 2.19 0.11
1 3 -1 16.96 0.39
1 3 -1 17.4 0.36
1 3 -1 17.33 0.36
-1 -3 1 16.72 0.37
-1 -3 1 17.79 0.37
-1 -3 1 17.23 0.39
-1 -3 1 17.73 0.43
0 3 -1 58.78 1.14
0 3 -1 58.14 1.14
0 3 -1 58.95 1.13
0 -3 1 59.35 1.15
0 -3 1 59.47 1.18
0 -3 1 60.64 1.13
0 -3 1 59.36 1.15
-1 3 -1 30.85 0.66
-1 3 -1 31.37 0.68
-1 3 -1 31.54 0.66
1 -3 1 31.84 0.65
1 -3 1 32.32 0.67
1 -3 1 30.97 0.68
1 -3 1 31.73 0.64
-2 3 -1 4.47 0.17
-2 3 -1 4.32 0.18
2 -3 1 4.64 0.16
2 -3 1 4.25 0.15
2 -3 1 4.3 0.18
-3 3 -1 11.01 0.33
-3 3 -1 11.61 0.35
-3 3 -1 11.38 0.33
3 -3 1 11.23 0.32
3 -3 1 11.26 0.35
3 -3 1 11.21 0.31
3 -3 1 11.25 0.29
-4 3 -1 18.66 0.52
-4 3 -1 19.44 0.5
-4 3 -1 18.64 0.52
4 -3 1 19.25 0.5
4 -3 1 19.34 0.52
4 -3 1 19.34 0.42
4 -3 1 19.46 0.5
-5 3 -1 6.74 0.29
-5 3 -1 5.98 0.27
5 -3 1 6.19 0.26
5 -3 1 7.16 0.3
5 -3 1 6.87 0.27
-6 3 -1 0.09 0.07
-6 3 -1 -0.05 0.05
6 -3 1 0.02 0.05
6 -3 1 0.02 0.04
-7 3 -1 15.83 0.57
-7 3 -1 16.48 0.54
7 -3 1 17.28 0.53
7 -3 1 17.2 0.55
-8 3 -1 29.93 0.85
-8 3 -1 29.41 0.89
8 -3 1 31.65 0.87
8 -3 1 30.93 0.82
-9 3 -1 -0.07 0.07
-9 3 -1 -0.1 0.06
9 -3 1 0.07 0.07
9 -3 1 0.13 0.08
-10 3 -1 0.32 0.13
-10 3 -1 0.07 0.08
10 -3 1 0.03 0.08
10 -3 1 0.02 0.1
10 2 -1 0.23 0.12
10 2 -1 0.19 0.07
-10 -2 1 0.13 0.12
9 2 -1 5.64 0.36
9 2 -1 6.63 0.26
-9 -2 1 6.81 0.37
8 2 -1 0.04 0.04
8 2 -1 0.02 0.08
-8 -2 1 0.03 0.08
7 2 -1 1.48 0.19
7 2 -1 1.89 0.11
-7 -2 1 1.77 0.19
6 2 -1 1.62 0.11
6 2 -1 1.51 0.09
6 2 -1 1.57 0.09
-6 -2 1 1.48 0.05
-6 -2 1 1.71 0.18
-6 -2 1 1.46 0.15
-6 -2 1 1.53 0.05
5 2 -1 3.71 0.12
5 2 -1 3.71 0.16
5 2 -1 3.76 0.12
-5 -2 1 3.33 0.2
-5 -2 1 3.79 0.19
4 2 -1 56.09 1.04
4 2 -1 56.91 1.14
4 2 -1 56.05 1.04
-4 -2 1 56.45 1.2
-4 -2 1 57.55 1.14
-4 -2 1 55.96 1.17
-3 -2 1 22.53 0.51
-3 -2 1 22.75 0.51
-3 -2 1 21.61 0.53
-2 -2 1 88.11 1.62
-2 -2 1 87.79 1.64
-2 -2 1 81.64 1.63
1 2 -1 0.73 0.03
1 2 -1 0.73 0.04
1 2 -1 0.77 0.05
-1 -2 1 0.73 0.04
-1 -2 1 0.61 0.06
-1 -2 1 0.68 0.05
-1 -2 1 0.75 0.04
0 2 -1 208.22 3.76
0 2 -1 205.57 3.79
0 2 -1 199.81 3.77
0 -2 1 204.73 3.83
0 -2 1 205.6 3.8
0 -2 1 204.46 3.86
0 -2 1 206.35 3.8
-1 2 -1 371.07 6.98
-1 2 -1 373.54 6.99
-1 2 -1 401.69 7.05
1 -2 1 384.77 7.02
1 -2 1 383.5 6.96
1 -2 1 367.51 8.52
1 -2 1 367.09 6.94
-2 2 -1 6.95 0.2
-2 2 -1 6.73 0.21
-2 2 -1 6.03 0.21
2 -2 1 6.94 0.22
2 -2 1 6.83 0.2
2 -2 1 7.06 0.18
2 -2 1 6.86 0.2
-3 2 -1 43.67 0.9
-3 2 -1 43.72 0.93
-3 2 -1 43.04 0.92
3 -2 1 44.04 0.9
3 -2 1 44.65 0.84
3 -2 1 44.02 0.92
3 -2 1 43.56 0.91
-4 2 -1 23.39 0.55
-4 2 -1 23.85 0.58
-4 2 -1 23.88 0.59
4 -2 1 23.39 0.56
4 -2 1 23.82 0.58
4 -2 1 22.81 0.46
4 -2 1 24.12 0.58
-5 2 -1 31.74 0.8
-5 2 -1 32.69 0.78
5 -2 1 34.01 0.79
5 -2 1 32.76 0.75
-6 2 -1 3.31 0.2
-6 2 -1 3.24 0.21
6 -2 1 3.8 0.2
6 -2 1 3.16 0.2
-7 2 -1 9.79 0.38
-7 2 -1 10.45 0.42
7 -2 1 9.98 0.36
7 -2 1 10.05 0.4
-8 2 -1 1.65 0.18
-8 2 -1 1.36 0.2
8 -2 1 1.5 0.17
8 -2 1 1.61 0.2
-9 2 -1 1.6 0.22
-9 2 -1 1.69 0.2
9 -2 1 1.58 0.19
9 -2 1 1.54 0.21
-10 2 -1 0.62 0.14
-10 2 -1 0.75 0.17
10 -2 1 0.73 0.16
10 -2 1 0.88 0.15
10 1 -1 0.14 0.11
10 1 -1 0.13 0.07
-10 -1 1 0.12 0.05
-10 -1 1 0.05 0.1
9 1 -1 22.49 0.76
9 1 -1 22.7 0.62
-9 -1 1 23.48 0.55
-9 -1 1 24.67 0.76
8 1 -1 5.82 0.24
8 1 -1 5.85 0.33
-8 -1 1 5.69 0.21
-8 -1 1 6.13 0.33
7 1 -1 -0.02 0.03
7 1 -1 0.01 0.06
-7 -1 1 0.02 0.06
-7 -1 1 0.04 0.03
6 1 -1 15.36 0.5
6 1 -1 15.29 0.39
6 1 -1 16.02 0.4
-6 -1 1 15.39 0.39
-6 -1 1 15.63 0.48
-6 -1 1 15.95 0.39
5 1 -1 38.81 0.79
5 1 -1 37.6 0.78
5 1 -1 38.99 0.78
-5 -1 1 39.16 0.78
-5 -1 1 38.66 0.78
-5 -1 1 36.78 0.9
-5 -1 1 39.16 0.88
4 1 -1 33.12 0.69
4 1 -1 33.95 0.66
4 1 -1 33.52 0.66
-4 -1 1 31.99 0.76
-4 -1 1 33.94 0.66
-4 -1 1 33.41 0.67
-4 -1 1 32.4 0.74
3 1 -1 2.37 0.1
3 1 -1 2.25 0.08
3 1 -1 2.43 0.08
-3 -1 1 2.42 0.08
-3 -1 1 2.31 0.08
-3 -1 1 2.19 0.11
-3 -1 1 2.21 0.12
2 1 -1 990.59 18.12
2 1 -1 1000 18.13
-2 -1 1 948.37 20.92
-2 -1 1 987.67 18.46
-2 -1 1 991.83 19.96
-2 -1 1 979.17 18.55
-2 -1 1 973.37 19.99
-1 -1 1 0.74 0.03
-1 -1 1 0.68 0.03
-1 -1 1 0.74 0.04
-1 -1 1 0.67 0.05
0 1 -1 63.31 1.18
0 1 -1 62.66 1.18
0 -1 1 62.63 1.17
0 -1 1 62.38 1.18
0 -1 1 61.64 1.18
-1 1 -1 15.96 0.33
-1 1 -1 15.35 0.33
-1 1 -1 15.74 0.34
1 -1 1 15.17 0.32
1 -1 1 15.66 0.34
1 -1 1 15.05 0.32
1 -1 1 15.68 0.31
-2 1 -1 90.46 1.73
-2 1 -1 93.94 1.72
-2 1 -1 91.9 1.71
2 -1 1 90.4 1.7
2 -1 1 91.25 1.67
2 -1 1 93.43 1.72
2 -1 1 90.09 1.72
-3 1 -1 0.08 0.04
-3 1 -1 0.04 0.03
3 -1 1 0.06 0.03
3 -1 1 0.05 0.01
3 -1 1 0.04 0.03
3 -1 1 0.05 0.03
-4 1 -1 0.16 0.04
-4 1 -1 0.05 0.03
-4 1 -1 0.09 0.05
4 -1 1 0.06 0.03
4 -1 1 0.1 0.04
-5 1 -1 11.92 0.35
-5 1 -1 11.38 0.38
-5 1 -1 12.73 0.36
5 -1 1 11.6 0.33
5 -1 1 11.5 0.38
-6 1 -1 0.01 0.05
-6 1 -1 0 0.04
6 -1 1 0.01 0.04
6 -1 1 0.03 0.05
-7 1 -1 1.81 0.15
-7 1 -1 1.72 0.2
7 -1 1 2.14 0.21
7 -1 1 1.98 0.15
-8 1 -1 10.01 0.43
-8 1 -1 9.43 0.36
8 -1 1 8.74 0.34
8 -1 1 9.61 0.42
-9 1 -1 3.09 0.3
-9 1 -1 2.34 0.19
9 -1 1 2.04 0.24
9 -1 1 2.67 0.2
-10 1 -1 2.54 0.3
-10 1 -1 2.01 0.2
10 -1 1 2.21 0.22
10 -1 1 2.06 0.26
10 0 -1 3.16 0.22
10 0 -1 2.66 0.29
-10 0 1 3.18 0.2
-10 0 1 2.8 0.3
9 0 -1 0.67 0.12
9 0 -1 0.62 0.15
-9 0 1 0.54 0.1
-9 0 1 0.43 0.13
8 0 -1 0.21 0.09
8 0 -1 0.1 0.06
-8 0 1 0.11 0.06
-8 0 1 0.16 0.08
7 0 -1 1.76 0.2
7 0 -1 1.59 0.13
-7 0 1 1.7 0.13
-7 0 1 1.5 0.17
6 0 -1 0.63 0.08
6 0 -1 0.63 0.11
-6 0 1 0.59 0.08
-6 0 1 0.75 0.11
5 0 -1 1.04 0.07
5 0 -1 1.03 0.08
5 0 -1 1.12 0.13
5 0 -1 1.01 0.08
-5 0 1 0.91 0.11
-5 0 1 1.11 0.09
-5 0 1 1 0.09
4 0 -1 60 1.12
4 0 -1 58.12 1.15
4 0 -1 58.61 1.15
-4 0 1 59.58 1.21
-4 0 1 58.47 1.16
-4 0 1 58.87 1.16
-4 0 1 59.3 1.23
3 0 -1 97.09 1.77
3 0 -1 94.04 1.75
3 0 -1 92.47 1.74
-3 0 1 94.2 1.79
-3 0 1 93.01 1.81
-3 0 1 92.15 1.76
-3 0 1 94.42 1.76
2 0 -1 219.43 3.94
2 0 -1 216.25 3.94
2 0 -1 218.43 3.94
-2 0 1 212.86 3.94
-2 0 1 215.21 4
-2 0 1 207.37 3.95
-2 0 1 211.07 4.05
1 0 -1 5.19 0.12
1 0 -1 5.63 0.13
1 0 -1 5.51 0.12
-1 0 1 5.44 0.14
-1 0 1 5.29 0.13
-1 0 1 5.63 0.13
-1 0 1 5.59 0.13
-1 0 -1 32.94 0.61
-1 0 -1 32.01 0.6
-1 0 -1 32.07 0.63
-1 0 -1 32.53 0.61
1 0 1 33.29 0.63
1 0 1 32.32 0.61
1 0 1 33.06 0.61
-2 0 -1 45.18 0.86
-2 0 -1 46.02 0.83
-2 0 -1 44.01 0.86
-2 0 -1 45.75 0.9
2 0 1 45.29 0.85
2 0 1 44.56 0.85
2 0 1 45.85 0.89
-3 0 -1 113.65 2.09
-3 0 -1 114.39 2.12
-3 0 -1 110.42 2.14
3 0 1 111.49 2.08
3 0 1 111.48 2.1
3 0 1 114.86 2.06
3 0 1 112.04 2.14
-4 0 -1 56.36 1.18
-4 0 -1 55.77 1.12
-4 0 -1 57.27 1.12
4 0 1 56.47 1.1
4 0 1 56.88 1.1
4 0 1 56.91 1.05
4 0 1 56.02 1.18
-5 0 -1 2.45 0.13
-5 0 -1 2.64 0.17
-5 0 -1 2.73 0.13
5 0 1 2.82 0.17
5 0 1 2.57 0.12
5 0 1 2.42 0.12
5 0 1 2.59 0.08
-6 0 -1 15.6 0.49
-6 0 -1 14.45 0.4
6 0 1 14.89 0.4
6 0 1 14.99 0.48
-7 0 -1 6.06 0.24
-7 0 -1 6.7 0.32
7 0 1 5.83 0.3
7 0 1 6.02 0.24
-8 0 -1 4.43 0.21
-8 0 -1 4.06 0.28
8 0 1 4.41 0.22
8 0 1 4.59 0.29
-9 0 -1 0.86 0.11
-9 0 -1 0.82 0.16
9 0 1 0.79 0.12
9 0 1 0.88 0.17
-10 0 -1 0.3 0.08
-10 0 -1 0.23 0.13
10 0 1 0.44 0.11
10 0 1 0.51 0.15
10 -1 -1 6.62 0.33
10 -1 -1 7.37 0.42
-10 1 1 6.48 0.4
-10 1 1 6.23 0.31
9 -1 -1 2.17 0.2
9 -1 -1 2.08 0.24
-9 1 1 1.66 0.22
-9 1 1 1.9 0.19
8 -1 -1 1.03 0.13
8 -1 -1 1.21 0.18
-8 1 1 0.82 0.12
-8 1 1 1.11 0.17
7 -1 -1 18.1 0.51
7 -1 -1 17.55 0.57
-7 1 1 17.67 0.52
-7 1 1 18.03 0.57
6 -1 -1 94.26 1.89
6 -1 -1 95.88 1.98
-6 1 1 97.15 1.92
-6 1 1 96.4 1.97
5 -1 -1 14.52 0.33
5 -1 -1 14.04 0.43
5 -1 -1 14.24 0.39
-5 1 1 14.85 0.41
-5 1 1 14.58 0.43
-5 1 1 14.74 0.41
4 -1 -1 2.29 0.14
4 -1 -1 2.36 0.09
4 -1 -1 2.47 0.12
-4 1 1 2.46 0.13
-4 1 1 2.36 0.13
-4 1 1 2.38 0.14
3 -1 -1 11.34 0.29
3 -1 -1 11.72 0.31
3 -1 -1 11.83 0.26
3 -1 -1 11.17 0.31
-3 1 1 11.9 0.29
-3 1 1 11.23 0.31
-3 1 1 11.16 0.3
2 -1 -1 18.61 0.42
2 -1 -1 18.16 0.41
2 -1 -1 18.36 0.4
2 -1 -1 19.42 0.38
-2 1 1 18.21 0.4
-2 1 1 18.41 0.41
-2 1 1 18.18 0.41
1 -1 -1 5.2 0.13
1 -1 -1 4.99 0.13
1 -1 -1 5.13 0.15
1 -1 -1 5.02 0.14
-1 1 1 4.75 0.13
-1 1 1 5.09 0.14
-1 1 1 5.23 0.14
0 -1 -1 0.35 0.03
0 -1 -1 0.27 0.03
0 -1 -1 0.38 0.03
0 1 1 0.29 0.03
0 1 1 0.33 0.03
-1 -1 -1 2.36 0.08
-1 -1 -1 2.2 0.06
-1 -1 -1 2.33 0.08
-1 -1 -1 2.36 0.06
-1 -1 -1 2.37 0.09
1 1 1 2.35 0.05
1 1 1 2.32 0.05
-2 -1 -1 11.37 0.28
-2 -1 -1 11.08 0.23
-2 -1 -1 10.85 0.22
-2 -1 -1 11.13 0.28
-2 -1 -1 11.28 0.26
2 1 1 11.05 0.22
2 1 1 11.14 0.22
-3 -1 -1 0.57 0.04
-3 -1 -1 0.53 0.07
-3 -1 -1 0.65 0.08
-3 -1 -1 0.57 0.04
-3 -1 -1 0.62 0.05
3 1 1 0.63 0.04
3 1 1 0.59 0.07
3 1 1 0.63 0.04
-4 -1 -1 63.48 1.22
-4 -1 -1 66.82 1.23
-4 -1 -1 65.81 1.24
-4 -1 -1 64.62 1.33
4 1 1 65.57 1.22
4 1 1 64.32 1.33
4 1 1 63.48 1.22
-5 -1 -1 5.62 0.18
-5 -1 -1 5.74 0.25
-5 -1 -1 6.08 0.18
5 1 1 5.86 0.18
5 1 1 6.13 0.18
5 1 1 6.17 0.26
5 1 1 5.92 0.18
-6 -1 -1 3.81 0.22
-6 -1 -1 3.84 0.15
-6 -1 -1 3.89 0.15
6 1 1 3.7 0.22
6 1 1 3.71 0.15
-7 -1 -1 7.34 0.34
-7 -1 -1 7.48 0.24
7 1 1 7.45 0.26
7 1 1 8.03 0.36
-8 -1 -1 26.53 0.78
-8 -1 -1 25.78 0.6
8 1 1 25.66 0.64
8 1 1 26.95 0.78
-9 -1 -1 0.1 0.09
-9 -1 -1 0.16 0.05
9 1 1 0.22 0.11
9 1 1 0.08 0.05
-10 -1 -1 6.27 0.2
-10 -1 -1 6.01 0.38
10 1 1 5.92 0.37
10 1 1 6.21 0.29
10 -2 -1 19.98 0.65
10 -2 -1 20.05 0.73
-10 2 1 19.9 0.73
-10 2 1 19.07 0.64
9 -2 -1 0.06 0.1
9 -2 -1 0.05 0.08
-9 2 1 0.15 0.09
-9 2 1 0.03 0.08
8 -2 -1 0.31 0.1
8 -2 -1 0.3 0.08
-8 2 1 0.26 0.1
-8 2 1 0.39 0.1
7 -2 -1 0.58 0.11
7 -2 -1 0.44 0.09
-7 2 1 0.7 0.13
-7 2 1 0.77 0.13
6 -2 -1 3.65 0.21
6 -2 -1 3.44 0.19
-6 2 1 3.84 0.21
-6 2 1 3.9 0.23
5 -2 -1 0.32 0.07
5 -2 -1 0.37 0.05
5 -2 -1 0.36 0.07
5 -2 -1 0.34 0.07
-5 2 1 0.41 0.08
-5 2 1 0.28 0.07
4 -2 -1 0.46 0.05
4 -2 -1 0.29 0.06
4 -2 -1 0.46 0.08
4 -2 -1 0.31 0.06
-4 2 1 0.21 0.05
-4 2 1 0.44 0.08
-4 2 1 0.24 0.05
3 -2 -1 6.93 0.22
3 -2 -1 7.46 0.25
3 -2 -1 7.18 0.22
3 -2 -1 7.32 0.2
-3 2 1 7 0.24
-3 2 1 7.38 0.23
2 -2 -1 5.4 0.16
2 -2 -1 5.69 0.2
2 -2 -1 5.59 0.17
2 -2 -1 5.56 0.18
-2 2 1 5.28 0.19
-2 2 1 5.32 0.18
-2 2 1 5.4 0.18
1 -2 -1 297.22 6.43
1 -2 -1 311.72 5.68
1 -2 -1 310.15 5.6
1 -2 -1 302.8 5.69
-1 2 1 304.12 5.65
-1 2 1 292.3 5.63
-1 2 1 307.57 5.65
0 -2 -1 78.5 1.52
0 -2 -1 79.96 1.5
0 -2 -1 81.84 1.5
0 -2 -1 80.19 1.47
0 2 1 80.06 1.49
0 2 1 81.54 1.73
0 2 1 80.31 1.5
-1 -2 -1 29.72 0.63
-1 -2 -1 30.1 0.63
-1 -2 -1 31.09 0.58
-1 -2 -1 30.45 0.59
-1 -2 -1 30.28 0.58
1 2 1 30.56 0.57
1 2 1 29.76 0.62
1 2 1 30.79 0.57
-2 -2 -1 29.86 0.64
-2 -2 -1 31.65 0.66
-2 -2 -1 31.25 0.65
-3 -2 -1 30.9 0.68
-3 -2 -1 30 0.66
-3 -2 -1 30.64 0.69
3 2 1 31.2 0.56
3 2 1 30.95 0.56
-4 -2 -1 0.48 0.06
-4 -2 -1 0.38 0.07
-4 -2 -1 0.41 0.07
4 2 1 0.42 0.03
4 2 1 0.48 0.03
-5 -2 -1 9.48 0.27
-5 -2 -1 8.57 0.33
5 2 1 9.5 0.34
5 2 1 9.23 0.23
5 2 1 9.32 0.23
-6 -2 -1 14.24 0.47
6 2 1 14.19 0.47
6 2 1 13.78 0.34
6 2 1 13.78 0.34
6 2 1 14.24 0.38
-7 -2 -1 2.6 0.21
7 2 1 2.45 0.13
7 2 1 2.69 0.21
-8 -2 -1 5.25 0.32
8 2 1 5.1 0.3
8 2 1 5.38 0.21
-9 -2 -1 0.76 0.16
9 2 1 0.56 0.09
9 2 1 0.49 0.14
-10 -2 -1 -0.09 0.09
10 2 1 -0.01 0.08
10 2 1 0.06 0.05
10 -3 -1 15.89 0.62
10 -3 -1 15.86 0.57
-10 3 1 14.56 0.57
-10 3 1 13.94 0.62
9 -3 -1 0.14 0.08
9 -3 -1 0.32 0.11
-9 3 1 0.11 0.09
-9 3 1 -0.02 0.07
8 -3 -1 53.18 1.24
8 -3 -1 51.83 1.27
-8 3 1 52.16 1.31
-8 3 1 52.87 1.27
7 -3 -1 28.64 0.74
7 -3 -1 27.09 0.76
-7 3 1 27.1 0.79
-7 3 1 28.13 0.77
6 -3 -1 2.11 0.17
6 -3 -1 2 0.16
-6 3 1 1.68 0.17
-6 3 1 2.2 0.18
5 -3 -1 7.99 0.23
5 -3 -1 7.17 0.3
5 -3 -1 7.94 0.29
5 -3 -1 7.69 0.29
-5 3 1 7.27 0.3
-5 3 1 7.83 0.31
4 -3 -1 0.04 0.05
4 -3 -1 0.01 0.03
4 -3 -1 0.02 0.04
4 -3 -1 0.08 0.04
-4 3 1 0.05 0.04
-4 3 1 0.15 0.05
-4 3 1 -0.01 0.04
3 -3 -1 0.44 0.06
3 -3 -1 0.45 0.06
3 -3 -1 0.61 0.09
3 -3 -1 0.43 0.07
-3 3 1 0.46 0.08
-3 3 1 0.32 0.06
-3 3 1 0.4 0.07
2 -3 -1 29.1 0.63
2 -3 -1 28.92 0.63
2 -3 -1 28.12 0.59
2 -3 -1 28.16 0.66
-2 3 1 28.98 0.65
-2 3 1 27.5 0.63
-2 3 1 29.04 0.64
1 -3 -1 10.76 0.3
1 -3 -1 10.57 0.27
1 -3 -1 10.24 0.23
1 -3 -1 10.33 0.3
-1 3 1 10.82 0.3
-1 3 1 10.26 0.28
-1 3 1 10.53 0.28
0 -3 -1 119.87 2.26
0 -3 -1 119.02 2.25
0 -3 -1 122.48 2.23
0 -3 -1 123.71 2.3
0 3 1 122.89 2.24
0 3 1 121.03 2.26
0 3 1 118.26 2.24
-1 -3 -1 40.25 0.86
-1 -3 -1 42.69 0.8
-1 -3 -1 41 0.79
-1 -3 -1 40.22 0.8
1 3 1 40.63 0.79
1 3 1 40.07 0.84
1 3 1 41.52 0.79
-2 -3 -1 8.92 0.27
-2 -3 -1 9.34 0.28
-2 -3 -1 9.03 0.25
-2 -3 -1 8.75 0.19
-2 -3 -1 9.05 0.19
2 3 1 8.98 0.19
2 3 1 9 0.19
-3 -3 -1 26.2 0.63
-3 -3 -1 27.02 0.62
-3 -3 -1 26.86 0.63
3 3 1 27.07 0.49
3 3 1 27.7 0.49
-4 -3 -1 3.33 0.17
-4 -3 -1 3.41 0.18
-4 -3 -1 3.5 0.17
4 3 1 3.45 0.08
4 3 1 3.39 0.08
-5 -3 -1 2.01 0.13
-5 -3 -1 1.79 0.15
-5 -3 -1 2.08 0.16
5 3 1 1.89 0.07
5 3 1 1.93 0.15
5 3 1 1.86 0.07
-6 -3 -1 26.64 0.73
-6 -3 -1 26.69 0.65
6 3 1 27.69 0.73
6 3 1 26.5 0.55
6 3 1 26.59 0.55
-7 -3 -1 37.05 0.96
7 3 1 37.05 0.76
7 3 1 36.38 0.96
-8 -3 -1 -0.01 0.06
8 3 1 0.04 0.03
8 3 1 0.07 0.08
-9 -3 -1 -0.06 0.08
9 3 1 0.04 0.08
9 3 1 0.02 0.04
-10 -3 -1 3.66 0.35
10 3 1 3.26 0.18
10 3 1 2.98 0.31
10 -4 -1 0.64 0.15
10 -4 -1 1.09 0.2
-10 4 1 0.63 0.16
-10 4 1 0.88 0.2
9 -4 -1 0.73 0.16
9 -4 -1 0.6 0.14
-9 4 1 0.6 0.16
-9 4 1 0.43 0.13
8 -4 -1 5.23 0.3
8 -4 -1 5.18 0.3
-8 4 1 5.3 0.33
-8 4 1 4.89 0.31
7 -4 -1 0.17 0.08
7 -4 -1 0.25 0.09
-7 4 1 0.24 0.09
-7 4 1 0.24 0.1
6 -4 -1 4.71 0.25
6 -4 -1 4.73 0.25
-6 4 1 4.98 0.28
-6 4 1 4.81 0.28
5 -4 -1 0.31 0.07
5 -4 -1 0.3 0.08
5 -4 -1 0.23 0.08
5 -4 -1 0.3 0.06
-5 4 1 0.25 0.08
-5 4 1 0.15 0.07
4 -4 -1 2.38 0.14
4 -4 -1 2.32 0.13
4 -4 -1 2.32 0.17
4 -4 -1 2.29 0.15
-4 4 1 2.53 0.17
-4 4 1 2.2 0.15
-4 4 1 2.09 0.16
3 -4 -1 5.52 0.19
3 -4 -1 5.53 0.21
3 -4 -1 5.81 0.22
3 -4 -1 5.7 0.25
-3 4 1 5.42 0.24
-3 4 1 5.34 0.23
2 -4 -1 13.3 0.32
2 -4 -1 12.45 0.36
2 -4 -1 13.16 0.4
2 -4 -1 13.14 0.38
-2 4 1 12.97 0.39
-2 4 1 13.51 0.38
-2 4 1 13.16 0.37
1 -4 -1 3.13 0.14
1 -4 -1 3.13 0.16
1 -4 -1 2.78 0.1
1 -4 -1 2.87 0.15
-1 4 1 2.89 0.14
-1 4 1 3.06 0.15
-1 4 1 2.97 0.14
0 -4 -1 7.04 0.17
0 -4 -1 6.77 0.23
0 -4 -1 7.11 0.22
0 -4 -1 6.64 0.25
0 4 1 6.58 0.21
0 4 1 6.91 0.23
0 4 1 6.42 0.21
-1 -4 -1 7.81 0.22
-1 -4 -1 7.94 0.21
-1 -4 -1 7.72 0.22
-1 -4 -1 7.73 0.28
1 4 1 7.89 0.25
1 4 1 7.97 0.22
1 4 1 7.77 0.21
-2 -4 -1 132.8 2.39
-2 -4 -1 132.29 2.45
-2 -4 -1 130.43 2.39
-2 -4 -1 132.02 2.54
2 4 1 129.39 2.4
2 4 1 132.17 2.41
2 4 1 128.92 2.5
-3 -4 -1 5.9 0.25
-3 -4 -1 6.55 0.23
-3 -4 -1 5.68 0.24
3 4 1 6.27 0.15
3 4 1 6.01 0.24
3 4 1 5.93 0.15
-4 -4 -1 4.68 0.22
-4 -4 -1 3.93 0.2
-4 -4 -1 4.08 0.2
4 4 1 4.13 0.1
-5 -4 -1 1.64 0.16
-5 -4 -1 1.52 0.15
-5 -4 -1 1.52 0.16
5 4 1 1.54 0.05
5 4 1 1.44 0.05
-6 -4 -1 3.91 0.21
-6 -4 -1 3.84 0.24
6 4 1 3.92 0.11
6 4 1 3.92 0.11
6 4 1 4.05 0.24
-7 -4 -1 1.99 0.21
7 4 1 2.21 0.22
7 4 1 1.9 0.08
-8 -4 -1 5.74 0.34
8 4 1 6.08 0.34
8 4 1 5.94 0.18
-9 -4 -1 0.11 0.1
9 4 1 0 0.03
9 4 1 0.14 0.09
9 -5 -1 0.87 0.17
-9 5 1 0.95 0.19
-9 5 1 1.33 0.23
8 -5 -1 6.77 0.35
-8 5 1 7.31 0.4
-8 5 1 7.42 0.4
7 -5 -1 1.86 0.19
-7 5 1 2.04 0.24
-7 5 1 2.01 0.23
6 -5 -1 2.97 0.19
-6 5 1 2.94 0.23
-6 5 1 2.96 0.22
5 -5 -1 1.81 0.13
5 -5 -1 1.93 0.14
5 -5 -1 1.71 0.19
-5 5 1 1.85 0.19
-5 5 1 1.5 0.17
4 -5 -1 5.01 0.22
4 -5 -1 4.65 0.26
4 -5 -1 4.76 0.2
-4 5 1 4.73 0.26
-4 5 1 4.98 0.25
-4 5 1 5.29 0.26
3 -5 -1 16.94 0.48
3 -5 -1 17.35 0.52
3 -5 -1 17.56 0.43
-3 5 1 17.23 0.5
-3 5 1 16.89 0.51
-3 5 1 17.3 0.49
2 -5 -1 1.84 0.1
2 -5 -1 1.88 0.14
2 -5 -1 1.67 0.16
-2 5 1 1.88 0.14
-2 5 1 1.89 0.14
-2 5 1 1.91 0.14
1 -5 -1 -0.03 0.03
1 -5 -1 0.05 0.05
1 -5 -1 0.02 0.02
-1 5 1 0 0.03
-1 5 1 0.06 0.04
-1 5 1 -0.03 0.03
0 -5 -1 -0.01 0.04
0 -5 -1 0 0.03
0 -5 -1 0.01 0.03
0 -5 -1 -0.01 0.02
0 5 1 0.01 0.03
0 5 1 0.04 0.03
0 5 1 0 0.03
-1 -5 -1 0 0.02
-1 -5 -1 -0.04 0.02
-1 -5 -1 0 0.02
-1 -5 -1 0.1 0.06
1 5 1 -0.01 0.02
1 5 1 0.02 0.03
1 5 1 0.05 0.04
-2 -5 -1 43.36 1.01
-2 -5 -1 44.12 0.9
-2 -5 -1 41.9 0.86
-2 -5 -1 43.55 0.86
2 5 1 44.85 0.96
2 5 1 43.88 0.88
2 5 1 43.52 0.87
-3 -5 -1 42.79 0.91
-3 -5 -1 41.59 0.99
3 5 1 41.33 0.82
3 5 1 42.14 0.83
3 5 1 42.15 0.95
-4 -5 -1 14.82 0.43
-4 -5 -1 14.82 0.47
4 5 1 14.53 0.31
4 5 1 13.93 0.31
4 5 1 14.24 0.45
-5 -5 -1 13.48 0.44
-5 -5 -1 14.08 0.47
-5 -5 -1 13.36 0.45
5 5 1 13.04 0.27
5 5 1 13.33 0.28
-6 -5 -1 7.46 0.33
-6 -5 -1 7.8 0.35
6 5 1 7.19 0.16
6 5 1 6.89 0.32
6 5 1 7.09 0.16
-7 -5 -1 1.58 0.2
7 5 1 1.77 0.2
7 5 1 1.43 0.05
-8 -5 -1 0.08 0.1
8 5 1 0.09 0.09
8 5 1 0.16 0.03
9 5 1 5.14 0.14
9 5 1 4.83 0.34
-9 6 1 0.12 0.11
-8 6 1 0.67 0.16
-7 6 1 0.08 0.09
6 -6 -1 5.74 0.28
-6 6 1 5.9 0.33
5 -6 -1 10.44 0.39
5 -6 -1 10.55 0.37
-5 6 1 10.06 0.43
4 -6 -1 13.77 0.44
4 -6 -1 13.79 0.5
-4 6 1 13.81 0.47
-4 6 1 13.89 0.48
3 -6 -1 0.87 0.13
3 -6 -1 0.61 0.12
-3 6 1 0.8 0.12
-3 6 1 0.86 0.13
2 -6 -1 18.44 0.56
2 -6 -1 19.15 0.56
-2 6 1 19.17 0.54
-2 6 1 19.23 0.54
1 -6 -1 1.72 0.16
1 -6 -1 1.75 0.17
-1 6 1 1.53 0.15
-1 6 1 1.43 0.14
0 -6 -1 0.03 0.05
0 -6 -1 -0.04 0.04
0 6 1 -0.05 0.03
0 6 1 -0.01 0.04
-1 -6 -1 0.06 0.06
-1 -6 -1 0.13 0.05
1 6 1 0.07 0.05
1 6 1 0.07 0.05
-2 -6 -1 32.28 0.68
-2 -6 -1 31.64 0.83
-2 -6 -1 32.1 0.67
2 6 1 31.66 0.7
2 6 1 31.72 0.77
-3 -6 -1 11.48 0.43
3 6 1 10.52 0.29
3 6 1 10.28 0.37
-4 -6 -1 6.01 0.3
4 6 1 6.12 0.28
4 6 1 5.96 0.18
-5 -6 -1 2.56 0.21
5 6 1 3.33 0.22
5 6 1 2.84 0.1
-6 -6 -1 0.16 0.09
6 6 1 0.25 0.09
6 6 1 0.27 0.03
7 6 1 1.94 0.22
-8 7 1 1 0.2
-7 7 1 2.79 0.3
-6 7 1 10.31 0.47
-5 7 1 0.42 0.12
4 -7 -1 0.52 0.11
4 -7 -1 0.29 0.11
-4 7 1 0.45 0.11
-4 7 1 0.36 0.1
3 -7 -1 4.09 0.25
3 -7 -1 4.22 0.27
-3 7 1 4.36 0.26
-3 7 1 4.87 0.26
2 -7 -1 8.83 0.38
2 -7 -1 9.67 0.39
-2 7 1 9.97 0.38
-2 7 1 9.77 0.37
1 -7 -1 1.9 0.2
1 -7 -1 2.18 0.18
-1 7 1 1.79 0.17
-1 7 1 1.8 0.18
0 -7 -1 21.88 0.6
0 -7 -1 23.25 0.69
0 7 1 22.94 0.61
0 7 1 22.94 0.63
-1 -7 -1 18.27 0.59
-1 -7 -1 17.38 0.48
1 7 1 17.79 0.49
1 7 1 17.2 0.52
-2 -7 -1 13.13 0.35
-2 -7 -1 12.8 0.49
2 7 1 12.98 0.43
2 7 1 12.73 0.38
-3 -7 -1 0.09 0.08
3 7 1 0.15 0.07
3 7 1 0.12 0.05
-4 -7 -1 0.03 0.07
4 7 1 0.02 0.06
4 7 1 -0.01 0.03
-5 -7 -1 3.23 0.25
5 7 1 2.67 0.12
5 7 1 3.05 0.21
-6 -7 -1 0.25 0.1
6 7 1 0.24 0.04
6 7 1 0.29 0.1
-7 8 1 9.43 0.5
-6 8 1 0.14 0.1
-5 8 1 -0.05 0.08
4 -8 -1 6.15 0.33
4 -8 -1 7.21 0.39
-4 8 1 6.55 0.36
3 -8 -1 4.21 0.29
3 -8 -1 3.97 0.27
-3 8 1 3.92 0.27
-3 8 1 4.19 0.27
2 -8 -1 3.76 0.27
2 -8 -1 3.44 0.25
-2 8 1 3.55 0.24
-2 8 1 3.7 0.24
1 -8 -1 12.49 0.45
1 -8 -1 12.71 0.5
-1 8 1 12.2 0.45
-1 8 1 13.5 0.46
0 -8 -1 0.05 0.07
0 -8 -1 0.07 0.08
0 8 1 0.16 0.07
0 8 1 0.03 0.06
-1 -8 -1 6.87 0.37
-1 -8 -1 7.22 0.29
1 8 1 7.37 0.33
1 8 1 7.71 0.31
-2 -8 -1 0.4 0.07
-2 -8 -1 0.35 0.12
2 8 1 0.58 0.12
2 8 1 0.52 0.09
-3 -8 -1 3.23 0.3
3 8 1 2.8 0.17
3 8 1 2.86 0.2
-4 -8 -1 1.75 0.23
4 8 1 1.66 0.19
4 8 1 1.7 0.12
-5 -8 -1 0.57 0.14
5 8 1 0.51 0.12
5 8 1 0.68 0.08
-6 -8 -1 0.7 0.16
6 8 1 0.68 0.07
-6 9 1 2.42 0.29
-5 9 1 2.14 0.27
4 -9 -1 0.14 0.1
4 -9 -1 0.19 0.11
-4 9 1 0.22 0.11
3 -9 -1 0.47 0.14
3 -9 -1 0.37 0.12
-3 9 1 0.3 0.12
-3 9 1 0.42 0.13
2 -9 -1 2.22 0.24
2 -9 -1 2.09 0.24
-2 9 1 2.26 0.24
-2 9 1 2.11 0.23
1 -9 -1 6.62 0.34
1 -9 -1 7.19 0.4
-1 9 1 7.14 0.36
-1 9 1 7.64 0.36
0 -9 -1 0.52 0.11
0 -9 -1 0.88 0.18
0 9 1 0.6 0.12
0 9 1 0.69 0.13
-1 -9 -1 0.1 0.06
-1 -9 -1 0.11 0.11
1 9 1 0.16 0.08
1 9 1 0.22 0.09
-2 -9 -1 2.16 0.14
-2 -9 -1 2.85 0.3
2 9 1 2.24 0.2
2 9 1 2.78 0.25
-3 -9 -1 0.06 0.1
3 9 1 0.09 0.08
3 9 1 0.01 0.05
-4 -9 -1 3.26 0.33
4 9 1 3.09 0.29
4 9 1 2.96 0.18
-5 -9 -1 0.04 0.1
5 9 1 -0.02 0.04
3 -10 -1 0.86 0.18
3 -10 -1 1.12 0.2
-3 10 1 1.07 0.2
-3 10 1 0.78 0.17
2 -10 -1 1.49 0.21
2 -10 -1 2.09 0.27
-2 10 1 1.42 0.2
-2 10 1 1.19 0.2
1 -10 -1 -0.01 0.09
1 -10 -1 0.06 0.08
-1 10 1 0.03 0.08
-1 10 1 0.02 0.08
0 -10 -1 0.67 0.13
0 -10 -1 0.69 0.18
0 10 1 0.81 0.16
0 10 1 0.87 0.16
-1 -10 -1 0.5 0.1
-1 -10 -1 0.67 0.18
1 10 1 0.75 0.16
1 10 1 0.63 0.13
-2 -10 -1 0.98 0.19
-2 -10 -1 0.76 0.09
2 10 1 0.74 0.15
2 10 1 0.81 0.14
3 10 -2 0.71 0.12
-3 -10 2 0.47 0.15
2 10 -2 -0.04 0.06
-2 -10 2 0.08 0.05
-2 -10 2 0.05 0.09
1 10 -2 1.87 0.2
-1 -10 2 2.56 0.18
-1 -10 2 2.35 0.28
0 10 -2 6.19 0.33
0 -10 2 5.44 0.29
0 -10 2 4.85 0.35
-1 10 -2 5.05 0.31
-1 10 -2 5.26 0.32
1 -10 2 4.31 0.33
1 -10 2 5.03 0.3
-2 10 -2 0.38 0.12
-2 10 -2 0.7 0.15
2 -10 2 0.59 0.16
2 -10 2 0.45 0.13
-3 10 -2 4.51 0.32
-3 10 -2 4.57 0.32
3 -10 2 5.26 0.34
3 -10 2 4.24 0.32
-4 10 -2 2.71 0.29
4 -10 2 3.31 0.33
5 9 -2 7.99 0.27
-5 -9 2 8.37 0.46
4 9 -2 -0.01 0.04
-4 -9 2 -0.02 0.1
3 9 -2 0.06 0.06
-3 -9 2 0.05 0.09
2 9 -2 0.26 0.08
-2 -9 2 0.2 0.06
-2 -9 2 0.16 0.1
1 9 -2 0.02 0.06
1 9 -2 0.13 0.08
-1 -9 2 0.08 0.1
-1 -9 2 0.01 0.05
0 9 -2 0.45 0.11
0 9 -2 0.57 0.12
0 -9 2 0.43 0.13
0 -9 2 0.54 0.11
-1 9 -2 5.33 0.3
-1 9 -2 6.01 0.31
1 -9 2 5.63 0.31
1 -9 2 5.97 0.34
-2 9 -2 11.08 0.46
-2 9 -2 11.51 0.47
2 -9 2 11.39 0.48
2 -9 2 11.1 0.46
-3 9 -2 0 0.08
-3 9 -2 0.17 0.1
3 -9 2 0.04 0.08
3 -9 2 0.17 0.09
-4 9 -2 1.39 0.21
4 -9 2 0.99 0.18
-5 9 -2 0.53 0.15
-6 9 -2 -0.01 0.1
6 8 -2 0.24 0.04
-6 -8 2 0.15 0.11
5 8 -2 0.48 0.07
-5 -8 2 0.29 0.11
4 8 -2 0.41 0.07
-4 -8 2 0.36 0.12
3 8 -2 0.15 0.06
3 8 -2 0.21 0.08
-3 -8 2 0.12 0.09
2 8 -2 0.09 0.06
2 8 -2 -0.03 0.04
-2 -8 2 -0.02 0.03
-2 -8 2 -0.02 0.07
1 8 -2 1.38 0.16
1 8 -2 1.42 0.15
-1 -8 2 1.32 0.14
-1 -8 2 1.35 0.19
0 8 -2 11.89 0.42
0 8 -2 12.01 0.42
0 -8 2 11.86 0.41
0 -8 2 12.77 0.49
-1 8 -2 4.33 0.25
-1 8 -2 4.4 0.25
1 -8 2 4.24 0.28
1 -8 2 4.39 0.25
-2 8 -2 0.36 0.1
-2 8 -2 0.41 0.11
2 -8 2 0.4 0.11
2 -8 2 0.36 0.1
-3 8 -2 1.72 0.21
-3 8 -2 1.91 0.21
3 -8 2 1.6 0.19
3 -8 2 1.81 0.21
-4 8 -2 5.89 0.33
4 -8 2 6.23 0.36
4 -8 2 5.61 0.3
-5 8 -2 0.08 0.09
-6 8 -2 0.24 0.12
-7 8 -2 0.01 0.1
7 7 -2 2.34 0.26
6 7 -2 12.69 0.29
-6 -7 2 13.92 0.53
5 7 -2 0.36 0.05
-5 -7 2 0.31 0.11
4 7 -2 0.28 0.06
4 7 -2 0.18 0.07
-4 -7 2 0.3 0.1
3 7 -2 27.5 0.67
3 7 -2 27.87 0.61
-3 -7 2 22.75 0.48
-3 -7 2 25.75 0.48
-3 -7 2 28.28 0.79
2 7 -2 11.1 0.36
2 7 -2 10.65 0.33
-2 -7 2 9.64 0.41
-2 -7 2 10.46 0.3
1 7 -2 0.16 0.06
1 7 -2 0.21 0.07
-1 -7 2 0.16 0.08
-1 -7 2 0.24 0.07
0 7 -2 2.95 0.18
0 7 -2 2.71 0.17
0 -7 2 2.77 0.18
0 -7 2 2.85 0.21
-1 7 -2 0.02 0.05
-1 7 -2 -0.05 0.03
1 -7 2 -0.04 0.05
1 -7 2 0.08 0.06
-2 7 -2 0.84 0.12
-2 7 -2 0.69 0.11
2 -7 2 0.81 0.13
2 -7 2 1.09 0.15
-3 7 -2 0.61 0.12
-3 7 -2 0.41 0.1
3 -7 2 0.46 0.1
3 -7 2 0.71 0.13
-4 7 -2 0.02 0.07
-4 7 -2 0.07 0.07
4 -7 2 -0.02 0.06
4 -7 2 0.03 0.06
-5 7 -2 4.16 0.27
-6 7 -2 1.54 0.22
-7 7 -2 1.27 0.21
-8 7 -2 0.44 0.15
8 6 -2 1.65 0.23
7 6 -2 8.53 0.4
-7 -6 2 9.91 0.44
6 6 -2 8.36 0.19
6 6 -2 8.43 0.19
6 6 -2 8.44 0.38
-6 -6 2 8.68 0.39
-6 -6 2 8.63 0.39
5 6 -2 1.77 0.08
5 6 -2 1.75 0.16
-5 -6 2 1.73 0.18
-5 -6 2 1.61 0.19
4 6 -2 0.11 0.05
4 6 -2 0.1 0.03
-4 -6 2 0.09 0.06
-4 -6 2 0.05 0.07
3 6 -2 0.47 0.08
3 6 -2 0.41 0.06
-3 -6 2 0.61 0.1
-3 -6 2 0.35 0.1
2 6 -2 1.37 0.1
2 6 -2 1.13 0.11
-2 -6 2 1.05 0.08
-2 -6 2 1.25 0.08
-2 -6 2 1.28 0.13
-2 -6 2 1.29 0.15
1 6 -2 6.75 0.24
1 6 -2 6.4 0.24
-1 -6 2 6.93 0.24
-1 -6 2 6.41 0.3
-1 -6 2 6.62 0.24
0 6 -2 19.78 0.51
0 6 -2 19.88 0.51
0 -6 2 18.85 0.56
0 -6 2 19.67 0.48
0 -6 2 19.16 0.51
-1 6 -2 0.47 0.08
-1 6 -2 0.54 0.09
1 -6 2 0.75 0.12
1 -6 2 0.7 0.11
1 -6 2 0.7 0.08
-2 6 -2 38 0.89
-2 6 -2 37.54 0.9
2 -6 2 37.89 0.9
2 -6 2 38.58 0.84
2 -6 2 39.04 0.92
-3 6 -2 15.53 0.48
-3 6 -2 14.04 0.46
3 -6 2 14.98 0.42
3 -6 2 14.41 0.45
3 -6 2 15.24 0.5
-4 6 -2 0.66 0.11
-4 6 -2 0.61 0.12
4 -6 2 0.75 0.14
4 -6 2 0.5 0.09
4 -6 2 0.79 0.11
-5 6 -2 5.35 0.3
5 -6 2 5.16 0.25
-6 6 -2 2.79 0.27
6 -6 2 2.76 0.2
-7 6 -2 9.96 0.47
7 -6 2 10.8 0.43
-8 6 -2 1.95 0.26
8 -6 2 2.31 0.24
-9 6 -2 1.58 0.25
-9 6 -2 1.76 0.26
9 -6 2 1.89 0.24
9 5 -2 0.03 0.03
9 5 -2 0.04 0.1
8 5 -2 0.47 0.04
8 5 -2 0.48 0.14
7 5 -2 20.04 0.41
7 5 -2 20.68 0.63
-7 -5 2 20.6 0.67
6 5 -2 7.05 0.33
6 5 -2 7.89 0.17
6 5 -2 7.95 0.17
-6 -5 2 7.74 0.32
-6 -5 2 8.43 0.37
5 5 -2 1.86 0.07
5 5 -2 1.96 0.07
-5 -5 2 1.93 0.19
-5 -5 2 2.04 0.17
-5 -5 2 1.83 0.15
4 5 -2 55.52 1.06
4 5 -2 55.36 1.05
4 5 -2 55.04 1.18
-4 -5 2 57.8 1.27
-4 -5 2 57.23 1.24
3 5 -2 19.84 0.43
3 5 -2 20.36 0.43
3 5 -2 20.3 0.5
-3 -5 2 19.12 0.56
-3 -5 2 20.37 0.54
2 5 -2 0.46 0.07
2 5 -2 0.53 0.06
2 5 -2 0.59 0.06
-2 -5 2 0.54 0.08
-2 -5 2 0.53 0.05
-2 -5 2 0.49 0.05
-2 -5 2 0.49 0.09
1 5 -2 9.19 0.27
1 5 -2 9.59 0.26
1 5 -2 8.94 0.28
-1 -5 2 9.58 0.28
-1 -5 2 9.28 0.27
-1 -5 2 8.82 0.33
-1 -5 2 9.31 0.27
0 5 -2 16.38 0.43
0 5 -2 17.16 0.43
0 5 -2 16.34 0.42
0 -5 2 17.41 0.44
0 -5 2 17.45 0.48
0 -5 2 17.2 0.42
0 -5 2 16.34 0.44
-1 5 -2 0.46 0.08
-1 5 -2 0.64 0.09
-1 5 -2 0.41 0.07
1 -5 2 0.49 0.09
1 -5 2 0.5 0.07
1 -5 2 0.49 0.08
-2 5 -2 31.41 0.75
-2 5 -2 32.04 0.75
-2 5 -2 32.84 0.78
2 -5 2 31.8 0.71
2 -5 2 32.66 0.75
2 -5 2 32.25 0.78
-3 5 -2 13.84 0.44
-3 5 -2 15 0.47
-3 5 -2 14.6 0.44
3 -5 2 14.52 0.46
3 -5 2 14.1 0.4
3 -5 2 14.89 0.43
3 -5 2 14.63 0.41
-4 5 -2 112.37 2.24
-4 5 -2 108.6 2.21
-4 5 -2 106.48 2.18
4 -5 2 109.33 2.17
4 -5 2 110.46 2.23
4 -5 2 108.08 2.11
4 -5 2 107.49 2.14
-5 5 -2 3.7 0.24
-5 5 -2 4.48 0.26
5 -5 2 4.17 0.23
5 -5 2 4.09 0.22
-6 5 -2 7.59 0.36
-6 5 -2 6.66 0.35
6 -5 2 6.83 0.31
6 -5 2 7.02 0.36
-7 5 -2 0.22 0.1
-7 5 -2 0.2 0.1
7 -5 2 0.22 0.09
-8 5 -2 0.77 0.16
-8 5 -2 0.86 0.17
8 -5 2 0.67 0.14
-9 5 -2 0.39 0.14
-9 5 -2 0.86 0.19
9 -5 2 0.89 0.17
9 4 -2 -0.04 0.03
9 4 -2 -0.03 0.09
8 4 -2 10.47 0.28
8 4 -2 10.75 0.48
7 4 -2 0.03 0.02
-7 -4 2 0.13 0.07
-7 -4 2 -0.01 0.06
6 4 -2 0.25 0.08
6 4 -2 0.27 0.03
-6 -4 2 0.28 0.08
-6 -4 2 0.24 0.08
5 4 -2 0.98 0.05
5 4 -2 1.03 0.04
-5 -4 2 1.16 0.13
-5 -4 2 0.89 0.12
-5 -4 2 1 0.14
4 4 -2 0.82 0.04
-4 -4 2 0.93 0.11
-4 -4 2 0.94 0.11
-4 -4 2 0.86 0.12
3 4 -2 0.49 0.04
3 4 -2 0.54 0.04
3 4 -2 0.62 0.08
-3 -4 2 0.68 0.1
-3 -4 2 0.48 0.08
2 4 -2 30.23 0.6
2 4 -2 29.49 0.6
2 4 -2 31.53 0.65
-2 -4 2 30.98 0.6
-2 -4 2 29.06 0.67
-2 -4 2 29.06 0.71
-2 -4 2 30.06 0.59
1 4 -2 23.52 0.51
1 4 -2 23.46 0.5
1 4 -2 23.42 0.52
-1 -4 2 22.79 0.51
-1 -4 2 23.75 0.51
-1 -4 2 24.23 0.53
-1 -4 2 22.8 0.58
0 4 -2 11.87 0.31
0 4 -2 12.02 0.31
0 4 -2 11.84 0.31
0 -4 2 11.85 0.31
0 -4 2 12.37 0.33
0 -4 2 12.1 0.32
0 -4 2 12.37 0.35
-1 4 -2 4 0.17
-1 4 -2 3.76 0.16
-1 4 -2 3.91 0.17
1 -4 2 4.16 0.18
1 -4 2 3.83 0.17
1 -4 2 3.95 0.15
1 -4 2 3.91 0.15
-2 4 -2 19.91 0.5
-2 4 -2 20.46 0.53
-2 4 -2 19.98 0.5
2 -4 2 20.28 0.49
2 -4 2 20.31 0.53
2 -4 2 19.96 0.47
-3 4 -2 2.61 0.16
-3 4 -2 2.12 0.14
-3 4 -2 2.42 0.15
3 -4 2 2.1 0.13
3 -4 2 2.54 0.13
3 -4 2 2.28 0.13
3 -4 2 2.73 0.17
-4 4 -2 10.12 0.37
-4 4 -2 10.47 0.35
-4 4 -2 9.85 0.35
4 -4 2 10.16 0.37
4 -4 2 10.26 0.34
4 -4 2 10.02 0.33
4 -4 2 10.27 0.28
-5 4 -2 45.1 1.06
-5 4 -2 43.46 1.05
5 -4 2 43.9 1
5 -4 2 45.09 1.01
-6 4 -2 50.01 1.19
-6 4 -2 47.75 1.17
6 -4 2 47.97 1.12
6 -4 2 51.01 1.14
-7 4 -2 0.58 0.12
-7 4 -2 0.46 0.13
7 -4 2 0.48 0.1
7 -4 2 0.83 0.14
-8 4 -2 0.54 0.14
-8 4 -2 0.57 0.14
8 -4 2 0.48 0.13
8 -4 2 0.55 0.12
-9 4 -2 0.28 0.11
-9 4 -2 0.31 0.13
9 -4 2 0.19 0.1
9 -4 2 0.44 0.13
-10 4 -2 0.13 0.1
-10 4 -2 0.49 0.17
10 -4 2 0.28 0.12
10 -4 2 0.54 0.14
10 3 -2 0.1 0.12
10 3 -2 0.16 0.06
9 3 -2 0.1 0.09
9 3 -2 0.15 0.05
8 3 -2 11.59 0.33
8 3 -2 12.25 0.51
-8 -3 2 12 0.46
7 3 -2 0.34 0.05
-7 -3 2 0.27 0.1
-7 -3 2 0.45 0.1
6 3 -2 2.6 0.1
6 3 -2 2.79 0.11
6 3 -2 2.68 0.16
-6 -3 2 2.5 0.18
-6 -3 2 2.99 0.21
5 3 -2 31.98 0.75
5 3 -2 32.17 0.63
5 3 -2 31.96 0.63
-5 -3 2 32.79 0.76
-5 -3 2 32.14 0.81
4 3 -2 66.05 1.21
4 3 -2 65.38 1.21
-4 -3 2 65.22 1.33
-4 -3 2 67.81 1.39
-4 -3 2 65.88 1.35
3 3 -2 1.7 0.05
3 3 -2 1.83 0.05
-3 -3 2 1.74 0.12
-3 -3 2 1.86 0.12
-3 -3 2 1.92 0.11
2 3 -2 2.99 0.12
2 3 -2 2.77 0.09
2 3 -2 2.86 0.08
-2 -3 2 3.01 0.09
-2 -3 2 3.15 0.15
-2 -3 2 2.86 0.08
1 3 -2 10.81 0.24
1 3 -2 10.53 0.25
1 3 -2 10.5 0.26
-1 -3 2 10.57 0.3
-1 -3 2 10.31 0.25
-1 -3 2 10.59 0.28
-1 -3 2 10.59 0.25
0 3 -2 71.3 1.37
0 3 -2 72.91 1.36
0 3 -2 69.53 1.36
0 -3 2 70.75 1.38
0 -3 2 72.15 1.4
0 -3 2 71.63 1.38
0 -3 2 73.65 1.37
-1 3 -2 22.21 0.52
-1 3 -2 23.22 0.5
-1 3 -2 22.29 0.51
1 -3 2 23.26 0.5
1 -3 2 23.13 0.5
1 -3 2 22.65 0.51
1 -3 2 22.75 0.52
-2 3 -2 10.28 0.31
-2 3 -2 9.88 0.29
-2 3 -2 9.97 0.29
2 -3 2 9.6 0.28
2 -3 2 9.96 0.3
2 -3 2 10.54 0.27
2 -3 2 10.37 0.28
-3 3 -2 0.14 0.05
-3 3 -2 0.05 0.04
-3 3 -2 0.06 0.04
3 -3 2 0.04 0.03
3 -3 2 0.08 0.03
3 -3 2 0.08 0.04
3 -3 2 0.05 0.04
-4 3 -2 1.6 0.15
-4 3 -2 1.39 0.12
-4 3 -2 1.53 0.15
4 -3 2 1.58 0.15
4 -3 2 1.48 0.11
4 -3 2 1.44 0.07
4 -3 2 1.31 0.11
-5 3 -2 7.9 0.32
-5 3 -2 7.72 0.31
5 -3 2 8.6 0.3
5 -3 2 7.8 0.3
-6 3 -2 37.91 0.95
-6 3 -2 37.2 0.92
6 -3 2 37.39 0.91
6 -3 2 36.16 0.88
-7 3 -2 10.85 0.43
-7 3 -2 11.73 0.46
7 -3 2 12.21 0.42
7 -3 2 11.75 0.44
-8 3 -2 0.79 0.15
-8 3 -2 0.82 0.16
8 -3 2 0.55 0.13
8 -3 2 0.73 0.13
-9 3 -2 9.25 0.46
-9 3 -2 8.6 0.41
9 -3 2 9.06 0.43
9 -3 2 8.76 0.39
-10 3 -2 0.93 0.21
-10 3 -2 0.93 0.17
10 -3 2 1.08 0.17
10 -3 2 1.06 0.2
10 2 -2 -0.08 0.07
10 2 -2 0.02 0.05
9 2 -2 17.47 0.49
9 2 -2 16.82 0.65
-9 -2 2 18.59 0.63
8 2 -2 5.41 0.33
8 2 -2 5.56 0.22
-8 -2 2 5.68 0.31
7 2 -2 1.8 0.11
-7 -2 2 1.83 0.07
-7 -2 2 1.88 0.07
-7 -2 2 1.94 0.21
-7 -2 2 2.17 0.21
6 2 -2 9.44 0.26
6 2 -2 9.46 0.26
6 2 -2 9.87 0.31
-6 -2 2 9.4 0.34
-6 -2 2 9.05 0.37
-6 -2 2 9.48 0.21
-6 -2 2 9.45 0.22
5 2 -2 0.49 0.08
5 2 -2 0.58 0.06
5 2 -2 0.48 0.05
-5 -2 2 0.46 0.04
-5 -2 2 0.43 0.03
-5 -2 2 0.47 0.09
-5 -2 2 0.56 0.09
4 2 -2 98.42 1.83
4 2 -2 98.78 1.92
4 2 -2 99.4 1.83
-4 -2 2 99.02 1.93
-4 -2 2 100.49 1.8
-4 -2 2 101.43 1.98
3 2 -2 18.2 0.43
3 2 -2 17.68 0.35
3 2 -2 18.2 0.35
-3 -2 2 17.95 0.34
-3 -2 2 17.64 0.43
-3 -2 2 17.96 0.34
-3 -2 2 17.61 0.46
-3 -2 2 18.09 0.42
2 2 -2 3.35 0.08
2 2 -2 3.37 0.08
-2 -2 2 3.24 0.08
-2 -2 2 3.47 0.09
-2 -2 2 3.4 0.12
-2 -2 2 3.32 0.14
-2 -2 2 3.55 0.14
1 2 -2 71.96 1.3
1 2 -2 70.74 1.31
1 2 -2 72.74 1.31
-1 -2 2 69.08 1.32
-1 -2 2 69.71 1.36
-1 -2 2 69.3 1.34
-1 -2 2 72.32 1.31
0 2 -2 68.5 1.25
0 2 -2 66.19 1.25
0 -2 2 65.09 1.25
0 -2 2 67.46 1.26
0 -2 2 65.48 1.26
0 -2 2 67.4 1.27
-1 2 -2 256.15 4.72
-1 2 -2 260.94 4.73
-1 2 -2 248.03 4.72
1 -2 2 253.51 4.7
1 -2 2 249.39 4.71
1 -2 2 245.6 4.68
1 -2 2 257.14 4.67
-2 2 -2 58.47 1.14
-2 2 -2 58.38 1.16
-2 2 -2 57.96 1.15
2 -2 2 57.48 1.16
2 -2 2 57.24 1.14
2 -2 2 59.98 1.14
2 -2 2 58.62 1.1
-3 2 -2 16.27 0.42
-3 2 -2 16.55 0.4
-3 2 -2 15.67 0.42
3 -2 2 16.47 0.41
3 -2 2 16.22 0.4
3 -2 2 16.66 0.42
3 -2 2 16.56 0.33
-4 2 -2 9.46 0.31
-4 2 -2 9.42 0.32
-4 2 -2 10.06 0.29
4 -2 2 9.33 0.31
4 -2 2 9.73 0.29
4 -2 2 9.85 0.31
-5 2 -2 0.07 0.05
-5 2 -2 0.02 0.05
5 -2 2 0.08 0.05
5 -2 2 0.06 0.05
-6 2 -2 16.37 0.52
-6 2 -2 16.04 0.49
6 -2 2 16.39 0.51
6 -2 2 15.91 0.46
-7 2 -2 0.27 0.09
-7 2 -2 0.28 0.08
7 -2 2 0.43 0.09
7 -2 2 0.48 0.1
-8 2 -2 6.68 0.32
-8 2 -2 6.94 0.37
8 -2 2 6.54 0.34
8 -2 2 6.48 0.3
-9 2 -2 0.26 0.1
-9 2 -2 0.42 0.13
9 -2 2 0.28 0.11
9 -2 2 0.2 0.09
-10 2 -2 0.14 0.09
-10 2 -2 0.06 0.11
10 -2 2 0.37 0.13
10 -2 2 0.1 0.08
10 1 -2 0.54 0.11
10 1 -2 0.59 0.15
-10 -1 2 0.63 0.08
-10 -1 2 0.57 0.15
9 1 -2 2.93 0.19
9 1 -2 3.29 0.27
-9 -1 2 3.31 0.26
-9 -1 2 3.62 0.17
8 1 -2 7.46 0.38
8 1 -2 7.84 0.29
-8 -1 2 7.73 0.26
-8 -1 2 8.1 0.37
7 1 -2 1.51 0.11
-7 -1 2 1.41 0.1
-7 -1 2 1.07 0.15
6 1 -2 48.8 1
6 1 -2 48.42 1.01
-6 -1 2 48.51 0.99
-6 -1 2 50.27 1
-6 -1 2 47.6 1.1
-6 -1 2 49.65 1.15
5 1 -2 64.93 1.27
5 1 -2 64.43 1.25
5 1 -2 63.91 1.25
-5 -1 2 63.8 1.25
-5 -1 2 61.82 1.37
-5 -1 2 64.87 1.25
-5 -1 2 64.96 1.33
4 1 -2 101.51 1.89
4 1 -2 101.5 1.86
4 1 -2 99.45 1.85
-4 -1 2 97.04 1.86
-4 -1 2 100.28 1.93
-4 -1 2 99.64 1.86
-4 -1 2 98.71 1.97
3 1 -2 9.48 0.22
3 1 -2 9.77 0.25
3 1 -2 9.48 0.22
-3 -1 2 9.4 0.23
-3 -1 2 9.41 0.29
-3 -1 2 9.25 0.22
-3 -1 2 9.36 0.26
2 1 -2 440.4 7.97
2 1 -2 442.98 8.85
2 1 -2 421.59 8.57
-2 -1 2 444.55 8.05
-2 -1 2 426.35 9.48
-2 -1 2 430.36 8.71
-2 -1 2 428.98 8.64
1 1 -2 1.87 0.06
1 1 -2 1.95 0.08
1 1 -2 2.01 0.06
-1 -1 2 1.97 0.07
-1 -1 2 2.06 0.08
-1 -1 2 2 0.07
-1 -1 2 1.97 0.06
0 1 -2 2.65 0.08
0 1 -2 2.62 0.09
0 1 -2 2.78 0.07
0 -1 2 2.6 0.09
0 -1 2 2.62 0.08
0 -1 2 2.57 0.08
-1 1 -2 0.02 0.02
-1 1 -2 0.04 0.02
-1 1 -2 0.04 0.02
-1 1 -2 0.01 0.02
1 -1 2 0 0.02
1 -1 2 0 0.02
1 -1 2 0 0.02
-2 1 -2 7.28 0.15
-2 1 -2 7.07 0.19
-2 1 -2 7.77 0.22
2 -1 2 7.25 0.2
2 -1 2 7.42 0.21
2 -1 2 7.27 0.21
-3 1 -2 15.41 0.4
-3 1 -2 16.24 0.39
3 -1 2 15.91 0.39
3 -1 2 15.16 0.37
3 -1 2 15.78 0.4
-4 1 -2 6.9 0.23
-4 1 -2 6.5 0.23
-4 1 -2 6.06 0.24
4 -1 2 6.46 0.24
4 -1 2 6.03 0.21
-5 1 -2 42.35 0.93
-5 1 -2 42.66 0.98
5 -1 2 45.35 0.92
5 -1 2 41.48 0.96
-6 1 -2 0.84 0.13
-6 1 -2 0.83 0.11
6 -1 2 0.88 0.13
6 -1 2 0.73 0.09
-7 1 -2 0.7 0.14
-7 1 -2 0.45 0.09
7 -1 2 0.41 0.08
7 -1 2 0.36 0.1
-8 1 -2 8.95 0.42
-8 1 -2 9.88 0.36
8 -1 2 9.22 0.35
8 -1 2 8.72 0.4
-9 1 -2 6.91 0.39
-9 1 -2 6.83 0.31
9 -1 2 6.29 0.3
9 -1 2 6.31 0.36
-10 1 -2 0.02 0.11
-10 1 -2 0.06 0.07
10 -1 2 -0.04 0.05
10 -1 2 0.06 0.09
10 0 -2 15.06 0.5
10 0 -2 14.44 0.6
-10 0 2 13.97 0.45
-10 0 2 13.07 0.58
9 0 -2 2.65 0.28
9 0 -2 2.33 0.18
-9 0 2 2.61 0.26
-9 0 2 2.25 0.17
8 0 -2 12.37 0.49
8 0 -2 12.13 0.4
-8 0 2 12.76 0.4
-8 0 2 12.53 0.48
7 0 -2 0.02 0.04
7 0 -2 0.02 0.06
-7 0 2 0 0.04
-7 0 2 0 0.05
6 0 -2 5.56 0.19
6 0 -2 5.34 0.21
6 0 -2 5.67 0.27
-6 0 2 5.56 0.22
-6 0 2 5.77 0.26
5 0 -2 10.5 0.29
5 0 -2 10.69 0.28
5 0 -2 10.51 0.29
-5 0 2 10.65 0.31
-5 0 2 10.68 0.36
-5 0 2 9.77 0.33
-5 0 2 9.93 0.3
4 0 -2 72.65 1.4
4 0 -2 72.45 1.4
4 0 -2 73.46 1.39
-4 0 2 72.33 1.41
-4 0 2 73.38 1.42
-4 0 2 71.72 1.44
-4 0 2 72.55 1.48
3 0 -2 18.5 0.4
3 0 -2 17.64 0.4
3 0 -2 18.3 0.4
-3 0 2 18.42 0.41
-3 0 2 17.92 0.41
-3 0 2 18.27 0.42
-3 0 2 18.07 0.45
2 0 -2 0.08 0.02
2 0 -2 0.08 0.03
2 0 -2 0.07 0.02
-2 0 2 0.1 0.03
-2 0 2 0.08 0.03
-2 0 2 0.1 0.03
-2 0 2 0.12 0.03
1 0 -2 4.76 0.13
1 0 -2 4.65 0.12
1 0 -2 4.77 0.13
-1 0 2 4.92 0.13
-1 0 2 4.6 0.12
-1 0 2 4.69 0.11
0 0 -2 157.51 2.93
0 0 -2 158.85 2.95
0 0 -2 157.01 2.95
0 0 2 160.71 2.93
0 0 2 160.66 2.92
0 0 2 161.02 2.95
-1 0 -2 42.38 0.77
-1 0 -2 41.91 0.79
-1 0 -2 39.96 0.78
-1 0 -2 42.61 0.8
1 0 2 41.53 0.78
1 0 2 40.68 0.79
-2 0 -2 128.2 2.36
-2 0 -2 131.83 2.45
-2 0 -2 129.95 2.45
-2 0 -2 132.26 2.44
2 0 2 126.92 2.38
2 0 2 128.58 2.43
2 0 2 130.64 2.5
-3 0 -2 0.27 0.06
-3 0 -2 0.24 0.02
-3 0 -2 0.25 0.04
-3 0 -2 0.26 0.04
3 0 2 0.27 0.04
3 0 2 0.28 0.04
3 0 2 0.22 0.05
-4 0 -2 5.39 0.22
-4 0 -2 6 0.19
-4 0 -2 5.81 0.19
4 0 2 5.61 0.18
4 0 2 5.61 0.18
4 0 2 5.84 0.22
4 0 2 5.91 0.13
-5 0 -2 23.06 0.54
-5 0 -2 22.63 0.61
-5 0 -2 24.34 0.55
5 0 2 23.15 0.53
5 0 2 23.74 0.44
5 0 2 22.86 0.53
5 0 2 23.04 0.6
-6 0 -2 15.51 0.49
-6 0 -2 14.84 0.4
6 0 2 14.41 0.47
6 0 2 14.25 0.39
-7 0 -2 7.66 0.35
-7 0 -2 6.78 0.26
7 0 2 7.25 0.34
7 0 2 6.71 0.26
-8 0 -2 12.62 0.51
-8 0 -2 12.2 0.39
8 0 2 12.45 0.4
8 0 2 13.09 0.5
-9 0 -2 0.09 0.06
-9 0 -2 -0.08 0.08
9 0 2 0.08 0.09
9 0 2 0.03 0.06
-10 0 -2 1.49 0.15
-10 0 -2 1.52 0.23
10 0 2 1.64 0.18
10 0 2 2.24 0.27
10 -1 -2 2.26 0.22
10 -1 -2 2.4 0.28
-10 1 2 2.38 0.28
-10 1 2 2.16 0.21
9 -1 -2 10.16 0.39
9 -1 -2 9.75 0.45
-9 1 2 9.5 0.38
-9 1 2 10.37 0.46
8 -1 -2 2.9 0.19
8 -1 -2 2.38 0.24
-8 1 2 3.31 0.24
-8 1 2 2.4 0.18
7 -1 -2 5 0.23
7 -1 -2 4.43 0.26
-7 1 2 4.71 0.24
-7 1 2 5.12 0.27
6 -1 -2 10.27 0.33
6 -1 -2 9.86 0.37
-6 1 2 11.01 0.35
-6 1 2 10.4 0.37
5 -1 -2 0.43 0.07
5 -1 -2 0.65 0.06
5 -1 -2 0.64 0.1
-5 1 2 0.64 0.09
-5 1 2 0.53 0.09
4 -1 -2 13.84 0.38
4 -1 -2 14.29 0.33
4 -1 -2 14.15 0.36
4 -1 -2 12.9 0.38
-4 1 2 13.53 0.39
-4 1 2 13.44 0.37
-4 1 2 13.41 0.38
3 -1 -2 7.76 0.23
3 -1 -2 8.53 0.21
3 -1 -2 8.17 0.25
-3 1 2 8.11 0.22
-3 1 2 7.74 0.24
-3 1 2 7.71 0.24
-3 1 2 7.56 0.24
2 -1 -2 8.09 0.21
2 -1 -2 7.75 0.21
2 -1 -2 8.51 0.23
-2 1 2 7.9 0.22
-2 1 2 8.18 0.22
-2 1 2 8.17 0.22
-2 1 2 7.84 0.21
1 -1 -2 2.4 0.09
1 -1 -2 2.65 0.1
1 -1 -2 2.49 0.09
-1 1 2 2.68 0.1
-1 1 2 2.51 0.09
-1 1 2 2.43 0.08
-1 1 2 2.41 0.09
0 -1 -2 1.58 0.07
0 -1 -2 1.5 0.07
0 1 2 1.61 0.04
0 1 2 1.56 0.07
0 1 2 1.5 0.06
0 1 2 1.59 0.07
-1 -1 -2 39.54 0.76
-1 -1 -2 39.72 0.75
-1 -1 -2 40.22 0.78
-1 -1 -2 39.87 0.79
1 1 2 40.16 0.76
1 1 2 39.92 0.74
1 1 2 40.4 0.75
-2 -1 -2 0.32 0.03
-2 -1 -2 0.31 0.04
-2 -1 -2 0.34 0.05
-2 -1 -2 0.38 0.03
2 1 2 0.42 0.05
2 1 2 0.35 0.03
2 1 2 0.35 0.03
-3 -1 -2 14.5 0.39
-3 -1 -2 14.02 0.33
-3 -1 -2 14.73 0.32
-3 -1 -2 14.8 0.32
3 1 2 14.56 0.31
3 1 2 15.12 0.31
3 1 2 14.7 0.38
-4 -1 -2 49.97 1.1
-4 -1 -2 51.2 1
-4 -1 -2 51.61 1
-4 -1 -2 51.39 1
4 1 2 52.33 1
4 1 2 51.14 0.99
4 1 2 53.29 1.09
-5 -1 -2 22.28 0.49
-5 -1 -2 22.06 0.49
-5 -1 -2 21.74 0.6
5 1 2 22.52 0.49
5 1 2 22.22 0.49
5 1 2 22.45 0.59
5 1 2 22.61 0.48
-6 -1 -2 4.91 0.18
-6 -1 -2 4.71 0.25
-6 -1 -2 5.02 0.18
6 1 2 4.78 0.25
6 1 2 4.89 0.18
-7 -1 -2 13.11 0.35
-7 -1 -2 13.06 0.48
7 1 2 12.82 0.47
7 1 2 12.26 0.36
-8 -1 -2 0.95 0.1
-8 -1 -2 0.92 0.16
8 1 2 0.86 0.11
8 1 2 0.94 0.16
-9 -1 -2 4.04 0.3
9 1 2 3.4 0.27
9 1 2 4.02 0.21
-10 -1 -2 0.04 0.04
-10 -1 -2 0.01 0.11
10 1 2 0 0.05
10 1 2 0.06 0.1
10 -2 -2 2.87 0.27
10 -2 -2 2.63 0.29
-10 2 2 2.42 0.25
-10 2 2 3.59 0.34
9 -2 -2 0.85 0.14
9 -2 -2 0.58 0.14
-9 2 2 0.57 0.15
-9 2 2 0.69 0.14
8 -2 -2 3 0.23
8 -2 -2 2.44 0.19
-8 2 2 2.88 0.21
-8 2 2 2.8 0.26
7 -2 -2 18 0.53
7 -2 -2 17.53 0.57
-7 2 2 18.43 0.56
-7 2 2 18.03 0.58
6 -2 -2 11.57 0.41
6 -2 -2 11.69 0.38
-6 2 2 11.99 0.42
-6 2 2 12.28 0.41
5 -2 -2 31.44 0.77
5 -2 -2 32.61 0.76
5 -2 -2 33.3 0.69
5 -2 -2 33.22 0.8
-5 2 2 32.27 0.79
-5 2 2 33.27 0.78
4 -2 -2 50.3 1.06
4 -2 -2 50.41 1.08
4 -2 -2 50.52 1
4 -2 -2 49.76 1.05
-4 2 2 50.68 1.04
-4 2 2 51.14 1.07
-4 2 2 49.9 1.08
3 -2 -2 45.05 0.94
3 -2 -2 43.86 0.88
3 -2 -2 43.44 0.9
3 -2 -2 44.08 0.9
-3 2 2 42.5 0.93
-3 2 2 43.9 0.91
-3 2 2 42.98 0.91
2 -2 -2 157.38 2.87
2 -2 -2 149.89 2.86
2 -2 -2 156.67 2.9
2 -2 -2 157.03 2.85
-2 2 2 152.56 2.91
-2 2 2 158.01 2.87
-2 2 2 153.64 2.89
1 -2 -2 0.47 0.06
1 -2 -2 0.5 0.06
1 -2 -2 0.48 0.05
1 -2 -2 0.5 0.03
-1 2 2 0.39 0.05
-1 2 2 0.6 0.07
-1 2 2 0.49 0.06
0 -2 -2 14.12 0.34
0 -2 -2 14.21 0.32
0 -2 -2 13.56 0.31
0 2 2 13.54 0.32
0 2 2 13.55 0.31
-1 -2 -2 73.33 1.34
-1 -2 -2 71.48 1.35
-1 -2 -2 70.29 1.39
-1 -2 -2 72.56 1.34
1 2 2 73 1.34
1 2 2 73.73 1.34
-2 -2 -2 0.01 0.02
-2 -2 -2 -0.02 0.03
-2 -2 -2 0.03 0.02
-2 -2 -2 0.01 0.01
-2 -2 -2 -0.02 0.01
2 2 2 0.02 0.02
2 2 2 0 0.01
2 2 2 0.01 0.01
-3 -2 -2 3.48 0.14
-3 -2 -2 3.86 0.17
-3 -2 -2 3.57 0.09
-3 -2 -2 3.53 0.09
3 2 2 3.52 0.15
3 2 2 3.46 0.09
3 2 2 3.54 0.09
-4 -2 -2 72.02 1.51
-4 -2 -2 75.06 1.44
-4 -2 -2 72.26 1.34
-4 -2 -2 76.47 1.34
4 2 2 72.81 1.37
4 2 2 73.66 1.36
4 2 2 73.46 1.49
-5 -2 -2 13.43 0.28
-5 -2 -2 14.15 0.28
-5 -2 -2 13.91 0.36
-5 -2 -2 13.04 0.43
5 2 2 13.69 0.42
5 2 2 13.86 0.32
5 2 2 13.99 0.32
-6 -2 -2 24.97 0.47
-6 -2 -2 24.35 0.47
-6 -2 -2 24.53 0.69
6 2 2 24.6 0.54
6 2 2 24.03 0.67
-7 -2 -2 2.47 0.24
7 2 2 1.99 0.12
7 2 2 1.59 0.18
-8 -2 -2 0.14 0.09
8 2 2 0.21 0.1
8 2 2 0.12 0.05
-9 -2 -2 1.95 0.25
9 2 2 2.27 0.25
9 2 2 1.91 0.14
-10 -2 -2 -0.12 0.09
10 2 2 -0.15 0.07
10 2 2 0.06 0.05
10 -3 -2 0.39 0.14
10 -3 -2 0.18 0.1
-10 3 2 0.2 0.1
9 -3 -2 0.34 0.12
9 -3 -2 0.25 0.1
-9 3 2 0.15 0.11
-9 3 2 0.1 0.09
8 -3 -2 0.91 0.15
8 -3 -2 0.75 0.15
-8 3 2 0.85 0.16
-8 3 2 0.76 0.15
7 -3 -2 9.85 0.38
7 -3 -2 9.85 0.39
-7 3 2 9.38 0.41
-7 3 2 9.03 0.39
6 -3 -2 0.05 0.06
6 -3 -2 0.06 0.06
-6 3 2 0.02 0.05
-6 3 2 0.06 0.06
5 -3 -2 6.64 0.22
5 -3 -2 7.1 0.3
5 -3 -2 7.02 0.27
5 -3 -2 6.49 0.27
-5 3 2 7 0.29
-5 3 2 6.4 0.28
4 -3 -2 0.18 0.05
4 -3 -2 0.24 0.06
4 -3 -2 0.17 0.05
4 -3 -2 0.15 0.06
-4 3 2 0.18 0.05
-4 3 2 0.15 0.06
-4 3 2 0.14 0.05
3 -3 -2 1.11 0.09
3 -3 -2 1.27 0.1
3 -3 -2 1.47 0.12
3 -3 -2 1.37 0.09
-3 3 2 1.25 0.1
-3 3 2 1.38 0.1
2 -3 -2 57.97 1.15
2 -3 -2 57.71 1.1
2 -3 -2 58.25 1.18
2 -3 -2 55.86 1.15
-2 3 2 55.85 1.15
-2 3 2 54.88 1.15
-2 3 2 59.36 1.18
1 -3 -2 0.34 0.06
1 -3 -2 0.39 0.06
1 -3 -2 0.39 0.05
1 -3 -2 0.39 0.03
-1 3 2 0.4 0.06
-1 3 2 0.37 0.05
-1 3 2 0.36 0.06
0 -3 -2 74.92 1.36
0 -3 -2 74.57 1.48
0 -3 -2 74.9 1.45
0 -3 -2 76.89 1.44
0 3 2 74.79 1.42
0 3 2 75.97 1.45
0 3 2 72.49 1.42
-1 -3 -2 24.55 0.58
-1 -3 -2 24.96 0.52
-1 -3 -2 25.27 0.5
-1 -3 -2 24.67 0.52
1 3 2 25.03 0.51
1 3 2 25 0.51
1 3 2 24.53 0.56
-2 -3 -2 77.87 1.56
-2 -3 -2 78.15 1.46
-2 -3 -2 80.31 1.46
-2 -3 -2 79.36 1.5
-2 -3 -2 78.15 1.56
2 3 2 79.2 1.46
2 3 2 80.45 1.46
-3 -3 -2 59.96 1.2
-3 -3 -2 58.49 1.23
-3 -3 -2 59.43 1.22
3 3 2 59.85 1.1
3 3 2 59.54 1.1
-4 -3 -2 16.39 0.48
-4 -3 -2 16.73 0.45
4 3 2 17.47 0.46
4 3 2 17.18 0.34
4 3 2 16.87 0.34
-5 -3 -2 0.5 0.08
-5 -3 -2 0.63 0.11
5 3 2 0.6 0.04
5 3 2 0.69 0.1
5 3 2 0.56 0.04
-6 -3 -2 0.51 0.12
6 3 2 0.52 0.05
6 3 2 0.64 0.06
6 3 2 0.66 0.12
-7 -3 -2 3.87 0.26
7 3 2 3.85 0.15
7 3 2 4.49 0.27
-8 -3 -2 0.66 0.14
8 3 2 0.6 0.07
8 3 2 0.71 0.14
-9 -3 -2 3.01 0.31
9 3 2 2.88 0.29
9 3 2 2.96 0.16
10 -4 -2 0.42 0.13
10 -4 -2 0.38 0.13
-10 4 2 0.6 0.16
-10 4 2 0.23 0.14
9 -4 -2 0.42 0.13
9 -4 -2 0.54 0.14
-9 4 2 0.69 0.17
-9 4 2 0.49 0.15
8 -4 -2 7.53 0.36
8 -4 -2 7.62 0.36
-8 4 2 6.66 0.37
-8 4 2 7.35 0.39
7 -4 -2 0.89 0.14
7 -4 -2 0.74 0.13
-7 4 2 0.77 0.14
-7 4 2 0.77 0.15
6 -4 -2 30.44 0.77
6 -4 -2 29.78 0.76
-6 4 2 28.78 0.8
-6 4 2 28.62 0.81
5 -4 -2 34.28 0.8
5 -4 -2 34.16 0.88
5 -4 -2 33.32 0.76
5 -4 -2 34.96 0.83
-5 4 2 33.67 0.85
-5 4 2 34.45 0.87
4 -4 -2 4.37 0.19
4 -4 -2 4.87 0.2
4 -4 -2 4.36 0.23
4 -4 -2 4.35 0.21
-4 4 2 5.03 0.24
-4 4 2 4.54 0.22
-4 4 2 4.71 0.23
3 -4 -2 4.49 0.19
3 -4 -2 4.27 0.16
3 -4 -2 4.42 0.2
3 -4 -2 4.38 0.22
-3 4 2 4.28 0.2
-3 4 2 3.83 0.19
-3 4 2 4.22 0.21
2 -4 -2 0.93 0.1
2 -4 -2 0.81 0.1
2 -4 -2 0.91 0.06
2 -4 -2 1.09 0.1
-2 4 2 1.01 0.11
-2 4 2 0.82 0.09
-2 4 2 0.8 0.09
1 -4 -2 9.4 0.3
1 -4 -2 9.56 0.27
1 -4 -2 9.85 0.22
1 -4 -2 9.91 0.32
-1 4 2 10.05 0.31
-1 4 2 10.36 0.3
-1 4 2 9.14 0.29
0 -4 -2 149.35 2.83
0 -4 -2 147.27 2.78
0 -4 -2 148.79 2.69
0 -4 -2 147.57 2.77
0 4 2 151.12 2.79
0 4 2 144.18 2.76
0 4 2 147.83 2.75
-1 -4 -2 45.47 1
-1 -4 -2 46.95 0.92
-1 -4 -2 46.42 0.88
-1 -4 -2 45.72 0.92
1 4 2 44.53 0.96
1 4 2 44.68 0.91
1 4 2 46.1 0.91
-2 -4 -2 9.37 0.23
-2 -4 -2 8.83 0.31
-2 -4 -2 8.98 0.25
-2 -4 -2 9.04 0.23
2 4 2 9.23 0.23
2 4 2 9.36 0.3
2 4 2 9.01 0.23
-3 -4 -2 16.25 0.48
-3 -4 -2 17.71 0.44
-3 -4 -2 17.25 0.48
3 4 2 16.7 0.36
3 4 2 17.3 0.36
-4 -4 -2 1.07 0.11
-4 -4 -2 1.26 0.15
-4 -4 -2 1.01 0.12
4 4 2 0.93 0.05
4 4 2 1.23 0.12
-5 -4 -2 46.37 1.06
-5 -4 -2 47.7 1.1
5 4 2 47.86 1.07
5 4 2 47.79 0.89
5 4 2 47.42 0.89
-6 -4 -2 0.3 0.08
-6 -4 -2 0.32 0.1
6 4 2 0.32 0.04
6 4 2 0.31 0.04
6 4 2 0.18 0.08
-7 -4 -2 0.86 0.15
7 4 2 0.97 0.15
7 4 2 0.96 0.07
-8 -4 -2 0.55 0.14
8 4 2 0.31 0.05
8 4 2 0.26 0.1
-9 -4 -2 2.13 0.26
9 4 2 2.41 0.27
9 4 2 2.15 0.12
9 -5 -2 0.11 0.09
-9 5 2 0.05 0.1
-9 5 2 -0.01 0.1
8 -5 -2 0.21 0.1
-8 5 2 0.2 0.11
-8 5 2 0.3 0.13
7 -5 -2 1.65 0.18
-7 5 2 1.88 0.23
-7 5 2 1.45 0.2
6 -5 -2 3.78 0.21
-6 5 2 3.94 0.25
-6 5 2 3.47 0.25
5 -5 -2 1.31 0.14
5 -5 -2 1.61 0.15
-5 5 2 1.34 0.17
-5 5 2 1.68 0.2
4 -5 -2 26.18 0.65
4 -5 -2 25.28 0.72
4 -5 -2 25.83 0.61
-4 5 2 25.56 0.68
-4 5 2 24.65 0.68
-4 5 2 26.3 0.72
3 -5 -2 7.34 0.29
3 -5 -2 7.81 0.23
3 -5 -2 6.97 0.31
-3 5 2 7.06 0.3
-3 5 2 7.32 0.29
2 -5 -2 1.7 0.14
2 -5 -2 1.45 0.14
2 -5 -2 1.95 0.09
-2 5 2 1.82 0.16
-2 5 2 1.8 0.14
-2 5 2 1.9 0.14
1 -5 -2 4.3 0.12
1 -5 -2 3.86 0.21
1 -5 -2 4.13 0.21
-1 5 2 4.17 0.19
-1 5 2 4.32 0.2
0 -5 -2 43.01 0.81
0 -5 -2 41.95 0.92
0 -5 -2 41.83 0.98
0 5 2 42.32 0.91
0 5 2 43.02 0.94
-1 -5 -2 30.97 0.62
-1 -5 -2 29.61 0.67
-1 -5 -2 30.98 0.67
-1 -5 -2 30.37 0.77
1 5 2 31.18 0.67
1 5 2 30.91 0.72
1 5 2 30.39 0.67
-2 -5 -2 0.73 0.11
-2 -5 -2 0.66 0.07
-2 -5 -2 0.68 0.07
-2 -5 -2 0.77 0.07
2 5 2 0.4 0.08
2 5 2 0.69 0.07
2 5 2 0.7 0.07
-3 -5 -2 6.18 0.28
-3 -5 -2 6.18 0.22
3 5 2 5.83 0.18
3 5 2 6.12 0.18
3 5 2 6.14 0.26
-4 -5 -2 0.65 0.1
-4 -5 -2 0.57 0.1
4 5 2 0.72 0.06
4 5 2 0.84 0.12
4 5 2 0.76 0.05
-5 -5 -2 0.15 0.08
-5 -5 -2 0.19 0.07
5 5 2 0.18 0.07
5 5 2 0.2 0.03
5 5 2 0.15 0.03
-6 -5 -2 6.79 0.31
-6 -5 -2 6.91 0.34
6 5 2 6.73 0.17
6 5 2 6.64 0.17
6 5 2 7.13 0.31
-7 -5 -2 0.06 0.08
7 5 2 -0.02 0.06
-8 -5 -2 -0.02 0.07
8 5 2 -0.02 0.02
-9 6 2 5.91 0.4
-8 6 2 6.25 0.39
-7 6 2 3.82 0.29
-6 6 2 0.69 0.15
5 -6 -2 0.94 0.13
-5 6 2 0.56 0.12
4 -6 -2 0.3 0.08
4 -6 -2 0.34 0.1
-4 6 2 0.32 0.09
-4 6 2 0.13 0.07
3 -6 -2 7.05 0.33
3 -6 -2 7.5 0.31
-3 6 2 7.61 0.32
-3 6 2 7.94 0.32
2 -6 -2 12.28 0.42
2 -6 -2 11.2 0.4
-2 6 2 10.43 0.38
-2 6 2 11.07 0.39
1 -6 -2 31.13 0.77
1 -6 -2 31.43 0.81
-1 6 2 30.72 0.75
-1 6 2 30.92 0.77
0 -6 -2 9.21 0.38
0 -6 -2 10.01 0.34
0 6 2 9.85 0.34
0 6 2 10.21 0.33
-1 -6 -2 6.76 0.31
-1 -6 -2 6.62 0.24
1 6 2 6.77 0.25
1 6 2 7.2 0.28
-2 -6 -2 0.49 0.07
-2 -6 -2 0.44 0.11
2 6 2 0.42 0.07
2 6 2 0.5 0.09
-3 -6 -2 0.78 0.13
3 6 2 0.7 0.08
3 6 2 0.79 0.12
-4 -6 -2 9.01 0.38
4 6 2 8.97 0.25
4 6 2 9.54 0.37
-5 -6 -2 1.24 0.17
5 6 2 1.07 0.07
5 6 2 1.12 0.16
-6 -6 -2 3.18 0.23
6 6 2 3.02 0.23
6 6 2 3.27 0.1
7 6 2 1.88 0.05
7 6 2 2.06 0.24
-8 -6 -2 2.63 0.28
8 6 2 2.54 0.27
-8 7 2 4.17 0.33
-7 7 2 0.19 0.11
-6 7 2 7.11 0.38
5 -7 -2 3.26 0.24
-5 7 2 3.43 0.26
4 -7 -2 3.22 0.23
4 -7 -2 3.26 0.25
-4 7 2 3.09 0.23
3 -7 -2 9.3 0.39
3 -7 -2 10.13 0.42
-3 7 2 9.3 0.39
-3 7 2 9.8 0.39
2 -7 -2 0.03 0.06
2 -7 -2 0.05 0.08
-2 7 2 0 0.06
-2 7 2 0.12 0.07
1 -7 -2 1.54 0.19
1 -7 -2 1.46 0.16
-1 7 2 1.53 0.16
-1 7 2 1.61 0.16
0 -7 -2 0.41 0.09
0 -7 -2 0.75 0.14
0 7 2 0.42 0.09
0 7 2 0.49 0.1
-1 -7 -2 0.45 0.08
-1 -7 -2 0.33 0.1
1 7 2 0.45 0.08
1 7 2 0.45 0.1
-2 -7 -2 2.84 0.23
-2 -7 -2 2.79 0.14
2 7 2 3.07 0.2
2 7 2 2.99 0.16
-3 -7 -2 0.04 0.01
-3 -7 -2 0.05 0.08
-3 -7 -2 0.06 0.01
3 7 2 0.06 0.04
3 7 2 0.16 0.07
-4 -7 -2 -0.08 0.06
4 7 2 0.01 0.03
4 7 2 0.01 0.06
-5 -7 -2 0.04 0.07
5 7 2 0.1 0.08
5 7 2 0.13 0.04
-6 -7 -2 0.32 0.12
6 7 2 0.43 0.05
6 7 2 0.6 0.14
7 7 2 0.31 0.12
-7 8 2 0.04 0.09
-6 8 2 0.63 0.16
-5 8 2 3.49 0.28
4 -8 -2 4.77 0.29
4 -8 -2 4.93 0.33
-4 8 2 5.5 0.32
3 -8 -2 1.87 0.22
3 -8 -2 2.06 0.23
-3 8 2 2.18 0.23
-3 8 2 2.36 0.24
2 -8 -2 0.75 0.14
2 -8 -2 0.6 0.13
-2 8 2 0.72 0.13
-2 8 2 0.79 0.14
1 -8 -2 0.2 0.1
1 -8 -2 0.2 0.09
-1 8 2 0.15 0.08
-1 8 2 0.29 0.09
0 -8 -2 0.52 0.11
0 -8 -2 0.6 0.14
0 8 2 0.33 0.1
0 8 2 0.5 0.11
-1 -8 -2 0.59 0.14
-1 -8 -2 0.41 0.08
1 8 2 0.45 0.11
1 8 2 0.48 0.1
-2 -8 -2 5.31 0.21
-2 -8 -2 5.46 0.34
2 8 2 5.19 0.24
2 8 2 5.71 0.29
-3 -8 -2 5.56 0.34
3 8 2 5.33 0.24
3 8 2 5.24 0.29
-4 -8 -2 1.62 0.22
4 8 2 1.52 0.13
4 8 2 1.58 0.19
-5 -8 -2 2.55 0.28
5 8 2 2.94 0.23
5 8 2 2.65 0.14
-6 -8 -2 0.11 0.1
6 8 2 0.08 0.03
6 8 2 0.1 0.09
-5 9 2 0.21 0.12
4 -9 -2 0.69 0.15
4 -9 -2 0.73 0.16
-4 9 2 0.76 0.16
3 -9 -2 1.38 0.2
3 -9 -2 1.11 0.19
-3 9 2 1.34 0.2
-3 9 2 0.98 0.17
2 -9 -2 -0.04 0.09
2 -9 -2 0.08 0.08
-2 9 2 -0.07 0.07
-2 9 2 -0.05 0.07
1 -9 -2 -0.08 0.08
1 -9 -2 0.16 0.09
-1 9 2 0.07 0.07
-1 9 2 0.12 0.08
0 -9 -2 1.01 0.14
0 -9 -2 1.06 0.19
0 9 2 1.05 0.16
0 9 2 1.01 0.15
-1 -9 -2 5.73 0.26
-1 -9 -2 5.36 0.36
1 9 2 5.15 0.3
1 9 2 5.3 0.28
-2 -9 -2 3.62 0.17
-2 -9 -2 3.57 0.34
2 9 2 3.34 0.22
2 9 2 3.69 0.25
-3 -9 -2 0.37 0.14
3 9 2 0.31 0.08
3 9 2 0.3 0.1
-4 -9 -2 0.01 0.09
4 9 2 0.03 0.08
4 9 2 0.1 0.06
3 -10 -2 0.11 0.11
3 -10 -2 0.06 0.09
-3 10 2 0.16 0.11
-3 10 2 0.28 0.12
2 -10 -2 0.69 0.15
2 -10 -2 0.62 0.17
-2 10 2 0.76 0.15
-2 10 2 0.85 0.17
1 -10 -2 1.98 0.22
1 -10 -2 2.26 0.28
-1 10 2 1.66 0.21
-1 10 2 2.15 0.25
0 -10 -2 1.85 0.2
0 -10 -2 1.97 0.27
0 10 2 2.24 0.24
0 10 2 1.87 0.23
-1 -10 -2 -0.04 0.09
-1 -10 -2 -0.04 0.05
1 10 2 0.1 0.1
1 10 2 -0.02 0.07
-2 -10 -2 0.04 0.05
-2 -10 -2 0.12 0.11
2 10 2 0.07 0.08
2 10 2 0.17 0.1
3 10 -3 0.05 0.06
-3 -10 3 0.08 0.1
2 10 -3 3.38 0.23
-2 -10 3 3.01 0.16
-2 -10 3 2.66 0.31
1 10 -3 2.28 0.22
-1 -10 3 2.12 0.28
-1 -10 3 2.69 0.19
0 10 -3 3.86 0.26
0 -10 3 3.72 0.35
0 -10 3 3.63 0.24
-1 10 -3 0.23 0.09
1 -10 3 0.03 0.07
1 -10 3 0.14 0.11
-2 10 -3 1.17 0.19
-2 10 -3 1.25 0.19
2 -10 3 0.97 0.19
2 -10 3 0.78 0.16
-3 10 -3 1.65 0.24
-3 10 -3 1.2 0.2
3 -10 3 1.53 0.22
3 -10 3 1.42 0.21
-4 10 -3 0.44 0.14
4 -10 3 0.23 0.12
5 9 -3 1.58 0.13
-5 -9 3 1.57 0.25
4 9 -3 0.91 0.11
-4 -9 3 1.19 0.21
3 9 -3 3.16 0.19
-3 -9 3 3.82 0.31
2 9 -3 13.06 0.44
-2 -9 3 12.66 0.55
-2 -9 3 13.56 0.38
1 9 -3 1.17 0.15
-1 -9 3 1.34 0.15
-1 -9 3 1.26 0.2
0 9 -3 1.51 0.18
0 9 -3 1.43 0.18
0 -9 3 1.15 0.15
0 -9 3 1.41 0.21
-1 9 -3 1.33 0.17
-1 9 -3 1.13 0.16
1 -9 3 1.14 0.19
1 -9 3 1.02 0.16
-2 9 -3 1.01 0.16
-2 9 -3 0.81 0.14
2 -9 3 1.09 0.18
2 -9 3 0.89 0.15
-3 9 -3 0.51 0.13
-3 9 -3 0.41 0.12
3 -9 3 0.24 0.1
3 -9 3 0.27 0.11
-4 9 -3 1 0.18
4 -9 3 0.81 0.16
-5 9 -3 1.8 0.24
-6 9 -3 0.75 0.18
6 8 -3 4.81 0.16
6 8 -3 5.11 0.35
5 8 -3 0.41 0.07
-5 -8 3 0.44 0.13
4 8 -3 1.06 0.11
-4 -8 3 0.83 0.17
3 8 -3 -0.01 0.05
-3 -8 3 0 0.08
-3 -8 3 0.04 0.02
2 8 -3 0.07 0.06
2 8 -3 0.08 0.05
-2 -8 3 0.01 0.04
-2 -8 3 0.09 0.08
1 8 -3 5.23 0.25
1 8 -3 5.01 0.25
-1 -8 3 5.25 0.31
-1 -8 3 4.97 0.23
0 8 -3 0.13 0.07
0 8 -3 0.18 0.07
0 -8 3 -0.03 0.07
0 -8 3 0.16 0.07
-1 8 -3 0.36 0.09
-1 8 -3 0.38 0.1
1 -8 3 0.34 0.11
1 -8 3 0.45 0.1
-2 8 -3 2.05 0.21
-2 8 -3 1.89 0.2
2 -8 3 1.77 0.2
2 -8 3 2.05 0.21
-3 8 -3 1.12 0.17
-3 8 -3 0.65 0.13
3 -8 3 1.02 0.16
3 -8 3 0.73 0.13
-4 8 -3 1.41 0.2
4 -8 3 1.65 0.22
-5 8 -3 0.26 0.11
-6 8 -3 0.05 0.09
-7 8 -3 5.83 0.38
7 7 -3 0.5 0.14
6 7 -3 4.52 0.31
6 7 -3 4.44 0.14
5 7 -3 3.26 0.13
-5 -7 3 3.36 0.26
4 7 -3 0.41 0.06
-4 -7 3 0.29 0.11
3 7 -3 14.75 0.43
3 7 -3 14.39 0.4
-3 -7 3 14.18 0.53
-3 -7 3 14.54 0.31
-3 -7 3 15.05 0.31
2 7 -3 13.12 0.39
2 7 -3 13.75 0.4
-2 -7 3 12.87 0.35
-2 -7 3 12.96 0.48
1 7 -3 0.58 0.09
1 7 -3 0.68 0.1
-1 -7 3 0.74 0.13
-1 -7 3 0.63 0.09
-1 -7 3 0.84 0.11
0 7 -3 1.77 0.14
0 7 -3 1.75 0.16
0 -7 3 1.61 0.12
0 -7 3 1.52 0.15
0 -7 3 1.57 0.18
-1 7 -3 1.18 0.14
-1 7 -3 1 0.12
1 -7 3 1.46 0.16
1 -7 3 1.29 0.13
1 -7 3 1.26 0.16
-2 7 -3 0.88 0.13
-2 7 -3 0.98 0.13
2 -7 3 1.17 0.15
2 -7 3 1.07 0.15
2 -7 3 1.04 0.12
-3 7 -3 1.62 0.17
-3 7 -3 2.13 0.2
3 -7 3 1.97 0.15
3 -7 3 2.22 0.22
3 -7 3 2.21 0.17
-4 7 -3 0.92 0.15
4 -7 3 0.89 0.12
4 -7 3 0.69 0.13
4 -7 3 0.79 0.12
-5 7 -3 4.79 0.3
5 -7 3 4.95 0.26
-6 7 -3 0.76 0.17
6 -7 3 0.92 0.15
-7 7 -3 1.58 0.23
7 -7 3 1.4 0.19
-8 7 -3 3.01 0.33
8 -7 3 2.49 0.27
-8 -6 3 0.27 0.12
7 6 -3 11.71 0.47
7 6 -3 11.19 0.24
-7 -6 3 10.69 0.48
6 6 -3 0.22 0.09
6 6 -3 0.57 0.05
-6 -6 3 0.57 0.13
5 6 -3 0.02 0.02
-5 -6 3 0.03 0.06
-5 -6 3 -0.03 0.06
4 6 -3 -0.04 0.04
4 6 -3 0.03 0.03
-4 -6 3 0.04 0.05
-4 -6 3 0 0.06
3 6 -3 -0.03 0.03
3 6 -3 -0.01 0.03
-3 -6 3 0 0.05
-3 -6 3 0.01 0.02
-3 -6 3 0 0.02
-3 -6 3 0.05 0.05
2 6 -3 2.89 0.14
2 6 -3 2.73 0.15
-2 -6 3 2.42 0.12
-2 -6 3 2.8 0.16
-2 -6 3 2.51 0.12
-2 -6 3 2.47 0.19
1 6 -3 12.97 0.36
1 6 -3 12.3 0.36
-1 -6 3 12.32 0.43
-1 -6 3 12.5 0.36
-1 -6 3 12.65 0.37
0 6 -3 38.24 0.84
0 6 -3 36.74 0.85
0 -6 3 37.49 0.91
0 -6 3 38.56 0.86
0 -6 3 37.87 0.83
-1 6 -3 30.99 0.73
-1 6 -3 29.97 0.73
1 -6 3 31.06 0.75
1 -6 3 29.71 0.7
1 -6 3 30.44 0.77
-2 6 -3 72.4 1.52
-2 6 -3 71.08 1.51
2 -6 3 72.65 1.54
2 -6 3 73.53 1.53
2 -6 3 72.43 1.47
-3 6 -3 47.04 1.09
-3 6 -3 48.87 1.1
3 -6 3 47.13 1.04
3 -6 3 46.92 1.06
3 -6 3 48.3 1.13
-4 6 -3 0.31 0.09
-4 6 -3 0.3 0.09
4 -6 3 0.39 0.09
4 -6 3 0.38 0.08
4 -6 3 0.44 0.11
-5 6 -3 0.2 0.09
5 -6 3 0.19 0.08
-6 6 -3 1.69 0.22
6 -6 3 2.09 0.2
-7 6 -3 4.63 0.31
7 -6 3 4.34 0.27
-8 6 -3 5.63 0.37
8 -6 3 5.25 0.32
-9 6 -3 0.19 0.13
-9 6 -3 0.2 0.12
9 -6 3 0.14 0.11
9 5 -3 0.03 0.08
9 5 -3 0.02 0.03
8 5 -3 0.4 0.05
-8 -5 3 0.47 0.14
7 5 -3 4.5 0.27
7 5 -3 4.7 0.14
-7 -5 3 4.57 0.3
6 5 -3 2.94 0.21
6 5 -3 3.25 0.1
6 5 -3 2.93 0.1
-6 -5 3 3.44 0.24
5 5 -3 0.59 0.11
5 5 -3 0.63 0.05
5 5 -3 0.72 0.1
5 5 -3 0.71 0.05
-5 -5 3 0.91 0.12
-5 -5 3 0.61 0.11
-5 -5 3 0.74 0.12
4 5 -3 32.35 0.64
4 5 -3 32.22 0.73
4 5 -3 31.29 0.64
-4 -5 3 31.54 0.8
-4 -5 3 33.07 0.82
3 5 -3 19.35 0.48
3 5 -3 19.11 0.42
3 5 -3 19.68 0.43
-3 -5 3 19.29 0.37
-3 -5 3 19.21 0.53
-3 -5 3 18.71 0.37
2 5 -3 7.63 0.24
2 5 -3 8.06 0.23
2 5 -3 7.73 0.22
-2 -5 3 7.61 0.22
-2 -5 3 7.85 0.28
-2 -5 3 7.77 0.22
-2 -5 3 7.97 0.31
1 5 -3 19.56 0.47
1 5 -3 19.33 0.47
1 5 -3 18.99 0.46
-1 -5 3 20.13 0.49
-1 -5 3 20.34 0.48
-1 -5 3 19.4 0.54
-1 -5 3 19.03 0.47
0 5 -3 4.18 0.18
0 5 -3 4.61 0.18
0 -5 3 4.55 0.19
0 -5 3 4.29 0.21
0 -5 3 4.54 0.19
0 -5 3 4.45 0.18
-1 5 -3 3.01 0.16
-1 5 -3 3.21 0.17
-1 5 -3 3.07 0.15
1 -5 3 3.42 0.16
1 -5 3 3.13 0.17
1 -5 3 3.49 0.18
-2 5 -3 45.22 0.99
-2 5 -3 44.87 1
2 -5 3 45.45 1.02
2 -5 3 45.73 0.96
2 -5 3 46.49 1
-3 5 -3 3.95 0.21
-3 5 -3 4.63 0.22
-3 5 -3 4.17 0.23
3 -5 3 4.78 0.22
3 -5 3 4.48 0.2
3 -5 3 4.03 0.19
3 -5 3 4.54 0.23
-4 5 -3 25.18 0.66
-4 5 -3 24.85 0.69
-4 5 -3 24.95 0.67
4 -5 3 24.46 0.59
4 -5 3 24.9 0.65
4 -5 3 25.32 0.63
4 -5 3 24.02 0.68
-5 5 -3 11.91 0.45
-5 5 -3 11.72 0.44
5 -5 3 11.64 0.41
5 -5 3 11.78 0.4
-6 5 -3 9.55 0.41
-6 5 -3 9.09 0.41
6 -5 3 10.36 0.39
-7 5 -3 8.85 0.42
-7 5 -3 9.14 0.43
7 -5 3 9.23 0.39
-8 5 -3 0.57 0.14
-8 5 -3 0.68 0.17
8 -5 3 0.88 0.16
-9 5 -3 -0.08 0.07
-9 5 -3 0.1 0.11
9 -5 3 0.15 0.1
9 4 -3 0.82 0.09
9 4 -3 0.68 0.17
8 4 -3 24.56 0.55
-8 -4 3 25.69 0.81
7 4 -3 1.64 0.09
7 4 -3 1.67 0.17
-7 -4 3 1.74 0.22
6 4 -3 3.96 0.13
6 4 -3 3.93 0.12
6 4 -3 4.16 0.23
-6 -4 3 4.23 0.26
-6 -4 3 3.74 0.21
5 4 -3 4.02 0.22
5 4 -3 4.04 0.12
5 4 -3 3.87 0.12
-5 -4 3 4.13 0.23
-5 -4 3 4.38 0.2
4 4 -3 9.04 0.21
4 4 -3 9.1 0.21
-4 -4 3 9.05 0.33
-4 -4 3 9.53 0.29
-4 -4 3 8.52 0.33
3 4 -3 55.73 1.06
3 4 -3 56.94 1.12
3 4 -3 55.54 1.05
-3 -4 3 53.84 1.18
-3 -4 3 54.12 1.01
-3 -4 3 56.95 1.2
-3 -4 3 57.88 1.01
2 4 -3 127.02 2.35
2 4 -3 125.25 2.32
2 4 -3 128.31 2.33
-2 -4 3 123.89 2.32
-2 -4 3 124.82 2.32
-2 -4 3 127.41 2.41
-2 -4 3 125.26 2.44
1 4 -3 28.75 0.62
1 4 -3 29.15 0.61
1 4 -3 29.18 0.61
-1 -4 3 29.51 0.63
-1 -4 3 29.88 0.69
-1 -4 3 28.9 0.62
-1 -4 3 30.08 0.65
0 4 -3 16.57 0.42
0 4 -3 17.34 0.41
0 -4 3 17.72 0.46
0 -4 3 17.73 0.42
0 -4 3 17.49 0.43
0 -4 3 17.89 0.43
-1 4 -3 0.34 0.06
-1 4 -3 0.49 0.07
-1 4 -3 0.23 0.06
1 -4 3 0.3 0.06
1 -4 3 0.26 0.06
1 -4 3 0.43 0.06
1 -4 3 0.37 0.06
-2 4 -3 39 0.87
-2 4 -3 38.29 0.84
-2 4 -3 38.09 0.84
2 -4 3 38.51 0.82
2 -4 3 37.49 0.86
2 -4 3 38.93 0.83
2 -4 3 37.78 0.82
-3 4 -3 6.64 0.25
-3 4 -3 6.26 0.25
-3 4 -3 6.36 0.26
3 -4 3 6.08 0.26
3 -4 3 6.22 0.23
3 -4 3 6.04 0.21
-4 4 -3 71.08 1.44
-4 4 -3 69.52 1.47
-4 4 -3 68.1 1.47
4 -4 3 67.56 1.42
4 -4 3 69.69 1.47
4 -4 3 69.06 1.43
4 -4 3 68.74 1.35
-5 4 -3 6.19 0.3
-5 4 -3 6.14 0.29
5 -4 3 6.12 0.27
5 -4 3 6.48 0.27
-6 4 -3 0.79 0.14
-6 4 -3 0.67 0.13
6 -4 3 1.06 0.14
6 -4 3 0.84 0.13
-7 4 -3 8.74 0.42
-7 4 -3 9.13 0.41
7 -4 3 9.91 0.4
7 -4 3 9.34 0.38
-8 4 -3 1.69 0.23
-8 4 -3 1.73 0.21
8 -4 3 1.77 0.19
8 -4 3 1.62 0.2
-9 4 -3 2.19 0.29
-9 4 -3 1.92 0.24
9 -4 3 2.07 0.24
9 -4 3 2.4 0.25
10 3 -3 1.03 0.2
10 3 -3 0.58 0.09
9 3 -3 0.29 0.07
9 3 -3 0.07 0.09
8 3 -3 17.16 0.44
-8 -3 3 17.4 0.63
-8 -3 3 18.07 0.59
7 3 -3 14.09 0.35
-7 -3 3 13.02 0.51
-7 -3 3 14.2 0.47
6 3 -3 21.99 0.58
6 3 -3 21.72 0.47
6 3 -3 21.63 0.47
-6 -3 3 22.77 0.66
-6 -3 3 21.12 0.58
5 3 -3 0.19 0.06
5 3 -3 0.19 0.03
5 3 -3 0.22 0.03
-5 -3 3 0.16 0.07
-5 -3 3 0.11 0.05
4 3 -3 12.53 0.27
4 3 -3 12.33 0.38
4 3 -3 12.94 0.28
-4 -3 3 12.79 0.35
-4 -3 3 12.44 0.4
3 3 -3 8.8 0.2
3 3 -3 8.46 0.19
-3 -3 3 8.9 0.18
-3 -3 3 8.8 0.25
-3 -3 3 8.22 0.29
-3 -3 3 8.68 0.29
-3 -3 3 8.3 0.18
2 3 -3 31.31 0.62
2 3 -3 30.4 0.59
2 3 -3 30.26 0.6
-2 -3 3 31.17 0.6
-2 -3 3 29.88 0.68
-2 -3 3 29.23 0.68
-2 -3 3 30.31 0.6
1 3 -3 29.13 0.62
1 3 -3 31.1 0.62
1 3 -3 31.54 0.61
-1 -3 3 31.47 0.66
-1 -3 3 30.11 0.62
-1 -3 3 31.18 0.63
-1 -3 3 30.69 0.68
0 3 -3 43.97 0.88
0 3 -3 45.98 0.86
0 -3 3 45.06 0.91
0 -3 3 43.38 0.89
0 -3 3 44.14 0.89
0 -3 3 43.46 0.9
-1 3 -3 0.49 0.07
-1 3 -3 0.68 0.07
-1 3 -3 0.55 0.07
1 -3 3 0.47 0.06
1 -3 3 0.73 0.07
1 -3 3 0.6 0.07
1 -3 3 0.55 0.06
-2 3 -3 6.55 0.22
-2 3 -3 6.59 0.24
-2 3 -3 6.49 0.22
2 -3 3 6.7 0.22
2 -3 3 6.61 0.23
2 -3 3 6.57 0.21
2 -3 3 6.78 0.2
-3 3 -3 27.67 0.66
-3 3 -3 27.73 0.63
-3 3 -3 27.3 0.65
3 -3 3 27.66 0.57
3 -3 3 27.38 0.66
3 -3 3 27.19 0.63
3 -3 3 27.12 0.63
-4 3 -3 22.1 0.59
-4 3 -3 22.97 0.56
-4 3 -3 22.61 0.59
4 -3 3 21.58 0.56
4 -3 3 22.94 0.57
4 -3 3 22.78 0.59
4 -3 3 23.76 0.47
-5 3 -3 11.35 0.4
-5 3 -3 10.54 0.38
5 -3 3 11.92 0.37
5 -3 3 11.29 0.38
-6 3 -3 4.09 0.25
-6 3 -3 3.7 0.23
6 -3 3 4.15 0.23
6 -3 3 4 0.22
-7 3 -3 0.31 0.11
-7 3 -3 0.18 0.08
7 -3 3 0.35 0.1
7 -3 3 0.14 0.08
-8 3 -3 0.61 0.15
-8 3 -3 0.71 0.14
8 -3 3 0.6 0.12
8 -3 3 0.5 0.12
-9 3 -3 1.81 0.21
-9 3 -3 2.21 0.27
9 -3 3 2.36 0.26
9 -3 3 2.15 0.22
-10 3 -3 0.4 0.12
-10 3 -3 0.24 0.13
10 -3 3 0.35 0.13
10 -3 3 0.16 0.09
10 2 -3 1.89 0.17
10 2 -3 2.02 0.27
9 2 -3 10.84 0.5
9 2 -3 10.22 0.35
-9 -2 3 11.62 0.48
8 2 -3 0.82 0.16
8 2 -3 0.81 0.1
-8 -2 3 0.77 0.05
-8 -2 3 0.73 0.05
-8 -2 3 0.76 0.14
7 2 -3 1.57 0.11
-7 -2 3 1.58 0.08
-7 -2 3 1.58 0.19
-7 -2 3 1.7 0.08
-7 -2 3 1.6 0.17
6 2 -3 119.03 2.19
6 2 -3 115.63 2.25
-6 -2 3 116.39 2.14
-6 -2 3 112.91 2.37
-6 -2 3 112.32 2.29
-6 -2 3 118.99 2.14
5 2 -3 27.81 0.64
5 2 -3 27.2 0.57
5 2 -3 27.17 0.57
-5 -2 3 26.9 0.55
-5 -2 3 27.07 0.71
-5 -2 3 27.58 0.55
-5 -2 3 27.1 0.65
4 2 -3 246.66 4.5
4 2 -3 244.32 4.56
4 2 -3 245.93 4.49
-4 -2 3 240.71 4.47
-4 -2 3 249.18 4.47
-4 -2 3 245.94 4.62
-4 -2 3 241.05 4.58
3 2 -3 29.57 0.58
3 2 -3 29.46 0.57
3 2 -3 29.74 0.66
-3 -2 3 29.51 0.62
-3 -2 3 29.35 0.68
-3 -2 3 29.19 0.57
-3 -2 3 29.72 0.58
2 2 -3 38.02 0.72
2 2 -3 37.92 0.79
2 2 -3 38.56 0.72
-2 -2 3 37.28 0.74
-2 -2 3 38.46 0.73
-2 -2 3 38 0.8
-2 -2 3 37.98 0.73
1 2 -3 16.04 0.32
1 2 -3 16.63 0.34
1 2 -3 16.16 0.34
-1 -2 3 15.96 0.38
-1 -2 3 15.85 0.35
-1 -2 3 16.35 0.38
-1 -2 3 16.06 0.35
0 2 -3 34.81 0.72
0 2 -3 36 0.71
0 2 -3 36.7 0.68
0 -2 3 35.63 0.72
0 -2 3 36.55 0.72
0 -2 3 35.94 0.71
0 -2 3 34.22 0.72
-1 2 -3 1.43 0.08
-1 2 -3 1.46 0.09
-1 2 -3 1.44 0.07
1 -2 3 1.34 0.07
1 -2 3 1.35 0.07
1 -2 3 1.42 0.09
1 -2 3 1.32 0.08
-2 2 -3 0.23 0.04
-2 2 -3 0.22 0.05
-2 2 -3 0.18 0.04
2 -2 3 0.21 0.04
2 -2 3 0.28 0.05
2 -2 3 0.34 0.05
2 -2 3 0.29 0.04
-3 2 -3 60.67 1.19
-3 2 -3 58.92 1.22
-3 2 -3 59.47 1.22
-3 2 -3 60.01 1.1
3 -2 3 60.87 1.21
3 -2 3 59.9 1.19
3 -2 3 57.14 1.2
-4 2 -3 17.88 0.48
-4 2 -3 18.25 0.49
4 -2 3 18.12 0.48
4 -2 3 17.8 0.45
4 -2 3 17.31 0.47
-5 2 -3 0.46 0.09
-5 2 -3 0.64 0.11
5 -2 3 0.4 0.07
5 -2 3 0.52 0.09
-6 2 -3 15.26 0.51
-6 2 -3 15.37 0.48
6 -2 3 15.59 0.49
6 -2 3 15.41 0.45
-7 2 -3 0.26 0.1
-7 2 -3 0.25 0.09
7 -2 3 0.3 0.08
7 -2 3 0.16 0.08
-8 2 -3 6.64 0.37
-8 2 -3 6.32 0.31
8 -2 3 5.92 0.33
8 -2 3 6.95 0.31
-9 2 -3 0.38 0.14
-9 2 -3 0.91 0.15
9 -2 3 0.78 0.13
9 -2 3 0.91 0.17
-10 2 -3 0.03 0.07
-10 2 -3 0 0.09
10 -2 3 0.14 0.1
10 -2 3 0.05 0.07
10 1 -3 0.02 0.06
10 1 -3 0.13 0.11
-10 -1 3 -0.02 0.04
9 1 -3 1.1 0.13
9 1 -3 1.15 0.2
-9 -1 3 1.1 0.18
-9 -1 3 1.28 0.12
8 1 -3 1.03 0.12
8 1 -3 0.98 0.16
-8 -1 3 0.82 0.14
-8 -1 3 1.03 0.11
7 1 -3 3.86 0.18
-7 -1 3 3.21 0.21
-7 -1 3 4.02 0.26
-7 -1 3 3.41 0.16
6 1 -3 2.22 0.13
6 1 -3 2.38 0.13
-6 -1 3 2.26 0.13
-6 -1 3 2.47 0.13
-6 -1 3 2.37 0.19
-6 -1 3 2.3 0.16
5 1 -3 13.6 0.34
5 1 -3 13.23 0.36
5 1 -3 13.29 0.34
-5 -1 3 13.53 0.35
-5 -1 3 13.78 0.34
-5 -1 3 13.67 0.39
-5 -1 3 13.22 0.43
4 1 -3 30.75 0.67
4 1 -3 30.6 0.63
4 1 -3 31.25 0.63
-4 -1 3 29.77 0.72
-4 -1 3 30.32 0.64
-4 -1 3 30.67 0.68
-4 -1 3 31.04 0.64
3 1 -3 9.12 0.22
3 1 -3 9.03 0.22
3 1 -3 9.11 0.25
-3 -1 3 8.97 0.23
-3 -1 3 9.04 0.24
-3 -1 3 8.99 0.28
-3 -1 3 9.2 0.23
2 1 -3 42.07 0.8
2 1 -3 41.86 0.8
2 1 -3 42.36 0.84
-2 -1 3 42.26 0.8
-2 -1 3 41.13 0.81
-2 -1 3 42.19 0.86
-2 -1 3 42.91 0.82
1 1 -3 13.34 0.31
1 1 -3 13.01 0.29
-1 -1 3 13.86 0.3
-1 -1 3 14.25 0.32
-1 -1 3 13.32 0.3
-1 -1 3 13.52 0.25
0 1 -3 22.24 0.41
0 1 -3 21.56 0.44
0 1 -3 22.32 0.45
0 -1 3 21.84 0.45
0 -1 3 21.46 0.44
0 -1 3 20.9 0.45
-1 1 -3 20.34 0.43
-1 1 -3 20.72 0.41
-1 1 -3 21.61 0.43
1 -1 3 19.42 0.43
1 -1 3 20.2 0.44
1 -1 3 20.33 0.43
-2 1 -3 2.97 0.11
-2 1 -3 2.64 0.12
-2 1 -3 2.84 0.08
-2 1 -3 2.76 0.12
2 -1 3 2.93 0.12
2 -1 3 2.77 0.12
2 -1 3 2.72 0.11
-3 1 -3 29.3 0.65
-3 1 -3 29.59 0.67
3 -1 3 28.67 0.65
3 -1 3 30.45 0.65
3 -1 3 30.09 0.63
-4 1 -3 123.96 2.38
-4 1 -3 125.32 2.38
-4 1 -3 123.87 2.42
4 -1 3 126.03 2.41
4 -1 3 124.16 2.35
-5 1 -3 6.9 0.26
-5 1 -3 7.07 0.29
5 -1 3 7.22 0.25
5 -1 3 7.15 0.28
-6 1 -3 19.28 0.58
-6 1 -3 19.35 0.52
6 -1 3 18.61 0.5
6 -1 3 18.96 0.56
-7 1 -3 1.56 0.15
-7 1 -3 1.42 0.19
7 -1 3 1.54 0.18
7 -1 3 1.43 0.15
-8 1 -3 0.16 0.07
-8 1 -3 0.16 0.1
8 -1 3 0.11 0.07
8 -1 3 0.12 0.08
-9 1 -3 0.5 0.15
-9 1 -3 0.25 0.08
9 -1 3 0.3 0.12
9 -1 3 0.43 0.1
-10 1 -3 0.16 0.12
-10 1 -3 0.02 0.07
10 -1 3 0.04 0.09
10 -1 3 0.06 0.07
10 0 -3 5.18 0.36
10 0 -3 5.18 0.28
-10 0 3 5.88 0.37
-10 0 3 4.75 0.25
9 0 -3 5.74 0.28
9 0 -3 5.48 0.34
-9 0 3 5.25 0.32
-9 0 3 5.34 0.26
8 0 -3 0.11 0.06
8 0 -3 -0.06 0.07
-8 0 3 0.03 0.05
-8 0 3 -0.03 0.06
7 0 -3 16.36 0.56
7 0 -3 17.04 0.47
-7 0 3 16.74 0.47
-7 0 3 17.07 0.53
6 0 -3 21.98 0.52
6 0 -3 22.09 0.55
-6 0 3 21.85 0.6
-6 0 3 21.9 0.63
-6 0 3 23.09 0.56
5 0 -3 1.2 0.09
5 0 -3 1.03 0.09
5 0 -3 1.3 0.09
-5 0 3 1.23 0.12
-5 0 3 1.2 0.14
-5 0 3 1.38 0.1
-5 0 3 1.26 0.1
4 0 -3 32.24 0.69
4 0 -3 33.5 0.69
4 0 -3 31.92 0.69
-4 0 3 33.44 0.71
-4 0 3 32.08 0.72
-4 0 3 32.57 0.7
-4 0 3 31.69 0.75
3 0 -3 87.38 1.65
3 0 -3 86.72 1.65
3 0 -3 89.97 1.66
-3 0 3 88.07 1.67
-3 0 3 85.31 1.7
-3 0 3 89.36 1.68
-3 0 3 87.85 1.67
2 0 -3 15.48 0.34
2 0 -3 15.31 0.35
-2 0 3 15.88 0.36
-2 0 3 15.93 0.34
-2 0 3 15.71 0.37
1 0 -3 158.56 2.89
1 0 -3 153.64 2.89
1 0 -3 149.97 2.84
-1 0 3 150.87 2.81
-1 0 3 161.14 2.89
-1 0 3 145.7 2.86
-1 0 3 149.38 2.82
0 0 -3 23.57 0.48
0 0 -3 24.45 0.47
0 0 -3 23.83 0.49
0 0 -3 23.88 0.49
0 0 3 24.33 0.48
0 0 3 24.38 0.49
0 0 3 24.07 0.48
0 0 3 24.43 0.47
-1 0 -3 2.96 0.11
-1 0 -3 3.12 0.11
-1 0 -3 3.01 0.09
-1 0 -3 3 0.11
-1 0 -3 2.93 0.1
1 0 3 3.19 0.11
1 0 3 2.94 0.1
1 0 3 2.99 0.1
-2 0 -3 134.55 2.52
-2 0 -3 141.28 2.6
-2 0 -3 141.94 2.53
-2 0 -3 133.11 2.55
2 0 3 138.42 2.59
2 0 3 132.15 2.52
2 0 3 138.22 2.58
-3 0 -3 8.69 0.27
-3 0 -3 8.38 0.19
-3 0 -3 8.54 0.24
-3 0 -3 8.73 0.24
3 0 3 8.49 0.26
3 0 3 8.75 0.23
3 0 3 8.12 0.22
-4 0 -3 0.09 0.05
-4 0 -3 0.1 0.04
-4 0 -3 0.14 0.02
-4 0 -3 0.22 0.04
4 0 3 0.18 0.04
4 0 3 0.09 0.04
4 0 3 0.13 0.03
-5 0 -3 15.48 0.4
-5 0 -3 15.36 0.4
-5 0 -3 15.04 0.47
5 0 3 14.96 0.39
5 0 3 14.92 0.45
5 0 3 14.8 0.38
-6 0 -3 18.11 0.47
-6 0 -3 16.12 0.54
6 0 3 17.99 0.46
-7 0 -3 41.35 0.92
-7 0 -3 42.3 1.07
7 0 3 41.55 1.03
7 0 3 40.62 0.92
-8 0 -3 0.93 0.17
-8 0 -3 0.91 0.12
8 0 3 0.85 0.11
8 0 3 0.81 0.14
-9 0 -3 1.89 0.15
-9 0 -3 2.26 0.27
9 0 3 2.19 0.17
9 0 3 1.64 0.22
-10 0 -3 0.19 0.07
-10 0 -3 0 0.09
10 0 3 0.04 0.1
10 0 3 0.11 0.07
10 -1 -3 0.68 0.14
10 -1 -3 0.4 0.14
-10 1 3 0.61 0.12
-10 1 3 0.71 0.17
9 -1 -3 0.12 0.09
9 -1 -3 -0.01 0.06
-9 1 3 0.05 0.09
-9 1 3 0.1 0.07
8 -1 -3 3.57 0.22
8 -1 -3 3.35 0.25
-8 1 3 3.93 0.26
-8 1 3 3.61 0.22
7 -1 -3 1.61 0.18
7 -1 -3 1.61 0.15
-7 1 3 1.54 0.17
-7 1 3 1.59 0.16
6 -1 -3 4.3 0.2
6 -1 -3 4.51 0.17
-6 1 3 4.7 0.23
-6 1 3 4.12 0.21
5 -1 -3 1.4 0.11
5 -1 -3 1.42 0.09
-5 1 3 1.76 0.13
-5 1 3 1.56 0.12
-5 1 3 1.31 0.14
4 -1 -3 48.75 1.03
4 -1 -3 48.73 1
4 -1 -3 49.66 0.98
-4 1 3 48.37 1.04
-4 1 3 48.63 1.02
-4 1 3 48.17 1.02
3 -1 -3 0.02 0.03
3 -1 -3 0.03 0.03
3 -1 -3 0.06 0.03
-3 1 3 0.06 0.03
-3 1 3 0.04 0.03
-3 1 3 0.06 0.03
-3 1 3 0.05 0.03
2 -1 -3 37.65 0.77
2 -1 -3 38.48 0.77
2 -1 -3 38.21 0.79
-2 1 3 38.21 0.77
-2 1 3 38.48 0.77
-2 1 3 37.8 0.79
-2 1 3 39.17 0.77
1 -1 -3 6.46 0.18
1 -1 -3 6.42 0.19
1 -1 -3 6.61 0.19
-1 1 3 6.57 0.19
-1 1 3 6.49 0.16
-1 1 3 6.61 0.17
-1 1 3 6.3 0.18
0 -1 -3 7.21 0.18
0 -1 -3 7.04 0.2
0 -1 -3 7.75 0.2
0 1 3 7.53 0.16
0 1 3 7.47 0.19
0 1 3 7.58 0.19
0 1 3 7.22 0.19
-1 -1 -3 10.36 0.26
-1 -1 -3 10 0.24
-1 -1 -3 10.37 0.25
-1 -1 -3 10.14 0.24
1 1 3 10.35 0.23
1 1 3 9.87 0.23
1 1 3 10.21 0.23
-2 -1 -3 67.04 1.29
-2 -1 -3 68.9 1.34
-2 -1 -3 66.16 1.28
-2 -1 -3 68.68 1.27
2 1 3 67.73 1.26
2 1 3 69.08 1.3
2 1 3 67.54 1.26
-3 -1 -3 53.24 1.04
-3 -1 -3 54.42 1.12
-3 -1 -3 53.6 1.04
-3 -1 -3 53.95 1.03
3 1 3 54.25 1.02
3 1 3 54.22 1.02
3 1 3 52.47 1.08
-4 -1 -3 6.74 0.2
-4 -1 -3 6.79 0.2
-4 -1 -3 6.83 0.19
-4 -1 -3 6.61 0.26
4 1 3 6.73 0.24
4 1 3 6.69 0.19
4 1 3 6.73 0.19
-5 -1 -3 18.39 0.43
-5 -1 -3 17.86 0.53
-5 -1 -3 18.04 0.4
-5 -1 -3 18.45 0.43
5 1 3 18.24 0.51
5 1 3 18.61 0.43
5 1 3 17.98 0.42
-6 -1 -3 6.08 0.3
-6 -1 -3 6.23 0.21
-6 -1 -3 6.12 0.21
6 1 3 5.99 0.21
6 1 3 5.97 0.28
-7 -1 -3 2.15 0.22
-7 -1 -3 2.06 0.12
7 1 3 2.18 0.18
7 1 3 2.39 0.14
-8 -1 -3 5.1 0.31
-8 -1 -3 5.2 0.2
8 1 3 5.04 0.22
8 1 3 4.8 0.29
-9 -1 -3 0.68 0.08
-9 -1 -3 0.7 0.16
9 1 3 0.82 0.12
9 1 3 0.72 0.16
-10 -1 -3 0.35 0.14
-10 -1 -3 0.69 0.07
10 1 3 0.65 0.11
10 1 3 0.59 0.16
10 -2 -3 8.59 0.46
10 -2 -3 9.85 0.43
-10 2 3 9.67 0.43
-10 2 3 10.01 0.49
9 -2 -3 1.69 0.22
9 -2 -3 1.78 0.2
-9 2 3 1.97 0.22
-9 2 3 2.08 0.25
8 -2 -3 4.16 0.25
8 -2 -3 4.13 0.27
-8 2 3 4.16 0.27
-8 2 3 3.85 0.25
7 -2 -3 14.84 0.46
7 -2 -3 14.19 0.49
-7 2 3 14.01 0.47
-7 2 3 13.52 0.49
6 -2 -3 0.37 0.09
6 -2 -3 0.2 0.07
-6 2 3 0.24 0.07
-6 2 3 0.35 0.08
5 -2 -3 9.53 0.34
5 -2 -3 9.8 0.28
5 -2 -3 10.23 0.33
-5 2 3 10.24 0.35
-5 2 3 9.92 0.35
4 -2 -3 0.03 0.03
4 -2 -3 -0.03 0.04
4 -2 -3 0 0.04
4 -2 -3 -0.03 0.03
-4 2 3 0.03 0.04
-4 2 3 0.01 0.03
-4 2 3 -0.04 0.03
3 -2 -3 0.97 0.09
3 -2 -3 0.89 0.09
3 -2 -3 0.98 0.1
3 -2 -3 1.18 0.12
-3 2 3 0.98 0.09
-3 2 3 0.86 0.09
-3 2 3 0.59 0.08
2 -2 -3 9.28 0.28
2 -2 -3 9.15 0.26
2 -2 -3 9.77 0.27
2 -2 -3 9.14 0.24
-2 2 3 9.12 0.27
-2 2 3 9.15 0.26
1 -2 -3 38.26 0.79
1 -2 -3 38.13 0.71
1 -2 -3 36.21 0.75
1 -2 -3 37.39 0.78
-1 2 3 39.08 0.78
-1 2 3 36.54 0.76
-1 2 3 36.64 0.76
0 -2 -3 63.37 1.24
0 -2 -3 61.83 1.22
0 2 3 62.93 1.2
0 2 3 64.44 1.22
-1 -2 -3 113.56 2.22
-1 -2 -3 119.02 2.18
-1 -2 -3 117.81 2.23
-1 -2 -3 116.42 2.21
1 2 3 119.14 2.23
1 2 3 124.62 2.19
1 2 3 117.29 2.19
1 2 3 119.76 2.17
-2 -2 -3 10.28 0.24
-2 -2 -3 10.12 0.3
-2 -2 -3 10.59 0.29
-2 -2 -3 10.47 0.25
2 2 3 10.42 0.23
2 2 3 11.07 0.27
2 2 3 10.49 0.24
-3 -2 -3 41.46 0.84
-3 -2 -3 39.93 0.89
-3 -2 -3 40.69 0.77
-3 -2 -3 40.05 0.78
3 2 3 39.82 0.77
3 2 3 40.45 0.85
3 2 3 40.29 0.77
-4 -2 -3 0.34 0.04
-4 -2 -3 0.33 0.08
-4 -2 -3 0.35 0.06
-4 -2 -3 0.42 0.04
4 2 3 0.41 0.04
4 2 3 0.35 0.07
4 2 3 0.39 0.04
-5 -2 -3 0.2 0.05
-5 -2 -3 0.24 0.08
-5 -2 -3 0.16 0.03
-5 -2 -3 0.17 0.03
5 2 3 0.16 0.03
5 2 3 0.2 0.04
5 2 3 0.13 0.06
-6 -2 -3 16.27 0.35
-6 -2 -3 16.15 0.35
-6 -2 -3 16.91 0.54
6 2 3 16.24 0.39
6 2 3 16.48 0.51
-7 -2 -3 2.1 0.07
-7 -2 -3 2.1 0.22
-7 -2 -3 2.32 0.07
7 2 3 2.31 0.22
7 2 3 2.17 0.12
-8 -2 -3 8.09 0.4
8 2 3 7.86 0.28
8 2 3 8.68 0.4
-9 -2 -3 3.31 0.33
9 2 3 3.11 0.3
9 2 3 3.22 0.18
-10 -2 -3 4.47 0.35
10 2 3 4.01 0.31
10 2 3 4.4 0.23
10 -3 -3 -0.05 0.09
10 -3 -3 -0.07 0.07
-10 3 3 0.01 0.09
-10 3 3 0.01 0.07
9 -3 -3 0.44 0.12
9 -3 -3 0.12 0.09
-9 3 3 0.38 0.13
-9 3 3 0.5 0.13
8 -3 -3 3.89 0.25
8 -3 -3 4.01 0.27
-8 3 3 3.97 0.27
-8 3 3 4.14 0.29
7 -3 -3 0.81 0.13
7 -3 -3 0.68 0.12
-7 3 3 0.63 0.13
-7 3 3 0.95 0.15
6 -3 -3 2.53 0.18
6 -3 -3 2.76 0.19
-6 3 3 2.67 0.19
-6 3 3 2.53 0.19
5 -3 -3 1.16 0.13
5 -3 -3 1.05 0.11
5 -3 -3 1.27 0.13
-5 3 3 0.99 0.13
-5 3 3 1.08 0.14
4 -3 -3 3.47 0.18
4 -3 -3 3.8 0.2
4 -3 -3 3.74 0.17
4 -3 -3 3.5 0.16
-4 3 3 3.71 0.2
-4 3 3 3.68 0.19
-4 3 3 3.82 0.18
3 -3 -3 28.34 0.66
3 -3 -3 28.72 0.7
3 -3 -3 27.98 0.65
3 -3 -3 29.22 0.62
-3 3 3 27.85 0.66
-3 3 3 29.33 0.69
-3 3 3 28.21 0.66
2 -3 -3 131.35 2.44
2 -3 -3 126.85 2.45
2 -3 -3 126.24 2.47
2 -3 -3 128.89 2.37
-2 3 3 131.72 2.45
-2 3 3 128.13 2.44
-2 3 3 129.53 2.47
1 -3 -3 22.26 0.42
1 -3 -3 21.93 0.53
1 -3 -3 21.95 0.53
1 -3 -3 22.67 0.5
-1 3 3 22.57 0.52
-1 3 3 20.86 0.5
-1 3 3 21.17 0.51
0 -3 -3 -0.06 0.02
0 -3 -3 -0.06 0.03
0 -3 -3 -0.05 0.03
0 3 3 0.08 0.04
0 3 3 -0.04 0.03
-1 -3 -3 4.3 0.14
-1 -3 -3 3.82 0.14
-1 -3 -3 4.2 0.18
1 3 3 4.01 0.11
1 3 3 4.14 0.14
1 3 3 4.1 0.14
1 3 3 3.91 0.17
-2 -3 -3 5.5 0.22
-2 -3 -3 5.42 0.21
-2 -3 -3 5.44 0.16
-2 -3 -3 5.53 0.16
2 3 3 5.89 0.16
2 3 3 5.93 0.17
2 3 3 5.86 0.16
-3 -3 -3 45.16 0.82
-3 -3 -3 43.65 0.82
-3 -3 -3 43.34 0.97
-3 -3 -3 44.04 0.95
3 3 3 43.22 0.84
3 3 3 44.33 0.91
3 3 3 43.7 0.84
-4 -3 -3 7.07 0.29
-4 -3 -3 7.6 0.26
4 3 3 6.92 0.18
4 3 3 7 0.25
4 3 3 7.06 0.18
-5 -3 -3 0.74 0.1
-5 -3 -3 0.82 0.13
5 3 3 0.73 0.05
5 3 3 0.6 0.1
5 3 3 0.73 0.05
-6 -3 -3 13.73 0.49
6 3 3 13.97 0.46
6 3 3 14 0.33
-7 -3 -3 0.27 0.1
7 3 3 0.28 0.05
7 3 3 0.46 0.11
-8 -3 -3 0.73 0.16
8 3 3 1.17 0.11
8 3 3 1 0.16
-9 -3 -3 0.05 0.11
9 3 3 0.04 0.09
9 3 3 0.16 0.05
10 -4 -3 0.02 0.1
10 -4 -3 0.09 0.1
-10 4 3 -0.01 0.09
9 -4 -3 2.65 0.26
9 -4 -3 2.29 0.25
-9 4 3 3.05 0.31
-9 4 3 3.07 0.3
8 -4 -3 2.64 0.24
8 -4 -3 2.7 0.22
-8 4 3 2.58 0.26
-8 4 3 2.92 0.28
7 -4 -3 0.84 0.14
7 -4 -3 0.99 0.15
-7 4 3 0.96 0.17
-7 4 3 0.72 0.13
6 -4 -3 2.77 0.2
6 -4 -3 2.98 0.19
-6 4 3 2.77 0.22
-6 4 3 3.17 0.22
5 -4 -3 3.75 0.19
5 -4 -3 3.79 0.21
5 -4 -3 3.8 0.18
-5 4 3 3.39 0.21
-5 4 3 3.61 0.23
4 -4 -3 12.24 0.35
4 -4 -3 12.4 0.42
4 -4 -3 11.88 0.37
4 -4 -3 12.43 0.39
-4 4 3 12.01 0.39
-4 4 3 12.11 0.4
-4 4 3 11.74 0.41
3 -4 -3 27.43 0.7
3 -4 -3 28.37 0.67
3 -4 -3 27.7 0.6
3 -4 -3 27.36 0.66
-3 4 3 28 0.7
-3 4 3 26.42 0.67
-3 4 3 27.38 0.67
2 -4 -3 48.92 1
2 -4 -3 46.25 0.9
2 -4 -3 46.46 1.02
2 -4 -3 45.72 1.03
-2 4 3 47.69 1.03
-2 4 3 46.32 1.01
-2 4 3 47.3 1.01
1 -4 -3 5.78 0.23
1 -4 -3 5.89 0.13
1 -4 -3 5.78 0.24
1 -4 -3 5.68 0.2
-1 4 3 5.38 0.21
-1 4 3 5.55 0.21
-1 4 3 6.03 0.23
0 -4 -3 0.27 0.06
0 -4 -3 0.28 0.06
0 -4 -3 0.33 0.06
0 4 3 0.33 0.06
0 4 3 0.29 0.06
0 4 3 0.22 0.05
-1 -4 -3 8.07 0.29
-1 -4 -3 7.73 0.23
-1 -4 -3 7.61 0.24
1 4 3 7.97 0.23
1 4 3 7.95 0.27
1 4 3 7.71 0.23
1 4 3 7.97 0.18
-2 -4 -3 10.51 0.27
-2 -4 -3 10.94 0.27
-2 -4 -3 10.86 0.36
2 4 3 10.65 0.27
2 4 3 11.06 0.27
2 4 3 10.3 0.27
2 4 3 10.28 0.33
-3 -4 -3 3.78 0.1
-3 -4 -3 3.52 0.19
-3 -4 -3 3.61 0.1
-3 -4 -3 3.3 0.19
3 4 3 3.67 0.12
3 4 3 3.59 0.12
3 4 3 3.91 0.16
3 4 3 3.72 0.2
-4 -4 -3 18.06 0.53
-4 -4 -3 18.15 0.51
4 4 3 18.37 0.39
4 4 3 17.83 0.38
4 4 3 17.31 0.47
-5 -4 -3 5.01 0.24
-5 -4 -3 5.54 0.28
5 4 3 5.36 0.15
5 4 3 5.06 0.15
5 4 3 5.1 0.24
-6 -4 -3 4.47 0.27
6 4 3 4.83 0.15
6 4 3 5.52 0.27
-7 -4 -3 6.16 0.34
7 4 3 6.24 0.19
7 4 3 6.26 0.31
-8 -4 -3 6.47 0.37
8 4 3 6.14 0.34
8 4 3 6.15 0.2
-9 -4 -3 3.41 0.34
9 4 3 2.74 0.14
9 4 3 2.99 0.29
9 -5 -3 0.15 0.1
-9 5 3 0.09 0.1
-9 5 3 -0.01 0.09
8 -5 -3 5.87 0.32
-8 5 3 5.45 0.35
-8 5 3 5.58 0.35
7 -5 -3 5.24 0.28
-7 5 3 5.37 0.32
-7 5 3 5.26 0.33
6 -5 -3 0.07 0.06
-6 5 3 0.25 0.09
-6 5 3 0.32 0.1
5 -5 -3 2.36 0.15
5 -5 -3 2.41 0.17
-5 5 3 2.3 0.19
-5 5 3 2.52 0.2
4 -5 -3 0.21 0.07
4 -5 -3 0.17 0.07
4 -5 -3 0.22 0.05
-4 5 3 0.05 0.07
-4 5 3 0.05 0.05
-4 5 3 0.11 0.07
3 -5 -3 8.35 0.32
3 -5 -3 8.72 0.25
3 -5 -3 8.89 0.35
-3 5 3 8.74 0.33
-3 5 3 8.87 0.35
-3 5 3 9.17 0.34
2 -5 -3 0.13 0.06
2 -5 -3 0.11 0.06
-2 5 3 0.24 0.07
-2 5 3 0.16 0.05
1 -5 -3 60.89 1.34
1 -5 -3 62.06 1.32
-1 5 3 62.33 1.29
-1 5 3 63.25 1.31
0 -5 -3 30.07 0.71
0 -5 -3 29.81 0.76
0 5 3 30.8 0.73
0 5 3 30.76 0.7
-1 -5 -3 0.62 0.1
-1 -5 -3 0.6 0.08
-1 -5 -3 0.48 0.07
1 5 3 0.74 0.1
1 5 3 0.63 0.08
-2 -5 -3 9.03 0.25
-2 -5 -3 8.5 0.34
-2 -5 -3 8.98 0.24
2 5 3 8.89 0.32
2 5 3 8.49 0.25
2 5 3 8.31 0.25
-3 -5 -3 9.83 0.37
-3 -5 -3 10.07 0.22
-3 -5 -3 9.95 0.22
3 5 3 9.97 0.27
3 5 3 9.91 0.36
3 5 3 9.84 0.29
3 5 3 9.87 0.27
-4 -5 -3 0.37 0.09
4 5 3 0.34 0.07
4 5 3 0.39 0.05
4 5 3 0.32 0.05
4 5 3 0.41 0.1
-5 -5 -3 0.3 0.08
-5 -5 -3 0.25 0.09
5 5 3 0.26 0.04
5 5 3 0.16 0.07
-6 -5 -3 1.37 0.17
-6 -5 -3 1.26 0.18
6 5 3 1.11 0.07
-7 -5 -3 0.77 0.15
-8 -5 -3 -0.01 0.07
8 5 3 -0.03 0.02
-8 6 3 3.74 0.35
-7 6 3 0.02 0.09
-6 6 3 17.48 0.61
5 -6 -3 11.68 0.41
-5 6 3 10.45 0.44
4 -6 -3 0.65 0.11
4 -6 -3 0.51 0.11
-4 6 3 0.83 0.14
-4 6 3 0.87 0.13
3 -6 -3 1.59 0.17
3 -6 -3 1.64 0.18
-3 6 3 1.69 0.16
-3 6 3 1.64 0.17
2 -6 -3 6.37 0.3
2 -6 -3 5.92 0.29
-2 6 3 6.43 0.28
-2 6 3 6.06 0.27
1 -6 -3 -0.06 0.04
1 -6 -3 -0.01 0.04
-1 6 3 0.03 0.05
-1 6 3 -0.02 0.04
0 -6 -3 0.19 0.06
0 -6 -3 0.19 0.08
0 6 3 0.48 0.1
0 6 3 0.25 0.07
-1 -6 -3 1.4 0.11
-1 -6 -3 1.59 0.18
1 6 3 1.39 0.15
1 6 3 1.51 0.12
-2 -6 -3 0.25 0.09
-2 -6 -3 0.3 0.06
2 6 3 0.29 0.06
2 6 3 0.37 0.09
-3 -6 -3 5.64 0.3
-3 -6 -3 5.91 0.15
-3 -6 -3 6.07 0.15
3 6 3 5.65 0.21
3 6 3 5.92 0.28
-4 -6 -3 5.45 0.3
4 6 3 4.7 0.26
4 6 3 5.54 0.19
-5 -6 -3 -0.04 0.05
5 6 3 -0.03 0.06
5 6 3 -0.04 0.03
-6 -6 -3 5.74 0.32
6 6 3 6.04 0.32
6 6 3 5.94 0.17
7 6 3 -0.08 0.07
7 6 3 0.04 0.02
-8 -6 -3 5.02 0.35
8 6 3 5.3 0.35
-8 7 3 0.45 0.15
-7 7 3 3.39 0.33
-6 7 3 1.27 0.2
5 -7 -3 0.86 0.15
-5 7 3 1.06 0.17
4 -7 -3 0.27 0.09
4 -7 -3 0.37 0.11
-4 7 3 0.35 0.11
3 -7 -3 1.93 0.22
3 -7 -3 2.41 0.23
-3 7 3 2.27 0.21
-3 7 3 2.36 0.23
2 -7 -3 4.04 0.26
2 -7 -3 4.22 0.26
-2 7 3 4.27 0.25
-2 7 3 4.15 0.25
1 -7 -3 13.29 0.49
1 -7 -3 13.4 0.46
-1 7 3 13.38 0.44
-1 7 3 12.94 0.46
0 -7 -3 3.79 0.21
0 -7 -3 3.89 0.26
0 7 3 3.83 0.21
0 7 3 3.8 0.22
-1 -7 -3 7.89 0.29
-1 -7 -3 8.63 0.39
1 7 3 7.68 0.33
1 7 3 8.01 0.3
-2 -7 -3 9.86 0.43
-2 -7 -3 9.66 0.3
2 7 3 9.5 0.38
2 7 3 9.53 0.32
-3 -7 -3 0.2 0.09
-3 -7 -3 0.27 0.03
-3 -7 -3 0.28 0.03
3 7 3 0.29 0.06
3 7 3 0.31 0.09
-4 -7 -3 0.7 0.14
4 7 3 0.57 0.12
4 7 3 0.64 0.08
-5 -7 -3 0.35 0.11
5 7 3 0.44 0.12
5 7 3 0.51 0.07
-6 -7 -3 5.06 0.32
6 7 3 5.53 0.18
6 7 3 5.27 0.32
7 7 3 0.94 0.18
7 7 3 1.47 0.06
-7 8 3 1.48 0.23
-6 8 3 1.01 0.19
-5 8 3 0.91 0.18
4 -8 -3 0.56 0.15
4 -8 -3 0.47 0.13
-4 8 3 0.49 0.14
3 -8 -3 0.43 0.12
3 -8 -3 0.66 0.15
-3 8 3 0.54 0.14
-3 8 3 0.59 0.14
2 -8 -3 0.57 0.14
2 -8 -3 0.8 0.15
-2 8 3 0.8 0.14
-2 8 3 0.84 0.14
1 -8 -3 0.3 0.1
1 -8 -3 0.49 0.13
-1 8 3 0.56 0.12
-1 8 3 0.47 0.11
0 -8 -3 7.08 0.38
0 -8 -3 6.84 0.32
0 8 3 7.4 0.35
0 8 3 7.66 0.33
-1 -8 -3 0.03 0.05
-1 -8 -3 -0.02 0.08
1 8 3 0.08 0.06
1 8 3 0.12 0.08
-2 -8 -3 4.7 0.2
-2 -8 -3 4.37 0.31
2 8 3 4.81 0.24
2 8 3 4.98 0.28
-3 -8 -3 0.46 0.14
3 8 3 0.41 0.11
3 8 3 0.59 0.1
-4 -8 -3 1.1 0.19
4 8 3 0.89 0.15
4 8 3 1.07 0.12
-5 -8 -3 0.19 0.1
5 8 3 0.12 0.1
5 8 3 0.38 0.07
-6 -8 -3 0.17 0.11
6 8 3 0.3 0.05
6 8 3 0.08 0.09
-5 9 3 0.04 0.09
4 -9 -3 -0.02 0.08
4 -9 -3 0.09 0.1
-4 9 3 0 0.1
3 -9 -3 9.15 0.45
3 -9 -3 9.2 0.45
-3 9 3 8.29 0.42
-3 9 3 9.63 0.43
2 -9 -3 7.98 0.4
2 -9 -3 7.59 0.42
-2 9 3 8.27 0.4
-2 9 3 8.39 0.4
1 -9 -3 0.01 0.06
1 -9 -3 -0.11 0.08
-1 9 3 -0.1 0.06
-1 9 3 -0.1 0.06
0 -9 -3 0 0.09
0 -9 -3 -0.05 0.05
0 9 3 0.02 0.07
0 9 3 0 0.06
-1 -9 -3 -0.06 0.05
-1 -9 -3 0.04 0.09
1 9 3 -0.13 0.06
1 9 3 -0.06 0.06
-2 -9 -3 1.37 0.13
-2 -9 -3 1.53 0.23
2 9 3 1.52 0.19
2 9 3 1.28 0.16
-3 -9 -3 0.15 0.12
3 9 3 0.25 0.08
3 9 3 0.15 0.09
-4 -9 -3 4.82 0.34
4 9 3 4.3 0.22
4 9 3 4.62 0.3
3 -10 -3 0.67 0.18
3 -10 -3 0.41 0.14
-3 10 3 0.81 0.18
2 -10 -3 0.17 0.11
2 -10 -3 0.05 0.1
-2 10 3 -0.06 0.08
-2 10 3 0.19 0.1
1 -10 -3 2.38 0.25
1 -10 -3 2.38 0.3
-1 10 3 2.36 0.25
-1 10 3 2.12 0.26
0 -10 -3 5.29 0.29
0 -10 -3 5.45 0.39
0 10 3 5 0.33
0 10 3 4.89 0.31
-1 -10 -3 5.12 0.26
-1 -10 -3 4.96 0.36
1 10 3 5.14 0.3
1 10 3 4.71 0.32
-2 -10 -3 0.02 0.04
-2 -10 -3 -0.03 0.09
3 10 -4 0.21 0.08
-3 -10 4 0.16 0.12
2 10 -4 2.86 0.21
-2 -10 4 2.08 0.28
-2 -10 4 2.99 0.17
1 10 -4 2.2 0.21
-1 -10 4 2.47 0.29
-1 -10 4 2.37 0.18
0 10 -4 6.69 0.34
0 -10 4 6.38 0.32
0 -10 4 6.66 0.41
-1 10 -4 0.96 0.16
1 -10 4 1.25 0.18
1 -10 4 1 0.18
-2 10 -4 1.76 0.22
2 -10 4 2.44 0.26
2 -10 4 1.69 0.23
-3 10 -4 3.01 0.29
3 -10 4 2.5 0.28
3 -10 4 2.3 0.26
-4 10 -4 0.11 0.1
4 -10 4 0.27 0.12
5 9 -4 1.67 0.13
5 9 -4 1.73 0.26
-5 -9 4 1.52 0.24
4 9 -4 0.48 0.09
-4 -9 4 0.39 0.14
3 9 -4 0.58 0.1
-3 -9 4 0.6 0.04
-3 -9 4 0.63 0.16
2 9 -4 2.57 0.19
-2 -9 4 2.75 0.29
-2 -9 4 2.8 0.16
1 9 -4 1.18 0.15
-1 -9 4 1.33 0.21
-1 -9 4 1.6 0.16
0 9 -4 0.84 0.14
0 -9 4 0.75 0.15
0 -9 4 0.83 0.13
-1 9 -4 1.14 0.16
-1 9 -4 1.3 0.17
1 -9 4 0.9 0.17
1 -9 4 1.03 0.16
-2 9 -4 0.03 0.07
-2 9 -4 -0.03 0.07
2 -9 4 -0.03 0.06
2 -9 4 0.02 0.07
-3 9 -4 0.88 0.16
-3 9 -4 0.84 0.16
3 -9 4 0.93 0.16
3 -9 4 0.65 0.15
-4 9 -4 1.07 0.18
4 -9 4 1.11 0.18
-5 9 -4 1.98 0.25
-6 9 -4 0.05 0.1
6 8 -4 5.84 0.19
6 8 -4 5.75 0.37
5 8 -4 0.12 0.05
5 8 -4 0.09 0.1
-5 -8 4 0.11 0.09
4 8 -4 0.05 0.05
-4 -8 4 -0.09 0.07
3 8 -4 0.64 0.09
-3 -8 4 0.76 0.16
-3 -8 4 0.67 0.06
2 8 -4 2.02 0.15
-2 -8 4 1.68 0.13
-2 -8 4 1.8 0.22
1 8 -4 9.88 0.35
1 8 -4 9.53 0.36
-1 -8 4 10.71 0.36
-1 -8 4 10.66 0.45
0 8 -4 10.72 0.39
0 8 -4 10.78 0.38
0 -8 4 10.21 0.38
0 -8 4 10.69 0.44
-1 8 -4 2.02 0.2
-1 8 -4 1.6 0.17
1 -8 4 1.88 0.21
1 -8 4 2.32 0.19
-2 8 -4 2.27 0.21
-2 8 -4 2.22 0.21
2 -8 4 1.72 0.2
2 -8 4 1.89 0.21
-3 8 -4 3.72 0.25
-3 8 -4 4.1 0.27
3 -8 4 3.65 0.26
3 -8 4 3.84 0.25
-4 8 -4 4.99 0.3
4 -8 4 4.87 0.32
-5 8 -4 2.05 0.24
-6 8 -4 5.17 0.34
-7 8 -4 2.46 0.3
7 7 -4 2.1 0.08
7 7 -4 1.67 0.23
6 7 -4 3.19 0.26
6 7 -4 3.73 0.14
5 7 -4 1.24 0.19
5 7 -4 1.58 0.1
-5 -7 4 1.38 0.18
-5 -7 4 1.64 0.21
4 7 -4 0.7 0.08
-4 -7 4 1.02 0.17
-4 -7 4 0.96 0.15
3 7 -4 0.12 0.05
-3 -7 4 0.06 0.03
-3 -7 4 0.06 0.08
-3 -7 4 0.03 0.03
-3 -7 4 0.15 0.07
2 7 -4 4.59 0.21
2 7 -4 4.55 0.21
-2 -7 4 4.63 0.23
-2 -7 4 4.7 0.28
-2 -7 4 4.72 0.19
1 7 -4 7.94 0.29
1 7 -4 8.55 0.31
-1 -7 4 8.18 0.29
-1 -7 4 8.59 0.37
-1 -7 4 8.39 0.31
0 7 -4 32.26 0.78
0 7 -4 31.82 0.75
0 -7 4 30.87 0.75
0 -7 4 31.41 0.77
0 -7 4 31.22 0.83
-1 7 -4 27.69 0.71
-1 7 -4 27.39 0.69
1 -7 4 26.87 0.71
1 -7 4 26.92 0.67
1 -7 4 25.9 0.73
-2 7 -4 0.22 0.08
-2 7 -4 0.28 0.08
2 -7 4 0.33 0.08
2 -7 4 0.29 0.09
2 -7 4 0.2 0.08
-3 7 -4 -0.04 0.05
-3 7 -4 -0.07 0.04
3 -7 4 -0.04 0.05
3 -7 4 0.02 0.06
3 -7 4 -0.03 0.05
-4 7 -4 0.21 0.08
4 -7 4 0.08 0.06
4 -7 4 0.17 0.07
4 -7 4 0.11 0.08
-5 7 -4 13.26 0.52
5 -7 4 14 0.47
-6 7 -4 6.56 0.37
6 -7 4 6.86 0.33
-7 7 -4 0 0.1
7 -7 4 0.33 0.11
-8 7 -4 0.21 0.13
8 -7 4 0.13 0.1
8 6 -4 0.01 0.02
-8 -6 4 -0.09 0.07
7 6 -4 8.46 0.22
7 6 -4 8.79 0.41
-7 -6 4 9 0.43
6 6 -4 0.06 0.07
6 6 -4 0.18 0.04
-6 -6 4 0.13 0.09
5 6 -4 0.01 0.02
5 6 -4 -0.01 0.07
-5 -6 4 0.03 0.06
4 6 -4 25.37 0.56
-4 -6 4 25.19 0.73
-4 -6 4 25.02 0.7
3 6 -4 24.41 0.58
3 6 -4 24.25 0.55
-3 -6 4 24.8 0.5
-3 -6 4 24.38 0.65
-3 -6 4 24.56 0.7
-3 -6 4 23.49 0.5
2 6 -4 14.13 0.38
2 6 -4 13.58 0.37
-2 -6 4 13.42 0.47
-2 -6 4 13.76 0.42
-2 -6 4 13.38 0.35
1 6 -4 2.65 0.14
1 6 -4 2.78 0.15
-1 -6 4 2.24 0.14
-1 -6 4 2.83 0.2
-1 -6 4 3 0.17
0 6 -4 24.06 0.59
0 6 -4 23.59 0.6
0 -6 4 25.44 0.67
0 -6 4 24.69 0.62
0 -6 4 24.38 0.6
-1 6 -4 1.32 0.13
-1 6 -4 1.66 0.16
1 -6 4 1.53 0.16
1 -6 4 1.3 0.14
1 -6 4 1.44 0.13
-2 6 -4 13.59 0.42
-2 6 -4 13.48 0.43
2 -6 4 14.09 0.41
2 -6 4 12.68 0.44
2 -6 4 13.16 0.43
-3 6 -4 9.69 0.37
-3 6 -4 10.32 0.37
3 -6 4 9.88 0.39
3 -6 4 10.28 0.35
3 -6 4 10.15 0.35
-4 6 -4 7.04 0.31
-4 6 -4 6.54 0.31
4 -6 4 6.34 0.32
4 -6 4 6.29 0.28
4 -6 4 6.85 0.27
-5 6 -4 11.02 0.45
5 -6 4 11.27 0.41
-6 6 -4 0.43 0.12
6 -6 4 0.27 0.09
-7 6 -4 1.38 0.21
7 -6 4 1.13 0.17
-8 6 -4 0.91 0.18
8 -6 4 1.06 0.18
9 5 -4 1.02 0.09
9 5 -4 0.7 0.17
-9 -5 4 0.77 0.18
8 5 -4 1.39 0.09
-8 -5 4 1.48 0.21
7 5 -4 0.24 0.04
7 5 -4 0.18 0.09
-7 -5 4 0.25 0.1
6 5 -4 0.07 0.07
6 5 -4 0.03 0.03
-6 -5 4 -0.03 0.06
5 5 -4 17.52 0.5
5 5 -4 17.74 0.39
5 5 -4 18.56 0.57
5 5 -4 17.69 0.39
-5 -5 4 18.17 0.58
4 5 -4 8.18 0.22
4 5 -4 8.28 0.22
4 5 -4 8.67 0.27
-4 -5 4 8.24 0.34
-4 -5 4 8.03 0.34
3 5 -4 7.69 0.24
3 5 -4 7.11 0.21
3 5 -4 7.4 0.21
-3 -5 4 7.13 0.29
-3 -5 4 6.57 0.29
-3 -5 4 7.37 0.19
-3 -5 4 7.09 0.18
2 5 -4 0.14 0.04
2 5 -4 0.1 0.03
2 5 -4 0.1 0.03
-2 -5 4 0.09 0.03
-2 -5 4 0.08 0.05
-2 -5 4 0.09 0.06
-2 -5 4 0.12 0.04
1 5 -4 0.11 0.04
1 5 -4 0.11 0.04
1 5 -4 0.16 0.04
-1 -5 4 0.13 0.04
-1 -5 4 0.06 0.04
-1 -5 4 0.19 0.07
-1 -5 4 0.07 0.04
0 5 -4 14.71 0.39
0 5 -4 14.1 0.37
0 -5 4 14.74 0.4
0 -5 4 14.08 0.4
0 -5 4 14.13 0.43
-1 5 -4 3.69 0.19
-1 5 -4 3.33 0.16
-1 5 -4 3.59 0.18
1 -5 4 3.39 0.18
1 -5 4 3.32 0.18
1 -5 4 3.43 0.17
-2 5 -4 48.11 1.08
-2 5 -4 48.41 1.05
-2 5 -4 48.71 1.04
2 -5 4 46.23 1.02
2 -5 4 47.61 1.03
2 -5 4 47.68 1.07
-3 5 -4 8 0.3
-3 5 -4 8.28 0.31
-3 5 -4 8.25 0.33
3 -5 4 7.71 0.32
3 -5 4 8.2 0.28
3 -5 4 8.27 0.29
-4 5 -4 2.09 0.21
-4 5 -4 1.65 0.15
-4 5 -4 1.67 0.17
4 -5 4 1.95 0.15
4 -5 4 1.67 0.12
4 -5 4 1.81 0.18
4 -5 4 1.71 0.14
-5 5 -4 2.67 0.25
-5 5 -4 2.39 0.19
5 -5 4 2.43 0.17
5 -5 4 1.84 0.18
-6 5 -4 0 0.07
-6 5 -4 0.09 0.08
6 -5 4 0.1 0.07
-7 5 -4 0.05 0.08
-7 5 -4 0.09 0.08
7 -5 4 0.07 0.07
-8 5 -4 -0.03 0.07
-8 5 -4 0.1 0.09
8 -5 4 0.05 0.08
-9 5 -4 0.04 0.1
-9 5 -4 0.05 0.09
9 -5 4 0 0.08
9 4 -4 4.23 0.33
9 4 -4 4.23 0.18
-9 -4 4 3.98 0.32
8 4 -4 2.78 0.14
-8 -4 4 3.19 0.31
7 4 -4 8.47 0.24
7 4 -4 7.66 0.33
-7 -4 4 8.29 0.4
6 4 -4 0.03 0.05
6 4 -4 0.13 0.04
-6 -4 4 0.11 0.08
5 4 -4 24.22 0.51
5 4 -4 24.29 0.51
5 4 -4 24.76 0.66
-5 -4 4 24.68 0.6
-5 -4 4 24.49 0.69
4 4 -4 19.1 0.54
4 4 -4 18.55 0.4
4 4 -4 18.85 0.4
-4 -4 4 18.94 0.46
-4 -4 4 18.24 0.54
3 4 -4 3.25 0.11
3 4 -4 2.98 0.13
3 4 -4 3.07 0.11
-3 -4 4 3.24 0.1
-3 -4 4 3.35 0.18
-3 -4 4 3.06 0.1
2 4 -4 2.56 0.11
2 4 -4 2.54 0.11
2 4 -4 2.51 0.11
-2 -4 4 2.29 0.15
-2 -4 4 2.53 0.11
-2 -4 4 2.68 0.11
-2 -4 4 2.5 0.14
1 4 -4 33.96 0.67
1 4 -4 33.07 0.69
1 4 -4 32.06 0.69
-1 -4 4 32.93 0.7
-1 -4 4 33.04 0.73
-1 -4 4 33.25 0.7
-1 -4 4 32.46 0.76
0 4 -4 26.98 0.62
0 4 -4 28.51 0.59
0 -4 4 28 0.66
0 -4 4 27.39 0.63
0 -4 4 28.2 0.63
0 -4 4 28.45 0.64
-1 4 -4 58.27 1.16
-1 4 -4 59.24 1.2
-1 4 -4 56.55 1.18
1 -4 4 57.09 1.17
1 -4 4 57.67 1.19
1 -4 4 56.64 1.19
1 -4 4 59.43 1.16
-2 4 -4 5.8 0.22
-2 4 -4 5.62 0.24
-2 4 -4 5.11 0.21
2 -4 4 5.64 0.23
2 -4 4 5.69 0.21
2 -4 4 5.68 0.21
2 -4 4 5.57 0.21
-3 4 -4 1.97 0.14
-3 4 -4 2.06 0.15
-3 4 -4 1.92 0.13
3 -4 4 1.76 0.12
3 -4 4 1.93 0.11
3 -4 4 1.98 0.14
3 -4 4 1.73 0.12
-4 4 -4 8.86 0.32
-4 4 -4 9.49 0.36
-4 4 -4 9.64 0.35
4 -4 4 9.37 0.35
4 -4 4 9.09 0.32
4 -4 4 9.28 0.32
4 -4 4 9.32 0.26
-5 4 -4 1.77 0.18
-5 4 -4 1.84 0.18
5 -4 4 2.11 0.16
5 -4 4 1.71 0.16
-6 4 -4 0.02 0.06
-6 4 -4 0.03 0.07
6 -4 4 0.05 0.06
6 -4 4 0.01 0.06
-7 4 -4 2.05 0.23
-7 4 -4 2.68 0.25
7 -4 4 2.06 0.21
7 -4 4 2.09 0.2
-8 4 -4 1.1 0.19
-8 4 -4 1.06 0.18
8 -4 4 0.71 0.14
8 -4 4 0.6 0.13
-9 4 -4 4.08 0.31
-9 4 -4 4.28 0.33
9 -4 4 4.56 0.29
9 -4 4 3.61 0.29
10 3 -4 1.03 0.21
10 3 -4 0.83 0.12
9 3 -4 7.31 0.27
9 3 -4 7.52 0.42
8 3 -4 29.35 0.68
-8 -3 4 29.71 0.9
7 3 -4 -0.02 0.04
7 3 -4 -0.01 0.03
-7 -3 4 0 0.05
-7 -3 4 -0.04 0.06
6 3 -4 64.42 1.4
6 3 -4 66.02 1.28
-6 -3 4 68 1.5
-6 -3 4 65.69 1.39
5 3 -4 2.9 0.11
5 3 -4 2.91 0.11
5 3 -4 3.06 0.18
-5 -3 4 2.8 0.15
-5 -3 4 2.9 0.2
4 3 -4 24.72 0.51
4 3 -4 25.03 0.62
4 3 -4 24.99 0.51
-4 -3 4 24.73 0.48
-4 -3 4 25.4 0.48
-4 -3 4 22.97 0.64
-4 -3 4 25.64 0.57
3 3 -4 0.05 0.02
3 3 -4 0.04 0.02
3 3 -4 0.01 0.03
-3 -3 4 0.02 0.02
-3 -3 4 0.02 0.02
-3 -3 4 -0.01 0.03
-3 -3 4 0.02 0.02
2 3 -4 10.89 0.26
2 3 -4 11.09 0.25
2 3 -4 10.82 0.26
-2 -3 4 10.43 0.32
-2 -3 4 10.97 0.26
-2 -3 4 10.64 0.32
-2 -3 4 10.84 0.27
1 3 -4 5.29 0.14
1 3 -4 4.78 0.16
1 3 -4 5.29 0.16
-1 -3 4 5.67 0.17
-1 -3 4 5.06 0.2
-1 -3 4 5.12 0.19
-1 -3 4 4.87 0.16
0 3 -4 6.02 0.19
0 3 -4 6.16 0.2
0 3 -4 6.16 0.17
0 -3 4 6.23 0.2
0 -3 4 6.46 0.21
0 -3 4 5.99 0.2
-1 3 -4 1.37 0.08
-1 3 -4 1.11 0.09
-1 3 -4 1.33 0.1
1 -3 4 1.19 0.09
1 -3 4 1.39 0.1
1 -3 4 1.27 0.08
1 -3 4 1.23 0.09
-2 3 -4 26.25 0.61
-2 3 -4 27.31 0.63
-2 3 -4 26.31 0.6
2 -3 4 27.04 0.63
2 -3 4 26.89 0.57
2 -3 4 26.38 0.6
2 -3 4 27.13 0.61
-3 3 -4 11.87 0.36
-3 3 -4 12.8 0.38
-3 3 -4 12.57 0.35
3 -3 4 12.66 0.38
3 -3 4 11.67 0.35
3 -3 4 12.4 0.35
-4 3 -4 2.15 0.08
-4 3 -4 2.23 0.16
-4 3 -4 1.85 0.14
-4 3 -4 2.01 0.13
4 -3 4 2.12 0.14
4 -3 4 2.15 0.15
4 -3 4 1.95 0.14
-5 3 -4 -0.04 0.04
-5 3 -4 -0.08 0.04
5 -3 4 -0.04 0.04
5 -3 4 0.02 0.04
-6 3 -4 2.4 0.19
-6 3 -4 2.55 0.19
6 -3 4 2.94 0.19
6 -3 4 2.8 0.19
-7 3 -4 9.7 0.4
-7 3 -4 9.11 0.41
7 -3 4 9.39 0.37
7 -3 4 8.87 0.38
-8 3 -4 1.36 0.2
-8 3 -4 1.02 0.17
8 -3 4 1.04 0.17
8 -3 4 1.26 0.16
-9 3 -4 0.17 0.11
-9 3 -4 0 0.08
9 -3 4 0.04 0.07
9 -3 4 0.05 0.08
-10 3 -4 1.17 0.18
-10 3 -4 0.87 0.21
10 -3 4 1.04 0.19
10 -3 4 1.03 0.17
10 2 -4 0.71 0.12
10 2 -4 0.65 0.18
9 2 -4 13.95 0.44
9 2 -4 15.67 0.62
8 2 -4 4.7 0.21
-8 -2 4 4.75 0.27
-8 -2 4 5.35 0.16
-8 -2 4 4.81 0.31
7 2 -4 3.53 0.17
-7 -2 4 3.64 0.14
-7 -2 4 3.77 0.26
-7 -2 4 3.58 0.15
-7 -2 4 3.83 0.22
6 2 -4 3.23 0.18
6 2 -4 3 0.14
-6 -2 4 3.28 0.23
-6 -2 4 3.08 0.13
-6 -2 4 3.22 0.13
-6 -2 4 3.14 0.18
5 2 -4 18.37 0.43
5 2 -4 19.64 0.43
5 2 -4 18.58 0.49
-5 -2 4 18.51 0.55
-5 -2 4 19.31 0.49
-5 -2 4 18.8 0.42
-5 -2 4 18.67 0.42
4 2 -4 19.13 0.48
4 2 -4 19.13 0.41
4 2 -4 19.02 0.42
-4 -2 4 18.7 0.45
-4 -2 4 19.08 0.41
-4 -2 4 19.34 0.42
-4 -2 4 18.64 0.52
3 2 -4 38.72 0.84
3 2 -4 38.8 0.77
3 2 -4 38.92 0.76
-3 -2 4 38.76 0.77
-3 -2 4 39.8 0.87
-3 -2 4 38.81 0.78
-3 -2 4 40.24 0.77
2 2 -4 112.41 2.16
2 2 -4 112.46 2.09
2 2 -4 113.34 2.09
-2 -2 4 113.75 2.1
-2 -2 4 115.79 2.11
-2 -2 4 114.26 2.08
-2 -2 4 114.24 2.17
1 2 -4 28.96 0.52
1 2 -4 27.46 0.57
1 2 -4 27.74 0.57
1 2 -4 27.7 0.61
-1 -2 4 28.34 0.61
-1 -2 4 28.67 0.58
-1 -2 4 28.09 0.58
0 2 -4 37.07 0.68
0 2 -4 34.63 0.72
0 2 -4 36.12 0.74
0 2 -4 36.68 0.74
0 -2 4 35.3 0.73
0 -2 4 36.04 0.71
0 -2 4 34.77 0.73
-1 2 -4 26.07 0.55
-1 2 -4 27.15 0.55
-1 2 -4 25.64 0.56
-1 2 -4 26.54 0.58
1 -2 4 26.81 0.57
1 -2 4 26.35 0.56
1 -2 4 27.33 0.58
-2 2 -4 134.65 2.46
-2 2 -4 137.45 2.52
-2 2 -4 133.29 2.51
-2 2 -4 137.47 2.54
2 -2 4 133.11 2.52
2 -2 4 130.38 2.51
-3 2 -4 24.38 0.48
-3 2 -4 24.15 0.55
-3 2 -4 23.55 0.58
-3 2 -4 24.22 0.58
3 -2 4 24.22 0.57
3 -2 4 23.94 0.55
3 -2 4 23.41 0.56
-4 2 -4 21.13 0.55
-4 2 -4 21.88 0.56
4 -2 4 21.14 0.52
4 -2 4 21 0.54
4 -2 4 21.44 0.55
-5 2 -4 15.2 0.47
-5 2 -4 15.54 0.46
5 -2 4 14.5 0.42
5 -2 4 15.57 0.46
-6 2 -4 0.66 0.13
-6 2 -4 0.67 0.11
6 -2 4 0.62 0.1
6 -2 4 0.44 0.1
-7 2 -4 0.07 0.07
-7 2 -4 -0.03 0.05
7 -2 4 0.02 0.06
7 -2 4 0 0.05
-8 2 -4 3.82 0.28
-8 2 -4 3.52 0.24
8 -2 4 3.89 0.23
8 -2 4 3.21 0.24
-9 2 -4 3.4 0.33
-9 2 -4 3.32 0.24
9 -2 4 3.59 0.24
9 -2 4 3.32 0.26
-10 2 -4 4.47 0.36
-10 2 -4 4.62 0.29
10 -2 4 4.26 0.31
10 -2 4 4.05 0.28
10 1 -4 8.11 0.45
10 1 -4 8.2 0.35
-10 -1 4 7.88 0.27
9 1 -4 4.61 0.24
9 1 -4 4.23 0.31
-9 -1 4 4.92 0.3
-9 -1 4 4.33 0.2
8 1 -4 0.13 0.06
8 1 -4 0.05 0.08
-8 -1 4 0.13 0.09
-8 -1 4 0.24 0.1
-8 -1 4 0.18 0.06
7 1 -4 1.27 0.12
-7 -1 4 1.19 0.17
-7 -1 4 1.2 0.12
-7 -1 4 1.25 0.15
6 1 -4 0.51 0.07
6 1 -4 0.47 0.08
-6 -1 4 0.53 0.09
-6 -1 4 0.47 0.07
-6 -1 4 0.46 0.1
5 1 -4 8.65 0.26
5 1 -4 8.98 0.29
5 1 -4 8.8 0.26
-5 -1 4 9.16 0.34
-5 -1 4 9.84 0.28
-5 -1 4 8.91 0.29
-5 -1 4 9.34 0.27
4 1 -4 0 0.02
4 1 -4 0.01 0.02
4 1 -4 0 0.03
-4 -1 4 -0.02 0.02
-4 -1 4 -0.01 0.02
-4 -1 4 0.03 0.04
-4 -1 4 0.01 0.03
3 1 -4 51.59 1.02
3 1 -4 50.63 0.98
3 1 -4 49.62 0.98
-3 -1 4 50.43 1.06
-3 -1 4 51.6 1
-3 -1 4 48.48 0.99
-3 -1 4 50.42 0.98
2 1 -4 79.7 1.5
2 1 -4 80.79 1.55
2 1 -4 79.46 1.51
-2 -1 4 81.45 1.48
-2 -1 4 82.65 1.52
-2 -1 4 80.81 1.56
-2 -1 4 79.52 1.53
1 1 -4 20.28 0.44
1 1 -4 19.94 0.42
1 1 -4 19.63 0.45
-1 -1 4 20.92 0.44
-1 -1 4 20.17 0.45
0 1 -4 31.13 0.63
0 1 -4 29.16 0.61
0 1 -4 30.3 0.62
0 1 -4 30.64 0.58
0 -1 4 30.71 0.62
0 -1 4 30.63 0.61
0 -1 4 29.43 0.61
-1 1 -4 2.26 0.09
-1 1 -4 1.93 0.1
-1 1 -4 2.22 0.09
-1 1 -4 2.1 0.09
1 -1 4 2.14 0.1
1 -1 4 2.12 0.09
-2 1 -4 78.69 1.5
-2 1 -4 80.07 1.52
-2 1 -4 77.32 1.52
-2 1 -4 79.63 1.46
2 -1 4 78.2 1.51
2 -1 4 79.24 1.5
2 -1 4 78.54 1.52
-3 1 -4 6.52 0.21
-3 1 -4 6.41 0.14
-3 1 -4 6.25 0.22
-3 1 -4 6.51 0.23
3 -1 4 6.23 0.2
3 -1 4 6.64 0.22
-4 1 -4 54.23 1.16
-4 1 -4 54.9 1.13
-4 1 -4 52.7 1.12
4 -1 4 53.26 1.14
4 -1 4 55.13 1.1
-5 1 -4 33.71 0.77
-5 1 -4 32.9 0.82
5 -1 4 33.57 0.75
5 -1 4 33.06 0.8
-6 1 -4 17.19 0.49
-6 1 -4 17.95 0.56
6 -1 4 16.93 0.53
6 -1 4 17.81 0.48
-7 1 -4 0.69 0.14
-7 1 -4 0.52 0.1
7 -1 4 0.91 0.14
7 -1 4 0.67 0.1
-8 1 -4 3.82 0.23
-8 1 -4 3.25 0.26
8 -1 4 3.17 0.24
8 -1 4 3.43 0.21
-9 1 -4 0.02 0.06
-9 1 -4 -0.07 0.08
9 -1 4 0.07 0.08
9 -1 4 0.02 0.06
-10 1 -4 4.5 0.36
-10 1 -4 4.7 0.27
10 -1 4 4.84 0.34
10 -1 4 4.52 0.28
10 0 -4 4.97 0.36
10 0 -4 4.8 0.28
-10 0 4 5.56 0.36
-10 0 4 5.07 0.26
9 0 -4 2.62 0.19
9 0 -4 3.39 0.32
-9 0 4 3.16 0.24
-9 0 4 3.06 0.2
8 0 -4 5.69 0.33
8 0 -4 6.27 0.28
-8 0 4 6.06 0.27
-8 0 4 5.86 0.31
7 0 -4 4.03 0.26
7 0 -4 4.02 0.2
-7 0 4 4.55 0.22
-7 0 4 4.29 0.27
-7 0 4 4.88 0.25
6 0 -4 23.89 0.59
6 0 -4 23.89 0.57
-6 0 4 23.5 0.63
-6 0 4 25.86 0.69
-6 0 4 24.32 0.6
5 0 -4 1.69 0.11
5 0 -4 1.69 0.11
-5 0 4 1.71 0.12
-5 0 4 1.84 0.12
-5 0 4 1.69 0.14
-5 0 4 1.78 0.13
4 0 -4 1.07 0.08
4 0 -4 0.89 0.09
4 0 -4 1.16 0.09
-4 0 4 1.11 0.09
-4 0 4 1.13 0.11
-4 0 4 1.08 0.1
-4 0 4 1.13 0.09
3 0 -4 78.9 1.55
3 0 -4 79.11 1.54
-3 0 4 81.71 1.56
-3 0 4 82.42 1.54
-3 0 4 80.73 1.55
-3 0 4 81.57 1.59
2 0 -4 24.1 0.53
2 0 -4 24.07 0.51
2 0 -4 24.66 0.54
-2 0 4 24.27 0.53
-2 0 4 24.11 0.51
-2 0 4 24.37 0.54
-2 0 4 24.79 0.5
1 0 -4 37.56 0.76
1 0 -4 37.01 0.75
1 0 -4 39.33 0.77
-1 0 4 36.95 0.74
-1 0 4 38.55 0.72
-1 0 4 37.89 0.76
0 0 -4 102.69 1.94
0 0 -4 103.64 1.93
0 0 -4 102.49 1.93
0 0 4 108.98 2
0 0 4 103.02 1.93
0 0 4 106.13 1.94
-1 0 -4 6.32 0.19
-1 0 -4 6.52 0.19
-1 0 -4 6.31 0.17
-1 0 -4 6.29 0.17
1 0 4 6.63 0.18
1 0 4 6.25 0.17
1 0 4 6.69 0.19
-2 0 -4 3.77 0.12
-2 0 -4 3.53 0.15
-2 0 -4 3.79 0.14
-2 0 -4 3.42 0.13
2 0 4 3.87 0.14
2 0 4 3.64 0.13
-3 0 -4 21.42 0.48
-3 0 -4 20.77 0.52
-3 0 -4 21.73 0.43
-3 0 -4 20.87 0.48
3 0 4 20.4 0.5
3 0 4 21.34 0.47
3 0 4 20.3 0.46
-4 0 -4 20.88 0.5
-4 0 -4 21.19 0.41
-4 0 -4 19.92 0.55
-4 0 -4 21.08 0.49
4 0 4 21.07 0.53
4 0 4 20.98 0.48
4 0 4 21.39 0.48
-5 0 -4 19.62 0.48
-5 0 -4 17.97 0.54
-5 0 -4 18.73 0.48
5 0 4 19.44 0.53
5 0 4 18.6 0.46
-6 0 -4 21.35 0.64
-6 0 -4 21.45 0.54
6 0 4 20.96 0.53
6 0 4 21.04 0.61
-7 0 -4 0.69 0.14
-7 0 -4 0.44 0.08
7 0 4 0.39 0.08
7 0 4 0.48 0.11
-8 0 -4 0.06 0.06
-8 0 -4 0 0.07
8 0 4 0.21 0.07
8 0 4 0.08 0.08
-9 0 -4 0.97 0.13
-9 0 -4 1.11 0.19
9 0 4 1.41 0.21
9 0 4 1.09 0.14
-10 0 -4 3.19 0.34
-10 0 -4 3.56 0.21
10 0 4 3.71 0.3
10 0 4 3.25 0.23
10 -1 -4 2.8 0.31
10 -1 -4 2.96 0.23
-10 1 4 2.65 0.24
-10 1 4 2.98 0.31
9 -1 -4 0.08 0.07
9 -1 -4 0.12 0.1
-9 1 4 0.12 0.1
-9 1 4 0.07 0.07
8 -1 -4 0.31 0.09
8 -1 -4 0.36 0.11
-8 1 4 0.27 0.09
-8 1 4 0.25 0.08
7 -1 -4 0.12 0.07
7 -1 -4 0.1 0.06
-7 1 4 0.15 0.06
-7 1 4 0.12 0.06
6 -1 -4 39.85 0.91
6 -1 -4 40.59 0.87
6 -1 -4 41.19 0.98
-6 1 4 39.53 0.95
-6 1 4 42.12 0.99
-6 1 4 40.21 0.93
5 -1 -4 4.48 0.19
5 -1 -4 4.5 0.18
-5 1 4 4.63 0.21
-5 1 4 4.22 0.2
-5 1 4 4.32 0.22
4 -1 -4 0.25 0.06
4 -1 -4 0.28 0.06
4 -1 -4 0.36 0.06
-4 1 4 0.29 0.06
-4 1 4 0.28 0.06
-4 1 4 0.25 0.06
3 -1 -4 1.47 0.11
3 -1 -4 1.34 0.09
3 -1 -4 1.42 0.09
-3 1 4 1.36 0.1
-3 1 4 1.34 0.09
-3 1 4 1.38 0.1
-3 1 4 1.24 0.09
2 -1 -4 0.15 0.05
2 -1 -4 0.17 0.04
2 -1 -4 0.13 0.04
-2 1 4 0.1 0.03
-2 1 4 0.1 0.03
-2 1 4 0.1 0.04
-2 1 4 0.12 0.03
1 -1 -4 14.96 0.36
1 -1 -4 15.51 0.35
1 -1 -4 15.35 0.37
-1 1 4 15.49 0.37
-1 1 4 15.4 0.34
-1 1 4 14.44 0.35
-1 1 4 15.22 0.33
0 -1 -4 9.51 0.25
0 -1 -4 9.03 0.25
0 -1 -4 9.28 0.23
0 1 4 9.59 0.25
0 1 4 9.75 0.24
0 1 4 9.64 0.21
0 1 4 9.21 0.23
-1 -1 -4 408.53 7.48
-1 -1 -4 404.84 9.06
-1 -1 -4 414.96 7.58
-1 -1 -4 413.19 7.53
1 1 4 402.81 8.67
1 1 4 411.83 7.48
1 1 4 399.74 7.47
-2 -1 -4 65.37 1.23
-2 -1 -4 65.8 1.29
-2 -1 -4 62.66 1.24
-2 -1 -4 64.18 1.24
2 1 4 64.36 1.22
2 1 4 64.2 1.22
2 1 4 65.54 1.24
-3 -1 -4 0.93 0.1
-3 -1 -4 0.84 0.06
-3 -1 -4 0.69 0.07
-3 -1 -4 0.86 0.06
3 1 4 0.8 0.08
3 1 4 0.84 0.06
3 1 4 0.84 0.06
-4 -1 -4 7.03 0.21
-4 -1 -4 7.2 0.28
-4 -1 -4 7.21 0.22
-4 -1 -4 7.26 0.2
4 1 4 7.37 0.21
4 1 4 7.21 0.26
4 1 4 7.34 0.21
-5 -1 -4 3.32 0.14
-5 -1 -4 3.53 0.13
-5 -1 -4 3.3 0.2
5 1 4 3.54 0.14
5 1 4 3.08 0.18
5 1 4 3.32 0.14
-6 -1 -4 0.53 0.07
-6 -1 -4 0.54 0.11
6 1 4 0.42 0.07
6 1 4 0.45 0.09
-7 -1 -4 2.23 0.13
-7 -1 -4 2.62 0.25
7 1 4 2.17 0.21
7 1 4 1.92 0.13
-8 -1 -4 6.78 0.25
-8 -1 -4 7.14 0.38
8 1 4 7 0.36
8 1 4 6.92 0.27
-9 -1 -4 5.37 0.21
-9 -1 -4 5.77 0.36
9 1 4 5.75 0.26
9 1 4 5.57 0.34
-10 -1 -4 0.57 0.17
-10 -1 -4 0.31 0.06
10 1 4 0.28 0.12
10 1 4 0.44 0.1
10 -2 -4 1.53 0.2
10 -2 -4 2.17 0.26
-10 2 4 2.03 0.23
-10 2 4 1.63 0.23
9 -2 -4 4.6 0.31
9 -2 -4 4.01 0.27
-9 2 4 4.83 0.31
-9 2 4 4.17 0.28
8 -2 -4 1.63 0.18
8 -2 -4 1.41 0.19
-8 2 4 0.99 0.15
-8 2 4 1.35 0.19
7 -2 -4 2.53 0.2
7 -2 -4 2.33 0.18
-7 2 4 1.92 0.2
-7 2 4 2.36 0.19
6 -2 -4 3.49 0.21
6 -2 -4 3.71 0.2
6 -2 -4 3.53 0.17
-6 2 4 3.63 0.22
-6 2 4 3.64 0.21
5 -2 -4 0.82 0.1
5 -2 -4 0.79 0.11
5 -2 -4 0.76 0.09
-5 2 4 0.6 0.1
-5 2 4 0.68 0.1
4 -2 -4 209.85 3.91
4 -2 -4 208.9 3.88
4 -2 -4 212.14 3.94
4 -2 -4 212.08 3.9
-4 2 4 210.68 3.89
-4 2 4 204.75 3.91
-4 2 4 207.1 3.93
-4 2 4 207.73 3.91
3 -2 -4 6.76 0.25
3 -2 -4 6.73 0.23
3 -2 -4 6.85 0.23
-3 2 4 6.74 0.23
-3 2 4 6.89 0.25
-3 2 4 6.49 0.23
-3 2 4 6.77 0.22
2 -2 -4 1.82 0.12
2 -2 -4 2.04 0.11
2 -2 -4 1.78 0.1
-2 2 4 1.74 0.1
-2 2 4 1.83 0.12
-2 2 4 1.92 0.09
1 -2 -4 4.37 0.17
1 -2 -4 4.68 0.16
1 -2 -4 4.98 0.19
-1 2 4 4.83 0.12
-1 2 4 4.99 0.18
-1 2 4 4.88 0.17
-1 2 4 4.68 0.16
0 -2 -4 71.11 1.37
0 -2 -4 70.54 1.38
0 2 4 69.67 1.34
0 2 4 70.25 1.27
0 2 4 67.9 1.35
0 2 4 71.95 1.36
-1 -2 -4 18.53 0.41
-1 -2 -4 17.71 0.44
-1 -2 -4 18.32 0.42
1 2 4 17.67 0.44
1 2 4 18.55 0.4
1 2 4 18.59 0.37
1 2 4 17.96 0.4
-2 -2 -4 4.64 0.15
-2 -2 -4 4.87 0.2
-2 -2 -4 4.69 0.18
-2 -2 -4 4.48 0.15
2 2 4 4.69 0.15
2 2 4 4.86 0.14
2 2 4 4.8 0.14
-3 -2 -4 3.12 0.12
-3 -2 -4 3.26 0.17
-3 -2 -4 3.1 0.14
-3 -2 -4 3.2 0.11
3 2 4 3.1 0.11
3 2 4 3.22 0.14
3 2 4 3.15 0.11
-4 -2 -4 45.65 0.91
-4 -2 -4 46.53 0.96
-4 -2 -4 46.66 0.9
-4 -2 -4 45.99 1.04
4 2 4 46.52 0.91
4 2 4 45.64 0.99
4 2 4 46.85 0.91
-5 -2 -4 4.26 0.14
-5 -2 -4 4.23 0.14
-5 -2 -4 3.8 0.22
-5 -2 -4 4.25 0.17
5 2 4 4.21 0.15
5 2 4 4.43 0.15
5 2 4 3.81 0.2
-6 -2 -4 8.68 0.23
-6 -2 -4 9.04 0.38
-6 -2 -4 9.19 0.23
6 2 4 8.83 0.26
6 2 4 8.99 0.35
-7 -2 -4 2.45 0.1
-7 -2 -4 2.53 0.1
-7 -2 -4 2.63 0.25
7 2 4 2.25 0.13
7 2 4 2.48 0.2
-8 -2 -4 5.03 0.32
8 2 4 4.38 0.2
8 2 4 4.61 0.29
-9 -2 -4 0.22 0.12
9 2 4 0.14 0.11
9 2 4 0.2 0.07
-10 -2 -4 1.59 0.25
10 2 4 1.41 0.15
10 2 4 1.66 0.24
10 -3 -4 0.03 0.09
10 -3 -4 0.05 0.08
-10 3 4 0.06 0.1
-10 3 4 0.12 0.1
9 -3 -4 0.06 0.08
9 -3 -4 0.06 0.08
-9 3 4 0.03 0.07
-9 3 4 0 0.09
8 -3 -4 1.86 0.2
8 -3 -4 1.66 0.21
-8 3 4 1.67 0.21
-8 3 4 1.52 0.2
7 -3 -4 3.82 0.24
7 -3 -4 3.6 0.23
-7 3 4 3.51 0.24
-7 3 4 3.97 0.25
6 -3 -4 2.72 0.19
6 -3 -4 2.69 0.15
6 -3 -4 2.54 0.18
-6 3 4 2.93 0.2
-6 3 4 2.56 0.2
5 -3 -4 32.11 0.77
5 -3 -4 31.74 0.73
5 -3 -4 31.95 0.76
-5 3 4 31.86 0.81
-5 3 4 31.51 0.79
4 -3 -4 -0.03 0.03
4 -3 -4 0.02 0.03
4 -3 -4 0.03 0.04
4 -3 -4 0.06 0.05
-4 3 4 -0.01 0.03
-4 3 4 0.01 0.04
-4 3 4 0 0.03
3 -3 -4 22.39 0.58
3 -3 -4 22.57 0.55
3 -3 -4 22.26 0.55
3 -3 -4 22.07 0.5
-3 3 4 21.7 0.55
-3 3 4 21.72 0.55
2 -3 -4 17.51 0.46
2 -3 -4 17.42 0.44
2 -3 -4 17.07 0.38
2 -3 -4 17.54 0.47
-2 3 4 17.02 0.44
-2 3 4 18.22 0.47
-2 3 4 17.39 0.44
1 -3 -4 35.04 0.73
1 -3 -4 34.39 0.76
1 -3 -4 33.81 0.76
1 -3 -4 34.35 0.63
-1 3 4 33.92 0.74
-1 3 4 34.23 0.73
-1 3 4 32.34 0.74
0 -3 -4 110.41 2.14
0 -3 -4 113.47 2.13
0 -3 -4 113.79 2.17
0 3 4 112.07 2.14
0 3 4 111.34 2.11
-1 -3 -4 6.04 0.2
-1 -3 -4 6.52 0.2
-1 -3 -4 6.7 0.24
1 3 4 6.37 0.19
1 3 4 6 0.22
1 3 4 6.21 0.19
1 3 4 6.45 0.14
-2 -3 -4 32.17 0.65
-2 -3 -4 31.09 0.73
-2 -3 -4 31.44 0.73
-2 -3 -4 31.27 0.66
2 3 4 31.27 0.65
2 3 4 31.95 0.65
2 3 4 32.96 0.65
-3 -3 -4 9.09 0.22
-3 -3 -4 8.5 0.31
-3 -3 -4 9.07 0.23
-3 -3 -4 8.85 0.3
3 3 4 9.15 0.23
3 3 4 9.1 0.26
3 3 4 9.19 0.23
-4 -3 -4 68.79 1.4
-4 -3 -4 67.85 1.46
-4 -3 -4 69.25 1.25
-4 -3 -4 68.09 1.26
4 3 4 67.53 1.29
4 3 4 67.06 1.3
4 3 4 68.92 1.39
-5 -3 -4 0.02 0.04
-5 -3 -4 0.11 0.07
5 3 4 0.03 0.02
5 3 4 -0.01 0.02
5 3 4 0.05 0.05
-6 -3 -4 11.55 0.45
6 3 4 10.96 0.29
6 3 4 11.14 0.4
-7 -3 -4 4.02 0.27
7 3 4 3.96 0.16
7 3 4 3.54 0.23
-8 -3 -4 6.4 0.38
8 3 4 7.15 0.36
8 3 4 6.94 0.24
-9 -3 -4 2.04 0.27
9 3 4 1.83 0.13
9 3 4 1.77 0.23
9 -4 -4 3.24 0.26
9 -4 -4 3.71 0.28
-9 4 4 4.09 0.3
-9 4 4 3.07 0.32
8 -4 -4 2.4 0.24
8 -4 -4 2.61 0.25
-8 4 4 2.11 0.23
-8 4 4 2.63 0.27
7 -4 -4 0.38 0.1
7 -4 -4 0.27 0.1
-7 4 4 0.39 0.11
-7 4 4 0.32 0.1
6 -4 -4 0.2 0.07
6 -4 -4 0.26 0.09
-6 4 4 0.34 0.1
-6 4 4 0.11 0.07
5 -4 -4 16.34 0.46
5 -4 -4 16.19 0.5
5 -4 -4 16.03 0.46
-5 4 4 16.75 0.54
-5 4 4 16.47 0.52
4 -4 -4 3.94 0.17
4 -4 -4 3.78 0.22
4 -4 -4 3.91 0.2
4 -4 -4 4.09 0.21
-4 4 4 4.02 0.21
-4 4 4 4.11 0.21
-4 4 4 3.85 0.22
3 -4 -4 48.89 1.03
3 -4 -4 46.29 1.03
3 -4 -4 47.11 1.08
3 -4 -4 47.5 0.95
-3 4 4 46.12 1.03
-3 4 4 46.87 1.04
-3 4 4 46.79 1.07
2 -4 -4 10.87 0.37
2 -4 -4 11.33 0.36
2 -4 -4 11.43 0.26
-2 4 4 11.19 0.35
-2 4 4 10.67 0.34
-2 4 4 11.13 0.36
1 -4 -4 0.2 0.06
1 -4 -4 0.23 0.05
1 -4 -4 0.13 0.05
-1 4 4 0.19 0.05
-1 4 4 0.21 0.05
-1 4 4 0.16 0.05
0 -4 -4 0.33 0.06
0 -4 -4 0.27 0.07
0 -4 -4 0.3 0.05
0 4 4 0.38 0.06
0 4 4 0.25 0.06
-1 -4 -4 6.91 0.28
-1 -4 -4 7.85 0.23
-1 -4 -4 7.01 0.24
1 4 4 7.35 0.23
1 4 4 7.08 0.23
1 4 4 7.44 0.27
1 4 4 7.46 0.15
-2 -4 -4 3.29 0.13
-2 -4 -4 3.33 0.13
-2 -4 -4 2.74 0.17
2 4 4 3.31 0.18
2 4 4 3.12 0.11
2 4 4 3.22 0.13
2 4 4 3.14 0.13
-3 -4 -4 0.75 0.05
-3 -4 -4 0.62 0.1
-3 -4 -4 0.59 0.05
-3 -4 -4 0.75 0.12
3 4 4 0.7 0.07
3 4 4 0.69 0.11
3 4 4 0.71 0.08
3 4 4 0.8 0.07
-4 -4 -4 11.81 0.42
-4 -4 -4 12.13 0.4
4 4 4 11.92 0.35
4 4 4 11.79 0.29
4 4 4 12.12 0.29
-5 -4 -4 0.31 0.09
-5 -4 -4 0.19 0.07
5 4 4 0.2 0.04
5 4 4 0.17 0.06
-6 -4 -4 0.04 0.07
6 4 4 0.02 0.03
6 4 4 0.03 0.05
-7 -4 -4 6.17 0.34
7 4 4 5.53 0.29
7 4 4 6.17 0.2
-8 -4 -4 0.28 0.12
8 4 4 0.17 0.05
8 4 4 0.16 0.09
-9 -4 -4 3.42 0.34
9 4 4 3 0.29
9 4 4 2.43 0.14
-9 5 4 0.28 0.13
-9 5 4 0.34 0.13
-8 5 4 1.82 0.23
-8 5 4 2.1 0.26
7 -5 -4 1.38 0.17
-7 5 4 1.41 0.2
-7 5 4 1.66 0.22
6 -5 -4 2.26 0.17
-6 5 4 2.17 0.22
-6 5 4 2.05 0.23
5 -5 -4 3.08 0.19
5 -5 -4 3.51 0.19
-5 5 4 3.89 0.25
-5 5 4 3.68 0.24
4 -5 -4 33.95 0.82
4 -5 -4 33.06 0.88
-4 5 4 33.08 0.85
-4 5 4 33.67 0.84
-4 5 4 34.07 0.88
3 -5 -4 0.17 0.07
3 -5 -4 0.14 0.07
-3 5 4 0.09 0.06
-3 5 4 0.21 0.07
2 -5 -4 0.04 0.05
2 -5 -4 0.05 0.05
-2 5 4 0.01 0.04
-2 5 4 0.04 0.05
1 -5 -4 26.25 0.68
1 -5 -4 27.86 0.71
-1 5 4 25.16 0.64
-1 5 4 27.51 0.67
0 -5 -4 8.25 0.33
0 -5 -4 8.24 0.29
0 5 4 8.04 0.28
-1 -5 -4 4.42 0.19
-1 -5 -4 4.69 0.24
1 5 4 4.34 0.18
1 5 4 4.2 0.21
-2 -5 -4 13.97 0.35
-2 -5 -4 13.53 0.45
-2 -5 -4 14.16 0.36
2 5 4 13.71 0.43
2 5 4 13.87 0.36
-3 -5 -4 12.61 0.29
-3 -5 -4 13.17 0.3
-3 -5 -4 13.47 0.45
3 5 4 12.21 0.33
3 5 4 12.53 0.42
-4 -5 -4 0.05 0.06
4 5 4 0.09 0.07
4 5 4 0.15 0.04
-5 -5 -4 0.66 0.13
-5 -5 -4 0.55 0.11
5 5 4 0.56 0.06
-6 -5 -4 15.64 0.56
6 5 4 15.12 0.36
-7 -5 -4 11.37 0.49
7 5 4 11.42 0.29
-8 -5 -4 1.91 0.25
-8 6 4 -0.07 0.09
-7 6 4 2.89 0.29
-6 6 4 -0.03 0.07
5 -6 -4 2.49 0.19
-5 6 4 3.07 0.23
4 -6 -4 1.72 0.21
4 -6 -4 1.97 0.19
-4 6 4 1.84 0.2
-4 6 4 1.75 0.19
3 -6 -4 2.9 0.22
3 -6 -4 2.84 0.2
-3 6 4 3.09 0.2
-3 6 4 3.18 0.21
2 -6 -4 1.86 0.19
2 -6 -4 1.83 0.19
-2 6 4 1.7 0.16
-2 6 4 1.73 0.17
1 -6 -4 1.06 0.15
1 -6 -4 1.55 0.16
-1 6 4 1.33 0.15
-1 6 4 1.42 0.14
0 -6 -4 1.97 0.2
0 -6 -4 2.26 0.16
0 6 4 2.13 0.15
0 6 4 1.97 0.16
-1 -6 -4 1.45 0.14
-1 -6 -4 1.53 0.18
1 6 4 1.55 0.14
1 6 4 1.71 0.17
-2 -6 -4 3.78 0.17
-2 -6 -4 3.65 0.24
2 6 4 3.62 0.22
2 6 4 3.98 0.18
-3 -6 -4 11.64 0.28
-3 -6 -4 11.73 0.28
-3 -6 -4 11.63 0.45
3 6 4 11.16 0.42
3 6 4 11.9 0.33
-4 -6 -4 0.66 0.13
4 6 4 0.89 0.09
4 6 4 0.9 0.15
-5 -6 -4 6.95 0.34
5 6 4 5.94 0.2
5 6 4 6.01 0.32
6 6 4 0.09 0.04
6 6 4 0.04 0.09
7 6 4 2.59 0.11
7 6 4 2.88 0.29
-8 7 4 0 0.11
-7 7 4 -0.02 0.08
-6 7 4 -0.1 0.07
5 -7 -4 5.3 0.29
-5 7 4 4.73 0.31
4 -7 -4 1.18 0.19
4 -7 -4 0.96 0.16
-4 7 4 0.8 0.15
3 -7 -4 -0.03 0.07
3 -7 -4 0.02 0.07
-3 7 4 -0.03 0.07
-3 7 4 0 0.06
2 -7 -4 23.25 0.69
2 -7 -4 20.9 0.67
-2 7 4 23 0.67
-2 7 4 22.88 0.65
1 -7 -4 0.66 0.14
1 -7 -4 0.81 0.13
-1 7 4 0.82 0.13
-1 7 4 0.75 0.12
0 -7 -4 4.44 0.28
0 -7 -4 4.65 0.24
0 7 4 4.49 0.23
0 7 4 4.4 0.25
-1 -7 -4 0.03 0.07
-1 -7 -4 0.04 0.05
1 7 4 0.06 0.07
1 7 4 0.06 0.05
-2 -7 -4 17.52 0.61
-2 -7 -4 17.57 0.46
2 7 4 17.46 0.49
2 7 4 18.34 0.57
-3 -7 -4 4.49 0.29
-3 -7 -4 4.59 0.14
3 7 4 4.62 0.27
3 7 4 4.66 0.21
-4 -7 -4 1.47 0.2
4 7 4 1.67 0.12
4 7 4 2.33 0.23
-5 -7 -4 15.34 0.58
5 7 4 14.44 0.54
5 7 4 15.17 0.39
-6 -7 -4 1.76 0.24
6 7 4 1.57 0.1
6 7 4 1.77 0.23
7 7 4 0.22 0.12
7 7 4 0.19 0.04
-6 8 4 0.44 0.14
5 -8 -4 6.05 0.35
-5 8 4 6.46 0.37
4 -8 -4 3.13 0.26
4 -8 -4 3.43 0.32
-4 8 4 3.63 0.32
3 -8 -4 0.3 0.11
3 -8 -4 0.1 0.09
-3 8 4 0.13 0.09
2 -8 -4 1.46 0.21
2 -8 -4 1.81 0.21
-2 8 4 1.3 0.18
-2 8 4 1.68 0.19
1 -8 -4 9.01 0.43
1 -8 -4 8.68 0.38
-1 8 4 8.89 0.38
-1 8 4 9.15 0.4
0 -8 -4 2.8 0.28
0 -8 -4 2.95 0.21
0 8 4 3.19 0.21
0 8 4 3.21 0.23
-1 -8 -4 -0.02 0.04
-1 -8 -4 -0.13 0.06
1 8 4 -0.04 0.06
1 8 4 0.07 0.06
-2 -8 -4 0.03 0.08
-2 -8 -4 0.03 0.04
2 8 4 0.08 0.08
2 8 4 0.16 0.07
-3 -8 -4 0.48 0.13
-3 -8 -4 0.42 0.04
3 8 4 0.39 0.09
3 8 4 0.51 0.13
-4 -8 -4 0.02 0.09
4 8 4 0.13 0.09
4 8 4 -0.03 0.04
-5 -8 -4 6.41 0.38
5 8 4 5.31 0.22
5 8 4 5.41 0.33
-5 9 4 -0.03 0.09
4 -9 -4 1.45 0.21
4 -9 -4 1.57 0.23
-4 9 4 1.24 0.21
3 -9 -4 2.86 0.3
3 -9 -4 2.46 0.26
-3 9 4 3.27 0.29
2 -9 -4 1.78 0.22
2 -9 -4 1.92 0.26
-2 9 4 2.01 0.23
-2 9 4 1.87 0.23
1 -9 -4 3.28 0.25
1 -9 -4 3.6 0.34
-1 9 4 2.8 0.27
-1 9 4 3.71 0.26
0 -9 -4 2.44 0.28
0 -9 -4 2.1 0.21
0 9 4 2.08 0.24
0 9 4 2.07 0.21
-1 -9 -4 14.46 0.61
-1 -9 -4 14.93 0.47
1 9 4 14.78 0.51
1 9 4 14.51 0.55
-2 -9 -4 1.1 0.2
-2 -9 -4 1.23 0.12
2 9 4 1.46 0.17
2 9 4 1.09 0.18
-3 -9 -4 0 0.1
3 9 4 -0.02 0.05
3 9 4 -0.01 0.08
-4 -9 -4 -0.01 0.09
4 9 4 0.04 0.06
4 9 4 0.05 0.09
2 -10 -4 3.61 0.37
2 -10 -4 3.52 0.29
-2 10 4 3.16 0.3
-2 10 4 3.25 0.32
1 -10 -4 0.74 0.15
1 -10 -4 0.45 0.16
-1 10 4 0.41 0.13
-1 10 4 0.54 0.15
0 -10 -4 6.95 0.44
0 -10 -4 8.23 0.37
0 10 4 8.33 0.4
0 10 4 8.43 0.43
-1 -10 -4 0.09 0.12
-1 -10 -4 0.1 0.06
1 10 4 0.06 0.09
1 10 4 0.2 0.09
3 10 -5 -0.02 0.05
-3 -10 5 -0.02 0.09
2 10 -5 1.5 0.18
-2 -10 5 2.06 0.27
-2 -10 5 1.22 0.13
1 10 -5 0.85 0.14
-1 -10 5 0.93 0.13
-1 -10 5 1.08 0.21
0 10 -5 0.62 0.13
0 -10 5 0.34 0.1
0 -10 5 0.57 0.16
-1 10 -5 -0.06 0.06
1 -10 5 -0.07 0.06
1 -10 5 -0.01 0.09
-2 10 -5 0.1 0.1
2 -10 5 0.26 0.12
2 -10 5 0.21 0.1
3 -10 5 0.11 0.1
4 -10 5 0.7 0.17
5 9 -5 0.3 0.14
5 9 -5 0.29 0.07
4 9 -5 0 0.05
4 9 -5 -0.02 0.08
-4 -9 5 0.07 0.09
3 9 -5 2.34 0.17
-3 -9 5 2.37 0.1
-3 -9 5 2.55 0.29
2 9 -5 0.03 0.06
-2 -9 5 0.05 0.05
-2 -9 5 -0.08 0.07
1 9 -5 1.35 0.16
-1 -9 5 1.5 0.16
-1 -9 5 1.45 0.21
0 9 -5 -0.05 0.05
0 -9 5 0 0.06
0 -9 5 -0.04 0.08
-1 9 -5 4.96 0.29
1 -9 5 3.77 0.28
1 -9 5 4.79 0.28
-2 9 -5 3.49 0.25
-2 9 -5 3.39 0.24
2 -9 5 3.34 0.26
2 -9 5 2.93 0.28
-3 9 -5 2.53 0.26
-3 9 -5 2.16 0.23
3 -9 5 1.95 0.24
3 -9 5 1.81 0.21
-4 9 -5 2.67 0.27
4 -9 5 2.8 0.29
-5 9 -5 1.25 0.21
6 8 -5 6.4 0.22
6 8 -5 6.1 0.38
5 8 -5 2.36 0.14
5 8 -5 1.99 0.25
4 8 -5 4.45 0.21
-4 -8 5 4.81 0.32
3 8 -5 7.46 0.29
-3 -8 5 7.8 0.22
-3 -8 5 8.78 0.42
2 8 -5 11.52 0.39
-2 -8 5 12.01 0.49
-2 -8 5 11.51 0.35
1 8 -5 6.75 0.29
-1 -8 5 6.77 0.28
-1 -8 5 6.1 0.34
0 8 -5 1.97 0.18
0 8 -5 1.96 0.16
0 -8 5 2.23 0.18
0 -8 5 2.12 0.22
-1 8 -5 4.64 0.26
-1 8 -5 5 0.26
1 -8 5 4.99 0.27
1 -8 5 4.42 0.28
-2 8 -5 4.76 0.27
-2 8 -5 5.24 0.27
2 -8 5 4.99 0.29
2 -8 5 5.06 0.29
-3 8 -5 21.99 0.66
-3 8 -5 21.34 0.66
3 -8 5 21.41 0.65
3 -8 5 21.09 0.68
-4 8 -5 3.06 0.24
4 -8 5 2.39 0.26
-5 8 -5 0.19 0.1
-6 8 -5 0.07 0.09
-7 8 -5 1.66 0.24
7 7 -5 6.1 0.36
7 7 -5 6.5 0.19
-7 -7 5 6.03 0.37
6 7 -5 3.46 0.15
6 7 -5 3.92 0.29
-6 -7 5 3.81 0.28
5 7 -5 1.24 0.19
5 7 -5 1.06 0.1
-5 -7 5 1.23 0.18
4 7 -5 2.44 0.24
4 7 -5 2.33 0.13
-4 -7 5 2.07 0.23
-4 -7 5 2.42 0.2
3 7 -5 6.48 0.24
-3 -7 5 5.98 0.32
-3 -7 5 6 0.29
-3 -7 5 6.44 0.2
2 7 -5 64.84 1.35
-2 -7 5 65.25 1.5
-2 -7 5 63.46 1.32
-2 -7 5 67.41 1.43
1 7 -5 0.68 0.09
1 7 -5 0.66 0.1
-1 -7 5 0.6 0.09
-1 -7 5 0.6 0.1
-1 -7 5 0.6 0.12
0 7 -5 14.53 0.43
0 7 -5 15.54 0.47
0 -7 5 15.62 0.46
0 -7 5 15.17 0.47
0 -7 5 15.41 0.52
-1 7 -5 4.99 0.25
-1 7 -5 5.16 0.24
1 -7 5 4.96 0.27
1 -7 5 4.74 0.23
1 -7 5 5.05 0.26
-2 7 -5 0.3 0.09
-2 7 -5 0.18 0.07
2 -7 5 0.16 0.07
2 -7 5 0.29 0.09
2 -7 5 0.23 0.07
-3 7 -5 0.16 0.08
-3 7 -5 0.15 0.08
3 -7 5 0.11 0.07
3 -7 5 0.1 0.07
3 -7 5 0.1 0.07
-4 7 -5 4.36 0.26
4 -7 5 4.49 0.25
4 -7 5 4.52 0.28
-5 7 -5 7.19 0.37
5 -7 5 6.8 0.32
-6 7 -5 -0.02 0.06
6 -7 5 0.18 0.08
-7 7 -5 0.09 0.11
7 -7 5 -0.06 0.07
-8 7 -5 0.15 0.12
8 -7 5 0.67 0.15
8 6 -5 0.24 0.04
-8 -6 5 0.27 0.12
7 6 -5 15.44 0.56
7 6 -5 14.7 0.36
-7 -6 5 15.74 0.6
6 6 -5 2.97 0.24
6 6 -5 3.11 0.13
-6 -6 5 3.27 0.25
5 6 -5 6.48 0.34
5 6 -5 5.95 0.2
-5 -6 5 6.37 0.33
4 6 -5 0.27 0.1
4 6 -5 0.4 0.06
-4 -6 5 0.42 0.1
3 6 -5 0.14 0.05
-3 -6 5 0.13 0.04
-3 -6 5 0.11 0.03
-3 -6 5 0.19 0.08
-3 -6 5 0.09 0.06
2 6 -5 0.87 0.09
2 6 -5 1.02 0.1
-2 -6 5 0.79 0.13
-2 -6 5 1.07 0.13
-2 -6 5 0.94 0.09
1 6 -5 30.23 0.68
1 6 -5 31.41 0.72
-1 -6 5 29.9 0.74
-1 -6 5 31.46 0.72
-1 -6 5 31.17 0.8
0 6 -5 86.4 1.7
0 6 -5 84.9 1.73
0 -6 5 85.1 1.73
0 -6 5 87.2 1.8
0 -6 5 86.23 1.74
-1 6 -5 7.18 0.27
-1 6 -5 7.33 0.29
1 -6 5 7.26 0.28
1 -6 5 7.36 0.3
1 -6 5 7.53 0.3
-2 6 -5 10.55 0.37
-2 6 -5 10.22 0.35
2 -6 5 10.38 0.37
2 -6 5 10.12 0.35
2 -6 5 10.31 0.38
-3 6 -5 0.08 0.06
-3 6 -5 0.06 0.06
3 -6 5 0.1 0.06
3 -6 5 0.16 0.06
3 -6 5 0.07 0.06
-4 6 -5 0.5 0.11
4 -6 5 0.56 0.09
4 -6 5 0.68 0.13
4 -6 5 0.83 0.12
-5 6 -5 1.31 0.18
5 -6 5 1.43 0.16
-6 6 -5 0.07 0.08
6 -6 5 0.05 0.07
-7 6 -5 0.55 0.15
7 -6 5 0.51 0.12
-8 6 -5 0.28 0.13
8 -6 5 0.35 0.12
9 5 -5 4.47 0.18
-9 -5 5 4.34 0.34
8 5 -5 10.42 0.29
-8 -5 5 10.44 0.49
7 5 -5 2.83 0.22
7 5 -5 2.73 0.13
-7 -5 5 2.75 0.28
6 5 -5 0.09 0.07
6 5 -5 0.19 0.04
-6 -5 5 0.07 0.07
5 5 -5 0.11 0.04
5 5 -5 0.05 0.07
-5 -5 5 0.07 0.06
4 5 -5 4.19 0.15
4 5 -5 4.47 0.25
-4 -5 5 4.42 0.24
3 5 -5 3.72 0.15
3 5 -5 3.99 0.15
3 5 -5 3.75 0.15
3 5 -5 4.06 0.22
-3 -5 5 3.85 0.21
-3 -5 5 3.93 0.14
-3 -5 5 3.77 0.22
-3 -5 5 4.07 0.14
2 5 -5 10.26 0.3
2 5 -5 11.01 0.28
2 5 -5 10.67 0.3
-2 -5 5 10.36 0.29
-2 -5 5 10.6 0.35
-2 -5 5 10.25 0.37
-2 -5 5 11.01 0.3
1 5 -5 17.03 0.44
1 5 -5 17.58 0.41
-1 -5 5 17.71 0.45
-1 -5 5 16.93 0.5
-1 -5 5 17.22 0.44
-1 -5 5 17.1 0.47
0 5 -5 7.74 0.26
0 5 -5 8.31 0.25
0 -5 5 7.84 0.27
0 -5 5 7.7 0.27
0 -5 5 7.72 0.3
-1 5 -5 11.14 0.37
-1 5 -5 11.3 0.35
-1 5 -5 11.7 0.33
1 -5 5 12.03 0.37
1 -5 5 11.65 0.35
1 -5 5 11.9 0.37
-2 5 -5 0.67 0.1
-2 5 -5 0.71 0.11
-2 5 -5 0.74 0.1
2 -5 5 0.68 0.09
2 -5 5 0.83 0.11
2 -5 5 0.75 0.1
-3 5 -5 18.37 0.54
-3 5 -5 17.39 0.5
3 -5 5 17.85 0.53
3 -5 5 17.95 0.5
3 -5 5 17.29 0.47
-4 5 -5 5.1 0.25
-4 5 -5 5.01 0.26
-4 5 -5 4.84 0.27
4 -5 5 4.9 0.2
4 -5 5 5.14 0.25
4 -5 5 5.2 0.27
-5 5 -5 1.96 0.2
-5 5 -5 1.47 0.18
5 -5 5 1.74 0.18
-6 5 -5 1.2 0.18
-6 5 -5 0.9 0.16
6 -5 5 1.13 0.15
-7 5 -5 3.58 0.27
-7 5 -5 3.42 0.31
7 -5 5 3.42 0.24
-8 5 -5 0.5 0.15
-8 5 -5 0.48 0.14
8 -5 5 0.47 0.12
-9 5 -5 0.15 0.11
-9 5 -5 0.2 0.12
9 -5 5 0.12 0.11
9 4 -5 2.85 0.16
-9 -4 5 2.93 0.31
8 4 -5 25.88 0.6
-8 -4 5 26.27 0.84
7 4 -5 2.43 0.12
7 4 -5 2.31 0.19
-7 -4 5 2.5 0.26
6 4 -5 22.69 0.51
6 4 -5 22.73 0.65
-6 -4 5 23.41 0.7
5 4 -5 2.4 0.11
5 4 -5 2.37 0.11
5 4 -5 2.29 0.17
-5 -4 5 2.67 0.2
4 4 -5 6.79 0.19
4 4 -5 6.37 0.19
4 4 -5 6.6 0.28
-4 -4 5 6.46 0.16
-4 -4 5 6.6 0.29
-4 -4 5 6.49 0.16
-4 -4 5 6.85 0.22
3 4 -5 3.36 0.19
3 4 -5 3.64 0.13
3 4 -5 3.42 0.13
3 4 -5 3.73 0.14
-3 -4 5 3.56 0.19
-3 -4 5 3.68 0.13
-3 -4 5 3.6 0.13
2 4 -5 6.9 0.18
2 4 -5 6.68 0.2
2 4 -5 6.58 0.2
-2 -4 5 6.18 0.26
-2 -4 5 6.77 0.21
-2 -4 5 6.54 0.25
-2 -4 5 6.7 0.21
1 4 -5 12.7 0.34
1 4 -5 13.12 0.3
1 4 -5 13.13 0.33
-1 -4 5 13.75 0.38
-1 -4 5 13.1 0.39
-1 -4 5 12.69 0.35
-1 -4 5 13.19 0.35
0 4 -5 12.28 0.35
0 4 -5 12.38 0.3
0 4 -5 11.66 0.33
0 -4 5 11.6 0.34
0 -4 5 12.16 0.36
0 -4 5 11.42 0.35
0 -4 5 11.87 0.34
-1 4 -5 1.09 0.08
-1 4 -5 1.23 0.12
-1 4 -5 0.86 0.09
1 -4 5 1.23 0.11
1 -4 5 0.92 0.1
1 -4 5 1.27 0.12
1 -4 5 0.94 0.09
-2 4 -5 1.84 0.13
-2 4 -5 1.77 0.12
-2 4 -5 1.98 0.14
2 -4 5 1.79 0.13
2 -4 5 1.73 0.12
2 -4 5 1.62 0.11
2 -4 5 1.72 0.12
-3 4 -5 2 0.15
-3 4 -5 2.04 0.14
3 -4 5 2.22 0.12
3 -4 5 1.94 0.14
3 -4 5 2 0.15
3 -4 5 2.34 0.14
-4 4 -5 0.46 0.06
-4 4 -5 0.41 0.09
-4 4 -5 0.23 0.07
-4 4 -5 0.34 0.09
4 -4 5 0.45 0.09
4 -4 5 0.36 0.08
4 -4 5 0.34 0.07
-5 4 -5 4 0.24
-5 4 -5 4.68 0.26
5 -4 5 4.7 0.24
5 -4 5 4.28 0.22
-6 4 -5 3.66 0.25
-6 4 -5 3.4 0.24
6 -4 5 3.78 0.23
6 -4 5 3.59 0.22
-7 4 -5 5.17 0.32
-7 4 -5 5.48 0.32
7 -4 5 5.33 0.3
7 -4 5 5.83 0.3
-8 4 -5 7 0.38
-8 4 -5 6.45 0.39
8 -4 5 6.67 0.36
8 -4 5 7.39 0.35
-9 4 -5 0.32 0.14
-9 4 -5 0.34 0.13
9 -4 5 0.16 0.1
9 -4 5 0.17 0.1
10 3 -5 1.2 0.14
10 3 -5 1.47 0.25
9 3 -5 4.34 0.21
-9 -3 5 3.68 0.31
8 3 -5 4.33 0.2
-8 -3 5 4.56 0.31
7 3 -5 0.8 0.09
7 3 -5 0.86 0.12
-7 -3 5 0.64 0.14
6 3 -5 1.72 0.1
6 3 -5 1.56 0.16
-6 -3 5 1.56 0.06
-6 -3 5 1.72 0.2
-6 -3 5 1.51 0.06
-6 -3 5 1.55 0.15
5 3 -5 4.1 0.15
5 3 -5 4.28 0.15
5 3 -5 4.52 0.22
-5 -3 5 4.23 0.13
-5 -3 5 4.25 0.13
-5 -3 5 4.29 0.25
-5 -3 5 4.02 0.18
4 3 -5 4.01 0.2
4 3 -5 4.28 0.14
-4 -3 5 4.32 0.16
-4 -3 5 4.07 0.13
-4 -3 5 4.05 0.22
-4 -3 5 4.04 0.13
3 3 -5 4.66 0.15
3 3 -5 4.72 0.21
-3 -3 5 4.77 0.15
-3 -3 5 4.63 0.14
-3 -3 5 4.84 0.15
2 3 -5 20.61 0.41
2 3 -5 21.02 0.52
2 3 -5 20.34 0.44
2 3 -5 20.12 0.45
-2 -3 5 20.31 0.46
-2 -3 5 19.65 0.51
-2 -3 5 20.38 0.45
1 3 -5 10.2 0.27
1 3 -5 10.15 0.31
1 3 -5 10.62 0.23
1 3 -5 10.26 0.27
-1 -3 5 10.31 0.28
-1 -3 5 10.07 0.28
-1 -3 5 10.86 0.31
0 3 -5 12 0.27
0 3 -5 11.95 0.33
0 3 -5 11.92 0.31
0 3 -5 11.5 0.33
0 -3 5 11.7 0.3
0 -3 5 11.86 0.33
0 -3 5 11.5 0.32
-1 3 -5 1.56 0.11
-1 3 -5 1.68 0.1
-1 3 -5 1.62 0.09
-1 3 -5 1.73 0.11
1 -3 5 1.84 0.11
1 -3 5 1.77 0.1
1 -3 5 1.93 0.12
-2 3 -5 0.33 0.06
-2 3 -5 0.45 0.07
-2 3 -5 0.43 0.06
-2 3 -5 0.3 0.07
2 -3 5 0.42 0.07
2 -3 5 0.42 0.07
2 -3 5 0.25 0.05
-3 3 -5 100.41 1.99
-3 3 -5 100.9 1.88
-3 3 -5 100.65 1.97
-3 3 -5 100.04 1.95
3 -3 5 99.17 1.98
3 -3 5 97.36 1.95
3 -3 5 101.34 1.95
-4 3 -5 13.51 0.39
-4 3 -5 13.34 0.3
-4 3 -5 13.22 0.42
-4 3 -5 12.7 0.42
4 -3 5 13.06 0.42
4 -3 5 14.2 0.4
4 -3 5 13.65 0.41
-5 3 -5 0.72 0.12
-5 3 -5 0.47 0.1
5 -3 5 0.42 0.08
5 -3 5 0.7 0.11
-6 3 -5 3.25 0.23
-6 3 -5 3.31 0.22
6 -3 5 3.06 0.19
6 -3 5 3.1 0.2
-7 3 -5 -0.02 0.06
-7 3 -5 -0.01 0.07
7 -3 5 0.03 0.06
7 -3 5 0.01 0.06
-8 3 -5 0.25 0.1
-8 3 -5 0.08 0.09
8 -3 5 0.03 0.08
8 -3 5 0.16 0.08
-9 3 -5 2.05 0.27
-9 3 -5 1.34 0.19
9 -3 5 1.76 0.21
9 -3 5 1.52 0.2
-10 3 -5 2.85 0.29
-10 3 -5 2.89 0.33
10 -3 5 2.97 0.31
10 -3 5 3.47 0.27
10 2 -5 5.87 0.28
10 2 -5 4.95 0.37
9 2 -5 0.9 0.12
9 2 -5 0.58 0.16
-9 -2 5 0.97 0.07
-9 -2 5 1.02 0.19
8 2 -5 0.08 0.05
-8 -2 5 0.12 0.1
-8 -2 5 0.08 0.04
7 2 -5 22.36 0.55
7 2 -5 21.66 0.6
-7 -2 5 22.52 0.51
-7 -2 5 22 0.7
-7 -2 5 22.33 0.61
6 2 -5 1.62 0.11
6 2 -5 1.77 0.14
-6 -2 5 1.86 0.14
-6 -2 5 1.65 0.1
-6 -2 5 1.4 0.17
-6 -2 5 1.72 0.1
5 2 -5 12.32 0.32
5 2 -5 12.49 0.32
5 2 -5 12.46 0.38
-5 -2 5 12.82 0.32
-5 -2 5 12.69 0.36
-5 -2 5 12.15 0.43
-5 -2 5 12.14 0.31
4 2 -5 49.72 0.97
4 2 -5 48.15 0.96
4 2 -5 48.65 1.04
-4 -2 5 49.88 0.98
-4 -2 5 47.86 0.97
-4 -2 5 49.78 0.98
-4 -2 5 48.1 1.09
3 2 -5 -0.01 0.02
3 2 -5 0 0.02
3 2 -5 0.03 0.04
-3 -2 5 0.01 0.02
-3 -2 5 0.01 0.03
-3 -2 5 0.01 0.02
-3 -2 5 0.06 0.02
2 2 -5 61.56 1.28
2 2 -5 64.1 1.22
2 2 -5 61.77 1.22
-2 -2 5 64.9 1.29
-2 -2 5 64.28 1.24
-2 -2 5 65.1 1.16
-2 -2 5 64.78 1.23
1 2 -5 12.84 0.31
1 2 -5 12.97 0.34
-1 -2 5 12.89 0.33
-1 -2 5 13.73 0.33
0 2 -5 49.53 0.9
0 2 -5 46.85 0.95
0 2 -5 46.03 0.96
0 -2 5 49.78 0.94
0 -2 5 47.28 0.96
0 -2 5 47.56 0.96
-1 2 -5 4.75 0.18
-1 2 -5 4.37 0.16
-1 2 -5 4.42 0.15
-1 2 -5 4.54 0.15
1 -2 5 4.31 0.17
1 -2 5 4.35 0.16
1 -2 5 4.55 0.17
-2 2 -5 188.94 3.48
-2 2 -5 187.37 3.49
-2 2 -5 184.76 3.45
-2 2 -5 190.7 3.46
2 -2 5 185.27 3.47
2 -2 5 181.69 3.58
2 -2 5 186.59 3.49
-3 2 -5 0 0.02
-3 2 -5 -0.02 0.02
-3 2 -5 0.04 0.04
-3 2 -5 -0.01 0.03
3 -2 5 0.02 0.03
3 -2 5 -0.03 0.02
3 -2 5 0 0.03
-4 2 -5 0.48 0.09
-4 2 -5 0.66 0.1
-4 2 -5 0.45 0.02
4 -2 5 0.32 0.06
4 -2 5 0.44 0.08
4 -2 5 0.36 0.07
-5 2 -5 1.8 0.15
-5 2 -5 1.47 0.16
5 -2 5 1.68 0.15
5 -2 5 1.61 0.14
-6 2 -5 24.54 0.71
-6 2 -5 24.38 0.66
6 -2 5 24.96 0.68
6 -2 5 24.23 0.63
-7 2 -5 6.56 0.35
-7 2 -5 7.44 0.33
7 -2 5 6.49 0.29
7 -2 5 7.26 0.34
-8 2 -5 11.17 0.5
-8 2 -5 11.52 0.44
8 -2 5 11.69 0.47
8 -2 5 11.16 0.42
-9 2 -5 0.17 0.11
-9 2 -5 0.27 0.1
9 -2 5 0.26 0.09
9 -2 5 0.45 0.13
-10 2 -5 -0.01 0.08
-10 2 -5 0.09 0.11
10 -2 5 -0.02 0.07
10 -2 5 0.4 0.14
10 1 -5 0.93 0.2
10 1 -5 0.96 0.14
-10 -1 5 1.35 0.13
9 1 -5 3.64 0.34
9 1 -5 3.3 0.21
-9 -1 5 3.23 0.18
8 1 -5 1.48 0.15
-8 -1 5 1.51 0.21
-8 -1 5 1.43 0.17
-8 -1 5 1.43 0.13
7 1 -5 1.27 0.13
-7 -1 5 1.05 0.14
-7 -1 5 1.5 0.12
-7 -1 5 1.49 0.19
6 1 -5 0.02 0.03
6 1 -5 -0.04 0.04
-6 -1 5 0.03 0.03
-6 -1 5 0.05 0.04
-6 -1 5 0.07 0.06
5 1 -5 5.45 0.2
5 1 -5 6.05 0.23
-5 -1 5 6.46 0.22
-5 -1 5 5.84 0.27
-5 -1 5 5.84 0.22
-5 -1 5 6.17 0.21
4 1 -5 12.66 0.37
4 1 -5 13.37 0.33
4 1 -5 12.9 0.33
-4 -1 5 13.17 0.34
-4 -1 5 13.34 0.35
-4 -1 5 13.67 0.34
-4 -1 5 12.64 0.4
3 1 -5 34.47 0.72
3 1 -5 35.1 0.72
3 1 -5 35.73 0.76
-3 -1 5 34.9 0.74
-3 -1 5 35.78 0.73
-3 -1 5 34.56 0.7
2 1 -5 2.25 0.1
2 1 -5 2.43 0.12
-2 -1 5 2.41 0.11
-2 -1 5 2.44 0.08
-2 -1 5 2.35 0.11
-2 -1 5 2.17 0.12
1 1 -5 63.58 1.18
1 1 -5 59.05 1.17
1 1 -5 56.61 1.15
-1 -1 5 62.26 1.17
-1 -1 5 57.05 1.17
-1 -1 5 60.44 1.08
-1 -1 5 59.53 1.14
0 1 -5 17.05 0.39
0 1 -5 17.12 0.41
0 1 -5 16.45 0.4
0 1 -5 17.57 0.35
0 -1 5 17.58 0.4
0 -1 5 17.56 0.39
0 -1 5 17.53 0.4
-1 1 -5 58.29 1.18
-1 1 -5 59.16 1.15
-1 1 -5 59.68 1.14
-1 1 -5 61.69 1.15
1 -1 5 57.77 1.15
1 -1 5 60.65 1.17
1 -1 5 58.78 1.15
-2 1 -5 132.01 2.51
-2 1 -5 135.73 2.44
-2 1 -5 135.54 2.48
-2 1 -5 129.51 2.5
2 -1 5 133.44 2.49
2 -1 5 128.69 2.48
2 -1 5 137.19 2.51
-3 1 -5 0.79 0.09
-3 1 -5 0.91 0.08
-3 1 -5 0.93 0.1
-3 1 -5 0.83 0.05
3 -1 5 0.64 0.08
3 -1 5 0.9 0.09
3 -1 5 0.96 0.1
-4 1 -5 40.66 0.93
-4 1 -5 41.2 0.9
4 -1 5 40.61 0.87
4 -1 5 41.67 0.9
4 -1 5 41.39 0.91
-5 1 -5 4.39 0.21
5 -1 5 4.02 0.19
5 -1 5 4.04 0.21
-6 1 -5 32.77 0.88
-6 1 -5 33.38 0.81
6 -1 5 34.63 0.79
6 -1 5 34.78 0.86
-7 1 -5 4.94 0.3
-7 1 -5 5.27 0.26
7 -1 5 4.9 0.24
7 -1 5 5.11 0.28
-8 1 -5 5.66 0.28
-8 1 -5 6.19 0.36
8 -1 5 5.42 0.32
8 -1 5 5.67 0.27
-9 1 -5 4.41 0.34
-9 1 -5 4.6 0.26
9 -1 5 5.15 0.33
9 -1 5 4.18 0.25
-10 1 -5 0.13 0.12
-10 1 -5 0.32 0.1
10 -1 5 0.19 0.09
10 -1 5 0.06 0.1
10 0 -5 0.08 0.07
10 0 -5 0.05 0.1
-10 0 5 0 0.06
9 0 -5 0.14 0.08
9 0 -5 0.23 0.12
-9 0 5 0.09 0.09
-9 0 5 0.09 0.06
8 0 -5 44.32 1.15
8 0 -5 43.1 1.02
-8 0 5 44.06 1.02
-8 0 5 44.4 1.08
7 0 -5 4.04 0.21
-7 0 5 4.44 0.22
-7 0 5 3.82 0.22
-7 0 5 3.91 0.26
6 0 -5 2.16 0.14
6 0 -5 2.06 0.14
-6 0 5 2.28 0.16
-6 0 5 2.19 0.18
-6 0 5 2.1 0.14
5 0 -5 14.43 0.39
5 0 -5 15.04 0.41
-5 0 5 14.39 0.46
-5 0 5 14.79 0.41
-5 0 5 13.65 0.4
4 0 -5 0.13 0.05
4 0 -5 0.03 0.03
-4 0 5 0.05 0.03
-4 0 5 0.05 0.03
-4 0 5 0.02 0.03
-4 0 5 0.05 0.05
3 0 -5 20.29 0.48
3 0 -5 18.99 0.46
3 0 -5 20.55 0.49
-3 0 5 18.37 0.49
-3 0 5 20.52 0.48
-3 0 5 20.29 0.44
2 0 -5 48.88 0.99
2 0 -5 50 1
2 0 -5 47.36 0.97
-2 0 5 48.55 0.96
-2 0 5 48.96 0.99
-2 0 5 48.01 0.93
-2 0 5 50.27 0.99
1 0 -5 285.22 5.55
1 0 -5 307.86 5.55
1 0 -5 293.95 5.47
-1 0 5 293.6 5.41
-1 0 5 302.11 5.51
-1 0 5 299.08 5.52
-1 0 5 288.25 5.52
0 0 -5 7.93 0.2
0 0 -5 7.77 0.21
0 0 -5 7.88 0.23
0 0 -5 7.63 0.22
0 0 5 7.56 0.22
0 0 5 7.52 0.21
0 0 5 7.57 0.2
-1 0 -5 1.99 0.1
-1 0 -5 1.92 0.1
-1 0 -5 1.85 0.09
-1 0 -5 1.91 0.09
1 0 5 1.93 0.09
1 0 5 1.82 0.09
1 0 5 1.88 0.1
-2 0 -5 29.49 0.65
-2 0 -5 29.11 0.63
-2 0 -5 29.39 0.6
2 0 5 28.57 0.62
2 0 5 29.15 0.61
2 0 5 29.16 0.62
-3 0 -5 35.73 0.81
-3 0 -5 36.49 0.72
-3 0 -5 35.83 0.77
-3 0 -5 36.58 0.77
3 0 5 36.72 0.78
3 0 5 35.88 0.75
3 0 5 36.33 0.75
-4 0 -5 0.13 0.06
-4 0 -5 0.09 0.04
-4 0 -5 0.06 0.04
-4 0 -5 0.21 0.03
4 0 5 0.21 0.04
4 0 5 0.1 0.04
4 0 5 0.11 0.04
-5 0 -5 0.08 0.06
-5 0 -5 0.05 0.04
5 0 5 0.04 0.03
5 0 5 0.05 0.05
-6 0 -5 5.2 0.28
-6 0 -5 5.09 0.22
6 0 5 5.09 0.26
6 0 5 5.14 0.21
-7 0 -5 4.06 0.27
-7 0 -5 4.4 0.21
7 0 5 4.34 0.26
7 0 5 4.01 0.2
-8 0 -5 -0.09 0.04
-8 0 -5 0.01 0.08
8 0 5 0.05 0.05
8 0 5 -0.06 0.06
-9 0 -5 12.48 0.55
-9 0 -5 12.97 0.42
9 0 5 12.62 0.53
9 0 5 12.52 0.44
-10 0 -5 0.39 0.16
-10 0 -5 0.5 0.1
10 0 5 0.58 0.12
10 0 5 0.44 0.13
10 -1 -5 -0.05 0.06
10 -1 -5 0.11 0.11
-10 1 5 0.03 0.07
-10 1 5 0.02 0.09
9 -1 -5 0.21 0.11
9 -1 -5 0.28 0.1
-9 1 5 0.3 0.1
-9 1 5 0.23 0.1
8 -1 -5 2.66 0.26
8 -1 -5 2.35 0.18
-8 1 5 2.01 0.2
-8 1 5 1.94 0.21
7 -1 -5 1.14 0.14
7 -1 -5 0.73 0.14
-7 1 5 0.94 0.14
-7 1 5 0.83 0.12
6 -1 -5 24.7 0.63
6 -1 -5 24.39 0.6
-6 1 5 24.7 0.65
-6 1 5 24.87 0.69
-6 1 5 24.7 0.65
5 -1 -5 0.85 0.1
5 -1 -5 0.83 0.1
-5 1 5 0.92 0.12
-5 1 5 0.93 0.11
-5 1 5 1.2 0.13
4 -1 -5 16.71 0.45
4 -1 -5 17.75 0.45
4 -1 -5 17.33 0.48
-4 1 5 17.83 0.47
-4 1 5 18.28 0.44
-4 1 5 16.96 0.45
-4 1 5 17.78 0.48
3 -1 -5 72.19 1.43
3 -1 -5 74.7 1.44
3 -1 -5 73.18 1.46
-3 1 5 72.91 1.45
-3 1 5 73.95 1.43
-3 1 5 71.05 1.41
-3 1 5 71.65 1.44
2 -1 -5 194.5 3.6
2 -1 -5 187.48 3.56
2 -1 -5 192.19 3.62
-2 1 5 199.12 3.68
-2 1 5 199.29 3.64
-2 1 5 187.61 3.63
-2 1 5 195.24 3.56
1 -1 -5 0.03 0.03
1 -1 -5 0.03 0.04
1 -1 -5 0.1 0.03
-1 1 5 0.03 0.03
-1 1 5 0.04 0.03
-1 1 5 0.02 0.02
-1 1 5 0.09 0.03
0 -1 -5 12.13 0.33
0 -1 -5 12.75 0.31
0 -1 -5 13.04 0.33
0 1 5 13.13 0.28
0 1 5 12.56 0.31
0 1 5 12.44 0.31
0 1 5 13.57 0.33
-1 -1 -5 72.97 1.39
-1 -1 -5 69.64 1.39
-1 -1 -5 72.99 1.4
1 1 5 70.55 1.37
1 1 5 73.36 1.35
-2 -1 -5 5.46 0.18
-2 -1 -5 5.6 0.19
-2 -1 -5 5.64 0.18
-2 -1 -5 5.61 0.21
2 1 5 5.49 0.17
2 1 5 5.75 0.17
2 1 5 5.85 0.18
-3 -1 -5 1.47 0.12
-3 -1 -5 1.63 0.09
-3 -1 -5 1.68 0.1
-3 -1 -5 1.64 0.09
3 1 5 1.71 0.09
3 1 5 1.44 0.1
3 1 5 1.55 0.09
-4 -1 -5 43.68 1.02
-4 -1 -5 45.52 0.92
-4 -1 -5 45.16 0.93
-4 -1 -5 46.13 0.9
4 1 5 44.95 0.97
4 1 5 44.42 0.91
4 1 5 45.11 0.91
-5 -1 -5 53.31 1.08
-5 -1 -5 53.71 1.09
-5 -1 -5 53.59 1.21
5 1 5 52.95 1.08
5 1 5 51.63 1.16
-6 -1 -5 0.65 0.09
-6 -1 -5 0.95 0.15
6 1 5 0.8 0.12
6 1 5 0.66 0.08
-7 -1 -5 0.18 0.06
-7 -1 -5 0.13 0.08
7 1 5 0.04 0.06
7 1 5 0.15 0.05
-8 -1 -5 4.4 0.2
-8 -1 -5 3.78 0.29
8 1 5 4.28 0.28
8 1 5 4.28 0.21
-9 -1 -5 6.86 0.4
-9 -1 -5 6.67 0.25
9 1 5 7.32 0.3
9 1 5 6.64 0.37
-10 -1 -5 0.16 0.05
-10 -1 -5 0.2 0.13
10 1 5 0.14 0.07
10 1 5 0.06 0.1
10 -2 -5 0.46 0.12
10 -2 -5 0.59 0.16
-10 2 5 0.51 0.13
-10 2 5 0.53 0.15
9 -2 -5 9.02 0.4
9 -2 -5 8.8 0.43
-9 2 5 9.42 0.42
-9 2 5 8.9 0.43
8 -2 -5 0.01 0.07
8 -2 -5 -0.03 0.06
-8 2 5 0.12 0.09
-8 2 5 0.06 0.07
7 -2 -5 15.15 0.52
7 -2 -5 14.75 0.48
-7 2 5 14.54 0.5
-7 2 5 14 0.49
6 -2 -5 14.89 0.42
6 -2 -5 14.12 0.45
6 -2 -5 14.56 0.48
-6 2 5 15.34 0.48
-6 2 5 15.19 0.48
5 -2 -5 27.74 0.66
5 -2 -5 27.64 0.7
5 -2 -5 27.73 0.69
-5 2 5 28.84 0.72
-5 2 5 28.67 0.71
-5 2 5 27.85 0.7
4 -2 -5 12.17 0.36
4 -2 -5 12.11 0.35
4 -2 -5 12.4 0.4
-4 2 5 12.28 0.39
-4 2 5 12.15 0.36
-4 2 5 12.04 0.35
-4 2 5 11.65 0.36
3 -2 -5 31.95 0.72
3 -2 -5 32.3 0.76
3 -2 -5 32.3 0.73
-3 2 5 32.38 0.75
-3 2 5 32.8 0.72
-3 2 5 32.7 0.71
-3 2 5 32 0.72
2 -2 -5 48.62 1
2 -2 -5 48.54 1.02
2 -2 -5 49.24 1.04
-2 2 5 47.69 1
-2 2 5 47.02 0.99
-2 2 5 48.82 0.96
-2 2 5 50.71 1.03
1 -2 -5 14.96 0.38
1 -2 -5 16 0.41
1 -2 -5 15.45 0.41
-1 2 5 14.98 0.38
-1 2 5 15.3 0.4
-1 2 5 15.38 0.38
-1 2 5 15.41 0.33
0 -2 -5 14.88 0.35
0 -2 -5 15.01 0.38
0 -2 -5 14.5 0.39
0 2 5 14.7 0.37
0 2 5 14.92 0.37
0 2 5 15.19 0.3
0 2 5 14.7 0.36
-1 -2 -5 2.32 0.13
-1 -2 -5 2.34 0.13
-1 -2 -5 2.32 0.12
-1 -2 -5 2.33 0.11
1 2 5 2.14 0.12
1 2 5 2.28 0.1
1 2 5 2.26 0.11
1 2 5 2.45 0.08
-2 -2 -5 5.31 0.21
-2 -2 -5 5.48 0.17
-2 -2 -5 4.97 0.18
-2 -2 -5 5.19 0.2
2 2 5 5.18 0.16
2 2 5 5.26 0.16
2 2 5 5.34 0.17
-3 -2 -5 -0.02 0.04
-3 -2 -5 0.02 0.03
-3 -2 -5 0.05 0.03
-3 -2 -5 0.04 0.02
3 2 5 -0.02 0.02
3 2 5 0.03 0.02
3 2 5 0.01 0.02
-4 -2 -5 8.97 0.24
-4 -2 -5 8.74 0.33
-4 -2 -5 8.74 0.27
-4 -2 -5 8.77 0.25
4 2 5 8.73 0.24
4 2 5 8.75 0.29
4 2 5 9.13 0.25
-5 -2 -5 34.79 0.76
-5 -2 -5 35.07 0.73
-5 -2 -5 34.77 0.88
-5 -2 -5 34.94 0.72
5 2 5 34.98 0.83
5 2 5 35.43 0.74
-6 -2 -5 0.11 0.04
-6 -2 -5 0.07 0.03
-6 -2 -5 0.08 0.07
6 2 5 0.04 0.04
6 2 5 0.04 0.06
-7 -2 -5 1.22 0.08
-7 -2 -5 1.56 0.2
7 2 5 1.07 0.16
7 2 5 1.24 0.12
-8 -2 -5 11.8 0.51
-8 -2 -5 12.02 0.25
8 2 5 12.16 0.48
8 2 5 11.77 0.37
-9 -2 -5 3.04 0.31
9 2 5 2.92 0.18
9 2 5 3.68 0.28
10 -3 -5 2.38 0.27
10 -3 -5 2.4 0.26
-10 3 5 2.61 0.28
-10 3 5 2.7 0.31
9 -3 -5 3.28 0.26
9 -3 -5 3.73 0.28
-9 3 5 3.19 0.31
-9 3 5 4.12 0.29
8 -3 -5 2.23 0.23
8 -3 -5 2.17 0.21
-8 3 5 2.06 0.23
-8 3 5 1.77 0.21
7 -3 -5 0.09 0.07
7 -3 -5 0.05 0.07
-7 3 5 0.08 0.07
-7 3 5 0.06 0.07
6 -3 -5 4.17 0.23
6 -3 -5 3.95 0.2
6 -3 -5 4.19 0.23
-6 3 5 3.95 0.24
-6 3 5 4.18 0.24
5 -3 -5 1.98 0.15
5 -3 -5 2.37 0.15
5 -3 -5 2.17 0.16
-5 3 5 2.4 0.17
-5 3 5 2.31 0.18
4 -3 -5 14.85 0.43
4 -3 -5 14.93 0.47
4 -3 -5 14.86 0.44
4 -3 -5 15.58 0.41
-4 3 5 14.06 0.43
-4 3 5 15.06 0.46
-4 3 5 15.52 0.44
3 -3 -5 7.67 0.27
3 -3 -5 8.02 0.31
3 -3 -5 8.03 0.28
3 -3 -5 7.64 0.24
-3 3 5 7.88 0.28
-3 3 5 8.08 0.28
-3 3 5 7.91 0.3
2 -3 -5 11.39 0.33
2 -3 -5 11.82 0.36
2 -3 -5 11.32 0.36
2 -3 -5 11.26 0.27
-2 3 5 11.61 0.34
-2 3 5 11.5 0.34
-2 3 5 11.67 0.36
1 -3 -5 29.2 0.69
1 -3 -5 30.18 0.66
1 -3 -5 29.94 0.7
1 -3 -5 29.71 0.56
-1 3 5 30.04 0.67
-1 3 5 30.06 0.67
-1 3 5 29.82 0.68
0 -3 -5 54.05 1.12
0 -3 -5 53.92 1.15
0 3 5 54.11 1.12
0 3 5 56.33 1.12
0 3 5 54.24 1.1
-1 -3 -5 7.05 0.22
-1 -3 -5 7.21 0.26
-1 -3 -5 6.87 0.23
1 3 5 7.38 0.22
1 3 5 6.73 0.21
1 3 5 7.07 0.25
1 3 5 7.4 0.16
-2 -3 -5 16.73 0.41
-2 -3 -5 17.11 0.4
-2 -3 -5 17.13 0.46
-2 -3 -5 15.63 0.46
2 3 5 16.75 0.4
2 3 5 16.94 0.39
2 3 5 17.39 0.38
-3 -3 -5 5.93 0.24
-3 -3 -5 5.76 0.18
-3 -3 -5 5.85 0.25
-3 -3 -5 5.86 0.18
3 3 5 5.58 0.18
3 3 5 5.76 0.2
3 3 5 5.59 0.18
-4 -3 -5 15.11 0.33
-4 -3 -5 15.28 0.43
-4 -3 -5 14.33 0.47
-4 -3 -5 14.26 0.34
4 3 5 14.53 0.35
4 3 5 14.82 0.41
4 3 5 15.05 0.36
-5 -3 -5 0.26 0.1
-5 -3 -5 0.3 0.03
-5 -3 -5 0.28 0.07
-5 -3 -5 0.32 0.03
5 3 5 0.2 0.04
5 3 5 0.31 0.07
-6 -3 -5 0.16 0.09
6 3 5 0.11 0.04
6 3 5 0.09 0.06
-7 -3 -5 9 0.42
7 3 5 7.93 0.26
7 3 5 8.52 0.37
-8 -3 -5 0.62 0.15
8 3 5 0.55 0.13
8 3 5 0.72 0.09
-9 -3 -5 0.24 0.13
9 3 5 0.67 0.1
9 3 5 0.42 0.13
9 -4 -5 0.43 0.13
-9 4 5 0.88 0.17
-9 4 5 0.87 0.18
8 -4 -5 0.57 0.13
8 -4 -5 0.59 0.13
-8 4 5 0.5 0.14
-8 4 5 0.37 0.12
7 -4 -5 11.31 0.43
7 -4 -5 11.76 0.45
-7 4 5 12 0.48
-7 4 5 11.9 0.48
6 -4 -5 36.17 0.91
6 -4 -5 36.5 0.86
6 -4 -5 37.53 0.89
-6 4 5 35.66 0.95
-6 4 5 36.09 0.94
5 -4 -5 0.02 0.05
5 -4 -5 0.11 0.06
5 -4 -5 0.07 0.05
-5 4 5 0.04 0.06
-5 4 5 0.05 0.06
4 -4 -5 -0.01 0.04
4 -4 -5 0.07 0.05
4 -4 -5 -0.03 0.03
4 -4 -5 0.07 0.05
-4 4 5 -0.04 0.04
-4 4 5 -0.06 0.04
-4 4 5 -0.01 0.04
3 -4 -5 12.56 0.39
3 -4 -5 12.8 0.32
3 -4 -5 13.23 0.41
3 -4 -5 12.91 0.43
-3 4 5 12.55 0.4
-3 4 5 12.41 0.42
-3 4 5 12.75 0.4
2 -4 -5 0.74 0.05
2 -4 -5 0.98 0.11
2 -4 -5 0.75 0.11
2 -4 -5 0.67 0.1
-2 4 5 0.73 0.1
-2 4 5 0.9 0.12
-2 4 5 0.54 0.08
1 -4 -5 0.12 0.06
1 -4 -5 0.16 0.05
1 -4 -5 0.21 0.06
-1 4 5 0.22 0.06
-1 4 5 0.1 0.04
-1 4 5 0.07 0.04
0 -4 -5 1.65 0.12
0 -4 -5 1.94 0.12
0 -4 -5 1.7 0.13
0 4 5 1.76 0.12
0 4 5 1.63 0.11
-1 -4 -5 10.64 0.3
-1 -4 -5 10.14 0.31
-1 -4 -5 9.96 0.35
1 4 5 9.88 0.29
1 4 5 10.14 0.34
1 4 5 10.56 0.29
-2 -4 -5 0.28 0.05
-2 -4 -5 0.18 0.04
-2 -4 -5 0.09 0.06
2 4 5 0.16 0.06
2 4 5 0.27 0.05
2 4 5 0.29 0.05
2 4 5 0.23 0.03
-3 -4 -5 1.28 0.14
-3 -4 -5 1.26 0.15
-3 -4 -5 1.09 0.07
-3 -4 -5 1.03 0.07
3 4 5 0.97 0.13
3 4 5 1 0.08
3 4 5 1 0.08
3 4 5 1.01 0.08
-4 -4 -5 7.11 0.16
-4 -4 -5 6.79 0.29
-4 -4 -5 6.97 0.16
-4 -4 -5 6.19 0.3
4 4 5 6.88 0.21
4 4 5 6.76 0.24
-5 -4 -5 0 0.06
-5 -4 -5 0.08 0.06
5 4 5 0.08 0.04
5 4 5 0.02 0.05
-6 -4 -5 0.41 0.11
6 4 5 0.45 0.1
6 4 5 0.51 0.07
-7 -4 -5 20.63 0.69
7 4 5 19.71 0.61
7 4 5 20.2 0.48
-8 -4 -5 16.99 0.64
8 4 5 15.63 0.41
8 4 5 15.32 0.6
-9 -4 -5 0.03 0.11
9 4 5 -0.06 0.04
-9 5 5 0.12 0.11
-9 5 5 0.06 0.11
-8 5 5 0.64 0.16
-8 5 5 0.47 0.14
-7 5 5 0.64 0.14
-7 5 5 0.86 0.16
-6 5 5 3.67 0.26
-6 5 5 4.06 0.27
5 -5 -5 0.94 0.13
-5 5 5 0.88 0.14
-5 5 5 0.69 0.13
4 -5 -5 0 0.07
4 -5 -5 0.05 0.06
-4 5 5 0.03 0.05
-4 5 5 0.11 0.06
3 -5 -5 3 0.2
3 -5 -5 3.2 0.22
-3 5 5 3.57 0.2
-3 5 5 3.46 0.21
2 -5 -5 18.68 0.56
2 -5 -5 18.77 0.55
-2 5 5 19.17 0.53
-2 5 5 18.59 0.53
1 -5 -5 0.06 0.06
1 -5 -5 0.1 0.06
-1 5 5 0.06 0.05
-1 5 5 0.15 0.06
0 -5 -5 0.31 0.08
0 -5 -5 0.3 0.07
0 5 5 0.23 0.06
0 5 5 0.3 0.07
-1 -5 -5 11.76 0.36
-1 -5 -5 11 0.41
1 5 5 11.65 0.39
1 5 5 11.23 0.34
-2 -5 -5 4.42 0.18
-2 -5 -5 4.69 0.25
2 5 5 4.89 0.24
2 5 5 4.76 0.19
-3 -5 -5 46.3 0.93
-3 -5 -5 46.54 1.1
-3 -5 -5 47.07 0.92
3 5 5 46.12 0.96
3 5 5 45.65 1.08
-4 -5 -5 0.49 0.1
4 5 5 0.45 0.11
4 5 5 0.47 0.07
-5 -5 -5 4.2 0.27
-5 -5 -5 4.05 0.24
5 5 5 4.24 0.16
-6 -5 -5 0.08 0.08
6 5 5 0.1 0.04
-7 -5 -5 -0.03 0.08
7 5 5 -0.02 0.03
-8 -5 -5 0.18 0.11
8 5 5 0.12 0.05
-8 6 5 0.53 0.15
-7 6 5 8.34 0.43
-6 6 5 1.18 0.18
5 -6 -5 0.2 0.08
-5 6 5 0.04 0.08
4 -6 -5 17.96 0.57
4 -6 -5 17.71 0.61
-4 6 5 18.37 0.59
3 -6 -5 1.33 0.16
3 -6 -5 1.44 0.18
-3 6 5 1.22 0.15
-3 6 5 1.75 0.18
2 -6 -5 2.02 0.2
2 -6 -5 1.92 0.2
-2 6 5 2.05 0.17
-2 6 5 2.26 0.2
1 -6 -5 0.05 0.05
1 -6 -5 0.01 0.05
-1 6 5 0.02 0.05
-1 6 5 -0.03 0.04
0 -6 -5 0.89 0.12
0 -6 -5 0.88 0.14
0 6 5 1.32 0.14
0 6 5 0.9 0.13
-1 -6 -5 7.21 0.28
-1 -6 -5 8.33 0.36
1 6 5 7.9 0.33
1 6 5 7.43 0.28
-2 -6 -5 4.31 0.27
-2 -6 -5 4.19 0.19
2 6 5 3.81 0.23
2 6 5 4.01 0.19
-3 -6 -5 4.01 0.15
-3 -6 -5 4.47 0.27
3 6 5 3.88 0.24
3 6 5 4.12 0.18
-4 -6 -5 48.17 1.17
4 6 5 47.19 1.15
4 6 5 46.39 0.99
-5 -6 -5 0.84 0.15
5 6 5 0.8 0.15
5 6 5 0.89 0.09
6 6 5 38.11 0.8
6 6 5 38.56 1.04
7 6 5 9.61 0.47
7 6 5 9.37 0.27
-7 7 5 0 0.08
-6 7 5 0.16 0.11
5 -7 -5 0.9 0.15
-5 7 5 0.92 0.17
4 -7 -5 12 0.48
4 -7 -5 13.4 0.53
-4 7 5 12.78 0.5
3 -7 -5 23.53 0.73
3 -7 -5 24.83 0.76
-3 7 5 25.77 0.73
-3 7 5 24.8 0.73
2 -7 -5 1.67 0.2
2 -7 -5 1.96 0.21
-2 7 5 1.67 0.19
-2 7 5 2.2 0.21
1 -7 -5 2.4 0.19
1 -7 -5 2.42 0.24
-1 7 5 2.37 0.19
-1 7 5 1.87 0.2
0 -7 -5 0.14 0.09
0 -7 -5 0.16 0.08
0 7 5 0.24 0.08
0 7 5 0.28 0.09
-1 -7 -5 1.2 0.14
-1 -7 -5 1.24 0.18
1 7 5 1.26 0.16
1 7 5 1.35 0.15
-2 -7 -5 1.15 0.12
-2 -7 -5 1.04 0.17
2 7 5 1.2 0.13
2 7 5 1.11 0.16
-3 -7 -5 7.97 0.23
-3 -7 -5 7.71 0.39
3 7 5 8.81 0.38
3 7 5 8.25 0.3
-4 -7 -5 5.47 0.33
4 7 5 4.89 0.3
4 7 5 4.92 0.21
-5 -7 -5 0.24 0.11
5 7 5 0.16 0.05
5 7 5 0.2 0.1
6 7 5 15.87 0.4
6 7 5 14.88 0.59
-6 8 5 1.38 0.22
5 -8 -5 1.74 0.22
-5 8 5 2.52 0.28
4 -8 -5 1.64 0.22
4 -8 -5 1.59 0.23
-4 8 5 1.81 0.23
3 -8 -5 0.43 0.12
3 -8 -5 0.65 0.15
-3 8 5 0.6 0.13
-3 8 5 0.37 0.12
2 -8 -5 6.57 0.35
2 -8 -5 6.08 0.36
-2 8 5 6.24 0.33
-2 8 5 5.88 0.33
1 -8 -5 6.75 0.39
1 -8 -5 7.82 0.37
-1 8 5 7.91 0.38
-1 8 5 7.89 0.36
0 -8 -5 0.26 0.09
0 -8 -5 0.37 0.13
0 8 5 0.36 0.1
0 8 5 0.28 0.1
-1 -8 -5 0.03 0.09
-1 -8 -5 0.01 0.05
1 8 5 -0.02 0.05
1 8 5 -0.02 0.06
-2 -8 -5 13.83 0.57
-2 -8 -5 14.26 0.41
2 8 5 13.53 0.45
2 8 5 14 0.52
-3 -8 -5 15.66 0.36
-3 -8 -5 15.47 0.61
3 8 5 15.28 0.47
3 8 5 16.06 0.57
-4 -8 -5 0.12 0.11
4 8 5 0.2 0.1
4 8 5 0.2 0.06
-5 -8 -5 3.35 0.33
5 8 5 2.78 0.17
5 8 5 3.61 0.28
-5 9 5 2.71 0.31
4 -9 -5 0.25 0.13
4 -9 -5 0.61 0.17
-4 9 5 0.37 0.14
3 -9 -5 1.59 0.23
3 -9 -5 1.14 0.2
-3 9 5 1.42 0.21
-3 9 5 1.56 0.22
2 -9 -5 7.44 0.39
2 -9 -5 7.39 0.42
-2 9 5 6.63 0.37
-2 9 5 7.25 0.38
1 -9 -5 0.11 0.11
1 -9 -5 0.17 0.09
-1 9 5 0.22 0.11
-1 9 5 0.03 0.08
0 -9 -5 4.5 0.27
0 -9 -5 4.84 0.34
0 9 5 4.24 0.29
0 9 5 4.77 0.28
-1 -9 -5 0.45 0.15
-1 -9 -5 0.53 0.1
1 9 5 0.24 0.09
1 9 5 0.51 0.13
-2 -9 -5 2.16 0.15
-2 -9 -5 2.19 0.28
2 9 5 1.84 0.19
2 9 5 2.44 0.27
-3 -9 -5 4.18 0.33
3 9 5 4.32 0.3
3 9 5 4.23 0.24
1 -10 -5 0.28 0.11
1 -10 -5 0.06 0.12
-1 10 5 0.23 0.12
-1 10 5 0.35 0.13
0 -10 -5 5.4 0.31
0 -10 -5 5.47 0.39
3 10 -6 0.92 0.14
3 10 -6 1.29 0.22
-3 -10 6 1.13 0.21
2 10 -6 -0.01 0.06
-2 -10 6 -0.02 0.04
-2 -10 6 0.04 0.1
1 10 -6 1.36 0.17
-1 -10 6 1.06 0.14
-1 -10 6 0.87 0.19
0 10 -6 0.32 0.1
0 -10 6 0.2 0.11
0 -10 6 0.33 0.1
-1 10 -6 6.63 0.36
1 -10 6 6.49 0.35
1 -10 6 7.37 0.41
-2 10 -6 3.59 0.28
2 -10 6 3.85 0.29
2 -10 6 4.1 0.3
3 -10 6 0.84 0.17
5 9 -6 1.01 0.21
5 9 -6 0.78 0.1
4 9 -6 1.06 0.21
4 9 -6 0.62 0.1
3 9 -6 1.22 0.14
3 9 -6 0.89 0.18
-3 -9 6 1.21 0.09
-3 -9 6 1.21 0.21
2 9 -6 0.44 0.1
-2 -9 6 0.26 0.07
-2 -9 6 0.28 0.12
1 9 -6 0.13 0.07
-1 -9 6 0.13 0.07
-1 -9 6 0.2 0.11
0 9 -6 3.45 0.24
0 -9 6 3.66 0.27
0 -9 6 3.64 0.24
-1 9 -6 8.36 0.38
1 -9 6 8.1 0.4
1 -9 6 8.09 0.38
-2 9 -6 0.05 0.07
2 -9 6 0.03 0.08
2 -9 6 0.02 0.07
-3 9 -6 5.02 0.31
-3 9 -6 4.21 0.28
3 -9 6 4.72 0.29
3 -9 6 4.75 0.32
-4 9 -6 2.13 0.25
4 -9 6 2.48 0.28
-5 9 -6 3.1 0.31
6 8 -6 0.78 0.18
5 8 -6 5.34 0.35
5 8 -6 5.92 0.23
4 8 -6 39.07 0.87
4 8 -6 37.89 1.08
3 8 -6 2.38 0.16
3 8 -6 2.34 0.25
-3 -8 6 2.39 0.13
-3 -8 6 2.13 0.24
2 8 -6 6.25 0.28
-2 -8 6 6.17 0.25
-2 -8 6 6.2 0.35
1 8 -6 4 0.23
-1 -8 6 4.14 0.22
-1 -8 6 4.07 0.28
0 8 -6 1.74 0.18
0 -8 6 1.73 0.18
0 -8 6 1.55 0.17
0 -8 6 1.6 0.21
-1 8 -6 -0.01 0.06
-1 8 -6 0 0.06
1 -8 6 0.03 0.05
1 -8 6 0.03 0.07
1 -8 6 -0.04 0.06
-2 8 -6 3.66 0.24
-2 8 -6 3.63 0.23
2 -8 6 3.21 0.24
2 -8 6 3.84 0.22
2 -8 6 3.47 0.25
-3 8 -6 2.99 0.23
-3 8 -6 2.94 0.22
3 -8 6 3.36 0.25
3 -8 6 2.59 0.21
3 -8 6 2.82 0.2
-4 8 -6 0.07 0.07
4 -8 6 0.12 0.08
4 -8 6 -0.05 0.06
-5 8 -6 0.44 0.13
5 -8 6 0.19 0.09
-6 8 -6 4.13 0.32
6 -8 6 4.06 0.29
-7 8 -6 -0.09 0.1
7 7 -6 0.44 0.07
7 7 -6 0.21 0.11
-7 -7 6 0.74 0.17
6 7 -6 0.04 0.04
6 7 -6 0.12 0.11
-6 -7 6 0.18 0.1
5 7 -6 0.04 0.09
5 7 -6 0.13 0.05
-5 -7 6 0.22 0.11
4 7 -6 3.2 0.17
4 7 -6 3.44 0.26
-4 -7 6 3.38 0.24
3 7 -6 5.14 0.22
3 7 -6 5.42 0.31
-3 -7 6 5.5 0.31
-3 -7 6 5.2 0.28
-3 -7 6 5.21 0.19
2 7 -6 18.18 0.5
-2 -7 6 18.76 0.56
-2 -7 6 17.97 0.6
-2 -7 6 17.68 0.47
1 7 -6 1.2 0.13
-1 -7 6 0.87 0.11
-1 -7 6 1.21 0.16
-1 -7 6 1.1 0.14
0 7 -6 5.66 0.26
0 7 -6 5.23 0.23
0 -7 6 5.33 0.29
0 -7 6 6.04 0.27
0 -7 6 5.65 0.26
-1 7 -6 16.58 0.48
-1 7 -6 16.4 0.51
1 -7 6 17.07 0.53
1 -7 6 16.45 0.5
1 -7 6 16.14 0.53
-2 7 -6 5.47 0.28
-2 7 -6 5.6 0.26
2 -7 6 5.23 0.26
2 -7 6 5.69 0.28
2 -7 6 4.94 0.28
-3 7 -6 0.04 0.06
-3 7 -6 0.04 0.06
3 -7 6 0.07 0.07
3 -7 6 0.03 0.07
3 -7 6 0.01 0.05
-4 7 -6 1.52 0.19
4 -7 6 1.77 0.21
4 -7 6 1.87 0.19
-5 7 -6 5.59 0.32
5 -7 6 5.3 0.29
-6 7 -6 4.59 0.31
6 -7 6 4.36 0.28
-7 7 -6 0.17 0.12
7 -7 6 0.12 0.09
-8 7 -6 4.09 0.33
8 -7 6 4.3 0.31
8 6 -6 4.8 0.18
-8 -6 6 5.31 0.36
7 6 -6 -0.01 0.03
7 6 -6 -0.04 0.08
-7 -6 6 0.06 0.09
6 6 -6 3.76 0.16
6 6 -6 4.76 0.3
-6 -6 6 4.14 0.29
5 6 -6 8.93 0.27
5 6 -6 8.49 0.39
-5 -6 6 9.47 0.41
4 6 -6 5.78 0.31
4 6 -6 5.15 0.2
-4 -6 6 5.53 0.12
-4 -6 6 5.83 0.3
-4 -6 6 5.02 0.11
3 6 -6 2.62 0.21
3 6 -6 2.44 0.14
-3 -6 6 2.81 0.13
-3 -6 6 2.56 0.19
2 6 -6 17.78 0.46
-2 -6 6 16.9 0.55
-2 -6 6 17.37 0.45
-2 -6 6 17.33 0.52
1 6 -6 4.73 0.18
1 6 -6 5.04 0.22
-1 -6 6 4.99 0.22
-1 -6 6 4.66 0.26
-1 -6 6 5.35 0.24
0 6 -6 0.37 0.07
0 6 -6 0.37 0.07
0 -6 6 0.2 0.08
0 -6 6 0.39 0.08
0 -6 6 0.32 0.07
-1 6 -6 12.93 0.38
-1 6 -6 13.35 0.41
1 -6 6 12.38 0.42
1 -6 6 12.37 0.42
1 -6 6 12.9 0.41
-2 6 -6 0.02 0.05
-2 6 -6 0.09 0.05
2 -6 6 0.11 0.07
2 -6 6 0.02 0.05
2 -6 6 0.07 0.05
-3 6 -6 1.18 0.15
-3 6 -6 1.05 0.13
3 -6 6 1.23 0.14
3 -6 6 1.19 0.13
3 -6 6 0.96 0.14
-4 6 -6 0.67 0.12
4 -6 6 0.74 0.12
4 -6 6 0.72 0.13
-5 6 -6 1.29 0.17
5 -6 6 1.3 0.16
-6 6 -6 1.1 0.18
6 -6 6 1.42 0.18
-7 6 -6 0.43 0.14
7 -6 6 0.47 0.12
-8 6 -6 12.26 0.56
8 -6 6 13.25 0.53
9 5 -6 0.19 0.06
-9 -5 6 0.05 0.11
8 5 -6 -0.03 0.04
-8 -5 6 -0.03 0.08
7 5 -6 1.56 0.19
7 5 -6 1.74 0.11
-7 -5 6 1.52 0.22
6 5 -6 0.81 0.14
6 5 -6 0.73 0.08
-6 -5 6 0.91 0.16
5 5 -6 4.36 0.17
5 5 -6 4.44 0.26
-5 -5 6 4.6 0.27
4 5 -6 0.21 0.08
4 5 -6 0.54 0.07
-4 -5 6 0.47 0.05
-4 -5 6 0.47 0.05
-4 -5 6 0.54 0.11
3 5 -6 8.41 0.35
3 5 -6 8.48 0.26
-3 -5 6 8.6 0.25
-3 -5 6 8.22 0.33
-3 -5 6 8.82 0.25
2 5 -6 0.75 0.08
2 5 -6 0.39 0.09
2 5 -6 0.56 0.06
-2 -5 6 0.51 0.07
-2 -5 6 0.46 0.07
-2 -5 6 0.46 0.09
1 5 -6 0.21 0.04
1 5 -6 0.21 0.05
-1 -5 6 0.23 0.06
-1 -5 6 0.31 0.07
-1 -5 6 0.18 0.07
0 5 -6 12.17 0.31
0 5 -6 11.62 0.35
0 -5 6 11.08 0.36
0 -5 6 11.32 0.38
0 -5 6 11.08 0.35
-1 5 -6 12.3 0.38
-1 5 -6 12.74 0.35
1 -5 6 13.01 0.4
1 -5 6 12.75 0.39
1 -5 6 12.33 0.38
-2 5 -6 -0.04 0.03
-2 5 -6 0 0.05
-2 5 -6 0 0.05
2 -5 6 0 0.04
2 -5 6 -0.04 0.04
2 -5 6 -0.06 0.03
-3 5 -6 8.4 0.32
-3 5 -6 8.34 0.34
-3 5 -6 8.9 0.33
-3 5 -6 8.16 0.28
3 -5 6 7.85 0.33
3 -5 6 8.12 0.31
-4 5 -6 21.95 0.62
-4 5 -6 21.49 0.65
4 -5 6 22.43 0.61
4 -5 6 21.21 0.63
-5 5 -6 0.69 0.13
-5 5 -6 0.63 0.13
5 -5 6 0.76 0.12
-6 5 -6 6.54 0.35
-6 5 -6 6.69 0.35
6 -5 6 6.41 0.32
-7 5 -6 1.95 0.24
-7 5 -6 2.06 0.24
7 -5 6 2.17 0.23
-8 5 -6 6.18 0.37
-8 5 -6 5.19 0.36
8 -5 6 6.05 0.35
-9 5 -6 2.68 0.32
-9 5 -6 2.51 0.29
9 -5 6 3.31 0.32
9 4 -6 1.71 0.13
-9 -4 6 1.98 0.27
8 4 -6 1.69 0.12
-8 -4 6 1.19 0.2
7 4 -6 0.04 0.06
7 4 -6 0.07 0.04
-7 -4 6 0.08 0.08
6 4 -6 22.4 0.66
6 4 -6 23.22 0.54
-6 -4 6 24.14 0.73
5 4 -6 0.01 0.06
5 4 -6 0.05 0.03
-5 -4 6 -0.07 0.05
-5 -4 6 0.03 0.02
-5 -4 6 0.05 0.02
4 4 -6 3.08 0.13
4 4 -6 3.21 0.2
4 4 -6 2.99 0.13
-4 -4 6 3.11 0.12
-4 -4 6 2.96 0.11
-4 -4 6 2.78 0.19
3 4 -6 26.39 0.58
3 4 -6 26.25 0.57
3 4 -6 26.28 0.53
3 4 -6 25.48 0.67
-3 -4 6 25.69 0.67
-3 -4 6 26.07 0.57
-3 -4 6 26.63 0.57
2 4 -6 2.1 0.11
2 4 -6 2.22 0.08
2 4 -6 2.2 0.11
2 4 -6 1.86 0.14
-2 -4 6 2.08 0.12
-2 -4 6 2.21 0.15
-2 -4 6 1.99 0.11
1 4 -6 4.12 0.2
1 4 -6 4.02 0.12
1 4 -6 3.87 0.16
1 4 -6 3.96 0.16
-1 -4 6 4.08 0.17
-1 -4 6 3.86 0.19
-1 -4 6 4.06 0.17
0 4 -6 3.76 0.18
0 4 -6 3.78 0.18
0 4 -6 3.59 0.17
0 4 -6 3.69 0.14
0 -4 6 3.94 0.18
0 -4 6 3.8 0.18
-1 4 -6 31.16 0.72
-1 4 -6 31.05 0.73
-1 4 -6 32.67 0.69
-1 4 -6 31.67 0.75
1 -4 6 30.99 0.73
1 -4 6 33.06 0.71
1 -4 6 32.73 0.75
-2 4 -6 3.64 0.17
-2 4 -6 3.5 0.19
-2 4 -6 3.57 0.17
-2 4 -6 3.49 0.18
2 -4 6 3.51 0.18
2 -4 6 3.54 0.19
2 -4 6 3.61 0.17
-3 4 -6 2.17 0.19
-3 4 -6 1.95 0.11
-3 4 -6 1.95 0.14
3 -4 6 1.83 0.14
3 -4 6 1.59 0.13
3 -4 6 1.73 0.13
-4 4 -6 11.31 0.4
-4 4 -6 11.46 0.41
4 -4 6 11.12 0.38
4 -4 6 11.3 0.4
4 -4 6 11.76 0.38
-5 4 -6 12.45 0.45
-5 4 -6 12.28 0.45
5 -4 6 13.45 0.44
5 -4 6 12.9 0.43
-6 4 -6 0.45 0.12
-6 4 -6 0.51 0.12
6 -4 6 0.56 0.12
6 -4 6 0.78 0.13
-7 4 -6 0.01 0.08
-7 4 -6 0 0.07
7 -4 6 0 0.06
7 -4 6 0.12 0.08
-8 4 -6 0.17 0.1
-8 4 -6 0.14 0.1
8 -4 6 0.2 0.11
8 -4 6 0.21 0.09
-9 4 -6 1.61 0.22
-9 4 -6 1.74 0.26
9 -4 6 1.22 0.18
9 -4 6 1.84 0.24
9 3 -6 0.01 0.05
-9 -3 6 0.02 0.09
8 3 -6 5.58 0.24
-8 -3 6 6.97 0.39
7 3 -6 1.69 0.18
7 3 -6 1.62 0.12
-7 -3 6 1.45 0.07
-7 -3 6 1.47 0.07
-7 -3 6 1.27 0.19
6 3 -6 0.25 0.08
6 3 -6 0.3 0.06
-6 -3 6 0.33 0.04
-6 -3 6 0.24 0.09
-6 -3 6 0.35 0.05
5 3 -6 0.39 0.06
5 3 -6 0.41 0.09
-5 -3 6 0.39 0.07
-5 -3 6 0.34 0.05
-5 -3 6 0.27 0.04
-5 -3 6 0.26 0.08
4 3 -6 0.83 0.08
4 3 -6 0.87 0.08
4 3 -6 1.02 0.12
-4 -3 6 0.78 0.07
-4 -3 6 0.79 0.07
-4 -3 6 0.85 0.07
-4 -3 6 0.91 0.12
3 3 -6 -0.01 0.02
3 3 -6 0.02 0.02
3 3 -6 -0.01 0.02
3 3 -6 -0.05 0.03
-3 -3 6 0.03 0.03
-3 -3 6 0 0.04
-3 -3 6 0.02 0.02
2 3 -6 0.35 0.05
2 3 -6 0.42 0.02
2 3 -6 0.42 0.08
2 3 -6 0.4 0.06
-2 -3 6 0.38 0.07
-2 -3 6 0.43 0.06
-2 -3 6 0.45 0.06
1 3 -6 56.15 1.19
1 3 -6 57.2 1.14
1 3 -6 59.23 1.06
-1 -3 6 58.21 1.16
-1 -3 6 56.91 1.19
-1 -3 6 58.57 1.16
0 3 -6 227.15 4.22
0 3 -6 221.96 4.22
0 3 -6 233.81 4.2
0 3 -6 237.18 4.22
0 -3 6 234.59 4.17
0 -3 6 221.44 4.2
0 -3 6 218.34 4.31
-1 3 -6 27.35 0.59
-1 3 -6 27.21 0.65
-1 3 -6 28.56 0.63
1 -3 6 26.81 0.64
1 -3 6 28.23 0.62
1 -3 6 28.49 0.64
-2 3 -6 0 0.03
-2 3 -6 -0.03 0.03
-2 3 -6 -0.05 0.02
-2 3 -6 0.05 0.03
2 -3 6 -0.01 0.03
2 -3 6 0.02 0.03
2 -3 6 0.01 0.04
-3 3 -6 2.47 0.15
-3 3 -6 2.54 0.11
3 -3 6 2.41 0.14
3 -3 6 2.4 0.15
-4 3 -6 6.31 0.28
-4 3 -6 6.65 0.28
4 -3 6 6.47 0.27
4 -3 6 6.13 0.25
4 -3 6 5.97 0.26
-5 3 -6 1.33 0.16
-5 3 -6 1.63 0.18
5 -3 6 1.06 0.12
5 -3 6 1.28 0.14
-6 3 -6 33.62 0.9
-6 3 -6 32.72 0.87
6 -3 6 32.66 0.86
6 -3 6 34.81 0.84
-7 3 -6 15.84 0.55
-7 3 -6 15.55 0.57
7 -3 6 15.7 0.51
7 -3 6 16.03 0.54
-8 3 -6 1.5 0.22
-8 3 -6 1.56 0.2
8 -3 6 1.33 0.17
8 -3 6 1.54 0.21
-9 3 -6 1.63 0.22
-9 3 -6 1.73 0.25
9 -3 6 1.28 0.2
9 -3 6 1.86 0.21
10 2 -6 2.04 0.28
10 2 -6 2.39 0.21
9 2 -6 -0.09 0.04
-9 -2 6 -0.11 0.06
-9 -2 6 0.06 0.04
8 2 -6 0.56 0.1
-8 -2 6 0.36 0.06
-8 -2 6 0.45 0.13
7 2 -6 28.83 0.68
7 2 -6 29 0.74
-7 -2 6 26.58 0.82
-7 -2 6 29.51 0.65
6 2 -6 0.1 0.04
6 2 -6 0.2 0.08
-6 -2 6 0.25 0.06
-6 -2 6 0.2 0.09
-6 -2 6 0.19 0.05
5 2 -6 4.04 0.17
5 2 -6 4.33 0.21
-5 -2 6 4.33 0.17
-5 -2 6 4.06 0.17
-5 -2 6 4.27 0.24
-5 -2 6 4.09 0.16
4 2 -6 26.49 0.64
4 2 -6 24.95 0.57
4 2 -6 26.42 0.57
-4 -2 6 26.29 0.58
-4 -2 6 25.37 0.67
-4 -2 6 25.78 0.56
-4 -2 6 24.81 0.57
3 2 -6 53.94 1.14
3 2 -6 54.24 1.07
3 2 -6 55.46 1.07
-3 -2 6 55 1.16
-3 -2 6 53.16 1.08
-3 -2 6 53.6 1.02
-3 -2 6 54.29 1.09
2 2 -6 4.77 0.19
2 2 -6 4.64 0.16
2 2 -6 4.57 0.16
-2 -2 6 4.65 0.17
-2 -2 6 4.82 0.2
-2 -2 6 5.05 0.18
1 2 -6 52.38 1.04
1 2 -6 51.12 1.07
-1 -2 6 53.19 1.07
-1 -2 6 52.62 1.05
0 2 -6 12.5 0.34
0 2 -6 12.44 0.34
0 2 -6 13.01 0.33
0 2 -6 12.88 0.28
0 -2 6 12.61 0.34
0 -2 6 12.52 0.34
0 -2 6 13.38 0.32
-1 2 -6 29.59 0.62
-1 2 -6 29.17 0.65
-1 2 -6 29.37 0.64
-1 2 -6 30.37 0.68
1 -2 6 30.38 0.64
1 -2 6 29.71 0.66
1 -2 6 29.47 0.65
-2 2 -6 32.2 0.74
-2 2 -6 31.59 0.71
-2 2 -6 32.76 0.71
-2 2 -6 32.82 0.67
2 -2 6 32.55 0.71
2 -2 6 32.38 0.72
2 -2 6 33.39 0.73
-3 2 -6 3.92 0.13
-3 2 -6 3.6 0.18
-3 2 -6 3.7 0.18
3 -2 6 3.84 0.17
3 -2 6 3.66 0.17
-4 2 -6 2.81 0.09
-4 2 -6 2.57 0.17
-4 2 -6 2.7 0.17
4 -2 6 2.5 0.15
4 -2 6 3.06 0.17
-5 2 -6 19.5 0.55
-5 2 -6 18.25 0.56
5 -2 6 18.87 0.54
5 -2 6 18.92 0.51
-6 2 -6 0.04 0.06
-6 2 -6 -0.02 0.06
6 -2 6 0.03 0.05
6 -2 6 0.01 0.06
-7 2 -6 13.41 0.51
-7 2 -6 12.75 0.46
7 -2 6 12.81 0.44
7 -2 6 12.94 0.48
-8 2 -6 4.12 0.27
-8 2 -6 4.41 0.32
8 -2 6 4.55 0.26
8 -2 6 4.3 0.29
-9 2 -6 0.41 0.11
-9 2 -6 0.32 0.13
9 -2 6 0.32 0.1
9 -2 6 0.21 0.11
-10 2 -6 13.14 0.63
-10 2 -6 13.84 0.54
10 -2 6 15.08 0.61
10 -2 6 15.18 0.55
10 1 -6 2.93 0.22
10 1 -6 3.08 0.34
-10 -1 6 2.7 0.17
9 1 -6 -0.11 0.07
9 1 -6 -0.01 0.05
-9 -1 6 0 0.05
8 1 -6 2.12 0.16
-8 -1 6 1.98 0.23
-8 -1 6 2.15 0.15
7 1 -6 2.56 0.18
7 1 -6 2.63 0.16
-7 -1 6 2.02 0.16
-7 -1 6 2.45 0.25
-7 -1 6 2.31 0.15
6 1 -6 2.09 0.14
6 1 -6 2.03 0.15
-6 -1 6 2 0.2
-6 -1 6 2.49 0.15
-6 -1 6 2.31 0.14
5 1 -6 4.13 0.2
5 1 -6 4.15 0.18
-5 -1 6 4.08 0.18
-5 -1 6 3.77 0.22
-5 -1 6 3.94 0.18
4 1 -6 6.19 0.24
4 1 -6 6.68 0.22
4 1 -6 6.37 0.21
-4 -1 6 6.32 0.22
-4 -1 6 6.82 0.24
-4 -1 6 6.84 0.27
-4 -1 6 6.64 0.21
3 1 -6 3.87 0.15
3 1 -6 3.73 0.15
3 1 -6 3.54 0.17
-3 -1 6 4.17 0.17
-3 -1 6 3.82 0.16
-3 -1 6 3.73 0.13
2 1 -6 19.17 0.47
2 1 -6 19.24 0.44
-2 -1 6 19.58 0.45
-2 -1 6 19.04 0.38
-2 -1 6 18.55 0.47
1 1 -6 1.76 0.11
1 1 -6 1.94 0.11
1 1 -6 1.83 0.1
-1 -1 6 2 0.1
-1 -1 6 1.91 0.11
-1 -1 6 1.67 0.1
-1 -1 6 1.91 0.06
0 1 -6 231.87 4.45
0 1 -6 242.32 4.37
0 1 -6 248.84 4.5
0 1 -6 236.17 4.45
0 -1 6 227.47 4.36
0 -1 6 230.62 4.39
0 -1 6 248.85 4.5
-1 1 -6 92.95 1.72
-1 1 -6 88.27 1.76
-1 1 -6 92.03 1.73
-1 1 -6 92.32 1.73
1 -1 6 89.49 1.73
1 -1 6 89.8 1.74
1 -1 6 92.5 1.75
-2 1 -6 34.38 0.77
-2 1 -6 36.12 0.72
-2 1 -6 34.17 0.74
-2 1 -6 36.03 0.77
2 -1 6 36.19 0.77
2 -1 6 34.52 0.74
2 -1 6 36.64 0.76
-3 1 -6 14.13 0.32
-3 1 -6 14.08 0.41
-3 1 -6 13.93 0.4
-3 1 -6 14.03 0.36
3 -1 6 15.25 0.38
3 -1 6 14.73 0.4
3 -1 6 14.3 0.39
-4 1 -6 7.4 0.27
-4 1 -6 7.29 0.17
-4 1 -6 7.55 0.29
4 -1 6 6.82 0.24
4 -1 6 6.88 0.26
4 -1 6 7.32 0.26
-5 1 -6 14.93 0.49
-5 1 -6 15.22 0.45
5 -1 6 15.39 0.46
5 -1 6 14.55 0.42
-6 1 -6 4.62 0.23
-6 1 -6 4.3 0.26
6 -1 6 4.68 0.22
6 -1 6 4.54 0.24
-7 1 -6 4.85 0.26
-7 1 -6 4.9 0.31
7 -1 6 5.36 0.29
7 -1 6 5.14 0.25
-8 1 -6 0.22 0.12
-8 1 -6 0.38 0.1
8 -1 6 0.44 0.12
8 -1 6 0.5 0.11
-9 1 -6 4.18 0.33
-9 1 -6 3.49 0.24
9 -1 6 4.13 0.25
9 -1 6 4.41 0.3
-10 1 -6 2.31 0.3
-10 1 -6 2.42 0.23
10 -1 6 2.34 0.23
10 -1 6 2.41 0.28
10 0 -6 0.31 0.13
10 0 -6 0.25 0.1
-10 0 6 0.26 0.09
9 0 -6 0.29 0.12
9 0 -6 0.45 0.1
-9 0 6 0.45 0.1
8 0 -6 0.09 0.07
-8 0 6 -0.05 0.08
-8 0 6 0 0.06
-8 0 6 0.11 0.07
7 0 -6 4.55 0.23
-7 0 6 5.13 0.25
-7 0 6 4.87 0.29
-7 0 6 4.88 0.24
6 0 -6 2.43 0.16
6 0 -6 2.24 0.15
-6 0 6 2.55 0.16
-6 0 6 3.14 0.21
-6 0 6 2.43 0.16
5 0 -6 71.43 1.45
5 0 -6 72.98 1.47
-5 0 6 71.99 1.45
-5 0 6 70.64 1.53
-5 0 6 71.26 1.46
4 0 -6 129.27 2.43
4 0 -6 123.93 2.39
-4 0 6 126.16 2.38
-4 0 6 125.49 2.46
-4 0 6 124.88 2.41
-4 0 6 126.05 2.43
3 0 -6 5.75 0.22
3 0 -6 5.62 0.22
3 0 -6 5.65 0.2
-3 0 6 5.76 0.18
-3 0 6 5.54 0.21
-3 0 6 5.73 0.22
-3 0 6 6.17 0.22
2 0 -6 0.97 0.1
2 0 -6 1.11 0.08
2 0 -6 1.23 0.11
-2 0 6 1.04 0.06
-2 0 6 1.12 0.08
-2 0 6 1.04 0.1
1 0 -6 10.76 0.29
1 0 -6 11.07 0.31
1 0 -6 10.86 0.31
-1 0 6 11.25 0.29
-1 0 6 11.35 0.29
-1 0 6 11.15 0.25
-1 0 6 10.86 0.3
0 0 -6 28.19 0.63
0 0 -6 29.02 0.58
0 0 -6 28.13 0.6
0 0 -6 27.15 0.61
0 0 6 28.15 0.6
0 0 6 27.77 0.59
0 0 6 28.17 0.61
-1 0 -6 20.97 0.48
-1 0 -6 21.54 0.47
-1 0 -6 20.58 0.5
-1 0 -6 20.03 0.47
1 0 6 21.69 0.49
1 0 6 21.4 0.47
1 0 6 21.18 0.47
-2 0 -6 25.32 0.6
-2 0 -6 26.38 0.61
-2 0 -6 26.28 0.56
2 0 6 27.36 0.59
2 0 6 26.74 0.58
2 0 6 25.18 0.57
-3 0 -6 0.02 0.03
-3 0 -6 0.02 0.04
-3 0 -6 -0.02 0.03
-3 0 -6 0.01 0.02
-3 0 -6 -0.01 0.03
3 0 6 0.01 0.03
3 0 6 0.02 0.03
-4 0 -6 3.53 0.17
-4 0 -6 3.48 0.19
-4 0 -6 3.61 0.12
-4 0 -6 3.31 0.16
4 0 6 3.22 0.15
4 0 6 3.19 0.17
4 0 6 3.54 0.16
-5 0 -6 3.25 0.17
-5 0 -6 3.62 0.22
5 0 6 3.4 0.19
5 0 6 3.61 0.17
-6 0 -6 39.69 1
-6 0 -6 38.76 0.9
6 0 6 40.45 0.97
6 0 6 39.28 0.88
-7 0 -6 0.08 0.06
-7 0 -6 0.13 0.08
7 0 6 0.09 0.07
7 0 6 0 0.04
-8 0 -6 1.04 0.19
-8 0 -6 0.96 0.13
8 0 6 1.07 0.14
8 0 6 0.85 0.15
-9 0 -6 15.1 0.48
-9 0 -6 16.01 0.64
9 0 6 14.67 0.49
9 0 6 15.63 0.59
-10 0 -6 5.89 0.41
-10 0 -6 6.4 0.29
10 0 6 5.69 0.37
10 0 6 6.35 0.32
10 -1 -6 0.57 0.13
10 -1 -6 0.76 0.18
-10 1 6 0.75 0.14
9 -1 -6 6.74 0.39
9 -1 -6 7.2 0.34
-9 1 6 6.08 0.32
-9 1 6 6.65 0.36
8 -1 -6 0.28 0.11
8 -1 -6 0.35 0.1
-8 1 6 0.29 0.1
-8 1 6 0.36 0.1
7 -1 -6 1.13 0.14
-7 1 6 1.23 0.15
-7 1 6 1.19 0.15
-7 1 6 1.04 0.15
6 -1 -6 23.83 0.6
6 -1 -6 24.47 0.63
-6 1 6 23.45 0.67
-6 1 6 24.21 0.64
-6 1 6 24.14 0.65
5 -1 -6 -0.08 0.03
5 -1 -6 0.02 0.04
-5 1 6 0.04 0.04
-5 1 6 0 0.04
-5 1 6 0.03 0.04
4 -1 -6 19.75 0.53
4 -1 -6 19.57 0.5
4 -1 -6 18.51 0.49
-4 1 6 19.6 0.49
-4 1 6 19.99 0.49
-4 1 6 20.24 0.52
-4 1 6 18.94 0.52
3 -1 -6 14.25 0.38
3 -1 -6 14.61 0.41
3 -1 -6 14.41 0.39
-3 1 6 13.69 0.38
-3 1 6 14.47 0.36
-3 1 6 13.18 0.39
-3 1 6 14.29 0.37
2 -1 -6 6.58 0.23
2 -1 -6 6.55 0.22
2 -1 -6 7.12 0.25
-2 1 6 6.85 0.24
-2 1 6 6.73 0.21
-2 1 6 6.79 0.2
1 -1 -6 124.4 2.31
1 -1 -6 119.77 2.34
1 -1 -6 122.02 2.33
-1 1 6 124.58 2.3
-1 1 6 120.93 2.31
-1 1 6 122.89 2.31
-1 1 6 124.83 2.33
0 -1 -6 5.49 0.18
0 -1 -6 5.01 0.19
0 -1 -6 5.14 0.19
0 1 6 5.28 0.15
0 1 6 4.8 0.17
0 1 6 5.02 0.18
0 1 6 5.23 0.17
-1 -1 -6 2.77 0.14
-1 -1 -6 2.83 0.13
-1 -1 -6 2.77 0.14
1 1 6 2.78 0.13
1 1 6 2.62 0.1
1 1 6 2.66 0.12
-2 -1 -6 24.58 0.55
-2 -1 -6 23.77 0.56
-2 -1 -6 24.79 0.54
-2 -1 -6 23.86 0.58
2 1 6 23.78 0.53
2 1 6 24 0.53
2 1 6 23.95 0.53
-3 -1 -6 82.18 1.66
-3 -1 -6 83.63 1.58
-3 -1 -6 79.73 1.6
-3 -1 -6 82.91 1.59
3 1 6 80.72 1.6
3 1 6 82.8 1.58
3 1 6 81.32 1.57
-4 -1 -6 2.08 0.11
-4 -1 -6 1.88 0.17
-4 -1 -6 1.96 0.1
-4 -1 -6 2.13 0.13
4 1 6 1.89 0.11
4 1 6 2.09 0.11
4 1 6 1.72 0.12
-5 -1 -6 22.13 0.63
-5 -1 -6 20.79 0.52
5 1 6 20.27 0.56
5 1 6 20.85 0.51
-6 -1 -6 4.86 0.28
-6 -1 -6 5 0.21
6 1 6 5.11 0.26
6 1 6 4.73 0.2
-7 -1 -6 3.76 0.27
-7 -1 -6 3.56 0.18
7 1 6 3.8 0.24
7 1 6 3.23 0.18
-8 -1 -6 0.94 0.17
-8 -1 -6 1.01 0.11
8 1 6 1.3 0.14
8 1 6 0.77 0.15
-9 -1 -6 0.1 0.11
-9 -1 -6 0.01 0.05
9 1 6 0.08 0.08
9 1 6 0.15 0.07
10 -2 -6 0.77 0.16
10 -2 -6 1.2 0.19
-10 2 6 0.82 0.17
-10 2 6 1.03 0.2
9 -2 -6 3.15 0.24
9 -2 -6 2.96 0.29
-9 2 6 3.7 0.27
-9 2 6 3.46 0.26
8 -2 -6 13.01 0.51
8 -2 -6 13.64 0.48
-8 2 6 11.98 0.48
-8 2 6 12.66 0.48
7 -2 -6 0.19 0.08
7 -2 -6 0.14 0.07
-7 2 6 0.37 0.1
-7 2 6 0.21 0.09
6 -2 -6 8.16 0.32
6 -2 -6 8.15 0.34
6 -2 -6 8.39 0.3
-6 2 6 8.13 0.34
-6 2 6 8.38 0.33
5 -2 -6 17.16 0.48
5 -2 -6 17.42 0.49
-5 2 6 17.69 0.52
-5 2 6 17.1 0.49
-5 2 6 16.56 0.5
4 -2 -6 6.8 0.25
4 -2 -6 6.34 0.25
-4 2 6 6.59 0.25
-4 2 6 6.33 0.26
-4 2 6 6.16 0.24
-4 2 6 6.09 0.24
3 -2 -6 6.57 0.27
3 -2 -6 6.76 0.24
3 -2 -6 6.5 0.25
-3 2 6 6.65 0.23
-3 2 6 6.45 0.26
-3 2 6 6.64 0.23
-3 2 6 6.56 0.24
2 -2 -6 48.8 1.01
2 -2 -6 49.11 1.05
2 -2 -6 48.9 1.04
-2 2 6 48.23 0.97
-2 2 6 49.68 1.04
-2 2 6 48.95 1.01
-2 2 6 46.99 1
1 -2 -6 0.03 0.04
1 -2 -6 0.04 0.03
1 -2 -6 0.1 0.05
-1 2 6 0.07 0.04
-1 2 6 0.04 0.02
-1 2 6 0.06 0.03
-1 2 6 0.08 0.03
0 -2 -6 0.06 0.04
0 -2 -6 0.01 0.03
0 -2 -6 0 0.02
0 2 6 0.02 0.02
0 2 6 0.05 0.03
0 2 6 0.05 0.03
0 2 6 0.01 0.03
-1 -2 -6 2.39 0.12
-1 -2 -6 2.41 0.13
-1 -2 -6 2.37 0.13
1 2 6 2.44 0.12
1 2 6 2.39 0.09
1 2 6 2.48 0.14
-2 -2 -6 26.42 0.61
-2 -2 -6 26.63 0.59
-2 -2 -6 25.94 0.62
-2 -2 -6 27.73 0.65
2 2 6 27.22 0.58
2 2 6 27.69 0.57
2 2 6 26.74 0.58
-3 -2 -6 6.02 0.21
-3 -2 -6 6.18 0.23
-3 -2 -6 6.64 0.21
-3 -2 -6 6.89 0.27
3 2 6 6.05 0.2
3 2 6 6.37 0.2
3 2 6 6.17 0.21
-4 -2 -6 2.71 0.18
-4 -2 -6 2.84 0.13
-4 -2 -6 3.09 0.15
-4 -2 -6 2.95 0.14
4 2 6 2.97 0.13
4 2 6 3.18 0.14
4 2 6 2.85 0.15
-5 -2 -6 38.53 0.94
-5 -2 -6 36.46 0.8
-5 -2 -6 36.62 0.77
-5 -2 -6 37.22 0.79
5 2 6 35.9 0.86
5 2 6 36.09 0.78
-6 -2 -6 20.62 0.64
-6 -2 -6 20.16 0.48
6 2 6 19.45 0.49
6 2 6 20.09 0.58
-7 -2 -6 5.81 0.33
-7 -2 -6 5.88 0.2
7 2 6 5.4 0.29
7 2 6 5.57 0.23
-8 -2 -6 21.22 0.46
-8 -2 -6 21.48 0.73
8 2 6 20.3 0.55
8 2 6 22.3 0.69
-9 -2 -6 10.07 0.5
9 2 6 11.04 0.48
9 2 6 9.89 0.36
10 -3 -6 0.51 0.16
10 -3 -6 0.26 0.11
-10 3 6 0.36 0.12
-10 3 6 0.38 0.14
9 -3 -6 0.65 0.14
9 -3 -6 0.65 0.15
-9 3 6 0.65 0.15
-9 3 6 0.92 0.18
8 -3 -6 2.69 0.24
8 -3 -6 2.56 0.25
-8 3 6 2.69 0.26
-8 3 6 2.32 0.25
7 -3 -6 0.1 0.07
7 -3 -6 -0.03 0.06
-7 3 6 0.24 0.09
-7 3 6 0.1 0.08
6 -3 -6 6.49 0.27
6 -3 -6 6 0.28
6 -3 -6 6.21 0.29
-6 3 6 6.09 0.29
-6 3 6 5.93 0.31
5 -3 -6 12.27 0.39
5 -3 -6 12.31 0.39
5 -3 -6 12.77 0.41
-5 3 6 12.03 0.43
-5 3 6 12.33 0.41
4 -3 -6 7.05 0.25
4 -3 -6 7.33 0.28
4 -3 -6 6.89 0.3
4 -3 -6 6.74 0.27
-4 3 6 7.42 0.28
-4 3 6 6.85 0.3
-4 3 6 7.26 0.28
3 -3 -6 -0.01 0.03
3 -3 -6 -0.04 0.02
3 -3 -6 0.06 0.05
3 -3 -6 0.04 0.04
-3 3 6 0 0.04
-3 3 6 0.03 0.04
-3 3 6 -0.02 0.03
2 -3 -6 42.54 0.92
2 -3 -6 42.05 0.95
2 -3 -6 41.85 0.96
-2 3 6 41.71 0.92
-2 3 6 43.47 0.95
-2 3 6 43.59 0.93
-2 3 6 42.96 0.84
1 -3 -6 78.7 1.54
1 -3 -6 79.87 1.6
1 -3 -6 78.85 1.59
-1 3 6 77.09 1.55
-1 3 6 77.85 1.56
-1 3 6 78.91 1.58
0 -3 -6 0.63 0.08
0 -3 -6 0.67 0.1
0 3 6 0.76 0.09
0 3 6 0.76 0.09
0 3 6 0.84 0.09
-1 -3 -6 2.52 0.15
-1 -3 -6 2.51 0.13
-1 -3 -6 3.01 0.15
1 3 6 2.69 0.08
1 3 6 2.53 0.12
1 3 6 2.54 0.15
1 3 6 2.66 0.13
-2 -3 -6 22.62 0.54
-2 -3 -6 24.02 0.53
-2 -3 -6 23.08 0.59
-2 -3 -6 22.81 0.6
2 3 6 23.14 0.53
2 3 6 23.95 0.6
2 3 6 23.39 0.49
2 3 6 22.66 0.53
-3 -3 -6 1.4 0.09
-3 -3 -6 1.16 0.14
-3 -3 -6 1.25 0.09
-3 -3 -6 1.17 0.12
3 3 6 1.38 0.09
3 3 6 1.17 0.08
3 3 6 1.24 0.09
-4 -3 -6 6.69 0.21
-4 -3 -6 6.38 0.29
-4 -3 -6 6.73 0.2
-4 -3 -6 6.46 0.26
4 3 6 6.32 0.21
4 3 6 6.76 0.24
-5 -3 -6 23.38 0.5
-5 -3 -6 24.41 0.51
-5 -3 -6 24.2 0.7
-5 -3 -6 22.92 0.6
5 3 6 24.56 0.62
5 3 6 22.9 0.54
-6 -3 -6 17.1 0.34
-6 -3 -6 17.31 0.59
-6 -3 -6 17.96 0.35
6 3 6 17.24 0.44
6 3 6 17.57 0.53
-7 -3 -6 4.38 0.3
7 3 6 4.1 0.25
7 3 6 4.24 0.19
-8 -3 -6 4.5 0.32
8 3 6 4.23 0.2
8 3 6 4.88 0.29
-9 -3 -6 0.44 0.16
9 3 6 0.54 0.14
9 3 6 0.78 0.11
9 -4 -6 2.31 0.25
-9 4 6 2.35 0.27
-9 4 6 2.45 0.28
8 -4 -6 4.43 0.28
-8 4 6 4.59 0.32
-8 4 6 4.29 0.3
7 -4 -6 0.17 0.08
7 -4 -6 0.11 0.08
-7 4 6 0.13 0.1
-7 4 6 0.14 0.08
6 -4 -6 2.99 0.21
6 -4 -6 2.95 0.19
6 -4 -6 2.96 0.19
-6 4 6 3.28 0.24
-6 4 6 3.42 0.23
5 -4 -6 0.2 0.06
5 -4 -6 0.22 0.07
5 -4 -6 0.23 0.08
-5 4 6 0.24 0.08
-5 4 6 0.22 0.09
4 -4 -6 7.03 0.29
4 -4 -6 6.58 0.24
4 -4 -6 7.22 0.33
4 -4 -6 6.78 0.29
-4 4 6 6.66 0.29
-4 4 6 6.73 0.28
-4 4 6 7.24 0.32
3 -4 -6 1.46 0.14
3 -4 -6 1.41 0.09
3 -4 -6 1.19 0.14
3 -4 -6 1.48 0.15
-3 4 6 1.37 0.15
-3 4 6 1.55 0.15
-3 4 6 1.41 0.15
2 -4 -6 1.13 0.13
2 -4 -6 1.16 0.14
-2 4 6 1.53 0.12
-2 4 6 1.29 0.14
1 -4 -6 0.01 0.05
1 -4 -6 0 0.04
-1 4 6 0.01 0.03
-1 4 6 0.01 0.04
-1 4 6 -0.03 0.03
0 -4 -6 7.14 0.27
0 -4 -6 7.58 0.3
0 4 6 7.44 0.26
0 4 6 7.33 0.27
-1 -4 -6 7.46 0.27
-1 -4 -6 8.24 0.31
1 4 6 7.79 0.29
1 4 6 8.06 0.26
-2 -4 -6 0.02 0.03
-2 -4 -6 0.06 0.05
-2 -4 -6 0.04 0.04
2 4 6 -0.02 0.03
2 4 6 0.02 0.05
-3 -4 -6 4.59 0.18
-3 -4 -6 4.8 0.17
-3 -4 -6 4.36 0.23
3 4 6 4.58 0.24
3 4 6 4.74 0.18
3 4 6 4.56 0.17
-4 -4 -6 62.26 1.35
-4 -4 -6 62.5 1.19
-4 -4 -6 61.08 1.39
-4 -4 -6 61.9 1.18
4 4 6 59.49 1.25
4 4 6 61.48 1.22
-5 -4 -6 24.97 0.73
-5 -4 -6 25.61 0.68
5 4 6 24.83 0.63
5 4 6 24.55 0.57
-6 -4 -6 0.15 0.09
6 4 6 0.08 0.04
-7 -4 -6 6.67 0.37
7 4 6 6.13 0.22
-8 -4 -6 4.4 0.33
8 4 6 3.75 0.18
-9 5 6 0.44 0.14
-9 5 6 0.26 0.13
-8 5 6 0.08 0.09
-8 5 6 0.04 0.09
-7 5 6 3.28 0.26
-7 5 6 2.57 0.26
6 -5 -6 0.05 0.06
-6 5 6 0.12 0.09
-6 5 6 -0.11 0.05
5 -5 -6 10.89 0.4
-5 5 6 10.86 0.43
4 -5 -6 1.56 0.17
4 -5 -6 1.66 0.2
-4 5 6 1.27 0.16
-4 5 6 1.4 0.17
3 -5 -6 11.89 0.45
3 -5 -6 12.92 0.44
-3 5 6 12.19 0.42
-3 5 6 11.94 0.42
2 -5 -6 10.11 0.38
2 -5 -6 8.93 0.37
-2 5 6 9.78 0.36
-2 5 6 9.45 0.35
1 -5 -6 4.1 0.23
1 -5 -6 4.22 0.23
-1 5 6 4.09 0.21
-1 5 6 4.32 0.22
0 -5 -6 0.82 0.11
0 -5 -6 1.35 0.16
0 5 6 0.9 0.12
0 5 6 1.11 0.12
-1 -5 -6 32.29 0.77
-1 -5 -6 33.93 0.85
1 5 6 33.41 0.82
1 5 6 32.9 0.76
-2 -5 -6 71.6 1.54
-2 -5 -6 68.94 1.41
2 5 6 69.7 1.41
2 5 6 69.91 1.51
-3 -5 -6 0.56 0.07
-3 -5 -6 0.4 0.1
3 5 6 0.52 0.11
3 5 6 0.48 0.07
-4 -5 -6 44.02 1.07
-4 -5 -6 44.01 0.84
-4 -5 -6 43.81 0.84
4 5 6 44.36 1.08
4 5 6 43.34 0.92
-5 -5 -6 7.11 0.36
-5 -5 -6 7.05 0.33
5 5 6 6.62 0.23
5 5 6 7.07 0.36
-6 -5 -6 9.71 0.45
6 5 6 10.06 0.3
-7 -5 -6 1.98 0.25
7 5 6 1.67 0.12
-8 -5 -6 0.32 0.14
8 5 6 0.3 0.06
-8 6 6 0.17 0.12
-7 6 6 0.18 0.11
-6 6 6 4.47 0.3
5 -6 -6 8.95 0.38
-5 6 6 9.15 0.41
4 -6 -6 0.12 0.07
4 -6 -6 0.12 0.09
-4 6 6 0.12 0.08
3 -6 -6 5.62 0.31
3 -6 -6 6.38 0.32
-3 6 6 6.37 0.31
-3 6 6 6.2 0.3
2 -6 -6 0.87 0.14
2 -6 -6 0.83 0.14
-2 6 6 0.51 0.1
-2 6 6 0.71 0.12
1 -6 -6 2.29 0.22
1 -6 -6 2.85 0.2
-1 6 6 2.7 0.19
-1 6 6 2.62 0.19
0 -6 -6 3.34 0.2
0 -6 -6 2.91 0.22
0 6 6 3.15 0.2
0 6 6 3.47 0.2
-1 -6 -6 10.92 0.37
-1 -6 -6 10.99 0.44
1 6 6 10.69 0.4
1 6 6 11.01 0.36
-2 -6 -6 0.06 0.05
-2 -6 -6 0.14 0.08
2 6 6 0.07 0.05
2 6 6 0.04 0.06
-3 -6 -6 19.7 0.46
-3 -6 -6 19.18 0.63
3 6 6 18.53 0.6
3 6 6 18.71 0.5
-4 -6 -6 8.36 0.39
4 6 6 8.68 0.39
4 6 6 8.39 0.28
-5 -6 -6 0.09 0.08
5 6 6 0.01 0.04
5 6 6 -0.12 0.06
6 6 6 0.18 0.05
6 6 6 0.18 0.11
7 6 6 5.64 0.21
7 6 6 6.48 0.39
-7 7 6 5.43 0.36
-6 7 6 2.17 0.25
5 -7 -6 -0.03 0.07
-5 7 6 0.02 0.07
4 -7 -6 0.32 0.1
4 -7 -6 0.4 0.13
-4 7 6 0.49 0.13
3 -7 -6 0.21 0.1
3 -7 -6 0.05 0.09
-3 7 6 0.28 0.1
-3 7 6 0.12 0.08
2 -7 -6 2.75 0.23
2 -7 -6 2.83 0.27
-2 7 6 2.64 0.21
-2 7 6 3.24 0.22
1 -7 -6 4.21 0.28
1 -7 -6 3.65 0.25
-1 7 6 4.19 0.24
-1 7 6 3.9 0.25
0 -7 -6 33.88 0.87
0 -7 -6 33.48 0.95
0 7 6 35.17 0.91
0 7 6 35.52 0.87
-1 -7 -6 23.34 0.74
-1 -7 -6 23.04 0.63
1 7 6 23.78 0.64
1 7 6 22.83 0.68
-2 -7 -6 0.92 0.17
-2 -7 -6 0.67 0.1
2 7 6 0.7 0.14
2 7 6 0.66 0.1
-3 -7 -6 3.34 0.31
-3 -7 -6 3.08 0.14
3 7 6 3.29 0.19
3 7 6 3.09 0.23
-4 -7 -6 11.61 0.49
4 7 6 11.72 0.48
4 7 6 11.43 0.36
-5 -7 -6 2.21 0.26
5 7 6 1.61 0.13
5 7 6 2.06 0.24
6 7 6 0.77 0.17
6 7 6 0.92 0.1
-6 8 6 1.49 0.23
5 -8 -6 5.77 0.35
-5 8 6 6.17 0.37
4 -8 -6 6.2 0.36
4 -8 -6 5.42 0.36
-4 8 6 6.39 0.37
3 -8 -6 0.1 0.1
3 -8 -6 0.21 0.11
-3 8 6 0.27 0.1
-3 8 6 0.13 0.09
2 -8 -6 3.77 0.29
2 -8 -6 3.23 0.26
-2 8 6 3.8 0.26
-2 8 6 3.25 0.25
1 -8 -6 1.23 0.19
1 -8 -6 1.15 0.17
-1 8 6 1.27 0.17
-1 8 6 1.47 0.19
0 -8 -6 0.16 0.08
0 -8 -6 -0.02 0.08
0 8 6 0.07 0.07
0 8 6 0.03 0.07
-1 -8 -6 -0.1 0.08
-1 -8 -6 0 0.05
1 8 6 0.03 0.07
1 8 6 0.01 0.06
-2 -8 -6 0.07 0.09
-2 -8 -6 -0.01 0.05
2 8 6 0.05 0.06
2 8 6 0.03 0.07
-3 -8 -6 0.41 0.14
-3 -8 -6 0.45 0.06
3 8 6 0.43 0.12
3 8 6 0.55 0.1
-4 -8 -6 0 0.09
4 8 6 0.05 0.09
4 8 6 -0.04 0.04
-5 -8 -6 0.19 0.11
5 8 6 0.04 0.09
5 8 6 0.09 0.06
4 -9 -6 24.35 0.82
4 -9 -6 23.26 0.82
-4 9 6 22.74 0.8
3 -9 -6 4.8 0.34
3 -9 -6 4.54 0.34
-3 9 6 4.69 0.33
2 -9 -6 8.85 0.48
2 -9 -6 9.6 0.45
-2 9 6 9.61 0.45
-2 9 6 9.2 0.44
1 -9 -6 7.09 0.42
1 -9 -6 7.6 0.38
-1 9 6 7.51 0.38
-1 9 6 7.38 0.39
0 -9 -6 2.21 0.22
0 -9 -6 2.19 0.28
0 9 6 2.35 0.23
0 9 6 2.25 0.25
-1 -9 -6 0.02 0.09
-1 -9 -6 -0.03 0.05
1 9 6 -0.03 0.06
1 9 6 -0.09 0.05
-2 -9 -6 1.12 0.21
-2 -9 -6 0.85 0.11
2 9 6 0.82 0.13
2 9 6 1.05 0.18
-3 -9 -6 2.18 0.29
3 9 6 2.56 0.27
3 9 6 2.08 0.2
2 10 -7 1.56 0.18
2 10 -7 1.51 0.24
-2 -10 7 1.59 0.15
1 10 -7 1.59 0.19
1 10 -7 1.57 0.23
-1 -10 7 1.55 0.17
-1 -10 7 1.97 0.26
0 10 -7 1.1 0.17
0 -10 7 1.15 0.21
0 -10 7 1.24 0.17
-1 10 -7 4.25 0.29
1 -10 7 4.21 0.31
1 -10 7 4.21 0.29
-2 10 -7 2.01 0.23
2 -10 7 1.89 0.24
2 -10 7 1.31 0.21
3 -10 7 0.96 0.18
5 9 -7 1.71 0.16
5 9 -7 1.82 0.26
4 9 -7 1.43 0.15
4 9 -7 1.14 0.21
3 9 -7 7.92 0.43
3 9 -7 7.89 0.32
-3 -9 7 7.99 0.25
2 9 -7 -0.01 0.06
2 9 -7 -0.03 0.08
-2 -9 7 0.03 0.08
-2 -9 7 -0.07 0.04
1 9 -7 3.39 0.23
-1 -9 7 3.52 0.22
-1 -9 7 2.93 0.29
0 9 -7 0.51 0.12
0 -9 7 0.44 0.11
0 -9 7 0.51 0.14
-1 9 -7 1.17 0.17
1 -9 7 1.32 0.18
1 -9 7 1.13 0.19
-2 9 -7 0.8 0.15
2 -9 7 0.89 0.16
2 -9 7 0.95 0.16
3 -9 7 0.68 0.14
-4 9 -7 4.08 0.29
4 -9 7 3.7 0.3
-5 9 -7 0.04 0.09
6 8 -7 2.05 0.14
6 8 -7 2.37 0.29
5 8 -7 0.04 0.11
5 8 -7 0.19 0.06
4 8 -7 1.82 0.24
4 8 -7 1.87 0.15
-4 -8 7 1.9 0.23
3 8 -7 0.88 0.17
3 8 -7 0.58 0.1
-3 -8 7 0.9 0.1
-3 -8 7 0.89 0.15
2 8 -7 1.46 0.16
2 8 -7 1.69 0.22
-2 -8 7 1.72 0.14
-2 -8 7 1.35 0.18
-2 -8 7 1.66 0.22
1 8 -7 23.44 0.66
-1 -8 7 23.66 0.68
-1 -8 7 23.98 0.74
-1 -8 7 23.05 0.63
0 8 -7 2.86 0.2
0 -8 7 2.48 0.24
0 -8 7 2.55 0.2
0 -8 7 2.81 0.2
-1 8 -7 0.18 0.08
1 -8 7 0.25 0.09
1 -8 7 0.07 0.06
1 -8 7 0.05 0.08
-2 8 -7 1 0.14
-2 8 -7 0.93 0.15
2 -8 7 0.77 0.13
2 -8 7 0.57 0.13
2 -8 7 0.67 0.13
-3 8 -7 0.98 0.15
-3 8 -7 1.34 0.17
-3 8 -7 1.19 0.17
3 -8 7 0.83 0.15
3 -8 7 1.03 0.15
3 -8 7 0.94 0.15
-4 8 -7 2.61 0.25
4 -8 7 3.41 0.24
4 -8 7 2.85 0.29
-5 8 -7 0.41 0.12
5 -8 7 0.09 0.09
-6 8 -7 0.44 0.14
6 -8 7 0.32 0.12
7 7 -7 0.29 0.06
7 7 -7 0.26 0.13
-7 -7 7 0.14 0.11
6 7 -7 3.42 0.27
6 7 -7 3.21 0.16
-6 -7 7 3.13 0.31
5 7 -7 0.78 0.17
5 7 -7 0.83 0.1
-5 -7 7 0.64 0.14
4 7 -7 0.25 0.06
4 7 -7 0.21 0.1
-4 -7 7 0.22 0.03
-4 -7 7 0.11 0.08
-4 -7 7 0.17 0.03
3 7 -7 2.49 0.25
3 7 -7 1.88 0.14
-3 -7 7 2.35 0.13
-3 -7 7 2.12 0.21
2 7 -7 8.97 0.32
2 7 -7 8.95 0.4
-2 -7 7 8.94 0.37
-2 -7 7 8.52 0.3
1 7 -7 0.01 0.05
1 7 -7 -0.04 0.06
-1 -7 7 0.03 0.06
-1 -7 7 0.08 0.07
-1 -7 7 0 0.04
0 7 -7 3.45 0.21
0 -7 7 3.18 0.22
0 -7 7 2.86 0.2
0 -7 7 3.17 0.2
-1 7 -7 4.66 0.22
-1 7 -7 4.69 0.25
1 -7 7 4.47 0.25
1 -7 7 4.79 0.26
1 -7 7 4.71 0.24
-2 7 -7 0.35 0.1
-2 7 -7 0.15 0.07
2 -7 7 0.12 0.07
2 -7 7 0.11 0.07
2 -7 7 0.27 0.09
-3 7 -7 7.37 0.33
-3 7 -7 8.04 0.35
-3 7 -7 7.42 0.32
3 -7 7 8.24 0.37
3 -7 7 7.05 0.32
-4 7 -7 2.53 0.24
4 -7 7 2.43 0.25
4 -7 7 1.64 0.18
-5 7 -7 0.09 0.09
5 -7 7 -0.05 0.05
-6 7 -7 9.25 0.45
6 -7 7 9.63 0.43
-7 7 -7 0.08 0.09
7 -7 7 0.08 0.09
8 6 -7 1.12 0.11
-8 -6 7 1.33 0.23
7 6 -7 0.56 0.08
7 6 -7 0.52 0.13
-7 -6 7 0.57 0.16
6 6 -7 0.47 0.08
6 6 -7 0.44 0.12
-6 -6 7 0.5 0.13
5 6 -7 23.17 0.56
5 6 -7 23.96 0.74
-5 -6 7 25.04 0.75
4 6 -7 2.74 0.15
4 6 -7 2.34 0.23
-4 -6 7 2.61 0.11
-4 -6 7 2.32 0.23
-4 -6 7 2.52 0.11
3 6 -7 0 0.03
3 6 -7 -0.04 0.05
-3 -6 7 0 0.03
-3 -6 7 -0.03 0.04
2 6 -7 18.6 0.58
2 6 -7 18.47 0.49
-2 -6 7 18.3 0.55
-2 -6 7 18.39 0.48
1 6 -7 9.28 0.32
1 6 -7 8.9 0.37
-1 -6 7 9.26 0.35
-1 -6 7 9.74 0.33
0 6 -7 0.33 0.08
0 6 -7 0.37 0.09
0 6 -7 0.43 0.07
0 -6 7 0.4 0.08
0 -6 7 0.59 0.11
0 -6 7 0.52 0.1
-1 6 -7 3.84 0.22
-1 6 -7 3.84 0.21
-1 6 -7 4.06 0.19
1 -6 7 4.31 0.22
1 -6 7 4.31 0.23
1 -6 7 4.37 0.23
-2 6 -7 5.17 0.26
-2 6 -7 5.28 0.24
-2 6 -7 5.51 0.25
2 -6 7 4.97 0.26
2 -6 7 5.17 0.25
-3 6 -7 3.22 0.21
-3 6 -7 3.2 0.19
-3 6 -7 3.51 0.21
3 -6 7 3.12 0.22
3 -6 7 3.26 0.21
-4 6 -7 3.37 0.22
4 -6 7 3.37 0.24
4 -6 7 3.69 0.23
-5 6 -7 0 0.06
5 -6 7 0.02 0.07
-6 6 -7 2.93 0.28
6 -6 7 3.3 0.25
-7 6 -7 5.52 0.35
7 -6 7 5.35 0.32
-8 6 -7 0.41 0.15
8 -6 7 0.36 0.14
9 5 -7 1.34 0.13
8 5 -7 0.71 0.09
-8 -5 7 0.57 0.16
7 5 -7 0.55 0.13
7 5 -7 0.65 0.08
-7 -5 7 0.67 0.15
6 5 -7 1.57 0.19
6 5 -7 1.98 0.12
-6 -5 7 1.97 0.23
5 5 -7 1.21 0.16
5 5 -7 1.19 0.11
-5 -5 7 0.82 0.14
4 5 -7 3.85 0.16
4 5 -7 3.48 0.23
-4 -5 7 3.54 0.23
-4 -5 7 3.31 0.13
-4 -5 7 3.48 0.14
3 5 -7 0.91 0.09
3 5 -7 0.67 0.12
-3 -5 7 0.92 0.09
-3 -5 7 1.06 0.14
2 5 -7 3.7 0.17
2 5 -7 3.89 0.22
-2 -5 7 3.66 0.17
-2 -5 7 3.84 0.21
1 5 -7 2.52 0.17
1 5 -7 2.61 0.15
1 5 -7 2.63 0.11
-1 -5 7 2.38 0.15
-1 -5 7 2.77 0.17
0 5 -7 4.75 0.23
0 5 -7 5.53 0.23
0 5 -7 5.26 0.18
0 -5 7 5.33 0.23
0 -5 7 5.2 0.24
-1 5 -7 8.3 0.31
-1 5 -7 8.39 0.27
-1 5 -7 8.23 0.3
1 -5 7 8.1 0.3
1 -5 7 8.44 0.31
-2 5 -7 58.09 1.23
-2 5 -7 60.1 1.27
-2 5 -7 58.3 1.33
-2 5 -7 58.56 1.25
2 -5 7 59.64 1.3
2 -5 7 58.45 1.27
-3 5 -7 19.82 0.54
-3 5 -7 19.76 0.56
-3 5 -7 18.98 0.58
-3 5 -7 18.71 0.5
3 -5 7 19.39 0.55
3 -5 7 19.17 0.57
-4 5 -7 7.51 0.32
-4 5 -7 7.66 0.35
4 -5 7 7.25 0.33
4 -5 7 7.66 0.32
-5 5 -7 1.64 0.2
-5 5 -7 1.35 0.17
5 -5 7 1.26 0.16
-6 5 -7 0.18 0.09
-6 5 -7 0.27 0.11
6 -5 7 0.26 0.1
-7 5 -7 1.99 0.24
-7 5 -7 2.2 0.26
7 -5 7 2.42 0.24
-8 5 -7 0.02 0.09
-8 5 -7 0 0.09
8 -5 7 0.24 0.11
-9 5 -7 6.16 0.41
-9 5 -7 5.41 0.37
9 -5 7 5.9 0.37
9 4 -7 1.55 0.14
-9 -4 7 1.75 0.25
8 4 -7 0.38 0.08
-8 -4 7 0.17 0.1
7 4 -7 -0.03 0.03
7 4 -7 0.02 0.06
-7 -4 7 0.06 0.09
6 4 -7 14.43 0.39
6 4 -7 14.9 0.5
-6 -4 7 14.46 0.29
-6 -4 7 15.15 0.29
-6 -4 7 14.35 0.54
5 4 -7 5.03 0.19
5 4 -7 4.92 0.26
-5 -4 7 4.58 0.15
-5 -4 7 5.03 0.28
-5 -4 7 4.71 0.15
4 4 -7 0.96 0.09
4 4 -7 0.94 0.13
-4 -4 7 0.81 0.13
-4 -4 7 0.96 0.08
-4 -4 7 1.02 0.08
3 4 -7 51.96 1.16
3 4 -7 51.47 1.05
-3 -4 7 51.95 1.05
-3 -4 7 51.42 1.05
-3 -4 7 50.54 1.16
2 4 -7 131.92 2.49
2 4 -7 136.29 2.4
2 4 -7 128.41 2.5
2 4 -7 132.72 2.6
-2 -4 7 133.35 2.51
-2 -4 7 134.83 2.51
-2 -4 7 129.68 2.59
1 4 -7 17.94 0.37
1 4 -7 17.64 0.5
1 4 -7 17.54 0.45
-1 -4 7 18.67 0.47
-1 -4 7 17.29 0.49
-1 -4 7 17.77 0.46
0 4 -7 0.85 0.06
0 4 -7 0.83 0.1
0 4 -7 0.69 0.09
0 4 -7 0.79 0.1
0 -4 7 0.72 0.09
0 -4 7 0.65 0.09
-1 4 -7 0.45 0.08
-1 4 -7 0.39 0.06
-1 4 -7 0.47 0.08
-1 4 -7 0.46 0.09
1 -4 7 0.4 0.08
1 -4 7 0.3 0.07
1 -4 7 0.45 0.07
-2 4 -7 6.17 0.27
-2 4 -7 6.37 0.24
-2 4 -7 6.75 0.26
-2 4 -7 6.35 0.23
2 -4 7 6.27 0.27
2 -4 7 6.16 0.25
2 -4 7 6.74 0.25
-3 4 -7 7 0.3
-3 4 -7 6.12 0.22
-3 4 -7 7.07 0.27
-3 4 -7 6.6 0.27
3 -4 7 6.62 0.27
3 -4 7 6.87 0.27
3 -4 7 7.04 0.29
-4 4 -7 12.99 0.45
-4 4 -7 12.92 0.43
4 -4 7 12.03 0.41
4 -4 7 12.41 0.43
4 -4 7 12.38 0.4
-5 4 -7 1.45 0.18
-5 4 -7 1.51 0.18
5 -4 7 1.24 0.15
5 -4 7 1.38 0.16
-6 4 -7 1.65 0.19
-6 4 -7 1.56 0.19
6 -4 7 1.57 0.18
6 -4 7 1.64 0.18
-7 4 -7 13.85 0.54
-7 4 -7 14.68 0.57
7 -4 7 14.39 0.53
7 -4 7 15.67 0.52
-8 4 -7 12.51 0.52
-8 4 -7 12.12 0.54
8 -4 7 12 0.48
8 -4 7 13.21 0.52
-9 4 -7 0.45 0.15
-9 4 -7 0.75 0.16
9 -4 7 0.39 0.12
9 -4 7 0.56 0.15
9 3 -7 2.7 0.18
-9 -3 7 2.4 0.29
8 3 -7 0.67 0.1
-8 -3 7 0.58 0.15
-8 -3 7 0.7 0.05
7 3 -7 2.26 0.18
7 3 -7 2.14 0.14
-7 -3 7 2.04 0.1
-7 -3 7 2.74 0.27
6 3 -7 1.13 0.15
6 3 -7 1.23 0.11
-6 -3 7 1.17 0.09
-6 -3 7 1.54 0.2
5 3 -7 3.74 0.21
5 3 -7 3.51 0.16
-5 -3 7 3.92 0.16
-5 -3 7 3.58 0.23
-5 -3 7 3.44 0.15
4 3 -7 8.21 0.26
4 3 -7 7.85 0.31
-4 -3 7 8.09 0.25
-4 -3 7 8.74 0.26
-4 -3 7 8.94 0.34
3 3 -7 3.4 0.14
3 3 -7 3.31 0.19
3 3 -7 3.45 0.09
3 3 -7 3.29 0.15
-3 -3 7 3.15 0.19
-3 -3 7 3.34 0.15
-3 -3 7 3.5 0.15
2 3 -7 78.47 1.54
2 3 -7 78.62 1.55
2 3 -7 82.05 1.63
-2 -3 7 80.53 1.57
-2 -3 7 79.67 1.63
-2 -3 7 81 1.57
1 3 -7 13.38 0.39
1 3 -7 12.66 0.34
1 3 -7 13.29 0.38
1 3 -7 13.17 0.24
-1 -3 7 12.38 0.37
-1 -3 7 12.61 0.35
-1 -3 7 12.92 0.36
0 3 -7 57.15 1.18
0 3 -7 59.31 1.21
0 3 -7 56.86 1.2
0 3 -7 57.82 1.1
0 -3 7 60.28 1.17
0 -3 7 57.97 1.2
0 -3 7 59.13 1.21
-1 3 -7 63.86 1.25
-1 3 -7 63.93 1.3
-1 3 -7 63.51 1.33
-1 3 -7 64.93 1.3
1 -3 7 63.74 1.32
1 -3 7 66.87 1.29
1 -3 7 63.79 1.31
-2 3 -7 1.24 0.11
-2 3 -7 1.05 0.1
-2 3 -7 1.07 0.12
-2 3 -7 1.07 0.09
2 -3 7 0.97 0.11
2 -3 7 0.94 0.1
2 -3 7 0.94 0.11
-3 3 -7 34.99 0.8
-3 3 -7 33.56 0.72
-3 3 -7 34.44 0.83
3 -3 7 33.53 0.8
3 -3 7 34.43 0.79
3 -3 7 34.83 0.82
-4 3 -7 0.1 0.06
-4 3 -7 0.21 0.07
4 -3 7 0.14 0.06
4 -3 7 0.16 0.06
4 -3 7 0.12 0.05
-5 3 -7 25.43 0.7
-5 3 -7 24.81 0.69
5 -3 7 25.12 0.68
5 -3 7 24.93 0.65
-6 3 -7 5.97 0.32
-6 3 -7 5.72 0.3
6 -3 7 6.03 0.3
6 -3 7 6.51 0.29
-7 3 -7 0.84 0.17
-7 3 -7 0.56 0.12
7 -3 7 1.12 0.15
7 -3 7 0.82 0.14
-8 3 -7 10.84 0.5
-8 3 -7 10.59 0.46
8 -3 7 11 0.43
8 -3 7 11.07 0.47
-9 3 -7 0.39 0.13
-9 3 -7 0.28 0.13
9 -3 7 0.35 0.12
9 -3 7 0.46 0.12
10 2 -7 -0.03 0.09
10 2 -7 -0.02 0.06
-10 -2 7 0.04 0.03
9 2 -7 0.42 0.09
-9 -2 7 0.69 0.17
-9 -2 7 0.41 0.07
8 2 -7 1.03 0.13
-8 -2 7 1.19 0.11
-8 -2 7 1.11 0.19
7 2 -7 14.19 0.43
7 2 -7 15.06 0.48
-7 -2 7 14 0.4
-7 -2 7 15.28 0.56
6 2 -7 20.41 0.58
6 2 -7 20.53 0.53
-6 -2 7 21.86 0.66
-6 -2 7 20.39 0.51
5 2 -7 0.14 0.05
5 2 -7 0.17 0.07
-5 -2 7 0.28 0.06
-5 -2 7 0.18 0.07
-5 -2 7 0.2 0.05
4 2 -7 9.69 0.29
4 2 -7 10.25 0.35
4 2 -7 9.87 0.29
-4 -2 7 10.32 0.31
-4 -2 7 10.3 0.26
-4 -2 7 10.13 0.37
-4 -2 7 10.15 0.3
3 2 -7 9.71 0.28
3 2 -7 10.01 0.28
3 2 -7 9.59 0.32
-3 -2 7 10 0.3
-3 -2 7 9.84 0.34
-3 -2 7 9.7 0.29
-3 -2 7 9.84 0.22
2 2 -7 75.33 1.53
2 2 -7 76.43 1.49
-2 -2 7 75.01 1.54
-2 -2 7 77.06 1.51
-2 -2 7 77.93 1.5
1 2 -7 10.93 0.33
1 2 -7 10.92 0.3
1 2 -7 10.9 0.32
-1 -2 7 11.06 0.31
-1 -2 7 11.53 0.29
-1 -2 7 10.89 0.32
0 2 -7 39.77 0.87
0 2 -7 40.6 0.84
0 2 -7 40.51 0.77
0 2 -7 40.62 0.87
0 2 -7 39.07 0.85
0 -2 7 40.99 0.83
0 -2 7 39.55 0.85
0 -2 7 40.75 0.86
-1 2 -7 13.56 0.33
-1 2 -7 13.28 0.35
-1 2 -7 13.11 0.36
-1 2 -7 13.95 0.39
1 -2 7 13.61 0.37
1 -2 7 13.04 0.35
1 -2 7 13.42 0.37
-2 2 -7 2.4 0.13
-2 2 -7 2.65 0.12
-2 2 -7 2.55 0.15
-2 2 -7 2.54 0.14
2 -2 7 2.55 0.14
2 -2 7 2.56 0.14
2 -2 7 2.66 0.14
-3 2 -7 2.99 0.12
-3 2 -7 3.13 0.18
-3 2 -7 3.09 0.17
-3 2 -7 3 0.15
3 -2 7 2.96 0.16
3 -2 7 2.67 0.15
3 -2 7 3.16 0.17
-4 2 -7 15.41 0.47
-4 2 -7 15.03 0.46
4 -2 7 15.2 0.45
4 -2 7 15.62 0.45
4 -2 7 15.36 0.43
-5 2 -7 1.01 0.13
-5 2 -7 0.86 0.13
5 -2 7 0.74 0.11
5 -2 7 0.83 0.1
-6 2 -7 2.65 0.21
-6 2 -7 2.75 0.2
6 -2 7 2.67 0.18
6 -2 7 2.56 0.19
-7 2 -7 12.01 0.5
-7 2 -7 11.16 0.44
7 -2 7 11.94 0.42
7 -2 7 11.24 0.44
-8 2 -7 0.01 0.07
-8 2 -7 0.23 0.11
8 -2 7 -0.01 0.06
8 -2 7 0.13 0.08
-9 2 -7 1.05 0.21
-9 2 -7 1.11 0.18
9 -2 7 0.9 0.18
9 -2 7 1.14 0.16
10 1 -7 -0.12 0.09
10 1 -7 -0.02 0.06
-10 -1 7 0.1 0.06
9 1 -7 1.3 0.16
-9 -1 7 1.38 0.21
-9 -1 7 1.28 0.14
8 1 -7 1.06 0.13
-8 -1 7 1.25 0.14
-8 -1 7 0.86 0.17
7 1 -7 1.84 0.14
7 1 -7 1.38 0.16
-7 -1 7 1.56 0.14
-7 -1 7 1.49 0.19
6 1 -7 6.88 0.29
6 1 -7 6.94 0.26
-6 -1 7 6.83 0.26
-6 -1 7 7.02 0.33
-6 -1 7 6.68 0.26
5 1 -7 4.57 0.22
5 1 -7 4.7 0.2
-5 -1 7 5.08 0.21
-5 -1 7 5.11 0.26
-5 -1 7 4.87 0.19
4 1 -7 35.6 0.79
4 1 -7 35.8 0.83
4 1 -7 36.08 0.78
-4 -1 7 37.26 0.82
-4 -1 7 36.44 0.75
-4 -1 7 36.95 0.8
-4 -1 7 35.94 0.86
3 1 -7 82.81 1.66
3 1 -7 81.97 1.62
-3 -1 7 84.9 1.55
-3 -1 7 83.33 1.64
-3 -1 7 81.73 1.67
-3 -1 7 83.85 1.64
2 1 -7 6.59 0.22
2 1 -7 6.89 0.24
2 1 -7 6.46 0.24
-2 -1 7 6.3 0.2
-2 -1 7 6.67 0.16
-2 -1 7 6.74 0.23
-2 -1 7 6.75 0.24
1 1 -7 4.94 0.19
1 1 -7 4.63 0.17
1 1 -7 5.13 0.2
-1 -1 7 4.67 0.17
-1 -1 7 4.72 0.12
-1 -1 7 4.57 0.18
-1 -1 7 4.47 0.18
0 1 -7 45.71 0.94
0 1 -7 43.08 0.92
0 1 -7 44.55 0.86
0 1 -7 44.99 0.91
0 -1 7 45.05 0.92
0 -1 7 43.68 0.9
0 -1 7 44.03 0.93
-1 1 -7 54.88 1.13
-1 1 -7 56.54 1.13
-1 1 -7 56.95 1.12
-1 1 -7 56.06 1.17
1 -1 7 56.37 1.13
1 -1 7 58.14 1.15
1 -1 7 57.15 1.14
-2 1 -7 0.28 0.05
-2 1 -7 0.25 0.05
-2 1 -7 0.35 0.07
-2 1 -7 0.35 0.06
2 -1 7 0.33 0.06
2 -1 7 0.34 0.06
2 -1 7 0.43 0.07
-3 1 -7 23.63 0.51
-3 1 -7 23.3 0.59
-3 1 -7 22.07 0.58
-3 1 -7 24.29 0.55
3 -1 7 24.61 0.58
3 -1 7 23.04 0.57
3 -1 7 23.48 0.56
-4 1 -7 74.51 1.57
-4 1 -7 74.62 1.54
-4 1 -7 75.79 1.4
4 -1 7 75.01 1.54
4 -1 7 74.43 1.5
-5 1 -7 0.13 0.07
-5 1 -7 0.11 0.06
5 -1 7 0.13 0.07
5 -1 7 0.18 0.05
-6 1 -7 0.01 0.05
-6 1 -7 -0.01 0.06
6 -1 7 -0.01 0.04
6 -1 7 0.03 0.06
-7 1 -7 14.36 0.56
-7 1 -7 14.91 0.49
7 -1 7 15.51 0.53
7 -1 7 15.12 0.47
-8 1 -7 4.81 0.33
-8 1 -7 4.78 0.27
8 -1 7 5.06 0.27
8 -1 7 4.8 0.3
-9 1 -7 1.3 0.22
-9 1 -7 1.21 0.17
9 -1 7 0.99 0.18
9 -1 7 1.21 0.16
10 0 -7 1.29 0.23
10 0 -7 1.04 0.16
-10 0 7 0.85 0.14
9 0 -7 0.34 0.13
9 0 -7 0.34 0.1
-9 0 7 0.23 0.09
8 0 -7 18.8 0.56
-8 0 7 18.02 0.55
-8 0 7 18.16 0.65
7 0 -7 1.98 0.16
7 0 -7 1.77 0.17
-7 0 7 1.85 0.22
-7 0 7 1.49 0.16
-7 0 7 1.68 0.16
6 0 -7 23.05 0.58
6 0 -7 21.15 0.58
-6 0 7 21.75 0.65
-6 0 7 21.27 0.58
-6 0 7 21.71 0.59
5 0 -7 8.71 0.31
5 0 -7 8.06 0.28
-5 0 7 7.89 0.27
-5 0 7 7.73 0.32
-5 0 7 8.16 0.3
4 0 -7 6.47 0.24
4 0 -7 6.16 0.25
4 0 -7 6.55 0.26
-4 0 7 6.52 0.27
-4 0 7 6.26 0.21
-4 0 7 6.34 0.25
3 0 -7 12.36 0.37
3 0 -7 12.75 0.37
3 0 -7 11.43 0.34
-3 0 7 12.36 0.33
-3 0 7 12.04 0.35
-3 0 7 12.41 0.31
-3 0 7 12.37 0.37
2 0 -7 5.08 0.21
2 0 -7 4.89 0.2
2 0 -7 5.07 0.19
-2 0 7 4.94 0.15
-2 0 7 5 0.18
-2 0 7 5.05 0.19
-2 0 7 4.71 0.19
1 0 -7 7.95 0.25
1 0 -7 8.41 0.27
1 0 -7 8.59 0.27
-1 0 7 8.14 0.21
-1 0 7 8 0.26
-1 0 7 8.46 0.25
-1 0 7 7.95 0.24
0 0 -7 12.25 0.36
0 0 -7 13.67 0.32
0 0 -7 13.23 0.34
0 0 -7 13.56 0.36
0 0 7 13.16 0.36
0 0 7 13.5 0.33
0 0 7 13.7 0.34
-1 0 -7 16.14 0.42
-1 0 -7 14.97 0.39
-1 0 -7 15.5 0.39
-1 0 -7 15.45 0.39
1 0 7 15.42 0.38
1 0 7 15.78 0.39
1 0 7 15.97 0.4
-2 0 -7 1.33 0.11
-2 0 -7 1.27 0.09
-2 0 -7 1.21 0.09
-2 0 -7 1.18 0.11
2 0 7 1.46 0.1
2 0 7 1.23 0.09
2 0 7 1.15 0.09
-3 0 -7 0.28 0.06
-3 0 -7 0.38 0.08
-3 0 -7 0.25 0.05
-3 0 -7 0.25 0.06
3 0 7 0.21 0.05
3 0 7 0.3 0.06
-4 0 -7 0.24 0.06
-4 0 -7 0.36 0.05
-4 0 -7 0.26 0.08
4 0 7 0.31 0.07
4 0 7 0.38 0.07
-5 0 -7 3.02 0.21
-5 0 -7 3.36 0.18
5 0 7 3.26 0.19
5 0 7 3.36 0.17
-6 0 -7 26.46 0.76
-6 0 -7 25.9 0.67
6 0 7 27.02 0.72
6 0 7 26.11 0.65
-7 0 -7 9.21 0.42
-7 0 -7 9.48 0.35
7 0 7 8.81 0.38
7 0 7 9.43 0.34
-8 0 -7 0.12 0.06
-8 0 -7 0.05 0.08
8 0 7 0.13 0.08
8 0 7 0.05 0.05
-9 0 -7 2.79 0.31
-9 0 -7 2.51 0.19
9 0 7 2.75 0.2
9 0 7 2.51 0.28
10 -1 -7 4.47 0.29
10 -1 -7 3.96 0.32
-10 1 7 4.32 0.28
9 -1 -7 0.16 0.09
9 -1 -7 0.17 0.1
-9 1 7 0.09 0.08
8 -1 -7 2.15 0.2
8 -1 -7 1.84 0.22
-8 1 7 2.16 0.21
-8 1 7 1.8 0.2
7 -1 -7 0.25 0.08
-7 1 7 0.28 0.1
-7 1 7 0.22 0.08
-7 1 7 0.17 0.08
6 -1 -7 7.01 0.29
6 -1 -7 6.73 0.27
-6 1 7 6.95 0.29
-6 1 7 6.69 0.3
-6 1 7 6.94 0.32
5 -1 -7 18.14 0.51
5 -1 -7 18.6 0.51
-5 1 7 18.84 0.5
-5 1 7 19.48 0.54
-5 1 7 18.04 0.54
4 -1 -7 5.69 0.23
4 -1 -7 5.68 0.25
4 -1 -7 5.15 0.23
-4 1 7 5.26 0.23
-4 1 7 5.49 0.21
-4 1 7 5.26 0.23
3 -1 -7 2.08 0.13
3 -1 -7 1.87 0.14
3 -1 -7 1.99 0.14
-3 1 7 2.07 0.13
-3 1 7 1.82 0.13
-3 1 7 2.06 0.12
-3 1 7 2.04 0.11
2 -1 -7 5.73 0.23
2 -1 -7 5.8 0.23
2 -1 -7 5.88 0.21
-2 1 7 6 0.19
-2 1 7 5.61 0.21
-2 1 7 6.23 0.23
-2 1 7 5.9 0.2
1 -1 -7 90.99 1.74
1 -1 -7 90.29 1.78
1 -1 -7 87.97 1.77
-1 1 7 89.08 1.74
-1 1 7 92.38 1.77
-1 1 7 89.37 1.71
-1 1 7 91.51 1.71
0 -1 -7 263.43 4.89
0 -1 -7 247.48 4.74
0 -1 -7 259.26 4.69
0 1 7 254.13 4.75
0 1 7 254.89 4.68
0 1 7 251.79 4.67
0 1 7 247.63 4.69
-1 -1 -7 2.43 0.14
-1 -1 -7 2.49 0.12
-1 -1 -7 2.79 0.14
-1 -1 -7 2.23 0.13
1 1 7 2.58 0.11
1 1 7 2.47 0.13
1 1 7 2.3 0.12
-2 -1 -7 50.29 1.03
-2 -1 -7 49.57 1.03
-2 -1 -7 50.23 1.05
-2 -1 -7 50.58 1.07
2 1 7 49.07 1.01
2 1 7 50.02 1
-3 -1 -7 110.3 2.22
-3 -1 -7 110.77 2.17
-3 -1 -7 116.1 2.15
-3 -1 -7 115.32 2.16
3 1 7 115.03 2.16
3 1 7 110.74 2.14
3 1 7 110.54 2.14
-4 -1 -7 28.59 0.67
-4 -1 -7 29.2 0.64
-4 -1 -7 28.17 0.74
4 1 7 28.08 0.68
4 1 7 29.06 0.65
-5 -1 -7 5.74 0.23
-5 -1 -7 5.8 0.29
5 1 7 5.7 0.22
5 1 7 5.69 0.25
-6 -1 -7 24.68 0.61
-6 -1 -7 24.59 0.73
6 1 7 24.44 0.6
6 1 7 24.47 0.67
-7 -1 -7 3.76 0.2
-7 -1 -7 4.07 0.29
7 1 7 4.25 0.26
7 1 7 4.07 0.21
-8 -1 -7 29.7 0.92
-8 -1 -7 30 0.72
8 1 7 30.21 0.75
8 1 7 28.56 0.84
-9 -1 -7 0.01 0.1
-9 -1 -7 -0.03 0.05
9 1 7 0.14 0.1
9 1 7 0.04 0.06
10 -2 -7 0.36 0.12
10 -2 -7 0.28 0.13
-10 2 7 0.28 0.11
9 -2 -7 0.2 0.1
9 -2 -7 0.27 0.11
-9 2 7 0.37 0.12
-9 2 7 0.27 0.11
8 -2 -7 0.07 0.09
8 -2 -7 0.2 0.09
-8 2 7 0.24 0.1
-8 2 7 0.11 0.08
7 -2 -7 14.97 0.52
7 -2 -7 14.18 0.48
-7 2 7 13.67 0.5
-7 2 7 14.07 0.49
6 -2 -7 7.69 0.32
6 -2 -7 7.61 0.3
-6 2 7 8.09 0.33
-6 2 7 7.58 0.33
-6 2 7 7.35 0.33
5 -2 -7 14.34 0.44
5 -2 -7 15.46 0.46
-5 2 7 14.71 0.45
-5 2 7 14.51 0.47
-5 2 7 15.51 0.47
4 -2 -7 3.98 0.2
4 -2 -7 4.09 0.21
4 -2 -7 3.71 0.21
-4 2 7 3.96 0.19
-4 2 7 3.97 0.21
-4 2 7 4.17 0.19
3 -2 -7 15.97 0.44
3 -2 -7 16.2 0.46
3 -2 -7 16.71 0.48
-3 2 7 15.39 0.42
-3 2 7 16.22 0.44
-3 2 7 16.12 0.42
-3 2 7 15.97 0.46
2 -2 -7 9.35 0.31
2 -2 -7 9.17 0.29
2 -2 -7 8.94 0.32
-2 2 7 8.19 0.27
-2 2 7 8.89 0.3
-2 2 7 8.88 0.29
-2 2 7 8.92 0.25
1 -2 -7 9.45 0.29
1 -2 -7 9.09 0.31
1 -2 -7 10.05 0.32
-1 2 7 9.77 0.24
-1 2 7 10.17 0.3
-1 2 7 9.42 0.31
-1 2 7 9.22 0.28
0 -2 -7 0.13 0.05
0 -2 -7 0.28 0.05
0 -2 -7 0.1 0.05
0 2 7 0.24 0.05
0 2 7 0.19 0.03
0 2 7 0.21 0.05
0 2 7 0.2 0.05
-1 -2 -7 11.64 0.35
-1 -2 -7 11.8 0.33
-1 -2 -7 11.91 0.35
1 2 7 11.67 0.35
1 2 7 11.86 0.32
1 2 7 11.84 0.28
-2 -2 -7 0.23 0.05
-2 -2 -7 0.1 0.05
-2 -2 -7 0.14 0.06
-2 -2 -7 0.19 0.06
2 2 7 0.14 0.04
2 2 7 0.23 0.05
2 2 7 0.15 0.04
2 2 7 0.26 0.04
-3 -2 -7 4.02 0.17
-3 -2 -7 3.61 0.18
-3 -2 -7 3.78 0.21
-3 -2 -7 3.92 0.18
3 2 7 3.8 0.16
3 2 7 4.43 0.17
3 2 7 4.06 0.16
-4 -2 -7 0.63 0.08
-4 -2 -7 0.62 0.11
-4 -2 -7 0.72 0.09
4 2 7 0.6 0.07
4 2 7 0.58 0.08
-5 -2 -7 4.2 0.18
-5 -2 -7 3.6 0.24
5 2 7 4.02 0.17
5 2 7 3.78 0.2
-6 -2 -7 0.61 0.08
-6 -2 -7 0.66 0.14
6 2 7 0.51 0.08
6 2 7 0.52 0.1
-7 -2 -7 5.24 0.2
-7 -2 -7 5.38 0.32
7 2 7 5.59 0.23
7 2 7 4.94 0.28
-8 -2 -7 6.31 0.38
-8 -2 -7 6.3 0.2
8 2 7 6.36 0.27
8 2 7 6.17 0.33
-9 -2 -7 2.76 0.31
9 2 7 2.59 0.18
9 2 7 2.66 0.27
9 -3 -7 1.33 0.19
9 -3 -7 0.94 0.17
-9 3 7 0.89 0.18
-9 3 7 1.03 0.18
8 -3 -7 0.29 0.1
8 -3 -7 0.26 0.1
-8 3 7 0.26 0.11
-8 3 7 0.15 0.09
7 -3 -7 0.61 0.12
7 -3 -7 1.05 0.16
-7 3 7 0.63 0.14
-7 3 7 0.66 0.14
6 -3 -7 7.7 0.34
6 -3 -7 8.39 0.34
6 -3 -7 8.23 0.32
-6 3 7 8.09 0.35
-6 3 7 8.26 0.37
5 -3 -7 8.26 0.31
5 -3 -7 8.79 0.34
5 -3 -7 8.72 0.33
-5 3 7 9.04 0.37
-5 3 7 8.84 0.34
4 -3 -7 4.07 0.24
4 -3 -7 4.44 0.22
4 -3 -7 3.87 0.21
-4 3 7 4.11 0.23
-4 3 7 4.16 0.21
-4 3 7 4.06 0.19
3 -3 -7 -0.01 0.03
3 -3 -7 0.03 0.05
3 -3 -7 0.1 0.05
-3 3 7 0.08 0.04
-3 3 7 0.09 0.04
-3 3 7 0.09 0.04
-3 3 7 0.02 0.05
2 -3 -7 23.51 0.61
2 -3 -7 23.77 0.62
2 -3 -7 23.74 0.57
-2 3 7 22.91 0.6
-2 3 7 22.01 0.56
-2 3 7 22.17 0.57
-2 3 7 22.55 0.49
1 -3 -7 24.66 0.63
1 -3 -7 24.38 0.63
1 -3 -7 25.51 0.59
-1 3 7 24.68 0.6
-1 3 7 24.82 0.49
-1 3 7 24.53 0.6
-1 3 7 24.79 0.62
0 -3 -7 20.19 0.53
0 -3 -7 20 0.54
0 3 7 19.51 0.51
0 3 7 20.27 0.39
0 3 7 19.94 0.5
0 3 7 20.23 0.52
-1 -3 -7 52.05 1.13
-1 -3 -7 52.53 1.07
-1 -3 -7 51.06 1.09
1 3 7 52.03 0.97
1 3 7 50.03 1.06
1 3 7 50.94 1.1
-2 -3 -7 165.64 3.15
-2 -3 -7 162.16 3.08
-2 -3 -7 160.84 3.13
-2 -3 -7 165.63 3.06
2 3 7 159.58 3.05
2 3 7 162.34 2.99
2 3 7 167.06 3.14
-3 -3 -7 29.37 0.73
-3 -3 -7 30.27 0.77
-3 -3 -7 29.78 0.68
-3 -3 -7 30.07 0.67
3 3 7 30.05 0.65
3 3 7 30.84 0.67
-4 -3 -7 1.76 0.14
-4 -3 -7 1.54 0.11
-4 -3 -7 1.62 0.18
4 3 7 1.28 0.1
4 3 7 1.64 0.11
-5 -3 -7 8.91 0.39
-5 -3 -7 9.18 0.32
-5 -3 -7 9.08 0.26
5 3 7 8.57 0.28
5 3 7 8.83 0.32
-6 -3 -7 2.23 0.24
-6 -3 -7 2.49 0.11
6 3 7 2.2 0.14
6 3 7 2.28 0.17
-7 -3 -7 3.48 0.28
7 3 7 4.08 0.19
7 3 7 3.62 0.24
-8 -3 -7 -0.15 0.09
8 3 7 0.17 0.09
8 3 7 0.25 0.07
-9 -3 -7 1.14 0.22
9 3 7 1.13 0.13
9 3 7 1.17 0.19
-9 4 7 0.47 0.14
-9 4 7 0.48 0.15
-8 4 7 0.62 0.15
-8 4 7 0.4 0.13
7 -4 -7 15.63 0.52
-7 4 7 15.32 0.56
-7 4 7 15.78 0.59
6 -4 -7 3.94 0.22
6 -4 -7 3.81 0.23
-6 4 7 4.23 0.26
-6 4 7 4.01 0.27
5 -4 -7 0.12 0.05
5 -4 -7 0.18 0.07
-5 4 7 0.2 0.08
-5 4 7 0.07 0.07
4 -4 -7 0.37 0.1
4 -4 -7 0.54 0.11
-4 4 7 0.47 0.1
-4 4 7 0.43 0.09
3 -4 -7 16.46 0.5
3 -4 -7 15.33 0.51
-3 4 7 15.4 0.5
-3 4 7 15.42 0.47
-3 4 7 16.25 0.48
2 -4 -7 4.39 0.24
2 -4 -7 4.1 0.23
-2 4 7 4.52 0.23
-2 4 7 4.68 0.22
-2 4 7 4.75 0.22
1 -4 -7 19.57 0.55
1 -4 -7 19.56 0.56
-1 4 7 19.7 0.52
-1 4 7 18.37 0.52
0 -4 -7 26.82 0.68
0 -4 -7 26.53 0.7
0 4 7 26.78 0.67
0 4 7 27.6 0.65
-1 -4 -7 0.63 0.09
-1 -4 -7 0.5 0.1
1 4 7 0.6 0.1
1 4 7 0.59 0.09
-2 -4 -7 2.31 0.17
-2 -4 -7 2.55 0.15
2 4 7 2.48 0.18
2 4 7 2.59 0.14
-3 -4 -7 7.65 0.31
-3 -4 -7 7.12 0.25
3 4 7 7.46 0.25
3 4 7 6.88 0.31
-4 -4 -7 4.26 0.26
-4 -4 -7 4.34 0.17
-4 -4 -7 4.49 0.24
4 4 7 4.12 0.18
-5 -4 -7 0.3 0.1
-5 -4 -7 0.25 0.04
-5 -4 -7 0.23 0.08
-5 -4 -7 0.26 0.04
5 4 7 0.35 0.07
-6 -4 -7 0.43 0.13
6 4 7 0.3 0.06
-7 -4 -7 2.84 0.28
7 4 7 2.56 0.15
-8 -4 -7 4.29 0.33
8 4 7 4.67 0.21
-8 5 7 3.43 0.33
-8 5 7 3.63 0.34
-7 5 7 2.06 0.24
6 -5 -7 1.09 0.15
-6 5 7 1.15 0.17
5 -5 -7 2.91 0.2
-5 5 7 2.53 0.2
4 -5 -7 -0.02 0.06
4 -5 -7 0.08 0.08
-4 5 7 0.01 0.06
3 -5 -7 10.17 0.39
3 -5 -7 10.64 0.42
-3 5 7 10.02 0.38
-3 5 7 9.58 0.37
2 -5 -7 57.29 1.3
2 -5 -7 55.66 1.29
-2 5 7 57.14 1.26
-2 5 7 57.1 1.26
1 -5 -7 40.52 0.97
1 -5 -7 39 0.98
-1 5 7 39.74 0.94
-1 5 7 39.38 0.92
0 -5 -7 2.2 0.18
0 -5 -7 2.43 0.17
0 5 7 2.38 0.17
0 5 7 2.18 0.15
-1 -5 -7 36.81 0.93
-1 -5 -7 36.34 0.86
1 5 7 36.11 0.89
1 5 7 36.37 0.83
-2 -5 -7 25.8 0.72
-2 -5 -7 25.31 0.63
2 5 7 25.18 0.62
2 5 7 25.51 0.7
-3 -5 -7 0.36 0.06
-3 -5 -7 0.31 0.1
3 5 7 0.37 0.1
3 5 7 0.38 0.07
-4 -5 -7 0.04 0.07
-4 -5 -7 0.06 0.03
4 5 7 0.21 0.09
4 5 7 0.14 0.05
-5 -5 -7 10.24 0.45
-5 -5 -7 11.06 0.43
5 5 7 10.81 0.45
5 5 7 10.69 0.33
-6 -5 -7 0.84 0.17
6 5 7 0.91 0.1
-7 -5 -7 0.91 0.18
7 5 7 1.15 0.12
-8 -5 -7 0.16 0.13
8 5 7 0.46 0.08
-8 6 7 3.6 0.35
-7 6 7 3.27 0.32
-6 6 7 6.98 0.38
5 -6 -7 0.05 0.06
-5 6 7 0.02 0.07
4 -6 -7 0.42 0.11
4 -6 -7 0.26 0.1
-4 6 7 0.34 0.11
3 -6 -7 0.75 0.14
3 -6 -7 0.73 0.14
-3 6 7 0.91 0.14
-3 6 7 1.21 0.16
2 -6 -7 15.73 0.55
2 -6 -7 16.33 0.55
-2 6 7 17.02 0.53
-2 6 7 16.57 0.54
1 -6 -7 2.8 0.21
1 -6 -7 2.88 0.22
-1 6 7 2.78 0.19
-1 6 7 2.8 0.2
0 -6 -7 15.4 0.49
0 -6 -7 14.99 0.53
0 6 7 15.24 0.47
0 6 7 15.21 0.5
-1 -6 -7 4.88 0.29
-1 -6 -7 4.77 0.24
1 6 7 4.78 0.23
1 6 7 4.57 0.26
-2 -6 -7 0.09 0.08
-2 -6 -7 -0.01 0.04
2 6 7 0.07 0.07
2 6 7 0.1 0.06
-3 -6 -7 1.9 0.13
-3 -6 -7 2.83 0.26
3 6 7 1.97 0.22
3 6 7 2.43 0.16
-4 -6 -7 13.39 0.3
-4 -6 -7 13.26 0.51
4 6 7 13.32 0.4
4 6 7 14.05 0.52
-5 -6 -7 0.14 0.09
5 6 7 0.42 0.13
5 6 7 0.27 0.07
6 6 7 0.49 0.15
6 6 7 0.45 0.08
7 6 7 1.4 0.22
7 6 7 0.95 0.1
-7 7 7 3.56 0.35
-6 7 7 1.26 0.21
5 -7 -7 1.56 0.2
-5 7 7 1.41 0.2
4 -7 -7 12.66 0.54
4 -7 -7 12.81 0.51
-4 7 7 12.72 0.51
3 -7 -7 14.99 0.56
3 -7 -7 15.63 0.58
-3 7 7 15.07 0.54
-3 7 7 15.7 0.56
2 -7 -7 1.75 0.21
2 -7 -7 1.99 0.22
-2 7 7 2.16 0.22
-2 7 7 1.84 0.21
1 -7 -7 0.1 0.08
1 -7 -7 0 0.06
-1 7 7 0 0.06
-1 7 7 0.09 0.07
0 -7 -7 0.31 0.1
0 -7 -7 0.2 0.11
0 7 7 0.23 0.08
0 7 7 0.24 0.09
-1 -7 -7 0.02 0.05
-1 -7 -7 0.08 0.08
1 7 7 0.03 0.06
1 7 7 0.06 0.08
-2 -7 -7 0.08 0.05
-2 -7 -7 -0.06 0.08
2 7 7 -0.03 0.04
2 7 7 0.05 0.07
-3 -7 -7 1.11 0.19
-3 -7 -7 1.36 0.11
3 7 7 1 0.16
3 7 7 1.32 0.14
-4 -7 -7 3.39 0.27
4 7 7 3.02 0.18
4 7 7 2.71 0.27
-5 -7 -7 2.86 0.29
5 7 7 2.79 0.17
5 7 7 2.94 0.29
6 7 7 1.12 0.2
6 7 7 1.39 0.13
-6 8 7 16.15 0.67
5 -8 -7 2.24 0.26
-5 8 7 2.14 0.26
4 -8 -7 1.56 0.23
4 -8 -7 1.8 0.24
-4 8 7 1.83 0.23
3 -8 -7 2.73 0.29
3 -8 -7 2.97 0.3
-3 8 7 2.46 0.26
-3 8 7 3.1 0.28
2 -8 -7 0.55 0.15
2 -8 -7 0.45 0.13
-2 8 7 0.31 0.11
-2 8 7 0.46 0.13
1 -8 -7 6.62 0.39
1 -8 -7 5.82 0.33
-1 8 7 6.52 0.33
-1 8 7 6.08 0.34
0 -8 -7 1.74 0.2
0 -8 -7 2.04 0.26
0 8 7 1.69 0.21
0 8 7 1.94 0.21
-1 -8 -7 2.38 0.27
-1 -8 -7 2.47 0.19
1 8 7 2.76 0.26
1 8 7 2.27 0.21
-2 -8 -7 2.64 0.17
-2 -8 -7 2.8 0.29
2 8 7 2.69 0.2
2 8 7 2.44 0.26
-3 -8 -7 0.8 0.08
-3 -8 -7 0.83 0.19
3 8 7 0.63 0.15
3 8 7 0.66 0.12
-4 -8 -7 0.33 0.14
4 8 7 0.34 0.13
4 -9 -7 3.64 0.35
4 -9 -7 5.22 0.37
-4 9 7 4.27 0.33
3 -9 -7 0.44 0.15
3 -9 -7 0.55 0.16
-3 9 7 0.23 0.12
2 -9 -7 0.73 0.16
2 -9 -7 1.1 0.21
-2 9 7 1.12 0.19
-2 9 7 0.81 0.18
1 -9 -7 0.51 0.13
1 -9 -7 0.43 0.16
-1 9 7 0.28 0.1
-1 9 7 0.17 0.11
0 -9 -7 0.01 0.07
0 -9 -7 0.09 0.1
0 9 7 0.02 0.09
0 9 7 0.08 0.07
-1 -9 -7 0.28 0.09
-1 -9 -7 0.53 0.16
1 9 7 0.71 0.14
1 9 7 0.32 0.11
-2 -9 -7 1.53 0.15
-2 -9 -7 2.29 0.3
2 9 7 1.86 0.2
2 9 7 1.61 0.22
2 10 -8 0.88 0.14
2 10 -8 0.47 0.15
-2 -10 8 0.9 0.12
1 10 -8 0.27 0.1
1 10 -8 0.28 0.13
-1 -10 8 0.37 0.1
0 10 -8 1.34 0.22
0 10 -8 1.22 0.19
0 -10 8 0.73 0.14
-1 10 -8 0.57 0.15
-1 10 -8 0.37 0.12
1 -10 8 0.59 0.14
-2 10 -8 1.88 0.24
-2 10 -8 1.61 0.23
2 -10 8 1.22 0.2
3 -10 8 0.12 0.1
4 9 -8 1.62 0.17
4 9 -8 1.7 0.25
3 9 -8 1.61 0.17
3 9 -8 1.39 0.22
-3 -9 8 1.56 0.12
2 9 -8 0.01 0.06
2 9 -8 -0.01 0.07
-2 -9 8 0.02 0.05
1 9 -8 0.14 0.11
1 9 -8 0.01 0.07
-1 -9 8 0.1 0.07
0 9 -8 1.35 0.2
0 9 -8 1.85 0.2
0 -9 8 1.61 0.19
-1 9 -8 0.69 0.15
1 -9 8 0.91 0.16
-2 9 -8 2.49 0.26
-2 9 -8 2.35 0.25
2 -9 8 2.46 0.26
3 -9 8 0.86 0.17
4 -9 8 0.6 0.16
6 8 -8 0.45 0.09
6 8 -8 0.31 0.14
5 8 -8 0.76 0.17
5 8 -8 0.88 0.11
-5 -8 8 1.32 0.2
4 8 -8 15.36 0.61
4 8 -8 14.76 0.45
-4 -8 8 15.04 0.31
-4 -8 8 16.16 0.59
3 8 -8 0.15 0.1
3 8 -8 -0.06 0.04
-3 -8 8 0.04 0.04
-3 -8 8 -0.03 0.06
2 8 -8 1.43 0.16
2 8 -8 1.22 0.19
-2 -8 8 1.2 0.17
-2 -8 8 1.25 0.14
1 8 -8 4.61 0.26
1 8 -8 5.23 0.32
-1 -8 8 5.11 0.28
-1 -8 8 5.33 0.27
0 8 -8 1.38 0.17
0 8 -8 1.85 0.22
0 -8 8 1.66 0.18
0 -8 8 1.8 0.2
-1 8 -8 3.81 0.26
-1 8 -8 3.6 0.24
1 -8 8 3.47 0.23
1 -8 8 3.08 0.23
-2 8 -8 0.89 0.15
-2 8 -8 1.2 0.17
2 -8 8 1.4 0.17
2 -8 8 1.08 0.16
-3 8 -8 0.27 0.1
3 -8 8 0.01 0.08
3 -8 8 0.09 0.08
-4 8 -8 7.4 0.36
4 -8 8 6.61 0.38
4 -8 8 7.09 0.35
-5 8 -8 2.58 0.27
5 -8 8 2.35 0.25
-6 8 -8 0.05 0.1
6 -8 8 0.16 0.1
7 7 -8 3.47 0.18
7 7 -8 3.39 0.32
-7 -7 8 3.79 0.32
6 7 -8 0.36 0.07
6 7 -8 0.33 0.13
-6 -7 8 0.31 0.12
5 7 -8 0.55 0.09
5 7 -8 0.42 0.13
-5 -7 8 0.55 0.14
4 7 -8 0.46 0.08
4 7 -8 0.46 0.13
-4 -7 8 0.67 0.14
-4 -7 8 0.63 0.07
3 7 -8 0.04 0.08
3 7 -8 0 0.05
-3 -7 8 0 0.04
-3 -7 8 -0.01 0.06
2 7 -8 0.41 0.12
2 7 -8 0.41 0.09
-2 -7 8 0.63 0.12
-2 -7 8 0.4 0.08
1 7 -8 6.32 0.28
1 7 -8 6.23 0.33
-1 -7 8 5.97 0.27
-1 -7 8 6.2 0.3
0 7 -8 4.36 0.27
0 7 -8 3.79 0.22
0 -7 8 3.69 0.23
0 -7 8 3.87 0.23
-1 7 -8 3.52 0.22
-1 7 -8 4.21 0.25
1 -7 8 4.03 0.24
1 -7 8 3.66 0.23
-2 7 -8 5.56 0.29
-2 7 -8 6.25 0.28
-2 7 -8 6.29 0.3
2 -7 8 6.31 0.3
2 -7 8 6.3 0.32
-3 7 -8 5.25 0.29
-3 7 -8 5.52 0.27
-3 7 -8 5.07 0.27
3 -7 8 5.58 0.29
3 -7 8 5.53 0.31
-4 7 -8 1.55 0.19
4 -7 8 1.67 0.2
4 -7 8 1.85 0.22
-5 7 -8 4.47 0.3
5 -7 8 4.52 0.28
-6 7 -8 0.21 0.12
6 -7 8 0.22 0.1
-7 7 -8 4.05 0.32
7 -7 8 3.85 0.29
8 6 -8 0.01 0.04
-8 -6 8 0.03 0.09
7 6 -8 0.72 0.1
7 6 -8 0.71 0.15
-7 -6 8 0.81 0.17
6 6 -8 2.46 0.15
6 6 -8 2.43 0.25
-6 -6 8 2.5 0.27
5 6 -8 4.85 0.21
5 6 -8 4.77 0.3
-5 -6 8 4.71 0.3
4 6 -8 -0.01 0.07
4 6 -8 -0.03 0.04
-4 -6 8 0.06 0.04
-4 -6 8 -0.08 0.05
3 6 -8 5.22 0.22
3 6 -8 5.55 0.3
-3 -6 8 4.67 0.2
-3 -6 8 5.33 0.29
2 6 -8 3.79 0.2
2 6 -8 3.74 0.24
-2 -6 8 4.18 0.24
-2 -6 8 4.09 0.2
1 6 -8 0.09 0.07
1 6 -8 0.06 0.05
-1 -6 8 0.1 0.06
-1 -6 8 0.07 0.05
0 6 -8 22.32 0.63
0 6 -8 22.58 0.59
0 -6 8 21.48 0.61
0 -6 8 20.44 0.59
-1 6 -8 2.08 0.14
-1 6 -8 2.14 0.17
-1 6 -8 2.29 0.17
1 -6 8 1.58 0.16
1 -6 8 1.8 0.15
-2 6 -8 11.43 0.39
-2 6 -8 11.77 0.41
-2 6 -8 11.06 0.37
2 -6 8 11.15 0.42
2 -6 8 11.81 0.41
-3 6 -8 4.73 0.24
-3 6 -8 4.34 0.25
-3 6 -8 4.72 0.23
3 -6 8 4.34 0.26
3 -6 8 4.78 0.26
-4 6 -8 5.38 0.28
4 -6 8 5.65 0.29
4 -6 8 5.59 0.31
-5 6 -8 -0.02 0.07
5 -6 8 0 0.07
-6 6 -8 3.79 0.28
6 -6 8 4.56 0.29
-7 6 -8 3.4 0.28
7 -6 8 2.94 0.29
-8 6 -8 0.7 0.18
8 -6 8 1.08 0.2
8 5 -8 3.81 0.19
-8 -5 8 3.62 0.35
7 5 -8 1.74 0.22
7 5 -8 1.46 0.13
-7 -5 8 1.66 0.23
6 5 -8 0.04 0.07
6 5 -8 -0.04 0.04
-6 -5 8 0.07 0.08
5 5 -8 0.38 0.11
5 5 -8 0.61 0.08
-5 -5 8 0.37 0.05
-5 -5 8 0.41 0.11
4 5 -8 14.07 0.49
4 5 -8 13.79 0.38
-4 -5 8 13.5 0.36
-4 -5 8 13.64 0.49
3 5 -8 8.86 0.29
3 5 -8 8.99 0.37
-3 -5 8 8.8 0.28
-3 -5 8 9.01 0.36
2 5 -8 17.5 0.46
2 5 -8 16.55 0.53
-2 -5 8 17.38 0.53
-2 -5 8 17.48 0.46
1 5 -8 33.89 0.79
1 5 -8 35.26 0.86
-1 -5 8 35.43 0.81
-1 -5 8 34.04 0.84
0 5 -8 1.71 0.14
0 5 -8 2.08 0.16
0 5 -8 2.29 0.11
0 -5 8 2.21 0.16
0 -5 8 2.29 0.16
-1 5 -8 2.26 0.16
-1 5 -8 2.08 0.15
-1 5 -8 2.4 0.13
1 -5 8 2 0.16
1 -5 8 2.07 0.16
-2 5 -8 5.09 0.22
-2 5 -8 5.21 0.25
-2 5 -8 5.28 0.24
2 -5 8 5.02 0.26
2 -5 8 5.66 0.26
-3 5 -8 5.23 0.22
-3 5 -8 5.76 0.26
-3 5 -8 5.03 0.24
3 -5 8 4.88 0.26
3 -5 8 5.13 0.26
-4 5 -8 1.35 0.16
-4 5 -8 1.4 0.17
4 -5 8 1.34 0.16
4 -5 8 1.76 0.18
-5 5 -8 28.32 0.8
-5 5 -8 29.4 0.84
5 -5 8 30.13 0.8
-6 5 -8 18.17 0.64
-6 5 -8 19.58 0.64
6 -5 8 18.91 0.61
-7 5 -8 0.03 0.08
-7 5 -8 0.13 0.1
7 -5 8 0.06 0.09
-8 5 -8 -0.01 0.09
-8 5 -8 0.09 0.1
8 -5 8 0.01 0.08
9 4 -8 0.04 0.05
-9 -4 8 -0.09 0.08
8 4 -8 0.57 0.09
-8 -4 8 0.46 0.15
7 4 -8 0.51 0.12
7 4 -8 0.35 0.07
-7 -4 8 0.65 0.15
6 4 -8 5.16 0.21
6 4 -8 5.06 0.29
-6 -4 8 4.89 0.3
-6 -4 8 5.25 0.17
5 4 -8 0.13 0.07
5 4 -8 0.07 0.04
-5 -4 8 0.13 0.04
-5 -4 8 0.16 0.08
4 4 -8 71.75 1.44
4 4 -8 72.09 1.56
-4 -4 8 72.38 1.42
-4 -4 8 71.74 1.58
3 4 -8 4.49 0.24
3 4 -8 3.88 0.17
-3 -4 8 3.77 0.17
-3 -4 8 3.68 0.22
2 4 -8 2.72 0.15
2 4 -8 2.57 0.18
-2 -4 8 2.54 0.15
-2 -4 8 2.74 0.18
1 4 -8 0.79 0.04
1 4 -8 0.78 0.11
1 4 -8 0.97 0.1
-1 -4 8 0.81 0.11
-1 -4 8 0.73 0.09
0 4 -8 5.6 0.17
0 4 -8 6.11 0.25
0 4 -8 5.7 0.23
0 4 -8 5.24 0.23
0 -4 8 5.48 0.24
0 -4 8 5.18 0.23
-1 4 -8 39.45 0.88
-1 4 -8 38.93 0.91
-1 4 -8 40.41 0.89
-1 4 -8 39.14 0.83
1 -4 8 40.71 0.87
1 -4 8 38.59 0.9
1 -4 8 38.38 0.89
-2 4 -8 0.05 0.04
-2 4 -8 0.11 0.05
-2 4 -8 0.12 0.06
-2 4 -8 0.04 0.04
2 -4 8 0.02 0.05
2 -4 8 0.08 0.05
2 -4 8 -0.01 0.04
-3 4 -8 3.87 0.17
-3 4 -8 4.1 0.21
-3 4 -8 4.24 0.21
-3 4 -8 4.07 0.23
3 -4 8 4.01 0.22
3 -4 8 4.45 0.22
3 -4 8 4.21 0.21
-4 4 -8 6.95 0.32
-4 4 -8 6.71 0.3
4 -4 8 6.7 0.28
4 -4 8 6.77 0.31
4 -4 8 6.34 0.28
-5 4 -8 0.24 0.08
-5 4 -8 0.12 0.08
5 -4 8 0.29 0.08
5 -4 8 0.19 0.08
-6 4 -8 0.24 0.1
-6 4 -8 0.25 0.11
6 -4 8 0.25 0.09
6 -4 8 0.28 0.09
-7 4 -8 3.13 0.29
-7 4 -8 2.68 0.28
7 -4 8 2.2 0.23
7 -4 8 3.05 0.23
-8 4 -8 3.02 0.29
-8 4 -8 2.77 0.3
8 -4 8 2.39 0.26
8 -4 8 2.79 0.26
-9 4 -8 0.64 0.16
-9 4 -8 0.59 0.17
9 -4 8 0.52 0.15
9 -4 8 0.42 0.13
9 3 -8 6.54 0.29
-9 -3 8 8.07 0.46
8 3 -8 9.35 0.34
-8 -3 8 9.61 0.26
-8 -3 8 9.17 0.47
7 3 -8 2.02 0.15
7 3 -8 2.04 0.21
-7 -3 8 2.58 0.27
-7 -3 8 2.09 0.12
6 3 -8 2.73 0.2
6 3 -8 2.02 0.14
-6 -3 8 2.27 0.13
-6 -3 8 2.72 0.23
5 3 -8 2.23 0.18
5 3 -8 1.9 0.13
-5 -3 8 2.09 0.22
-5 -3 8 2.09 0.12
4 3 -8 21.47 0.52
4 3 -8 21.21 0.59
-4 -3 8 20.8 0.51
-4 -3 8 20.5 0.61
3 3 -8 21.18 0.58
3 3 -8 21.73 0.52
-3 -3 8 21.18 0.52
-3 -3 8 21.19 0.53
-3 -3 8 20.82 0.59
2 3 -8 0.98 0.1
2 3 -8 0.75 0.1
-2 -3 8 0.75 0.09
-2 -3 8 0.65 0.1
-2 -3 8 1.06 0.11
1 3 -8 6.44 0.23
1 3 -8 5.9 0.24
-1 -3 8 6.71 0.24
-1 -3 8 6.09 0.25
0 3 -8 3.15 0.16
0 3 -8 3.4 0.18
0 3 -8 3.3 0.17
0 3 -8 3.31 0.11
0 -3 8 2.9 0.16
0 -3 8 3 0.16
0 -3 8 3.32 0.15
-1 3 -8 72.2 1.42
-1 3 -8 73.72 1.51
-1 3 -8 74.8 1.48
-1 3 -8 72.34 1.47
1 -3 8 74.09 1.5
1 -3 8 73.02 1.46
1 -3 8 71.85 1.49
-2 3 -8 114.67 2.23
-2 3 -8 113.12 2.2
-2 3 -8 116.37 2.28
-2 3 -8 115.79 2.19
2 -3 8 112.68 2.24
2 -3 8 115.38 2.22
2 -3 8 114.03 2.26
-3 3 -8 12.21 0.38
-3 3 -8 11.91 0.4
-3 3 -8 11.42 0.32
3 -3 8 12.23 0.37
3 -3 8 11.82 0.38
3 -3 8 11.52 0.39
-4 3 -8 13.57 0.44
-4 3 -8 13.49 0.45
4 -3 8 12.8 0.41
4 -3 8 13.66 0.43
-5 3 -8 22.14 0.65
-5 3 -8 22.83 0.66
5 -3 8 22.61 0.62
5 -3 8 22.55 0.64
-6 3 -8 0.21 0.1
-6 3 -8 0.25 0.1
6 -3 8 0.16 0.07
6 -3 8 0.13 0.07
-7 3 -8 1.71 0.21
-7 3 -8 1.34 0.19
7 -3 8 1.75 0.21
7 -3 8 1.35 0.17
-8 3 -8 3.31 0.26
-8 3 -8 2.85 0.3
8 -3 8 2.8 0.24
8 -3 8 2.89 0.23
-9 3 -8 0.63 0.18
-9 3 -8 0.66 0.16
9 -3 8 0.75 0.15
9 -3 8 0.44 0.13
10 2 -8 0.09 0.07
10 2 -8 0.27 0.13
9 2 -8 0.08 0.07
-9 -2 8 0.03 0.08
-9 -2 8 0.06 0.05
8 2 -8 2.84 0.19
-8 -2 8 2.86 0.29
-8 -2 8 2.67 0.16
7 2 -8 4.84 0.26
7 2 -8 4.56 0.22
-7 -2 8 4.7 0.31
-7 -2 8 4.2 0.2
6 2 -8 5.2 0.22
6 2 -8 5.45 0.27
-6 -2 8 5.56 0.31
-6 -2 8 4.66 0.21
5 2 -8 62.48 1.36
5 2 -8 62.01 1.29
-5 -2 8 61.33 1.28
-5 -2 8 63.99 1.42
4 2 -8 2.05 0.13
4 2 -8 2.1 0.16
-4 -2 8 1.96 0.16
-4 -2 8 2.12 0.13
3 2 -8 45.53 0.96
3 2 -8 46.87 1.02
3 2 -8 42.15 0.97
-3 -2 8 47.14 0.84
-3 -2 8 45.19 0.97
-3 -2 8 46.91 1.04
-3 -2 8 46.64 0.98
2 2 -8 0.21 0.05
2 2 -8 0.12 0.05
2 2 -8 0.29 0.06
-2 -2 8 0.08 0.04
-2 -2 8 0.15 0.05
1 2 -8 9.76 0.31
1 2 -8 9.17 0.28
1 2 -8 9.47 0.31
-1 -2 8 9.32 0.27
-1 -2 8 8.75 0.3
-1 -2 8 9.23 0.29
0 2 -8 5.64 0.22
0 2 -8 6.15 0.24
0 2 -8 5.78 0.21
0 2 -8 6 0.16
0 -2 8 6.22 0.23
0 -2 8 6.46 0.22
0 -2 8 6.22 0.23
-1 2 -8 10.73 0.32
-1 2 -8 11.04 0.35
-1 2 -8 11.41 0.33
-1 2 -8 11.16 0.29
1 -2 8 11.07 0.34
1 -2 8 11.11 0.33
1 -2 8 10.74 0.31
-2 2 -8 3.83 0.2
-2 2 -8 4.1 0.18
-2 2 -8 4.06 0.16
-2 2 -8 4.07 0.18
2 -2 8 4.17 0.18
2 -2 8 3.79 0.18
2 -2 8 3.84 0.19
-3 2 -8 7.78 0.24
-3 2 -8 8.39 0.28
-3 2 -8 7.8 0.3
-3 2 -8 7.76 0.29
3 -2 8 8.55 0.3
3 -2 8 7.98 0.29
3 -2 8 8.18 0.28
-4 2 -8 0.56 0.1
-4 2 -8 0.63 0.11
4 -2 8 0.64 0.1
4 -2 8 0.55 0.09
-5 2 -8 0.19 0.08
-5 2 -8 0.13 0.08
5 -2 8 0.02 0.05
5 -2 8 0.1 0.06
-6 2 -8 -0.07 0.06
-6 2 -8 0.01 0.06
6 -2 8 0.03 0.06
6 -2 8 -0.03 0.04
-7 2 -8 3.32 0.26
-7 2 -8 3.13 0.23
7 -2 8 3.13 0.23
7 -2 8 2.84 0.2
-8 2 -8 0.02 0.07
-8 2 -8 -0.01 0.08
8 -2 8 -0.02 0.06
8 -2 8 -0.1 0.04
-9 2 -8 1.54 0.24
-9 2 -8 1.28 0.18
9 -2 8 1.23 0.17
9 -2 8 1.39 0.2
10 1 -8 11.28 0.56
10 1 -8 11.95 0.46
-10 -1 8 11.69 0.4
9 1 -8 1.36 0.16
-9 -1 8 1.56 0.24
-9 -1 8 1.52 0.16
8 1 -8 9.69 0.36
-8 -1 8 8.41 0.44
-8 -1 8 9.04 0.34
7 1 -8 8.54 0.33
7 1 -8 8.92 0.36
-7 -1 8 9.16 0.42
-7 -1 8 8.76 0.33
6 1 -8 0.14 0.07
6 1 -8 0.05 0.05
-6 -1 8 0.05 0.06
-6 -1 8 0.03 0.04
5 1 -8 0.42 0.08
5 1 -8 0.34 0.09
-5 -1 8 0.33 0.06
-5 -1 8 0.39 0.07
-5 -1 8 0.37 0.1
4 1 -8 -0.01 0.03
4 1 -8 -0.03 0.05
-4 -1 8 0 0.04
-4 -1 8 0.01 0.03
-4 -1 8 -0.03 0.03
3 1 -8 8.89 0.3
3 1 -8 8.59 0.28
3 1 -8 9.13 0.31
-3 -1 8 8.56 0.28
-3 -1 8 8.72 0.22
-3 -1 8 8.35 0.3
2 1 -8 0.89 0.1
2 1 -8 0.64 0.09
2 1 -8 1.1 0.1
-2 -1 8 0.76 0.04
-2 -1 8 0.72 0.09
-2 -1 8 0.7 0.09
-2 -1 8 0.85 0.08
1 1 -8 38.9 0.84
1 1 -8 36.31 0.82
1 1 -8 36.41 0.79
-1 -1 8 37.17 0.71
-1 -1 8 36.54 0.81
-1 -1 8 38.23 0.79
-1 -1 8 36.59 0.81
0 1 -8 109.41 2.15
0 1 -8 110.07 2.13
0 1 -8 110.88 2.05
0 1 -8 110.7 2.11
0 -1 8 109.91 2.11
0 -1 8 109.86 2.11
0 -1 8 113.49 2.14
-1 1 -8 49.1 1.03
-1 1 -8 50.65 1.07
-1 1 -8 49.56 1.03
-1 1 -8 51.13 1.01
1 -1 8 49.72 1.03
1 -1 8 50.17 1.03
1 -1 8 50.11 1.05
-2 1 -8 6.98 0.27
-2 1 -8 7.36 0.24
-2 1 -8 7.15 0.23
-2 1 -8 7.15 0.25
2 -1 8 7.16 0.24
2 -1 8 7.22 0.25
2 -1 8 7.36 0.26
-3 1 -8 36.16 0.8
-3 1 -8 36.17 0.85
-3 1 -8 36.01 0.76
-3 1 -8 35.45 0.84
3 -1 8 36.25 0.82
3 -1 8 39.47 0.85
3 -1 8 38.12 0.82
-4 1 -8 50.85 1.14
-4 1 -8 50.3 1.12
-4 1 -8 51.56 1
4 -1 8 50.47 1.11
4 -1 8 49.66 1.08
-5 1 -8 10.37 0.4
-5 1 -8 10.2 0.37
5 -1 8 10.6 0.35
5 -1 8 9.94 0.36
-6 1 -8 0.78 0.14
-6 1 -8 0.63 0.11
6 -1 8 0.72 0.13
6 -1 8 0.6 0.1
-7 1 -8 2.89 0.28
-7 1 -8 2.97 0.21
7 -1 8 2.99 0.2
7 -1 8 2.71 0.21
-8 1 -8 0.08 0.09
-8 1 -8 0.07 0.07
8 -1 8 0.08 0.07
8 -1 8 0.12 0.1
-9 1 -8 1.78 0.26
-9 1 -8 1.62 0.19
9 -1 8 1.59 0.19
9 -1 8 1.92 0.24
10 0 -8 2.18 0.29
10 0 -8 2.46 0.24
-10 0 8 2.61 0.21
9 0 -8 7.31 0.34
9 0 -8 6.66 0.4
-9 0 8 6.84 0.33
-9 0 8 6.73 0.41
8 0 -8 9.68 0.38
-8 0 8 9.35 0.44
-8 0 8 8.99 0.37
7 0 -8 0.83 0.13
7 0 -8 0.72 0.12
-7 0 8 0.54 0.1
-7 0 8 0.58 0.1
-7 0 8 0.87 0.15
6 0 -8 12.17 0.41
6 0 -8 12.03 0.4
-6 0 8 12.59 0.47
-6 0 8 12.45 0.41
-6 0 8 12.91 0.4
5 0 -8 8.02 0.31
5 0 -8 8.03 0.29
-5 0 8 8.4 0.31
-5 0 8 8.15 0.34
-5 0 8 7.97 0.27
4 0 -8 6.97 0.26
-4 0 8 7.04 0.23
-4 0 8 7.13 0.27
-4 0 8 7.39 0.29
3 0 -8 1.17 0.11
3 0 -8 1.1 0.12
3 0 -8 1.08 0.12
-3 0 8 1.28 0.11
-3 0 8 1.36 0.13
-3 0 8 1.18 0.11
-3 0 8 1.18 0.08
2 0 -8 113 2.13
2 0 -8 116.52 2.17
2 0 -8 111.65 2.16
-2 0 8 104.93 2.12
-2 0 8 105.24 2.14
-2 0 8 112.13 2.12
-2 0 8 110.53 2.05
1 0 -8 35.72 0.81
1 0 -8 36.68 0.78
1 0 -8 36.33 0.82
-1 0 8 36.25 0.78
-1 0 8 36.54 0.8
-1 0 8 35.35 0.77
-1 0 8 36.63 0.73
0 0 -8 18.91 0.46
0 0 -8 18.98 0.48
0 0 -8 19.18 0.5
0 0 8 18.85 0.45
0 0 8 18.28 0.45
0 0 8 18.66 0.43
0 0 8 18.76 0.48
-1 0 -8 23.62 0.54
-1 0 -8 22.97 0.54
-1 0 -8 23.58 0.58
-1 0 -8 22.59 0.55
1 0 8 23.69 0.57
1 0 8 24.37 0.55
1 0 8 23.78 0.54
-2 0 -8 0.65 0.08
-2 0 -8 0.43 0.07
-2 0 -8 0.49 0.08
-2 0 -8 0.6 0.08
2 0 8 0.63 0.08
2 0 8 0.51 0.07
2 0 8 0.48 0.07
-3 0 -8 0.11 0.05
-3 0 -8 0.06 0.04
-3 0 -8 0.05 0.05
3 0 8 0.07 0.04
3 0 8 0.06 0.04
3 0 8 0.1 0.05
-4 0 -8 3.48 0.21
-4 0 -8 3.57 0.19
-4 0 -8 3.44 0.14
4 0 8 3.35 0.18
4 0 8 3.04 0.16
-5 0 -8 14.78 0.5
-5 0 -8 15.41 0.46
5 0 8 14.99 0.43
5 0 8 14.92 0.46
-6 0 -8 15.45 0.56
-6 0 -8 15.9 0.49
6 0 8 15.86 0.51
6 0 8 16.88 0.47
-7 0 -8 0.08 0.1
-7 0 -8 0.07 0.06
7 0 8 -0.01 0.05
7 0 8 0.06 0.07
-8 0 -8 6.95 0.4
-8 0 -8 6.65 0.31
8 0 8 6.51 0.35
8 0 8 6.36 0.3
-9 0 -8 4.72 0.36
-9 0 -8 4.69 0.26
9 0 8 4.83 0.27
9 0 8 5.01 0.32
10 -1 -8 1.17 0.18
10 -1 -8 0.81 0.19
-10 1 8 0.91 0.16
9 -1 -8 3.28 0.28
9 -1 -8 3.58 0.26
-9 1 8 3.52 0.25
8 -1 -8 2.28 0.21
8 -1 -8 2.31 0.25
-8 1 8 2.55 0.2
-8 1 8 2.75 0.25
-8 1 8 2.12 0.24
7 -1 -8 5.58 0.28
7 -1 -8 5 0.25
-7 1 8 5.33 0.27
-7 1 8 5 0.27
-7 1 8 4.99 0.3
6 -1 -8 0.86 0.12
6 -1 -8 0.93 0.13
-6 1 8 0.78 0.13
-6 1 8 0.96 0.14
-6 1 8 0.84 0.12
5 -1 -8 3.96 0.2
5 -1 -8 3.98 0.21
-5 1 8 3.62 0.21
-5 1 8 3.89 0.22
-5 1 8 3.53 0.18
4 -1 -8 0.12 0.05
4 -1 -8 0.07 0.05
4 -1 -8 0.08 0.06
-4 1 8 0.04 0.04
-4 1 8 0.14 0.05
-4 1 8 0.13 0.06
3 -1 -8 5.04 0.21
3 -1 -8 5.31 0.24
3 -1 -8 4.94 0.22
-3 1 8 4.88 0.2
-3 1 8 5.1 0.23
-3 1 8 4.86 0.21
-3 1 8 4.85 0.18
2 -1 -8 0.42 0.08
2 -1 -8 0.35 0.06
2 -1 -8 0.54 0.09
-2 1 8 0.42 0.06
-2 1 8 0.43 0.07
-2 1 8 0.55 0.09
-2 1 8 0.43 0.06
1 -1 -8 41.33 0.87
1 -1 -8 40.26 0.9
1 -1 -8 40.34 0.91
-1 1 8 41.52 0.87
-1 1 8 39.28 0.83
-1 1 8 40.66 0.84
-1 1 8 40.62 0.89
0 -1 -8 37.48 0.85
0 -1 -8 38.76 0.8
0 -1 -8 35.98 0.83
0 1 8 36.7 0.8
0 1 8 37.56 0.79
0 1 8 37.76 0.77
0 1 8 37.53 0.83
-1 -1 -8 35.5 0.81
-1 -1 -8 35.06 0.79
-1 -1 -8 35.75 0.8
-1 -1 -8 35.58 0.76
1 1 8 36.5 0.74
1 1 8 34.88 0.77
1 1 8 36.66 0.8
-2 -1 -8 9.02 0.31
-2 -1 -8 8.97 0.3
-2 -1 -8 8.32 0.28
2 1 8 8.7 0.27
2 1 8 8.94 0.26
2 1 8 9.12 0.29
-3 -1 -8 10.24 0.33
-3 -1 -8 10.15 0.31
-3 -1 -8 10.22 0.35
3 1 8 9.7 0.3
3 1 8 9.85 0.3
-4 -1 -8 5.65 0.27
-4 -1 -8 5.37 0.23
-4 -1 -8 5.6 0.21
4 1 8 5.62 0.22
4 1 8 5.77 0.23
-5 -1 -8 6.18 0.25
-5 -1 -8 5.36 0.29
5 1 8 5.54 0.23
5 1 8 5.77 0.25
-6 -1 -8 26.06 0.65
-6 -1 -8 24.82 0.76
6 1 8 25.69 0.7
6 1 8 25.51 0.64
-7 -1 -8 6.61 0.37
-7 -1 -8 6.57 0.28
7 1 8 6.97 0.33
7 1 8 6.83 0.28
-8 -1 -8 7.78 0.31
-8 -1 -8 7.52 0.43
8 1 8 8.72 0.4
8 1 8 8.02 0.32
-9 -1 -8 2.41 0.17
-9 -1 -8 3.43 0.36
9 1 8 2.63 0.2
9 1 8 2.39 0.26
10 -2 -8 3.24 0.33
9 -2 -8 3.85 0.28
9 -2 -8 3.71 0.29
-9 2 8 3.62 0.27
8 -2 -8 0.61 0.14
8 -2 -8 0.61 0.13
-8 2 8 0.73 0.15
-8 2 8 0.66 0.14
7 -2 -8 12.29 0.45
7 -2 -8 12.64 0.48
-7 2 8 12.38 0.47
-7 2 8 12.78 0.48
-7 2 8 12.37 0.46
6 -2 -8 11.4 0.41
6 -2 -8 11.71 0.4
-6 2 8 10.95 0.41
-6 2 8 11.34 0.43
-6 2 8 11.4 0.4
5 -2 -8 10.68 0.37
5 -2 -8 10.09 0.36
-5 2 8 10.29 0.39
-5 2 8 10.18 0.36
-5 2 8 10.22 0.37
4 -2 -8 0.5 0.09
4 -2 -8 0.55 0.1
4 -2 -8 0.41 0.08
-4 2 8 0.51 0.08
-4 2 8 0.45 0.08
-4 2 8 0.63 0.11
3 -2 -8 11.75 0.4
3 -2 -8 12.55 0.38
3 -2 -8 12.05 0.39
-3 2 8 12.52 0.38
-3 2 8 12.37 0.4
-3 2 8 12.22 0.36
-3 2 8 11.56 0.35
2 -2 -8 2.2 0.15
2 -2 -8 2.02 0.13
2 -2 -8 2.15 0.16
-2 2 8 2.19 0.11
-2 2 8 2 0.14
-2 2 8 2.12 0.13
-2 2 8 1.85 0.12
1 -2 -8 13.64 0.42
1 -2 -8 14.08 0.43
1 -2 -8 15.17 0.39
-1 2 8 14.25 0.34
-1 2 8 13.92 0.39
-1 2 8 13.95 0.38
-1 2 8 14.54 0.42
0 -2 -8 63.27 1.23
0 -2 -8 59.99 1.28
0 -2 -8 60.67 1.28
0 2 8 60.74 1.24
0 2 8 58.67 1.24
0 2 8 62.1 1.17
-1 -2 -8 1.11 0.12
-1 -2 -8 0.93 0.11
1 2 8 1.06 0.11
1 2 8 1 0.07
1 2 8 0.92 0.11
1 2 8 1.03 0.11
-2 -2 -8 60.56 1.2
-2 -2 -8 57.56 1.21
-2 -2 -8 55.93 1.22
-2 -2 -8 57.92 1.24
2 2 8 57.22 1.18
2 2 8 57.34 1.14
-3 -2 -8 20.76 0.54
-3 -2 -8 21.89 0.55
-3 -2 -8 21.06 0.59
3 2 8 21.86 0.52
3 2 8 21.71 0.51
-4 -2 -8 20.56 0.61
-4 -2 -8 20.7 0.53
-4 -2 -8 21.22 0.54
4 2 8 20.83 0.53
4 2 8 20.71 0.51
-5 -2 -8 0.72 0.14
-5 -2 -8 0.7 0.09
5 2 8 0.65 0.09
5 2 8 0.69 0.1
-6 -2 -8 1.76 0.22
-6 -2 -8 1.51 0.13
6 2 8 1.56 0.12
6 2 8 1.62 0.17
-7 -2 -8 2.59 0.27
-7 -2 -8 2.12 0.14
7 2 8 2.27 0.19
7 2 8 2.29 0.16
-8 -2 -8 1.77 0.12
-8 -2 -8 1.82 0.24
8 2 8 1.67 0.16
8 2 8 2.16 0.23
-9 -2 -8 0.12 0.12
9 2 8 0.12 0.1
9 2 8 0.15 0.07
9 -3 -8 3.56 0.28
9 -3 -8 3.92 0.28
-9 3 8 3.69 0.33
-9 3 8 3.52 0.33
8 -3 -8 4.81 0.3
8 -3 -8 4.74 0.3
-8 3 8 4.74 0.31
-8 3 8 4.73 0.3
7 -3 -8 1.24 0.17
7 -3 -8 1.27 0.17
-7 3 8 1.19 0.17
-7 3 8 1.2 0.18
6 -3 -8 0.56 0.11
6 -3 -8 0.43 0.1
6 -3 -8 0.35 0.1
-6 3 8 0.57 0.12
-6 3 8 0.36 0.1
5 -3 -8 6.63 0.3
5 -3 -8 7.13 0.29
5 -3 -8 6.73 0.3
-5 3 8 6.37 0.28
-5 3 8 6.73 0.29
-5 3 8 6.92 0.33
4 -3 -8 1.63 0.16
4 -3 -8 2.03 0.19
4 -3 -8 1.76 0.18
-4 3 8 1.87 0.19
-4 3 8 1.83 0.15
-4 3 8 1.86 0.13
3 -3 -8 25.96 0.69
3 -3 -8 26.87 0.67
3 -3 -8 26.51 0.72
-3 3 8 26.94 0.61
-3 3 8 25.78 0.65
-3 3 8 26.16 0.7
-3 3 8 26.93 0.67
2 -3 -8 67.45 1.44
2 -3 -8 67.04 1.45
2 -3 -8 68.76 1.4
-2 3 8 67.52 1.3
-2 3 8 67.98 1.39
-2 3 8 67.64 1.44
-2 3 8 66.3 1.4
1 -3 -8 29.87 0.69
1 -3 -8 30.04 0.74
1 -3 -8 29.27 0.74
-1 3 8 29.13 0.69
-1 3 8 29.22 0.72
-1 3 8 29.93 0.59
-1 3 8 28.97 0.7
0 -3 -8 3.12 0.18
0 -3 -8 3.04 0.18
0 3 8 2.87 0.16
0 3 8 3.21 0.17
0 3 8 3.18 0.1
0 3 8 2.79 0.16
-1 -3 -8 3.12 0.18
-1 -3 -8 3.29 0.19
1 3 8 3.04 0.1
1 3 8 3.2 0.18
1 3 8 2.91 0.15
-2 -3 -8 1.11 0.12
-2 -3 -8 1.03 0.13
2 3 8 1.16 0.14
2 3 8 1.14 0.07
2 3 8 1.04 0.1
-3 -3 -8 1.06 0.11
-3 -3 -8 0.85 0.12
-3 -3 -8 0.96 0.12
3 3 8 0.92 0.1
3 3 8 1.11 0.08
-4 -3 -8 1.19 0.12
-4 -3 -8 1.3 0.16
-4 -3 -8 1.1 0.13
4 3 8 1.27 0.1
4 3 8 1.49 0.11
-5 -3 -8 18.74 0.62
-5 -3 -8 19.7 0.49
5 3 8 19.38 0.5
5 3 8 19.39 0.53
-6 -3 -8 15.16 0.38
-6 -3 -8 15.81 0.58
6 3 8 15.09 0.43
6 3 8 14.97 0.48
-7 -3 -8 4.4 0.31
-7 -3 -8 4.16 0.13
7 3 8 4.59 0.26
7 3 8 4.73 0.21
-8 -3 -8 2.88 0.31
8 3 8 2.86 0.18
-9 4 8 0 0.09
-9 4 8 0.07 0.09
-8 4 8 3.87 0.29
-8 4 8 3.55 0.29
-7 4 8 0.59 0.14
-7 4 8 0.72 0.14
6 -4 -8 0.95 0.14
-6 4 8 1.07 0.17
-6 4 8 0.78 0.14
5 -4 -8 0.23 0.09
-5 4 8 0.2 0.08
-5 4 8 0.3 0.1
4 -4 -8 42.74 1.07
4 -4 -8 42.73 1.03
-4 4 8 41.65 1.05
-4 4 8 43.51 1.02
3 -4 -8 8.19 0.35
3 -4 -8 8.65 0.36
-3 4 8 8.66 0.33
-3 4 8 8.63 0.33
-3 4 8 8.4 0.35
2 -4 -8 10.66 0.4
2 -4 -8 10.04 0.39
-2 4 8 10.05 0.36
-2 4 8 11.16 0.37
1 -4 -8 2.29 0.18
1 -4 -8 2.46 0.18
-1 4 8 2.6 0.16
-1 4 8 2.58 0.17
0 -4 -8 127.16 2.5
0 -4 -8 121.86 2.46
0 4 8 124.86 2.42
0 4 8 123.67 2.44
-1 -4 -8 38.36 0.94
-1 -4 -8 40.12 0.91
1 4 8 39.26 0.92
1 4 8 38.79 0.87
-2 -4 -8 30.02 0.73
-2 -4 -8 30.77 0.79
2 4 8 30.8 0.78
2 4 8 31.28 0.72
-3 -4 -8 4.31 0.2
-3 -4 -8 4.02 0.23
3 4 8 3.98 0.19
3 4 8 3.81 0.23
-4 -4 -8 1.61 0.12
-4 -4 -8 1.79 0.2
-4 -4 -8 1.52 0.17
4 4 8 1.32 0.12
-5 -4 -8 4.52 0.17
-5 -4 -8 4.11 0.28
-5 -4 -8 4.28 0.24
5 4 8 4.36 0.2
-6 -4 -8 8.43 0.41
6 4 8 8.16 0.29
-7 -4 -8 1.89 0.24
7 4 8 1.89 0.14
-8 -4 -8 0.37 0.14
8 4 8 0.24 0.07
-8 5 8 5.48 0.36
-7 5 8 0.2 0.1
6 -5 -8 -0.01 0.06
-6 5 8 -0.03 0.08
5 -5 -8 0.25 0.09
-5 5 8 0.02 0.07
4 -5 -8 5.05 0.31
4 -5 -8 5.82 0.31
-4 5 8 5.94 0.3
3 -5 -8 3.61 0.24
3 -5 -8 3.63 0.25
-3 5 8 3.67 0.22
-3 5 8 3.7 0.23
2 -5 -8 3.08 0.22
2 -5 -8 3.78 0.24
-2 5 8 3.39 0.21
-2 5 8 3.25 0.21
1 -5 -8 1.85 0.19
1 -5 -8 1.82 0.2
-1 5 8 1.94 0.18
-1 5 8 1.97 0.18
0 -5 -8 6.61 0.33
0 -5 -8 7.12 0.31
0 5 8 7.12 0.31
0 5 8 7.06 0.29
-1 -5 -8 0.49 0.11
-1 -5 -8 0.48 0.09
1 5 8 0.5 0.09
1 5 8 0.4 0.09
-2 -5 -8 40.3 0.93
-2 -5 -8 41.66 1.03
2 5 8 40.42 0.92
2 5 8 40.64 1
-3 -5 -8 0.05 0.05
-3 -5 -8 0.17 0.08
3 5 8 -0.01 0.06
3 5 8 0.02 0.04
-4 -5 -8 10.27 0.42
-4 -5 -8 10.2 0.3
4 5 8 9.91 0.33
4 5 8 10.33 0.43
-5 -5 -8 9.92 0.41
5 5 8 9.7 0.32
5 5 8 9.45 0.43
-6 -5 -8 1.15 0.19
6 5 8 1.32 0.13
-7 -5 -8 1.05 0.2
7 5 8 1.6 0.15
-8 6 8 1.61 0.25
-7 6 8 1.45 0.23
6 -6 -8 1.58 0.2
-6 6 8 1.55 0.21
5 -6 -8 9.95 0.43
-5 6 8 9.82 0.44
4 -6 -8 1.04 0.18
4 -6 -8 0.74 0.15
-4 6 8 0.63 0.13
3 -6 -8 8.1 0.39
3 -6 -8 8.22 0.39
-3 6 8 7.85 0.36
-3 6 8 7.38 0.35
2 -6 -8 0.42 0.11
2 -6 -8 0.65 0.13
-2 6 8 0.43 0.1
-2 6 8 0.39 0.1
1 -6 -8 6.68 0.33
1 -6 -8 7.35 0.36
-1 6 8 7.75 0.33
-1 6 8 7.12 0.33
0 -6 -8 19.16 0.58
0 -6 -8 19.31 0.63
0 6 8 18.71 0.59
0 6 8 19.07 0.56
-1 -6 -8 11.35 0.46
-1 -6 -8 10.82 0.39
1 6 8 10.7 0.38
1 6 8 10.56 0.42
-2 -6 -8 8.19 0.31
-2 -6 -8 7.65 0.38
2 6 8 8.13 0.31
2 6 8 7.66 0.35
-3 -6 -8 10.24 0.45
-3 -6 -8 10.53 0.33
3 6 8 10.71 0.44
3 6 8 10.61 0.36
-4 -6 -8 4.98 0.17
-4 -6 -8 5.31 0.31
4 6 8 4.87 0.3
4 6 8 5.31 0.24
-5 -6 -8 5.64 0.32
5 6 8 5.81 0.34
5 6 8 5.59 0.24
6 6 8 2.96 0.17
6 6 8 2.86 0.3
-7 7 8 0.08 0.09
-6 7 8 0.18 0.12
5 -7 -8 -0.01 0.08
-5 7 8 0 0.08
4 -7 -8 0.85 0.17
4 -7 -8 0.97 0.19
-4 7 8 0.65 0.15
3 -7 -8 2.38 0.26
3 -7 -8 2.08 0.24
-3 7 8 1.94 0.22
-3 7 8 2.75 0.26
2 -7 -8 -0.08 0.07
2 -7 -8 0.16 0.09
-2 7 8 -0.03 0.06
-2 7 8 0.21 0.09
1 -7 -8 1.3 0.18
1 -7 -8 0.94 0.17
-1 7 8 1.53 0.19
-1 7 8 1.27 0.17
0 -7 -8 1.01 0.18
0 -7 -8 0.72 0.13
0 7 8 1.01 0.14
0 7 8 1.1 0.16
-1 -7 -8 0.03 0.08
-1 -7 -8 -0.03 0.05
1 7 8 0.02 0.07
1 7 8 -0.03 0.05
-2 -7 -8 0.08 0.06
-2 -7 -8 -0.02 0.07
2 7 8 0.04 0.07
2 7 8 0.01 0.06
-3 -7 -8 3.46 0.28
-3 -7 -8 3.17 0.17
3 7 8 3.26 0.26
3 7 8 3.15 0.2
-4 -7 -8 6.05 0.36
4 7 8 5.85 0.26
4 7 8 5.87 0.34
-5 -7 -8 0.07 0.09
5 7 8 0.04 0.1
5 7 8 0.06 0.06
5 -8 -8 0.01 0.11
-5 8 8 0.19 0.12
4 -8 -8 4.74 0.33
4 -8 -8 5.24 0.37
-4 8 8 5.21 0.34
3 -8 -8 0.67 0.16
3 -8 -8 0.61 0.16
-3 8 8 0.79 0.16
2 -8 -8 0.99 0.17
2 -8 -8 0.8 0.17
-2 8 8 0.87 0.16
-2 8 8 0.97 0.17
1 -8 -8 9.56 0.44
1 -8 -8 10.46 0.5
-1 8 8 10.16 0.44
-1 8 8 10.03 0.45
0 -8 -8 1.02 0.16
0 -8 -8 0.69 0.16
0 8 8 0.87 0.16
0 8 8 0.96 0.15
-1 -8 -8 0.2 0.08
-1 -8 -8 0.21 0.12
1 8 8 0.1 0.09
1 8 8 0.14 0.08
-2 -8 -8 0.38 0.09
-2 -8 -8 0.2 0.12
2 8 8 0.22 0.09
2 8 8 0.36 0.12
-3 -8 -8 0.72 0.09
-3 -8 -8 0.37 0.14
3 8 8 0.5 0.14
3 8 8 0.51 0.11
-4 -8 -8 2.46 0.29
4 8 8 2.68 0.28
4 8 8 2.12 0.19
3 -9 -8 1.24 0.23
3 -9 -8 0.99 0.19
-3 9 8 0.91 0.19
2 -9 -8 0.11 0.1
2 -9 -8 -0.11 0.08
-2 9 8 0.08 0.1
-2 9 8 0 0.08
1 -9 -8 0.27 0.14
1 -9 -8 0.12 0.09
-1 9 8 0.07 0.1
-1 9 8 0.25 0.11
0 -9 -8 0.47 0.12
0 -9 -8 0.35 0.14
0 9 8 0.55 0.16
0 9 8 0.32 0.11
-1 -9 -8 1.02 0.15
-1 -9 -8 1.17 0.22
1 9 8 1.05 0.19
1 9 8 0.99 0.16
-2 -9 -8 1.66 0.16
-2 -9 -8 2.05 0.29
2 9 8 1.77 0.2
2 9 8 1.79 0.24
2 10 -9 0.35 0.1
2 10 -9 0.56 0.17
-2 -10 9 0.35 0.09
1 10 -9 0.79 0.19
1 10 -9 1.05 0.16
-1 -10 9 0.78 0.14
0 10 -9 2.35 0.28
0 10 -9 2.22 0.24
0 -10 9 2.19 0.23
-1 10 -9 0.15 0.1
-1 10 -9 0.08 0.1
1 -10 9 0.03 0.08
-2 10 -9 -0.01 0.09
-2 10 -9 -0.05 0.08
2 -10 9 -0.05 0.08
4 9 -9 0.01 0.1
4 9 -9 0.31 0.09
3 9 -9 0.18 0.08
3 9 -9 0.18 0.12
-3 -9 9 0.19 0.06
2 9 -9 0.11 0.11
2 9 -9 0.05 0.06
-2 -9 9 0.07 0.06
1 9 -9 1.52 0.22
1 9 -9 1.18 0.16
-1 -9 9 1.31 0.16
0 9 -9 5.2 0.34
0 9 -9 5.55 0.31
0 -9 9 4.96 0.29
-1 9 -9 2.96 0.27
-1 9 -9 2.74 0.28
1 -9 9 3.24 0.25
-2 9 -9 5.62 0.33
-2 9 -9 4.94 0.31
2 -9 9 5 0.33
3 -9 9 1.05 0.19
4 -9 9 1.91 0.28
6 8 -9 1.49 0.15
6 8 -9 1.51 0.23
-6 -8 9 1.73 0.25
5 8 -9 2.07 0.27
5 8 -9 2.04 0.17
-5 -8 9 1.76 0.24
4 8 -9 0.27 0.12
4 8 -9 0.3 0.08
-4 -8 9 0.27 0.11
-4 -8 9 0.28 0.05
3 8 -9 2.26 0.26
3 8 -9 2.5 0.18
-3 -8 9 2.55 0.26
-3 -8 9 2.53 0.16
2 8 -9 6.16 0.29
2 8 -9 6.11 0.36
-2 -8 9 5.67 0.27
-2 -8 9 5.98 0.33
1 8 -9 1.11 0.15
1 8 -9 0.65 0.15
-1 -8 9 0.88 0.15
-1 -8 9 1.03 0.14
0 8 -9 0.2 0.09
0 8 -9 0.32 0.11
0 -8 9 0.31 0.09
0 -8 9 0.17 0.09
-1 8 -9 0.1 0.09
-1 8 -9 0.07 0.07
1 -8 9 0.06 0.07
1 -8 9 0.12 0.08
-2 8 -9 8.47 0.39
-2 8 -9 7.96 0.37
2 -8 9 8.2 0.4
2 -8 9 7.75 0.36
3 -8 9 4.61 0.31
3 -8 9 4.71 0.29
4 -8 9 1.21 0.18
-5 8 -9 2.34 0.26
5 -8 9 2.66 0.27
-6 8 -9 1.33 0.22
6 -8 9 1.45 0.21
7 7 -9 3.53 0.19
7 7 -9 3.25 0.33
-7 -7 9 3.34 0.34
6 7 -9 0.41 0.13
6 7 -9 0.46 0.09
-6 -7 9 0.34 0.13
5 7 -9 2.22 0.16
5 7 -9 1.99 0.25
-5 -7 9 1.87 0.24
4 7 -9 0.47 0.09
4 7 -9 0.28 0.11
-4 -7 9 0.55 0.07
-4 -7 9 0.37 0.12
3 7 -9 1.96 0.16
3 7 -9 2.3 0.25
-3 -7 9 1.95 0.14
-3 -7 9 2.11 0.23
2 7 -9 6.98 0.29
2 7 -9 6.62 0.35
-2 -7 9 7.01 0.34
-2 -7 9 6.87 0.28
1 7 -9 2.79 0.19
1 7 -9 2.54 0.25
-1 -7 9 2.29 0.18
-1 -7 9 2.34 0.19
0 7 -9 0.28 0.1
0 7 -9 0.25 0.09
0 -7 9 0.12 0.07
0 -7 9 0.38 0.1
-1 7 -9 2.82 0.2
-1 7 -9 2.8 0.22
1 -7 9 2.74 0.21
1 -7 9 2.68 0.2
-2 7 -9 0.03 0.06
-2 7 -9 0 0.06
2 -7 9 -0.04 0.06
2 -7 9 0.17 0.08
-3 7 -9 15.39 0.52
-3 7 -9 17.09 0.55
3 -7 9 17.36 0.6
3 -7 9 17.1 0.56
-4 7 -9 24.39 0.71
4 -7 9 23.44 0.72
-5 7 -9 6.56 0.36
5 -7 9 7.6 0.37
-6 7 -9 1.47 0.21
6 -7 9 1.16 0.19
-7 7 -9 0.4 0.15
7 -7 9 0.32 0.12
8 6 -9 0.13 0.11
8 6 -9 0.04 0.05
-8 -6 9 0.05 0.11
7 6 -9 0.43 0.14
7 6 -9 0.24 0.07
-7 -6 9 0.35 0.14
6 6 -9 0.61 0.14
6 6 -9 0.67 0.1
-6 -6 9 0.59 0.15
5 6 -9 3.94 0.2
5 6 -9 4.26 0.29
-5 -6 9 4.34 0.14
-5 -6 9 4.64 0.31
4 6 -9 4.18 0.2
4 6 -9 4.15 0.28
-4 -6 9 4.21 0.18
-4 -6 9 3.93 0.27
3 6 -9 25.39 0.76
3 6 -9 25.77 0.65
-3 -6 9 26.31 0.76
-3 -6 9 26.84 0.64
2 6 -9 0.03 0.06
2 6 -9 0.13 0.06
-2 -6 9 0.16 0.06
-2 -6 9 0.14 0.08
1 6 -9 26.48 0.67
1 6 -9 25.32 0.73
-1 -6 9 25.68 0.67
-1 -6 9 25.92 0.71
0 6 -9 0.25 0.08
0 6 -9 0.07 0.07
0 -6 9 0.17 0.07
0 -6 9 0.14 0.07
-1 6 -9 0.48 0.1
-1 6 -9 0.37 0.09
1 -6 9 0.26 0.08
1 -6 9 0.28 0.09
-2 6 -9 0.35 0.09
-2 6 -9 0.61 0.11
-2 6 -9 0.69 0.1
2 -6 9 0.86 0.14
2 -6 9 0.72 0.12
-3 6 -9 14.07 0.46
-3 6 -9 13.89 0.44
-3 6 -9 14.28 0.48
3 -6 9 12.57 0.49
3 -6 9 14.57 0.49
-4 6 -9 2.08 0.2
4 -6 9 2.24 0.22
-5 6 -9 3.94 0.26
5 -6 9 3.8 0.26
-6 6 -9 3.25 0.26
6 -6 9 3.17 0.25
-7 6 -9 4.73 0.33
7 -6 9 3.86 0.29
-8 6 -9 0.22 0.14
8 -6 9 0.24 0.13
8 5 -9 5.95 0.25
8 5 -9 5.96 0.38
-8 -5 9 6.21 0.4
7 5 -9 0.37 0.12
7 5 -9 0.29 0.07
-7 -5 9 0.22 0.11
6 5 -9 24.74 0.76
6 5 -9 24.72 0.62
-6 -5 9 24.93 0.5
-6 -5 9 25.89 0.81
5 5 -9 2.28 0.23
5 5 -9 2.32 0.15
-5 -5 9 2.16 0.24
-5 -5 9 2.55 0.13
4 5 -9 3.07 0.23
4 5 -9 2.84 0.16
-4 -5 9 2.92 0.15
-4 -5 9 3 0.23
3 5 -9 3.51 0.18
3 5 -9 3.11 0.22
-3 -5 9 3.06 0.22
-3 -5 9 3.08 0.17
2 5 -9 1.03 0.15
2 5 -9 1.49 0.14
-2 -5 9 1.32 0.13
-2 -5 9 1.38 0.16
1 5 -9 1.81 0.14
1 5 -9 2.16 0.17
-1 -5 9 1.38 0.15
-1 -5 9 1.52 0.14
0 5 -9 1.52 0.15
0 5 -9 1.47 0.16
0 -5 9 1.3 0.14
0 -5 9 1.2 0.15
-1 5 -9 17.17 0.5
-1 5 -9 16.89 0.5
-1 5 -9 17.81 0.44
1 -5 9 17.57 0.52
1 -5 9 16.52 0.51
-2 5 -9 54.2 1.2
-2 5 -9 54.1 1.15
-2 5 -9 53.33 1.17
2 -5 9 53.3 1.21
2 -5 9 53.8 1.23
-3 5 -9 5.64 0.25
-3 5 -9 5.31 0.23
-3 5 -9 5.52 0.27
3 -5 9 5.16 0.27
3 -5 9 4.73 0.26
-4 5 -9 1.12 0.15
-4 5 -9 0.77 0.14
4 -5 9 1.07 0.15
-5 5 -9 0.62 0.15
-5 5 -9 0.45 0.12
5 -5 9 0.29 0.09
-6 5 -9 4.85 0.31
-6 5 -9 4.55 0.32
6 -5 9 4.92 0.3
-7 5 -9 1.17 0.2
-7 5 -9 1.27 0.2
7 -5 9 1.35 0.19
-8 5 -9 0.07 0.09
-8 5 -9 0.24 0.13
8 -5 9 0.17 0.11
9 4 -9 1.49 0.16
-9 -4 9 1.7 0.26
8 4 -9 2.67 0.18
-8 -4 9 2.96 0.32
7 4 -9 17.05 0.48
7 4 -9 16.63 0.58
-7 -4 9 16.18 0.63
-7 -4 9 16.61 0.38
6 4 -9 9.24 0.4
6 4 -9 9.94 0.33
-6 -4 9 9.61 0.45
-6 -4 9 9.74 0.28
5 4 -9 0.88 0.14
5 4 -9 0.71 0.09
-5 -4 9 0.84 0.14
-5 -4 9 0.94 0.1
4 4 -9 4.58 0.26
4 4 -9 4.15 0.19
-4 -4 9 4.68 0.2
-4 -4 9 4.15 0.26
3 4 -9 -0.02 0.04
3 4 -9 -0.01 0.05
-3 -4 9 -0.04 0.05
-3 -4 9 -0.02 0.03
2 4 -9 9.28 0.31
2 4 -9 9.64 0.36
-2 -4 9 9.75 0.32
-2 -4 9 9.49 0.36
1 4 -9 14.03 0.4
1 4 -9 14.04 0.44
-1 -4 9 14.23 0.44
-1 -4 9 14.07 0.42
0 4 -9 49.79 0.96
0 4 -9 49.37 1.06
0 4 -9 49.46 1.09
0 -4 9 46.8 1.08
0 -4 9 49.77 1.08
-1 4 -9 0.02 0.04
-1 4 -9 -0.03 0.04
-1 4 -9 -0.02 0.02
-1 4 -9 0 0.04
1 -4 9 -0.01 0.04
1 -4 9 -0.03 0.03
-2 4 -9 0.03 0.04
-2 4 -9 0.06 0.06
-2 4 -9 0.12 0.06
-2 4 -9 0.09 0.05
2 -4 9 0.01 0.05
2 -4 9 0.09 0.06
2 -4 9 -0.01 0.04
-3 4 -9 -0.02 0.04
-3 4 -9 -0.06 0.04
-3 4 -9 -0.01 0.04
-3 4 -9 0 0.05
3 -4 9 -0.04 0.03
3 -4 9 -0.02 0.05
3 -4 9 0.01 0.05
-4 4 -9 19.31 0.6
-4 4 -9 18.64 0.56
4 -4 9 18.63 0.54
4 -4 9 18.47 0.56
-5 4 -9 0.67 0.13
-5 4 -9 0.61 0.13
5 -4 9 0.54 0.11
5 -4 9 0.7 0.13
-6 4 -9 7.35 0.37
-6 4 -9 6.32 0.35
6 -4 9 7.09 0.33
6 -4 9 7.9 0.36
-7 4 -9 2.7 0.29
-7 4 -9 2.46 0.26
7 -4 9 2.26 0.24
7 -4 9 3.11 0.27
-8 4 -9 1.04 0.2
-8 4 -9 1.04 0.19
8 -4 9 0.72 0.14
8 -4 9 1.2 0.19
-9 4 -9 1.47 0.23
-9 4 -9 1.59 0.26
9 -4 9 1.4 0.22
9 -4 9 1.3 0.21
9 3 -9 0.98 0.14
-9 -3 9 0.79 0.06
-9 -3 9 0.81 0.19
8 3 -9 0.29 0.08
-8 -3 9 0.19 0.12
-8 -3 9 0.34 0.06
7 3 -9 11.45 0.45
7 3 -9 11.14 0.37
-7 -3 9 10.65 0.33
-7 -3 9 11.43 0.5
6 3 -9 0.31 0.11
6 3 -9 0.36 0.08
-6 -3 9 0.35 0.07
-6 -3 9 0.37 0.11
5 3 -9 20.87 0.53
5 3 -9 20.69 0.61
-5 -3 9 19.98 0.63
-5 -3 9 19.75 0.51
4 3 -9 2.8 0.19
4 3 -9 2.85 0.16
-4 -3 9 2.88 0.16
-4 -3 9 3.07 0.21
3 3 -9 1.89 0.15
3 3 -9 2.03 0.13
-3 -3 9 1.62 0.12
-3 -3 9 1.77 0.18
2 3 -9 0.17 0.06
2 3 -9 0.03 0.04
-2 -3 9 0.04 0.04
-2 -3 9 0.05 0.04
1 3 -9 4.29 0.21
1 3 -9 4.36 0.19
1 3 -9 3.9 0.2
-1 -3 9 4.15 0.21
-1 -3 9 4.24 0.2
0 3 -9 2.24 0.09
0 3 -9 2.32 0.15
0 3 -9 2.28 0.15
0 3 -9 2.23 0.14
0 3 -9 2.33 0.16
0 -3 9 2.18 0.14
0 -3 9 2.17 0.14
0 -3 9 2.11 0.13
-1 3 -9 13.18 0.38
-1 3 -9 12.37 0.37
-1 3 -9 12.64 0.41
-1 3 -9 12.57 0.33
1 -3 9 12.39 0.36
1 -3 9 12.94 0.4
1 -3 9 11.98 0.38
-2 3 -9 8.05 0.28
-2 3 -9 8.07 0.29
-2 3 -9 8.38 0.28
-2 3 -9 8.92 0.33
2 -3 9 8.15 0.29
2 -3 9 8.37 0.31
2 -3 9 9.15 0.33
-3 3 -9 2.68 0.16
-3 3 -9 2.9 0.14
-3 3 -9 2.76 0.19
-3 3 -9 3.18 0.18
3 -3 9 3.06 0.18
3 -3 9 2.86 0.19
3 -3 9 2.84 0.17
-4 3 -9 5.17 0.25
-4 3 -9 4.99 0.27
4 -3 9 5.33 0.24
4 -3 9 4.52 0.24
-5 3 -9 7.49 0.34
-5 3 -9 7.54 0.35
5 -3 9 8.07 0.34
5 -3 9 8.18 0.33
-6 3 -9 0 0.07
-6 3 -9 -0.04 0.05
6 -3 9 0.01 0.06
6 -3 9 0 0.05
-7 3 -9 0.55 0.14
-7 3 -9 0.6 0.14
7 -3 9 0.45 0.12
7 -3 9 0.49 0.11
-8 3 -9 6.4 0.37
-8 3 -9 6.03 0.39
8 -3 9 7.28 0.38
8 -3 9 6.46 0.34
-9 3 -9 5.24 0.39
-9 3 -9 4.83 0.33
9 -3 9 4.14 0.29
9 -3 9 3.93 0.3
9 2 -9 2.45 0.19
-9 -2 9 2.36 0.16
-9 -2 9 2.67 0.31
8 2 -9 6.98 0.3
-8 -2 9 6.36 0.26
-8 -2 9 5.29 0.35
7 2 -9 1.99 0.16
7 2 -9 1.92 0.2
-7 -2 9 1.93 0.14
6 2 -9 0.96 0.12
6 2 -9 1.06 0.15
-6 -2 9 1.08 0.12
-6 -2 9 0.67 0.14
5 2 -9 21.28 0.61
5 2 -9 21.66 0.55
-5 -2 9 21.44 0.65
-5 -2 9 20.4 0.55
4 2 -9 13.25 0.39
4 2 -9 13.21 0.43
-4 -2 9 13.05 0.39
3 2 -9 0.19 0.07
3 2 -9 0.29 0.06
-3 -2 9 0.21 0.07
-3 -2 9 0.23 0.06
2 2 -9 7.96 0.29
2 2 -9 7.68 0.29
2 2 -9 7.7 0.26
-2 -2 9 7.8 0.29
-2 -2 9 7.53 0.27
1 2 -9 19.62 0.49
1 2 -9 20.03 0.53
1 2 -9 19.37 0.52
-1 -2 9 19.04 0.36
-1 -2 9 19.01 0.51
-1 -2 9 19.05 0.5
-1 -2 9 19.56 0.48
0 2 -9 3.7 0.12
0 2 -9 3.35 0.18
0 2 -9 3.87 0.18
0 2 -9 3.9 0.19
0 -2 9 3.66 0.18
0 -2 9 3.54 0.18
0 -2 9 4.07 0.17
-1 2 -9 1.31 0.09
-1 2 -9 1.27 0.1
-1 2 -9 1.46 0.13
-1 2 -9 1.45 0.14
1 -2 9 1.19 0.12
1 -2 9 1.39 0.12
1 -2 9 1.09 0.11
-2 2 -9 2.07 0.13
-2 2 -9 1.95 0.13
-2 2 -9 2.09 0.15
-2 2 -9 2.22 0.13
2 -2 9 2.21 0.15
2 -2 9 2.18 0.15
2 -2 9 2.13 0.13
-3 2 -9 7.56 0.24
-3 2 -9 7.68 0.29
-3 2 -9 7.9 0.31
3 -2 9 7.76 0.3
3 -2 9 7.84 0.28
3 -2 9 7.44 0.29
-4 2 -9 44.89 1.05
-4 2 -9 44.45 1.05
4 -2 9 45.06 1.03
4 -2 9 45 1
-5 2 -9 25.24 0.7
-5 2 -9 25.86 0.73
5 -2 9 25.79 0.67
5 -2 9 24.53 0.68
-6 2 -9 16.01 0.56
-6 2 -9 14.6 0.51
6 -2 9 15.07 0.48
6 -2 9 14.61 0.51
-7 2 -9 0.62 0.15
-7 2 -9 0.42 0.11
7 -2 9 0.51 0.11
7 -2 9 0.67 0.13
-8 2 -9 0.05 0.09
-8 2 -9 0.06 0.08
8 -2 9 0.05 0.07
8 -2 9 0.15 0.09
-9 2 -9 0.97 0.17
-9 2 -9 1.01 0.2
9 -2 9 1.05 0.17
9 -2 9 1.23 0.2
9 1 -9 5.16 0.29
-9 -1 9 5.19 0.26
-9 -1 9 6.1 0.39
8 1 -9 0.39 0.1
-8 -1 9 0.59 0.11
-8 -1 9 0.61 0.15
7 1 -9 0.02 0.06
7 1 -9 0.08 0.08
-7 -1 9 0.13 0.1
-7 -1 9 0.06 0.05
6 1 -9 8.57 0.32
6 1 -9 7.99 0.34
-6 -1 9 7.57 0.36
-6 -1 9 8.63 0.32
5 1 -9 1.21 0.13
5 1 -9 1.34 0.15
-5 -1 9 1.08 0.12
-5 -1 9 1.38 0.17
4 1 -9 17.79 0.51
4 1 -9 16.82 0.46
-4 -1 9 16.78 0.39
-4 -1 9 16.53 0.51
-4 -1 9 16.78 0.47
3 1 -9 31.17 0.75
3 1 -9 30.77 0.75
3 1 -9 30.44 0.71
-3 -1 9 30.73 0.73
-3 -1 9 31.17 0.75
-3 -1 9 30.77 0.62
2 1 -9 1.11 0.12
2 1 -9 1.37 0.11
-2 -1 9 1.01 0.11
-2 -1 9 1.4 0.12
-2 -1 9 1.35 0.13
-2 -1 9 1.19 0.06
1 1 -9 12.33 0.38
1 1 -9 11.47 0.34
-1 -1 9 11.56 0.35
-1 -1 9 11.78 0.26
-1 -1 9 11.83 0.33
-1 -1 9 11.42 0.35
0 1 -9 30.24 0.71
0 1 -9 30.28 0.69
0 1 -9 30.09 0.63
0 -1 9 30.78 0.69
0 -1 9 30.29 0.71
0 -1 9 29.01 0.67
-1 1 -9 15.84 0.45
-1 1 -9 15.9 0.42
-1 1 -9 15.78 0.39
-1 1 -9 15.14 0.41
1 -1 9 15.48 0.41
1 -1 9 15.11 0.41
1 -1 9 15.01 0.43
-2 1 -9 0.6 0.08
-2 1 -9 0.62 0.1
-2 1 -9 0.55 0.08
-2 1 -9 0.45 0.07
2 -1 9 0.59 0.09
2 -1 9 0.49 0.07
2 -1 9 0.73 0.1
-3 1 -9 8.77 0.32
-3 1 -9 9.19 0.33
-3 1 -9 8.78 0.27
3 -1 9 9.28 0.31
3 -1 9 9.2 0.3
3 -1 9 9.31 0.32
-4 1 -9 3.4 0.21
-4 1 -9 3.36 0.2
4 -1 9 3.35 0.18
4 -1 9 3.58 0.19
-5 1 -9 0.83 0.13
-5 1 -9 0.94 0.14
5 -1 9 0.71 0.11
5 -1 9 0.89 0.12
-6 1 -9 -0.02 0.05
-6 1 -9 0.1 0.08
6 -1 9 0.08 0.07
6 -1 9 -0.02 0.04
-7 1 -9 23.4 0.76
-7 1 -9 24.66 0.7
7 -1 9 22.8 0.7
7 -1 9 23.42 0.66
-8 1 -9 8.5 0.45
-8 1 -9 7.74 0.37
8 -1 9 8.19 0.36
8 -1 9 8.58 0.41
-9 1 -9 6.9 0.43
-9 1 -9 5.88 0.33
9 -1 9 6.63 0.33
9 -1 9 5.78 0.36
10 0 -9 0.17 0.12
10 0 -9 0.14 0.09
-10 0 9 -0.03 0.06
9 0 -9 0.23 0.09
-9 0 9 0.21 0.09
-9 0 9 0.28 0.14
8 0 -9 6.87 0.32
-8 0 9 6.45 0.32
-8 0 9 6.09 0.36
7 0 -9 0.18 0.08
7 0 -9 0.12 0.07
-7 0 9 0.15 0.08
-7 0 9 0.04 0.05
6 0 -9 10.87 0.39
6 0 -9 10.25 0.37
-6 0 9 10.03 0.34
-6 0 9 9.59 0.41
-6 0 9 9.56 0.37
5 0 -9 9.41 0.35
5 0 -9 9.34 0.33
-5 0 9 9.09 0.34
-5 0 9 9.35 0.3
-5 0 9 8.62 0.36
4 0 -9 11.54 0.36
4 0 -9 11.34 0.39
-4 0 9 10.86 0.37
-4 0 9 10.48 0.38
-4 0 9 10.61 0.3
3 0 -9 1.16 0.12
3 0 -9 1.32 0.14
3 0 -9 1.08 0.13
-3 0 9 1.09 0.08
-3 0 9 1.43 0.12
-3 0 9 1.13 0.12
-3 0 9 1.13 0.12
2 0 -9 18.81 0.52
2 0 -9 18.29 0.48
2 0 -9 19.04 0.52
-2 0 9 18.47 0.42
-2 0 9 18.77 0.5
-2 0 9 18.56 0.48
-2 0 9 19 0.48
1 0 -9 1.02 0.12
1 0 -9 1.2 0.11
1 0 -9 1.22 0.13
-1 0 9 1.23 0.11
-1 0 9 0.97 0.1
-1 0 9 1.16 0.12
-1 0 9 1.14 0.07
0 0 -9 24.37 0.63
0 0 -9 25.01 0.61
0 0 -9 25.19 0.59
0 0 9 24.87 0.61
0 0 9 25.27 0.55
0 0 9 24.6 0.59
0 0 9 25.25 0.57
-1 0 -9 6.26 0.24
-1 0 -9 6.71 0.23
-1 0 -9 6.71 0.27
-1 0 -9 6.67 0.23
1 0 9 7.13 0.23
1 0 9 6.75 0.25
1 0 9 6.78 0.24
-2 0 -9 91.14 1.86
-2 0 -9 97.12 1.83
-2 0 -9 94.92 1.84
-2 0 -9 93.8 1.89
2 0 9 96.69 1.87
2 0 9 93.05 1.83
2 0 9 92.42 1.84
-3 0 -9 83.3 1.65
-3 0 -9 86.06 1.74
-3 0 -9 84.44 1.72
3 0 9 84.95 1.69
3 0 9 83.91 1.68
-4 0 -9 0.83 0.13
-4 0 -9 1.05 0.13
-4 0 -9 1.19 0.09
4 0 9 1.08 0.12
4 0 9 1.2 0.12
-5 0 -9 3.59 0.23
-5 0 -9 2.88 0.19
5 0 9 3.07 0.18
5 0 9 3.67 0.2
-6 0 -9 14.68 0.47
-6 0 -9 14.05 0.53
6 0 9 14.17 0.48
6 0 9 14.79 0.45
-7 0 -9 16.81 0.53
-7 0 -9 16.2 0.61
7 0 9 16.39 0.51
7 0 9 16.91 0.56
-8 0 -9 2.09 0.26
-8 0 -9 1.79 0.19
8 0 9 1.99 0.19
8 0 9 1.67 0.2
-9 0 -9 2.93 0.22
-9 0 -9 2.99 0.34
9 0 9 3.11 0.23
9 0 9 3.37 0.28
9 -1 -9 0.48 0.14
9 -1 -9 0.44 0.12
-9 1 9 0.48 0.12
8 -1 -9 0.07 0.07
-8 1 9 -0.01 0.07
-8 1 9 0 0.06
7 -1 -9 16.96 0.54
7 -1 -9 17.92 0.56
-7 1 9 17.25 0.54
-7 1 9 17.32 0.57
-7 1 9 17.67 0.6
6 -1 -9 5.24 0.26
6 -1 -9 5.14 0.26
-6 1 9 5.45 0.28
-6 1 9 4.99 0.24
-6 1 9 4.79 0.27
5 -1 -9 0.05 0.05
5 -1 -9 -0.07 0.04
-5 1 9 0.01 0.04
-5 1 9 0 0.05
-5 1 9 -0.05 0.04
4 -1 -9 4.27 0.21
4 -1 -9 4.26 0.22
-4 1 9 4.47 0.23
-4 1 9 4.19 0.19
-4 1 9 4.37 0.22
3 -1 -9 0.02 0.05
3 -1 -9 0.09 0.05
3 -1 -9 -0.02 0.03
-3 1 9 0.04 0.03
-3 1 9 -0.02 0.03
-3 1 9 0.07 0.05
-3 1 9 0.05 0.03
2 -1 -9 13.15 0.41
2 -1 -9 14.19 0.43
2 -1 -9 13.49 0.39
-2 1 9 13.35 0.35
-2 1 9 13.25 0.37
-2 1 9 13.57 0.41
-2 1 9 13.28 0.39
1 -1 -9 -0.02 0.04
1 -1 -9 0.14 0.06
1 -1 -9 0.08 0.04
-1 1 9 0.07 0.04
-1 1 9 0.07 0.03
-1 1 9 0.06 0.04
-1 1 9 0.12 0.04
0 -1 -9 25.74 0.65
0 -1 -9 25.9 0.6
0 -1 -9 25.03 0.63
0 1 9 26.02 0.63
0 1 9 25.39 0.59
0 1 9 24.5 0.6
0 1 9 25.67 0.57
-1 -1 -9 8.01 0.28
-1 -1 -9 8.57 0.31
-1 -1 -9 8.42 0.27
-1 -1 -9 8.06 0.28
1 1 9 8.28 0.27
1 1 9 8.15 0.25
-2 -1 -9 3.91 0.19
-2 -1 -9 4.03 0.2
-2 -1 -9 3.96 0.2
2 1 9 4.27 0.18
2 1 9 3.79 0.19
2 1 9 4.27 0.17
-3 -1 -9 5.41 0.25
-3 -1 -9 5.3 0.24
-3 -1 -9 4.92 0.21
3 1 9 4.96 0.21
3 1 9 5.14 0.2
-4 -1 -9 10.49 0.32
-4 -1 -9 11.04 0.4
-4 -1 -9 11.35 0.37
4 1 9 10.42 0.34
4 1 9 10.2 0.33
-5 -1 -9 0.13 0.08
-5 -1 -9 0.19 0.07
5 1 9 0.04 0.05
5 1 9 0.13 0.05
-6 -1 -9 0.04 0.08
-6 -1 -9 -0.05 0.04
6 1 9 0.02 0.04
6 1 9 -0.03 0.05
-7 -1 -9 2.9 0.19
-7 -1 -9 3.43 0.27
7 1 9 2.84 0.22
7 1 9 2.84 0.19
-8 -1 -9 28.75 0.9
-8 -1 -9 26.6 0.7
8 1 9 27.39 0.73
8 1 9 27.01 0.8
-9 -1 -9 1.42 0.15
-9 -1 -9 1.14 0.21
9 1 9 0.95 0.14
9 1 9 1.09 0.19
9 -2 -9 0.71 0.15
9 -2 -9 0.97 0.18
-9 2 9 0.84 0.17
8 -2 -9 0.05 0.08
8 -2 -9 0.17 0.09
-8 2 9 0.03 0.07
-8 2 9 0.1 0.08
7 -2 -9 0.71 0.13
7 -2 -9 0.85 0.13
-7 2 9 0.81 0.15
-7 2 9 0.76 0.15
-7 2 9 0.69 0.13
6 -2 -9 13.14 0.45
6 -2 -9 13.43 0.46
-6 2 9 13.08 0.48
-6 2 9 13.43 0.47
-6 2 9 12.92 0.44
5 -2 -9 6.54 0.29
5 -2 -9 7.09 0.31
-5 2 9 6.95 0.28
-5 2 9 6.67 0.32
-5 2 9 6.94 0.3
4 -2 -9 4.1 0.23
4 -2 -9 4.35 0.26
4 -2 -9 3.54 0.2
-4 2 9 4.03 0.2
-4 2 9 4.17 0.2
-4 2 9 4.38 0.23
3 -2 -9 24.67 0.68
3 -2 -9 24.59 0.63
3 -2 -9 25.04 0.66
-3 2 9 24.97 0.6
-3 2 9 24.84 0.6
-3 2 9 25.17 0.63
-3 2 9 23.68 0.65
2 -2 -9 10.08 0.36
2 -2 -9 10.43 0.33
2 -2 -9 10.01 0.37
-2 2 9 10.01 0.33
-2 2 9 10.73 0.32
-2 2 9 9.59 0.35
-2 2 9 10.38 0.3
1 -2 -9 58.99 1.21
1 -2 -9 58.02 1.26
1 -2 -9 55.69 1.26
-1 2 9 58.31 1.24
-1 2 9 59.62 1.15
-1 2 9 57.71 1.21
-1 2 9 57.36 1.19
0 -2 -9 7.92 0.26
0 -2 -9 7.23 0.29
0 -2 -9 7.27 0.29
0 2 9 7.8 0.22
0 2 9 7.63 0.27
0 2 9 7.84 0.27
0 2 9 7.39 0.28
-1 -2 -9 7.16 0.29
-1 -2 -9 7.95 0.3
1 2 9 7.12 0.26
1 2 9 7.79 0.28
1 2 9 7.67 0.22
1 2 9 7.93 0.28
-2 -2 -9 22.34 0.58
-2 -2 -9 22.59 0.6
-2 -2 -9 22.36 0.58
2 2 9 21.09 0.54
2 2 9 22.13 0.51
-3 -2 -9 4.52 0.22
-3 -2 -9 4.29 0.23
-3 -2 -9 4.69 0.22
3 2 9 4.85 0.2
3 2 9 5.14 0.19
-4 -2 -9 1.5 0.14
-4 -2 -9 1.3 0.17
-4 -2 -9 1.12 0.13
4 2 9 1.52 0.12
4 2 9 1.22 0.12
-5 -2 -9 15.32 0.45
-5 -2 -9 15.04 0.53
5 2 9 15.33 0.43
5 2 9 14.29 0.45
-6 -2 -9 16.92 0.61
-6 -2 -9 18.12 0.49
6 2 9 17.69 0.53
6 2 9 16.72 0.48
-7 -2 -9 5.84 0.24
-7 -2 -9 6.47 0.38
7 2 9 5.79 0.26
7 2 9 6.09 0.31
-8 -2 -9 0.18 0.13
-8 -2 -9 0.25 0.07
8 2 9 0.34 0.11
8 2 9 0.33 0.09
-9 -2 -9 0.4 0.16
-9 -2 -9 0.67 0.06
9 2 9 0.76 0.12
9 2 9 1.19 0.19
9 -3 -9 0.95 0.17
9 -3 -9 1.08 0.19
-9 3 9 0.89 0.19
-9 3 9 1.07 0.19
8 -3 -9 4.17 0.28
8 -3 -9 3.92 0.28
-8 3 9 3.88 0.29
-8 3 9 3.55 0.27
7 -3 -9 0.19 0.1
7 -3 -9 0.41 0.11
-7 3 9 0.28 0.1
-7 3 9 0.22 0.1
6 -3 -9 4.75 0.26
6 -3 -9 4.64 0.26
6 -3 -9 4.88 0.27
-6 3 9 4.66 0.29
-6 3 9 5.34 0.28
5 -3 -9 5.54 0.28
5 -3 -9 5.96 0.28
-5 3 9 5.13 0.29
-5 3 9 5.67 0.26
-5 3 9 5.65 0.27
4 -3 -9 45.81 1.08
4 -3 -9 45.09 1.11
4 -3 -9 45.1 1.05
-4 3 9 47.93 1.05
-4 3 9 45.04 1.09
-4 3 9 45.51 1
3 -3 -9 6.5 0.29
3 -3 -9 6.57 0.31
3 -3 -9 6.35 0.27
-3 3 9 6.3 0.27
-3 3 9 7.02 0.27
-3 3 9 6.55 0.23
-3 3 9 6.68 0.3
2 -3 -9 100.26 2.04
2 -3 -9 99.5 2.03
-2 3 9 98.63 1.98
-2 3 9 96.18 1.96
-2 3 9 99.42 2.02
-2 3 9 99.99 1.88
1 -3 -9 14.83 0.47
1 -3 -9 14.06 0.46
-1 3 9 13.99 0.42
-1 3 9 14.62 0.43
-1 3 9 14.82 0.45
-1 3 9 14.7 0.33
0 -3 -9 7.48 0.31
0 -3 -9 8.02 0.31
0 3 9 7.78 0.29
0 3 9 7.63 0.28
-1 -3 -9 1.09 0.14
-1 -3 -9 0.92 0.12
1 3 9 0.96 0.11
1 3 9 0.75 0.11
1 3 9 0.94 0.06
-2 -3 -9 0.21 0.07
-2 -3 -9 0.16 0.07
2 3 9 0.24 0.08
2 3 9 0.27 0.05
2 3 9 0.3 0.07
-3 -3 -9 2.63 0.19
-3 -3 -9 2.38 0.17
-3 -3 -9 2.53 0.16
3 3 9 2.56 0.15
3 3 9 2.66 0.13
-4 -3 -9 6.85 0.29
-4 -3 -9 6.33 0.32
-4 -3 -9 6.76 0.26
4 3 9 6.85 0.25
4 3 9 6.12 0.25
-5 -3 -9 1.19 0.18
-5 -3 -9 1.35 0.13
5 3 9 1.07 0.11
5 3 9 1.19 0.13
-6 -3 -9 4.83 0.2
-6 -3 -9 4.76 0.32
6 3 9 5.3 0.23
-7 -3 -9 2.65 0.29
-7 -3 -9 2.32 0.12
7 3 9 2.41 0.17
-8 -3 -9 3.31 0.34
8 3 9 3.33 0.2
-9 4 9 0.31 0.13
-9 4 9 0.4 0.14
-8 4 9 2.28 0.26
-8 4 9 1.43 0.22
-7 4 9 9.98 0.44
-7 4 9 9.74 0.46
6 -4 -9 0.19 0.09
-6 4 9 0.13 0.08
-6 4 9 0.3 0.11
5 -4 -9 2.4 0.23
-5 4 9 2 0.22
-5 4 9 2.1 0.21
4 -4 -9 0.12 0.07
4 -4 -9 0.19 0.09
-4 4 9 0.24 0.08
-4 4 9 0.33 0.1
3 -4 -9 5.35 0.28
3 -4 -9 5.1 0.28
-3 4 9 4.93 0.25
-3 4 9 4.49 0.24
2 -4 -9 0.79 0.13
2 -4 -9 1.21 0.16
-2 4 9 1.05 0.13
-2 4 9 0.9 0.12
1 -4 -9 0.01 0.05
1 -4 -9 0.07 0.06
-1 4 9 0 0.04
-1 4 9 -0.02 0.04
0 -4 -9 45.21 1.06
0 -4 -9 45.73 1.09
0 4 9 45.94 1.04
0 4 9 45.54 1.02
-1 -4 -9 40.16 0.99
-1 -4 -9 39.77 0.95
1 4 9 40.14 0.96
1 4 9 41.95 0.92
-2 -4 -9 3.32 0.19
-2 -4 -9 3.75 0.23
2 4 9 3.61 0.22
2 4 9 3.45 0.18
-3 -4 -9 0.02 0.04
-3 -4 -9 0.15 0.07
3 4 9 0.06 0.05
3 4 9 0.09 0.07
-4 -4 -9 7.78 0.37
-4 -4 -9 8.33 0.28
-4 -4 -9 7.96 0.34
4 4 9 7.11 0.28
-5 -4 -9 9.16 0.42
-5 -4 -9 8.68 0.28
5 4 9 8.66 0.31
-6 -4 -9 7.24 0.4
-6 -4 -9 8.24 0.21
6 4 9 8.13 0.3
-7 -4 -9 3.09 0.32
7 4 9 3.32 0.19
-8 -4 -9 8.97 0.49
8 4 9 9.23 0.34
-8 5 9 -0.08 0.07
-7 5 9 0.22 0.11
6 -5 -9 16.63 0.58
-6 5 9 17.45 0.61
5 -5 -9 30.19 0.84
-5 5 9 30.17 0.85
4 -5 -9 5.31 0.3
4 -5 -9 5.25 0.32
-4 5 9 5.02 0.28
3 -5 -9 8.31 0.39
3 -5 -9 8.62 0.38
-3 5 9 8.93 0.37
-3 5 9 9.04 0.36
2 -5 -9 7.72 0.36
2 -5 -9 7.4 0.35
-2 5 9 7.43 0.32
-2 5 9 7.34 0.32
1 -5 -9 3.47 0.24
1 -5 -9 3.59 0.24
-1 5 9 3.93 0.23
-1 5 9 3.84 0.22
0 -5 -9 15.98 0.51
0 -5 -9 16.13 0.55
0 5 9 15.78 0.5
0 5 9 16.31 0.49
-1 -5 -9 5.64 0.3
-1 -5 -9 6 0.28
1 5 9 5.54 0.28
1 5 9 5.52 0.25
-2 -5 -9 3.82 0.25
-2 -5 -9 4.22 0.22
2 5 9 4.34 0.25
2 5 9 4.39 0.22
-3 -5 -9 3.36 0.24
-3 -5 -9 3.08 0.18
3 5 9 3.09 0.18
3 5 9 3.01 0.23
-4 -5 -9 0.04 0.08
-4 -5 -9 -0.03 0.04
4 5 9 0.02 0.04
4 5 9 0 0.06
-5 -5 -9 1.11 0.18
-5 -5 -9 1.08 0.08
5 5 9 1.2 0.13
5 5 9 0.86 0.16
-6 -5 -9 2.97 0.31
6 5 9 2.48 0.28
6 5 9 2.91 0.18
-7 -5 -9 5.25 0.36
7 5 9 4.66 0.23
-7 6 9 0 0.08
6 -6 -9 4.05 0.28
-6 6 9 4.16 0.3
5 -6 -9 0.03 0.08
-5 6 9 -0.07 0.07
4 -6 -9 0.1 0.09
4 -6 -9 0.2 0.11
-4 6 9 0.26 0.1
3 -6 -9 3.94 0.28
3 -6 -9 4.09 0.29
-3 6 9 4.3 0.27
-3 6 9 4.19 0.26
2 -6 -9 0.49 0.13
2 -6 -9 0.37 0.12
-2 6 9 0.49 0.11
-2 6 9 0.42 0.1
1 -6 -9 0.77 0.15
1 -6 -9 1.04 0.16
-1 6 9 0.8 0.13
-1 6 9 1.02 0.15
0 -6 -9 8.86 0.41
0 -6 -9 9.68 0.39
0 6 9 8.04 0.36
0 6 9 9.16 0.36
-1 -6 -9 1.43 0.19
-1 -6 -9 1.03 0.14
1 6 9 1.22 0.17
1 6 9 1.17 0.15
-2 -6 -9 0.27 0.11
-2 -6 -9 0.38 0.09
2 6 9 0.31 0.11
2 6 9 0.28 0.08
-3 -6 -9 1.69 0.14
-3 -6 -9 1.41 0.19
3 6 9 1.84 0.21
3 6 9 1.98 0.18
-4 -6 -9 19.21 0.47
-4 -6 -9 19.45 0.66
4 6 9 18.34 0.53
4 6 9 18.79 0.65
-5 -6 -9 2.69 0.27
5 6 9 3.27 0.27
5 6 9 2.69 0.18
6 6 9 1 0.12
6 6 9 0.45 0.15
-6 7 9 13.52 0.58
5 -7 -9 3.26 0.26
-5 7 9 3.39 0.32
4 -7 -9 0.99 0.18
4 -7 -9 0.98 0.17
-4 7 9 0.74 0.15
3 -7 -9 3.28 0.31
3 -7 -9 3.25 0.31
-3 7 9 3.57 0.26
2 -7 -9 0.08 0.08
2 -7 -9 -0.07 0.07
-2 7 9 0.07 0.08
-2 7 9 -0.07 0.06
1 -7 -9 0.54 0.12
1 -7 -9 0.7 0.15
-1 7 9 0.42 0.12
-1 7 9 0.43 0.11
0 -7 -9 -0.06 0.07
0 -7 -9 0.03 0.07
0 7 9 0.06 0.07
0 7 9 -0.02 0.06
-1 -7 -9 0.05 0.1
-1 -7 -9 0.31 0.09
1 7 9 0.21 0.09
1 7 9 0.15 0.08
-2 -7 -9 3.94 0.22
-2 -7 -9 3.82 0.3
2 7 9 3.85 0.27
2 7 9 3.87 0.23
-3 -7 -9 1.67 0.23
-3 -7 -9 1.71 0.14
3 7 9 1.6 0.17
3 7 9 2.01 0.23
-4 -7 -9 0.11 0.11
-4 -7 -9 0.26 0.05
4 7 9 0.38 0.13
4 7 9 0.21 0.08
-5 -7 -9 0.15 0.1
5 7 9 0.09 0.1
5 7 9 0.05 0.06
5 -8 -9 -0.04 0.1
-5 8 9 0.14 0.11
4 -8 -9 -0.09 0.08
4 -8 -9 0.01 0.1
-4 8 9 0.14 0.1
3 -8 -9 1.99 0.26
3 -8 -9 1.36 0.21
-3 8 9 1.92 0.24
2 -8 -9 3.36 0.28
2 -8 -9 3.08 0.32
-2 8 9 3.57 0.27
-2 8 9 3.25 0.29
1 -8 -9 1.03 0.19
1 -8 -9 1.25 0.19
-1 8 9 1.24 0.19
-1 8 9 1.68 0.22
0 -8 -9 16.81 0.67
0 -8 -9 16.67 0.58
0 8 9 15.95 0.6
0 8 9 17.31 0.58
-1 -8 -9 0.64 0.13
-1 -8 -9 0.63 0.16
1 8 9 0.55 0.14
1 8 9 0.63 0.13
-2 -8 -9 13.52 0.45
-2 -8 -9 13.65 0.6
2 8 9 13.26 0.48
2 8 9 13.15 0.54
-3 -8 -9 5.08 0.37
-3 -8 -9 4.9 0.21
3 8 9 5.28 0.28
3 8 9 5.39 0.35
2 -9 -9 -0.1 0.08
2 -9 -9 0.03 0.1
-2 9 9 0.16 0.11
-2 9 9 0.17 0.11
1 -9 -9 1.7 0.26
1 -9 -9 2.13 0.25
-1 9 9 2.77 0.27
-1 9 9 2.17 0.26
0 -9 -9 2.31 0.3
0 -9 -9 2.66 0.26
0 9 9 2.76 0.29
0 9 9 3.13 0.29
1 10 -10 2.92 0.32
1 10 -10 3.07 0.28
-1 -10 10 2.77 0.22
0 10 -10 1.13 0.18
0 10 -10 1.73 0.25
0 -10 10 1.73 0.2
-1 10 -10 4.35 0.33
-1 10 -10 3.58 0.28
1 -10 10 3.83 0.29
4 9 -10 0.68 0.12
4 9 -10 0.82 0.19
-4 -9 10 0.68 0.06
3 9 -10 0.17 0.08
3 9 -10 0.26 0.13
-3 -9 10 0.13 0.07
2 9 -10 0.33 0.1
2 9 -10 0.44 0.15
-2 -9 10 0.23 0.08
1 9 -10 2.15 0.26
1 9 -10 2.08 0.22
-1 -9 10 2.5 0.26
-1 -9 10 1.99 0.2
0 9 -10 6.93 0.35
0 9 -10 6.35 0.37
0 -9 10 6.34 0.34
0 -9 10 6.46 0.35
-1 9 -10 0.25 0.12
-1 9 -10 0.32 0.11
1 -9 10 0.25 0.1
1 -9 10 0.17 0.1
-2 9 -10 0.61 0.14
2 -9 10 0.49 0.14
2 -9 10 0.92 0.16
3 -9 10 6.51 0.36
3 -9 10 6.31 0.38
4 -9 10 4.45 0.31
5 8 -10 5.91 0.38
5 8 -10 5.47 0.26
-5 -8 10 5.5 0.37
4 8 -10 3.07 0.31
4 8 -10 3.4 0.21
-4 -8 10 3.56 0.29
-4 -8 10 3.61 0.16
3 8 -10 0.02 0.06
3 8 -10 0.05 0.09
-3 -8 10 0.04 0.08
-3 -8 10 0.02 0.05
2 8 -10 0.94 0.17
2 8 -10 1.12 0.15
-2 -8 10 1.01 0.13
-2 -8 10 1.16 0.18
1 8 -10 0.55 0.13
1 8 -10 0.33 0.1
-1 -8 10 0.45 0.11
-1 -8 10 0.3 0.11
0 8 -10 1.32 0.17
0 8 -10 1.39 0.2
0 -8 10 1.33 0.18
0 -8 10 1.54 0.2
-1 8 -10 8.18 0.38
-1 8 -10 7.8 0.39
1 -8 10 7.96 0.38
1 -8 10 8.12 0.38
-2 8 -10 14.48 0.53
-2 8 -10 13.74 0.52
2 -8 10 14.21 0.54
2 -8 10 14.99 0.53
3 -8 10 0.74 0.15
3 -8 10 0.61 0.15
4 -8 10 0.22 0.09
5 -8 10 1.83 0.23
-6 8 -10 6.82 0.4
6 -8 10 6.34 0.38
7 7 -10 0.87 0.12
7 7 -10 0.79 0.18
-7 -7 10 1.13 0.22
6 7 -10 -0.01 0.06
6 7 -10 0.08 0.1
-6 -7 10 0.16 0.12
5 7 -10 2.12 0.26
5 7 -10 1.66 0.16
-5 -7 10 2.13 0.26
-5 -7 10 1.59 0.08
4 7 -10 1.3 0.14
4 7 -10 1.9 0.24
-4 -7 10 1.31 0.2
-4 -7 10 1.7 0.12
3 7 -10 15.03 0.47
3 7 -10 14.92 0.57
-3 -7 10 15.29 0.45
-3 -7 10 16.41 0.58
2 7 -10 2.08 0.23
2 7 -10 2.09 0.19
-2 -7 10 2.42 0.24
-2 -7 10 2.14 0.17
1 7 -10 0.03 0.06
1 7 -10 -0.02 0.05
-1 -7 10 -0.01 0.05
-1 -7 10 0.01 0.06
0 7 -10 3.21 0.22
0 7 -10 2.82 0.23
0 -7 10 2.84 0.21
0 -7 10 3.06 0.22
-1 7 -10 5.24 0.28
-1 7 -10 4.82 0.28
1 -7 10 4.94 0.28
1 -7 10 4.61 0.27
-2 7 -10 1.15 0.17
-2 7 -10 0.95 0.15
2 -7 10 0.66 0.13
2 -7 10 0.84 0.15
3 -7 10 0.1 0.08
3 -7 10 0.22 0.1
-4 7 -10 0.46 0.12
4 -7 10 0.51 0.13
-5 7 -10 1.51 0.19
5 -7 10 2.08 0.24
-6 7 -10 0.46 0.13
6 -7 10 0.51 0.15
-7 7 -10 2 0.27
7 -7 10 2.9 0.31
7 6 -10 0.75 0.11
7 6 -10 0.71 0.16
-7 -6 10 0.45 0.16
6 6 -10 10.36 0.47
6 6 -10 9.32 0.34
-6 -6 10 10.66 0.5
5 6 -10 0.22 0.07
5 6 -10 0.33 0.12
-5 -6 10 0.41 0.13
-5 -6 10 0.18 0.05
4 6 -10 0.8 0.11
4 6 -10 0.91 0.16
-4 -6 10 0.74 0.1
-4 -6 10 0.93 0.16
3 6 -10 5.97 0.33
3 6 -10 6.08 0.26
-3 -6 10 6.09 0.33
-3 -6 10 6.16 0.26
2 6 -10 9.32 0.4
2 6 -10 9.51 0.34
-2 -6 10 9.57 0.4
-2 -6 10 9.18 0.34
1 6 -10 1.26 0.17
1 6 -10 1.03 0.13
-1 -6 10 1.17 0.16
-1 -6 10 1.25 0.15
0 6 -10 13.09 0.44
0 6 -10 13.64 0.47
0 -6 10 12.84 0.46
0 -6 10 12.87 0.45
-1 6 -10 0.53 0.1
-1 6 -10 0.29 0.09
1 -6 10 0.27 0.09
1 -6 10 0.33 0.09
-2 6 -10 4.2 0.24
-2 6 -10 4.31 0.25
2 -6 10 4.59 0.26
2 -6 10 4.59 0.27
-3 6 -10 7.38 0.31
-3 6 -10 7.4 0.31
3 -6 10 7.68 0.37
3 -6 10 7.44 0.35
-4 6 -10 -0.03 0.05
4 -6 10 0.04 0.07
-5 6 -10 1.13 0.17
5 -6 10 1.26 0.18
-6 6 -10 3.64 0.27
6 -6 10 3.86 0.28
-7 6 -10 2.52 0.28
7 -6 10 1.99 0.24
8 5 -10 2.95 0.29
8 5 -10 2.73 0.18
-8 -5 10 2.33 0.3
7 5 -10 4.59 0.31
7 5 -10 4.92 0.24
-7 -5 10 5.49 0.37
6 5 -10 1.27 0.19
6 5 -10 1.41 0.14
-6 -5 10 1.34 0.2
-6 -5 10 1.23 0.09
5 5 -10 3.38 0.19
5 5 -10 3.81 0.27
-5 -5 10 3.52 0.17
-5 -5 10 3.4 0.27
4 5 -10 10.41 0.43
4 5 -10 11.3 0.36
-4 -5 10 11.52 0.46
-4 -5 10 11.06 0.35
3 5 -10 1.03 0.12
3 5 -10 1.12 0.16
-3 -5 10 1.36 0.13
-3 -5 10 1.29 0.17
2 5 -10 3.59 0.19
2 5 -10 2.99 0.22
-2 -5 10 3.34 0.19
-2 -5 10 3.49 0.23
1 5 -10 3.16 0.21
1 5 -10 2.98 0.18
-1 -5 10 3.5 0.22
-1 -5 10 3.46 0.2
0 5 -10 8.49 0.34
0 5 -10 9.28 0.33
0 -5 10 8.53 0.34
0 -5 10 8.41 0.33
-1 5 -10 1.18 0.14
-1 5 -10 0.79 0.12
1 -5 10 1.06 0.14
1 -5 10 0.61 0.11
-2 5 -10 3.6 0.2
-2 5 -10 3.75 0.19
-2 5 -10 3.67 0.22
2 -5 10 3.64 0.22
2 -5 10 3.53 0.22
-3 5 -10 2.53 0.17
-3 5 -10 2.76 0.17
3 -5 10 2.46 0.19
3 -5 10 2.01 0.2
-4 5 -10 4.43 0.25
4 -5 10 4.57 0.27
-5 5 -10 0.14 0.08
-5 5 -10 -0.03 0.07
5 -5 10 0.19 0.1
-6 5 -10 0.05 0.09
-6 5 -10 0.11 0.11
6 -5 10 0.05 0.08
-7 5 -10 0.58 0.16
-7 5 -10 0.3 0.13
7 -5 10 0.33 0.12
-8 5 -10 0.49 0.16
-8 5 -10 0.51 0.15
8 -5 10 0.44 0.14
9 4 -10 1.65 0.17
-9 -4 10 2.02 0.28
8 4 -10 0.6 0.11
8 4 -10 0.53 0.14
-8 -4 10 0.66 0.05
-8 -4 10 0.67 0.17
7 4 -10 -0.09 0.07
7 4 -10 -0.07 0.04
-7 -4 10 0.1 0.1
-7 -4 10 0 0.03
6 4 -10 1.3 0.14
6 4 -10 1.23 0.18
-6 -4 10 1.64 0.12
-6 -4 10 1.38 0.21
5 4 -10 0.89 0.11
5 4 -10 1.03 0.15
-5 -4 10 1.12 0.12
-5 -4 10 1.04 0.17
4 4 -10 18.53 0.5
4 4 -10 17.67 0.58
-4 -4 10 18.22 0.49
-4 -4 10 19.77 0.61
3 4 -10 23.49 0.68
3 4 -10 24.27 0.61
-3 -4 10 24.65 0.62
-3 -4 10 24.8 0.7
2 4 -10 8.39 0.34
2 4 -10 8.81 0.3
-2 -4 10 8.5 0.31
-2 -4 10 8.73 0.35
1 4 -10 0.03 0.05
1 4 -10 0.06 0.05
-1 -4 10 0.06 0.05
-1 -4 10 -0.02 0.04
0 4 -10 4.66 0.23
0 4 -10 4.76 0.22
0 -4 10 4.91 0.24
0 -4 10 4.67 0.23
-1 4 -10 2.6 0.17
-1 4 -10 2.45 0.18
-1 4 -10 2.34 0.16
-1 4 -10 2.49 0.13
1 -4 10 3.05 0.19
1 -4 10 2.56 0.18
-2 4 -10 0.56 0.11
-2 4 -10 0.53 0.08
-2 4 -10 0.58 0.09
-2 4 -10 0.68 0.11
2 -4 10 0.61 0.11
2 -4 10 0.6 0.1
-3 4 -10 0.14 0.06
-3 4 -10 0.27 0.09
-3 4 -10 0.15 0.06
3 -4 10 0.06 0.06
3 -4 10 0.08 0.06
3 -4 10 0.18 0.07
-4 4 -10 11.05 0.44
-4 4 -10 11.14 0.4
4 -4 10 12.05 0.41
4 -4 10 10 0.4
-5 4 -10 22.35 0.67
-5 4 -10 22.24 0.7
5 -4 10 21.77 0.64
5 -4 10 21.49 0.65
-6 4 -10 0.38 0.12
-6 4 -10 0.28 0.11
6 -4 10 0.44 0.12
6 -4 10 0.42 0.11
-7 4 -10 0.18 0.1
-7 4 -10 0.23 0.12
7 -4 10 0.12 0.09
7 -4 10 0.18 0.09
-8 4 -10 0.03 0.08
-8 4 -10 0.14 0.12
8 -4 10 0.04 0.09
9 3 -10 6.23 0.3
-9 -3 10 6.5 0.22
-9 -3 10 6.34 0.42
8 3 -10 11 0.4
-8 -3 10 11.44 0.35
-8 -3 10 11.5 0.54
7 3 -10 0.9 0.13
7 3 -10 0.63 0.13
-7 -3 10 0.88 0.11
-7 -3 10 0.95 0.18
6 3 -10 0.36 0.1
6 3 -10 0.5 0.09
-6 -3 10 0.54 0.13
-6 -3 10 0.39 0.08
5 3 -10 9.14 0.32
5 3 -10 9.58 0.39
-5 -3 10 9.13 0.32
-5 -3 10 8.68 0.39
4 3 -10 0.47 0.11
4 3 -10 0.58 0.09
-4 -3 10 0.44 0.08
-4 -3 10 0.57 0.12
3 3 -10 3.95 0.23
3 3 -10 3.85 0.19
-3 -3 10 4.17 0.24
-3 -3 10 4.01 0.2
2 3 -10 30.28 0.76
2 3 -10 31.04 0.71
-2 -3 10 28.98 0.72
-2 -3 10 29.18 0.76
1 3 -10 9.29 0.34
1 3 -10 9.42 0.34
1 3 -10 9.55 0.31
-1 -3 10 9.56 0.33
-1 -3 10 9.68 0.35
0 3 -10 1.6 0.13
0 3 -10 1.65 0.13
0 3 -10 1.59 0.16
0 3 -10 1.76 0.08
0 -3 10 1.77 0.14
0 -3 10 1.6 0.13
0 -3 10 1.89 0.12
-1 3 -10 1.74 0.13
-1 3 -10 1.68 0.1
-1 3 -10 1.68 0.15
1 -3 10 1.54 0.13
1 -3 10 1.46 0.15
1 -3 10 1.43 0.14
-2 3 -10 24.47 0.62
-2 3 -10 24.55 0.59
-2 3 -10 23.8 0.6
-2 3 -10 24.28 0.66
2 -3 10 24.16 0.61
2 -3 10 24.33 0.65
2 -3 10 24.21 0.63
-3 3 -10 18.89 0.53
-3 3 -10 18.99 0.58
-3 3 -10 19.98 0.49
3 -3 10 19.13 0.55
3 -3 10 19.35 0.56
3 -3 10 18.65 0.53
-4 3 -10 5.1 0.28
-4 3 -10 4.48 0.25
4 -3 10 4.64 0.25
4 -3 10 4.64 0.23
-5 3 -10 1.6 0.19
-5 3 -10 1.37 0.17
5 -3 10 2 0.19
5 -3 10 1.68 0.19
-6 3 -10 0.92 0.15
-6 3 -10 0.91 0.17
6 -3 10 0.96 0.15
6 -3 10 1.27 0.16
-7 3 -10 0.01 0.07
-7 3 -10 -0.09 0.07
7 -3 10 -0.01 0.06
7 -3 10 -0.05 0.06
-8 3 -10 1.27 0.2
-8 3 -10 1.55 0.24
8 -3 10 1.32 0.18
8 -3 10 1.35 0.21
-9 3 -10 0.31 0.12
-9 3 -10 0.26 0.14
9 -3 10 0.29 0.13
9 -3 10 0.26 0.1
9 2 -10 0.35 0.1
-9 -2 10 0.56 0.1
-9 -2 10 0.65 0.18
8 2 -10 0.02 0.06
-8 -2 10 0.14 0.06
-8 -2 10 0.09 0.09
7 2 -10 3.12 0.2
7 2 -10 3.21 0.24
-7 -2 10 3.23 0.19
-7 -2 10 2.64 0.27
6 2 -10 6.09 0.27
6 2 -10 6.43 0.31
-6 -2 10 5.74 0.26
-6 -2 10 7.39 0.37
5 2 -10 0.4 0.1
5 2 -10 0.35 0.08
-5 -2 10 0.41 0.09
-5 -2 10 0.51 0.11
4 2 -10 30.65 0.79
4 2 -10 30.26 0.73
-4 -2 10 30.67 0.74
3 2 -10 0.76 0.1
3 2 -10 0.9 0.12
-3 -2 10 0.84 0.1
-3 -2 10 0.95 0.13
2 2 -10 0.36 0.07
2 2 -10 0.49 0.09
2 2 -10 0.42 0.09
-2 -2 10 0.37 0.07
-2 -2 10 0.41 0.08
1 2 -10 22.81 0.57
1 2 -10 22.67 0.61
1 2 -10 22.61 0.6
-1 -2 10 22.07 0.59
-1 -2 10 23.36 0.44
-1 -2 10 23.68 0.56
-1 -2 10 23.11 0.6
0 2 -10 15.93 0.45
0 2 -10 16.06 0.47
0 2 -10 15.65 0.36
0 2 -10 16.01 0.44
0 -2 10 16.27 0.43
0 -2 10 15.18 0.45
0 -2 10 15.34 0.44
-1 2 -10 54.2 1.14
-1 2 -10 52.77 1.18
-1 2 -10 53.34 1.09
-1 2 -10 53.12 1.14
1 -2 10 55.63 1.14
1 -2 10 53.16 1.16
1 -2 10 54.56 1.16
-2 2 -10 0.52 0.1
-2 2 -10 0.44 0.08
-2 2 -10 0.82 0.12
-2 2 -10 0.5 0.08
-2 2 -10 0.52 0.08
2 -2 10 0.62 0.09
2 -2 10 0.59 0.1
2 -2 10 0.53 0.09
-3 2 -10 3.39 0.19
-3 2 -10 3.43 0.21
-3 2 -10 3.6 0.17
3 -2 10 3.28 0.19
3 -2 10 3.59 0.2
3 -2 10 3.84 0.21
-4 2 -10 16.21 0.52
-4 2 -10 15.76 0.5
4 -2 10 15.4 0.47
4 -2 10 15.91 0.49
-5 2 -10 0.07 0.07
-5 2 -10 0.05 0.06
5 -2 10 0.1 0.06
5 -2 10 0.15 0.08
-6 2 -10 0.02 0.07
-6 2 -10 0.01 0.07
6 -2 10 0.01 0.05
6 -2 10 0.09 0.08
-7 2 -10 17.71 0.6
-7 2 -10 16.2 0.62
7 -2 10 17.02 0.55
7 -2 10 16.82 0.59
-8 2 -10 11.29 0.52
-8 2 -10 10.33 0.46
8 -2 10 11.3 0.44
8 -2 10 10.15 0.47
-9 2 -10 2.57 0.27
-9 2 -10 2.54 0.31
9 -2 10 2.75 0.26
9 -2 10 2.59 0.28
9 1 -10 7.33 0.34
-9 -1 10 6.77 0.42
-9 -1 10 6.8 0.32
8 1 -10 0.13 0.08
-8 -1 10 0.3 0.09
-8 -1 10 0.22 0.11
7 1 -10 0.86 0.13
7 1 -10 0.65 0.13
-7 -1 10 0.94 0.13
-7 -1 10 0.95 0.17
6 1 -10 32.12 0.85
6 1 -10 34 0.81
-6 -1 10 31.85 0.81
-6 -1 10 32.77 0.91
5 1 -10 0.59 0.1
5 1 -10 0.76 0.13
-5 -1 10 0.47 0.11
-5 -1 10 0.72 0.11
4 1 -10 7.62 0.29
4 1 -10 7.94 0.33
-4 -1 10 8.47 0.31
-4 -1 10 7.8 0.33
3 1 -10 34.99 0.82
3 1 -10 37.05 0.87
-3 -1 10 35.08 0.86
-3 -1 10 35.5 0.84
-3 -1 10 36.33 0.71
2 1 -10 102.23 2.01
2 1 -10 100.42 2.06
2 1 -10 103.58 2.07
-2 -1 10 103.98 2.04
-2 -1 10 98.92 2.03
-2 -1 10 106.2 2
-2 -1 10 103.27 1.89
1 1 -10 42.6 0.99
1 1 -10 45.16 1.01
1 1 -10 44.6 0.96
-1 -1 10 44.28 0.99
-1 -1 10 44.34 0.97
-1 -1 10 44.68 0.95
-1 -1 10 44.96 0.86
0 1 -10 64.67 1.36
0 1 -10 65.46 1.27
0 1 -10 67.43 1.35
0 1 -10 65.54 1.39
0 -1 10 65.86 1.34
0 -1 10 65.02 1.36
0 -1 10 63.84 1.34
-1 1 -10 32.82 0.76
-1 1 -10 32.53 0.73
-1 1 -10 33.29 0.77
-1 1 -10 34.27 0.81
1 -1 10 33.67 0.79
1 -1 10 33.19 0.76
1 -1 10 33.22 0.76
-2 1 -10 1.57 0.12
-2 1 -10 1.41 0.13
-2 1 -10 1.46 0.15
-2 1 -10 1.46 0.11
2 -1 10 1.35 0.13
2 -1 10 1.78 0.16
2 -1 10 1.56 0.12
-3 1 -10 -0.03 0.04
-3 1 -10 0.02 0.05
-3 1 -10 0.05 0.04
3 -1 10 0 0.04
3 -1 10 0.04 0.04
-4 1 -10 35.79 0.88
-4 1 -10 35.3 0.88
4 -1 10 36.25 0.83
4 -1 10 33.75 0.84
-5 1 -10 15.69 0.52
-5 1 -10 15.58 0.54
5 -1 10 16.99 0.49
5 -1 10 16.71 0.51
-6 1 -10 0.8 0.14
-6 1 -10 0.35 0.12
6 -1 10 0.52 0.12
6 -1 10 0.7 0.12
-7 1 -10 0.26 0.1
-7 1 -10 0.28 0.12
7 -1 10 0.16 0.09
7 -1 10 0.18 0.07
-8 1 -10 0.64 0.17
-8 1 -10 0.84 0.15
8 -1 10 0.83 0.16
8 -1 10 1.04 0.15
-9 1 -10 0.16 0.1
-9 1 -10 0.21 0.14
9 -1 10 0.11 0.09
9 -1 10 0.11 0.11
9 0 -10 2.04 0.22
-9 0 10 2.6 0.3
-9 0 10 2.01 0.21
8 0 -10 0.24 0.09
-8 0 10 0.38 0.13
-8 0 10 0.54 0.11
7 0 -10 1 0.15
7 0 -10 0.88 0.13
-7 0 10 1.06 0.15
-7 0 10 0.95 0.16
6 0 -10 4.07 0.23
6 0 -10 4.51 0.26
-6 0 10 4.63 0.25
-6 0 10 4.38 0.27
5 0 -10 26.14 0.71
5 0 -10 25.58 0.67
-5 0 10 25.57 0.64
-5 0 10 25.75 0.69
-5 0 10 25.83 0.72
4 0 -10 0.02 0.06
4 0 -10 -0.01 0.04
-4 0 10 0 0.03
-4 0 10 -0.01 0.04
-4 0 10 0.04 0.05
3 0 -10 11.13 0.36
3 0 -10 11.12 0.39
3 0 -10 10.99 0.39
-3 0 10 11.18 0.38
-3 0 10 10.82 0.29
-3 0 10 11.18 0.37
2 0 -10 0.39 0.09
2 0 -10 0.18 0.06
2 0 -10 0.33 0.08
-2 0 10 0.38 0.07
-2 0 10 0.37 0.05
-2 0 10 0.31 0.06
-2 0 10 0.23 0.06
1 0 -10 8.33 0.28
1 0 -10 8.02 0.3
1 0 -10 7.7 0.3
-1 0 10 8.24 0.3
-1 0 10 7.56 0.26
-1 0 10 7.8 0.27
-1 0 10 7.66 0.23
0 0 -10 10.81 0.36
0 0 -10 11.34 0.34
0 0 -10 11.13 0.38
0 0 10 11.05 0.31
0 0 10 11.49 0.36
0 0 10 11.37 0.34
0 0 10 11.61 0.33
-1 0 -10 34.55 0.86
-1 0 -10 36.14 0.8
-1 0 -10 36.18 0.83
1 0 10 36.66 0.82
1 0 10 37.83 0.81
1 0 10 37.06 0.85
-2 0 -10 6.75 0.26
-2 0 -10 6.18 0.27
-2 0 -10 6.05 0.24
2 0 10 6.58 0.26
2 0 10 5.95 0.24
2 0 10 6.24 0.24
-3 0 -10 52.24 1.18
-3 0 -10 53.24 1.11
-3 0 -10 52.46 1.17
3 0 10 54.03 1.13
3 0 10 52.33 1.12
-4 0 -10 51.38 1.19
-4 0 -10 51.3 1.16
-4 0 -10 51.49 1.08
4 0 10 53.08 1.12
4 0 10 51.47 1.14
-5 0 -10 0.65 0.11
-5 0 -10 0.6 0.13
5 0 10 0.71 0.11
5 0 10 0.82 0.11
-6 0 -10 65.61 1.55
-6 0 -10 66.66 1.46
6 0 10 64.71 1.47
6 0 10 67.75 1.43
-7 0 -10 3.57 0.28
-7 0 -10 3.66 0.24
7 0 10 3.22 0.21
7 0 10 3.32 0.24
-8 0 -10 3 0.22
-8 0 -10 3.05 0.32
8 0 10 2.99 0.25
8 0 10 3.32 0.22
-9 0 -10 0.79 0.14
-9 0 -10 0.98 0.22
9 0 10 0.9 0.18
9 0 10 1.16 0.17
9 -1 -10 0.03 0.08
9 -1 -10 -0.04 0.08
-9 1 10 0.08 0.08
8 -1 -10 0.52 0.12
-8 1 10 0.51 0.13
-8 1 10 0.51 0.13
7 -1 -10 1.02 0.15
7 -1 -10 1.18 0.16
-7 1 10 1.32 0.17
-7 1 10 0.94 0.16
6 -1 -10 0.97 0.14
6 -1 -10 1.01 0.14
-6 1 10 1.18 0.14
-6 1 10 1.24 0.16
-6 1 10 0.94 0.15
5 -1 -10 1.61 0.17
5 -1 -10 1.53 0.16
-5 1 10 2.09 0.2
-5 1 10 1.66 0.13
-5 1 10 1.66 0.18
4 -1 -10 100.65 2.03
4 -1 -10 103.54 2.07
-4 1 10 103.15 1.98
-4 1 10 100.89 2.04
-4 1 10 96.63 2.06
3 -1 -10 125.75 2.51
3 -1 -10 128.02 2.48
3 -1 -10 125.88 2.53
-3 1 10 126.43 2.51
-3 1 10 128.28 2.41
-3 1 10 126.18 2.51
-3 1 10 125.74 2.46
2 -1 -10 25.45 0.68
2 -1 -10 25.6 0.66
2 -1 -10 25.87 0.63
-2 1 10 25.33 0.66
-2 1 10 24.57 0.6
-2 1 10 26 0.63
-2 1 10 24.54 0.58
1 -1 -10 6.07 0.27
1 -1 -10 6.01 0.26
1 -1 -10 6.19 0.24
-1 1 10 6.18 0.21
-1 1 10 6.1 0.26
-1 1 10 6.24 0.22
-1 1 10 6.25 0.24
0 -1 -10 1.61 0.12
0 -1 -10 1.48 0.14
0 -1 -10 1.44 0.15
0 1 10 1.69 0.11
0 1 10 1.73 0.11
0 1 10 1.22 0.13
0 1 10 1.77 0.13
-1 -1 -10 2.63 0.16
-1 -1 -10 2.59 0.16
-1 -1 -10 2.35 0.17
1 1 10 2.49 0.13
1 1 10 2.4 0.16
1 1 10 2.49 0.15
-2 -1 -10 3.77 0.21
-2 -1 -10 3.76 0.19
-2 -1 -10 3.6 0.19
2 1 10 4.01 0.19
2 1 10 3.82 0.17
-3 -1 -10 9.79 0.32
-3 -1 -10 9.83 0.35
-3 -1 -10 9.1 0.35
3 1 10 9.98 0.31
3 1 10 9.49 0.32
-4 -1 -10 10.35 0.4
-4 -1 -10 10.36 0.37
-4 -1 -10 10.38 0.33
4 1 10 9.83 0.34
4 1 10 10.46 0.34
-5 -1 -10 0.61 0.1
-5 -1 -10 1 0.16
5 1 10 0.92 0.13
5 1 10 0.7 0.1
-6 -1 -10 10.49 0.39
-6 -1 -10 10.66 0.46
6 1 10 11.19 0.41
6 1 10 10.97 0.38
-7 -1 -10 8.78 0.35
-7 -1 -10 8.72 0.44
7 1 10 8.99 0.35
7 1 10 9.61 0.4
-8 -1 -10 0.07 0.12
-8 -1 -10 0.04 0.06
8 1 10 0.12 0.07
8 1 10 0.12 0.09
-9 -1 -10 0.12 0.11
-9 -1 -10 0.15 0.07
9 1 10 0.26 0.11
9 1 10 0.05 0.07
9 -2 -10 0.94 0.17
9 -2 -10 1.19 0.2
-9 2 10 1.18 0.19
8 -2 -10 4.12 0.28
8 -2 -10 4.19 0.29
-8 2 10 3.95 0.29
7 -2 -10 -0.03 0.06
7 -2 -10 -0.03 0.06
-7 2 10 0.02 0.06
-7 2 10 -0.01 0.07
-7 2 10 -0.11 0.05
6 -2 -10 1.07 0.15
6 -2 -10 1.47 0.17
-6 2 10 1.35 0.18
-6 2 10 1.02 0.15
-6 2 10 1.35 0.16
5 -2 -10 12.16 0.43
5 -2 -10 12.27 0.44
-5 2 10 12.69 0.46
-5 2 10 12.27 0.41
-5 2 10 11.83 0.42
4 -2 -10 68.45 1.44
4 -2 -10 64.4 1.46
-4 2 10 66.86 1.47
-4 2 10 67.1 1.4
-4 2 10 66.62 1.41
3 -2 -10 5.65 0.25
3 -2 -10 5.5 0.27
3 -2 -10 5.25 0.28
-3 2 10 5.58 0.27
-3 2 10 5.53 0.25
-3 2 10 5.19 0.22
-3 2 10 5.82 0.23
2 -2 -10 0.41 0.07
2 -2 -10 0.52 0.1
2 -2 -10 0.44 0.09
-2 2 10 0.38 0.08
-2 2 10 0.54 0.07
-2 2 10 0.66 0.1
-2 2 10 0.4 0.07
1 -2 -10 5.71 0.26
1 -2 -10 5.08 0.26
1 -2 -10 5.72 0.24
-1 2 10 5.4 0.22
-1 2 10 5.95 0.2
-1 2 10 5.77 0.26
-1 2 10 6.02 0.24
0 -2 -10 22.5 0.63
0 -2 -10 23.18 0.63
0 2 10 23.12 0.61
0 2 10 24.28 0.6
0 2 10 23.14 0.58
0 2 10 24.66 0.53
-1 -2 -10 0.65 0.11
-1 -2 -10 0.83 0.12
1 2 10 0.61 0.09
1 2 10 0.76 0.1
1 2 10 0.78 0.08
-2 -2 -10 84.96 1.74
-2 -2 -10 83.43 1.73
-2 -2 -10 83.62 1.74
2 2 10 85.73 1.63
2 2 10 82.65 1.69
-3 -2 -10 10.64 0.36
-3 -2 -10 10 0.36
-3 -2 -10 10.54 0.39
3 2 10 10.63 0.32
3 2 10 10.24 0.34
-4 -2 -10 1.19 0.14
-4 -2 -10 1.26 0.14
-4 -2 -10 1.23 0.17
4 2 10 1.12 0.12
4 2 10 1.06 0.12
-5 -2 -10 5.63 0.26
-5 -2 -10 6 0.32
5 2 10 5.66 0.25
5 2 10 5.23 0.24
-6 -2 -10 10 0.45
-6 -2 -10 10.49 0.36
6 2 10 10.08 0.35
6 2 10 10.35 0.39
-7 -2 -10 2.42 0.17
-7 -2 -10 1.75 0.24
7 2 10 2.13 0.17
7 2 10 1.77 0.2
-8 -2 -10 1.09 0.12
-8 -2 -10 0.72 0.18
8 2 10 0.77 0.12
8 2 10 1.05 0.17
-9 3 10 1.5 0.22
-8 3 10 4.96 0.33
-8 3 10 4.26 0.29
7 -3 -10 6.39 0.33
7 -3 -10 7.57 0.37
7 -3 -10 6.79 0.34
-7 3 10 7.55 0.36
-7 3 10 6.59 0.37
6 -3 -10 6.81 0.31
6 -3 -10 7.7 0.35
6 -3 -10 6.36 0.32
-6 3 10 6.89 0.36
-6 3 10 6.77 0.32
-6 3 10 6.85 0.32
5 -3 -10 39.21 0.97
5 -3 -10 38.47 0.98
-5 3 10 38.64 1.01
-5 3 10 38.57 0.92
-5 3 10 39.5 0.95
4 -3 -10 3.2 0.23
-4 3 10 3.58 0.21
-4 3 10 3.4 0.23
-4 3 10 3.04 0.18
3 -3 -10 5.51 0.28
3 -3 -10 5.72 0.3
-3 3 10 5.52 0.28
-3 3 10 5.61 0.26
-3 3 10 5.82 0.25
-3 3 10 5.67 0.22
2 -3 -10 36.96 0.93
2 -3 -10 37.7 0.94
-2 3 10 37.29 0.87
-2 3 10 37.94 0.92
-2 3 10 37.93 0.89
1 -3 -10 25.91 0.7
1 -3 -10 25.47 0.7
-1 3 10 25.57 0.64
-1 3 10 24.84 0.65
0 -3 -10 2.15 0.2
0 -3 -10 2.13 0.17
0 3 10 2.06 0.15
0 3 10 2.07 0.15
-1 -3 -10 1.19 0.14
-1 -3 -10 1.29 0.16
1 3 10 1.69 0.16
1 3 10 1.17 0.13
-2 -3 -10 7.6 0.32
-2 -3 -10 6.88 0.29
2 3 10 6.6 0.3
2 3 10 7.76 0.28
-3 -3 -10 2.2 0.17
-3 -3 -10 2.36 0.17
-3 -3 -10 2.69 0.2
3 3 10 2.39 0.15
-4 -3 -10 4.25 0.21
-4 -3 -10 3.71 0.25
-4 -3 -10 3.97 0.22
4 3 10 3.95 0.2
-5 -3 -10 0.11 0.09
-5 -3 -10 -0.01 0.04
5 3 10 0.01 0.04
-6 -3 -10 0.9 0.11
-6 -3 -10 0.91 0.17
6 3 10 0.9 0.12
-7 -3 -10 -0.03 0.04
-7 -3 -10 0.08 0.12
7 3 10 -0.02 0.05
-8 -3 -10 0.25 0.14
8 3 10 0.26 0.08
-8 4 10 2.69 0.28
-8 4 10 2.68 0.28
-7 4 10 1.58 0.22
-7 4 10 1.39 0.19
6 -4 -10 1 0.16
-6 4 10 0.9 0.15
-6 4 10 1.18 0.19
5 -4 -10 6.32 0.33
-5 4 10 6.89 0.33
4 -4 -10 2.73 0.27
4 -4 -10 3.03 0.22
-4 4 10 2.89 0.2
3 -4 -10 1.78 0.2
3 -4 -10 2.08 0.22
-3 4 10 1.54 0.17
-3 4 10 1.79 0.18
2 -4 -10 29.72 0.82
2 -4 -10 29.75 0.82
-2 4 10 30.46 0.77
-2 4 10 29.67 0.76
1 -4 -10 8.82 0.38
1 -4 -10 8.61 0.36
-1 4 10 8.71 0.33
-1 4 10 8.31 0.33
0 -4 -10 0.15 0.07
0 -4 -10 0.18 0.08
0 4 10 0.09 0.06
0 4 10 0.08 0.06
-1 -4 -10 30.63 0.81
-1 -4 -10 29.53 0.77
1 4 10 30.89 0.74
1 4 10 29.19 0.77
-2 -4 -10 10.46 0.41
-2 -4 -10 10.63 0.38
2 4 10 10.5 0.4
2 4 10 10 0.35
-3 -4 -10 1.57 0.18
-3 -4 -10 1.67 0.16
3 4 10 1.82 0.14
3 4 10 1.31 0.18
-4 -4 -10 3.61 0.24
-4 -4 -10 3.88 0.2
-4 -4 -10 4.44 0.28
4 4 10 3.88 0.26
4 4 10 3.8 0.2
-5 -4 -10 4.99 0.31
-5 -4 -10 4.92 0.21
5 4 10 4.35 0.22
-6 -4 -10 7.52 0.24
-6 -4 -10 8.25 0.43
6 4 10 7.58 0.3
-7 -4 -10 0.87 0.19
7 4 10 0.63 0.11
-8 5 10 3.42 0.33
-7 5 10 1.72 0.23
6 -5 -10 3.68 0.27
-6 5 10 3.86 0.27
5 -5 -10 14.6 0.54
-5 5 10 14.94 0.54
4 -5 -10 0.73 0.14
4 -5 -10 0.8 0.15
-4 5 10 0.97 0.15
3 -5 -10 0.64 0.14
3 -5 -10 0.45 0.12
-3 5 10 0.55 0.11
-3 5 10 0.66 0.12
2 -5 -10 3.41 0.25
2 -5 -10 3.62 0.25
-2 5 10 3.13 0.22
-2 5 10 3.55 0.23
1 -5 -10 0.27 0.11
1 -5 -10 0.34 0.1
-1 5 10 0.27 0.08
-1 5 10 0.47 0.11
0 -5 -10 0.65 0.13
0 -5 -10 0.73 0.14
0 5 10 0.75 0.13
0 5 10 0.59 0.11
-1 -5 -10 3.39 0.22
-1 -5 -10 3.53 0.25
1 5 10 3.76 0.23
1 5 10 3.19 0.2
-2 -5 -10 14.85 0.48
-2 -5 -10 16.2 0.56
2 5 10 14.88 0.52
2 5 10 16.24 0.48
-3 -5 -10 0.87 0.12
-3 -5 -10 0.95 0.16
3 5 10 0.94 0.12
3 5 10 0.82 0.14
-4 -5 -10 0.73 0.14
-4 -5 -10 0.86 0.11
4 5 10 0.79 0.11
4 5 10 0.71 0.15
-5 -5 -10 8.6 0.27
5 5 10 8.74 0.42
5 5 10 8.61 0.33
6 5 10 0.9 0.19
6 5 10 1.43 0.15
-7 -5 -10 0.89 0.2
7 5 10 0.65 0.11
7 5 10 0.61 0.17
-7 6 10 0.98 0.19
6 -6 -10 0.54 0.14
-6 6 10 0.52 0.14
5 -6 -10 1.32 0.19
-5 6 10 1.59 0.21
4 -6 -10 4.63 0.33
4 -6 -10 5.59 0.33
-4 6 10 5 0.31
3 -6 -10 0.82 0.16
3 -6 -10 1.25 0.19
-3 6 10 1.28 0.18
2 -6 -10 8.26 0.41
2 -6 -10 7.76 0.39
-2 6 10 8.18 0.37
-2 6 10 7.76 0.37
1 -6 -10 5.33 0.31
1 -6 -10 5.06 0.32
-1 6 10 5.78 0.31
-1 6 10 5.74 0.3
0 -6 -10 19.49 0.61
0 -6 -10 17.91 0.64
0 6 10 19.27 0.59
0 6 10 18.7 0.61
-1 -6 -10 9.63 0.44
-1 -6 -10 9.3 0.39
1 6 10 9.46 0.37
1 6 10 9.38 0.4
-2 -6 -10 6.75 0.31
-2 -6 -10 7.62 0.39
2 6 10 6.54 0.3
2 6 10 7.4 0.36
-3 -6 -10 2.26 0.25
-3 -6 -10 1.88 0.15
3 6 10 2.03 0.19
3 6 10 2.06 0.24
-4 -6 -10 0.67 0.15
-4 -6 -10 0.67 0.09
4 6 10 0.72 0.12
4 6 10 0.73 0.15
5 6 10 5.85 0.36
5 6 10 5.88 0.27
6 6 10 0.55 0.1
6 6 10 0.48 0.14
-6 7 10 1.83 0.25
5 -7 -10 0.33 0.13
-5 7 10 0.13 0.11
4 -7 -10 0.95 0.18
4 -7 -10 1.09 0.19
-4 7 10 1.22 0.2
3 -7 -10 1.37 0.2
3 -7 -10 1.55 0.21
-3 7 10 1.22 0.18
2 -7 -10 19.4 0.68
2 -7 -10 20.37 0.71
-2 7 10 19.42 0.66
-2 7 10 19.29 0.64
1 -7 -10 6.09 0.37
1 -7 -10 5.36 0.33
-1 7 10 5.93 0.33
-1 7 10 5.96 0.34
0 -7 -10 18.88 0.62
0 -7 -10 18.51 0.68
0 7 10 18.31 0.63
0 7 10 18.33 0.6
-1 -7 -10 2.6 0.21
-1 -7 -10 2.84 0.3
1 7 10 2.12 0.24
1 7 10 2.9 0.22
-2 -7 -10 1.78 0.18
-2 -7 -10 1.72 0.23
2 7 10 1.33 0.19
2 7 10 1.96 0.2
-3 -7 -10 1.49 0.22
-3 -7 -10 1.91 0.15
3 7 10 1.57 0.17
3 7 10 1.65 0.22
-4 -7 -10 3.66 0.16
-4 -7 -10 3.3 0.33
4 7 10 3.39 0.22
4 7 10 3.66 0.28
4 -8 -10 0.23 0.12
4 -8 -10 -0.03 0.09
-4 8 10 0.12 0.1
3 -8 -10 -0.08 0.08
3 -8 -10 -0.06 0.09
-3 8 10 0.11 0.09
2 -8 -10 0.67 0.18
2 -8 -10 0.67 0.16
-2 8 10 0.8 0.16
-2 8 10 0.85 0.17
1 -8 -10 4.16 0.39
1 -8 -10 4.48 0.3
-1 8 10 4.57 0.3
-1 8 10 3.2 0.31
0 -8 -10 3.45 0.26
0 -8 -10 3.26 0.34
0 8 10 3.5 0.28
0 8 10 3.51 0.26
-1 -8 -10 11.7 0.45
-1 -8 -10 11.75 0.55
1 8 10 10.31 0.48
1 8 10 10.22 0.44
-2 -8 -10 11.65 0.43
-2 -8 -10 12.82 0.59
2 8 10 12.26 0.53
2 8 10 11.8 0.47
-3 -8 -10 0.07 0.06
-3 -8 -10 0.17 0.11
3 8 10 0.04 0.09
3 8 10 -0.02 0.06
3 9 -11 1.78 0.26
3 9 -11 1.28 0.16
-3 -9 11 1.74 0.16
-3 -9 11 2.26 0.27
2 9 -11 0.43 0.14
2 9 -11 0.68 0.13
-2 -9 11 0.6 0.16
-2 -9 11 0.71 0.13
1 9 -11 1.33 0.21
1 9 -11 0.98 0.16
-1 -9 11 1.41 0.18
-1 -9 11 1.38 0.2
0 9 -11 2.35 0.27
0 9 -11 2.9 0.26
0 -9 11 2.75 0.26
0 -9 11 3.12 0.26
-1 9 -11 0.37 0.13
-1 9 -11 0.5 0.13
1 -9 11 0.44 0.13
1 -9 11 0.82 0.16
-2 9 -11 2.4 0.26
2 -9 11 2.12 0.25
2 -9 11 2.07 0.24
3 -9 11 4.23 0.3
3 -9 11 3.81 0.31
4 -9 11 1.91 0.23
5 8 -11 0.38 0.15
5 8 -11 0.5 0.11
-5 -8 11 0.54 0.16
4 8 -11 0.12 0.07
4 8 -11 0.24 0.12
-4 -8 11 0.21 0.11
-4 -8 11 0.14 0.05
3 8 -11 0.75 0.13
3 8 -11 0.62 0.15
-3 -8 11 0.69 0.15
-3 -8 11 0.54 0.1
2 8 -11 12.94 0.55
2 8 -11 13.3 0.47
-2 -8 11 12.51 0.52
-2 -8 11 12.37 0.44
1 8 -11 5.23 0.33
1 8 -11 5.12 0.29
-1 -8 11 5.62 0.29
-1 -8 11 5.17 0.32
0 8 -11 0.97 0.17
0 8 -11 1.33 0.17
0 -8 11 1.11 0.18
0 -8 11 1.28 0.17
-1 8 -11 1.44 0.19
-1 8 -11 1.82 0.21
1 -8 11 1.97 0.23
1 -8 11 1.86 0.21
-2 8 -11 0.56 0.13
-2 8 -11 0.68 0.14
2 -8 11 0.59 0.14
2 -8 11 0.43 0.12
3 -8 11 3.5 0.26
3 -8 11 2.96 0.29
4 -8 11 0.45 0.12
5 -8 11 1.36 0.21
6 7 -11 4.12 0.32
6 7 -11 4.01 0.23
-6 -7 11 4.53 0.35
5 7 -11 0.12 0.1
5 7 -11 0.44 0.1
-5 -7 11 0.38 0.06
-5 -7 11 0.31 0.13
4 7 -11 0.09 0.06
4 7 -11 0.09 0.1
-4 -7 11 0.08 0.09
-4 -7 11 0 0.04
3 7 -11 0.29 0.12
3 7 -11 0.08 0.06
-3 -7 11 0.07 0.06
-3 -7 11 0 0.08
2 7 -11 0.03 0.06
2 7 -11 0.03 0.08
-2 -7 11 -0.08 0.05
-2 -7 11 -0.09 0.05
1 7 -11 9.14 0.37
1 7 -11 8.82 0.41
-1 -7 11 8 0.38
-1 -7 11 8.91 0.36
0 7 -11 18.52 0.61
0 7 -11 17.87 0.57
0 -7 11 17.53 0.6
0 -7 11 18.51 0.58
-1 7 -11 16.41 0.56
-1 7 -11 16.25 0.54
1 -7 11 15.76 0.56
1 -7 11 16.59 0.56
-2 7 -11 0.65 0.13
-2 7 -11 0.93 0.14
2 -7 11 0.66 0.13
2 -7 11 0.87 0.15
3 -7 11 0.06 0.08
3 -7 11 0.02 0.07
4 -7 11 0.72 0.15
-5 7 -11 1.61 0.22
5 -7 11 1.47 0.21
-6 7 -11 0.17 0.1
6 -7 11 0.09 0.1
7 6 -11 0.99 0.13
7 6 -11 1.04 0.19
-7 -6 11 1.24 0.22
6 6 -11 0.19 0.07
6 6 -11 0 0.09
-6 -6 11 0.07 0.1
-6 -6 11 0.13 0.04
5 6 -11 6.72 0.38
5 6 -11 6.35 0.28
-5 -6 11 6.73 0.24
-5 -6 11 6.72 0.38
4 6 -11 1.77 0.16
4 6 -11 1.92 0.23
-4 -6 11 1.97 0.23
-4 -6 11 1.96 0.15
3 6 -11 2.37 0.24
3 6 -11 2.19 0.17
-3 -6 11 2.38 0.17
-3 -6 11 2.63 0.22
2 6 -11 0.11 0.08
2 6 -11 0 0.05
-2 -6 11 0.1 0.08
-2 -6 11 0.09 0.06
1 6 -11 5.29 0.29
1 6 -11 5.99 0.28
-1 -6 11 5.87 0.31
-1 -6 11 5.49 0.27
0 6 -11 3.55 0.22
0 6 -11 3.53 0.24
0 -6 11 3.6 0.23
0 -6 11 3.45 0.23
-1 6 -11 12.24 0.44
-1 6 -11 11.98 0.43
1 -6 11 11.06 0.43
1 -6 11 11.46 0.44
-2 6 -11 7.89 0.33
-2 6 -11 8.53 0.36
2 -6 11 7.39 0.35
2 -6 11 7.71 0.36
3 -6 11 0.68 0.13
3 -6 11 0.65 0.13
-4 6 -11 0.06 0.08
4 -6 11 0.21 0.1
-5 6 -11 3 0.24
5 -6 11 3.66 0.26
-6 6 -11 1.1 0.18
6 -6 11 1.36 0.21
-7 6 -11 0.39 0.14
7 -6 11 0.55 0.15
8 5 -11 3.15 0.21
8 5 -11 2.76 0.3
-8 -5 11 3.01 0.34
7 5 -11 1.97 0.18
7 5 -11 1.97 0.24
-7 -5 11 1.97 0.09
-7 -5 11 1.9 0.26
6 5 -11 2.93 0.29
6 5 -11 3.03 0.19
-6 -5 11 3.08 0.15
-6 -5 11 3.47 0.28
5 5 -11 0.06 0.08
5 5 -11 0.12 0.06
-5 -5 11 0 0.07
-5 -5 11 0.05 0.05
4 5 -11 22.1 0.59
4 5 -11 22.02 0.69
-4 -5 11 21.42 0.57
-4 -5 11 21.48 0.7
3 5 -11 3.85 0.26
3 5 -11 4.19 0.22
-3 -5 11 4.33 0.27
-3 -5 11 4.07 0.21
2 5 -11 9.82 0.35
2 5 -11 10.07 0.41
-2 -5 11 10.23 0.41
-2 -5 11 10.06 0.36
1 5 -11 29.24 0.74
1 5 -11 30.18 0.8
-1 -5 11 30.67 0.77
-1 -5 11 28.28 0.79
0 5 -11 12.83 0.43
0 5 -11 13.33 0.45
0 -5 11 13.03 0.45
0 -5 11 11.89 0.43
-1 5 -11 4.99 0.25
-1 5 -11 5.34 0.26
1 -5 11 4.71 0.26
1 -5 11 5.14 0.27
-2 5 -11 2.46 0.16
-2 5 -11 2.87 0.19
-2 5 -11 2.55 0.19
2 -5 11 2.96 0.2
2 -5 11 2.72 0.2
-3 5 -11 9.86 0.35
-3 5 -11 9.52 0.36
3 -5 11 10.33 0.41
3 -5 11 9.56 0.39
-4 5 -11 0 0.06
4 -5 11 0.03 0.07
-5 5 -11 1.72 0.2
5 -5 11 1.67 0.2
-6 5 -11 0.68 0.17
-6 5 -11 0.52 0.14
6 -5 11 0.73 0.15
-7 5 -11 0.98 0.19
-7 5 -11 1.24 0.21
7 -5 11 1.13 0.18
-8 5 -11 4.21 0.39
-8 5 -11 4.64 0.36
8 -5 11 4.16 0.32
8 4 -11 0.95 0.18
8 4 -11 0.95 0.13
-8 -4 11 0.97 0.09
-8 -4 11 0.89 0.2
7 4 -11 0.63 0.15
7 4 -11 0.24 0.08
-7 -4 11 0.56 0.15
-7 -4 11 0.47 0.08
6 4 -11 1.56 0.21
6 4 -11 1.66 0.16
-6 -4 11 1.59 0.13
-6 -4 11 1.65 0.23
5 4 -11 0.57 0.13
5 4 -11 0.5 0.09
-5 -4 11 0.44 0.12
-5 -4 11 0.45 0.08
4 4 -11 0.62 0.13
4 4 -11 0.47 0.09
-4 -4 11 0.5 0.09
-4 -4 11 0.48 0.12
3 4 -11 3.12 0.18
3 4 -11 3.15 0.22
-3 -4 11 2.94 0.18
-3 -4 11 2.72 0.21
2 4 -11 6.49 0.27
2 4 -11 6.36 0.3
-2 -4 11 6.09 0.27
-2 -4 11 6.23 0.31
1 4 -11 1.47 0.16
1 4 -11 1.85 0.16
-1 -4 11 1.81 0.17
0 4 -11 0.15 0.07
0 4 -11 0.05 0.05
0 -4 11 0.08 0.06
0 -4 11 0.14 0.07
-1 4 -11 14.5 0.46
-1 4 -11 14.59 0.38
-1 4 -11 14.78 0.46
1 -4 11 14.41 0.47
1 -4 11 15.43 0.48
-2 4 -11 1.94 0.19
-2 4 -11 2.7 0.16
-2 4 -11 2.27 0.16
-2 4 -11 2.39 0.17
2 -4 11 2.25 0.18
2 -4 11 2.68 0.19
-3 4 -11 16.86 0.56
-3 4 -11 16.35 0.47
-3 4 -11 17.82 0.5
3 -4 11 16.82 0.53
3 -4 11 16.53 0.54
-4 4 -11 0.09 0.07
-4 4 -11 0.15 0.09
4 -4 11 0.09 0.07
-5 4 -11 14.48 0.55
-5 4 -11 14.52 0.52
5 -4 11 15.54 0.53
-6 4 -11 2.94 0.28
-6 4 -11 3.33 0.3
6 -4 11 2.87 0.24
-7 4 -11 4.68 0.33
-7 4 -11 4.48 0.33
7 -4 11 4.65 0.31
-8 4 -11 4.8 0.34
-8 4 -11 6.09 0.39
8 -4 11 4.95 0.34
9 3 -11 0.88 0.14
-9 -3 11 0.86 0.2
-9 -3 11 0.99 0.11
8 3 -11 0.8 0.17
8 3 -11 0.86 0.13
-8 -3 11 0.92 0.2
-8 -3 11 0.9 0.11
7 3 -11 -0.09 0.04
7 3 -11 -0.04 0.07
-7 -3 11 0 0.04
-7 -3 11 -0.12 0.06
6 3 -11 0.13 0.06
6 3 -11 0.27 0.1
-6 -3 11 0.16 0.09
-6 -3 11 0.2 0.06
5 3 -11 16.87 0.5
5 3 -11 17.2 0.57
-5 -3 11 17.32 0.6
-5 -3 11 17.76 0.5
4 3 -11 2.75 0.17
4 3 -11 3.23 0.22
-4 -3 11 2.82 0.18
-4 -3 11 2.84 0.22
3 3 -11 5.92 0.29
3 3 -11 6.32 0.26
-3 -3 11 5.43 0.29
-3 -3 11 5.76 0.25
2 3 -11 91.76 1.89
2 3 -11 88.54 1.82
-2 -3 11 91.77 1.9
-2 -3 11 91.31 1.85
1 3 -11 100.84 2.03
1 3 -11 100.63 2.08
-1 -3 11 101.87 2.05
-1 -3 11 105.66 2.08
0 3 -11 5.5 0.24
0 3 -11 5.11 0.24
0 -3 11 4.8 0.24
0 -3 11 5.04 0.24
-1 3 -11 0.92 0.09
-1 3 -11 0.89 0.13
-1 3 -11 0.91 0.12
-1 3 -11 0.91 0.12
1 -3 11 0.63 0.1
1 -3 11 0.79 0.12
1 -3 11 0.78 0.1
-2 3 -11 0.81 0.1
-2 3 -11 0.64 0.1
-2 3 -11 0.83 0.11
-2 3 -11 0.75 0.13
2 -3 11 0.93 0.13
2 -3 11 0.71 0.11
2 -3 11 0.82 0.11
-3 3 -11 0.03 0.06
-3 3 -11 0.03 0.05
-3 3 -11 0.12 0.06
3 -3 11 0.05 0.06
3 -3 11 -0.04 0.04
3 -3 11 0.01 0.06
-4 3 -11 0.87 0.15
-4 3 -11 0.71 0.12
4 -3 11 0.66 0.12
4 -3 11 0.97 0.13
-5 3 -11 13.94 0.51
-5 3 -11 14.84 0.54
5 -3 11 14.7 0.51
5 -3 11 14.91 0.49
-6 3 -11 9.1 0.42
-6 3 -11 9.24 0.43
6 -3 11 9.12 0.38
6 -3 11 9.84 0.42
-7 3 -11 0.13 0.11
-7 3 -11 0.27 0.11
7 -3 11 0.18 0.08
7 -3 11 0.17 0.1
-8 3 -11 2.67 0.3
-8 3 -11 2.59 0.28
8 -3 11 2.61 0.25
8 -3 11 2.53 0.27
9 2 -11 1.81 0.2
-9 -2 11 1.76 0.27
-9 -2 11 1.73 0.17
8 2 -11 10.1 0.4
-8 -2 11 10.59 0.52
-8 -2 11 10.39 0.38
7 2 -11 1.63 0.2
7 2 -11 1.58 0.17
-7 -2 11 1.78 0.17
-7 -2 11 2 0.24
6 2 -11 1.59 0.19
6 2 -11 1.4 0.15
-6 -2 11 1.46 0.16
-6 -2 11 1.72 0.21
5 2 -11 0.02 0.05
5 2 -11 0 0.06
-5 -2 11 0.01 0.05
-5 -2 11 -0.02 0.07
4 2 -11 4.01 0.21
4 2 -11 3.84 0.23
-4 -2 11 3.99 0.24
-4 -2 11 3.98 0.21
3 2 -11 31.77 0.75
3 2 -11 30.88 0.8
-3 -2 11 30.75 0.77
-3 -2 11 31.92 0.81
2 2 -11 20.7 0.59
2 2 -11 21.47 0.56
-2 -2 11 20.63 0.58
-2 -2 11 20.56 0.57
1 2 -11 16.41 0.5
1 2 -11 16.38 0.49
1 2 -11 16.63 0.47
-1 -2 11 16.08 0.48
-1 -2 11 16.79 0.49
0 2 -11 13.39 0.42
0 2 -11 13.66 0.41
0 2 -11 13.12 0.32
0 2 -11 13.79 0.44
0 -2 11 13.79 0.42
0 -2 11 12.93 0.42
0 -2 11 13.88 0.4
-1 2 -11 0.56 0.1
-1 2 -11 0.31 0.07
-1 2 -11 0.47 0.09
-1 2 -11 0.42 0.07
1 -2 11 0.35 0.08
1 -2 11 0.33 0.07
1 -2 11 0.33 0.07
-2 2 -11 100.78 2.01
-2 2 -11 104.76 2.03
-2 2 -11 103.48 2.01
-2 2 -11 100.8 2.09
2 -2 11 102.52 2.07
2 -2 11 100.45 2.04
2 -2 11 100.3 2.02
-3 2 -11 13.43 0.43
-3 2 -11 13.92 0.39
-3 2 -11 14.66 0.48
3 -2 11 13.48 0.44
3 -2 11 13.67 0.43
-4 2 -11 34.09 0.88
-4 2 -11 33.63 0.85
4 -2 11 32.46 0.82
4 -2 11 33.45 0.84
-5 2 -11 1.23 0.17
-5 2 -11 1.65 0.2
5 -2 11 1.66 0.17
5 -2 11 1.58 0.18
-6 2 -11 0.6 0.14
-6 2 -11 0.6 0.13
6 -2 11 0.86 0.14
6 -2 11 0.94 0.15
-7 2 -11 0.26 0.11
-7 2 -11 0.35 0.13
7 -2 11 0.2 0.08
7 -2 11 0.1 0.08
-8 2 -11 0.02 0.09
-8 2 -11 0.04 0.08
-8 2 -11 0.06 0.09
8 -2 11 0.07 0.08
8 -2 11 0.02 0.07
9 1 -11 1.55 0.2
-9 -1 11 1.14 0.16
-9 -1 11 1.62 0.25
8 1 -11 1.81 0.2
-8 -1 11 1.96 0.26
-8 -1 11 1.95 0.19
7 1 -11 1.45 0.17
7 1 -11 1.54 0.2
-7 -1 11 1.41 0.21
-7 -1 11 1.49 0.17
6 1 -11 11.21 0.4
6 1 -11 11.54 0.45
-6 -1 11 10.39 0.46
-6 -1 11 10.93 0.4
5 1 -11 16.75 0.54
5 1 -11 15.52 0.48
-5 -1 11 15.04 0.53
-5 -1 11 15.8 0.5
4 1 -11 8.13 0.31
4 1 -11 8.21 0.35
-4 -1 11 7.93 0.32
-4 -1 11 8.6 0.35
3 1 -11 65.43 1.42
3 1 -11 64.72 1.36
-3 -1 11 64.55 1.38
-3 -1 11 63.06 1.39
2 1 -11 28.35 0.69
2 1 -11 27.28 0.72
2 1 -11 27.59 0.72
-2 -1 11 27.79 0.7
-2 -1 11 28.44 0.57
-2 -1 11 28.21 0.71
1 1 -11 6.07 0.28
1 1 -11 6.05 0.27
1 1 -11 5.94 0.24
-1 -1 11 5.82 0.25
-1 -1 11 6.11 0.18
-1 -1 11 6.42 0.24
-1 -1 11 5.92 0.25
0 1 -11 1.52 0.15
0 1 -11 1.49 0.15
0 1 -11 1.29 0.13
0 -1 11 1.57 0.12
0 -1 11 1.83 0.13
0 -1 11 1.33 0.14
0 -1 11 1.59 0.09
-1 1 -11 37.08 0.91
-1 1 -11 37.98 0.88
-1 1 -11 38.56 0.87
-1 1 -11 36.58 0.82
1 -1 11 38.76 0.9
1 -1 11 39.79 0.87
1 -1 11 38.22 0.86
-2 1 -11 86.68 1.81
-2 1 -11 89.15 1.75
-2 1 -11 86.88 1.75
2 -1 11 85.38 1.75
2 -1 11 87.61 1.76
2 -1 11 86.78 1.79
-3 1 -11 4.32 0.23
-3 1 -11 4.28 0.24
-3 1 -11 4.4 0.2
3 -1 11 4.14 0.21
3 -1 11 4.16 0.21
-4 1 -11 75.75 1.65
-4 1 -11 75.19 1.64
4 -1 11 79.66 1.6
4 -1 11 75.27 1.61
-5 1 -11 0.4 0.1
-5 1 -11 0.34 0.1
5 -1 11 0.35 0.09
5 -1 11 0.4 0.1
-6 1 -11 1.29 0.17
-6 1 -11 1.5 0.2
6 -1 11 1.04 0.16
6 -1 11 1.02 0.14
-7 1 -11 0.94 0.16
-7 1 -11 0.85 0.18
7 -1 11 0.9 0.15
7 -1 11 0.81 0.13
-8 1 -11 2.39 0.29
-8 1 -11 2.08 0.23
8 -1 11 2.09 0.24
8 -1 11 2.27 0.22
-9 1 -11 0.38 0.12
9 -1 11 0.58 0.16
9 -1 11 0.51 0.12
9 0 -11 1.9 0.22
-9 0 11 1.63 0.25
-9 0 11 1.33 0.18
8 0 -11 -0.01 0.06
-8 0 11 0.07 0.09
-8 0 11 -0.02 0.06
7 0 -11 0.09 0.07
7 0 -11 0.03 0.07
-7 0 11 -0.01 0.06
-7 0 11 0.08 0.07
6 0 -11 13.23 0.45
6 0 -11 12.38 0.46
-6 0 11 12.26 0.45
-6 0 11 12.88 0.49
5 0 -11 6.19 0.31
5 0 -11 6.15 0.28
-5 0 11 6.12 0.29
-5 0 11 6.05 0.31
4 0 -11 6.34 0.3
4 0 -11 6.46 0.28
-4 0 11 6.21 0.29
-4 0 11 6.16 0.29
3 0 -11 0.07 0.06
3 0 -11 0.11 0.07
-3 0 11 0.13 0.06
-3 0 11 0.14 0.04
-3 0 11 0.16 0.07
2 0 -11 61.05 1.38
2 0 -11 63.78 1.33
2 0 -11 62.47 1.37
-2 0 11 62.9 1.33
-2 0 11 64.87 1.32
-2 0 11 62.77 1.35
-2 0 11 63.43 1.23
1 0 -11 2.13 0.15
1 0 -11 2.43 0.17
1 0 -11 2.38 0.18
-1 0 11 2.52 0.12
-1 0 11 2.55 0.17
-1 0 11 2.41 0.15
-1 0 11 2.21 0.14
0 0 -11 7.19 0.29
0 0 -11 6.99 0.3
0 0 -11 7.3 0.27
0 0 11 7.1 0.29
0 0 11 7.21 0.27
0 0 11 7.27 0.26
0 0 11 7.44 0.24
-1 0 -11 19 0.53
-1 0 -11 19.46 0.57
-1 0 -11 19.76 0.51
-1 0 -11 20.32 0.52
1 0 11 20.6 0.51
1 0 11 20.33 0.53
1 0 11 20.2 0.55
-2 0 -11 0.65 0.1
-2 0 -11 0.55 0.1
-2 0 -11 0.73 0.1
2 0 11 0.8 0.1
2 0 11 0.74 0.1
-3 0 -11 14.81 0.42
-3 0 -11 14.15 0.46
-3 0 -11 14.26 0.47
3 0 11 14.7 0.43
3 0 11 14.81 0.44
-4 0 -11 15.54 0.51
-4 0 -11 15.31 0.5
4 0 11 14.94 0.46
4 0 11 15.64 0.46
-5 0 -11 19.95 0.6
-5 0 -11 18.97 0.62
5 0 11 20.27 0.58
5 0 11 20.28 0.56
-6 0 -11 1.39 0.2
-6 0 -11 1.15 0.16
6 0 11 1.12 0.14
6 0 11 1.14 0.16
-7 0 -11 0.03 0.08
-7 0 -11 -0.04 0.06
7 0 11 0.04 0.05
7 0 11 0.06 0.08
-8 0 -11 1.12 0.16
-8 0 -11 1.28 0.23
8 0 11 1.28 0.19
8 0 11 1.16 0.16
9 -1 -11 0.08 0.09
9 -1 -11 -0.02 0.07
-9 1 11 -0.07 0.07
-9 1 11 -0.16 0.07
8 -1 -11 1.14 0.17
-8 1 11 1.02 0.19
-8 1 11 1.28 0.19
7 -1 -11 21.69 0.65
7 -1 -11 20.78 0.65
-7 1 11 21.19 0.69
-7 1 11 21.64 0.68
6 -1 -11 25.12 0.7
6 -1 -11 24.18 0.71
-6 1 11 24.52 0.72
-6 1 11 24.52 0.73
5 -1 -11 0.22 0.08
5 -1 -11 0.26 0.1
-5 1 11 0.37 0.1
-5 1 11 0.41 0.1
-5 1 11 0.32 0.07
4 -1 -11 10.13 0.37
4 -1 -11 10.74 0.4
-4 1 11 10.77 0.4
-4 1 11 10.08 0.37
-4 1 11 10.33 0.33
3 -1 -11 29.26 0.73
3 -1 -11 29.66 0.77
3 -1 -11 28.63 0.78
-3 1 11 28.97 0.76
-3 1 11 28.24 0.66
-3 1 11 30.56 0.73
2 -1 -11 1.23 0.13
2 -1 -11 0.8 0.13
2 -1 -11 1.01 0.13
-2 1 11 1.08 0.1
-2 1 11 0.98 0.12
-2 1 11 0.9 0.12
-2 1 11 0.89 0.11
1 -1 -11 5.65 0.27
1 -1 -11 6.09 0.27
1 -1 -11 5.88 0.25
-1 1 11 5.51 0.22
-1 1 11 6.11 0.25
-1 1 11 5.93 0.26
-1 1 11 6.22 0.22
0 -1 -11 60.76 1.38
0 -1 -11 66.43 1.35
0 -1 -11 62.29 1.4
0 1 11 65.36 1.3
0 1 11 64.5 1.35
0 1 11 65.43 1.32
0 1 11 66.38 1.39
-1 -1 -11 11.2 0.4
-1 -1 -11 11.41 0.38
1 1 11 11.03 0.36
1 1 11 11.95 0.37
1 1 11 11.35 0.33
-2 -1 -11 1.56 0.15
-2 -1 -11 1.28 0.14
-2 -1 -11 1.18 0.14
2 1 11 1.51 0.15
2 1 11 1.23 0.13
2 1 11 1.28 0.12
-3 -1 -11 6.62 0.3
-3 -1 -11 6.82 0.27
-3 -1 -11 7.1 0.3
3 1 11 6.71 0.27
3 1 11 6.7 0.26
-4 -1 -11 4.3 0.24
-4 -1 -11 4.23 0.25
-4 -1 -11 4.06 0.2
4 1 11 4.47 0.22
4 1 11 3.79 0.2
-5 -1 -11 2.21 0.23
-5 -1 -11 2.03 0.19
5 1 11 2.31 0.17
5 1 11 2.12 0.17
-6 -1 -11 0.07 0.07
-6 -1 -11 0.03 0.1
6 1 11 0.28 0.09
6 1 11 0.13 0.06
-7 -1 -11 2.39 0.27
-7 -1 -11 2.34 0.19
7 1 11 2.4 0.18
7 1 11 2.68 0.22
-8 -1 -11 0.77 0.18
-8 -1 -11 0.59 0.12
8 1 11 0.36 0.12
8 1 11 0.56 0.12
9 -2 -11 2.32 0.27
9 -2 -11 2.99 0.29
-9 2 11 3.17 0.31
8 -2 -11 0.07 0.08
8 -2 -11 0.23 0.1
-8 2 11 0.28 0.12
-8 2 11 0.28 0.11
7 -2 -11 2.2 0.23
7 -2 -11 2.21 0.23
-7 2 11 1.72 0.22
-7 2 11 1.79 0.21
6 -2 -11 11.14 0.44
6 -2 -11 10.98 0.43
-6 2 11 12.06 0.45
-6 2 11 11.02 0.46
-6 2 11 11.53 0.41
5 -2 -11 0.43 0.1
5 -2 -11 0.56 0.12
-5 2 11 0.43 0.09
-5 2 11 0.55 0.11
-5 2 11 0.51 0.12
4 -2 -11 29.57 0.8
4 -2 -11 29.31 0.76
-4 2 11 28.71 0.71
-4 2 11 29.46 0.74
-4 2 11 28.47 0.79
3 -2 -11 5.47 0.29
3 -2 -11 5.93 0.27
3 -2 -11 5.62 0.28
-3 2 11 5.5 0.23
-3 2 11 5.61 0.28
-3 2 11 5.42 0.23
2 -2 -11 6.26 0.27
2 -2 -11 6.45 0.31
2 -2 -11 6.21 0.29
-2 2 11 7.02 0.28
-2 2 11 6.46 0.25
-2 2 11 6.32 0.29
-2 2 11 6.41 0.24
1 -2 -11 0.22 0.08
1 -2 -11 0.1 0.07
-1 2 11 0.2 0.07
-1 2 11 0.24 0.07
-1 2 11 0.23 0.05
-1 2 11 0.14 0.05
0 -2 -11 24.96 0.68
0 -2 -11 24.27 0.67
0 2 11 25.09 0.56
0 2 11 24.53 0.62
0 2 11 24.31 0.63
-1 -2 -11 20.38 0.6
-1 -2 -11 21.43 0.6
1 2 11 21.28 0.56
1 2 11 21.31 0.5
1 2 11 21.19 0.57
-2 -2 -11 17.9 0.54
-2 -2 -11 18.86 0.54
-2 -2 -11 17.56 0.54
2 2 11 18.03 0.5
2 2 11 18.6 0.46
-3 -2 -11 0.14 0.07
-3 -2 -11 0.27 0.08
-3 -2 -11 0.22 0.07
3 2 11 0.23 0.07
3 2 11 0.31 0.07
-4 -2 -11 19.63 0.63
-4 -2 -11 20.92 0.57
-4 -2 -11 20.22 0.58
4 2 11 20.23 0.55
4 2 11 20.39 0.54
-5 -2 -11 2.25 0.24
-5 -2 -11 2.15 0.17
5 2 11 2.38 0.17
5 2 11 2.02 0.16
-6 -2 -11 0.77 0.12
-6 -2 -11 0.59 0.15
6 2 11 0.7 0.11
6 2 11 0.7 0.12
-7 -2 -11 6.4 0.39
-7 -2 -11 5.9 0.27
7 2 11 6.44 0.32
7 2 11 5.78 0.28
-8 -2 -11 1.22 0.13
-8 -2 -11 1.03 0.21
8 2 11 1.11 0.15
-9 3 11 -0.02 0.09
-8 3 11 0.48 0.14
7 -3 -11 1.73 0.21
-7 3 11 1.55 0.22
-7 3 11 1.78 0.2
6 -3 -11 1.01 0.16
-6 3 11 0.83 0.16
-6 3 11 0.75 0.14
5 -3 -11 1.41 0.18
-5 3 11 1.51 0.16
-5 3 11 1.52 0.19
4 -3 -11 77.98 1.69
-4 3 11 76.7 1.61
-4 3 11 73.96 1.69
3 -3 -11 1.33 0.17
3 -3 -11 1.61 0.19
-3 3 11 1.39 0.14
-3 3 11 1.54 0.18
2 -3 -11 6.62 0.33
2 -3 -11 7.06 0.32
-2 3 11 7.13 0.3
-2 3 11 6.35 0.27
1 -3 -11 14.27 0.5
1 -3 -11 14.99 0.5
-1 3 11 15.43 0.46
-1 3 11 15.3 0.47
0 -3 -11 13.46 0.47
0 -3 -11 14.09 0.48
0 3 11 14.48 0.44
0 3 11 13.02 0.42
-1 -3 -11 2.05 0.2
-1 -3 -11 1.79 0.18
1 3 11 2 0.15
1 3 11 2.12 0.16
-2 -3 -11 7.1 0.31
-2 -3 -11 6.41 0.31
2 3 11 7.01 0.28
2 3 11 6.77 0.3
-3 -3 -11 0.13 0.08
-3 -3 -11 0.1 0.07
-3 -3 -11 0.03 0.06
3 3 11 0.09 0.07
3 3 11 0.22 0.07
-4 -3 -11 14.48 0.53
-4 -3 -11 13.83 0.47
-4 -3 -11 14.04 0.45
4 3 11 13.54 0.43
-5 -3 -11 2.93 0.19
-5 -3 -11 3.16 0.29
5 3 11 2.89 0.19
-6 -3 -11 15.48 0.6
-6 -3 -11 15.88 0.46
6 3 11 14.79 0.47
-7 -3 -11 0.11 0.05
-7 -3 -11 0.15 0.11
7 3 11 0.16 0.07
-8 -3 -11 4.47 0.14
8 3 11 4.42 0.25
-8 4 11 0.05 0.09
-8 4 11 0.05 0.1
-7 4 11 0.09 0.09
-7 4 11 -0.01 0.09
6 -4 -11 -0.05 0.07
-6 4 11 -0.02 0.06
5 -4 -11 0.91 0.16
-5 4 11 0.71 0.13
4 -4 -11 6.85 0.35
-4 4 11 7.35 0.33
3 -4 -11 8.43 0.38
3 -4 -11 8.84 0.4
-3 4 11 8.41 0.35
2 -4 -11 -0.03 0.06
2 -4 -11 0.05 0.07
-2 4 11 -0.08 0.03
-2 4 11 0.08 0.06
1 -4 -11 12.26 0.46
1 -4 -11 12.71 0.47
-1 4 11 12.46 0.42
-1 4 11 11.46 0.41
0 -4 -11 4.93 0.28
0 -4 -11 4.33 0.26
0 4 11 4.43 0.24
0 4 11 4.89 0.25
-1 -4 -11 2.29 0.22
-1 -4 -11 2.35 0.19
1 4 11 2.4 0.17
1 4 11 2.15 0.17
-2 -4 -11 2.64 0.19
-2 -4 -11 3.12 0.22
2 4 11 2.85 0.19
2 4 11 2.37 0.19
-3 -4 -11 48.92 1.18
-3 -4 -11 48.58 1.12
3 4 11 48.05 1.18
3 4 11 49.47 1.1
-4 -4 -11 6.9 0.29
-4 -4 -11 7.12 0.34
4 4 11 7.47 0.37
4 4 11 7.55 0.3
-5 -4 -11 0.1 0.06
-5 -4 -11 0.09 0.1
5 4 11 0.11 0.06
-6 -4 -11 0.47 0.08
-6 -4 -11 0.31 0.13
6 4 11 0.45 0.1
-7 -4 -11 0.4 0.15
7 4 11 0.35 0.09
-7 5 11 2.05 0.25
6 -5 -11 0.41 0.12
-6 5 11 0.32 0.11
5 -5 -11 0.98 0.17
-5 5 11 1.49 0.2
4 -5 -11 0.37 0.12
-4 5 11 0.34 0.1
3 -5 -11 0.98 0.17
3 -5 -11 1.14 0.19
-3 5 11 1.04 0.15
2 -5 -11 12.74 0.51
2 -5 -11 14.34 0.53
-2 5 11 14.09 0.49
-2 5 11 13.57 0.48
1 -5 -11 8.86 0.41
1 -5 -11 9.28 0.41
-1 5 11 8.47 0.36
-1 5 11 9.05 0.37
0 -5 -11 3.13 0.23
0 -5 -11 3.2 0.24
0 5 11 2.94 0.21
0 5 11 2.95 0.21
-1 -5 -11 0.25 0.1
-1 -5 -11 0.21 0.09
1 5 11 0.25 0.08
1 5 11 0.24 0.08
-2 -5 -11 4.43 0.28
-2 -5 -11 4.67 0.26
2 5 11 4.31 0.27
2 5 11 4.6 0.24
-3 -5 -11 3.66 0.22
-3 -5 -11 3.89 0.26
3 5 11 3.82 0.26
3 5 11 4.01 0.23
-4 -5 -11 0.17 0.1
-4 -5 -11 0.11 0.06
4 5 11 0.17 0.07
4 5 11 0.05 0.08
-5 -5 -11 0.07 0.05
5 5 11 0.06 0.06
5 5 11 0.14 0.1
6 5 11 0.03 0.09
6 5 11 0.01 0.05
-7 6 11 0.43 0.16
6 -6 -11 -0.01 0.08
-6 6 11 0.08 0.09
5 -6 -11 -0.04 0.08
-5 6 11 0.03 0.07
4 -6 -11 3.57 0.29
-4 6 11 3.93 0.28
3 -6 -11 3.51 0.28
3 -6 -11 3.7 0.29
-3 6 11 3.71 0.26
2 -6 -11 0.04 0.09
2 -6 -11 0.1 0.09
-2 6 11 0 0.06
-2 6 11 -0.01 0.07
1 -6 -11 9.89 0.46
1 -6 -11 10.56 0.45
-1 6 11 10.97 0.43
-1 6 11 10.58 0.44
0 -6 -11 3.79 0.26
0 -6 -11 3.18 0.26
0 6 11 3.92 0.25
0 6 11 3.75 0.26
-1 -6 -11 1.42 0.21
-1 -6 -11 0.92 0.15
1 6 11 1.41 0.17
1 6 11 1.21 0.17
-2 -6 -11 18.47 0.58
-2 -6 -11 18.26 0.66
2 6 11 18.46 0.63
2 6 11 19.51 0.59
-3 -6 -11 0.16 0.1
-3 -6 -11 0.36 0.09
3 6 11 0.16 0.09
3 6 11 0.34 0.09
-4 -6 -11 2.51 0.27
-4 -6 -11 2.02 0.15
4 6 11 1.8 0.18
4 6 11 2.52 0.27
-5 -6 -11 1.24 0.08
5 6 11 1.19 0.15
5 6 11 1.37 0.22
5 -7 -11 0.84 0.18
-5 7 11 1.25 0.21
4 -7 -11 0.8 0.17
-4 7 11 0.6 0.16
3 -7 -11 0.57 0.15
3 -7 -11 0.48 0.14
-3 7 11 0.55 0.14
2 -7 -11 9.44 0.48
2 -7 -11 10.81 0.49
-2 7 11 9.8 0.45
-2 7 11 10.54 0.46
1 -7 -11 6.84 0.39
1 -7 -11 5.34 0.34
-1 7 11 6.1 0.35
-1 7 11 6.19 0.34
0 -7 -11 5.94 0.34
0 -7 -11 5.94 0.37
0 7 11 5.64 0.32
0 7 11 5.97 0.34
-1 -7 -11 0.22 0.13
-1 -7 -11 0.2 0.1
1 7 11 0.06 0.07
1 7 11 0.05 0.09
-2 -7 -11 0.22 0.13
-2 -7 -11 0.2 0.08
2 7 11 -0.02 0.06
2 7 11 0.26 0.09
-3 -7 -11 0.49 0.15
-3 -7 -11 0.28 0.08
3 7 11 0.4 0.1
3 7 11 0.51 0.14
-4 -7 -11 0.23 0.12
-4 -7 -11 0.23 0.06
4 7 11 0.14 0.1
4 7 11 0.08 0.07
3 -8 -11 2.44 0.28
3 -8 -11 3.05 0.33
-3 8 11 2.56 0.29
2 -8 -11 4.75 0.34
2 -8 -11 5.02 0.37
-2 8 11 5.57 0.35
-2 8 11 4.66 0.32
1 -8 -11 0.87 0.17
1 -8 -11 0.7 0.19
-1 8 11 0.92 0.17
-1 8 11 0.69 0.14
0 -8 -11 2.54 0.3
0 -8 -11 2.02 0.23
0 8 11 2.21 0.24
0 8 11 2.39 0.27
-1 -8 -11 1.18 0.22
-1 -8 -11 1.12 0.17
1 8 11 0.89 0.15
1 8 11 0.63 0.15
-2 -8 -11 0.58 0.17
-2 -8 -11 0.39 0.1
2 8 11 0.38 0.12
2 8 11 0.35 0.13
3 9 -12 0.13 0.08
3 9 -12 -0.02 0.09
-3 -9 12 0.08 0.06
-3 -9 12 -0.02 0.09
2 9 -12 4.21 0.28
2 9 -12 3.69 0.35
-2 -9 12 4.55 0.33
-2 -9 12 4.36 0.26
1 9 -12 5.61 0.37
1 9 -12 5.34 0.32
-1 -9 12 5.45 0.35
-1 -9 12 5.14 0.3
0 9 -12 6.6 0.39
0 9 -12 6.43 0.35
0 -9 12 5.98 0.34
0 -9 12 5.71 0.35
-1 9 -12 7.22 0.38
-1 9 -12 6.02 0.37
1 -9 12 5.98 0.36
1 -9 12 6.11 0.36
2 -9 12 -0.04 0.08
2 -9 12 0.03 0.09
3 -9 12 0.25 0.11
3 -9 12 0.18 0.12
5 8 -12 0.08 0.1
5 8 -12 0.22 0.08
-5 -8 12 0.17 0.04
-5 -8 12 0.16 0.13
4 8 -12 0.32 0.09
4 8 -12 0.24 0.12
-4 -8 12 0.31 0.13
-4 -8 12 0.31 0.08
3 8 -12 1.63 0.23
3 8 -12 1.77 0.19
-3 -8 12 1.86 0.24
-3 -8 12 1.72 0.17
2 8 -12 0.95 0.18
2 8 -12 0.99 0.15
-2 -8 12 1.23 0.2
-2 -8 12 0.97 0.14
1 8 -12 0.78 0.14
1 8 -12 0.87 0.17
-1 -8 12 0.73 0.14
-1 -8 12 0.63 0.15
0 8 -12 0.68 0.14
0 8 -12 0.64 0.15
0 -8 12 0.71 0.14
0 -8 12 0.66 0.16
-1 8 -12 2.08 0.24
-1 8 -12 1.93 0.21
1 -8 12 2.19 0.24
1 -8 12 1.87 0.22
-2 8 -12 0.95 0.16
2 -8 12 1.11 0.17
2 -8 12 0.85 0.16
3 -8 12 0.58 0.15
3 -8 12 0.71 0.15
4 -8 12 0.06 0.09
5 -8 12 0.36 0.13
6 7 -12 0.17 0.08
6 7 -12 0.39 0.14
-6 -7 12 0.36 0.15
5 7 -12 0.14 0.07
5 7 -12 0.29 0.12
-5 -7 12 0.18 0.06
-5 -7 12 0.13 0.11
4 7 -12 4.56 0.25
4 7 -12 4.78 0.33
-4 -7 12 5.02 0.34
-4 -7 12 4.37 0.22
3 7 -12 9.72 0.45
3 7 -12 9.76 0.38
-3 -7 12 9.24 0.44
-3 -7 12 8.96 0.35
2 7 -12 4.56 0.3
2 7 -12 5.14 0.27
-2 -7 12 4.84 0.26
-2 -7 12 5.36 0.33
1 7 -12 0.01 0.07
1 7 -12 0.01 0.06
-1 -7 12 -0.02 0.07
-1 -7 12 0.03 0.06
0 7 -12 22.13 0.66
0 7 -12 22.49 0.7
0 -7 12 20.9 0.66
0 -7 12 22.13 0.7
-1 7 -12 5.83 0.32
-1 7 -12 5.27 0.3
1 -7 12 5.53 0.32
1 -7 12 6.51 0.34
-2 7 -12 0.58 0.13
-2 7 -12 0.7 0.13
2 -7 12 0.53 0.12
2 -7 12 0.47 0.12
3 -7 12 1.44 0.21
3 -7 12 1.21 0.19
4 -7 12 0.15 0.09
5 -7 12 0.11 0.1
6 -7 12 0.17 0.12
7 6 -12 1.37 0.16
7 6 -12 1.53 0.23
-7 -6 12 1.41 0.24
6 6 -12 6.25 0.39
6 6 -12 6.57 0.3
-6 -6 12 6.71 0.23
-6 -6 12 7.47 0.44
5 6 -12 0.16 0.07
5 6 -12 0.14 0.1
-5 -6 12 0.2 0.1
-5 -6 12 0.09 0.05
4 6 -12 0.86 0.12
4 6 -12 0.53 0.14
-4 -6 12 0.82 0.11
-4 -6 12 1.04 0.18
3 6 -12 0.02 0.05
3 6 -12 0.13 0.09
-3 -6 12 0.14 0.09
-3 -6 12 0.02 0.05
2 6 -12 0.98 0.16
2 6 -12 0.8 0.12
-2 -6 12 0.91 0.15
-2 -6 12 0.74 0.12
1 6 -12 5.33 0.3
1 6 -12 4.97 0.26
-1 -6 12 4.46 0.26
-1 -6 12 4.83 0.29
0 6 -12 1.28 0.18
0 6 -12 1.35 0.17
0 -6 12 1.34 0.18
0 -6 12 1 0.14
-1 6 -12 2.73 0.21
-1 6 -12 2.56 0.21
1 -6 12 1.9 0.2
1 -6 12 2.53 0.2
-2 6 -12 3.89 0.25
-2 6 -12 3.83 0.24
2 -6 12 3.98 0.26
2 -6 12 3.66 0.26
3 -6 12 4.59 0.29
3 -6 12 3.94 0.26
4 -6 12 8.9 0.41
-5 6 -12 1.37 0.19
5 -6 12 1.52 0.2
-6 6 -12 14.17 0.56
6 -6 12 13.31 0.56
-7 6 -12 0.09 0.11
7 -6 12 -0.15 0.08
8 5 -12 0.34 0.09
8 5 -12 0.42 0.15
-8 -5 12 0.47 0.16
7 5 -12 2.28 0.21
7 5 -12 2.5 0.28
-7 -5 12 2.42 0.13
-7 -5 12 2.25 0.29
6 5 -12 1.84 0.23
6 5 -12 1.53 0.16
-6 -5 12 1.37 0.13
-6 -5 12 2.04 0.26
5 5 -12 0.3 0.12
5 5 -12 0.35 0.09
-5 -5 12 0.35 0.12
-5 -5 12 0.33 0.08
4 5 -12 9.38 0.35
4 5 -12 9.69 0.43
-4 -5 12 9.6 0.35
-4 -5 12 9.17 0.43
3 5 -12 2.4 0.18
3 5 -12 2.64 0.25
-3 -5 12 2.58 0.25
-3 -5 12 2.47 0.18
2 5 -12 5.31 0.25
2 5 -12 5.06 0.29
-2 -5 12 5.36 0.26
-2 -5 12 5.2 0.29
1 5 -12 37.41 0.91
1 5 -12 38.04 0.97
-1 -5 12 38.18 0.93
-1 -5 12 38.3 0.98
0 5 -12 11.04 0.4
0 5 -12 11.22 0.42
0 -5 12 10.78 0.41
0 -5 12 11.25 0.42
-1 5 -12 2.56 0.19
-1 5 -12 2.54 0.19
1 -5 12 2.6 0.2
1 -5 12 2.67 0.2
-2 5 -12 -0.08 0.04
-2 5 -12 0.04 0.06
2 -5 12 0.01 0.06
2 -5 12 -0.06 0.05
-3 5 -12 11.67 0.41
3 -5 12 12.14 0.47
3 -5 12 12.37 0.46
-4 5 -12 12.67 0.45
4 -5 12 12.24 0.48
-5 5 -12 9.62 0.42
5 -5 12 9.74 0.44
-6 5 -12 2.83 0.28
6 -5 12 2.92 0.25
-7 5 -12 0.6 0.16
-7 5 -12 0.49 0.16
7 -5 12 0.8 0.17
8 4 -12 0.77 0.18
8 4 -12 0.56 0.11
-8 -4 12 0.99 0.2
-8 -4 12 0.89 0.1
7 4 -12 9.59 0.37
7 4 -12 9.04 0.44
-7 -4 12 9.68 0.33
-7 -4 12 9.46 0.5
6 4 -12 0.34 0.09
6 4 -12 0.48 0.13
-6 -4 12 0.4 0.14
-6 -4 12 0.37 0.08
5 4 -12 0.3 0.08
5 4 -12 0.25 0.11
-5 -4 12 0.18 0.1
-5 -4 12 0.16 0.06
4 4 -12 4.94 0.29
4 4 -12 5.17 0.26
-4 -4 12 5.89 0.26
-4 -4 12 6.18 0.33
3 4 -12 5.34 0.3
3 4 -12 6.31 0.27
-3 -4 12 5.55 0.3
-3 -4 12 5.99 0.27
2 4 -12 0.45 0.09
2 4 -12 0.33 0.1
-2 -4 12 0.35 0.08
-2 -4 12 0.61 0.12
1 4 -12 4.12 0.25
1 4 -12 3.97 0.22
-1 -4 12 4.13 0.25
-1 -4 12 3.81 0.22
0 4 -12 44.83 1.02
0 4 -12 44.07 1.05
0 -4 12 42.74 1.05
0 -4 12 44.63 1.04
-1 4 -12 2.8 0.19
-1 4 -12 3.38 0.21
1 -4 12 2.89 0.2
1 -4 12 2.93 0.2
-2 4 -12 0.2 0.08
-2 4 -12 0.17 0.06
-2 4 -12 0.31 0.08
2 -4 12 0.18 0.09
2 -4 12 0.3 0.09
-3 4 -12 1.83 0.2
-3 4 -12 1.82 0.15
-3 4 -12 1.63 0.16
3 -4 12 1.8 0.19
-4 4 -12 1 0.14
-4 4 -12 0.96 0.16
4 -4 12 0.87 0.14
-5 4 -12 1.36 0.2
-5 4 -12 1.06 0.16
5 -4 12 0.96 0.16
-6 4 -12 5.81 0.36
-6 4 -12 5.18 0.32
6 -4 12 5.31 0.32
-7 4 -12 9.9 0.49
-7 4 -12 11.08 0.51
7 -4 12 11.03 0.49
-8 4 -12 0.18 0.12
-8 4 -12 0.18 0.13
8 -4 12 0.12 0.12
8 3 -12 3.63 0.24
8 3 -12 4 0.3
-8 -3 12 4.09 0.22
-8 -3 12 3.61 0.36
7 3 -12 3.03 0.21
7 3 -12 2.51 0.26
-7 -3 12 2.96 0.19
-7 -3 12 2.95 0.31
6 3 -12 1.6 0.17
6 3 -12 1.87 0.21
-6 -3 12 2.04 0.16
-6 -3 12 1.46 0.21
5 3 -12 21.7 0.6
5 3 -12 21.23 0.67
-5 -3 12 20.51 0.59
-5 -3 12 20.96 0.69
4 3 -12 2.62 0.18
4 3 -12 2.27 0.23
-4 -3 12 2.71 0.22
-4 -3 12 2.6 0.18
3 3 -12 4.86 0.27
3 3 -12 4.92 0.24
-3 -3 12 5.36 0.29
-3 -3 12 4.94 0.25
2 3 -12 1.43 0.17
2 3 -12 1.18 0.14
-2 -3 12 1.52 0.17
-2 -3 12 1.26 0.15
1 3 -12 4.15 0.22
1 3 -12 4.16 0.24
-1 -3 12 4.03 0.23
-1 -3 12 3.73 0.22
0 3 -12 15.98 0.5
0 3 -12 16.75 0.49
0 -3 12 16.51 0.51
0 -3 12 17.73 0.52
-1 3 -12 19.68 0.48
-1 3 -12 20.37 0.56
-1 3 -12 18.74 0.59
-1 3 -12 19.37 0.55
1 -3 12 18.98 0.57
1 -3 12 20.7 0.58
-2 3 -12 26.6 0.69
-2 3 -12 28.05 0.77
-2 3 -12 27.24 0.66
2 -3 12 27.6 0.7
2 -3 12 27.7 0.73
2 -3 12 28.27 0.75
-3 3 -12 3.52 0.19
-3 3 -12 2.88 0.22
-3 3 -12 3.58 0.2
3 -3 12 3.66 0.21
3 -3 12 3.35 0.21
-4 3 -12 0.2 0.09
-4 3 -12 0.23 0.09
4 -3 12 0.29 0.08
4 -3 12 0.34 0.1
-5 3 -12 2.26 0.23
-5 3 -12 2.2 0.24
5 -3 12 1.98 0.21
5 -3 12 2.4 0.22
-6 3 -12 0.46 0.13
-6 3 -12 0.4 0.13
6 -3 12 0.56 0.13
6 -3 12 0.49 0.11
-7 3 -12 0.55 0.15
-7 3 -12 0.54 0.15
7 -3 12 0.61 0.15
7 -3 12 0.75 0.14
-8 3 -12 0 0.09
-8 3 -12 -0.14 0.08
8 -3 12 0.05 0.08
8 -3 12 0.06 0.09
9 2 -12 0.25 0.1
-9 -2 12 0.35 0.09
-9 -2 12 0.05 0.11
8 2 -12 10.1 0.42
8 2 -12 9.51 0.45
-8 -2 12 10.61 0.52
-8 -2 12 10.97 0.4
7 2 -12 7.52 0.33
7 2 -12 7.61 0.38
-7 -2 12 7.49 0.41
-7 -2 12 7.39 0.33
6 2 -12 0.04 0.06
6 2 -12 0.01 0.08
-6 -2 12 0.01 0.05
-6 -2 12 0.08 0.09
5 2 -12 0.78 0.14
5 2 -12 1.08 0.14
-5 -2 12 1.11 0.15
-5 -2 12 0.98 0.16
4 2 -12 3.05 0.19
4 2 -12 3.03 0.22
-4 -2 12 2.76 0.19
-4 -2 12 3.06 0.22
3 2 -12 4.33 0.22
3 2 -12 4.04 0.24
-3 -2 12 4.12 0.23
-3 -2 12 4.55 0.25
2 2 -12 4.3 0.22
2 2 -12 4.04 0.24
-2 -2 12 4.2 0.23
-2 -2 12 4.1 0.23
1 2 -12 5.52 0.28
1 2 -12 6.06 0.26
-1 -2 12 5.75 0.27
-1 -2 12 5.77 0.26
0 2 -12 34.68 0.83
0 2 -12 34.84 0.72
0 2 -12 34.72 0.85
0 2 -12 36.82 0.89
0 -2 12 34.82 0.82
0 -2 12 34.94 0.84
0 -2 12 34.13 0.85
-1 2 -12 0.04 0.04
-1 2 -12 -0.03 0.05
-1 2 -12 0.08 0.06
-1 2 -12 0.03 0.04
1 -2 12 -0.01 0.04
1 -2 12 0.01 0.05
1 -2 12 0.08 0.05
-2 2 -12 0.55 0.1
-2 2 -12 0.67 0.1
-2 2 -12 0.64 0.12
2 -2 12 0.62 0.1
2 -2 12 0.49 0.1
2 -2 12 0.71 0.12
-3 2 -12 39.55 0.99
-3 2 -12 39.26 0.93
-3 2 -12 38.07 0.88
3 -2 12 39.34 0.94
3 -2 12 40.53 0.93
-4 2 -12 4.81 0.29
-4 2 -12 5.17 0.27
4 -2 12 5.51 0.28
4 -2 12 5.84 0.27
-5 2 -12 1.64 0.2
-5 2 -12 1.56 0.19
5 -2 12 1.73 0.19
5 -2 12 1.65 0.17
-6 2 -12 13.66 0.54
-6 2 -12 12.53 0.51
6 -2 12 13.55 0.48
6 -2 12 13.92 0.51
-7 2 -12 -0.08 0.08
-7 2 -12 0 0.08
7 -2 12 0.14 0.07
7 -2 12 -0.01 0.07
-8 2 -12 0.01 0.1
-8 2 -12 0.13 0.1
8 -2 12 0.11 0.1
8 -2 12 0.16 0.09
9 1 -12 1.09 0.17
-9 -1 12 1.18 0.21
-9 -1 12 0.9 0.15
8 1 -12 -0.03 0.07
-8 -1 12 0.01 0.06
-8 -1 12 -0.01 0.08
7 1 -12 0.15 0.11
7 1 -12 0.21 0.09
-7 -1 12 0.04 0.09
-7 -1 12 0.08 0.07
6 1 -12 1.82 0.21
6 1 -12 1.58 0.17
-6 -1 12 1.62 0.17
-6 -1 12 1.71 0.21
5 1 -12 2.46 0.24
5 1 -12 2.05 0.18
-5 -1 12 1.95 0.19
-5 -1 12 2.12 0.22
4 1 -12 29.38 0.74
4 1 -12 28.49 0.78
-4 -1 12 27.73 0.75
-4 -1 12 28.04 0.78
3 1 -12 9.02 0.34
3 1 -12 8.75 0.37
-3 -1 12 9.7 0.37
-3 -1 12 9.76 0.36
2 1 -12 34.91 0.86
2 1 -12 33.4 0.81
-2 -1 12 33.02 0.83
-2 -1 12 34.23 0.83
1 1 -12 1.05 0.14
1 1 -12 0.73 0.1
1 1 -12 0.87 0.13
-1 -1 12 0.88 0.12
-1 -1 12 1.16 0.14
-1 -1 12 0.98 0.07
0 1 -12 0.16 0.06
0 1 -12 0.14 0.07
0 1 -12 0 0.05
0 -1 12 0.15 0.06
0 -1 12 0.07 0.05
0 -1 12 0.11 0.04
0 -1 12 0.16 0.06
-1 1 -12 1.99 0.16
-1 1 -12 2.2 0.18
-1 1 -12 2.31 0.16
-1 1 -12 2.08 0.13
1 -1 12 2.23 0.15
1 -1 12 2.09 0.19
1 -1 12 1.93 0.15
-2 1 -12 21.73 0.63
-2 1 -12 21.75 0.57
-2 1 -12 21.61 0.57
2 -1 12 21.82 0.58
2 -1 12 20.86 0.57
-3 1 -12 0.44 0.09
-3 1 -12 0.24 0.09
-3 1 -12 0.51 0.09
3 -1 12 0.46 0.09
3 -1 12 0.46 0.1
-4 1 -12 3.04 0.23
-4 1 -12 3.52 0.23
4 -1 12 3.51 0.21
4 -1 12 3.68 0.21
-5 1 -12 -0.01 0.07
-5 1 -12 0.03 0.07
5 -1 12 0.02 0.05
5 -1 12 -0.01 0.06
-6 1 -12 0.32 0.12
-6 1 -12 0.05 0.08
6 -1 12 0.18 0.07
6 -1 12 0.18 0.08
-7 1 -12 1.66 0.23
-7 1 -12 1.67 0.2
7 -1 12 1.81 0.2
7 -1 12 2.16 0.23
-8 1 -12 2.21 0.28
-8 1 -12 2.32 0.25
8 -1 12 2.49 0.24
8 -1 12 2.14 0.25
9 0 -12 19.65 0.66
-9 0 12 19.18 0.74
-9 0 12 18.95 0.65
8 0 -12 8.23 0.38
-8 0 12 8.76 0.4
-8 0 12 8.59 0.45
7 0 -12 3.82 0.25
7 0 -12 4.59 0.29
-7 0 12 4.32 0.27
-7 0 12 4.16 0.3
6 0 -12 1.47 0.19
6 0 -12 1.28 0.16
-6 0 12 1.77 0.2
-6 0 12 1.62 0.2
5 0 -12 0.09 0.08
5 0 -12 0.2 0.08
-5 0 12 0.07 0.07
-5 0 12 0.1 0.07
4 0 -12 0.01 0.06
4 0 -12 -0.06 0.04
-4 0 12 -0.02 0.05
-4 0 12 0.02 0.05
3 0 -12 1.57 0.16
3 0 -12 1.57 0.18
-3 0 12 1.92 0.15
-3 0 12 1.8 0.18
2 0 -12 0.31 0.08
2 0 -12 0.16 0.07
2 0 -12 0.26 0.08
-2 0 12 0.22 0.07
-2 0 12 0.24 0.05
-2 0 12 0.09 0.06
1 0 -12 3.04 0.2
1 0 -12 2.6 0.17
1 0 -12 3.13 0.21
-1 0 12 2.87 0.13
-1 0 12 2.95 0.17
-1 0 12 2.46 0.18
-1 0 12 2.96 0.17
0 0 -12 0.02 0.06
0 0 -12 0.07 0.05
0 0 -12 0.04 0.06
0 0 12 0.01 0.04
0 0 12 0.07 0.04
0 0 12 0.07 0.05
0 0 12 0.05 0.05
-1 0 -12 29.9 0.72
-1 0 -12 30.49 0.76
-1 0 -12 30.6 0.8
1 0 12 31.89 0.78
1 0 12 29.82 0.72
1 0 12 31.48 0.75
-2 0 -12 16.84 0.49
-2 0 -12 16.35 0.53
-2 0 -12 17.14 0.49
2 0 12 16.37 0.48
2 0 12 17.04 0.48
-3 0 -12 10.05 0.4
-3 0 -12 10.35 0.38
-3 0 -12 10.25 0.35
3 0 12 10.46 0.36
3 0 12 9.88 0.35
-4 0 -12 1.32 0.17
-4 0 -12 1.41 0.18
4 0 12 1.32 0.14
4 0 12 1.48 0.16
-5 0 -12 26.2 0.77
-5 0 -12 26.05 0.74
5 0 12 26.25 0.7
5 0 12 26.29 0.72
-6 0 -12 5.88 0.35
-6 0 -12 6.08 0.32
6 0 12 6.6 0.32
6 0 12 6.25 0.3
-7 0 -12 0.73 0.17
-7 0 -12 1.02 0.16
7 0 12 0.66 0.15
7 0 12 0.92 0.14
-8 0 -12 1.41 0.23
-8 0 -12 1.84 0.21
8 0 12 2.21 0.25
8 0 12 1.59 0.19
9 -1 -12 1.69 0.22
-9 1 12 1.4 0.2
-9 1 12 1.28 0.22
8 -1 -12 22.57 0.71
-8 1 12 22.07 0.73
-8 1 12 22.23 0.76
7 -1 -12 0.12 0.08
7 -1 -12 0.22 0.1
-7 1 12 0.18 0.1
-7 1 12 0.19 0.11
6 -1 -12 20.19 0.65
6 -1 -12 21.54 0.64
-6 1 12 19.93 0.65
-6 1 12 20.94 0.66
5 -1 -12 5.66 0.29
5 -1 -12 5.44 0.29
-5 1 12 5.58 0.29
-5 1 12 5.33 0.29
4 -1 -12 0.51 0.11
4 -1 -12 0.72 0.11
-4 1 12 0.61 0.11
-4 1 12 0.68 0.1
-4 1 12 0.56 0.12
3 -1 -12 6.44 0.29
3 -1 -12 6.34 0.31
-3 1 12 6.97 0.28
-3 1 12 7.05 0.32
-3 1 12 6.98 0.24
2 -1 -12 4.42 0.26
2 -1 -12 5.26 0.27
2 -1 -12 4.61 0.23
-2 1 12 4.7 0.22
-2 1 12 4.72 0.23
-2 1 12 4.84 0.19
-2 1 12 4.47 0.24
1 -1 -12 12.25 0.39
1 -1 -12 12.41 0.43
1 -1 -12 11.69 0.43
-1 1 12 11.9 0.35
-1 1 12 12.1 0.36
-1 1 12 11.6 0.38
-1 1 12 12.26 0.42
0 -1 -12 3.91 0.22
0 -1 -12 4.14 0.24
0 1 12 3.65 0.2
0 1 12 3.93 0.18
0 1 12 3.61 0.17
-1 -1 -12 1.12 0.15
-1 -1 -12 0.91 0.12
1 1 12 1.27 0.1
1 1 12 1.31 0.13
1 1 12 1.1 0.12
-2 -1 -12 1.62 0.16
-2 -1 -12 1.65 0.17
-2 -1 -12 1.74 0.17
2 1 12 1.92 0.17
2 1 12 1.82 0.13
-3 -1 -12 0.18 0.07
-3 -1 -12 0.25 0.08
-3 -1 -12 0.2 0.07
3 1 12 0.24 0.07
3 1 12 0.22 0.07
-4 -1 -12 2.69 0.2
-4 -1 -12 2.36 0.23
4 1 12 2.67 0.18
4 1 12 2.43 0.17
-5 -1 -12 0.52 0.13
-5 -1 -12 0.55 0.12
5 1 12 0.59 0.11
5 1 12 0.51 0.1
-6 -1 -12 0.21 0.1
-6 -1 -12 0.18 0.09
6 1 12 0.26 0.08
6 1 12 0.21 0.08
-7 -1 -12 -0.04 0.06
-7 -1 -12 0.08 0.1
7 1 12 -0.04 0.06
7 1 12 0.08 0.06
-8 -1 -12 1.91 0.27
-8 -1 -12 1.29 0.17
8 1 12 1.88 0.2
8 1 12 1.36 0.2
9 -2 -12 2.14 0.27
9 -2 -12 2.5 0.27
-9 2 12 2.62 0.28
8 -2 -12 1.32 0.2
-8 2 12 1.3 0.21
-8 2 12 1.33 0.2
7 -2 -12 1.05 0.16
7 -2 -12 0.72 0.14
-7 2 12 0.98 0.17
-7 2 12 0.89 0.16
6 -2 -12 29.44 0.84
6 -2 -12 29.43 0.81
-6 2 12 28.53 0.81
-6 2 12 29.15 0.85
5 -2 -12 1.61 0.18
5 -2 -12 1.43 0.19
-5 2 12 1.67 0.18
-5 2 12 1.49 0.16
-5 2 12 1.94 0.22
4 -2 -12 11.67 0.45
4 -2 -12 11.56 0.42
-4 2 12 12.07 0.46
-4 2 12 11.17 0.39
-4 2 12 11.32 0.38
3 -2 -12 2.15 0.22
3 -2 -12 2.43 0.2
-3 2 12 2.48 0.23
-3 2 12 2.22 0.15
-3 2 12 2.22 0.15
2 -2 -12 0.27 0.09
2 -2 -12 0.17 0.08
-2 2 12 0.27 0.09
-2 2 12 0.2 0.06
-2 2 12 0.2 0.07
-2 2 12 0.38 0.08
1 -2 -12 0.98 0.15
1 -2 -12 0.73 0.13
-1 2 12 0.72 0.11
-1 2 12 0.78 0.1
-1 2 12 0.92 0.1
0 -2 -12 20 0.59
0 -2 -12 18.35 0.59
0 2 12 19.73 0.55
0 2 12 19.69 0.48
0 2 12 20.12 0.53
-1 -2 -12 49.52 1.16
-1 -2 -12 48.9 1.16
1 2 12 49.54 1.11
1 2 12 50.62 1.12
1 2 12 50.48 1.03
-2 -2 -12 8.8 0.36
-2 -2 -12 8.65 0.34
2 2 12 8.16 0.27
2 2 12 8.06 0.31
2 2 12 8.23 0.33
-3 -2 -12 6.57 0.32
-3 -2 -12 7.06 0.32
-3 -2 -12 7.04 0.31
3 2 12 6.39 0.25
3 2 12 7.47 0.3
-4 -2 -12 58.16 1.36
-4 -2 -12 57.1 1.28
-4 -2 -12 57.31 1.3
4 2 12 57.52 1.26
4 2 12 57.67 1.23
-5 -2 -12 0.44 0.1
-5 -2 -12 0.43 0.12
5 2 12 0.5 0.1
5 2 12 0.54 0.11
-6 -2 -12 2.36 0.27
-6 -2 -12 2.66 0.2
6 2 12 2.78 0.2
-7 -2 -12 6.39 0.39
-7 -2 -12 6.08 0.29
7 2 12 6.13 0.3
-8 -2 -12 3.95 0.38
-8 -2 -12 4.02 0.22
8 2 12 4.08 0.25
-8 3 12 1.01 0.18
7 -3 -12 2.2 0.24
-7 3 12 2.07 0.25
6 -3 -12 11.15 0.46
-6 3 12 10.62 0.48
-6 3 12 11 0.43
5 -3 -12 1.03 0.17
-5 3 12 0.89 0.15
-5 3 12 1.17 0.15
4 -3 -12 1.37 0.19
-4 3 12 1.01 0.14
-4 3 12 0.7 0.13
3 -3 -12 1.26 0.17
3 -3 -12 1.5 0.19
-3 3 12 1.37 0.15
2 -3 -12 7.09 0.34
2 -3 -12 6.53 0.33
-2 3 12 6.46 0.27
-2 3 12 6.24 0.29
1 -3 -12 0.48 0.11
1 -3 -12 0.35 0.1
-1 3 12 0.56 0.11
-1 3 12 0.38 0.08
0 -3 -12 3.8 0.24
0 -3 -12 3.87 0.24
0 3 12 3.93 0.22
0 3 12 3.31 0.2
-1 -3 -12 11.43 0.43
-1 -3 -12 11.91 0.45
1 3 12 11.68 0.41
1 3 12 12.41 0.41
-2 -3 -12 0.04 0.06
-2 -3 -12 0.07 0.07
2 3 12 0 0.06
2 3 12 0.05 0.06
-3 -3 -12 2.88 0.21
-3 -3 -12 2.89 0.21
3 3 12 2.83 0.21
3 3 12 2.8 0.19
-4 -3 -12 19.96 0.6
-4 -3 -12 19.9 0.59
-4 -3 -12 19.36 0.65
4 3 12 20.06 0.57
-5 -3 -12 2.24 0.18
-5 -3 -12 2.11 0.25
5 3 12 2.3 0.2
-6 -3 -12 1.02 0.19
-6 -3 -12 1.08 0.13
6 3 12 1.09 0.14
-7 -3 -12 0.08 0.06
-7 -3 -12 0.04 0.1
7 3 12 0.1 0.07
7 -4 -12 0.24 0.12
-7 4 12 0.42 0.12
6 -4 -12 0.13 0.09
-6 4 12 0.09 0.09
5 -4 -12 0.49 0.13
-5 4 12 0.6 0.12
4 -4 -12 1.34 0.19
-4 4 12 1.49 0.17
3 -4 -12 0.14 0.09
3 -4 -12 0.03 0.08
-3 4 12 0.02 0.05
2 -4 -12 7.94 0.38
2 -4 -12 7.88 0.38
-2 4 12 8.03 0.34
-2 4 12 7.92 0.35
1 -4 -12 14.92 0.55
1 -4 -12 15.63 0.55
-1 4 12 14.97 0.49
-1 4 12 16.43 0.52
0 -4 -12 51.77 1.26
0 -4 -12 53.39 1.3
0 4 12 53.57 1.22
0 4 12 54.97 1.22
-1 -4 -12 0.14 0.08
-1 -4 -12 0.15 0.08
1 4 12 0.12 0.06
1 4 12 0.08 0.07
-2 -4 -12 2.64 0.25
-2 -4 -12 2.51 0.2
2 4 12 2.96 0.21
2 4 12 3.04 0.2
-3 -4 -12 10.41 0.39
-3 -4 -12 9.89 0.42
3 4 12 9.67 0.37
3 4 12 9.28 0.41
-4 -4 -12 2.64 0.22
-4 -4 -12 2.65 0.19
4 4 12 3.05 0.2
4 4 12 2.69 0.26
-5 -4 -12 -0.01 0.05
-5 -4 -12 -0.05 0.09
5 4 12 -0.02 0.05
5 4 12 -0.11 0.08
-6 -4 -12 15.87 0.45
-6 -4 -12 15.97 0.64
6 4 12 16.4 0.52
-7 -4 -12 8.33 0.47
-7 -4 -12 8.61 0.23
7 4 12 8.78 0.36
-7 5 12 0.15 0.1
6 -5 -12 2.25 0.25
-6 5 12 1.65 0.21
5 -5 -12 5.84 0.35
-5 5 12 6.34 0.34
4 -5 -12 0.01 0.08
-4 5 12 0 0.06
3 -5 -12 12.32 0.52
3 -5 -12 13.09 0.53
-3 5 12 13.09 0.48
2 -5 -12 10.44 0.46
2 -5 -12 10.22 0.46
-2 5 12 10.38 0.42
-2 5 12 10.22 0.41
1 -5 -12 0.3 0.11
1 -5 -12 0.32 0.11
-1 5 12 0.5 0.1
-1 5 12 0.42 0.1
0 -5 -12 0.51 0.12
0 -5 -12 0.47 0.13
0 5 12 0.4 0.1
0 5 12 0.4 0.1
-1 -5 -12 5.73 0.31
-1 -5 -12 6.35 0.35
1 5 12 5.59 0.31
1 5 12 6.04 0.3
-2 -5 -12 7.11 0.37
-2 -5 -12 7.42 0.34
2 5 12 7.33 0.33
2 5 12 7.85 0.37
-3 -5 -12 1.14 0.15
-3 -5 -12 1.21 0.19
3 5 12 1.36 0.16
3 5 12 1.2 0.18
-4 -5 -12 0.08 0.06
-4 -5 -12 0.04 0.08
4 5 12 0.13 0.09
4 5 12 0.05 0.06
-5 -5 -12 0.05 0.05
5 5 12 0.1 0.11
5 5 12 0.01 0.06
-6 -5 -12 0.02 0.03
6 5 12 0.12 0.11
6 5 12 -0.06 0.05
6 -6 -12 0.17 0.11
-6 6 12 0.17 0.11
5 -6 -12 -0.07 0.07
-5 6 12 0.07 0.09
4 -6 -12 23.44 0.77
-4 6 12 20.31 0.69
3 -6 -12 5.13 0.35
3 -6 -12 4.9 0.33
-3 6 12 5.65 0.32
2 -6 -12 9.59 0.47
2 -6 -12 9.46 0.46
-2 6 12 10.44 0.44
-2 6 12 9.66 0.43
1 -6 -12 3.05 0.29
1 -6 -12 2.77 0.29
-1 6 12 3.21 0.24
-1 6 12 3.16 0.24
0 -6 -12 3.51 0.26
0 -6 -12 3 0.29
0 6 12 3.56 0.25
0 6 12 3.26 0.25
-1 -6 -12 2.4 0.23
-1 -6 -12 2.73 0.29
1 6 12 2.71 0.24
1 6 12 2.36 0.24
-2 -6 -12 4.81 0.28
-2 -6 -12 5.64 0.35
2 6 12 5.78 0.33
2 6 12 5.27 0.29
-3 -6 -12 2.73 0.2
-3 -6 -12 3.19 0.31
3 6 12 3.15 0.22
3 6 12 2.88 0.29
-4 -6 -12 -0.06 0.07
-4 -6 -12 0.08 0.06
4 6 12 0.02 0.06
4 6 12 0.15 0.1
-5 -6 -12 1.06 0.1
5 6 12 1.11 0.15
5 6 12 1.31 0.21
5 -7 -12 1.31 0.22
-5 7 12 1.58 0.23
4 -7 -12 3.89 0.37
-4 7 12 3.19 0.31
3 -7 -12 1.94 0.27
3 -7 -12 1.99 0.27
-3 7 12 1.54 0.22
2 -7 -12 6.5 0.4
2 -7 -12 6.39 0.39
-2 7 12 7.49 0.39
-2 7 12 6.79 0.37
1 -7 -12 0.46 0.15
1 -7 -12 0.4 0.13
-1 7 12 0.15 0.09
-1 7 12 0.24 0.1
0 -7 -12 0.91 0.17
0 -7 -12 0.82 0.17
0 7 12 0.82 0.16
0 7 12 1.04 0.17
-1 -7 -12 1.37 0.23
-1 -7 -12 1.49 0.2
1 7 12 1.69 0.22
1 7 12 1.47 0.19
-2 -7 -12 0.07 0.11
-2 -7 -12 0.04 0.07
2 7 12 0.04 0.07
2 7 12 -0.02 0.08
-3 -7 -12 0.34 0.14
-3 -7 -12 0.14 0.07
3 7 12 0.07 0.08
3 7 12 0.12 0.1
2 -8 -12 0.06 0.1
2 -8 -12 0.03 0.11
-2 8 12 0 0.07
1 -8 -12 0.35 0.14
1 -8 -12 0.2 0.12
-1 8 12 0.1 0.09
-1 8 12 0.18 0.1
0 -8 -12 2.01 0.24
0 -8 -12 1.8 0.27
0 8 12 1.58 0.21
0 8 12 1.85 0.24
2 9 -13 0.28 0.11
2 9 -13 0.3 0.13
-2 -9 13 0.35 0.1
-2 -9 13 0.28 0.13
1 9 -13 1.44 0.2
1 9 -13 1.08 0.2
-1 -9 13 1.18 0.18
-1 -9 13 1.23 0.21
0 9 -13 0.18 0.12
0 9 -13 0.09 0.09
0 -9 13 0.18 0.1
0 -9 13 0.03 0.09
-1 9 -13 2.68 0.29
-1 9 -13 2.84 0.28
1 -9 13 3.29 0.32
1 -9 13 2.48 0.28
2 -9 13 0.79 0.17
2 -9 13 0.67 0.15
4 8 -13 0.46 0.11
4 8 -13 0.85 0.19
-4 -8 13 0.72 0.18
-4 -8 13 0.66 0.11
3 8 -13 1.28 0.21
3 8 -13 1.67 0.19
-3 -8 13 1.43 0.16
-3 -8 13 1.13 0.2
2 8 -13 0.68 0.13
2 8 -13 0.94 0.18
-2 -8 13 1 0.15
-2 -8 13 0.69 0.17
1 8 -13 0.07 0.08
1 8 -13 -0.05 0.08
-1 -8 13 0.04 0.09
-1 -8 13 0 0.07
0 8 -13 0.17 0.1
0 8 -13 0.11 0.09
0 -8 13 0.18 0.1
0 -8 13 0.04 0.07
-1 8 -13 0.27 0.11
-1 8 -13 0.26 0.11
1 -8 13 0.11 0.1
1 -8 13 0.15 0.1
2 -8 13 4.48 0.31
2 -8 13 4.33 0.31
3 -8 13 1.22 0.19
3 -8 13 1.33 0.21
4 -8 13 0.11 0.1
6 7 -13 0.06 0.12
6 7 -13 0.15 0.08
-6 -7 13 0.18 0.04
-6 -7 13 0.25 0.14
5 7 -13 2.39 0.28
5 7 -13 2.71 0.21
-5 -7 13 2.71 0.31
-5 -7 13 2.66 0.17
4 7 -13 1.17 0.15
4 7 -13 1.42 0.22
-4 -7 13 1.27 0.21
-4 -7 13 1.12 0.14
3 7 -13 3.23 0.32
3 7 -13 3.23 0.22
-3 -7 13 3.2 0.27
-3 -7 13 3.14 0.21
2 7 -13 3.74 0.24
2 7 -13 3.58 0.28
-2 -7 13 3.42 0.23
-2 -7 13 2.94 0.29
1 7 -13 0 0.07
1 7 -13 0.21 0.1
-1 -7 13 0.08 0.08
-1 -7 13 0.09 0.08
0 7 -13 0.15 0.09
0 7 -13 -0.06 0.08
0 -7 13 0.13 0.09
0 -7 13 0.12 0.09
-1 7 -13 -0.03 0.06
-1 7 -13 0.04 0.08
1 -7 13 0 0.07
1 -7 13 0.01 0.08
-2 7 -13 0.69 0.14
2 -7 13 0.38 0.12
2 -7 13 0.53 0.13
3 -7 13 2.09 0.24
3 -7 13 1.92 0.25
4 -7 13 10.49 0.47
5 -7 13 0.81 0.17
6 -7 13 1.48 0.23
7 6 -13 1.45 0.24
7 6 -13 1.38 0.17
-7 -6 13 1.72 0.26
6 6 -13 7.07 0.33
6 6 -13 7.01 0.41
-6 -6 13 7.68 0.46
-6 -6 13 7.16 0.26
5 6 -13 1.1 0.15
5 6 -13 1.26 0.2
-5 -6 13 1.16 0.13
-5 -6 13 0.88 0.18
4 6 -13 -0.06 0.07
4 6 -13 -0.05 0.06
-4 -6 13 0 0.05
-4 -6 13 0.05 0.08
3 6 -13 1.3 0.16
3 6 -13 1.19 0.19
-3 -6 13 0.64 0.15
-3 -6 13 0.96 0.14
2 6 -13 -0.07 0.05
2 6 -13 0.04 0.08
-2 -6 13 0.04 0.06
-2 -6 13 -0.06 0.05
1 6 -13 1.1 0.15
1 6 -13 1.69 0.2
-1 -6 13 1.53 0.18
-1 -6 13 1.68 0.21
0 6 -13 0.46 0.11
0 6 -13 0.27 0.11
0 -6 13 0.19 0.09
0 -6 13 0.45 0.12
-1 6 -13 0.88 0.15
-1 6 -13 0.49 0.12
1 -6 13 0.46 0.12
1 -6 13 0.44 0.11
-2 6 -13 4.23 0.26
2 -6 13 4.09 0.28
2 -6 13 4.04 0.27
3 -6 13 2.26 0.24
4 -6 13 6.17 0.35
5 -6 13 9.78 0.46
-6 6 -13 5.68 0.39
6 -6 13 6.27 0.38
7 5 -13 0.07 0.07
7 5 -13 0.05 0.09
-7 -5 13 0.25 0.12
-7 -5 13 0.04 0.05
6 5 -13 1.7 0.24
6 5 -13 1.47 0.18
-6 -5 13 1.63 0.16
-6 -5 13 1.82 0.25
5 5 -13 0.18 0.11
5 5 -13 0.31 0.09
-5 -5 13 0.32 0.12
-5 -5 13 0.25 0.07
4 5 -13 -0.09 0.08
4 5 -13 0.1 0.07
-4 -5 13 -0.03 0.06
-4 -5 13 0.01 0.05
3 5 -13 8.62 0.35
3 5 -13 7.41 0.38
-3 -5 13 8.84 0.35
-3 -5 13 8.42 0.4
2 5 -13 19.93 0.58
2 5 -13 19.1 0.63
-2 -5 13 18.78 0.63
-2 -5 13 18.43 0.57
1 5 -13 1.48 0.17
1 5 -13 1.44 0.19
-1 -5 13 1.26 0.16
-1 -5 13 1.57 0.19
0 5 -13 7.61 0.33
0 5 -13 7.26 0.35
0 -5 13 7.89 0.35
0 -5 13 6.96 0.34
-1 5 -13 0.73 0.13
-1 5 -13 0.7 0.13
1 -5 13 0.39 0.1
1 -5 13 0.65 0.13
-2 5 -13 0.18 0.08
2 -5 13 0.48 0.12
2 -5 13 0.18 0.09
3 -5 13 0.67 0.14
-4 5 -13 2.1 0.23
4 -5 13 1.98 0.22
-5 5 -13 1.49 0.2
5 -5 13 1.69 0.21
-6 5 -13 0.03 0.09
6 -5 13 -0.02 0.09
-7 5 -13 3.48 0.34
7 -5 13 3.04 0.3
8 4 -13 2.37 0.28
8 4 -13 2.28 0.22
-8 -4 13 2.35 0.16
-8 -4 13 1.7 0.27
7 4 -13 15.4 0.52
7 4 -13 15.88 0.61
-7 -4 13 15.83 0.66
-7 -4 13 15.97 0.48
6 4 -13 1.39 0.2
6 4 -13 1.35 0.17
-6 -4 13 1.1 0.2
-6 -4 13 1.18 0.14
5 4 -13 11.39 0.48
5 4 -13 11.55 0.41
-5 -4 13 10.41 0.39
-5 -4 13 10.24 0.48
4 4 -13 3.38 0.26
4 4 -13 3.55 0.22
-4 -4 13 3.48 0.21
-4 -4 13 3.4 0.26
3 4 -13 0.53 0.12
3 4 -13 1 0.14
-3 -4 13 0.77 0.15
-3 -4 13 0.64 0.11
2 4 -13 0.52 0.12
2 4 -13 0.44 0.1
-2 -4 13 0.33 0.1
-2 -4 13 0.4 0.1
1 4 -13 7 0.34
1 4 -13 7.43 0.31
-1 -4 13 8.07 0.35
-1 -4 13 7.32 0.33
0 4 -13 0.25 0.1
0 4 -13 0.4 0.09
0 -4 13 0.35 0.09
0 -4 13 0.33 0.1
-1 4 -13 2.72 0.19
-1 4 -13 2.57 0.19
1 -4 13 2.66 0.21
1 -4 13 2.37 0.2
-2 4 -13 1.45 0.16
2 -4 13 1.31 0.16
2 -4 13 1.71 0.19
-3 4 -13 45.89 1.05
3 -4 13 44.93 1.11
-4 4 -13 14.66 0.5
-4 4 -13 15.1 0.57
4 -4 13 14.21 0.52
-5 4 -13 4.57 0.29
-5 4 -13 4.14 0.3
5 -4 13 4.37 0.29
-6 4 -13 0.23 0.11
-6 4 -13 0.43 0.13
6 -4 13 0.3 0.12
-7 4 -13 5.64 0.38
-7 4 -13 5.59 0.36
7 -4 13 5.6 0.35
8 3 -13 0.11 0.12
8 3 -13 0.41 0.11
-8 -3 13 0.36 0.15
-8 -3 13 0.37 0.1
7 3 -13 6.9 0.32
7 3 -13 6.44 0.38
-7 -3 13 6.66 0.41
-7 -3 13 6.39 0.3
6 3 -13 20.67 0.68
6 3 -13 19.66 0.6
-6 -3 13 20.07 0.59
-6 -3 13 20.38 0.72
5 3 -13 3.82 0.23
5 3 -13 3.52 0.26
-5 -3 13 3.18 0.25
-5 -3 13 3.43 0.22
4 3 -13 4.96 0.3
4 3 -13 4.99 0.26
-4 -3 13 5.13 0.26
-4 -3 13 5.06 0.3
3 3 -13 2.91 0.2
3 3 -13 3.31 0.23
-3 -3 13 3.71 0.24
-3 -3 13 3.38 0.21
2 3 -13 44.78 1.09
2 3 -13 45.02 1.03
-2 -3 13 43.92 1.09
-2 -3 13 44.77 1.05
1 3 -13 1.12 0.15
1 3 -13 1.52 0.15
-1 -3 13 1.63 0.17
-1 -3 13 1.22 0.16
0 3 -13 4.19 0.24
0 3 -13 4.06 0.23
0 -3 13 3.88 0.23
0 -3 13 3.98 0.23
-1 3 -13 37.7 0.91
-1 3 -13 38.26 0.91
-1 3 -13 38.24 0.97
1 -3 13 36.64 0.94
1 -3 13 37.79 0.93
-2 3 -13 0.32 0.09
-2 3 -13 0.22 0.07
-2 3 -13 0.35 0.1
2 -3 13 0.16 0.07
2 -3 13 0.04 0.06
-3 3 -13 1.5 0.16
-3 3 -13 1.08 0.17
-3 3 -13 1.18 0.14
3 -3 13 1.15 0.15
3 -3 13 1.41 0.17
-4 3 -13 -0.02 0.08
-4 3 -13 -0.05 0.05
-4 3 -13 -0.01 0.06
4 -3 13 0 0.06
4 -3 13 0.01 0.06
-5 3 -13 1.29 0.2
-5 3 -13 1.29 0.18
5 -3 13 1.4 0.19
5 -3 13 1.09 0.16
-6 3 -13 0.26 0.12
-6 3 -13 0.02 0.08
6 -3 13 0.17 0.08
6 -3 13 0.29 0.11
-7 3 -13 0.07 0.09
-7 3 -13 0.02 0.1
-7 3 -13 -0.07 0.09
7 -3 13 0.02 0.07
7 -3 13 0 0.07
-8 3 -13 0.13 0.11
-8 3 -13 0.18 0.11
8 -3 13 0 0.08
8 -3 13 0.08 0.11
8 2 -13 5.6 0.36
8 2 -13 6.48 0.34
-8 -2 13 6.68 0.42
-8 -2 13 6.44 0.31
7 2 -13 0.39 0.14
7 2 -13 0.28 0.1
-7 -2 13 0.46 0.14
-7 -2 13 0.5 0.11
6 2 -13 13.96 0.54
6 2 -13 14.35 0.49
-6 -2 13 14.12 0.56
-6 -2 13 14.2 0.49
5 2 -13 0.25 0.09
5 2 -13 0.28 0.11
-5 -2 13 0.37 0.09
-5 -2 13 0.27 0.1
4 2 -13 12.14 0.47
4 2 -13 12.27 0.42
-4 -2 13 12.84 0.44
-4 -2 13 11.89 0.46
3 2 -13 0.48 0.12
3 2 -13 0.49 0.1
-3 -2 13 0.48 0.1
-3 -2 13 0.64 0.12
2 2 -13 0.47 0.11
2 2 -13 0.38 0.09
-2 -2 13 0.33 0.09
-2 -2 13 0.48 0.1
1 2 -13 17.35 0.51
1 2 -13 16.49 0.53
-1 -2 13 18.16 0.54
-1 -2 13 17.38 0.53
0 2 -13 71.06 1.5
0 2 -13 71.3 1.53
0 2 -13 69.35 1.55
0 -2 13 70.91 1.51
0 -2 13 69 1.52
-1 2 -13 0.12 0.05
-1 2 -13 0.12 0.07
-1 2 -13 0.13 0.07
-1 2 -13 0.08 0.06
1 -2 13 0.18 0.07
1 -2 13 0.08 0.06
1 -2 13 0.2 0.08
-2 2 -13 69.58 1.45
-2 2 -13 68.91 1.56
-2 2 -13 71.41 1.49
2 -2 13 71.62 1.5
2 -2 13 69.46 1.51
-3 2 -13 12.78 0.4
-3 2 -13 12.21 0.42
-3 2 -13 12.47 0.48
3 -2 13 13.6 0.45
3 -2 13 13.2 0.43
-4 2 -13 0.45 0.11
-4 2 -13 0.29 0.1
4 -2 13 0.24 0.08
4 -2 13 0.28 0.1
-5 2 -13 5.21 0.31
-5 2 -13 4.56 0.29
5 -2 13 4.46 0.26
5 -2 13 4.58 0.28
-6 2 -13 17.51 0.63
-6 2 -13 17.62 0.64
6 -2 13 18.01 0.61
6 -2 13 18.16 0.59
-7 2 -13 -0.03 0.08
-7 2 -13 0.02 0.09
7 -2 13 0.06 0.08
7 -2 13 -0.02 0.06
-8 2 -13 2.57 0.28
-8 2 -13 2.87 0.34
8 -2 13 3.29 0.3
8 -2 13 3.15 0.31
9 1 -13 1.35 0.19
-9 -1 13 1.43 0.24
-9 -1 13 1.51 0.19
8 1 -13 10.9 0.48
8 1 -13 11.08 0.45
-8 -1 13 10.31 0.52
-8 -1 13 10.19 0.43
7 1 -13 10.67 0.47
7 1 -13 10.83 0.43
-7 -1 13 10.48 0.43
-7 -1 13 11.81 0.52
6 1 -13 0.91 0.15
6 1 -13 1.11 0.18
-6 -1 13 0.65 0.12
-6 -1 13 0.73 0.15
5 1 -13 0.35 0.1
5 1 -13 0.31 0.12
-5 -1 13 0.45 0.11
-5 -1 13 0.42 0.11
4 1 -13 5.31 0.3
4 1 -13 5.05 0.26
-4 -1 13 4.81 0.27
-4 -1 13 5.32 0.29
3 1 -13 1.19 0.15
3 1 -13 1.16 0.16
-3 -1 13 0.98 0.14
-3 -1 13 1.11 0.15
2 1 -13 0.54 0.1
2 1 -13 0.53 0.12
-2 -1 13 0.55 0.11
-2 -1 13 0.44 0.1
1 1 -13 7.18 0.3
1 1 -13 7.49 0.34
-1 -1 13 7.44 0.3
-1 -1 13 7.09 0.31
0 1 -13 10.22 0.38
0 1 -13 10.55 0.36
0 1 -13 9.28 0.39
0 -1 13 10.07 0.36
0 -1 13 10.29 0.35
0 -1 13 10.22 0.29
-1 1 -13 1.85 0.13
-1 1 -13 1.86 0.18
-1 1 -13 2.09 0.21
1 -1 13 2.01 0.15
1 -1 13 1.96 0.19
1 -1 13 2.03 0.15
-2 1 -13 1.6 0.18
-2 1 -13 1.67 0.16
-2 1 -13 1.99 0.16
2 -1 13 2.02 0.16
2 -1 13 1.78 0.17
-3 1 -13 0.53 0.1
-3 1 -13 0.49 0.11
-3 1 -13 0.37 0.1
3 -1 13 0.77 0.12
3 -1 13 0.57 0.11
-4 1 -13 0.29 0.1
-4 1 -13 0.24 0.09
4 -1 13 0.3 0.09
4 -1 13 0.47 0.11
-5 1 -13 6.66 0.35
-5 1 -13 7.12 0.36
5 -1 13 6.51 0.31
5 -1 13 7.06 0.33
-6 1 -13 3.09 0.3
-6 1 -13 3.33 0.26
6 -1 13 3.13 0.24
6 -1 13 2.96 0.22
-7 1 -13 0.98 0.19
-7 1 -13 0.85 0.16
7 -1 13 1.1 0.18
7 -1 13 0.8 0.14
-8 1 -13 0.15 0.12
-8 1 -13 0.03 0.08
8 -1 13 0.03 0.09
8 -1 13 0.13 0.08
9 0 -13 2.06 0.24
-9 0 13 2.62 0.32
-9 0 13 2.02 0.23
8 0 -13 0.14 0.1
-8 0 13 0.09 0.11
-8 0 13 0.07 0.07
7 0 -13 2.85 0.28
7 0 -13 2.53 0.24
-7 0 13 2.54 0.25
-7 0 13 3.39 0.28
6 0 -13 -0.06 0.06
6 0 -13 -0.04 0.06
-6 0 13 0.01 0.06
-6 0 13 0.1 0.07
5 0 -13 3.42 0.23
5 0 -13 3.02 0.24
-5 0 13 3.52 0.24
-5 0 13 3.3 0.24
4 0 -13 -0.02 0.07
4 0 -13 0.13 0.07
-4 0 13 -0.02 0.05
-4 0 13 -0.01 0.05
3 0 -13 1.13 0.15
3 0 -13 1.11 0.14
-3 0 13 0.82 0.13
-3 0 13 0.95 0.13
2 0 -13 2.61 0.18
2 0 -13 2.51 0.2
2 0 -13 2.06 0.2
-2 0 13 2.3 0.16
-2 0 13 2.46 0.18
1 0 -13 1.96 0.19
1 0 -13 2.09 0.21
1 0 -13 2.01 0.16
-1 0 13 2 0.15
-1 0 13 2.23 0.12
-1 0 13 1.97 0.19
-1 0 13 1.91 0.15
0 0 -13 0.26 0.08
0 0 -13 0.18 0.08
0 0 13 0.17 0.07
0 0 13 0.27 0.06
0 0 13 0.27 0.08
0 0 13 0.23 0.07
-1 0 -13 23.72 0.7
-1 0 -13 24.53 0.62
-1 0 -13 24.65 0.66
1 0 13 24.34 0.64
1 0 13 24.27 0.62
-2 0 -13 33.79 0.83
-2 0 -13 33.95 0.82
-2 0 -13 33.53 0.88
2 0 13 33.05 0.81
2 0 13 32.42 0.79
-3 0 -13 2.4 0.17
-3 0 -13 2.51 0.21
-3 0 -13 2.17 0.17
3 0 13 2.24 0.16
3 0 13 2.47 0.18
-4 0 -13 1.82 0.2
-4 0 -13 1.73 0.2
4 0 13 2.01 0.18
4 0 13 2.05 0.17
-5 0 -13 10.67 0.44
-5 0 -13 9.84 0.44
5 0 13 10.79 0.4
5 0 13 10.43 0.4
-6 0 -13 0.25 0.12
-6 0 -13 0.37 0.12
6 0 13 0.23 0.09
6 0 13 0.21 0.09
-7 0 -13 -0.05 0.07
-7 0 -13 -0.04 0.09
7 0 13 0.05 0.07
7 0 13 0 0.08
-8 0 -13 10.28 0.45
-8 0 -13 9.9 0.52
8 0 13 11.23 0.45
8 0 13 9.82 0.46
8 -1 -13 0.86 0.16
-8 1 13 0.7 0.15
-8 1 13 0.91 0.18
7 -1 -13 6.62 0.35
7 -1 -13 6.36 0.35
-7 1 13 6.88 0.37
-7 1 13 7.48 0.39
6 -1 -13 3.57 0.26
6 -1 -13 3.81 0.26
-6 1 13 4.02 0.27
-6 1 13 3.36 0.26
5 -1 -13 10.34 0.43
5 -1 -13 10.1 0.41
-5 1 13 10.85 0.44
-5 1 13 10 0.41
4 -1 -13 0.96 0.14
4 -1 -13 0.59 0.13
-4 1 13 0.75 0.12
-4 1 13 0.96 0.15
3 -1 -13 2.6 0.19
3 -1 -13 2.22 0.22
-3 1 13 2.41 0.17
-3 1 13 2.42 0.14
-3 1 13 2.5 0.2
2 -1 -13 9.43 0.4
2 -1 -13 9.55 0.38
2 -1 -13 9.72 0.39
-2 1 13 9.26 0.33
-2 1 13 9.48 0.3
-2 1 13 9.4 0.38
1 -1 -13 46.81 1.11
1 -1 -13 47.84 1.14
-1 1 13 47.59 1.07
-1 1 13 45.55 1.09
-1 1 13 45.04 1.02
-1 1 13 46.97 1
0 -1 -13 17.9 0.56
0 -1 -13 17.77 0.57
0 1 13 17.91 0.52
0 1 13 18.22 0.48
0 1 13 17.59 0.48
-1 -1 -13 1.03 0.13
-1 -1 -13 0.68 0.12
1 1 13 0.96 0.12
1 1 13 0.95 0.11
1 1 13 0.94 0.13
-2 -1 -13 4 0.23
-2 -1 -13 4.45 0.26
-2 -1 -13 4.38 0.24
2 1 13 4.72 0.24
2 1 13 3.87 0.2
-3 -1 -13 4.22 0.25
-3 -1 -13 3.94 0.25
-3 -1 -13 4 0.22
3 1 13 4.37 0.21
3 1 13 4.5 0.23
-4 -1 -13 11.48 0.44
-4 -1 -13 11.67 0.45
4 1 13 11.28 0.39
4 1 13 10.5 0.39
-5 -1 -13 -0.05 0.06
-5 -1 -13 -0.02 0.06
5 1 13 0.03 0.06
5 1 13 -0.01 0.05
-6 -1 -13 0.17 0.09
-6 -1 -13 0.34 0.13
6 1 13 0.26 0.09
6 1 13 0.24 0.09
-7 -1 -13 1.47 0.18
-7 -1 -13 1.59 0.23
7 1 13 1.63 0.2
7 1 13 1.68 0.2
-8 -1 -13 0.22 0.1
-8 -1 -13 0.24 0.15
8 1 13 0.27 0.11
8 1 13 0.36 0.1
-8 2 13 5.63 0.35
-8 2 13 6.02 0.37
7 -2 -13 0.06 0.08
-7 2 13 0.16 0.1
-7 2 13 0.23 0.1
6 -2 -13 0.51 0.14
-6 2 13 0.84 0.16
-6 2 13 0.61 0.13
5 -2 -13 1.05 0.17
-5 2 13 1.2 0.17
-5 2 13 0.88 0.14
4 -2 -13 0.7 0.14
-4 2 13 0.52 0.09
-4 2 13 0.6 0.11
-4 2 13 0.43 0.11
3 -2 -13 1.4 0.18
-3 2 13 1.55 0.15
-3 2 13 1.33 0.14
-3 2 13 1.78 0.2
2 -2 -13 10.23 0.41
2 -2 -13 9.83 0.42
-2 2 13 9.92 0.33
-2 2 13 10.12 0.34
1 -2 -13 0.84 0.14
1 -2 -13 0.52 0.12
-1 2 13 0.83 0.11
-1 2 13 0.67 0.09
-1 2 13 0.7 0.11
0 -2 -13 0.15 0.08
0 -2 -13 0.09 0.07
0 2 13 0.17 0.06
0 2 13 0.11 0.07
-1 -2 -13 0.15 0.08
-1 -2 -13 0.15 0.08
1 2 13 -0.03 0.04
1 2 13 0.05 0.05
-2 -2 -13 64.91 1.44
-2 -2 -13 64.69 1.46
2 2 13 65.44 1.41
2 2 13 64.6 1.43
-3 -2 -13 5.48 0.28
-3 -2 -13 5.52 0.3
-3 -2 -13 5.73 0.3
3 2 13 5.88 0.28
-4 -2 -13 4.2 0.26
-4 -2 -13 4.14 0.27
4 2 13 3.68 0.23
-5 -2 -13 2.43 0.26
-5 -2 -13 2.33 0.22
5 2 13 2.82 0.2
-6 -2 -13 0.14 0.08
-6 -2 -13 -0.11 0.06
6 2 13 0.08 0.07
-7 -2 -13 2.98 0.32
-7 -2 -13 2.98 0.22
7 2 13 3.12 0.23
-8 3 13 0.69 0.17
7 -3 -13 0.19 0.1
-7 3 13 0.11 0.1
6 -3 -13 0.31 0.12
-6 3 13 0.59 0.15
5 -3 -13 1.85 0.23
-5 3 13 1.79 0.19
4 -3 -13 4.53 0.3
-4 3 13 4.55 0.25
3 -3 -13 5.67 0.33
3 -3 -13 4.97 0.3
-3 3 13 5.22 0.25
2 -3 -13 43.53 1.12
2 -3 -13 43.3 1.11
-2 3 13 45.13 1.06
-2 3 13 44.06 1.02
1 -3 -13 0.51 0.12
1 -3 -13 0.5 0.12
-1 3 13 0.48 0.1
-1 3 13 0.63 0.11
0 -3 -13 10.64 0.43
0 -3 -13 9.9 0.42
0 3 13 10.39 0.39
0 3 13 9.88 0.37
-1 -3 -13 0.01 0.07
-1 -3 -13 0.08 0.08
1 3 13 0.03 0.06
1 3 13 0.09 0.07
-2 -3 -13 0.43 0.11
-2 -3 -13 0.37 0.1
2 3 13 0.47 0.11
2 3 13 0.73 0.12
-3 -3 -13 0.16 0.08
-3 -3 -13 0.32 0.09
3 3 13 0.2 0.08
3 3 13 0.07 0.07
-4 -3 -13 6.98 0.33
-4 -3 -13 7.69 0.39
-4 -3 -13 7.51 0.34
4 3 13 6.86 0.31
-5 -3 -13 0.72 0.16
-5 -3 -13 0.55 0.11
5 3 13 0.42 0.1
-6 -3 -13 0.76 0.13
-6 -3 -13 0.65 0.16
6 3 13 0.54 0.11
-7 -3 -13 2.18 0.17
-7 -3 -13 2.36 0.3
7 3 13 2.33 0.23
7 -4 -13 6.05 0.36
6 -4 -13 0.06 0.09
-6 4 13 0.3 0.12
5 -4 -13 1.92 0.23
-5 4 13 1.51 0.19
4 -4 -13 1.58 0.21
-4 4 13 1.33 0.17
3 -4 -13 -0.05 0.08
3 -4 -13 0.12 0.09
-3 4 13 0.22 0.08
2 -4 -13 5.46 0.33
2 -4 -13 6.19 0.34
-2 4 13 5.46 0.28
-2 4 13 5.92 0.3
1 -4 -13 10.05 0.44
1 -4 -13 9.66 0.44
-1 4 13 10.72 0.4
-1 4 13 10.5 0.41
0 -4 -13 2.71 0.26
0 -4 -13 2.59 0.26
0 4 13 2.45 0.19
0 4 13 2.66 0.2
-1 -4 -13 9.11 0.4
-1 -4 -13 8.77 0.41
1 4 13 8 0.36
1 4 13 9.04 0.36
-2 -4 -13 0.87 0.16
-2 -4 -13 0.87 0.14
2 4 13 1.01 0.15
2 4 13 0.95 0.15
-3 -4 -13 5.65 0.3
-3 -4 -13 5.91 0.32
3 4 13 5.71 0.29
3 4 13 5.8 0.32
-4 -4 -13 0 0.06
-4 -4 -13 0.01 0.07
4 4 13 -0.11 0.05
4 4 13 0.03 0.06
-5 -4 -13 6.81 0.31
5 4 13 7.42 0.33
5 4 13 7.28 0.4
-6 -4 -13 0.53 0.1
-6 -4 -13 0.51 0.16
6 4 13 0.75 0.17
6 4 13 0.69 0.13
-7 5 13 1.54 0.22
6 -5 -13 21.78 0.75
-6 5 13 20.61 0.71
5 -5 -13 1.52 0.23
-5 5 13 1.77 0.22
4 -5 -13 1.82 0.24
-4 5 13 1.67 0.2
3 -5 -13 2.41 0.27
3 -5 -13 2.57 0.27
-3 5 13 2.96 0.23
2 -5 -13 1.28 0.2
2 -5 -13 1.01 0.18
-2 5 13 1.09 0.16
-2 5 13 1.01 0.16
1 -5 -13 2.13 0.24
1 -5 -13 2 0.24
-1 5 13 1.97 0.21
-1 5 13 1.88 0.2
0 -5 -13 0.68 0.14
0 -5 -13 0.78 0.16
0 5 13 0.62 0.12
0 5 13 0.97 0.15
-1 -5 -13 2.15 0.22
-1 -5 -13 2.14 0.24
1 5 13 2.3 0.22
1 5 13 1.92 0.21
-2 -5 -13 0.41 0.12
-2 -5 -13 0.24 0.11
2 5 13 0.52 0.11
2 5 13 0.33 0.11
-3 -5 -13 0.42 0.11
-3 -5 -13 0.52 0.14
3 5 13 0.35 0.12
3 5 13 0.5 0.11
-4 -5 -13 0 0.05
-4 -5 -13 -0.02 0.08
4 5 13 0.02 0.08
4 5 13 0.01 0.06
-5 -5 -13 1.09 0.13
5 5 13 1.06 0.15
5 5 13 1.03 0.19
5 -6 -13 0.49 0.15
-5 6 13 0.31 0.12
4 -6 -13 11.78 0.54
-4 6 13 12.66 0.51
3 -6 -13 2.4 0.28
3 -6 -13 2.02 0.26
-3 6 13 2.3 0.24
2 -6 -13 4.6 0.33
2 -6 -13 4.45 0.32
-2 6 13 4.83 0.3
1 -6 -13 0.27 0.11
1 -6 -13 0.56 0.16
-1 6 13 0.71 0.14
-1 6 13 0.5 0.12
0 -6 -13 1.4 0.23
0 -6 -13 1.28 0.19
0 6 13 1.55 0.2
0 6 13 1.84 0.21
-1 -6 -13 1.4 0.22
-1 -6 -13 1.3 0.18
1 6 13 1.55 0.19
1 6 13 1.42 0.19
-2 -6 -13 0.56 0.15
-2 -6 -13 0.41 0.11
2 6 13 0.55 0.13
2 6 13 0.68 0.15
-3 -6 -13 0.89 0.14
-3 -6 -13 1.26 0.21
3 6 13 1.05 0.15
3 6 13 1.11 0.19
-4 -6 -13 5.57 0.27
-4 -6 -13 5.96 0.37
4 6 13 5.54 0.3
4 6 13 5.8 0.37
4 -7 -13 0.15 0.11
-4 7 13 0.34 0.13
3 -7 -13 0.01 0.1
3 -7 -13 0.06 0.11
-3 7 13 0.16 0.11
2 -7 -13 0.93 0.2
2 -7 -13 0.82 0.18
-2 7 13 0.73 0.16
1 -7 -13 0.5 0.15
1 -7 -13 0.38 0.13
-1 7 13 0.4 0.13
-1 7 13 0.45 0.13
0 -7 -13 -0.05 0.09
0 -7 -13 0.04 0.08
0 7 13 -0.06 0.07
0 7 13 0.02 0.08
-1 -7 -13 0.25 0.13
-1 -7 -13 0.37 0.12
1 7 13 0.14 0.1
1 7 13 0.36 0.11
-2 -7 -13 -0.02 0.07
-2 -7 -13 -0.03 0.09
2 7 13 0.18 0.1
2 7 13 0.02 0.07
1 9 -14 0.47 0.13
1 9 -14 1.01 0.2
-1 -9 14 0.72 0.15
-1 -9 14 0.67 0.16
0 9 -14 1.69 0.22
0 9 -14 1.75 0.24
0 -9 14 1.66 0.22
0 -9 14 1.74 0.24
-1 9 -14 -0.07 0.09
1 -9 14 0.08 0.09
1 -9 14 0 0.09
4 8 -14 1.01 0.16
4 8 -14 1.12 0.21
-4 -8 14 1.08 0.14
-4 -8 14 0.66 0.17
3 8 -14 0.06 0.08
3 8 -14 0.21 0.13
-3 -8 14 0.05 0.1
-3 -8 14 0.52 0.12
2 8 -14 1.17 0.2
2 8 -14 1.15 0.17
-2 -8 14 1.38 0.22
-2 -8 14 1.49 0.19
1 8 -14 0.02 0.07
1 8 -14 0.1 0.1
-1 -8 14 0.23 0.12
-1 -8 14 0 0.07
0 8 -14 0.34 0.13
0 8 -14 0.4 0.13
0 -8 14 0.51 0.15
0 -8 14 0.43 0.13
-1 8 -14 1.76 0.23
-1 8 -14 1.43 0.2
1 -8 14 1.54 0.22
1 -8 14 1.76 0.24
2 -8 14 0.52 0.15
2 -8 14 0.23 0.12
3 -8 14 0.14 0.1
4 -8 14 -0.01 0.09
5 7 -14 4.51 0.34
5 7 -14 3.54 0.25
-5 -7 14 4.23 0.34
-5 -7 14 4.11 0.22
4 7 -14 3.19 0.23
4 7 -14 3.06 0.32
-4 -7 14 2.48 0.3
-4 -7 14 3.18 0.21
3 7 -14 1.83 0.2
3 7 -14 2.04 0.26
-3 -7 14 1.5 0.23
-3 -7 14 1.75 0.19
2 7 -14 0.3 0.1
2 7 -14 0.31 0.12
-2 -7 14 0.4 0.11
-2 -7 14 0.45 0.14
1 7 -14 0.23 0.1
1 7 -14 0.37 0.11
-1 -7 14 0.42 0.12
-1 -7 14 0.35 0.11
0 7 -14 6.16 0.33
0 7 -14 5.6 0.33
0 -7 14 5.98 0.34
0 -7 14 5.98 0.35
-1 7 -14 2.48 0.25
-1 7 -14 2.45 0.24
1 -7 14 2.04 0.24
1 -7 14 2.49 0.26
-2 7 -14 3.3 0.25
2 -7 14 3.63 0.28
2 -7 14 3.79 0.29
3 -7 14 11.16 0.49
4 -7 14 9.1 0.45
5 -7 14 1.25 0.21
6 6 -14 1.99 0.21
6 6 -14 2.47 0.29
-6 -6 14 2.39 0.3
-6 -6 14 2.7 0.17
5 6 -14 0.17 0.12
5 6 -14 0.31 0.1
-5 -6 14 0.21 0.11
-5 -6 14 0.24 0.08
4 6 -14 7.64 0.35
4 6 -14 7.39 0.41
-4 -6 14 7.43 0.33
-4 -6 14 8.1 0.43
3 6 -14 0.15 0.08
3 6 -14 0.42 0.13
-3 -6 14 0.24 0.11
-3 -6 14 0.19 0.08
2 6 -14 4.73 0.31
2 6 -14 4.4 0.27
-2 -6 14 4.4 0.3
-2 -6 14 5.55 0.29
1 6 -14 2.7 0.26
1 6 -14 2.36 0.22
-1 -6 14 2.97 0.23
-1 -6 14 3.09 0.29
0 6 -14 0.06 0.08
0 6 -14 0.08 0.07
0 -6 14 0.05 0.08
0 -6 14 0.05 0.08
-1 6 -14 14.04 0.51
-1 6 -14 13.87 0.51
1 -6 14 13.32 0.52
1 -6 14 13.69 0.53
-2 6 -14 7.74 0.36
2 -6 14 6.67 0.37
2 -6 14 7.36 0.37
3 -6 14 0.58 0.14
4 -6 14 1.4 0.2
5 -6 14 1.08 0.19
6 -6 14 12.53 0.55
7 5 -14 4.53 0.34
7 5 -14 3.91 0.26
-7 -5 14 4.28 0.22
-7 -5 14 4.68 0.37
6 5 -14 13.28 0.58
6 5 -14 13.87 0.49
-6 -5 14 13.96 0.61
-6 -5 14 13.33 0.44
5 5 -14 10.97 0.51
5 5 -14 11.28 0.43
-5 -5 14 11.78 0.54
-5 -5 14 11.86 0.42
4 5 -14 0.12 0.08
4 5 -14 0.3 0.13
-4 -5 14 0.12 0.07
-4 -5 14 0.16 0.09
3 5 -14 0.18 0.08
3 5 -14 0.26 0.11
-3 -5 14 0.29 0.11
-3 -5 14 0.22 0.09
2 5 -14 2.95 0.21
2 5 -14 2.92 0.27
-2 -5 14 2.9 0.28
-2 -5 14 2.78 0.21
1 5 -14 2.99 0.23
1 5 -14 2.84 0.24
-1 -5 14 2.53 0.22
-1 -5 14 2.59 0.21
0 5 -14 0.93 0.14
0 5 -14 1.01 0.16
0 -5 14 0.86 0.15
0 -5 14 0.84 0.15
-1 5 -14 20.64 0.65
-1 5 -14 22.09 0.65
1 -5 14 21.19 0.66
1 -5 14 21.51 0.67
-2 5 -14 11.35 0.43
2 -5 14 11.8 0.47
2 -5 14 10.95 0.45
3 -5 14 3.12 0.25
4 -5 14 0.86 0.16
5 -5 14 0.12 0.1
-6 5 -14 0.29 0.13
6 -5 14 0.24 0.11
-7 5 -14 0.15 0.12
7 -5 14 0.17 0.12
7 4 -14 2.31 0.23
7 4 -14 2.13 0.27
-7 -4 14 1.94 0.18
-7 -4 14 2.41 0.3
6 4 -14 2.21 0.25
6 4 -14 2.56 0.23
-6 -4 14 2.51 0.29
-6 -4 14 2.19 0.2
5 4 -14 0.48 0.11
5 4 -14 0.25 0.11
-5 -4 14 0.42 0.1
-5 -4 14 0.38 0.14
4 4 -14 15.86 0.59
4 4 -14 17.09 0.53
-4 -4 14 16.33 0.61
-4 -4 14 16.53 0.53
3 4 -14 1.88 0.19
3 4 -14 1.87 0.22
-3 -4 14 1.83 0.22
-3 -4 14 1.85 0.19
2 4 -14 8.72 0.4
2 4 -14 8.64 0.35
-2 -4 14 7.67 0.37
-2 -4 14 8.15 0.35
1 4 -14 10.97 0.41
1 4 -14 10.87 0.44
-1 -4 14 11.23 0.42
-1 -4 14 10.86 0.43
0 4 -14 2.08 0.22
0 4 -14 2.17 0.2
0 -4 14 1.69 0.19
0 -4 14 2.45 0.2
-1 4 -14 1.3 0.15
-1 4 -14 1.52 0.18
1 -4 14 1.25 0.17
1 -4 14 1.4 0.18
-2 4 -14 1.61 0.17
2 -4 14 1.68 0.2
2 -4 14 1.65 0.19
3 -4 14 0.67 0.14
-4 4 -14 1.02 0.21
-4 4 -14 1.06 0.15
4 -4 14 1.06 0.17
-5 4 -14 1.2 0.18
-5 4 -14 1.27 0.21
5 -4 14 0.93 0.17
-6 4 -14 0.2 0.12
-6 4 -14 0.11 0.1
6 -4 14 0.3 0.13
-7 4 -14 0.96 0.2
-7 4 -14 0.99 0.2
7 -4 14 1.08 0.19
8 3 -14 1.65 0.2
8 3 -14 1.55 0.23
-8 -3 14 1.63 0.18
-8 -3 14 1.25 0.23
7 3 -14 1.84 0.2
7 3 -14 2.57 0.29
-7 -3 14 2.4 0.31
-7 -3 14 2.04 0.2
6 3 -14 1.98 0.25
6 3 -14 1.78 0.19
-6 -3 14 2.11 0.27
-6 -3 14 1.94 0.2
5 3 -14 0.97 0.18
5 3 -14 0.88 0.14
-5 -3 14 1.2 0.16
-5 -3 14 1.05 0.19
4 3 -14 5.18 0.31
4 3 -14 5.49 0.28
-4 -3 14 5.47 0.29
-4 -3 14 5.13 0.31
3 3 -14 26.83 0.72
3 3 -14 27.1 0.78
-3 -3 14 26.24 0.73
-3 -3 14 26.51 0.78
2 3 -14 63.97 1.38
2 3 -14 60.95 1.43
-2 -3 14 60.85 1.39
-2 -3 14 63.75 1.44
1 3 -14 3.34 0.21
1 3 -14 3.36 0.23
-1 -3 14 2.98 0.21
-1 -3 14 3.05 0.22
0 3 -14 44.93 1.08
0 3 -14 44.42 1.05
0 -3 14 44.77 1.07
0 -3 14 43.79 1.08
-1 3 -14 9.33 0.37
1 -3 14 8.29 0.36
1 -3 14 8.91 0.38
-2 3 -14 0.74 0.14
-2 3 -14 0.6 0.12
2 -3 14 0.85 0.14
-3 3 -14 0.21 0.08
-3 3 -14 0.3 0.11
3 -3 14 0.31 0.1
-4 3 -14 0.82 0.17
-4 3 -14 0.94 0.15
4 -3 14 0.83 0.14
-5 3 -14 2.19 0.25
-5 3 -14 1.98 0.23
5 -3 14 1.78 0.21
-6 3 -14 7.91 0.41
-6 3 -14 8.91 0.45
6 -3 14 8.13 0.4
-7 3 -14 -0.02 0.09
-7 3 -14 0.11 0.11
7 -3 14 0.01 0.09
8 2 -14 3.81 0.35
8 2 -14 3.7 0.27
-8 -2 14 4.15 0.35
-8 -2 14 3.72 0.25
7 2 -14 6.06 0.32
7 2 -14 6.31 0.38
-7 -2 14 5.87 0.39
-7 -2 14 5.92 0.31
6 2 -14 1.95 0.2
6 2 -14 2.61 0.27
-6 -2 14 2.12 0.26
-6 -2 14 1.88 0.2
5 2 -14 0.39 0.13
5 2 -14 0.55 0.11
-5 -2 14 0.38 0.1
-5 -2 14 0.65 0.14
4 2 -14 3.85 0.24
4 2 -14 3.65 0.26
-4 -2 14 3.46 0.25
-4 -2 14 3.86 0.24
3 2 -14 1.18 0.14
3 2 -14 0.88 0.15
-3 -2 14 0.98 0.15
-3 -2 14 1.22 0.15
2 2 -14 1.46 0.16
2 2 -14 1.1 0.16
-2 -2 14 1.15 0.16
-2 -2 14 1.1 0.15
1 2 -14 1.6 0.16
1 2 -14 1.57 0.19
-1 -2 14 1.66 0.17
-1 -2 14 1.27 0.15
0 2 -14 7.17 0.33
0 2 -14 6.92 0.3
0 -2 14 6.54 0.3
0 -2 14 6.37 0.31
-1 2 -14 3.47 0.24
-1 2 -14 2.71 0.2
1 -2 14 2.93 0.2
1 -2 14 2.56 0.2
-2 2 -14 0.15 0.08
-2 2 -14 0.23 0.08
-2 2 -14 0.24 0.07
2 -2 14 0.15 0.07
2 -2 14 0.15 0.06
-3 2 -14 2.68 0.26
-3 2 -14 2.27 0.17
-3 2 -14 2.68 0.19
3 -2 14 2.93 0.2
3 -2 14 2.53 0.19
-4 2 -14 19.34 0.65
-4 2 -14 19.21 0.6
4 -2 14 18.8 0.6
4 -2 14 19.75 0.59
-5 2 -14 1.27 0.19
-5 2 -14 1.26 0.19
5 -2 14 1.11 0.17
5 -2 14 1.39 0.18
-6 2 -14 6.45 0.38
-6 2 -14 7.17 0.39
6 -2 14 7.51 0.37
6 -2 14 6.54 0.34
-7 2 -14 0.58 0.17
-7 2 -14 0.57 0.15
7 -2 14 0.29 0.12
7 -2 14 0.57 0.13
8 1 -14 0.59 0.15
8 1 -14 0.62 0.13
-8 -1 14 0.36 0.11
-8 -1 14 0.64 0.17
7 1 -14 5.36 0.34
7 1 -14 5.51 0.31
-7 -1 14 5.36 0.36
-7 -1 14 5.52 0.31
6 1 -14 2.5 0.26
6 1 -14 2.95 0.26
-6 -1 14 2.2 0.25
-6 -1 14 2.78 0.26
5 1 -14 1.16 0.19
5 1 -14 1.27 0.16
-5 -1 14 1.07 0.17
-5 -1 14 1.42 0.18
4 1 -14 12.85 0.45
4 1 -14 12.69 0.5
-4 -1 14 13.15 0.49
-4 -1 14 12.67 0.47
3 1 -14 6.24 0.29
3 1 -14 6.11 0.33
-3 -1 14 5.9 0.3
-3 -1 14 6.02 0.3
2 1 -14 -0.05 0.06
2 1 -14 0.04 0.05
-2 -1 14 0.04 0.05
-2 -1 14 0.14 0.07
1 1 -14 11.86 0.45
1 1 -14 12.59 0.43
-1 -1 14 12.91 0.43
-1 -1 14 12.43 0.45
0 1 -14 32.06 0.84
0 1 -14 32.72 0.88
0 -1 14 33.32 0.81
0 -1 14 32.64 0.85
-1 1 -14 0.02 0.06
-1 1 -14 -0.02 0.04
-1 1 -14 0.02 0.06
1 -1 14 0 0.05
1 -1 14 0.04 0.05
-2 1 -14 10.58 0.37
-2 1 -14 10.64 0.44
-2 1 -14 10.96 0.39
2 -1 14 10.35 0.38
2 -1 14 10.89 0.39
-3 1 -14 0.84 0.13
-3 1 -14 0.76 0.15
-3 1 -14 0.73 0.11
3 -1 14 0.76 0.12
3 -1 14 0.6 0.12
-4 1 -14 2.27 0.24
-4 1 -14 1.99 0.21
4 -1 14 1.99 0.19
4 -1 14 2.66 0.21
-5 1 -14 -0.07 0.06
-5 1 -14 0 0.08
5 -1 14 0.1 0.08
5 -1 14 0.06 0.07
-6 1 -14 2.09 0.24
-6 1 -14 1.58 0.21
6 -1 14 2.38 0.23
6 -1 14 1.72 0.21
-7 1 -14 0.15 0.11
-7 1 -14 0.1 0.09
7 -1 14 0 0.06
7 -1 14 -0.02 0.07
8 0 -14 15.58 0.59
-8 0 14 17.27 0.68
-8 0 14 15.95 0.6
7 0 -14 3.97 0.28
7 0 -14 4.69 0.31
-7 0 14 4.21 0.29
-7 0 14 4.3 0.31
6 0 -14 0.32 0.11
6 0 -14 0.21 0.09
-6 0 14 0.18 0.09
-6 0 14 0.34 0.12
5 0 -14 10.59 0.45
5 0 -14 10.09 0.42
-5 0 14 11.24 0.45
-5 0 14 10.85 0.45
4 0 -14 -0.04 0.06
4 0 -14 -0.07 0.07
-4 0 14 0 0.05
-4 0 14 -0.04 0.05
3 0 -14 3.7 0.23
3 0 -14 3.09 0.24
-3 0 14 3.65 0.22
-3 0 14 3.62 0.24
2 0 -14 0.91 0.15
2 0 -14 0.76 0.12
-2 0 14 0.39 0.09
-2 0 14 0.66 0.11
1 0 -14 1.22 0.16
1 0 -14 1.32 0.18
-1 0 14 0.98 0.12
-1 0 14 1.06 0.16
-1 0 14 1.25 0.11
0 0 -14 7.33 0.35
0 0 -14 8.18 0.35
0 0 14 8.34 0.33
0 0 14 8.41 0.31
0 0 14 7.89 0.27
-1 0 -14 10.41 0.43
-1 0 -14 9.88 0.39
1 0 14 10.44 0.36
1 0 14 9.78 0.37
1 0 14 10.52 0.34
-2 0 -14 6.34 0.29
-2 0 -14 6.99 0.34
-2 0 -14 6.71 0.3
2 0 14 7.08 0.3
2 0 14 6.37 0.28
-3 0 -14 5.8 0.32
-3 0 -14 5.76 0.27
-3 0 -14 5.41 0.28
3 0 14 5.75 0.27
3 0 14 5.75 0.28
-4 0 -14 -0.04 0.06
-4 0 -14 -0.03 0.06
4 0 14 0.04 0.06
4 0 14 -0.03 0.06
-5 0 -14 10.63 0.47
-5 0 -14 11.44 0.47
5 0 14 10.92 0.42
5 0 14 11.16 0.42
-6 0 -14 0.79 0.15
-6 0 -14 1.21 0.2
6 0 14 0.64 0.12
6 0 14 0.5 0.13
-7 0 -14 4.14 0.29
-7 0 -14 4.21 0.33
7 0 14 4.22 0.27
7 0 14 4.14 0.29
8 -1 -14 6.68 0.37
-8 1 14 6.69 0.38
-8 1 14 6.86 0.41
7 -1 -14 0.18 0.1
7 -1 -14 0.38 0.13
-7 1 14 0.21 0.11
-7 1 14 0.22 0.11
6 -1 -14 1.99 0.23
6 -1 -14 1.56 0.19
-6 1 14 1.86 0.22
-6 1 14 1.81 0.21
5 -1 -14 6.61 0.33
5 -1 -14 6.15 0.34
-5 1 14 6.9 0.34
-5 1 14 6.46 0.35
4 -1 -14 15.04 0.52
4 -1 -14 15.68 0.56
-4 1 14 15.35 0.51
-4 1 14 16.61 0.57
3 -1 -14 0.11 0.08
-3 1 14 0.19 0.07
-3 1 14 0.41 0.1
2 -1 -14 2.18 0.22
2 -1 -14 2.05 0.23
-2 1 14 1.79 0.15
-2 1 14 1.99 0.21
-2 1 14 1.68 0.12
1 -1 -14 0.18 0.09
1 -1 -14 0.38 0.11
-1 1 14 0.46 0.09
-1 1 14 0.28 0.07
-1 1 14 0.26 0.06
0 -1 -14 30.25 0.83
0 -1 -14 31.16 0.86
0 1 14 30.79 0.74
0 1 14 31.77 0.75
0 1 14 31.69 0.8
-1 -1 -14 5.38 0.3
-1 -1 -14 5.21 0.28
1 1 14 5.5 0.25
1 1 14 5.69 0.24
1 1 14 5.43 0.27
-2 -1 -14 0.73 0.13
-2 -1 -14 0.9 0.15
-2 -1 -14 0.72 0.13
2 1 14 0.79 0.12
2 1 14 0.88 0.11
-3 -1 -14 3.89 0.23
-3 -1 -14 3.77 0.26
-3 -1 -14 3.91 0.24
3 1 14 3.86 0.21
3 1 14 4.11 0.24
-4 -1 -14 0.42 0.12
-4 -1 -14 0.39 0.12
4 1 14 0.29 0.09
4 1 14 0.3 0.09
-5 -1 -14 1.5 0.2
-5 -1 -14 1.41 0.19
5 1 14 1.08 0.15
5 1 14 1.39 0.17
-6 -1 -14 1.79 0.21
-6 -1 -14 2.12 0.26
6 1 14 1.68 0.19
6 1 14 1.65 0.19
-7 -1 -14 3.52 0.35
-7 -1 -14 4.16 0.28
7 1 14 3.08 0.24
-8 2 14 -0.02 0.08
7 -2 -14 1.15 0.19
-7 2 14 1.69 0.23
6 -2 -14 0.49 0.14
-6 2 14 0.83 0.17
5 -2 -14 0.31 0.12
-5 2 14 0.39 0.11
4 -2 -14 2.35 0.25
-4 2 14 2.85 0.27
3 -2 -14 11.34 0.47
-3 2 14 11.2 0.38
2 -2 -14 22.98 0.71
2 -2 -14 23 0.72
-2 2 14 23.15 0.61
1 -2 -14 7.46 0.37
1 -2 -14 9.06 0.39
-1 2 14 7.52 0.29
-1 2 14 7.07 0.32
0 -2 -14 0.08 0.08
0 -2 -14 0.22 0.09
0 2 14 0.14 0.07
0 2 14 0.12 0.06
-1 -2 -14 -0.04 0.06
-1 -2 -14 0.01 0.06
1 2 14 -0.05 0.05
1 2 14 -0.02 0.06
-2 -2 -14 0.75 0.14
-2 -2 -14 0.64 0.13
2 2 14 0.72 0.12
2 2 14 0.87 0.14
-3 -2 -14 3.48 0.24
-3 -2 -14 3.8 0.25
-3 -2 -14 4.38 0.27
3 2 14 4.25 0.24
-4 -2 -14 0.06 0.07
-4 -2 -14 0.1 0.08
4 2 14 -0.05 0.05
-5 -2 -14 4.77 0.32
-5 -2 -14 5.11 0.3
5 2 14 4.92 0.27
5 2 14 5.2 0.28
-6 -2 -14 7.77 0.36
-6 -2 -14 7.75 0.42
6 2 14 7.96 0.36
-7 -2 -14 0.17 0.09
-7 -2 -14 0.22 0.13
7 2 14 0.15 0.09
7 -3 -14 1.12 0.2
-7 3 14 1.04 0.19
6 -3 -14 1.32 0.2
5 -3 -14 1.57 0.21
4 -3 -14 11.33 0.49
-4 3 14 12.19 0.43
3 -3 -14 8.8 0.42
-3 3 14 8.79 0.35
2 -3 -14 0.22 0.1
2 -3 -14 0.34 0.11
-2 3 14 0.26 0.07
1 -3 -14 -0.03 0.07
1 -3 -14 -0.01 0.07
-1 3 14 0.08 0.06
-1 3 14 0.02 0.06
0 -3 -14 -0.01 0.07
0 -3 -14 -0.01 0.06
0 3 14 0.02 0.06
0 3 14 0.08 0.06
-1 -3 -14 3.85 0.26
-1 -3 -14 4.6 0.29
1 3 14 4.24 0.24
1 3 14 4.38 0.25
-2 -3 -14 0.02 0.08
-2 -3 -14 0.1 0.08
2 3 14 0.12 0.07
2 3 14 -0.06 0.06
-3 -3 -14 10.51 0.43
-3 -3 -14 9.49 0.41
3 3 14 10.18 0.43
3 3 14 9.92 0.39
-4 -3 -14 0.98 0.15
4 3 14 0.8 0.16
4 3 14 0.89 0.14
-5 -3 -14 0.02 0.06
-5 -3 -14 0.07 0.09
5 3 14 -0.06 0.05
-6 -3 -14 0.15 0.08
-6 -3 -14 0.11 0.1
6 3 14 0.17 0.09
7 -4 -14 0.38 0.14
6 -4 -14 0.86 0.18
5 -4 -14 0.37 0.12
-5 4 14 0.32 0.11
4 -4 -14 13.17 0.54
-4 4 14 13.33 0.48
3 -4 -14 4.35 0.3
-3 4 14 4.61 0.26
2 -4 -14 0.05 0.09
2 -4 -14 0.22 0.1
-2 4 14 0.27 0.09
1 -4 -14 0.03 0.07
1 -4 -14 0.11 0.09
-1 4 14 0.12 0.07
-1 4 14 0.02 0.06
0 -4 -14 3.29 0.26
0 -4 -14 2.99 0.24
0 4 14 2.89 0.21
0 4 14 2.78 0.22
-1 -4 -14 8.27 0.39
-1 -4 -14 8.19 0.4
1 4 14 8.23 0.36
1 4 14 8 0.36
-2 -4 -14 9.55 0.42
-2 -4 -14 9.6 0.43
2 4 14 8.85 0.38
2 4 14 9.39 0.41
-3 -4 -14 1.31 0.19
-3 -4 -14 1.04 0.16
3 4 14 1.06 0.16
3 4 14 0.74 0.15
-4 -4 -14 3.25 0.23
4 4 14 3.19 0.26
4 4 14 3.23 0.23
-5 -4 -14 6.01 0.3
5 4 14 5.13 0.29
5 4 14 5.45 0.35
-6 -4 -14 0.18 0.08
6 4 14 0.08 0.08
6 4 14 0.34 0.13
6 -5 -14 6.53 0.41
-6 5 14 6.77 0.38
5 -5 -14 1.97 0.26
-5 5 14 1.6 0.21
4 -5 -14 2.39 0.27
-4 5 14 3.03 0.23
3 -5 -14 1.51 0.23
3 -5 -14 1.63 0.24
-3 5 14 1.62 0.2
2 -5 -14 0.82 0.18
2 -5 -14 0.84 0.16
-2 5 14 1.15 0.17
1 -5 -14 0.64 0.16
1 -5 -14 0.5 0.14
-1 5 14 0.7 0.13
-1 5 14 0.46 0.12
0 -5 -14 0.06 0.09
0 -5 -14 0.02 0.08
0 5 14 -0.02 0.06
0 5 14 0.04 0.07
-1 -5 -14 5.81 0.34
-1 -5 -14 5.89 0.36
1 5 14 6.09 0.32
1 5 14 5.86 0.32
-2 -5 -14 4.04 0.27
-2 -5 -14 3.89 0.29
2 5 14 3.45 0.26
2 5 14 4.25 0.26
-3 -5 -14 0.08 0.09
-3 -5 -14 0.19 0.08
3 5 14 0.04 0.07
3 5 14 -0.01 0.06
-4 -5 -14 0.23 0.09
4 5 14 0.42 0.14
4 5 14 0.32 0.1
-5 -5 -14 1.04 0.14
5 5 14 1 0.15
5 5 14 1.39 0.22
5 -6 -14 1.59 0.25
-5 6 14 1.69 0.24
4 -6 -14 1.21 0.22
-4 6 14 1.32 0.2
3 -6 -14 0.06 0.1
3 -6 -14 -0.04 0.1
-3 6 14 0.04 0.08
2 -6 -14 0.91 0.19
2 -6 -14 1.26 0.2
-2 6 14 1.01 0.17
1 -6 -14 2.22 0.28
1 -6 -14 2.03 0.25
-1 6 14 1.74 0.22
-1 6 14 1.95 0.22
0 -6 -14 0.84 0.16
0 -6 -14 0.96 0.2
0 6 14 1 0.17
0 6 14 0.86 0.16
-1 -6 -14 5.44 0.37
-1 -6 -14 5.49 0.33
1 6 14 5.83 0.33
1 6 14 6.05 0.34
-2 -6 -14 0.17 0.09
-2 -6 -14 0.15 0.11
2 6 14 0.38 0.12
2 6 14 0.15 0.1
-3 -6 -14 10.41 0.43
-3 -6 -14 11.14 0.53
3 6 14 11.08 0.45
3 6 14 11.81 0.52
3 -7 -14 0.4 0.15
3 -7 -14 0.65 0.18
-3 7 14 0.49 0.15
2 -7 -14 0.31 0.13
2 -7 -14 0.41 0.16
-2 7 14 0.63 0.16
1 -7 -14 0.66 0.17
1 -7 -14 0.47 0.16
-1 7 14 1.05 0.19
-1 7 14 0.84 0.17
0 -7 -14 2.54 0.3
0 -7 -14 2.7 0.28
0 7 14 2.56 0.28
0 7 14 2.54 0.26
-1 -7 -14 2.31 0.25
-1 -7 -14 2.86 0.33
1 7 14 1.94 0.24
1 7 14 1.94 0.23
3 8 -15 0.07 0.12
3 8 -15 0.06 0.08
-3 -8 15 -0.02 0.09
-3 -8 15 0.01 0.06
2 8 -15 3.27 0.33
2 8 -15 3.29 0.26
-2 -8 15 3.31 0.26
-2 -8 15 2.89 0.31
1 8 -15 1.13 0.2
1 8 -15 1.46 0.2
-1 -8 15 1.5 0.23
-1 -8 15 1.11 0.18
0 8 -15 0.81 0.16
0 8 -15 0.71 0.16
0 -8 15 0.74 0.18
0 -8 15 0.62 0.15
-1 8 -15 4.12 0.31
1 -8 15 3.88 0.3
1 -8 15 4.08 0.31
2 -8 15 7.09 0.41
2 -8 15 7.19 0.42
3 -8 15 2.63 0.29
5 7 -15 1.18 0.23
5 7 -15 0.98 0.16
-5 -7 15 1.05 0.21
-5 -7 15 0.75 0.12
4 7 -15 0.53 0.16
4 7 -15 0.81 0.15
-4 -7 15 0.62 0.12
-4 -7 15 0.54 0.16
3 7 -15 0.05 0.07
3 7 -15 -0.13 0.07
-3 -7 15 0.13 0.08
-3 -7 15 0.11 0.1
2 7 -15 1.44 0.19
2 7 -15 1.68 0.24
-2 -7 15 1.36 0.22
-2 -7 15 1.87 0.22
1 7 -15 17.39 0.65
1 7 -15 17.21 0.59
-1 -7 15 17.46 0.6
-1 -7 15 17.19 0.65
0 7 -15 5.93 0.33
0 7 -15 5.81 0.35
0 -7 15 5.61 0.34
0 -7 15 5.54 0.34
-1 7 -15 0.04 0.08
1 -7 15 0.01 0.08
1 -7 15 0.04 0.08
2 -7 15 -0.03 0.08
2 -7 15 -0.07 0.07
3 -7 15 0.58 0.15
4 -7 15 11.28 0.52
6 6 -15 3.79 0.26
6 6 -15 3.9 0.38
-6 -6 15 4.01 0.22
-6 -6 15 3.6 0.38
5 6 -15 4.79 0.35
5 6 -15 5.26 0.3
-5 -6 15 5 0.36
-5 -6 15 4.85 0.27
4 6 -15 0.9 0.15
4 6 -15 0.67 0.17
-4 -6 15 0.86 0.18
-4 -6 15 0.98 0.15
3 6 -15 0.8 0.15
3 6 -15 0.6 0.15
-3 -6 15 0.54 0.14
-3 -6 15 0.78 0.14
2 6 -15 0.27 0.11
2 6 -15 0.14 0.09
-2 -6 15 0.21 0.11
-2 -6 15 0.2 0.09
1 6 -15 0.92 0.16
1 6 -15 0.87 0.16
-1 -6 15 1.22 0.18
-1 -6 15 0.82 0.16
0 6 -15 0 0.07
0 6 -15 -0.06 0.06
0 -6 15 -0.02 0.07
0 -6 15 -0.02 0.07
-1 6 -15 6.1 0.34
1 -6 15 5.03 0.32
1 -6 15 5.64 0.34
-2 6 -15 2.99 0.24
2 -6 15 2.84 0.27
2 -6 15 2.29 0.25
3 -6 15 0.23 0.11
4 -6 15 1.36 0.2
5 -6 15 0.34 0.14
-7 -5 15 1.02 0.13
6 5 -15 1.49 0.19
6 5 -15 1.43 0.24
-6 -5 15 1.39 0.16
-6 -5 15 1.31 0.23
5 5 -15 5.19 0.36
5 5 -15 4.62 0.28
-5 -5 15 4.58 0.35
-5 -5 15 4.56 0.26
4 5 -15 0.26 0.1
4 5 -15 0.1 0.11
-4 -5 15 0.17 0.12
-4 -5 15 0.15 0.08
3 5 -15 7.88 0.35
3 5 -15 7.07 0.4
-3 -5 15 6.78 0.33
-3 -5 15 6.86 0.39
2 5 -15 7.15 0.38
2 5 -15 7.49 0.35
-2 -5 15 7.12 0.38
-2 -5 15 7.44 0.35
1 5 -15 0.33 0.1
1 5 -15 0.48 0.14
-1 -5 15 0.46 0.11
-1 -5 15 0.32 0.11
0 5 -15 1.83 0.21
0 5 -15 1.67 0.19
0 -5 15 2.37 0.25
0 -5 15 2.09 0.22
-1 5 -15 0.25 0.1
1 -5 15 0.26 0.1
1 -5 15 0.31 0.1
-2 5 -15 2.54 0.21
2 -5 15 3.56 0.25
3 -5 15 0.11 0.09
4 -5 15 0.12 0.09
5 -5 15 -0.05 0.09
6 -5 15 1.33 0.22
7 4 -15 0.95 0.15
7 4 -15 0.94 0.2
-7 -4 15 1.1 0.15
-7 -4 15 1.73 0.27
6 4 -15 0.07 0.1
6 4 -15 0.41 0.11
-6 -4 15 0.25 0.09
-6 -4 15 0.35 0.14
5 4 -15 10.3 0.41
5 4 -15 10.12 0.47
-5 -4 15 9.6 0.48
-5 -4 15 9.32 0.4
4 4 -15 22.38 0.75
4 4 -15 23.56 0.68
-4 -4 15 22.62 0.76
-4 -4 15 24.28 0.69
3 4 -15 19.78 0.66
3 4 -15 20.29 0.61
-3 -4 15 18.51 0.6
-3 -4 15 18.94 0.66
2 4 -15 6.08 0.31
2 4 -15 5.83 0.33
-2 -4 15 5.77 0.31
-2 -4 15 5.63 0.32
1 4 -15 2.04 0.22
1 4 -15 1.7 0.18
-1 -4 15 1.55 0.18
-1 -4 15 1.84 0.22
0 4 -15 1.73 0.19
0 4 -15 1.38 0.18
0 -4 15 1.61 0.19
0 -4 15 1.47 0.18
-1 4 -15 0.48 0.12
1 -4 15 0.56 0.12
1 -4 15 0.27 0.1
-2 4 -15 4.01 0.25
2 -4 15 4.12 0.26
3 -4 15 4.92 0.3
4 -4 15 7.53 0.38
-5 4 -15 3.13 0.33
5 -4 15 2.81 0.28
-6 4 -15 0.86 0.17
-6 4 -15 0.7 0.17
6 -4 15 0.78 0.17
-7 4 -15 1.99 0.27
-7 4 -15 1.74 0.26
7 -4 15 1.83 0.24
7 3 -15 0.68 0.17
7 3 -15 0.64 0.13
-7 -3 15 0.48 0.12
-7 -3 15 0.62 0.17
6 3 -15 3.08 0.23
6 3 -15 3.59 0.29
-6 -3 15 3.06 0.23
-6 -3 15 3.02 0.32
5 3 -15 0.04 0.07
5 3 -15 -0.12 0.09
-5 -3 15 -0.05 0.06
-5 -3 15 0.15 0.08
4 3 -15 1.93 0.24
4 3 -15 2.32 0.21
-4 -3 15 2.41 0.26
-4 -3 15 2.07 0.21
3 3 -15 1.5 0.2
3 3 -15 1.37 0.17
-3 -3 15 1.72 0.19
-3 -3 15 1.37 0.19
2 3 -15 3.52 0.25
2 3 -15 3.88 0.24
-2 -3 15 3.5 0.24
-2 -3 15 3.24 0.23
1 3 -15 1.27 0.16
1 3 -15 1.45 0.19
-1 -3 15 1.8 0.2
-1 -3 15 1.4 0.17
0 3 -15 0.24 0.1
0 3 -15 0.24 0.08
0 -3 15 0.28 0.09
0 -3 15 0.23 0.09
-1 3 -15 -0.02 0.08
1 -3 15 -0.01 0.07
1 -3 15 0.03 0.06
-2 3 -15 5.26 0.28
2 -3 15 4.6 0.27
-3 3 -15 0.2 0.1
3 -3 15 0.17 0.08
-4 3 -15 6.65 0.33
-4 3 -15 7.18 0.39
4 -3 15 7.24 0.36
-5 3 -15 3.09 0.31
-5 3 -15 2.89 0.27
5 -3 15 3.44 0.27
-6 3 -15 4.23 0.31
-6 3 -15 5.45 0.37
6 -3 15 4.5 0.32
-7 3 -15 0.43 0.15
-7 3 -15 0.32 0.13
7 -3 15 0.65 0.16
8 2 -15 0.19 0.11
8 2 -15 0.39 0.15
-8 -2 15 0.07 0.07
-8 -2 15 0.12 0.11
7 2 -15 3.89 0.27
7 2 -15 4.23 0.33
-7 -2 15 3.82 0.26
-7 -2 15 3.93 0.32
6 2 -15 5.13 0.34
6 2 -15 5.55 0.31
-6 -2 15 5.74 0.32
-6 -2 15 5.92 0.37
5 2 -15 1.31 0.17
5 2 -15 0.93 0.18
-5 -2 15 0.75 0.14
-5 -2 15 1.19 0.19
4 2 -15 8.55 0.42
4 2 -15 8.9 0.38
-4 -2 15 8.68 0.41
-4 -2 15 9.17 0.39
3 2 -15 -0.01 0.08
3 2 -15 -0.05 0.06
-3 -2 15 -0.02 0.05
-3 -2 15 -0.03 0.05
2 2 -15 0.73 0.13
2 2 -15 0.55 0.13
-2 -2 15 0.55 0.12
-2 -2 15 0.4 0.11
1 2 -15 12.74 0.48
1 2 -15 12.53 0.44
-1 -2 15 12.84 0.46
-1 -2 15 13.14 0.47
0 2 -15 24.65 0.71
0 -2 15 23.91 0.7
0 -2 15 23.51 0.68
-1 2 -15 3.19 0.23
-1 2 -15 2.41 0.24
1 -2 15 3.12 0.21
-2 2 -15 10.34 0.44
-2 2 -15 9.65 0.38
2 -2 15 9.08 0.38
-3 2 -15 -0.08 0.05
-3 2 -15 -0.03 0.07
3 -2 15 0.08 0.07
3 -2 15 -0.05 0.06
-4 2 -15 1.12 0.18
-4 2 -15 0.97 0.15
4 -2 15 1.15 0.16
4 -2 15 1.17 0.16
-5 2 -15 4.56 0.29
-5 2 -15 4.83 0.33
5 -2 15 4.57 0.29
5 -2 15 5.12 0.29
-6 2 -15 4.39 0.32
-6 2 -15 4.38 0.32
6 -2 15 5.28 0.31
6 -2 15 4.81 0.31
-7 2 -15 8.13 0.45
-7 2 -15 7.61 0.43
7 -2 15 8.4 0.43
7 -2 15 7.89 0.4
8 1 -15 0.13 0.09
8 1 -15 0.01 0.09
-8 -1 15 0.1 0.1
-8 -1 15 0.02 0.08
7 1 -15 0.05 0.08
7 1 -15 -0.05 0.09
-7 -1 15 -0.01 0.09
-7 -1 15 0.02 0.07
6 1 -15 0.88 0.17
6 1 -15 0.91 0.16
-6 -1 15 1.12 0.2
-6 -1 15 1.06 0.17
5 1 -15 0.09 0.1
5 1 -15 0.11 0.08
-5 -1 15 0.07 0.08
-5 -1 15 0.19 0.09
4 1 -15 2.35 0.26
4 1 -15 2.63 0.23
-4 -1 15 2.19 0.23
-4 -1 15 2.22 0.22
3 1 -15 -0.03 0.05
3 1 -15 0.13 0.1
-3 -1 15 0.06 0.08
-3 -1 15 0.22 0.09
2 1 -15 11.88 0.43
2 1 -15 11.12 0.45
-2 -1 15 11.56 0.43
-2 -1 15 11.14 0.43
1 1 -15 4.49 0.28
-1 -1 15 4.8 0.27
-1 -1 15 4.42 0.25
0 1 -15 0.99 0.15
0 1 -15 0.84 0.15
0 -1 15 0.46 0.1
0 -1 15 1.03 0.14
-1 1 -15 1.42 0.19
-1 1 -15 1.45 0.17
-1 1 -15 1.4 0.14
1 -1 15 1.41 0.16
-2 1 -15 3.19 0.21
-2 1 -15 3.79 0.27
-2 1 -15 2.9 0.19
2 -1 15 3.12 0.21
2 -1 15 3.41 0.22
2 -1 15 3.31 0.22
-3 1 -15 13.14 0.46
-3 1 -15 13.47 0.45
-3 1 -15 13.17 0.52
3 -1 15 13.3 0.46
3 -1 15 13.13 0.46
-4 1 -15 0.2 0.1
-4 1 -15 0.47 0.12
4 -1 15 0.41 0.11
4 -1 15 0.34 0.11
-5 1 -15 4.22 0.29
-5 1 -15 4.35 0.31
5 -1 15 4.25 0.27
5 -1 15 4.36 0.27
-6 1 -15 1.11 0.19
-6 1 -15 1.1 0.19
6 -1 15 1.41 0.18
6 -1 15 1.06 0.17
-7 1 -15 0.89 0.18
7 -1 15 0.79 0.15
7 -1 15 0.72 0.16
8 0 -15 0.41 0.14
8 0 -15 0.35 0.12
-8 0 15 0.41 0.15
-8 0 15 0.3 0.12
7 0 -15 4.27 0.29
7 0 -15 3.75 0.29
-7 0 15 3.67 0.28
-7 0 15 3.94 0.31
6 0 -15 5.26 0.34
6 0 -15 5.22 0.31
-6 0 15 5.87 0.35
-6 0 15 5.22 0.32
5 0 -15 12.76 0.48
5 0 -15 13.66 0.53
-5 0 15 12.34 0.5
-5 0 15 13.51 0.52
4 0 -15 11.3 0.48
4 0 -15 13.02 0.47
-4 0 15 12.52 0.48
-4 0 15 11.6 0.46
3 0 -15 5.26 0.28
3 0 -15 5.33 0.31
-3 0 15 4.7 0.29
-3 0 15 4.99 0.27
2 0 -15 64.63 1.48
-2 0 15 63.34 1.47
-2 0 15 64.63 1.42
1 0 -15 10.88 0.45
1 0 -15 11.1 0.44
-1 0 15 10.09 0.42
-1 0 15 10.16 0.37
0 0 -15 0.91 0.16
0 0 -15 0.75 0.14
0 0 15 0.9 0.12
0 0 15 0.92 0.1
-1 0 -15 1.15 0.16
-1 0 -15 0.89 0.15
1 0 15 0.87 0.12
1 0 15 0.99 0.12
1 0 15 1.18 0.14
-2 0 -15 4.75 0.3
-2 0 -15 4.9 0.27
-2 0 -15 4.93 0.25
2 0 15 5 0.27
2 0 15 4.94 0.25
-3 0 -15 26.81 0.75
-3 0 -15 26.07 0.79
-3 0 -15 27.77 0.73
3 0 15 24.99 0.7
3 0 15 28.31 0.75
-4 0 -15 18.75 0.62
-4 0 -15 18.05 0.63
4 0 15 18.46 0.58
4 0 15 18.2 0.57
-5 0 -15 4.41 0.3
-5 0 -15 4.91 0.31
5 0 15 5.16 0.29
5 0 15 4.81 0.28
-6 0 -15 4.86 0.32
-6 0 -15 3.55 0.33
6 0 15 3.5 0.26
6 0 15 4.32 0.27
-7 0 -15 1.72 0.25
-7 0 -15 1.33 0.21
7 0 15 1.78 0.22
7 0 15 1.82 0.23
8 -1 -15 0.03 0.09
-8 1 15 -0.05 0.07
-8 1 15 0.02 0.1
7 -1 -15 -0.08 0.07
7 -1 -15 -0.01 0.09
-7 1 15 -0.02 0.07
-7 1 15 0 0.08
6 -1 -15 0.34 0.12
-6 1 15 0.18 0.09
-6 1 15 0.39 0.12
5 -1 -15 4.87 0.31
-5 1 15 4.4 0.28
-5 1 15 4.43 0.3
4 -1 -15 4.19 0.29
-4 1 15 4.22 0.29
-4 1 15 4.48 0.26
3 -1 -15 3.92 0.27
-3 1 15 4.22 0.24
-3 1 15 4.07 0.27
2 -1 -15 2.35 0.23
-2 1 15 2.36 0.17
1 -1 -15 13.53 0.5
1 -1 -15 13.02 0.51
-1 1 15 13.95 0.41
-1 1 15 12.83 0.42
0 -1 -15 20.25 0.64
0 -1 -15 19.91 0.65
0 1 15 20.04 0.54
0 1 15 20.43 0.6
0 1 15 19.41 0.54
-1 -1 -15 1.91 0.21
-1 -1 -15 2.18 0.24
1 1 15 2.18 0.16
1 1 15 1.99 0.15
1 1 15 1.97 0.19
-2 -1 -15 2.4 0.22
-2 -1 -15 1.96 0.22
2 1 15 2.57 0.17
2 1 15 2.46 0.19
2 1 15 2.49 0.19
-3 -1 -15 0.16 0.09
-3 -1 -15 0.24 0.09
-3 -1 -15 0.19 0.1
3 1 15 0.28 0.1
3 1 15 0.21 0.08
-4 -1 -15 2.3 0.24
-4 -1 -15 2.21 0.24
4 1 15 2.2 0.18
4 1 15 2.14 0.21
4 1 15 1.93 0.2
-5 -1 -15 0.52 0.14
-5 -1 -15 0.59 0.14
5 1 15 0.41 0.11
-6 -1 -15 9.37 0.47
-6 -1 -15 9.52 0.44
6 1 15 9.83 0.42
-7 -1 -15 0.58 0.16
-7 -1 -15 0.6 0.14
7 1 15 0.75 0.15
7 -2 -15 1.85 0.25
-7 2 15 1.41 0.22
6 -2 -15 21.7 0.74
-6 2 15 22.67 0.76
5 -2 -15 5.77 0.35
-5 2 15 6.87 0.38
4 -2 -15 -0.01 0.07
3 -2 -15 4.88 0.31
2 -2 -15 1.38 0.18
2 -2 -15 2.21 0.24
-2 2 15 2.25 0.16
1 -2 -15 0.08 0.07
1 -2 -15 0.13 0.08
-1 2 15 0.04 0.05
0 -2 -15 12.4 0.5
0 -2 -15 13.65 0.51
0 2 15 12.59 0.45
0 2 15 12.06 0.42
-1 -2 -15 24.43 0.73
-1 -2 -15 24.52 0.74
1 2 15 23.86 0.66
1 2 15 22.98 0.68
-2 -2 -15 15.94 0.54
-2 -2 -15 14.5 0.54
2 2 15 13.51 0.49
2 2 15 15.39 0.51
-3 -2 -15 9.09 0.41
-3 -2 -15 8.98 0.4
3 2 15 8.68 0.39
3 2 15 9.75 0.39
-4 -2 -15 0.17 0.1
-4 -2 -15 0.12 0.09
4 2 15 0.17 0.08
-5 -2 -15 3.64 0.34
-5 -2 -15 4.08 0.28
5 2 15 3.86 0.26
-6 -2 -15 6.66 0.35
-6 -2 -15 6.33 0.4
6 2 15 6.75 0.34
6 2 15 6.53 0.34
7 -3 -15 1.49 0.22
6 -3 -15 4.2 0.31
5 -3 -15 0.05 0.09
4 -3 -15 -0.06 0.09
3 -3 -15 0.4 0.12
-3 3 15 0.44 0.1
2 -3 -15 1.53 0.21
2 -3 -15 1.71 0.22
-2 3 15 1.89 0.18
1 -3 -15 -0.11 0.06
1 -3 -15 0.02 0.07
-1 3 15 0.04 0.06
-1 3 15 -0.02 0.05
0 -3 -15 3.63 0.28
0 -3 -15 3.89 0.28
0 3 15 3.89 0.25
0 3 15 4.46 0.24
-1 -3 -15 2.36 0.25
-1 -3 -15 2.49 0.25
1 3 15 2.73 0.21
1 3 15 2.55 0.19
-2 -3 -15 3.92 0.27
-2 -3 -15 3.96 0.27
2 3 15 3.86 0.25
2 3 15 3.91 0.25
-3 -3 -15 0.35 0.12
-3 -3 -15 0.08 0.08
3 3 15 0.09 0.08
3 3 15 0.14 0.08
-4 -3 -15 0.04 0.07
4 3 15 -0.05 0.06
4 3 15 0.02 0.08
-5 -3 -15 5.89 0.32
-5 -3 -15 5.67 0.37
5 3 15 5.6 0.36
5 3 15 5.72 0.31
-6 -3 -15 0.66 0.18
-6 -3 -15 0.55 0.12
6 3 15 0.34 0.11
6 -4 -15 1.51 0.23
5 -4 -15 2.46 0.28
4 -4 -15 0.24 0.12
-4 4 15 0.1 0.08
3 -4 -15 3.16 0.31
-3 4 15 3.39 0.23
2 -4 -15 0.13 0.1
2 -4 -15 -0.07 0.07
-2 4 15 0.16 0.08
1 -4 -15 -0.05 0.07
1 -4 -15 -0.05 0.06
-1 4 15 -0.02 0.07
-1 4 15 0 0.06
0 -4 -15 9.66 0.46
0 -4 -15 9.43 0.45
0 4 15 10.57 0.42
0 4 15 9.66 0.41
-1 -4 -15 1.19 0.18
-1 -4 -15 0.88 0.17
1 4 15 1.19 0.17
1 4 15 1.54 0.19
-2 -4 -15 2.89 0.28
-2 -4 -15 3.16 0.26
2 4 15 3.24 0.24
2 4 15 3.49 0.24
-3 -4 -15 3.21 0.26
-3 -4 -15 3.03 0.24
3 4 15 2.6 0.26
3 4 15 3.31 0.24
-4 -4 -15 1.01 0.16
4 4 15 1.5 0.21
4 4 15 1.3 0.18
-5 -4 -15 0.44 0.11
5 4 15 0.49 0.12
5 4 15 0.77 0.18
5 -5 -15 0.11 0.12
-5 5 15 -0.06 0.08
4 -5 -15 0.13 0.11
-4 5 15 0.25 0.1
3 -5 -15 0.36 0.13
-3 5 15 0.27 0.11
2 -5 -15 0.85 0.18
2 -5 -15 1.35 0.23
-2 5 15 1.04 0.17
1 -5 -15 4.2 0.32
1 -5 -15 3.86 0.3
-1 5 15 3.93 0.28
-1 5 15 3.53 0.25
0 -5 -15 2.68 0.3
0 -5 -15 2.97 0.3
0 5 15 3.44 0.25
0 5 15 2.91 0.24
-1 -5 -15 -0.14 0.06
-1 -5 -15 -0.03 0.08
1 5 15 -0.01 0.07
1 5 15 -0.01 0.06
-2 -5 -15 0.02 0.08
-2 -5 -15 0.08 0.08
2 5 15 0.11 0.09
2 5 15 -0.07 0.06
-3 -5 -15 0.44 0.13
-3 -5 -15 0.36 0.11
3 5 15 0.37 0.13
3 5 15 0.2 0.09
-4 -5 -15 15.35 0.54
4 5 15 16.07 0.63
4 5 15 16.11 0.56
4 -6 -15 0.05 0.1
-4 6 15 -0.06 0.09
3 -6 -15 0.49 0.15
-3 6 15 0.48 0.14
2 -6 -15 -0.08 0.09
2 -6 -15 0.18 0.13
-2 6 15 0.26 0.11
1 -6 -15 6.7 0.41
1 -6 -15 6.44 0.39
-1 6 15 6.73 0.37
-1 6 15 6.9 0.37
0 -6 -15 3.05 0.31
0 -6 -15 3.11 0.34
0 6 15 3.41 0.26
0 6 15 3.79 0.28
-1 -6 -15 0.06 0.09
-1 -6 -15 0.07 0.08
1 6 15 0.05 0.09
1 6 15 0.02 0.08
-2 -6 -15 0.12 0.1
-2 -6 -15 0.19 0.1
2 6 15 0.19 0.1
2 6 15 0.24 0.11
2 8 -16 0.75 0.15
2 8 -16 0.76 0.18
-2 -8 16 0.64 0.18
-2 -8 16 0.59 0.14
1 8 -16 2.47 0.29
1 8 -16 2.58 0.26
-1 -8 16 2.59 0.31
-1 -8 16 2.76 0.28
0 8 -16 3.11 0.29
0 8 -16 2.94 0.32
0 -8 16 3.04 0.3
0 -8 16 2.75 0.31
-1 8 -16 4.94 0.34
1 -8 16 4.91 0.35
1 -8 16 4.47 0.33
2 -8 16 13.78 0.59
2 -8 16 12.44 0.57
4 7 -16 1.94 0.23
4 7 -16 1.93 0.27
-4 -7 16 1.51 0.18
-4 -7 16 1.44 0.24
3 7 -16 0.07 0.09
3 7 -16 0.03 0.1
-3 -7 16 0 0.08
-3 -7 16 0.14 0.09
2 7 -16 0.12 0.09
2 7 -16 0.27 0.12
-2 -7 16 0.14 0.09
-2 -7 16 0.1 0.1
1 7 -16 1.25 0.2
1 7 -16 1.25 0.19
-1 -7 16 1.24 0.19
-1 -7 16 1.08 0.19
0 7 -16 0.88 0.16
0 7 -16 0.68 0.16
0 -7 16 0.6 0.15
0 -7 16 0.77 0.16
-1 7 -16 0.05 0.09
1 -7 16 0 0.08
1 -7 16 -0.03 0.07
2 -7 16 3.16 0.31
2 -7 16 3.15 0.32
3 -7 16 2.59 0.29
4 -7 16 1.67 0.25
5 6 -16 0.11 0.12
5 6 -16 -0.08 0.07
-5 -6 16 -0.03 0.05
-5 -6 16 -0.1 0.09
4 6 -16 2.85 0.26
4 6 -16 3.46 0.35
-4 -6 16 3.28 0.34
-4 -6 16 2.84 0.22
3 6 -16 1.62 0.24
3 6 -16 2.12 0.22
-3 -6 16 1.87 0.21
-3 -6 16 2.43 0.29
2 6 -16 7.72 0.38
2 6 -16 8.83 0.44
-2 -6 16 8.09 0.43
-2 -6 16 7.86 0.38
1 6 -16 0.42 0.14
1 6 -16 0.49 0.12
-1 -6 16 0.57 0.14
-1 -6 16 0.32 0.11
0 6 -16 0.2 0.1
0 6 -16 0.25 0.11
0 -6 16 0.29 0.11
0 -6 16 0.41 0.12
-1 6 -16 1.61 0.21
1 -6 16 1.56 0.22
1 -6 16 1.5 0.2
2 -6 16 1.71 0.22
3 -6 16 3.45 0.27
4 -6 16 3.87 0.3
5 -6 16 0.57 0.16
6 5 -16 6.57 0.34
6 5 -16 5.73 0.4
-6 -5 16 6.4 0.43
-6 -5 16 5.64 0.3
5 5 -16 2.17 0.22
5 5 -16 2.13 0.27
-5 -5 16 1.95 0.27
-5 -5 16 1.93 0.21
4 5 -16 2.48 0.28
4 5 -16 2.06 0.22
-4 -5 16 2.65 0.3
-4 -5 16 2.64 0.25
3 5 -16 3.23 0.24
3 5 -16 3.66 0.33
-3 -5 16 2.63 0.28
-3 -5 16 2.36 0.23
2 5 -16 0.13 0.09
2 5 -16 0.29 0.12
-2 -5 16 0.07 0.07
-2 -5 16 0.07 0.07
1 5 -16 0.15 0.09
1 5 -16 0.24 0.11
-1 -5 16 0.21 0.1
-1 -5 16 0.2 0.09
0 5 -16 2.42 0.24
0 5 -16 2.71 0.26
0 -5 16 2.91 0.28
0 -5 16 2.28 0.24
-1 5 -16 0.47 0.13
1 -5 16 0.71 0.15
1 -5 16 0.67 0.14
-2 5 -16 -0.08 0.06
2 -5 16 0.08 0.09
3 -5 16 0.13 0.09
4 -5 16 0.4 0.13
5 -5 16 4.46 0.32
6 -5 16 0.46 0.15
7 4 -16 0.67 0.18
7 4 -16 0.49 0.13
-7 -4 16 0.65 0.18
-7 -4 16 0.44 0.11
6 4 -16 7.45 0.44
6 4 -16 8.05 0.38
-6 -4 16 8.35 0.48
-6 -4 16 8.64 0.38
5 4 -16 3.15 0.32
5 4 -16 3.25 0.24
-5 -4 16 3.06 0.24
-5 -4 16 3.16 0.33
4 4 -16 6.18 0.37
4 4 -16 5.72 0.31
-4 -4 16 5.65 0.31
-4 -4 16 5.86 0.37
3 4 -16 5.46 0.34
3 4 -16 6 0.32
-3 -4 16 5.92 0.32
-3 -4 16 5.96 0.36
2 4 -16 4.79 0.31
2 4 -16 4.24 0.27
-2 -4 16 4.2 0.29
-2 -4 16 4.41 0.28
1 4 -16 1.93 0.21
1 4 -16 1.77 0.22
-1 -4 16 1.79 0.2
-1 -4 16 2.03 0.23
0 4 -16 15.9 0.56
0 -4 16 15.98 0.57
0 -4 16 15.58 0.56
-1 4 -16 0.98 0.16
1 -4 16 0.99 0.16
1 -4 16 1.21 0.18
-2 4 -16 0.93 0.15
2 -4 16 1.22 0.18
3 -4 16 0.15 0.09
4 -4 16 1.29 0.19
5 -4 16 10.61 0.49
-6 4 -16 1.82 0.25
6 -4 16 2.97 0.3
7 3 -16 0.25 0.14
7 3 -16 0.33 0.11
-7 -3 16 0.57 0.17
-7 -3 16 0.21 0.09
6 3 -16 0.15 0.14
6 3 -16 0.29 0.1
-6 -3 16 0.22 0.12
-6 -3 16 0.35 0.11
5 3 -16 0.05 0.1
5 3 -16 0.15 0.09
-5 -3 16 0.09 0.09
-5 -3 16 0.06 0.07
4 3 -16 0.51 0.16
4 3 -16 0.41 0.11
-4 -3 16 0.46 0.12
-4 -3 16 0.49 0.14
3 3 -16 1.96 0.2
3 3 -16 1.95 0.24
-3 -3 16 2.11 0.24
-3 -3 16 2.16 0.23
2 3 -16 3.43 0.26
2 3 -16 4.06 0.25
-2 -3 16 3.2 0.25
-2 -3 16 3.67 0.25
1 3 -16 0.99 0.17
1 3 -16 0.69 0.13
-1 -3 16 0.75 0.14
-1 -3 16 0.85 0.14
0 3 -16 0.23 0.11
0 -3 16 0.24 0.09
0 -3 16 0.2 0.08
-1 3 -16 12.65 0.48
1 -3 16 12.32 0.47
-2 3 -16 1.75 0.2
2 -3 16 1.4 0.18
3 -3 16 1.88 0.21
-4 3 -16 1.09 0.2
4 -3 16 1.03 0.17
-5 3 -16 0.18 0.12
-5 3 -16 -0.01 0.08
5 -3 16 0.24 0.12
-6 3 -16 5.97 0.4
-6 3 -16 5.87 0.37
6 -3 16 6.22 0.37
7 2 -16 0.66 0.15
7 2 -16 1.28 0.22
-7 -2 16 0.85 0.16
-7 -2 16 0.84 0.19
6 2 -16 4.42 0.28
6 2 -16 3.93 0.31
-6 -2 16 3.88 0.32
-6 -2 16 4.08 0.28
5 2 -16 0.1 0.11
5 2 -16 0.26 0.1
-5 -2 16 0.16 0.09
-5 -2 16 0.24 0.11
4 2 -16 20.38 0.64
4 2 -16 19.75 0.69
-4 -2 16 19.41 0.67
-4 -2 16 19.87 0.64
3 2 -16 1.89 0.23
3 2 -16 1.71 0.2
-3 -2 16 2.22 0.23
-3 -2 16 2.11 0.23
2 2 -16 1.36 0.17
2 2 -16 0.93 0.17
-2 -2 16 0.93 0.14
-2 -2 16 1.28 0.18
1 2 -16 1.37 0.19
-1 -2 16 1.72 0.2
-1 -2 16 1.87 0.21
0 2 -16 1.61 0.2
0 -2 16 1.53 0.18
0 -2 16 1.43 0.19
-1 2 -16 0.69 0.14
1 -2 16 0.88 0.14
-2 2 -16 5.1 0.28
-2 2 -16 5.85 0.34
2 -2 16 5.62 0.3
-3 2 -16 11.59 0.51
3 -2 16 12.09 0.46
-4 2 -16 10.21 0.48
-4 2 -16 10.65 0.43
4 -2 16 9.93 0.43
-5 2 -16 0.85 0.16
-5 2 -16 0.74 0.17
5 -2 16 0.61 0.15
5 -2 16 0.82 0.17
-6 2 -16 1.97 0.25
-6 2 -16 1.41 0.21
6 -2 16 1.53 0.2
6 -2 16 2.03 0.25
-7 2 -16 0.02 0.1
7 -2 16 -0.02 0.08
7 -2 16 -0.01 0.1
7 1 -16 3.93 0.31
7 1 -16 4.24 0.29
-7 -1 16 3.91 0.29
-7 -1 16 3.47 0.35
6 1 -16 7.25 0.37
6 1 -16 7.81 0.41
-6 -1 16 7.15 0.4
-6 -1 16 7.23 0.38
5 1 -16 9.57 0.42
5 1 -16 9.64 0.46
-5 -1 16 9.49 0.43
-5 -1 16 9.67 0.45
4 1 -16 17.37 0.64
4 1 -16 18.5 0.6
-4 -1 16 18.34 0.63
-4 -1 16 18.75 0.63
3 1 -16 0.2 0.11
3 1 -16 0.02 0.07
-3 -1 16 -0.05 0.06
-3 -1 16 -0.01 0.06
2 1 -16 0.2 0.09
-2 -1 16 0.16 0.08
-2 -1 16 0.18 0.09
1 1 -16 0.09 0.09
-1 -1 16 0.17 0.07
-1 -1 16 0.02 0.06
0 1 -16 2.39 0.23
0 -1 16 2.17 0.18
-1 1 -16 7.97 0.35
-1 1 -16 7.78 0.39
1 -1 16 7.05 0.32
-2 1 -16 7.97 0.33
-2 1 -16 7.76 0.4
-2 1 -16 8.9 0.37
2 -1 16 8.27 0.35
-3 1 -16 1.22 0.16
-3 1 -16 1.31 0.2
3 -1 16 1.22 0.16
3 -1 16 1.19 0.16
-4 1 -16 8.71 0.39
-4 1 -16 8.1 0.42
4 -1 16 8.28 0.38
4 -1 16 9.01 0.39
-5 1 -16 0.76 0.17
-5 1 -16 0.54 0.15
5 -1 16 0.62 0.13
5 -1 16 0.76 0.15
-6 1 -16 3.03 0.31
-6 1 -16 3.07 0.3
6 -1 16 2.86 0.28
6 -1 16 3.03 0.28
-7 1 -16 4.56 0.34
7 -1 16 5.26 0.33
7 -1 16 5.24 0.34
7 0 -16 0.03 0.11
7 0 -16 0.07 0.09
-7 0 16 -0.09 0.08
-7 0 16 -0.12 0.06
6 0 -16 0.08 0.1
6 0 -16 0.13 0.09
-6 0 16 0.35 0.12
-6 0 16 0.27 0.11
5 0 -16 2.52 0.27
5 0 -16 2.59 0.25
-5 0 16 2.81 0.27
-5 0 16 3.13 0.25
4 0 -16 8.81 0.43
-4 0 16 8.62 0.39
-4 0 16 8.21 0.4
3 0 -16 20.84 0.68
-3 0 16 19.31 0.62
-3 0 16 20.37 0.66
2 0 -16 5.18 0.31
-2 0 16 4.97 0.3
-2 0 16 4.37 0.25
1 0 -16 7.06 0.35
-1 0 16 6.95 0.31
0 0 -16 0.39 0.11
0 0 -16 0.26 0.11
0 0 16 0.45 0.1
-1 0 -16 3.69 0.27
-1 0 -16 3.56 0.25
1 0 16 4.06 0.25
1 0 16 3.56 0.21
1 0 16 3.57 0.2
-2 0 -16 4.96 0.28
-2 0 -16 5.12 0.32
-2 0 -16 5.43 0.27
2 0 16 4.94 0.26
2 0 16 5.08 0.28
-3 0 -16 0.14 0.1
-3 0 -16 0.15 0.08
-3 0 -16 0.22 0.09
3 0 16 0.1 0.08
3 0 16 0.14 0.08
-4 0 -16 0.32 0.12
-4 0 -16 0.29 0.11
4 0 16 0.22 0.09
4 0 16 0.21 0.09
-5 0 -16 1.07 0.19
-5 0 -16 1.05 0.18
5 0 16 1.34 0.18
5 0 16 1.22 0.17
-6 0 -16 0.07 0.1
-6 0 -16 0.26 0.12
6 0 16 0.22 0.11
6 0 16 0.27 0.11
7 -1 -16 1.67 0.24
-7 1 16 1.74 0.24
6 -1 -16 0.91 0.18
-6 1 16 0.95 0.18
-6 1 16 0.84 0.16
-5 1 16 0.65 0.15
-5 1 16 0.71 0.15
4 -1 -16 0.11 0.09
-4 1 16 0.1 0.09
-4 1 16 0.17 0.08
3 -1 -16 0.72 0.15
-3 1 16 0.76 0.13
2 -1 -16 10.01 0.44
-2 1 16 9.76 0.37
1 -1 -16 0.37 0.12
1 -1 -16 0.4 0.13
-1 1 16 0.32 0.08
0 -1 -16 1.71 0.21
0 -1 -16 2.08 0.23
0 1 16 1.58 0.17
0 1 16 1.71 0.16
-1 -1 -16 1.03 0.17
-1 -1 -16 1.66 0.21
1 1 16 1.83 0.17
1 1 16 1.55 0.18
-2 -1 -16 14.47 0.55
-2 -1 -16 13.17 0.49
2 1 16 13.33 0.48
2 1 16 13.08 0.46
-3 -1 -16 12.61 0.52
-3 -1 -16 11.84 0.46
-3 -1 -16 12.87 0.49
3 1 16 12.78 0.47
-4 -1 -16 0 0.08
-4 -1 -16 0.11 0.09
4 1 16 0.03 0.07
-5 -1 -16 4.62 0.32
-5 -1 -16 5.01 0.33
5 1 16 5.69 0.31
-6 -1 -16 10.45 0.51
-6 -1 -16 10.16 0.47
6 1 16 10.72 0.45
7 -2 -16 4.21 0.31
-7 2 16 3.96 0.37
6 -2 -16 0.09 0.1
-6 2 16 0.23 0.11
5 -2 -16 2.86 0.29
4 -2 -16 10.78 0.49
3 -2 -16 0.09 0.1
2 -2 -16 4.15 0.29
1 -2 -16 4.19 0.29
1 -2 -16 4.6 0.31
-1 2 16 4.92 0.24
0 -2 -16 0.13 0.09
0 -2 -16 0.18 0.09
0 2 16 0.3 0.09
0 2 16 0.2 0.09
-1 -2 -16 1 0.16
-1 -2 -16 1.17 0.18
1 2 16 1.08 0.14
1 2 16 1.27 0.17
-2 -2 -16 1.37 0.2
-2 -2 -16 1.3 0.18
2 2 16 1.2 0.17
2 2 16 1.38 0.18
-3 -2 -16 0.08 0.09
-3 -2 -16 0.05 0.08
3 2 16 0.18 0.09
3 2 16 0.13 0.08
-4 -2 -16 0.1 0.08
-4 -2 -16 -0.09 0.08
4 2 16 -0.04 0.06
4 2 16 -0.07 0.06
-5 -2 -16 -0.01 0.1
-5 -2 -16 0.16 0.1
5 2 16 0.02 0.07
-6 -2 -16 0.49 0.15
-6 -2 -16 0.46 0.13
6 2 16 0.58 0.13
6 -3 -16 0.21 0.11
5 -3 -16 0.98 0.19
4 -3 -16 0.29 0.13
3 -3 -16 0.19 0.1
2 -3 -16 -0.04 0.07
2 -3 -16 -0.17 0.06
-2 3 16 0.02 0.06
1 -3 -16 0.26 0.11
1 -3 -16 0.36 0.13
-1 3 16 0.41 0.1
0 -3 -16 1.43 0.21
0 -3 -16 0.84 0.16
0 3 16 1 0.15
0 3 16 1.29 0.17
-1 -3 -16 3.98 0.29
-1 -3 -16 3.76 0.28
1 3 16 3.5 0.23
1 3 16 3.79 0.25
-2 -3 -16 22.9 0.73
-2 -3 -16 21.68 0.72
2 3 16 22.13 0.68
2 3 16 22.63 0.69
-3 -3 -16 4.81 0.31
-3 -3 -16 5.26 0.32
3 3 16 5.62 0.31
3 3 16 5.14 0.31
-4 -3 -16 5.75 0.34
4 3 16 5.68 0.32
4 3 16 5.77 0.34
-5 -3 -16 26.89 0.81
5 3 16 28.99 0.9
5 3 16 28.29 0.82
6 -4 -16 0.44 0.15
5 -4 -16 7.67 0.44
4 -4 -16 2.09 0.27
3 -4 -16 3.91 0.31
-3 4 16 3.96 0.26
2 -4 -16 6.73 0.4
2 -4 -16 6.41 0.39
-2 4 16 6.81 0.33
1 -4 -16 0.56 0.15
1 -4 -16 0.41 0.14
-1 4 16 0.59 0.13
0 -4 -16 0.02 0.1
0 4 16 0.16 0.09
0 4 16 0.01 0.06
-1 -4 -16 1.18 0.2
-1 -4 -16 1.11 0.19
1 4 16 1.21 0.18
1 4 16 1.46 0.19
-2 -4 -16 7.11 0.4
-2 -4 -16 6.62 0.37
2 4 16 7.45 0.37
2 4 16 7.61 0.37
-3 -4 -16 2.23 0.25
-3 -4 -16 2.07 0.25
3 4 16 2.45 0.26
3 4 16 2.15 0.23
-4 -4 -16 -0.11 0.06
4 4 16 0.08 0.08
4 4 16 -0.02 0.09
5 -5 -16 0.05 0.12
4 -5 -16 0.2 0.12
-4 5 16 0.1 0.09
3 -5 -16 0.51 0.16
-3 5 16 0.86 0.16
2 -5 -16 0.61 0.17
2 -5 -16 0.71 0.17
-2 5 16 0.48 0.12
1 -5 -16 0.43 0.15
1 -5 -16 0.46 0.14
-1 5 16 0.73 0.15
0 -5 -16 3.97 0.31
0 -5 -16 3.11 0.32
0 5 16 3.7 0.27
0 5 16 3.34 0.25
-1 -5 -16 29.44 0.94
-1 -5 -16 29.82 0.9
1 5 16 29.84 0.86
1 5 16 28.84 0.86
-2 -5 -16 1.66 0.22
-2 -5 -16 1.44 0.22
2 5 16 1.8 0.22
2 5 16 1.64 0.22
-3 -5 -16 -0.1 0.09
-3 -5 -16 0.07 0.09
3 5 16 0.01 0.08
3 5 16 0.18 0.1
3 -6 -16 0.73 0.2
-3 6 16 0.84 0.18
2 -6 -16 5.51 0.39
2 -6 -16 5.71 0.4
-2 6 16 5.49 0.34
1 -6 -16 4.32 0.33
1 -6 -16 3.47 0.36
-1 6 16 4.28 0.29
0 -6 -16 6.56 0.43
0 -6 -16 5.9 0.38
0 6 16 6.61 0.37
0 6 16 6.61 0.37
-1 -6 -16 4.89 0.34
-1 -6 -16 5.37 0.38
1 6 16 4.87 0.32
1 6 16 4.69 0.32
0 -8 17 2.71 0.29
3 7 -17 0.3 0.15
3 7 -17 0.37 0.13
-3 -7 17 0.3 0.11
-3 -7 17 0.4 0.15
2 7 -17 0.25 0.14
2 7 -17 0.75 0.16
-2 -7 17 0.79 0.18
-2 -7 17 0.54 0.14
1 7 -17 -0.06 0.1
1 7 -17 -0.02 0.07
-1 -7 17 -0.03 0.08
-1 -7 17 0.09 0.09
0 7 -17 0.51 0.16
0 -7 17 0.35 0.13
0 -7 17 0.55 0.14
-1 7 -17 2.29 0.26
1 -7 17 2.28 0.27
1 -7 17 2.19 0.26
2 -7 17 0.48 0.14
3 -7 17 0.57 0.16
5 6 -17 2.24 0.24
5 6 -17 1.68 0.26
-5 -6 17 2.07 0.22
-5 -6 17 2.02 0.29
4 6 -17 1.92 0.26
4 6 -17 2.67 0.27
-4 -6 17 1.98 0.27
-4 -6 17 1.64 0.2
3 6 -17 0.91 0.2
3 6 -17 0.77 0.16
-3 -6 17 0.48 0.12
-3 -6 17 0.51 0.16
2 6 -17 2.42 0.28
2 6 -17 2.5 0.25
-2 -6 17 3.39 0.26
-2 -6 17 2.32 0.28
1 6 -17 -0.12 0.07
1 6 -17 0.02 0.08
-1 -6 17 -0.08 0.07
-1 -6 17 0.01 0.08
0 6 -17 0.07 0.1
0 -6 17 0.15 0.09
0 -6 17 0.03 0.08
-1 6 -17 0.2 0.11
1 -6 17 0.13 0.11
1 -6 17 0.28 0.12
2 -6 17 0.14 0.1
3 -6 17 0.71 0.17
4 -6 17 0.36 0.12
5 5 -17 0.37 0.12
5 5 -17 0.2 0.13
-5 -5 17 0.34 0.15
-5 -5 17 0.38 0.11
4 5 -17 5.5 0.38
4 5 -17 5.64 0.32
-4 -5 17 5.44 0.31
-4 -5 17 6 0.39
3 5 -17 3.28 0.28
3 5 -17 3.03 0.31
-3 -5 17 3.47 0.34
-3 -5 17 3.14 0.25
2 5 -17 2.03 0.23
2 5 -17 2.24 0.26
-2 -5 17 2.07 0.25
-2 -5 17 2.47 0.26
1 5 -17 0.18 0.1
1 5 -17 0.1 0.11
-1 -5 17 0.12 0.09
-1 -5 17 0.08 0.08
0 5 -17 0.53 0.15
0 -5 17 0.53 0.14
0 -5 17 0.52 0.14
-1 5 -17 1.62 0.21
1 -5 17 1.4 0.21
1 -5 17 1.6 0.21
2 -5 17 7.44 0.4
3 -5 17 4.74 0.32
4 -5 17 0.44 0.14
5 -5 17 1.49 0.22
6 4 -17 0.11 0.12
6 4 -17 -0.04 0.07
-6 -4 17 0.02 0.07
-6 -4 17 -0.01 0.1
5 4 -17 1.5 0.2
5 4 -17 1.29 0.23
-5 -4 17 1.4 0.19
-5 -4 17 1.31 0.23
4 4 -17 1.15 0.17
4 4 -17 1.43 0.22
-4 -4 17 1.06 0.19
-4 -4 17 0.99 0.16
3 4 -17 0.52 0.13
3 4 -17 0.4 0.13
-3 -4 17 0.47 0.12
-3 -4 17 0.31 0.13
2 4 -17 2.86 0.26
2 4 -17 3.48 0.32
-2 -4 17 3.61 0.28
-2 -4 17 3.43 0.26
1 4 -17 18.1 0.6
1 4 -17 17.13 0.63
-1 -4 17 17.71 0.62
-1 -4 17 17.83 0.63
0 4 -17 -0.06 0.07
0 -4 17 0.06 0.08
0 -4 17 0.01 0.07
-1 4 -17 5.16 0.32
1 -4 17 4.5 0.29
-2 4 -17 4.37 0.29
2 -4 17 4.55 0.3
3 -4 17 1.94 0.23
4 -4 17 8.17 0.42
5 -4 17 1.23 0.2
7 3 -17 1.11 0.18
-7 -3 17 1.39 0.25
-7 -3 17 0.95 0.16
6 3 -17 5.84 0.4
6 3 -17 6.97 0.36
-6 -3 17 6.48 0.35
-6 -3 17 6.7 0.42
5 3 -17 2.04 0.27
5 3 -17 1.82 0.21
-5 -3 17 1.79 0.25
-5 -3 17 1.92 0.23
4 3 -17 0.25 0.1
4 3 -17 0.11 0.11
-4 -3 17 0.11 0.1
-4 -3 17 0.32 0.11
3 3 -17 0.1 0.11
3 3 -17 0.04 0.07
-3 -3 17 0.02 0.07
-3 -3 17 -0.04 0.07
2 3 -17 3.49 0.32
2 3 -17 3.3 0.24
-2 -3 17 3.45 0.26
-2 -3 17 2.96 0.24
1 3 -17 2.51 0.26
-1 -3 17 2.3 0.24
-1 -3 17 1.93 0.21
0 3 -17 1.51 0.2
0 -3 17 1.63 0.21
0 -3 17 1.38 0.18
-1 3 -17 0.04 0.08
1 -3 17 0.17 0.09
-2 3 -17 1.02 0.16
2 -3 17 1.26 0.18
3 -3 17 0.84 0.16
-4 3 -17 27.29 0.93
4 -3 17 28.69 0.85
-5 3 -17 12.38 0.56
5 -3 17 11.77 0.52
-6 3 -17 0.47 0.15
6 -3 17 0.35 0.14
7 2 -17 2.76 0.32
7 2 -17 2.92 0.28
-7 -2 17 2.7 0.33
-7 -2 17 2.45 0.25
6 2 -17 -0.04 0.07
6 2 -17 0.07 0.11
-6 -2 17 0.11 0.11
-6 -2 17 0.02 0.08
5 2 -17 8.53 0.45
5 2 -17 8.19 0.4
-5 -2 17 8.58 0.44
-5 -2 17 9.33 0.43
4 2 -17 0.14 0.12
4 2 -17 0.19 0.1
-4 -2 17 0.3 0.1
-4 -2 17 0.3 0.11
3 2 -17 4.88 0.29
3 2 -17 4.65 0.33
-3 -2 17 4.86 0.3
-3 -2 17 4.38 0.3
2 2 -17 12.65 0.52
-2 -2 17 12.46 0.49
-2 -2 17 12.83 0.5
1 2 -17 6.71 0.37
-1 -2 17 7.37 0.37
-1 -2 17 7.08 0.35
0 2 -17 4.93 0.31
0 -2 17 4.76 0.28
-1 2 -17 2.93 0.23
1 -2 17 3.17 0.23
-2 2 -17 6.09 0.31
2 -2 17 5.34 0.3
-3 2 -17 0.21 0.1
3 -2 17 0.23 0.09
-4 2 -17 0.28 0.13
4 -2 17 0.21 0.1
-5 2 -17 0.05 0.09
-5 2 -17 -0.09 0.08
5 -2 17 -0.03 0.09
-6 2 -17 -0.04 0.09
-6 2 -17 -0.01 0.1
6 -2 17 0.15 0.11
7 1 -17 0.66 0.17
7 1 -17 0.6 0.15
-7 -1 17 0.6 0.17
-7 -1 17 0.75 0.16
6 1 -17 3.05 0.32
6 1 -17 2.8 0.27
-6 -1 17 3.11 0.32
-6 -1 17 3.37 0.31
5 1 -17 1.32 0.21
5 1 -17 1.26 0.18
-5 -1 17 1.33 0.2
-5 -1 17 1.55 0.21
4 1 -17 2.99 0.3
4 1 -17 3.55 0.26
-4 -1 17 2.89 0.28
-4 -1 17 3.29 0.26
3 1 -17 3.7 0.33
-3 -1 17 3.47 0.26
-3 -1 17 3.98 0.28
2 1 -17 3.14 0.26
-2 -1 17 2.58 0.24
-2 -1 17 2.87 0.22
1 1 -17 1.17 0.19
-1 -1 17 0.85 0.14
0 1 -17 2 0.23
0 -1 17 2 0.2
-1 1 -17 2.38 0.24
-1 1 -17 2.34 0.27
1 -1 17 1.98 0.2
-2 1 -17 0.77 0.17
-2 1 -17 0.71 0.14
2 -1 17 0.82 0.13
-3 1 -17 6.99 0.4
-3 1 -17 6.74 0.33
3 -1 17 7.19 0.34
-4 1 -17 14.35 0.59
-4 1 -17 13.44 0.52
4 -1 17 14.39 0.52
4 -1 17 14.15 0.52
-5 1 -17 0.29 0.13
-5 1 -17 0.12 0.1
5 -1 17 0.11 0.09
5 -1 17 0.11 0.1
-6 1 -17 3.71 0.34
-6 1 -17 4.12 0.31
6 -1 17 3.75 0.28
6 -1 17 4.12 0.3
7 0 -17 3.33 0.33
-7 0 17 2.39 0.28
-7 0 17 2.92 0.32
6 0 -17 8.64 0.44
-6 0 17 7.93 0.42
-6 0 17 7.68 0.42
5 0 -17 0.11 0.09
-5 0 17 -0.08 0.07
-5 0 17 0.07 0.08
4 0 -17 1.15 0.2
-4 0 17 0.76 0.15
-4 0 17 1.13 0.18
3 0 -17 15.25 0.58
-3 0 17 15.04 0.57
-3 0 17 15.15 0.53
2 0 -17 -0.03 0.07
-2 0 17 0.09 0.07
1 0 -17 0.18 0.1
-1 0 17 -0.01 0.06
0 0 -17 21.99 0.7
0 0 -17 22.79 0.74
0 0 17 21.37 0.63
-1 0 -17 8.73 0.43
-1 0 -17 8.18 0.39
1 0 17 7.97 0.34
-2 0 -17 0.02 0.07
-2 0 -17 0.06 0.08
2 0 17 0.02 0.06
2 0 17 -0.02 0.06
2 0 17 0.02 0.06
-3 0 -17 4.59 0.28
-3 0 -17 5.08 0.34
3 0 17 5.02 0.3
3 0 17 4.74 0.27
-4 0 -17 0.69 0.16
-4 0 -17 0.65 0.15
4 0 17 0.66 0.14
4 0 17 0.75 0.15
4 0 17 0.95 0.15
-5 0 -17 7.45 0.41
-5 0 -17 7.26 0.39
5 0 17 7.31 0.36
5 0 17 6.47 0.35
-6 0 -17 1.35 0.21
-6 0 -17 1.35 0.23
6 0 17 1.67 0.22
7 -1 -17 0.02 0.09
-7 1 17 0.1 0.1
6 -1 -17 0.19 0.13
-6 1 17 0.32 0.12
5 -1 -17 0.23 0.13
-5 1 17 0.32 0.12
4 -1 -17 1.08 0.19
3 -1 -17 0.27 0.12
2 -1 -17 -0.04 0.08
1 -1 -17 2.02 0.24
0 -1 -17 0.37 0.12
0 -1 -17 0.36 0.11
-1 -1 -17 0.1 0.08
-1 -1 -17 0.06 0.08
1 1 17 -0.06 0.04
1 1 17 -0.05 0.06
-2 -1 -17 9 0.41
-2 -1 -17 8.41 0.43
2 1 17 8.88 0.37
2 1 17 9.19 0.4
-3 -1 -17 23.35 0.77
3 1 17 22.28 0.69
3 1 17 23.7 0.71
-4 -1 -17 0.44 0.14
-4 -1 -17 0.79 0.16
4 1 17 0.7 0.14
-5 -1 -17 0.22 0.11
-5 -1 -17 0.2 0.11
5 1 17 0.01 0.07
-6 -1 -17 10.2 0.49
6 1 17 10.2 0.46
6 1 17 10.98 0.47
6 -2 -17 0.18 0.12
5 -2 -17 0.57 0.15
4 -2 -17 16.66 0.64
3 -2 -17 4.81 0.33
2 -2 -17 0.18 0.1
1 -2 -17 13.45 0.57
1 -2 -17 13.95 0.56
0 -2 -17 26.79 0.82
0 -2 -17 25.07 0.82
0 2 17 27.12 0.72
-1 -2 -17 5.96 0.35
-1 -2 -17 5.72 0.36
1 2 17 6.27 0.3
1 2 17 6.58 0.33
-2 -2 -17 8.84 0.44
-2 -2 -17 9.02 0.42
2 2 17 8.8 0.4
2 2 17 8.82 0.38
-3 -2 -17 8.15 0.4
-3 -2 -17 8.27 0.43
3 2 17 8.66 0.4
3 2 17 8.34 0.39
-4 -2 -17 0.04 0.09
4 2 17 0 0.07
4 2 17 0.01 0.09
-5 -2 -17 1.2 0.19
-5 -2 -17 1.45 0.23
5 2 17 1.49 0.2
6 -3 -17 0.18 0.11
5 -3 -17 2.51 0.29
4 -3 -17 0.14 0.1
3 -3 -17 2.46 0.28
2 -3 -17 2.05 0.26
1 -3 -17 0.98 0.19
1 -3 -17 1.31 0.21
-1 3 17 1.15 0.16
0 -3 -17 0.47 0.14
0 -3 -17 0.62 0.15
0 3 17 0.61 0.12
-1 -3 -17 6.83 0.38
-1 -3 -17 6.76 0.39
1 3 17 6.87 0.35
1 3 17 6.39 0.32
-2 -3 -17 7.95 0.41
-2 -3 -17 8.03 0.42
2 3 17 7.28 0.37
2 3 17 7.48 0.37
-3 -3 -17 3.44 0.28
-3 -3 -17 4.09 0.3
3 3 17 3.95 0.28
3 3 17 3.27 0.26
-4 -3 -17 1.04 0.18
4 3 17 1.09 0.19
4 3 17 0.9 0.16
5 -4 -17 5.14 0.37
4 -4 -17 1.76 0.26
3 -4 -17 3.69 0.35
2 -4 -17 8.22 0.45
-2 4 17 8.74 0.39
1 -4 -17 32.12 1
1 -4 -17 32.7 1
-1 4 17 33.56 0.9
0 -4 -17 0.2 0.11
0 -4 -17 0.27 0.13
0 4 17 0.6 0.14
0 4 17 0.53 0.12
-1 -4 -17 0.16 0.11
-1 -4 -17 0.29 0.12
1 4 17 0.09 0.09
1 4 17 0.13 0.09
-2 -4 -17 0.46 0.15
-2 -4 -17 0.31 0.13
2 4 17 0.46 0.12
2 4 17 0.25 0.1
-3 -4 -17 -0.02 0.08
-3 -4 -17 -0.06 0.07
3 4 17 0.03 0.08
3 4 17 0.03 0.07
3 -5 -17 2.76 0.32
-3 5 17 3.37 0.26
2 -5 -17 1.95 0.27
2 -5 -17 1.41 0.24
-2 5 17 1.7 0.22
1 -5 -17 0.02 0.1
1 -5 -17 0.26 0.13
-1 5 17 0.23 0.1
0 -5 -17 0.04 0.11
0 -5 -17 -0.04 0.1
0 5 17 0.01 0.08
0 5 17 -0.07 0.07
-1 -5 -17 1.18 0.21
-1 -5 -17 1.97 0.27
1 5 17 1.65 0.22
1 5 17 1.55 0.21
-2 -5 -17 0.03 0.09
-2 -5 -17 0.14 0.1
2 5 17 0.13 0.1
2 5 17 -0.06 0.07
2 7 -18 0.09 0.11
2 7 -18 0.11 0.1
-2 -7 18 0.13 0.1
-2 -7 18 0.13 0.11
1 7 -18 0.25 0.12
1 7 -18 0.16 0.13
-1 -7 18 0.03 0.11
-1 -7 18 0 0.09
0 7 -18 0.14 0.11
0 -7 18 0.04 0.09
0 -7 18 0.11 0.1
-1 7 -18 0.14 0.12
1 -7 18 0.07 0.11
1 -7 18 0.01 0.1
2 -7 18 0.04 0.1
4 6 -18 1.57 0.21
4 6 -18 1.63 0.26
-4 -6 18 1.31 0.24
-4 -6 18 1.42 0.19
3 6 -18 5.04 0.36
3 6 -18 5.14 0.33
-3 -6 18 4.59 0.31
-3 -6 18 4.79 0.37
2 6 -18 1.15 0.19
2 6 -18 1 0.2
-2 -6 18 1.1 0.2
-2 -6 18 1.2 0.19
1 6 -18 5.72 0.38
-1 -6 18 5.68 0.36
-1 -6 18 5.91 0.37
0 6 -18 10.82 0.5
0 -6 18 10.69 0.49
0 -6 18 11.04 0.52
-1 6 -18 3 0.3
1 -6 18 2.25 0.26
1 -6 18 2.35 0.28
2 -6 18 0.04 0.07
3 -6 18 2.5 0.28
5 5 -18 0.22 0.11
5 5 -18 0.17 0.13
-5 -5 18 0.14 0.09
-5 -5 18 -0.02 0.1
4 5 -18 0.32 0.12
4 5 -18 0.04 0.11
-4 -5 18 0.14 0.1
-4 -5 18 0.3 0.11
3 5 -18 1.51 0.24
3 5 -18 1.22 0.18
-3 -5 18 0.99 0.2
-3 -5 18 1.29 0.19
2 5 -18 -0.05 0.08
2 5 -18 -0.1 0.08
-2 -5 18 0.03 0.08
-2 -5 18 -0.1 0.08
1 5 -18 6.48 0.39
-1 -5 18 6.26 0.38
-1 -5 18 6.5 0.37
0 5 -18 13.64 0.56
0 -5 18 13.21 0.56
0 -5 18 13.28 0.55
-1 5 -18 0.26 0.13
1 -5 18 0.35 0.13
2 -5 18 1.52 0.21
3 -5 18 2.37 0.27
4 -5 18 0.43 0.14
-6 -4 18 0.11 0.08
5 4 -18 5.07 0.37
5 4 -18 5.22 0.32
-5 -4 18 5.31 0.39
-5 -4 18 5.31 0.33
4 4 -18 14.22 0.54
4 4 -18 12.96 0.58
-4 -4 18 12.66 0.52
-4 -4 18 13.42 0.59
3 4 -18 1.22 0.19
3 4 -18 1.44 0.23
-3 -4 18 0.94 0.16
-3 -4 18 0.96 0.18
2 4 -18 1.3 0.19
2 4 -18 1.3 0.21
-2 -4 18 1.59 0.23
-2 -4 18 1.55 0.21
1 4 -18 9.71 0.46
-1 -4 18 9.67 0.46
-1 -4 18 9.96 0.46
0 4 -18 0.85 0.18
0 -4 18 0.77 0.17
0 -4 18 0.45 0.13
-1 4 -18 5.82 0.34
1 -4 18 5.11 0.33
2 -4 18 36.73 1.02
3 -4 18 7.84 0.41
4 -4 18 0.95 0.18
5 -4 18 0.15 0.11
6 3 -18 0.07 0.09
6 3 -18 -0.06 0.11
-6 -3 18 -0.02 0.09
-6 -3 18 0.02 0.08
5 3 -18 0.01 0.09
5 3 -18 -0.04 0.13
-5 -3 18 0.24 0.1
-5 -3 18 0.13 0.11
4 3 -18 0.04 0.11
4 3 -18 0.1 0.09
-4 -3 18 0.05 0.1
-4 -3 18 0.02 0.07
3 3 -18 3.3 0.29
3 3 -18 2.93 0.31
-3 -3 18 3.46 0.26
-3 -3 18 3.4 0.32
2 3 -18 5.07 0.36
-2 -3 18 4.63 0.31
-2 -3 18 5.43 0.34
1 3 -18 0.69 0.16
-1 -3 18 0.63 0.15
-1 -3 18 0.95 0.17
0 3 -18 3.37 0.27
0 -3 18 3.42 0.25
-1 3 -18 2 0.24
1 -3 18 2.33 0.25
-2 3 -18 0.33 0.12
2 -3 18 0.43 0.12
3 -3 18 1.32 0.19
4 -3 18 1.53 0.22
-5 3 -18 1.04 0.2
5 -3 18 1.18 0.2
6 2 -18 7.48 0.45
6 2 -18 7.59 0.39
-6 -2 18 7.41 0.44
-6 -2 18 7.36 0.4
5 2 -18 1.61 0.24
5 2 -18 1.97 0.23
-5 -2 18 1.69 0.24
-5 -2 18 1.9 0.24
4 2 -18 0.18 0.1
4 2 -18 0.17 0.12
-4 -2 18 0.27 0.12
-4 -2 18 -0.02 0.07
3 2 -18 4.12 0.31
-3 -2 18 3.94 0.29
-3 -2 18 3.2 0.26
2 2 -18 35.33 1
-2 -2 18 33.21 0.95
-2 -2 18 32.95 0.94
1 2 -18 15.2 0.57
-1 -2 18 13.41 0.52
0 2 -18 2.13 0.24
0 -2 18 2.11 0.22
-1 2 -18 16.34 0.57
1 -2 18 15.35 0.55
-2 2 -18 9.96 0.42
2 -2 18 9.61 0.42
-3 2 -18 0.14 0.11
3 -2 18 0.01 0.06
-4 2 -18 3.06 0.31
4 -2 18 3.63 0.27
-5 2 -18 3.81 0.37
5 -2 18 4.28 0.31
6 1 -18 6.17 0.36
6 1 -18 6.62 0.41
-6 -1 18 6.48 0.39
-6 -1 18 6.48 0.4
5 1 -18 0.67 0.16
-5 -1 18 0.73 0.16
-5 -1 18 1 0.19
4 1 -18 0.36 0.13
-4 -1 18 0.74 0.15
-4 -1 18 0.37 0.13
3 1 -18 0.11 0.11
-3 -1 18 -0.05 0.07
-3 -1 18 0.09 0.09
2 1 -18 0.2 0.11
-2 -1 18 0.07 0.08
1 1 -18 0.34 0.13
-1 -1 18 0.16 0.09
0 1 -18 0.01 0.08
0 -1 18 0.1 0.07
-1 1 -18 0.1 0.09
1 -1 18 0 0.06
-2 1 -18 2.41 0.24
-2 1 -18 2.45 0.28
2 -1 18 2.11 0.21
-3 1 -18 14.98 0.62
3 -1 18 15.91 0.56
-4 1 -18 0.46 0.15
4 -1 18 0.78 0.15
-5 1 -18 0.87 0.19
-5 1 -18 0.99 0.18
5 -1 18 0.84 0.17
6 0 -18 2.94 0.31
-6 0 18 3.23 0.32
-6 0 18 3.52 0.34
5 0 -18 0.57 0.16
-5 0 18 0.32 0.12
-5 0 18 0.45 0.14
4 0 -18 4.66 0.33
-4 0 18 4.14 0.3
-4 0 18 3.72 0.28
3 0 -18 30.4 0.93
-3 0 18 30.46 0.86
2 0 -18 5.25 0.34
-2 0 18 5.08 0.29
1 0 -18 0.92 0.17
-1 0 18 0.91 0.14
0 0 -18 17.72 0.62
0 0 18 15.86 0.53
-1 0 -18 20.77 0.69
-1 0 -18 21.26 0.74
1 0 18 20.59 0.62
-2 0 -18 1.82 0.21
-2 0 -18 1.71 0.23
2 0 18 1.51 0.18
-3 0 -18 -0.04 0.07
-3 0 -18 0.07 0.09
3 0 18 0.03 0.07
-4 0 -18 2.78 0.27
-4 0 -18 3.36 0.33
4 0 18 3 0.28
-5 0 -18 0.66 0.17
-5 0 -18 0.99 0.19
5 0 18 0.84 0.16
5 0 18 0.64 0.15
6 -1 -18 1.53 0.23
-6 1 18 1.39 0.22
5 -1 -18 1.25 0.21
4 -1 -18 0.15 0.11
3 -1 -18 0.13 0.1
2 -1 -18 3.96 0.3
1 -1 -18 1.39 0.21
0 -1 -18 0.06 0.09
0 -1 -18 0.04 0.1
-1 -1 -18 3.02 0.31
-1 -1 -18 2.5 0.26
-2 -1 -18 0.13 0.09
-2 -1 -18 0.29 0.12
2 1 18 0.13 0.09
2 1 18 0.3 0.11
-3 -1 -18 -0.13 0.07
3 1 18 0.12 0.09
3 1 18 -0.01 0.07
-4 -1 -18 2.38 0.28
-4 -1 -18 2.98 0.29
4 1 18 1.91 0.22
-5 -1 -18 -0.03 0.09
-5 -1 -18 0.03 0.09
5 1 18 -0.05 0.07
6 -2 -18 0.56 0.16
5 -2 -18 -0.02 0.09
4 -2 -18 20.14 0.74
3 -2 -18 11.58 0.53
2 -2 -18 0.87 0.19
1 -2 -18 8.01 0.43
0 -2 -18 5.81 0.36
0 -2 -18 5.98 0.38
-1 -2 -18 2.73 0.28
-1 -2 -18 3.09 0.31
1 2 18 3.3 0.22
-2 -2 -18 0.1 0.1
-2 -2 -18 0.19 0.12
2 2 18 0.09 0.08
2 2 18 0.27 0.1
-3 -2 -18 3.72 0.31
3 2 18 4.07 0.29
3 2 18 4.59 0.29
-4 -2 -18 3.03 0.31
4 2 18 2.55 0.27
4 2 18 3.19 0.3
5 -3 -18 1.83 0.27
4 -3 -18 -0.05 0.08
3 -3 -18 4.95 0.36
2 -3 -18 2.37 0.29
1 -3 -18 7.63 0.44
1 -3 -18 7.7 0.43
0 -3 -18 10.88 0.5
0 -3 -18 9.82 0.5
0 3 18 10.49 0.42
-1 -3 -18 0.49 0.14
-1 -3 -18 0.57 0.16
1 3 18 0.43 0.12
1 3 18 0.39 0.12
-2 -3 -18 3.56 0.33
-2 -3 -18 3.16 0.31
2 3 18 3.43 0.26
2 3 18 3.78 0.28
-3 -3 -18 0.36 0.13
3 3 18 0.41 0.12
3 3 18 0.44 0.13
-4 -3 -18 0.27 0.12
4 3 18 0.23 0.12
4 3 18 0.35 0.12
4 -4 -18 8.01 0.46
3 -4 -18 1.1 0.22
2 -4 -18 -0.05 0.09
1 -4 -18 2.01 0.28
1 -4 -18 2.26 0.29
-1 4 18 2 0.22
0 -4 -18 0.65 0.18
0 -4 -18 0.62 0.16
0 4 18 0.6 0.14
-1 -4 -18 2.07 0.27
-1 -4 -18 1.68 0.24
1 4 18 1.72 0.22
1 4 18 2.11 0.23
-2 -4 -18 9.08 0.46
-2 -4 -18 8.34 0.45
2 4 18 8.49 0.41
2 4 18 8.34 0.41
-2 5 18 6.62 0.37
1 -5 -18 2.94 0.34
1 -5 -18 2.94 0.33
-1 5 18 3.66 0.27
0 -5 -18 -0.02 0.09
0 -5 -18 -0.07 0.09
0 5 18 0.05 0.08
3 6 -19 0.09 0.12
3 6 -19 0.09 0.11
-3 -6 19 -0.13 0.09
-3 -6 19 0.04 0.08
2 6 -19 5.23 0.34
2 6 -19 4.44 0.34
-2 -6 19 4.7 0.33
-2 -6 19 4.4 0.35
1 6 -19 2.29 0.28
-1 -6 19 2.13 0.28
-1 -6 19 1.93 0.26
0 6 -19 3.45 0.34
0 -6 19 4.15 0.32
0 -6 19 4.65 0.35
-1 6 -19 8.15 0.44
1 -6 19 7.68 0.43
2 -6 19 0.61 0.16
4 5 -19 0.39 0.16
4 5 -19 0.89 0.17
-4 -5 19 1 0.21
-4 -5 19 0.71 0.16
3 5 -19 0.52 0.15
3 5 -19 0.49 0.17
-3 -5 19 0.31 0.12
-3 -5 19 0.58 0.16
2 5 -19 0.78 0.19
-2 -5 19 0.78 0.16
-2 -5 19 1.08 0.21
1 5 -19 1.17 0.22
-1 -5 19 1.62 0.24
-1 -5 19 1.36 0.21
0 5 -19 6.7 0.4
0 -5 19 6.74 0.39
0 -5 19 6.59 0.39
-1 5 -19 0.15 0.13
1 -5 19 0.12 0.1
2 -5 19 0.1 0.1
3 -5 19 3.19 0.33
5 4 -19 0.04 0.08
5 4 -19 0.06 0.13
-5 -4 19 0.01 0.1
-5 -4 19 -0.07 0.07
4 4 -19 0.29 0.15
4 4 -19 0.47 0.14
-4 -4 19 0.32 0.14
-4 -4 19 0.3 0.12
3 4 -19 0.33 0.14
3 4 -19 0.34 0.13
-3 -4 19 0.25 0.11
-3 -4 19 0.13 0.12
2 4 -19 7.39 0.44
-2 -4 19 7.64 0.4
-2 -4 19 7.41 0.42
1 4 -19 18.53 0.7
-1 -4 19 19.43 0.68
-1 -4 19 18.15 0.67
0 4 -19 0.81 0.18
0 -4 19 1.02 0.19
-1 4 -19 0.49 0.16
1 -4 19 0.83 0.17
2 -4 19 2.35 0.26
3 -4 19 1.89 0.24
4 -4 19 1.15 0.21
5 3 -19 0.09 0.1
5 3 -19 -0.07 0.1
-5 -3 19 -0.07 0.06
-5 -3 19 0.07 0.09
4 3 -19 5.87 0.4
4 3 -19 5.29 0.34
-4 -3 19 5.65 0.35
-4 -3 19 5.74 0.37
3 3 -19 5.85 0.39
-3 -3 19 6.28 0.38
-3 -3 19 6.07 0.36
2 3 -19 0.02 0.12
-2 -3 19 0.01 0.07
-2 -3 19 -0.05 0.08
1 3 -19 0.1 0.12
-1 -3 19 0.34 0.12
-1 -3 19 0.38 0.12
0 3 -19 -0.04 0.1
0 -3 19 0.09 0.08
-1 3 -19 0.79 0.17
1 -3 19 0.68 0.15
2 -3 19 1.61 0.21
3 -3 19 0.79 0.17
4 -3 19 0.38 0.13
6 2 -19 0.82 0.17
-6 -2 19 0.57 0.15
-6 -2 19 0.59 0.17
5 2 -19 3.3 0.34
5 2 -19 3.54 0.36
-5 -2 19 3.57 0.33
-5 -2 19 3.9 0.37
4 2 -19 0.23 0.12
-4 -2 19 0.09 0.09
-4 -2 19 0.09 0.11
3 2 -19 0.97 0.2
-3 -2 19 0.48 0.14
-3 -2 19 0.75 0.16
2 2 -19 11.98 0.53
-2 -2 19 12.07 0.51
-2 -2 19 11.36 0.49
1 2 -19 4.59 0.32
-1 -2 19 5.06 0.31
0 2 -19 0.78 0.17
0 -2 19 0.99 0.17
-1 2 -19 17 0.61
1 -2 19 16.47 0.59
-2 2 -19 1.18 0.18
2 -2 19 1.16 0.18
3 -2 19 -0.05 0.07
-4 2 -19 0.16 0.13
4 -2 19 0.22 0.1
-5 2 -19 1.6 0.26
5 -2 19 1.75 0.24
6 1 -19 0.09 0.12
-6 -1 19 0.14 0.11
-6 -1 19 0.06 0.1
5 1 -19 5.08 0.37
-5 -1 19 4.58 0.34
-5 -1 19 4.61 0.33
4 1 -19 2.04 0.27
-4 -1 19 2.09 0.25
-4 -1 19 2 0.25
3 1 -19 0.07 0.1
-3 -1 19 0.2 0.1
-3 -1 19 0.29 0.11
2 1 -19 0.26 0.12
-2 -1 19 0.35 0.11
1 1 -19 -0.05 0.09
-1 -1 19 -0.05 0.07
0 1 -19 1.21 0.19
0 -1 19 1.26 0.18
-1 1 -19 20.53 0.69
1 -1 19 20.47 0.65
-2 1 -19 4.19 0.29
2 -1 19 4.1 0.27
-3 1 -19 3.47 0.34
3 -1 19 3.23 0.25
-4 1 -19 1.34 0.23
4 -1 19 1.56 0.21
-5 1 -19 0.61 0.17
5 -1 19 0.54 0.14
6 0 -19 0.3 0.14
-6 0 19 0.18 0.12
5 0 -19 0.01 0.1
-5 0 19 0.01 0.09
4 0 -19 0.97 0.19
3 0 -19 9.09 0.47
-3 0 19 8.59 0.46
2 0 -19 5.11 0.34
1 0 -19 4.12 0.3
0 0 -19 0.12 0.1
-1 0 -19 1.14 0.19
-2 0 -19 -0.09 0.07
-2 0 -19 -0.08 0.09
-3 0 -19 4.03 0.33
-4 0 -19 5.44 0.38
5 -1 -19 4.31 0.35
4 -1 -19 0.33 0.14
3 -1 -19 1.14 0.21
2 -1 -19 3.44 0.34
1 -1 -19 16.43 0.64
0 -1 -19 9.1 0.46
-1 -1 -19 3.31 0.33
-1 -1 -19 3.82 0.29
-2 -1 -19 0.31 0.11
-2 -1 -19 0.26 0.13
-3 -1 -19 0.21 0.11
-4 -1 -19 4.15 0.34
4 1 19 3.38 0.31
4 1 19 3.84 0.29
5 -2 -19 0.2 0.13
4 -2 -19 0.07 0.1
3 -2 -19 0.23 0.13
2 -2 -19 8.48 0.46
1 -2 -19 0.06 0.11
0 -2 -19 8.4 0.45
0 -2 -19 7.98 0.45
-1 -2 -19 0.97 0.19
-1 -2 -19 1.29 0.22
-2 -2 -19 2.38 0.27
-2 -2 -19 2.63 0.3
2 2 19 2.3 0.26
-3 -2 -19 -0.04 0.09
3 2 19 -0.01 0.07
3 2 19 0.13 0.1
4 -3 -19 2 0.28
3 -3 -19 0.96 0.2
2 -3 -19 0.69 0.18
1 -3 -19 1.7 0.25
0 -3 -19 0.43 0.15
0 -3 -19 0.18 0.12
-1 -3 -19 0.96 0.2
-1 -3 -19 0.85 0.18
1 3 19 0.79 0.14
-2 -3 -19 9.74 0.5
-2 -3 -19 10.55 0.51
2 3 19 11.54 0.47
2 3 19 10.47 0.47
2 -4 -19 0.02 0.11
1 -4 -19 0.67 0.18
1 -4 -19 0.39 0.16
0 -4 -19 0.28 0.13
0 -4 -19 0.47 0.16
0 4 19 0.31 0.11
-1 -4 -19 0.18 0.11
-1 -4 -19 0.08 0.1
1 4 19 0.16 0.09
0 -6 20 4.69 0.35
3 5 -20 2.08 0.29
-3 -5 20 1.99 0.24
-3 -5 20 2.21 0.29
2 5 -20 0.11 0.12
-2 -5 20 0 0.08
-2 -5 20 -0.06 0.09
1 5 -20 3.02 0.33
-1 -5 20 2.86 0.29
-1 -5 20 3.54 0.3
0 5 -20 3.58 0.35
0 -5 20 3.97 0.32
-1 5 -20 0.21 0.15
1 -5 20 0.4 0.13
2 -5 20 0.11 0.11
4 4 -20 0 0.08
4 4 -20 0.05 0.13
-4 -4 20 0 0.11
-4 -4 20 0.03 0.09
3 4 -20 0.52 0.18
-3 -4 20 0.54 0.14
-3 -4 20 0.47 0.15
2 4 -20 0.66 0.19
-2 -4 20 0.7 0.16
-2 -4 20 0.74 0.17
1 4 -20 1.8 0.25
-1 -4 20 2.17 0.26
-1 -4 20 1.8 0.25
0 4 -20 0.52 0.17
0 -4 20 0.6 0.16
-1 4 -20 0.89 0.19
1 -4 20 0.46 0.14
2 -4 20 0.07 0.08
3 -4 20 0.58 0.16
4 3 -20 1.48 0.25
-4 -3 20 1.68 0.25
-4 -3 20 1.27 0.2
3 3 -20 0.78 0.19
-3 -3 20 1.53 0.23
-3 -3 20 1.05 0.18
2 3 -20 2.03 0.28
-2 -3 20 1.97 0.25
-2 -3 20 2.03 0.26
1 3 -20 -0.14 0.08
-1 -3 20 -0.03 0.07
0 3 -20 2.93 0.31
0 -3 20 2.55 0.27
-1 3 -20 4.17 0.31
1 -3 20 3.56 0.28
2 -3 20 5.57 0.34
3 -3 20 2.26 0.26
5 2 -20 0.31 0.15
-5 -2 20 0.13 0.12
-5 -2 20 0.13 0.11
4 2 -20 0.69 0.19
-4 -2 20 0.86 0.18
-4 -2 20 0.73 0.17
3 2 -20 2.38 0.29
-3 -2 20 2.34 0.27
-3 -2 20 1.63 0.22
2 2 -20 0.52 0.15
-2 -2 20 0.33 0.11
1 2 -20 4.24 0.33
-1 -2 20 4.48 0.31
0 2 -20 3.12 0.31
0 -2 20 3.02 0.25
-1 2 -20 1.62 0.22
1 -2 20 2.04 0.24
2 -2 20 8.11 0.41
3 -2 20 0.36 0.12
4 -2 20 0.24 0.12
5 1 -20 1.11 0.21
-5 -1 20 0.94 0.19
-5 -1 20 1.2 0.22
4 1 -20 2.73 0.32
-4 -1 20 2.46 0.28
-4 -1 20 2.48 0.28
3 1 -20 4.79 0.35
-3 -1 20 5.42 0.34
2 1 -20 3.24 0.32
-2 -1 20 3.71 0.27
1 1 -20 0.71 0.16
-1 -1 20 0.92 0.16
0 1 -20 2.99 0.3
0 -1 20 2.82 0.23
-1 1 -20 0.86 0.18
1 -1 20 0.67 0.14
2 -1 20 1.94 0.22
-3 1 -20 2.22 0.3
3 -1 20 1.53 0.2
-4 1 -20 5.84 0.42
4 -1 20 5.87 0.36
5 0 -20 2.39 0.3
4 0 -20 11.19 0.54
3 0 -20 4.16 0.32
2 0 -20 -0.02 0.09
1 0 -20 2.89 0.31
0 0 -20 0.17 0.11
-1 0 -20 1.98 0.24
-2 0 -20 0.56 0.17
-2 0 -20 0.8 0.17
-3 0 -20 1.84 0.27
4 -1 -20 3 0.33
3 -1 -20 -0.04 0.09
2 -1 -20 1.67 0.25
1 -1 -20 0.15 0.1
0 -1 -20 4.58 0.33
-1 -1 -20 6.44 0.42
-1 -1 -20 7.19 0.41
-2 -1 -20 4.73 0.36
-2 -1 -20 4.8 0.32
-3 -1 -20 2.42 0.29
4 -2 -20 0.05 0.11
3 -2 -20 0.1 0.13
2 -2 -20 1.59 0.25
1 -2 -20 3.67 0.36
0 -2 -20 4.64 0.35
-1 -2 -20 -0.02 0.1
-1 -2 -20 0.01 0.07
-2 -2 -20 12.17 0.57
-2 -2 -20 11.72 0.54
2 -3 -20 3.02 0.33
1 -3 -20 5.04 0.37
0 -3 -20 0.92 0.21
0 -3 -20 0.57 0.17
-1 -3 -20 0.55 0.16
-1 -3 -20 0.67 0.17
2 4 -21 7.36 0.45
-2 -4 21 6.51 0.4
-2 -4 21 6.43 0.41
1 4 -21 0.37 0.16
-1 -4 21 0.56 0.16
0 4 -21 0.05 0.13
0 -4 21 0.04 0.1
-1 4 -21 2.25 0.28
1 -4 21 2.69 0.3
2 -4 21 0.25 0.11
3 3 -21 0.28 0.15
-3 -3 21 0.22 0.12
-3 -3 21 0.48 0.15
2 3 -21 -0.03 0.1
-2 -3 21 0.2 0.11
1 3 -21 1.94 0.26
-1 -3 21 1.76 0.25
0 3 -21 3.12 0.32
0 -3 21 3.67 0.3
-1 3 -21 0.04 0.09
1 -3 21 0.25 0.12
2 -3 21 3.43 0.29
4 2 -21 4.03 0.38
-4 -2 21 3.91 0.32
-4 -2 21 3.38 0.35
3 2 -21 4.71 0.36
-3 -2 21 3.23 0.33
2 2 -21 0.67 0.17
-2 -2 21 0.48 0.14
1 2 -21 1.66 0.25
-1 -2 21 1.13 0.19
0 2 -21 6.52 0.39
0 -2 21 7.17 0.39
-1 2 -21 3.15 0.31
1 -2 21 2.96 0.3
2 -2 21 1.91 0.24
3 -2 21 4 0.3
4 1 -21 2.06 0.28
-4 -1 21 2.29 0.28
3 1 -21 0.18 0.12
-3 -1 21 0.03 0.09
2 1 -21 0.98 0.2
-2 -1 21 0.83 0.17
1 1 -21 1.16 0.21
-1 -1 21 1.02 0.17
0 1 -21 2.94 0.31
0 -1 21 2.57 0.26
-1 1 -21 6.38 0.38
3 0 -21 0.08 0.11
2 0 -21 0.65 0.18
1 0 -21 12.72 0.58
0 0 -21 9.77 0.5
-1 0 -21 0.06 0.08
3 -1 -21 0.27 0.14
2 -1 -21 0.71 0.17
1 -1 -21 0.23 0.13
0 -1 -21 11.83 0.56
-1 -1 -21 2.8 0.3
-2 -1 -21 0.9 0.2
2 -2 -21 2.03 0.28
1 -2 -21 4.85 0.37
0 -2 -21 8.11 0.47
1 3 -22 0.01 0.11
-1 -3 22 0.08 0.1
0 3 -22 0.07 0.1
0 -3 22 0 0.09
2 2 -22 1.64 0.26
-2 -2 22 1.73 0.24
1 2 -22 1.9 0.27
-1 -2 22 1.44 0.22
0 2 -22 2.98 0.32
0 -2 22 2.68 0.28
-1 2 -22 0.16 0.12
1 -2 22 0.02 0.09
2 1 -22 0.23 0.14
1 1 -22 3.54 0.36
0 1 -22 0.18 0.13
-1 1 -22 0.16 0.12
1 0 -22 -0.09 0.09
0 0 -22 0.25 0.13
