#------------------------------------------------------------------------------
#$Date: 2022-01-04 04:28:20 +0200 (Tue, 04 Jan 2022) $
#$Revision: 271788 $
#$URL: file:///home/coder/svn-repositories/cod/cif/8/00/05/8000563.cif $
#------------------------------------------------------------------------------
#
# This file is available in the Crystallography Open Database (COD),
# http://www.crystallography.net/
#
# All data on this site have been placed in the public domain by the
# contributors.
#
data_8000563
loop_
_publ_author_name
'Wang, Long'
'Cai, Wanlin'
'Sun, Jing'
'Wu, Yuling'
'Zhang, Bin'
'Tian, Xiangbin'
'Guo, Shaoting'
'Liang, WanZhen'
'Fu, Hongbing'
'Yao, Jiannian'
_publ_section_title
;
 H-Type-like Aggregation-Accelerated Singlet Fission Process in
 Dipyrrolonaphthyridinedione Thin Film: The Role of Charge
 Transfer/Excimer Mixed Intermediate State.
;
_journal_issue                   51
_journal_name_full               'The journal of physical chemistry letters'
_journal_page_first              12276
_journal_page_last               12282
_journal_paper_doi               10.1021/acs.jpclett.1c03265
_journal_volume                  12
_journal_year                    2021
_chemical_formula_moiety         'C14 H8 N2 O2'
_chemical_formula_sum            'C14 H8 N2 O2'
_chemical_formula_weight         236.22
_space_group_crystal_system      monoclinic
_space_group_IT_number           14
_space_group_name_Hall           '-P 2yn'
_space_group_name_H-M_alt        'P 1 21/n 1'
_atom_sites_solution_hydrogens   geom
_atom_sites_solution_primary     dual
_audit_creation_date             2019-06-24
_audit_creation_method
;
Olex2 1.2
(compiled 2018.05.29 svn.r3508 for OlexSys, GUI svn.r5506)
;
_cell_angle_alpha                90
_cell_angle_beta                 94.592(3)
_cell_angle_gamma                90
_cell_formula_units_Z            2
_cell_length_a                   6.6191(2)
_cell_length_b                   3.79700(10)
_cell_length_c                   19.9030(5)
_cell_measurement_reflns_used    3574
_cell_measurement_temperature    170.00(11)
_cell_measurement_theta_max      71.7040
_cell_measurement_theta_min      4.4500
_cell_volume                     498.61(2)
_computing_cell_refinement       'CrysAlisPro 1.171.40.14e (Rigaku OD, 2018)'
_computing_data_collection       'CrysAlisPro 1.171.40.14e (Rigaku OD, 2018)'
_computing_data_reduction        'CrysAlisPro 1.171.40.14e (Rigaku OD, 2018)'
_computing_molecular_graphics    'Olex2 (Dolomanov et al., 2009)'
_computing_publication_material  'Olex2 (Dolomanov et al., 2009)'
_computing_structure_refinement  'ShelXL (Sheldrick, 2015)'
_computing_structure_solution    'ShelXT (Sheldrick, 2015)'
_diffrn_ambient_environment      N~2~
_diffrn_ambient_temperature      170.00(11)
_diffrn_detector                 'CCD plate'
_diffrn_detector_type            HyPix
_diffrn_measured_fraction_theta_full 1.000
_diffrn_measured_fraction_theta_max 0.961
_diffrn_measurement_details
;
List of Runs (angles in degrees, time in seconds):

  # Type    Start    End  Width  t~exp~   \w     \q     \k     \f   Frames
--------------------------------------------------------------------------
  1  \w   -119.00 -59.00   1.00    0.20    --  -46.95-143.00-124.00   60
  2  \w   -119.00 -70.00   1.00    0.20    --  -46.95-127.00  45.00   49
  3  \w     26.00 105.00   1.00    0.20    --   46.95-143.00-124.00   79
  4  \w     18.00  96.00   1.00    0.20    --   46.95-127.00  45.00   78
  5  \w   -130.00 -26.00   1.00    0.50    --  -99.00 143.00 -68.00  104
  6  \w     65.00 169.00   1.00    0.50    --  103.25 143.00 -68.00  104
  7  \w   -118.00 -32.00   1.00    0.20    --  -46.95 -57.00  30.00   86
  8  \w   -119.00 -71.00   1.00    0.20    --  -46.95-125.00 150.00   48
  9  \w    -59.00  26.00   1.00    0.20    --  -46.95  38.00 120.00   85
 10  \w   -119.00 -71.00   1.00    0.20    --  -46.95-125.00-150.00   48
 11  \w   -118.00 -26.00   1.00    0.50    --  -99.00 127.00 121.00   92
 12  \w   -113.00 -24.00   1.00    0.50    --  -99.00  15.00 -90.00   89
 13  \w   -112.00 -27.00   1.00    0.50    --  -99.00  45.00 -60.00   85
 14  \w   -168.00 -27.00   1.00    0.50    --  -99.00   0.00 120.00  141
 15  \w   -168.00 -86.00   1.00    0.50    --  -99.00 -30.00 -60.00   82
 16  \w   -122.00 -26.00   1.00    0.50    --  -99.00  77.00 -30.00   96
 17  \w   -112.00 -27.00   1.00    0.50    --  -99.00  45.00 150.00   85
 18  \w   -115.00 -26.00   1.00    0.50    --  -99.00  61.00 150.00   89
 19  \w   -168.00 -81.00   1.00    0.50    --  -99.00 -94.00 150.00   87
 20  \w     31.00 120.00   1.00    0.50    --  103.25 -61.00 -60.00   89
 21  \w     28.00 116.00   1.00    0.50    --  103.25 -30.00   0.00   88
 22  \w   -118.00 -32.00   1.00    0.20    --  -46.95 -57.00-150.00   86
 23  \w   -119.00 -24.00   1.00    0.20    --  -46.95 -77.00  30.00   95
 24  \w   -119.00 -24.00   1.00    0.20    --  -46.95 -77.00 120.00   95
 25  \w   -119.00 -24.00   1.00    0.20    --  -46.95 -77.00-180.00   95
 26  \w   -119.00 -24.00   1.00    0.20    --  -46.95 -77.00 -60.00   95
 27  \w     32.00 118.00   1.00    0.20    --   46.95  57.00  30.00   86
 28  \w     24.00 119.00   1.00    0.20    --   46.95  77.00 120.00   95
 29  \w   -168.00 -86.00   1.00    0.50    --  -99.00 -45.00 150.00   82
 30  \w   -168.00 -86.00   1.00    0.50    --  -99.00 -30.00-120.00   82
 31  \w   -168.00 -82.00   1.00    0.50    --  -99.00 -61.00  60.00   86
 32  \w     87.00 169.00   1.00    0.50    --  103.25  61.00   0.00   82
;
_diffrn_measurement_device       'four-circle diffractometer'
_diffrn_measurement_device_type  'XtaLAB Synergy R, HyPix'
_diffrn_measurement_method       '\w scans'
_diffrn_orient_matrix_type
'CrysAlisPro convention (1999,Acta A55,543-557)'
_diffrn_orient_matrix_UB_11      0.0080983000
_diffrn_orient_matrix_UB_12      -0.0473168000
_diffrn_orient_matrix_UB_13      -0.0766150000
_diffrn_orient_matrix_UB_21      -0.0134632000
_diffrn_orient_matrix_UB_22      -0.4023563000
_diffrn_orient_matrix_UB_23      0.0085203000
_diffrn_orient_matrix_UB_31      -0.2329689000
_diffrn_orient_matrix_UB_32      0.0214320000
_diffrn_orient_matrix_UB_33      -0.0094116000
_diffrn_radiation_monochromator  mirror
_diffrn_radiation_probe          x-ray
_diffrn_radiation_type           CuK\a
_diffrn_radiation_wavelength     1.54184
_diffrn_reflns_av_R_equivalents  0.0394
_diffrn_reflns_av_unetI/netI     0.0221
_diffrn_reflns_Laue_measured_fraction_full 1.000
_diffrn_reflns_Laue_measured_fraction_max 0.961
_diffrn_reflns_limit_h_max       6
_diffrn_reflns_limit_h_min       -7
_diffrn_reflns_limit_k_max       4
_diffrn_reflns_limit_k_min       -4
_diffrn_reflns_limit_l_max       24
_diffrn_reflns_limit_l_min       -24
_diffrn_reflns_number            8690
_diffrn_reflns_point_group_measured_fraction_full 1.000
_diffrn_reflns_point_group_measured_fraction_max 0.961
_diffrn_reflns_theta_full        67.684
_diffrn_reflns_theta_max         74.928
_diffrn_reflns_theta_min         4.457
_diffrn_source                   'Rotating-anode X-ray tube'
_diffrn_source_type              'PhotonJet R (Cu) X-ray Source'
_exptl_absorpt_coefficient_mu    0.890
_exptl_absorpt_correction_T_max  1.00000
_exptl_absorpt_correction_T_min  0.73553
_exptl_absorpt_correction_type   multi-scan
_exptl_absorpt_process_details
;
CrysAlisPro 1.171.40.14e (Rigaku Oxford Diffraction, 2018)
Empirical absorption correction using spherical harmonics,
 implemented in SCALE3 ABSPACK scaling algorithm.
;
_exptl_crystal_colour            red
_exptl_crystal_colour_primary    red
_exptl_crystal_density_diffrn    1.573
_exptl_crystal_description       plate
_exptl_crystal_F_000             244
_exptl_crystal_size_max          0.34
_exptl_crystal_size_mid          0.05
_exptl_crystal_size_min          0.01
_refine_diff_density_max         0.162
_refine_diff_density_min         -0.256
_refine_diff_density_rms         0.041
_refine_ls_extinction_method     none
_refine_ls_goodness_of_fit_ref   1.117
_refine_ls_hydrogen_treatment    constr
_refine_ls_matrix_type           full
_refine_ls_number_parameters     82
_refine_ls_number_reflns         995
_refine_ls_number_restraints     0
_refine_ls_restrained_S_all      1.117
_refine_ls_R_factor_all          0.0403
_refine_ls_R_factor_gt           0.0370
_refine_ls_shift/su_max          0.000
_refine_ls_shift/su_mean         0.000
_refine_ls_structure_factor_coef Fsqd
_refine_ls_weighting_details
'w=1/[\s^2^(Fo^2^)+(0.0410P)^2^+0.2063P] where P=(Fo^2^+2Fc^2^)/3'
_refine_ls_weighting_scheme      calc
_refine_ls_wR_factor_gt          0.0929
_refine_ls_wR_factor_ref         0.0951
_reflns_Friedel_coverage         0.000
_reflns_number_gt                926
_reflns_number_total             995
_reflns_threshold_expression     'I > 2\s(I)'
_cod_data_source_file            jz1c03265_si_002.cif
_cod_data_source_block           tx941
_cod_database_code               8000563
_shelx_shelxl_version_number     2018/3
_chemical_oxdiff_formula         CHNO
_shelx_space_group_comment
;
The symmetry employed for this shelxl refinement is uniquely defined
by the following loop, which should always be used as a source of
symmetry information in preference to the above space-group names.
They are only intended as comments.
;
_reflns_odcompleteness_completeness 100.00
_reflns_odcompleteness_iscentric 1
_reflns_odcompleteness_theta     68.13
_olex2_refinement_description
;
1. Fixed Uiso
 At 1.2 times of:
  All C(H) groups
2.a Aromatic/amide H refined with riding coordinates:
 C2(H2), C4(H4), C5(H5), C6(H6)
;
_shelx_res_file
;
TITL tx941_a.res in P2(1)/n
    tx941.res
    created by SHELXL-2018/3 at 15:08:52 on 24-Jun-2019
REM Old TITL TX941 in P2(1)/n
REM SHELXT solution in P2(1)/n: R1 0.098, Rweak 0.814, Alpha 0.022
REM <I/s> 0.858 for 157 systematic absences, Orientation as input
REM Formula found by SHELXT: C5 N O
CELL 1.54184 6.6191 3.797 19.903 90 94.592 90
ZERR 2 0.0002 0.0001 0.0005 0 0.003 0
LATT 1
SYMM 0.5-X,0.5+Y,0.5-Z
SFAC C H N O
UNIT 28 16 4 4

L.S. 4
PLAN  5
BOND
LIST 6
fmap 2
acta
REM <olex2.extras>
REM <HklSrc "%.\\TX941.hkl">
REM </olex2.extras>

WGHT    0.041000    0.206300
FVAR       1.26446
O1    4    0.862986    0.467470    0.601606    11.00000    0.02399    0.04565 =
         0.03006   -0.00101   -0.00386    0.00585
N1    3    0.559118    0.719132    0.618540    11.00000    0.02338    0.02578 =
         0.02268    0.00190    0.00127   -0.00012
C1    1    0.395826    0.548031    0.489523    11.00000    0.02091    0.02369 =
         0.02346    0.00407    0.00099   -0.00078
C2    1    0.278845    0.718665    0.532102    11.00000    0.01983    0.02582 =
         0.02720    0.00425    0.00038    0.00061
AFIX  43
H2    2    0.145928    0.777599    0.517815    11.00000   -1.20000
AFIX   0
C3    1    0.357919    0.807464    0.598122    11.00000    0.02187    0.02422 =
         0.02694    0.00366    0.00285   -0.00037
C4    1    0.278800    0.973372    0.651628    11.00000    0.02661    0.02745 =
         0.02940    0.00080    0.00610    0.00056
AFIX  43
H4    2    0.148174    1.062760    0.652330    11.00000   -1.20000
AFIX   0
C5    1    0.432074    0.983323    0.705345    11.00000    0.03378    0.02968 =
         0.02512   -0.00158    0.00500   -0.00278
AFIX  43
H5    2    0.419346    1.079336    0.747785    11.00000   -1.20000
AFIX   0
C6    1    0.601778    0.828025    0.684270    11.00000    0.02969    0.03019 =
         0.02325    0.00103   -0.00147   -0.00288
AFIX  43
H6    2    0.724754    0.800389    0.709763    11.00000   -1.20000
AFIX   0
C7    1    0.691339    0.539441    0.579088    11.00000    0.02224    0.02571 =
         0.02583    0.00399    0.00150   -0.00071
HKLF 4




REM  tx941_a.res in P2(1)/n
REM wR2 = 0.0951, GooF = S = 1.117, Restrained GooF = 1.117 for all data
REM R1 = 0.0370 for 926 Fo > 4sig(Fo) and 0.0403 for all 995 data
REM 82 parameters refined using 0 restraints

END

WGHT      0.0410      0.2063

REM Highest difference peak  0.162,  deepest hole -0.256,  1-sigma level  0.041
Q1    1   0.3605  0.5077  0.4604  11.00000  0.05    0.16
Q2    1   0.3701  0.7215  0.4993  11.00000  0.05    0.15
Q3    1   0.5000  0.5000  0.5000  10.50000  0.05    0.15
Q4    1   0.7673  0.7636  0.6944  11.00000  0.05    0.14
Q5    1   0.3226  0.8201  0.5654  11.00000  0.05    0.12
;
_shelx_res_checksum              5963
_shelx_hkl_file
;
   0   0   1    0.31    0.32
   0   0   1    0.04    0.25
   0   0  -1    0.12    0.22
   0   0  -2 1263.49   58.69
   0   0   2 1242.96   58.66
   0   0  -2 1210.75   58.59
   0   0   2 1195.30   58.60
   0   0  -3    1.07    1.50
   0   0  -3    0.08    0.45
   0   0   3    0.96    1.20
   0   0   3    0.74    1.61
   0   0  -3   -0.90    1.10
   0   0   4 2794.57  117.32
   0   0  -4 2705.51  117.29
   0   0  -4 2675.16  117.51
   0   0   4 2723.39  117.45
   0   0   5    3.08    2.25
   0   0  -5    3.42    2.46
   0   0  -5    2.81    2.45
   0   0   5    3.97    2.95
   0   0   5    2.58    1.63
   0   0  -5    1.26    0.58
   0   0  -5    0.19    2.12
   0   0  -6    7.69    2.27
   0   0   6    6.19    2.49
   0   0  -6    8.46    1.86
   0   0  -6   10.57    2.17
   0   0   6    8.50    1.67
   0   0   6    6.37    2.06
   0   0  -6    4.39    0.48
   0   0  -7    0.91    2.32
   0   0   7    1.40    1.65
   0   0  -7    0.39    2.16
   0   0  -7    1.86    1.08
   0   0  -7    0.77    1.84
   0   0   7    1.61    2.01
   0   0   7   -0.62    2.52
   0   0  -8  295.42   15.38
   0   0  -8  301.56   16.14
   0   0  -8  310.57   16.03
   0   0  -8  326.52   16.42
   0   0   8  335.90   15.96
   0   0   8  325.44   16.06
   0   0   8  322.57   16.38
   0   0   9    0.78    1.86
   0   0  -9   -0.40    2.18
   0   0  -9    1.41    2.52
   0   0   9   -0.17    3.09
   0   0  -9    0.94    2.84
   0   0   9   -0.83    2.25
   0   0  -9   -0.79    1.12
   0   0 -10 3150.26  153.91
   0   0  10 3224.45  153.77
   0   0  10 3161.19  154.10
   0   0 -10 3254.58  153.74
   0   0  10 3373.12  153.75
   0   0 -10 3087.00  152.82
   0   0 -10 3410.34  154.29
   0   0  11    0.22    3.03
   0   0 -11    1.83    2.62
   0   0  11   -1.05    2.08
   0   0 -11    0.42    2.80
   0   0 -11    0.35    2.25
   0   0  11    0.33    1.53
   0   0  11    2.73    2.58
   0   0  12    7.12    1.71
   0   0 -12    6.11    1.36
   0   0 -12   10.66    3.42
   0   0 -12    9.20    2.75
   0   0  12    5.36    2.70
   0   0  12    7.45    1.37
   0   0 -12    6.11    3.72
   0   0 -12    7.86    1.61
   0   0 -12    8.02    3.23
   0   0  12   11.62    2.60
   0   0 -12    6.35    3.23
   0   0  12    9.43    3.64
   0   0  12    4.33    1.28
   0   0 -13    2.97    3.93
   0   0 -13   -0.87    2.82
   0   0 -13    0.26    3.08
   0   0  13   -2.76    2.55
   0   0  13    0.48    1.39
   0   0  13    0.21    1.25
   0   0  13   -1.32    1.63
   0   0  13    2.10    2.88
   0   0 -13   -0.14    1.32
   0   0 -13    0.56    1.47
   0   0  13    3.33    3.50
   0   0 -13    4.25    3.49
   0   0 -14  268.80   14.17
   0   0  14  222.39   13.20
   0   0  14  192.27   11.40
   0   0 -14  241.39   11.68
   0   0  14  234.93   11.65
   0   0 -14  208.56   13.32
   0   0  14  255.24   13.84
   0   0 -14  241.39   13.72
   0   0  14  244.82   13.23
   0   0  15   -0.29    2.56
   0   0 -15    2.53    3.99
   0   0 -15    1.41    1.84
   0   0 -15    2.53    3.18
   0   0 -15   -2.02    3.66
   0   0  15   -0.34    3.85
   0   0  15    1.74    1.68
   0   0  15   -0.29    3.17
   0   0  16  142.66    9.11
   0   0  16  127.26    9.84
   0   0 -16  135.05    7.61
   0   0  16  134.12    7.47
   0   0 -16  134.34    7.60
   0   0 -16  122.23    9.52
   0   0 -16  131.09    9.37
   0   0 -16  123.98    9.88
   0   0  17    2.23    2.23
   0   0  17   -1.33    1.99
   0   0 -17   -1.06    3.61
   0   0 -17    1.19    2.17
   0   0 -17   -2.26    3.75
   0   0 -17    1.20    4.16
   0   0  17    2.72    3.05
   0   0 -17    4.84    1.96
   0   0  17   -2.35    4.30
   0   0 -18   20.20    4.62
   0   0  18   22.62    2.69
   0   0 -18   21.20    2.99
   0   0 -18   14.98    4.02
   0   0 -18   22.61    2.72
   0   0  18   26.22    3.32
   0   0  18   25.84    5.14
   0   0 -18   20.43    5.01
   0   0  18   21.68    4.02
   0   0 -19   -0.23    1.90
   0   0  19    1.01    1.91
   0   0  19    1.95    2.70
   0   0  19    1.19    2.58
   0   0 -19    1.71    2.30
   0   0  20   77.29    5.28
   0   0 -20   72.47    4.91
   0   0 -20   76.98    5.40
   0   0  20   59.60    5.14
   0   0  20   84.33    4.90
   0   0 -20   67.23    4.53
   0   0  21    2.52    2.36
   0   0 -21    0.83    2.62
   0   0 -21    0.34    0.75
   0   0  21   -0.72    2.25
   0   0  21    3.46    1.90
   0   0 -21    0.95    2.00
   0   0 -22   28.16    2.75
   0   0  22   26.56    2.83
   0   0  22   26.95    2.49
   0   0  22   25.55    2.81
   0   0 -22   17.35    2.86
   0   0 -23    0.09    1.66
   0   0  23   -1.09    1.42
   0   0 -23    1.08    1.97
   0   0  23    3.56    1.79
   0   0  24    9.12    1.54
   0   0 -24    5.71    1.71
   0   0 -24    8.22    1.56
   0   1   0   -0.07    1.43
   0  -1   0   -0.29    2.11
   0  -1   0    0.82    2.02
   0   1   0    0.31    0.67
   0   1   0    2.01    2.05
   0   1   0    1.78    1.94
   0   1   1 1534.74   77.98
   0   1   1 1602.06   78.27
   0  -1  -1 1650.11   78.26
   0  -1   1 1634.44   78.30
   0   1  -1 1645.58   78.17
   0   1  -1 1561.93   78.33
   0   1   1 1675.80   78.43
   0   1  -1 1672.04   77.78
   0  -1  -1 1697.09   78.25
   0   1   1 1579.25   77.92
   0   1  -2 4835.32  227.75
   0  -1  -2 4726.38  227.84
   0   1  -2 4825.83  227.92
   0  -1  -2 4815.81  228.00
   0  -1  -2 4779.60  227.49
   0   1   2 4883.45  228.25
   0   1  -2 4850.95  228.09
   0   1   2 4742.49  228.01
   0   1   2 4671.04  227.86
   0   1  -2 4728.84  227.50
   0   1   2 4610.83  227.81
   0  -1  -2 4845.44  227.99
   0   1   3 3536.51  167.99
   0  -1  -3 3445.84  167.38
   0  -1  -3 3470.08  167.95
   0   1   3 3569.66  167.99
   0  -1  -3 3639.69  167.71
   0   1   3 3515.34  167.99
   0   1  -3 3471.55  168.09
   0   1   3 3537.58  168.39
   0  -1  -3 3607.46  168.01
   0   1  -3 3531.65  167.72
   0  -1  -3 3562.48  167.93
   0   1  -3 3420.96  168.22
   0   1  -3 3568.52  168.28
   0   1  -4   48.44    4.00
   0  -1  -4   45.99    3.10
   0  -1  -4   54.58    2.94
   0   1   4   52.11    4.26
   0   1   4   54.30    3.46
   0   1  -4   55.10    3.85
   0  -1  -4   48.98    3.49
   0   1   4   51.15    3.80
   0  -1  -4   50.98    3.53
   0  -1  -4   53.11    3.40
   0   1  -4   53.12    4.11
   0  -1   4   48.34    3.95
   0   1   4   54.90    3.81
   0  -1  -5 2126.87  100.66
   0   1   5 2040.10  101.06
   0  -1  -5 2121.83  100.93
   0   1  -5 2063.47  101.16
   0   1  -5 2150.34  101.22
   0  -1  -5 2058.32  100.60
   0   1  -5 2150.36  101.44
   0  -1  -5 2182.27  100.87
   0  -1   5 2016.49  101.17
   0   1   5 2089.08  101.13
   0   1  -6    5.80    2.81
   0  -1   6    4.37    2.46
   0   1  -6    9.38    2.94
   0   1   6    6.25    2.62
   0   1   6    4.06    1.09
   0  -1  -6    6.12    1.75
   0   1  -6    7.54    2.40
   0  -1  -6    4.43    1.66
   0   1   6    8.89    2.79
   0  -1   6    7.16    2.25
   0  -1  -6    4.97    1.74
   0  -1  -6    4.94    2.07
   0  -1   7    2.56    2.36
   0  -1  -7    3.54    1.94
   0   1  -7    2.06    2.20
   0  -1  -7    4.48    1.90
   0  -1   7    1.87    2.32
   0   1  -7    0.49    2.68
   0  -1  -7    2.81    1.95
   0  -1  -7    0.96    2.03
   0   1   7    3.11    3.19
   0   1  -7    0.19    2.94
   0   1  -8   14.41    3.35
   0  -1  -8   11.86    2.21
   0   1   8   14.52    3.18
   0  -1  -8   14.63    2.46
   0   1  -8   10.98    2.49
   0   1  -8   10.17    2.26
   0   1   8   15.15    3.38
   0  -1  -8   12.33    2.24
   0  -1   8   11.55    2.63
   0  -1   8   15.46    2.87
   0  -1  -8   14.15    2.66
   0  -1  -8   17.25    3.04
   0   1   9  766.51   38.07
   0  -1   9  785.25   37.71
   0   1  -9  792.21   37.93
   0  -1  -9  763.14   37.52
   0  -1   9  764.34   37.68
   0  -1  -9  768.99   37.30
   0   1  -9  725.32   37.41
   0  -1  -9  789.90   37.40
   0   1   9  744.51   38.11
   0  -1  -9  739.72   37.77
   0   1  -9  812.77   38.17
   0   1  -9  753.82   38.02
   0  -1  -9  772.50   37.38
   0   1  -9  684.87   37.16
   0  -1 -10  130.02    7.45
   0  -1  10  104.65    6.57
   0   1 -10  138.11    8.38
   0  -1 -10  129.03    7.32
   0   1  10  139.32    8.31
   0   1  10  140.76    8.42
   0  -1  10  134.70    7.73
   0   1  10  121.54    6.60
   0   1 -10  143.51    8.23
   0  -1 -10  119.98    6.42
   0  -1 -10  139.52    8.11
   0  -1 -10  126.67    6.65
   0   1 -10  116.44    6.73
   0   1 -10  129.28    7.28
   0  -1  10  137.50    7.98
   0  -1 -10  120.24    7.54
   0   1 -10  112.60    6.89
   0   1 -10  118.68    8.14
   0   1 -10  114.14    6.64
   0  -1 -11  446.90   23.46
   0   1  11  453.32   22.43
   0  -1 -11  458.24   22.30
   0  -1  11  501.51   23.81
   0   1 -11  504.75   24.10
   0  -1  11  425.72   22.46
   0   1 -11  462.53   24.18
   0   1 -11  424.48   22.50
   0  -1  11  474.71   23.53
   0  -1 -11  483.89   23.38
   0   1  11  469.48   24.27
   0   1 -11  457.31   22.63
   0   1 -11  503.69   24.37
   0  -1 -11  478.87   23.89
   0  -1 -11  444.98   22.49
   0   1 -11  451.23   22.98
   0   1  11  480.72   22.84
   0   1 -11  414.25   22.64
   0  -1 -11  465.42   23.26
   0   1  11  496.44   24.22
   0   1  12  577.18   28.18
   0   1 -12  509.44   26.18
   0  -1 -12  536.93   27.16
   0  -1  12  539.42   27.31
   0   1  12  556.54   26.08
   0   1  12  566.40   26.68
   0  -1 -12  537.15   27.44
   0  -1 -12  543.78   27.26
   0  -1  12  557.90   27.71
   0   1 -12  512.58   26.43
   0  -1 -12  585.26   27.97
   0   1 -12  580.54   28.34
   0   1  12  521.76   27.70
   0  -1 -12  521.52   26.35
   0   1 -12  490.34   26.32
   0  -1  12  505.19   26.28
   0   1 -12  570.33   28.03
   0  -1 -12  541.61   26.11
   0   1  12  557.95   28.21
   0   1  12  531.19   26.23
   0  -1 -13   17.88    2.40
   0   1  13   25.11    3.05
   0   1 -13   16.64    2.20
   0  -1  13   25.49    3.03
   0  -1 -13   23.63    3.68
   0   1 -13   22.92    2.74
   0  -1  13   15.78    3.90
   0   1 -13   23.36    4.74
   0   1  13   18.42    4.48
   0  -1  13   21.12    3.20
   0  -1 -13   22.59    3.34
   0   1 -13   26.09    4.47
   0  -1  13   19.77    2.29
   0  -1 -13   22.85    4.40
   0  -1 -13   23.68    2.18
   0   1  13   23.47    4.21
   0   1  13   25.45    4.05
   0   1 -13   19.50    2.53
   0   1  13   21.70    2.01
   0   1  13   19.02    2.46
   0   1 -13   18.56    4.35
   0  -1 -13   16.13    3.18
   0   1  13   24.75    2.23
   0   1  14   35.77    2.76
   0  -1 -14   30.16    2.53
   0   1 -14   24.24    2.98
   0   1  14   34.14    2.43
   0   1 -14   32.14    4.97
   0   1 -14   27.25    3.13
   0   1 -14   29.46    4.68
   0  -1  14   31.25    2.89
   0   1  14   29.40    4.46
   0   1  14   31.17    3.41
   0  -1 -14   24.22    3.64
   0   1  14   27.25    4.55
   0   1  14   29.28    2.82
   0  -1  14   19.75    3.24
   0   1 -14   31.44    4.94
   0  -1  14   27.17    4.33
   0  -1  14   26.24    3.42
   0  -1 -14   28.94    3.89
   0  -1 -14   32.88    4.83
   0   1 -15   51.52    6.14
   0   1 -15   60.74    6.44
   0   1 -15   64.78    4.52
   0   1  15   60.96    6.11
   0  -1  15   51.49    5.75
   0  -1 -15   55.46    6.17
   0  -1 -15   50.99    4.95
   0   1  15   54.42    5.81
   0   1 -15   60.40    4.51
   0   1  15   72.02    4.15
   0  -1 -15   58.10    5.34
   0  -1  15   54.01    4.91
   0  -1  15   55.08    4.15
   0   1  15   58.02    4.16
   0  -1 -15   60.85    3.90
   0   1 -15   56.09    6.52
   0   1  15   62.47    3.78
   0   1 -16   32.88    5.54
   0  -1 -16   40.73    3.16
   0   1 -16   38.56    5.57
   0  -1  16   33.56    4.10
   0  -1  16   35.60    3.42
   0   1 -16   36.32    3.65
   0   1 -16   39.21    5.46
   0   1  16   43.36    5.48
   0   1  16   41.67    5.79
   0  -1 -16   39.72    5.32
   0   1 -16   34.91    5.39
   0   1 -16   39.50    3.78
   0   1  16   49.81    3.43
   0   1  16   38.90    5.35
   0  -1  16   44.28    6.03
   0   1  16   40.18    3.53
   0  -1  17   73.46    5.19
   0   1  17   64.59    7.09
   0   1 -17   59.34    6.99
   0  -1  17   59.75    7.25
   0   1  17   66.01    5.17
   0   1  17   55.98    7.26
   0  -1 -17   77.14    4.70
   0  -1 -17   70.50    6.86
   0   1 -17   84.36    5.25
   0   1  17   81.28    4.94
   0  -1  17   72.89    5.06
   0   1 -17   77.04    7.20
   0   1 -17   83.01    7.72
   0   1 -17   74.88    5.22
   0   1  17   71.06    6.82
   0   1  17   84.09    4.91
   0   1  18   -0.42    3.54
   0  -1  18   -5.47    4.56
   0   1 -18   -4.11    4.04
   0  -1 -18    2.94    4.32
   0  -1 -18    0.34    2.19
   0   1 -18    4.00    2.73
   0   1  18    4.89    2.35
   0  -1 -18    1.08    3.65
   0   1 -18    1.93    2.67
   0   1 -18    2.24    2.41
   0  -1  18    0.61    2.22
   0   1 -18    0.79    3.55
   0  -1  18   -0.55    1.96
   0   1  18   -1.81    4.26
   0  -1 -18    3.82    2.58
   0   1 -18   -2.61    4.44
   0   1  18    1.79    3.49
   0   1 -18    1.69    4.15
   0   1  18    2.70    2.13
   0   1  18    1.31    1.90
   0   1 -19   25.13    3.21
   0   1  19   28.07    2.82
   0  -1 -19   22.70    3.26
   0  -1  19   28.29    3.08
   0   1 -19   32.66    3.09
   0  -1  19   24.42    3.03
   0  -1  19   26.27    2.91
   0  -1 -19   30.57    3.00
   0   1 -19   26.06    3.26
   0   1  19   24.26    3.18
   0   1  19   28.22    2.84
   0  -1 -20   38.93    3.55
   0   1 -20   34.03    3.56
   0   1 -20   40.47    3.44
   0  -1  20   42.98    3.58
   0   1  20   44.13    3.26
   0  -1  20   42.46    3.40
   0  -1 -20   41.59    3.34
   0  -1  20   40.71    3.34
   0   1  20   32.99    3.32
   0   1 -20   44.11    3.70
   0   1 -21   10.10    2.27
   0   1  21    4.65    1.80
   0  -1  21    8.46    2.03
   0   1  21    5.91    1.93
   0   1 -21    7.47    1.88
   0   1 -21    4.88    2.16
   0  -1  21    7.89    2.33
   0  -1  21    4.11    2.00
   0  -1 -21    8.16    2.14
   0  -1  21    4.89    1.92
   0  -1 -21    6.04    2.21
   0  -1  22    0.54    1.25
   0   1  22   23.71    2.25
   0  -1  22   26.09    2.24
   0  -1  22   25.51    2.17
   0   1 -22   27.80    2.50
   0  -1 -22   29.51    2.42
   0  -1  22   27.90    2.50
   0   1  22   27.65    2.04
   0   1  22   33.32    2.82
   0   1 -22   22.53    2.42
   0   1 -22    0.79    1.07
   0  -1 -22   26.19    2.38
   0  -1 -23   14.47    1.84
   0  -1  23   11.86    1.57
   0   1 -23   11.27    1.81
   0  -1  23   12.33    1.62
   0   1  23   14.91    2.22
   0  -1 -23   10.03    1.82
   0   1 -23   15.06    1.93
   0  -1  23   12.27    1.88
   0   1  23   12.78    1.56
   0   1  23    9.01    1.63
   0   1  24   25.46    2.11
   0   2   0  290.20   14.87
   0  -2   0  323.07   16.28
   0  -2   0  277.67   16.12
   0  -2   0  298.47   15.42
   0   2   0  284.35   15.43
   0   2   0  303.93   15.37
   0   2   0  322.11   16.22
   0   2  -1  205.32   11.53
   0   2  -1  222.16   12.19
   0  -2  -1  216.82   11.35
   0   2   1  210.75   10.96
   0  -2  -1  231.57   12.22
   0   2  -1  209.43   11.21
   0   2   1  233.47   12.09
   0   2   1  205.86   11.31
   0  -2   1  213.47   12.39
   0   2   1  202.26   11.24
   0   2  -1  204.46   10.68
   0  -2   1  213.21   12.14
   0  -2  -1  213.08   12.05
   0   2   2   16.31    2.36
   0   2   2   19.10    3.69
   0   2   2   23.29    3.40
   0   2  -2   23.73    2.77
   0   2   2   13.19    2.18
   0   2   2   20.16    2.63
   0  -2   2   16.78    3.59
   0  -2   2   19.38    3.38
   0  -2  -2   18.91    2.47
   0  -2  -2   18.28    2.88
   0  -2  -2   16.58    2.97
   0   2   3    3.55    1.97
   0  -2  -3    0.36    2.32
   0   2   3    0.82    1.36
   0  -2  -3    1.28    2.24
   0   2   3   -1.80    2.71
   0  -2  -3    1.26    1.87
   0   2   3    0.95    2.30
   0   2  -3    2.91    2.42
   0  -2   3   -1.49    2.74
   0   2   3   -0.90    2.25
   0  -2  -4    2.48    1.99
   0   2  -4    4.19    1.81
   0   2   4    0.82    3.17
   0   2   4   -0.49    2.08
   0   2  -4    0.42    1.55
   0  -2   4    1.00    1.67
   0  -2  -4   -0.14    1.04
   0   2   4   -0.68    1.32
   0  -2  -4    0.17    2.07
   0   2  -4    1.33    1.68
   0  -2   4    1.51    1.72
   0   2  -4    1.45    2.93
   0   2   4    1.19    2.09
   0   2   4    1.97    2.15
   0   2  -4    2.34    2.46
   0  -2  -4    1.63    2.24
   0   2   4    1.50    2.27
   0   2  -5   67.63    4.54
   0   2  -5   79.24    5.06
   0   2   5   75.35    5.26
   0   2   5   69.42    5.12
   0   2   5   57.43    4.52
   0   2   5   76.07    4.53
   0  -2  -5   81.96    5.25
   0  -2   5   71.09    4.72
   0  -2   5   76.19    4.82
   0   2  -5   74.03    4.64
   0  -2  -5   82.07    5.35
   0   2   5   78.02    5.45
   0   2   5   75.29    5.50
   0  -2  -5   85.48    4.64
   0  -2   5   75.03    6.06
   0   2  -5   76.99    5.98
   0   2   5   65.06    6.30
   0   2  -5   71.63    5.89
   0  -2  -5   85.73    5.20
   0  -2  -6    3.02    2.01
   0   2  -6    3.56    2.74
   0   2  -6    2.47    1.83
   0  -2   6    1.50    1.78
   0   2  -6    0.81    1.78
   0   2  -6   -0.16    2.06
   0   2   6    0.19    2.51
   0   2   6    0.62    3.11
   0   2   6   -0.14    1.67
   0   2   6    1.17    1.89
   0  -2  -6    1.66    1.56
   0   2  -6    4.88    2.98
   0   2  -6    2.46    3.16
   0  -2   6    2.53    1.95
   0  -2   6    3.91    3.17
   0  -2  -6    0.33    2.01
   0   2   6    3.81    2.45
   0  -2   7   17.54    2.43
   0   2   7   13.45    1.56
   0  -2  -7   14.82    2.74
   0   2   7   14.74    3.27
   0   2   7   16.17    3.15
   0   2   7    6.68    3.51
   0   2  -7   14.23    2.99
   0   2  -7   16.61    3.68
   0  -2   7   15.44    2.27
   0  -2  -7   13.63    1.84
   0  -2   7   16.93    3.72
   0  -2  -7   15.28    2.70
   0   2  -7   13.22    3.17
   0   2  -7   16.79    3.57
   0   2  -7   13.34    2.37
   0   2   7   14.11    2.24
   0  -2  -8   15.00    2.11
   0  -2  -8   13.35    1.96
   0   2  -8   16.50    3.35
   0   2   8   11.87    3.29
   0   2  -8   13.54    3.17
   0  -2  -8   17.02    2.98
   0  -2   8   15.40    2.45
   0   2   8   12.73    1.63
   0  -2  -8   19.53    2.92
   0   2  -8    7.85    3.47
   0  -2   8   17.39    2.10
   0   2  -8   13.06    2.33
   0  -2   8   11.52    2.21
   0  -2  -8   15.83    1.87
   0  -2   8   12.30    3.69
   0   2   8   16.51    4.27
   0   2   8   13.74    3.26
   0   2  -8   15.15    2.32
   0   2   8   13.53    2.40
   0   2  -8   13.30    3.24
   0  -2  -9  118.82    7.89
   0   2  -9  125.29    8.38
   0  -2  -9  136.48    6.97
   0  -2   9  128.32    7.52
   0   2   9  119.46    7.33
   0   2  -9  118.09    8.36
   0  -2  -9  133.13    6.85
   0  -2   9  120.25    8.62
   0  -2  -9  132.13    7.08
   0   2  -9  110.26    7.09
   0   2  -9  122.34    7.22
   0  -2   9  107.49    7.15
   0   2   9  133.71    8.42
   0   2  -9  128.23    7.29
   0   2   9  132.21    8.53
   0  -2  -9  139.69    7.96
   0   2  -9  123.10    8.90
   0  -2   9  133.78    7.09
   0   2  -9  103.87    8.09
   0   2  10   40.40    3.50
   0  -2 -10   42.53    3.03
   0   2 -10   37.44    4.28
   0   2  10   40.78    4.72
   0  -2  10   34.59    3.43
   0  -2 -10   39.94    3.26
   0  -2  10   38.85    3.74
   0   2 -10   36.49    4.32
   0   2  10   38.59    4.76
   0  -2 -10   46.75    4.21
   0   2 -10   34.57    4.99
   0  -2  10   37.38    4.97
   0   2 -10   38.35    3.64
   0  -2 -10   38.84    3.36
   0   2  10   36.40    3.63
   0  -2  10   42.62    3.29
   0  -2 -10   47.08    4.12
   0   2 -10   43.21    4.64
   0   2 -10   38.05    3.47
   0  -2 -11   50.38    4.59
   0   2  11   44.74    5.29
   0   2  11   42.88    3.72
   0  -2  11   53.65    3.64
   0   2 -11   51.21    5.36
   0  -2 -11   47.09    3.33
   0  -2  11   43.19    3.67
   0   2 -11   48.50    4.77
   0  -2  11   44.38    5.21
   0   2  11   54.67    5.20
   0   2 -11   47.47    3.94
   0   2 -11   46.18    5.70
   0   2 -11   42.01    3.70
   0   2  11   44.08    4.00
   0   2 -11   37.18    4.34
   0  -2 -11   47.14    3.54
   0   2 -12  341.34   17.74
   0   2 -12  302.28   16.08
   0   2 -12  274.35   16.51
   0  -2 -12  312.63   15.56
   0  -2 -12  325.25   15.82
   0   2 -12  317.87   18.21
   0  -2  12  318.23   15.90
   0  -2 -12  315.25   17.01
   0   2  12  342.49   17.78
   0  -2  12  305.50   17.40
   0   2 -12  266.48   16.56
   0   2  12  322.06   15.87
   0  -2  12  284.05   15.88
   0   2 -12  286.08   15.79
   0   2  12  333.59   17.65
   0   2  12  316.32   16.25
   0   2  12  305.19   18.52
   0  -2 -13   90.28    5.64
   0   2 -13   75.52    5.84
   0  -2  13   82.54    7.02
   0  -2  13   81.89    5.65
   0   2 -13   90.73    5.54
   0   2  13   82.13    8.06
   0  -2  13   84.64    5.58
   0   2  13   93.13    6.04
   0  -2 -13   85.46    6.73
   0   2 -13   83.54    7.84
   0   2  13   88.15    7.19
   0   2  13   81.98    7.47
   0   2 -13   86.35    7.44
   0   2  13   96.41    5.80
   0  -2 -13   92.62    5.32
   0   2  14  616.12   29.70
   0   2  14  658.92   31.66
   0  -2  14  512.56   30.80
   0   2  14  586.95   32.49
   0   2 -14  595.01   29.96
   0   2 -14  627.80   31.72
   0   2 -14  598.52   29.98
   0   2 -14  571.93   29.56
   0  -2 -14  630.01   29.73
   0   2 -14  594.40   32.14
   0   2  14  600.72   30.19
   0  -2  14  550.67   29.79
   0  -2 -14  626.08   29.48
   0   2  14  647.62   31.83
   0  -2 -14  577.56   30.94
   0   2  15    2.22    3.76
   0  -2 -15   -0.30    2.84
   0  -2  15    0.61    2.15
   0   2  15   -1.08    2.81
   0   2  15    1.82    2.00
   0   2 -15    3.52    3.75
   0   2 -15    2.22    2.57
   0  -2 -15    1.40    1.91
   0   2 -15    3.06    1.89
   0   2  15    4.30    2.67
   0   2 -15   -2.09    2.66
   0   2 -15    0.37    3.73
   0   2  15    0.49    4.07
   0   2  15   -0.35    3.37
   0   2  16   53.87    3.77
   0   2  16   46.55    4.48
   0   2 -16   44.95    4.26
   0  -2 -16   56.63    3.68
   0   2  16   54.77    4.19
   0   2 -16   36.46    3.34
   0  -2  16   49.43    4.06
   0   2 -16   48.34    4.34
   0   2 -17    5.31    2.62
   0  -2  17    5.79    2.15
   0   2 -17    4.50    2.62
   0   2  17    3.77    1.77
   0  -2 -17    5.89    1.99
   0   2  17    3.71    2.74
   0   2 -17    2.71    1.44
   0  -2  17    5.19    2.78
   0   2  17    6.52    2.50
   0   2  18    2.19    2.50
   0  -2 -18    5.29    1.87
   0   2  18    2.11    2.32
   0   2 -18    2.64    2.57
   0   2  18    1.61    1.60
   0  -2  18    3.51    2.52
   0   2 -18    1.81    1.54
   0   2 -18    5.25    2.37
   0  -2  18    1.70    1.92
   0   2  19    8.18    2.68
   0  -2 -19    6.15    1.71
   0   2 -19    7.17    2.27
   0   2  19    7.65    1.78
   0  -2  19    9.18    2.39
   0   2  19    9.09    2.26
   0   2 -19    3.80    2.23
   0  -2 -19    5.47    2.00
   0  -2  19    6.74    2.15
   0   2 -20  150.01    7.70
   0   2  20  156.00    7.54
   0  -2  20  141.56    7.94
   0  -2  20  143.39    7.66
   0   2  20  137.08    7.93
   0   2 -20  148.62    7.85
   0  -2 -20  146.11    7.60
   0   2 -20  113.72    7.36
   0   2  20  147.46    7.65
   0   2  21   40.85    3.03
   0   2  21   55.03    3.51
   0   2  21   46.06    3.00
   0  -2  21   44.26    3.40
   0  -2 -21   48.79    3.16
   0   2 -21   53.02    3.39
   0   2 -21   51.84    3.20
   0   2 -22   16.78    1.72
   0  -2 -22   17.64    1.60
   0   2  22   20.26    1.89
   0   3   0    1.31    3.25
   0  -3   0   -0.15    2.20
   0   3   0    0.10    1.62
   0   3   0   -0.92    2.01
   0  -3   0    0.32    3.03
   0   3   0   -0.23    2.01
   0  -3   0    2.29    3.31
   0   3   0   -0.34    3.09
   0  -3   0    2.17    1.87
   0  -3   1  121.85    6.57
   0   3   1  114.54    8.34
   0  -3  -1  115.77    6.59
   0  -3  -1  110.45    8.19
   0  -3  -1   97.44    7.64
   0   3  -1  113.00    8.52
   0   3  -1  121.68    6.70
   0   3  -1  109.05    6.35
   0  -3   1   96.39    8.11
   0  -3   1   92.58    8.18
   0   3   1  116.42    6.23
   0  -3   1  109.07    6.89
   0  -3  -1   99.87    6.90
   0  -3  -1  130.61    6.92
   0   3   1  103.97    6.28
   0   3  -1  113.85    8.44
   0   3   1  100.68    7.94
   0  -3  -1  107.35    6.48
   0  -3  -2  129.40    7.60
   0   3   2  141.19    7.64
   0  -3   2  140.85    7.72
   0   3   2  132.20    9.14
   0  -3   2  131.02    9.75
   0   3  -2  130.79    9.61
   0   3  -2  139.18    9.72
   0  -3  -2  139.29    9.12
   0  -3  -2  159.59    8.09
   0  -3  -2  132.51    9.28
   0   3   2  112.38    9.19
   0  -3  -2  142.31    7.74
   0   3  -2  124.10    7.56
   0  -3  -2  123.86    8.12
   0  -3   2  119.87    9.30
   0   3  -2  153.08    7.92
   0  -3   2  147.25    8.15
   0  -3  -3   19.93    2.97
   0   3   3   12.30    3.73
   0  -3  -3   23.27    3.00
   0   3  -3   29.04    3.03
   0  -3  -3   21.15    3.64
   0  -3   3   22.64    4.36
   0   3  -3   27.05    2.84
   0   3  -3   22.39    4.47
   0  -3   3   16.99    4.43
   0   3   3   24.30    3.80
   0  -3  -3   25.96    2.69
   0  -3  -3   23.07    2.82
   0  -3   3   27.35    3.34
   0   3   3   21.61    2.55
   0  -3  -3   20.06    4.04
   0   3   3   27.49    2.99
   0  -3   3   29.41    2.72
   0   3  -4  100.10    6.14
   0  -3  -4  107.31    7.20
   0  -3  -4  100.98    7.55
   0   3  -4  105.23    8.14
   0  -3   4  101.32    6.56
   0   3   4   94.70    5.66
   0  -3  -4  100.38    5.98
   0   3   4   91.03    7.15
   0  -3  -4  104.07    6.14
   0  -3  -4  101.93    6.35
   0  -3   4  116.00    6.10
   0   3   4   91.05    5.91
   0  -3   4   88.82    8.05
   0  -3  -4   95.56    6.57
   0   3  -4  113.39    6.40
   0   3   4  101.33    6.13
   0   3  -4  102.21    8.11
   0  -3  -5  114.22    6.86
   0  -3   5  119.34    7.37
   0   3   5  127.01    6.87
   0  -3  -5  113.21    7.44
   0   3  -5  129.15    9.07
   0   3   5  101.82    6.68
   0   3  -5  123.51    7.20
   0  -3   5  117.89    6.82
   0   3  -5  114.83    6.94
   0  -3  -5  126.51    7.87
   0  -3   5   87.60    8.63
   0   3   5  112.81    6.40
   0  -3  -5  135.22    7.10
   0   3   6   11.91    3.04
   0  -3   6   17.76    2.36
   0  -3   6   17.06    4.25
   0   3   6   12.82    2.38
   0  -3  -6   13.84    2.99
   0   3  -6   16.14    2.68
   0   3   6   12.75    1.82
   0  -3   6    3.83    4.16
   0   3  -6    7.27    3.57
   0   3  -6   13.46    3.84
   0  -3  -6   14.18    2.71
   0   3   6   17.95    2.92
   0  -3  -6   12.96    2.56
   0   3  -6   14.03    2.84
   0  -3   6   12.58    2.97
   0  -3   7   70.41    7.12
   0  -3   7   80.15    5.58
   0   3  -7   87.08    5.56
   0  -3   7   52.99    6.97
   0   3  -7   69.41    6.77
   0  -3  -7   73.95    5.65
   0   3  -7   64.04    6.77
   0   3   7   77.70    5.11
   0   3  -7   79.30    5.20
   0  -3  -7   69.04    4.99
   0   3   7   71.79    5.02
   0  -3  -7   78.11    5.89
   0  -3   7   80.68    4.91
   0   3   7   76.74    4.46
   0   3   7   71.04    5.98
   0  -3   8    0.77    3.54
   0  -3   8    3.69    2.98
   0  -3  -8    0.23    2.31
   0   3  -8   -0.71    3.65
   0   3   8    0.53    2.75
   0   3  -8    3.20    2.39
   0   3  -8    2.85    3.05
   0   3   8    3.65    2.33
   0  -3   8   -2.27    3.95
   0   3   8    5.00    2.81
   0  -3  -8    2.96    2.49
   0  -3  -8    1.87    2.08
   0  -3   8    3.23    2.03
   0   3  -8    2.91    2.56
   0  -3   9   23.46    4.63
   0   3  -9   24.92    4.25
   0   3  -9   23.84    3.34
   0  -3   9   18.64    3.46
   0   3   9   24.50    3.35
   0   3  -9   22.43    3.39
   0  -3   9   28.18    2.76
   0   3  -9   23.74    4.22
   0  -3  -9   26.60    2.68
   0   3   9   17.77    2.92
   0  -3   9   13.84    4.82
   0  -3  -9   21.57    3.14
   0   3  -9   26.33    3.20
   0   3   9   18.30    3.58
   0  -3  10  152.37   13.96
   0   3 -10  244.75   12.49
   0   3 -10  185.57   13.27
   0   3  10  193.52   13.07
   0  -3  10  227.77   12.61
   0   3 -10  244.99   12.54
   0  -3  10  253.18   12.02
   0   3 -10  220.47   13.69
   0  -3 -10  210.12   12.15
   0  -3  10  186.46   13.71
   0  -3 -10  249.66   11.82
   0   3  10  225.50   12.22
   0   3  10  247.32   12.25
   0  -3  11  547.83   27.15
   0   3 -11  537.84   27.57
   0  -3 -11  596.97   27.11
   0  -3  11  513.12   27.72
   0   3  11  502.08   27.35
   0   3 -11  566.25   27.59
   0  -3 -11  549.61   27.01
   0  -3  12  274.79   14.31
   0  -3 -12  293.62   14.21
   0   3 -12  284.24   14.49
   0  -3 -12  296.12   14.28
   0   3 -12  299.24   14.88
   0   3 -12  262.81   14.68
   0   3  12  250.27   14.57
   0  -3  12  254.64   14.89
   0   3  13    5.29    2.48
   0  -3 -13    9.32    2.03
   0   3 -13   11.10    2.39
   0  -3  13    5.95    2.88
   0   3 -13    9.11    2.73
   0   3 -13    7.06    2.81
   0   3 -14   -1.36    2.36
   0   3 -14    1.61    2.53
   0  -3  14   -0.47    2.23
   0   3 -14    1.26    1.83
   0  -3 -14    2.26    1.78
   0   3  14    2.99    2.14
   0   3  14    4.61    2.26
   0   3 -15   29.07    3.09
   0   3  15   30.48    2.51
   0  -3 -15   25.13    2.47
   0   3  15   27.96    2.93
   0  -3  15   26.81    3.10
   0   3  15   24.43    2.92
   0   3 -15   29.07    2.57
   0  -3 -15   20.42    2.69
   0   3 -16   51.56    3.44
   0   3  16   52.53    3.76
   0   3  16   58.34    3.83
   0   3  16   57.66    3.49
   0   3 -16   59.50    3.98
   0  -3 -16   59.32    3.51
   0  -3 -17   35.83    2.27
   0   3  17   42.15    2.74
   0  -3 -17   29.35    2.49
   0   3  17   34.84    2.51
   0   3  17   35.94    2.26
   0   3 -17   39.52    2.71
   0   3  18    5.76    1.58
   0   3 -18    8.17    1.63
   0   3  18    7.37    1.15
   0  -3 -18    5.83    1.45
   0   3  18    4.94    1.44
   0  -3 -18    8.13    1.30
   0   3 -18    4.75    1.54
   0  -4   0  452.69   21.78
   0   4   0  404.95   21.15
   0  -4   0  455.95   21.44
   0  -4   1    5.69    2.12
   0  -4  -1   -0.36    1.92
   0  -4  -1    2.25    1.99
   0   4  -1    2.61    1.40
   0  -4   1    2.06    1.94
   0   4   1    0.34    1.21
   0   4  -1    1.98    1.39
   0   4   2   18.72    1.76
   0  -4  -2   21.23    2.52
   0   4  -2   19.24    2.00
   0  -4   2   18.99    2.32
   0  -4  -2   19.50    2.23
   0  -4   2   19.66    2.65
   0  -4  -3    1.96    1.40
   0  -4  -3    1.48    1.68
   0   4  -3    0.59    1.48
   0  -4   3    1.59    1.76
   0  -4   3    1.57    1.96
   0  -4   4   14.70    2.36
   0  -4  -4   19.42    2.06
   0  -4  -4   15.03    1.75
   0  -4   4   14.56    2.06
   0   4  -4   19.43    1.97
   0  -4  -5    4.01    1.39
   0  -4   5   -0.54    1.74
   0   4  -5    6.18    1.75
   0   4   5    0.65    1.43
   0  -4  -5    1.14    1.70
   0  -4   5    2.95    1.99
   0   4  -6    1.88    1.68
   0  -4   6    0.09    1.67
   0  -4   6    0.62    2.04
   0  -4  -6    1.55    1.62
   0  -4  -6   -0.51    1.27
   0   4   6    3.21    1.65
   0   4   7    8.86    1.83
   0   4  -7    8.37    2.21
   0  -4   7    6.88    2.07
   0  -4   7    5.76    1.75
   0   4  -7    5.94    1.73
   0  -4  -7    6.12    1.70
   0  -4  -7    6.04    1.41
   0  -4   8   12.85    2.26
   0   4  -8   15.48    2.35
   0   4  -8   11.56    1.95
   0   4  -8   18.13    2.17
   0  -4   8   12.22    1.86
   0   4   8   13.87    1.95
   0  -4  -8   13.32    1.84
   0   4  -9  227.95   11.18
   0  -4  -9  241.45   11.01
   0   4  -9  223.99   11.06
   0   4   9  216.98   10.97
   0   4  -9  247.67   11.31
   0  -4   9  183.34   10.83
   0  -4   9  186.66   11.18
   0  -4 -10   15.15    1.73
   0   4  10   12.07    1.83
   0  -4  10   11.79    1.56
   0   4 -10   13.59    2.09
   0   4 -10   14.72    2.02
   0  -4  10   15.43    2.09
   0   4 -10   13.65    1.84
   0  -4  11   64.91    4.27
   0  -4  11   61.38    3.87
   0   4 -11   78.78    4.23
   0   4  11   69.84    4.08
   0   4 -11   87.10    4.36
   0   4 -11   73.71    4.11
   0   4  12   12.61    1.32
   0   4  12   11.23    1.53
   0   4 -12   15.05    1.64
   0  -4  12   10.89    1.66
   0   4 -12   13.42    1.67
   1   0 -24    4.06    1.66
  -1   0  24   -0.20    1.34
   1   0 -24    1.49    1.53
   1   0 -23   31.33    2.63
  -1   0  23   25.20    1.92
   1   0 -23   34.20    2.37
  -1   0  23   33.92    2.35
  -1   0  22    1.23    1.85
   1   0 -22    1.52    1.73
  -1   0  22    1.74    1.80
   1   0 -22    1.82    2.28
   1   0 -22    3.99    2.16
  -1   0  22    0.72    2.01
  -1   0  21   62.98    4.23
   1   0 -21   56.99    4.23
  -1   0  21   54.53    4.14
   1   0 -21   59.20    4.00
  -1   0  21   51.23    4.25
  -1   0  20    2.70    2.15
   1   0 -20    2.24    2.21
   1   0 -20   -0.63    2.16
  -1   0  20    1.69    2.38
  -1   0  20    3.21    2.31
   1   0 -19  145.24    8.43
  -1   0  19  154.12    8.38
   1   0 -19  152.34    8.39
  -1   0  19  147.95    8.56
  -1   0  19  138.65    8.64
  -1   0  18    0.39    2.13
  -1   0  18    2.35    2.18
   1   0 -18    1.52    2.28
   1   0 -18   -1.26    4.38
   1   0 -18    2.68    3.50
  -1   0  18    0.42    4.39
  -1   0  18    0.67    2.55
   1   0 -18    0.79    4.00
   1   0 -18    1.09    2.13
  -1   0  18    3.05    2.32
   1   0 -17  296.33   15.24
   1   0 -17  281.77   17.30
  -1   0  17  278.80   15.15
  -1   0  17  304.05   17.86
  -1   0  17  283.31   15.63
   1   0 -17  296.32   17.81
   1   0 -17  295.87   17.47
  -1   0  17  323.49   15.61
  -1   0  17  306.96   15.33
   1   0 -16    1.79    1.95
  -1   0  16    1.14    2.33
  -1   0  16   -0.39    4.19
  -1   0  16    2.39    1.98
  -1   0  16    2.28    4.23
  -1   0  16   -0.12    1.92
   1   0 -16    0.75    3.94
   1   0 -16   -0.36    3.89
  -1   0  16    1.43    2.38
   1   0 -16    6.66    4.36
  -1   0  16    1.02    1.74
  -1   0  15   17.48    4.78
  -1   0  15   18.06    2.45
   1   0 -15   13.12    3.67
  -1   0  15   17.46    2.87
  -1   0  15   20.86    4.71
   1   0 -15   19.18    4.30
  -1   0  15   16.89    2.03
  -1   0  15   16.31    2.23
  -1   0  15   12.98    3.09
  -1   0  15   15.79    2.45
   1   0 -15   16.63    2.24
  -1   0  14    4.71    4.15
   1   0 -14    3.40    3.06
  -1   0  14    1.03    1.52
  -1   0  14    0.29    1.54
   1   0 -14   -2.76    3.44
  -1   0  14   -0.66    3.76
   1   0 -14    0.91    1.74
  -1   0  14    1.62    2.27
  -1   0  14    2.30    1.93
  -1   0  14    2.46    1.82
   1   0 -14    1.19    2.38
  -1   0  13    3.55    2.17
   1   0 -13    4.21    1.54
   1   0 -13    7.42    3.21
  -1   0  13    4.94    1.61
   1   0 -13    7.65    2.55
   1   0 -13    1.12    2.92
  -1   0  13    6.10    1.84
  -1   0  13    5.70    4.01
  -1   0  13    6.46    1.54
  -1   0  13    7.32    3.85
   1   0 -12    0.99    1.37
   1   0 -12    0.65    1.12
  -1   0  12   -0.64    3.48
  -1   0  12    1.83    1.27
   1   0 -12    2.21    3.20
  -1   0  12   -1.47    1.97
  -1   0  12    0.44    2.70
  -1   0  12    1.68    1.28
  -1   0  12    0.08    1.65
  -1   0  12    8.39    3.56
   1   0 -12    0.28    1.54
   1   0 -12   -0.25    2.74
   1   0 -12    4.72    2.53
  -1   0  11  284.12   15.02
   1   0 -11  251.97   13.14
   1   0 -11  261.14   14.60
  -1   0  11  279.12   13.21
   1   0 -11  260.11   14.57
  -1   0  11  246.45   13.09
  -1   0  11  283.22   14.09
  -1   0  11  293.52   15.40
   1   0 -11  272.67   14.17
   1   0 -11  260.80   13.80
  -1   0  11  260.30   14.38
  -1   0  10    2.06    3.39
  -1   0  10   -0.17    2.66
   1   0 -10   -0.20    2.53
   1   0 -10    1.16    2.04
  -1   0  10    0.28    1.89
   1   0 -10    4.15    2.88
  -1   0   9  339.51   17.63
   1   0  -9  408.26   19.16
  -1   0   9  398.38   18.53
  -1   0   9  377.68   18.92
   1   0  -9  394.62   18.66
  -1   0   9  419.27   19.31
   1   0  -8    1.39    2.34
   1   0  -8    0.43    1.96
  -1   0   8   -1.19    2.29
  -1   0   8    1.24    3.07
  -1   0   8    1.77    1.64
  -1   0   8   -0.56    0.77
  -1   0   7  957.26   47.78
   1   0  -7 1070.92   48.49
   1   0  -7 1094.91   48.90
  -1   0   7 1024.64   48.68
  -1   0   7 1043.34   48.37
  -1   0   7 1037.99   48.88
   1   0  -6    0.54    1.60
  -1   0   6    0.14    2.64
  -1   0   6    0.33    1.34
   1   0  -6    0.69    2.17
  -1   0   6    3.23    2.49
   1   0  -5 1374.37   65.60
  -1   0   5 1429.19   66.16
  -1   0   5 1334.25   65.49
   1   0  -5 1357.33   65.78
   1   0  -5 1363.11   65.89
   1   0  -4   -0.62    1.79
  -1   0   4    1.08    1.07
  -1   0   4   -0.30    2.31
   1   0  -4   -1.31    1.82
   1   0  -4    0.71    1.30
   1   0  -3  107.39    5.74
   1   0  -3  108.90    5.84
   1   0  -3  106.31    5.52
  -1   0   3  106.79    6.05
  -1   0   3  105.18    5.40
  -1   0   2    0.06    1.54
  -1   0   2    1.63    1.95
   1   0  -2    0.27    1.43
   1   0  -2   -0.55    1.16
  -1   0   1 4232.47  198.93
  -1   0   1 4044.63  198.59
  -1   0   1 4177.77  198.83
  -1   0   1 4397.38  198.93
  -1   0   0    0.64    0.69
  -1   0   0    0.17    1.79
  -1   0   0   -0.89    1.33
  -1   0  -1 3692.17  175.48
  -1   0  -1 3710.67  175.56
  -1   0  -1 3626.79  175.48
  -1   0  -1 3665.39  175.25
  -1   0  -2   -0.89    2.08
  -1   0  -2    0.88    1.84
  -1   0  -2   -0.14    1.03
   1   0   2   -1.22    1.30
  -1   0  -2    1.50    1.73
   1   0   3 2259.98  108.59
  -1   0  -3 2310.81  108.64
  -1   0  -3 2209.14  108.59
  -1   0  -3 2330.38  108.79
   1   0   3 2263.84  108.76
  -1   0  -3 2254.18  108.91
  -1   0  -4    1.43    1.72
   1   0   4    0.73    1.61
  -1   0  -4    1.36    2.23
   1   0   4    1.55    2.05
   1   0   5  723.27   35.12
   1   0   5  730.33   35.38
  -1   0  -5  725.78   35.21
  -1   0  -5  709.27   35.44
  -1   0  -6    0.60    1.97
   1   0   6    1.39    2.41
  -1   0  -6   -0.37    2.55
  -1   0  -6    1.67    2.35
   1   0   6   -0.09    1.91
  -1   0  -7  918.52   43.85
   1   0   7  897.17   43.41
   1   0   7  855.41   43.64
  -1   0  -7  856.41   43.53
  -1   0  -7  937.47   43.77
  -1   0  -8    1.29    2.85
  -1   0  -8    0.14    2.31
  -1   0  -8    2.34    3.12
   1   0   8    2.19    2.93
   1   0   8   -0.12    2.25
  -1   0  -9 2930.48  145.19
   1   0   9 2976.37  145.02
  -1   0  -9 3050.65  145.53
   1   0   9 3019.75  145.40
  -1   0  -9 3137.40  145.48
  -1   0 -10   -0.37    2.66
   1   0  10   -1.64    2.84
   1   0  10    0.16    2.31
  -1   0 -10   -1.05    3.02
  -1   0 -10    0.22    3.28
   1   0  10   -0.71    2.34
   1   0  11   14.78    2.85
  -1   0 -11   10.01    2.95
  -1   0 -11   10.88    3.78
  -1   0 -11   12.34    1.58
  -1   0 -11   12.33    3.54
   1   0  11   14.60    3.37
   1   0  11   10.17    2.74
   1   0  12   -1.28    1.15
  -1   0 -12    1.17    2.70
  -1   0 -12   -1.66    3.40
  -1   0 -12    0.95    1.40
   1   0  12    0.82    2.56
   1   0  12    2.06    2.48
   1   0  12    3.12    3.53
  -1   0 -12    1.35    3.11
   1   0  13  397.09   21.09
  -1   0 -13  361.61   20.62
   1   0  13  370.16   20.46
  -1   0 -13  379.05   21.11
   1   0  13  368.84   19.05
  -1   0 -13  393.76   19.19
  -1   0 -13  401.10   19.22
  -1   0 -13  388.40   21.22
   1   0  13  423.33   20.93
   1   0  14    0.32    3.71
   1   0  14    2.78    3.05
  -1   0 -14   -1.00    3.83
   1   0  14    0.29    2.62
  -1   0 -14   -0.32    3.37
   1   0  14    1.47    2.23
  -1   0 -14   -1.69    3.27
   1   0  14    0.60    1.45
  -1   0 -14   -0.54    1.57
  -1   0 -14    2.50    1.68
   1   0  15  546.38   28.07
  -1   0 -15  533.02   28.24
  -1   0 -15  531.00   28.45
   1   0  15  560.60   28.37
  -1   0 -15  537.72   26.59
   1   0  15  531.64   26.05
   1   0  15  474.55   27.38
  -1   0 -15  494.41   27.64
  -1   0 -15  534.13   26.08
  -1   0 -15  535.19   26.14
   1   0  15  514.71   27.01
  -1   0 -16    0.72    1.74
  -1   0 -16    0.36    3.72
  -1   0 -16    1.22    1.92
   1   0  16    0.37    4.17
   1   0  16   -1.47    3.04
   1   0  16    0.71    3.05
  -1   0 -16   -1.78    4.43
   1   0  16   -0.10    1.62
  -1   0 -16   -2.52    3.21
  -1   0 -16    2.04    2.69
  -1   0 -16   -0.76    4.21
   1   0  17   82.31    4.81
  -1   0 -17   68.32    6.89
   1   0  17   75.22    6.93
  -1   0 -17   76.25    5.52
   1   0  17   71.35    7.31
  -1   0 -17   70.35    7.88
  -1   0 -17   60.58    6.98
  -1   0 -17   82.54    5.04
  -1   0 -17   77.80    4.77
  -1   0 -17   50.72    6.05
  -1   0 -18    0.51    1.65
   1   0  18    3.01    1.81
  -1   0 -18    2.96    3.74
  -1   0 -18    1.46    2.73
  -1   0 -18   -3.26    4.52
   1   0  18    4.35    3.90
  -1   0 -18    2.00    4.10
   1   0  18    3.10    3.21
  -1   0 -18    3.77    2.14
  -1   0 -19  266.47   13.84
   1   0  19  279.67   14.44
   1   0  19  258.87   13.69
  -1   0 -19  266.65   14.31
  -1   0 -20   -0.12    2.05
  -1   0 -20    2.34    2.52
   1   0  20   -0.52    1.64
   1   0  20    1.57    2.56
  -1   0 -21    3.13    2.54
   1   0  21    6.07    2.57
   1   0  21    5.38    2.43
  -1   0 -21    3.39    1.98
   1   0  22    1.08    2.05
  -1   0 -22    2.64    2.20
  -1   0 -22    1.96    1.74
   1   0  22    3.45    2.09
  -1   0 -23   23.81    2.44
  -1   0 -23   19.91    2.03
   1   0  23   21.66    2.47
   1   0  24    0.70    1.35
  -1   0 -24    1.35    1.37
   1  -1 -24    4.88    1.30
  -1   1  23    4.46    1.40
   1   1 -23    4.84    1.62
  -1   1  23    6.84    1.70
   1  -1 -23    9.27    1.77
   1  -1 -23    6.87    1.71
  -1   1  23    7.10    1.55
  -1  -1  23    6.79    1.37
   1   1 -23    6.58    1.54
  -1   1  23    3.24    1.74
  -1  -1  23    0.19    1.75
   1   1 -23    6.55    1.79
  -1  -1  23   10.89    1.70
  -1  -1  22   53.57    3.69
   1   1 -22   49.52    3.86
   1   1 -22   59.57    3.99
  -1   1  22   67.39    3.85
  -1  -1  22   53.96    3.71
   1  -1 -22   69.07    3.93
  -1   1  22   51.80    3.73
   1  -1 -22   62.29    3.97
  -1  -1  22   68.65    4.00
   1   1 -22   64.69    3.92
  -1   1  22   64.94    4.11
   1  -1 -21    1.98    2.18
  -1  -1  21    2.68    1.96
   1   1 -21    2.74    2.17
  -1   1  21   -0.57    1.75
  -1   1  21    1.33    2.30
   1  -1 -21    2.77    1.92
   1   1 -21    1.47    2.07
   1   1 -21    0.57    1.98
  -1   1  21    0.21    1.77
  -1  -1  21   -0.56    1.79
  -1   1  21    1.48    1.91
   1  -1 -21    0.31    0.73
  -1  -1  21    1.75    1.89
   1   1 -20    9.96    2.59
   1  -1 -20   11.63    2.03
   1  -1 -20   17.23    2.42
  -1   1  20   15.99    2.38
  -1  -1  20   14.17    2.32
  -1   1  20   16.82    2.36
  -1  -1  20   12.69    2.37
  -1   1  20   15.55    2.68
  -1  -1  20   11.95    2.39
   1   1 -20   13.82    2.57
  -1   1  20   14.62    2.49
  -1  -1  19   26.84    3.10
  -1   1  19   19.35    2.40
  -1   1  19   27.60    3.02
   1   1 -19   28.75    3.36
  -1  -1  19   25.11    2.92
  -1   1  19   24.31    3.04
  -1  -1  19   22.22    2.82
   1  -1 -19   30.56    2.92
  -1   1  19   33.79    3.59
  -1   1  19   29.66    2.86
  -1  -1  19   21.34    2.53
   1   1 -19   24.76    3.27
  -1  -1  18   56.03    4.08
   1  -1 -18   65.27    4.28
  -1   1  18   45.17    6.33
   1   1 -18   65.44    4.60
   1  -1 -18   52.96    5.83
   1  -1 -18   51.54    6.18
  -1  -1  18   40.02    6.16
   1   1 -18   52.71    6.34
  -1   1  18   60.64    4.36
  -1   1  18   54.70    3.94
   1   1 -18   56.40    6.64
  -1   1  18   56.51    4.72
  -1   1  18   62.31    4.53
   1   1 -18   65.33    4.74
  -1  -1  18   58.30    4.55
  -1   1  18   66.60    4.27
  -1   1  18   50.88    6.50
  -1  -1  18   58.22    4.42
   1   1 -18   53.08    6.53
   1   1 -17  198.38   10.50
   1  -1 -17  206.44   10.23
  -1   1  17  189.00   10.07
   1   1 -17  207.55   12.79
  -1  -1  17  165.87   12.78
   1  -1 -17  159.19   11.62
   1   1 -17  194.79   12.95
  -1   1  17  153.74   12.55
  -1   1  17  183.08   10.54
  -1   1  17  207.49   10.92
   1   1 -17  182.78   12.68
  -1   1  17  206.89   10.30
   1   1 -17  189.45   10.66
  -1   1  17  197.66   10.39
   1  -1 -17  190.67   12.52
  -1   1  17  195.70   12.84
  -1  -1  17  196.98   10.25
  -1  -1  17  182.70   10.47
   1  -1 -17  188.72    9.95
  -1   1  17  169.09   12.07
  -1  -1  17  183.14   10.43
   1  -1 -17  184.62   11.89
  -1   1  16  311.39   17.11
   1  -1 -16  280.34   14.16
  -1   1  16  296.03   14.97
   1   1 -16  289.54   17.01
  -1  -1  16  276.68   17.10
   1   1 -16  275.54   14.74
   1  -1 -16  257.41   15.84
   1  -1 -16  287.28   14.39
   1   1 -16  271.40   14.62
   1  -1 -16  283.79   16.15
  -1   1  16  277.67   14.71
  -1   1  16  283.00   14.27
   1   1 -16  249.97   16.79
  -1   1  16  258.40   16.86
  -1  -1  16  263.53   14.61
   1  -1 -16  281.09   16.64
   1  -1 -16  236.56   15.55
  -1   1  16  257.45   16.29
  -1  -1  16  280.28   14.72
  -1   1  16  281.76   14.49
   1   1 -16  293.20   16.84
  -1   1  16  317.57   14.51
  -1   1  15  791.43   35.38
  -1   1  15  708.75   37.31
   1   1 -15  687.87   35.47
   1  -1 -15  769.45   35.28
  -1   1  15  741.01   37.72
  -1   1  15  714.92   35.36
  -1  -1  15  698.77   37.80
   1  -1 -15  696.61   36.78
  -1  -1  15  707.77   35.60
   1   1 -15  665.25   35.18
  -1   1  15  692.53   35.61
   1   1 -15  673.39   37.53
  -1  -1  15  708.87   35.53
  -1   1  15  723.36   35.83
   1  -1 -15  724.71   36.73
   1   1 -15  721.64   37.49
   1  -1 -15  700.55   36.84
   1   1 -15  798.03   38.06
  -1   1  15  646.34   37.58
   1   1 -15  765.51   35.67
   1  -1 -15  730.43   37.38
   1  -1 -15  721.36   35.08
  -1   1  15  747.40   35.22
   1   1 -15  668.43   37.72
   1   1 -14  724.62   34.66
   1   1 -14  670.59   36.44
   1  -1 -14  697.64   35.76
   1  -1 -14  678.99   34.10
   1  -1 -14  726.81   36.33
   1   1 -14  734.14   36.45
  -1  -1  14  716.39   36.80
  -1   1  14  697.73   36.34
   1  -1 -14  655.84   35.69
  -1   1  14  677.50   36.61
  -1   1  14  721.07   34.82
  -1  -1  14  661.01   34.45
  -1   1  14  684.51   34.62
   1   1 -14  646.68   34.42
   1  -1 -14  720.15   34.25
   1  -1 -14  698.65   35.65
   1   1 -14  680.89   36.79
  -1  -1  14  684.33   34.59
  -1   1  14  746.64   34.25
  -1   1  14  711.14   36.51
  -1   1  14  702.36   34.38
  -1   1  14  759.54   34.39
  -1  -1  13   19.55    2.34
  -1   1  13   18.97    2.13
  -1   1  13   20.58    3.99
   1  -1 -13   18.52    1.96
  -1  -1  13   12.36    4.00
  -1  -1  13   13.45    2.16
   1   1 -13   14.50    2.42
   1  -1 -13   16.02    3.54
  -1   1  13   17.53    4.24
   1  -1 -13   16.04    1.86
  -1   1  13   13.87    2.08
   1   1 -13   20.55    4.36
  -1   1  13   21.84    4.27
  -1   1  13   12.79    3.61
   1   1 -13   16.00    2.83
  -1   1  13   16.77    2.77
  -1   1  13   17.40    2.39
  -1   1  13   16.52    2.41
   1   1 -13   13.36    3.94
   1  -1 -13   13.51    3.51
  -1  -1  13   16.22    2.24
  -1  -1  12  135.50    7.81
   1  -1 -12  138.08    8.75
  -1   1  12  139.36    9.19
   1  -1 -12  134.52    7.28
   1  -1 -12  128.92    8.70
  -1  -1  12  130.51    7.69
  -1  -1  12  132.87    7.59
  -1   1  12  144.58    9.55
   1  -1 -12  142.34    7.38
  -1   1  12  147.55    8.00
  -1   1  12  139.32    9.27
   1   1 -12  130.67    9.46
  -1   1  12  138.14    7.58
  -1  -1  12  150.24    9.75
  -1  -1  12  144.77    7.64
  -1   1  12  148.99    9.08
   1   1 -12  128.58    7.61
   1   1 -12  137.55    9.77
   1   1 -12  147.62    8.73
  -1   1  12  150.75    7.45
  -1   1  12  143.56    7.82
  -1  -1  11  215.72   11.39
  -1  -1  11  226.26   11.67
  -1  -1  11  238.40   13.31
  -1  -1  11  208.43   11.41
   1  -1 -11  216.01   11.18
   1   1 -11  190.77   11.39
  -1   1  11  260.58   13.22
   1   1 -11  246.91   12.65
  -1   1  11  233.87   11.24
   1  -1 -11  222.95   12.49
   1   1 -11  227.74   13.15
   1  -1 -11  235.29   12.49
  -1   1  11  221.74   11.38
  -1   1  11  231.22   13.04
  -1   1  11  228.57   11.78
  -1   1  11  241.73   12.80
  -1   1  11  233.07   13.30
   1  -1 -11  218.57   11.12
   1   1 -11  201.28   13.34
  -1  -1  11  224.06   11.91
   1   1 -10  290.49   14.83
  -1  -1  10  261.97   14.69
   1   1 -10  253.23   14.67
  -1   1  10  314.20   15.83
  -1   1  10  289.31   14.66
  -1   1  10  304.41   14.55
   1  -1 -10  275.81   14.48
   1   1 -10  314.99   15.87
   1   1 -10  297.74   16.21
  -1   1  10  296.79   16.18
   1  -1 -10  315.28   15.66
  -1  -1  10  310.00   16.43
   1  -1 -10  296.05   15.66
  -1  -1  10  322.35   15.01
  -1   1  10  315.65   16.21
  -1   1  10  319.81   16.39
   1   1 -10  279.53   16.44
  -1   1  10  321.16   14.89
  -1  -1  10  298.18   15.29
   1  -1  -9   19.23    2.92
  -1   1   9   28.03    3.81
  -1   1   9   17.46    3.19
   1  -1  -9   19.22    2.97
  -1   1   9   19.34    3.72
  -1  -1   9   18.70    3.67
   1   1  -9   18.10    3.54
  -1  -1   9   18.55    2.53
   1   1  -9   18.34    3.23
  -1   1   9   17.54    3.07
   1   1  -9   16.91    3.89
  -1   1   8   -0.17    2.88
  -1  -1   8    2.97    2.20
  -1   1   8   -0.20    2.45
  -1  -1   8    1.35    2.72
  -1   1   8    1.97    2.36
   1  -1  -8    1.32    2.33
   1   1  -8    2.14    3.34
   1   1  -8    2.76    2.73
   1  -1  -8    1.22    2.10
  -1   1   8    5.38    2.84
   1   1  -8    2.53    2.67
   1  -1  -7   97.16    6.00
  -1   1   7   96.76    6.49
  -1  -1   7   96.01    6.47
  -1   1   7   94.72    6.18
  -1   1   7  104.02    6.42
   1  -1  -7   95.66    6.04
   1   1  -7   90.77    6.34
  -1  -1   7   98.45    6.01
   1   1  -7  103.70    6.43
  -1   1   7   91.13    6.45
  -1  -1   6    9.30    2.31
   1  -1  -6    9.15    2.11
  -1  -1   6    9.17    2.68
  -1   1   6    9.14    2.68
  -1   1   6    9.72    2.46
  -1   1   6    6.76    2.76
   1   1  -6    8.64    2.71
  -1   1   6   10.33    2.98
   1  -1  -6    9.59    1.63
   1   1  -6    9.06    2.65
  -1   1   6   10.80    1.41
   1  -1  -6   10.46    2.54
   1   1  -5  394.17   19.90
  -1   1   5  389.20   20.21
  -1  -1   5  402.35   19.91
  -1   1   5  386.26   19.35
  -1   1   5  388.39   19.81
   1   1  -5  400.29   20.19
  -1  -1   5  409.82   19.94
   1  -1  -5  370.65   19.34
  -1   1   5  404.40   19.93
  -1   1   5  402.40   19.72
   1  -1  -5  407.15   19.37
   1   1  -4 1245.32   59.84
  -1  -1   4 1234.06   59.65
  -1  -1   4 1227.22   59.79
  -1   1   4 1223.45   60.18
  -1   1   4 1229.82   59.66
   1  -1  -4 1185.59   59.56
  -1   1   4 1235.06   59.78
  -1  -1   4 1230.70   59.90
  -1   1   4 1258.67   59.54
   1  -1  -4 1245.79   59.39
  -1   1   4 1255.61   59.71
  -1   1   4 1253.63   59.66
  -1   1   3 3566.60  167.82
   1  -1  -3 3485.66  167.66
  -1   1   3 3541.84  168.39
  -1   1   3 3556.83  167.90
  -1  -1   3 3512.35  168.14
  -1   1   3 3494.90  167.91
  -1  -1   3 3500.38  167.93
  -1   1   3 3502.39  167.81
   1   1  -3 3487.69  167.95
  -1  -1   3 3468.93  167.81
   1  -1  -3 3449.09  167.92
  -1   1   3 3537.17  167.81
   1   1  -2 9864.01  466.07
  -1   1   2 9727.39  465.41
  -1  -1   2 9540.08  465.57
   1  -1  -2 9999.00  465.73
  -1  -1   2 9737.17  465.81
  -1   1   2 9698.52  465.52
   1   1  -2 9721.47  466.03
  -1  -1   2 9778.46  465.44
  -1   1   2 9972.90  465.78
   1   1  -2 9715.25  465.51
   1  -1  -2 9671.80  465.43
  -1   1   2 9594.70  465.66
  -1   1   2 9803.87  465.35
  -1   1   2 9799.71  465.41
   1  -1  -1 4526.06  220.20
   1  -1  -1 4650.30  220.46
  -1   1   1 4685.27  220.40
  -1   1   1 4738.00  220.47
  -1   1   1 4518.98  219.86
   1   1  -1 4728.32  220.70
  -1   1   1 4541.70  219.97
  -1  -1   1 4792.48  220.11
  -1   1   1 4573.48  220.05
   1   1  -1 4679.47  220.06
   1   1  -1 4520.23  220.34
   1   1  -1 4566.03  220.67
   1   1   0  653.32   31.78
   1   1   0  672.92   31.99
  -1  -1   0  663.53   31.23
  -1   1   0  610.52   31.44
   1  -1   0  645.42   31.85
  -1   1   0  630.14   31.25
  -1   1   0  648.57   31.18
  -1  -1   0  647.36   31.47
  -1   1   0  678.82   31.85
  -1   1   0  617.95   31.35
  -1  -1   0  662.77   31.42
   1   1   0  676.98   31.22
   1   1   1  169.86    9.46
  -1   1  -1  184.19    9.09
   1   1   1  181.27    9.61
  -1   1  -1  176.00    9.47
  -1  -1  -1  183.77    9.16
  -1  -1  -1  190.49    9.55
  -1   1  -1  168.72    9.15
  -1   1  -1  177.05    9.58
  -1  -1  -1  182.37    8.89
   1  -1   1  176.83    9.63
  -1  -1  -1  173.80    9.65
  -1   1  -2  698.90   33.10
  -1   1  -2  648.41   32.95
  -1  -1  -2  687.58   33.01
  -1  -1  -2  702.88   33.39
   1   1   2  672.21   33.30
  -1   1  -2  683.71   33.03
  -1  -1  -2  750.39   33.39
  -1  -1  -2  653.61   32.96
  -1  -1  -2  679.01   32.80
   1  -1   2  678.85   33.42
  -1   1  -2  681.51   33.16
  -1   1  -2  658.14   33.27
   1   1   2  672.70   33.39
   1  -1   3    1.67    2.34
  -1  -1  -3    0.61    1.87
  -1   1  -3    2.48    1.85
   1   1   3    2.43    1.93
  -1   1  -3    0.43    1.65
  -1   1  -3    0.77    1.70
  -1   1  -3    1.70    2.07
  -1   1  -3    0.58    1.87
   1   1   3   -0.36    2.19
  -1  -1  -3    0.49    1.74
  -1  -1  -3    1.03    1.25
  -1  -1  -3   -0.29    1.61
  -1   1  -4    2.12    1.92
  -1  -1  -4    2.00    1.98
  -1   1  -4    4.70    2.36
   1   1   4    3.32    1.58
  -1   1  -4    3.93    1.94
   1  -1   4    2.17    1.15
  -1   1  -4    0.70    2.02
  -1  -1  -4    4.28    2.13
  -1   1  -4    3.06    2.00
   1   1   4    4.76    2.70
  -1  -1  -4    2.40    1.49
  -1   1  -4    2.98    2.15
   1   1   4    2.02    2.38
  -1  -1  -4    2.46    1.83
   1   1   5  176.37    9.42
  -1  -1  -5  174.93    8.87
  -1   1  -5  176.98    9.14
  -1  -1  -5  150.04    8.14
   1   1   5  181.11    8.74
  -1  -1  -5  191.14    9.11
   1  -1   5  161.57    8.58
  -1   1  -5  180.32    9.31
  -1   1  -5  172.00    9.00
  -1   1  -5  185.27    9.50
  -1  -1  -5  166.87    8.65
   1   1   5  171.57    9.57
   1   1   5  175.35    9.57
  -1   1  -5  167.23    9.08
  -1  -1  -5  171.75    9.29
  -1   1  -5  191.65    9.45
  -1  -1  -5  162.16    9.05
  -1   1  -6 1017.48   49.27
   1   1   6  996.13   48.47
  -1   1  -6  963.14   48.81
   1  -1   6  977.98   49.27
  -1   1  -6 1098.99   49.42
  -1  -1  -6 1026.53   49.03
   1   1   6 1024.63   49.26
  -1  -1  -6 1008.13   48.86
  -1  -1  -6 1023.85   49.03
   1  -1   6  974.30   48.64
  -1  -1  -6  990.16   48.31
  -1  -1  -6 1006.21   48.67
  -1   1  -6  969.86   49.31
   1   1   6  973.10   49.38
  -1   1  -6 1040.18   49.01
  -1   1  -6 1053.41   49.50
  -1   1  -6 1043.25   49.04
  -1  -1  -6 1002.96   49.17
   1   1   7  379.04   20.54
  -1  -1  -7  396.10   19.78
  -1   1  -7  377.84   19.73
  -1  -1  -7  401.59   20.20
   1  -1   7  393.08   20.43
  -1   1  -7  443.10   20.68
  -1  -1  -7  412.13   20.40
  -1  -1  -7  409.21   19.96
  -1   1  -7  398.45   20.53
   1  -1   7  382.20   19.76
   1   1   7  383.71   20.36
  -1  -1  -7  402.77   20.10
  -1   1  -7  407.09   20.21
  -1   1  -7  386.96   19.90
  -1  -1  -7  383.20   19.38
  -1   1  -7  415.56   20.68
   1  -1   8  869.00   43.20
  -1  -1  -8  918.74   43.21
  -1   1  -8  829.95   42.98
  -1  -1  -8  889.42   43.34
   1   1   8  871.13   43.94
  -1  -1  -8  949.13   43.47
   1   1   8  927.78   43.81
  -1  -1  -8  848.12   42.81
  -1  -1  -8  903.51   43.61
  -1   1  -8  846.75   43.18
  -1   1  -8  946.08   44.14
   1  -1   8  866.06   43.69
  -1   1  -8  904.04   44.03
  -1   1  -8  907.34   43.62
  -1  -1  -9  251.85   13.05
  -1  -1  -9  251.11   13.57
  -1   1  -9  219.08   12.50
  -1   1  -9  258.73   12.90
   1   1   9  240.63   13.89
   1   1   9  270.40   13.84
   1  -1   9  257.08   13.15
  -1   1  -9  256.10   14.07
  -1  -1  -9  264.42   13.27
  -1   1  -9  244.07   13.59
   1  -1   9  254.19   13.62
  -1   1  -9  265.53   14.02
  -1  -1  -9  235.99   12.60
  -1  -1  -9  244.35   12.43
  -1  -1  -9  240.09   12.62
  -1  -1  -9  245.37   13.19
  -1   1 -10  118.98    6.66
  -1  -1 -10  135.59    7.66
   1  -1  10  121.16    7.46
   1   1  10  127.78    8.09
  -1  -1 -10  123.29    6.44
  -1   1 -10  119.56    8.37
  -1   1 -10  122.37    6.74
  -1  -1 -10  122.68    6.89
   1   1  10  118.06    6.57
  -1  -1 -10  135.11    7.50
  -1  -1 -10  118.72    6.41
  -1  -1 -10  113.66    6.82
  -1  -1 -10  111.32    6.65
  -1   1 -10  137.77    8.50
   1  -1  10  119.44    7.87
  -1  -1 -10  129.36    7.99
  -1   1 -10  125.38    6.95
  -1   1 -10  128.86    8.00
  -1   1 -11  307.66   16.23
   1  -1  11  317.69   17.40
  -1   1 -11  310.12   16.12
   1   1  11  329.32   17.58
  -1   1 -11  327.82   16.22
  -1  -1 -11  327.03   17.53
  -1   1 -11  361.05   18.12
  -1   1 -11  312.42   16.08
   1  -1  11  300.68   15.93
  -1  -1 -11  304.03   16.36
   1  -1  11  330.79   17.11
  -1  -1 -11  328.06   16.32
  -1  -1 -11  333.45   16.88
   1   1  11  317.51   15.96
  -1  -1 -11  321.53   15.84
  -1   1 -11  314.79   18.01
  -1  -1 -11  327.99   16.10
  -1  -1 -11  322.59   17.13
  -1   1 -11  338.77   17.61
  -1   1 -12   40.35    5.22
   1   1  12   40.74    3.02
   1   1  12   40.27    2.80
  -1   1 -12   37.14    3.20
   1  -1  12   31.70    4.09
   1  -1  12   34.63    4.31
  -1  -1 -12   39.94    3.37
  -1  -1 -12   43.20    4.33
  -1   1 -12   42.75    3.23
   1  -1  12   33.46    2.90
  -1  -1 -12   40.76    3.25
  -1  -1 -12   38.26    2.92
  -1   1 -12   44.78    5.01
  -1  -1 -12   38.37    2.82
   1   1  12   43.89    4.78
  -1  -1 -12   46.77    3.52
  -1  -1 -12   35.26    3.87
  -1  -1 -12   40.10    4.71
  -1  -1 -12   42.29    5.00
  -1   1 -12   42.47    3.47
  -1   1 -12   40.86    5.16
  -1   1 -12   37.51    4.78
   1   1  13   38.09    2.65
  -1   1 -13   38.13    3.21
   1  -1  13   38.32    4.40
  -1   1 -13   36.58    3.12
   1   1  13   40.26    3.52
   1  -1  13   25.28    4.05
  -1   1 -13   36.92    5.26
   1   1  13   32.49    4.51
   1   1  13   30.64    2.87
  -1  -1 -13   32.29    5.14
  -1  -1 -13   30.79    2.83
  -1  -1 -13   31.32    3.24
   1   1  13   38.13    4.82
  -1   1 -13   36.47    4.74
  -1  -1 -13   32.46    4.84
  -1  -1 -13   35.48    4.13
  -1  -1 -13   31.60    3.70
  -1  -1 -13   36.69    3.24
  -1   1 -13   44.03    5.39
  -1  -1 -13   37.66    2.79
  -1   1 -13   35.25    4.86
  -1   1 -13   35.59    3.36
   1  -1  13   29.73    2.84
   1  -1  14   27.56    4.44
   1   1  14   43.74    3.79
  -1   1 -14   30.54    5.16
   1  -1  14   39.39    4.30
   1   1  14   38.11    3.10
  -1  -1 -14   39.20    3.15
   1  -1  14   33.56    3.07
   1   1  14   39.26    5.79
  -1  -1 -14   38.48    4.25
   1   1  14   43.08    3.04
  -1  -1 -14   38.52    3.05
  -1   1 -14   38.21    3.58
   1   1  14   43.17    5.15
  -1  -1 -14   29.15    5.26
  -1   1 -14   47.47    5.54
  -1   1 -14   45.31    5.18
   1  -1  14   35.39    4.67
  -1  -1 -14   34.81    3.43
  -1  -1 -14   39.66    5.05
   1   1  14   42.43    5.11
  -1  -1 -14   37.45    3.59
  -1   1 -14   39.67    3.43
  -1   1 -14   41.30    5.74
  -1   1 -14   41.84    3.41
  -1  -1 -15    0.32    1.69
  -1   1 -15    4.09    2.23
   1  -1  15    2.06    2.70
  -1  -1 -15    4.70    1.88
  -1  -1 -15    1.01    2.49
  -1   1 -15    0.79    3.79
   1   1  15    7.59    3.57
  -1   1 -15    3.27    4.19
   1   1  15    3.50    1.66
   1  -1  15    2.88    1.72
  -1  -1 -15    3.22    2.40
  -1   1 -15   -1.11    3.63
  -1   1 -15    3.84    2.67
  -1  -1 -15    2.03    3.44
   1   1  15    2.48    2.55
   1   1  15    2.78    1.94
   1  -1  15    4.11    2.68
  -1   1 -15    0.89    2.18
   1   1  15    0.84    3.54
   1   1  15    1.19    4.52
  -1   1 -15    6.27    3.94
  -1  -1 -15    4.33    4.27
   1   1  16    0.17    2.70
  -1   1 -16    1.92    2.56
  -1  -1 -16    0.71    3.78
   1  -1  16    2.16    2.72
   1   1  16   10.40    4.81
   1   1  16    3.88    2.12
  -1   1 -16    2.11    2.34
  -1   1 -16    2.46    3.90
  -1  -1 -16    3.29    4.10
  -1   1 -16   -2.56    3.86
  -1   1 -16    2.70    2.20
  -1   1 -16   -0.43    4.17
  -1  -1 -16    1.29    1.83
   1   1  16    1.65    1.71
  -1   1 -16    2.87    1.98
  -1  -1 -16    1.39    1.93
   1   1  16    2.07    3.36
   1   1  16    6.57    3.80
  -1  -1 -16    0.62    1.87
   1  -1  16    1.34    1.82
  -1  -1 -16    4.65    2.47
  -1   1 -17   89.65    5.28
   1   1  17   89.76    7.97
  -1  -1 -17   83.10    7.50
  -1  -1 -17   90.29    5.37
  -1   1 -17   85.27    5.70
   1   1  17   70.38    7.05
  -1  -1 -17   81.24    5.78
  -1   1 -17   65.31    7.44
   1   1  17   94.19    5.30
   1  -1  17   80.05    5.31
  -1   1 -17   84.17    5.77
  -1   1 -17   74.66    8.10
  -1  -1 -17   67.27    7.69
  -1   1 -17   95.87    5.53
   1  -1  17   85.93    7.02
  -1   1 -17   79.21    7.59
   1   1  17   91.21    6.06
  -1  -1 -17   88.94    5.28
   1   1  17   87.70    8.16
  -1   1 -18  103.29    5.92
  -1   1 -18  102.66    6.04
   1   1  18  108.98    5.99
   1  -1  18   93.84    6.00
   1   1  18   98.16    6.80
  -1   1 -18   93.85    6.47
  -1  -1 -18  107.29    6.07
  -1  -1 -18   95.72    6.38
  -1   1 -18   99.25    6.29
  -1  -1 -19   14.14    2.28
  -1  -1 -19   13.18    2.63
  -1   1 -19   13.66    2.73
   1   1  19   12.72    3.14
  -1   1 -19   13.25    2.09
   1  -1  19   15.23    2.22
   1   1  19   12.14    2.62
  -1   1 -19   11.42    1.98
   1   1  19   14.74    2.13
  -1   1 -19   16.99    2.70
   1  -1  19   11.80    2.61
  -1  -1 -20  219.99    5.54
   1  -1  20  227.48    4.98
  -1   1 -20  204.40    5.49
  -1   1 -20  195.93    4.33
   1   1  20  238.29    4.85
   1  -1  20  206.58    5.45
   1   1  20  204.73    5.57
  -1  -1 -20  219.73    5.03
   1   1  20  239.36    6.32
  -1   1 -20  223.79    5.46
  -1   1 -21   21.88    2.58
   1   1  21   20.30    2.96
  -1   1 -21   22.84    2.48
  -1  -1 -21   20.85    2.59
   1  -1  21   18.39    2.44
   1   1  21   17.61    2.46
   1  -1  21   19.49    2.56
  -1  -1 -21   20.32    2.29
  -1   1 -22   25.17    2.36
   1   1  22   29.44    2.88
   1  -1  22   28.23    2.51
   1  -1  22   20.40    2.30
  -1  -1 -22   26.55    2.49
   1   1  22   22.98    2.32
  -1   1 -22   23.84    2.49
  -1  -1 -22   29.20    2.33
  -1   1 -23   -0.06    1.29
  -1  -1 -23    0.82    1.17
  -1  -1 -23    1.61    1.34
   1  -1  23   -0.52    1.15
   1   1  23    0.86    1.23
   1  -1  23    2.34    1.61
   1   1  23   -0.57    1.55
   1  -1  23   -0.17    1.22
   1   2 -22    7.72    1.38
   1  -2 -22   11.96    1.47
  -1   2  22    7.90    1.25
   1   2 -21   53.80    3.49
  -1   2  21   45.83    3.35
   1  -2 -21   59.25    3.40
  -1   2  21   54.44    3.27
   1   2 -21   54.19    3.51
  -1  -2  21   47.38    3.45
  -1  -2  21   46.86    3.32
   1  -2 -20    3.53    1.67
   1   2 -20    0.91    1.90
  -1   2  20    6.61    1.93
  -1  -2  20    1.05    1.70
  -1   2  20    2.09    1.47
  -1  -2  20    4.62    1.84
   1   2 -20    2.54    1.97
  -1   2  19    0.19    1.65
   1   2 -19    3.94    2.31
   1  -2 -19   -0.28    1.81
  -1  -2  19    2.28    2.00
   1   2 -19    3.50    2.39
   1  -2 -19   -0.29    1.45
  -1   2  19    0.10    2.09
  -1  -2  19    1.54    1.95
   1  -2 -18    1.81    1.67
   1   2 -18    3.05    2.57
   1  -2 -18    3.87    1.86
   1   2 -18   -0.90    1.27
  -1   2  18    1.05    1.79
  -1  -2  18    3.38    2.28
  -1  -2  18    5.79    2.21
  -1   2  18    1.11    2.67
  -1   2  18    5.88    2.53
  -1   2  17   97.64    5.58
  -1   2  17   95.69    6.65
   1  -2 -17  106.60    6.02
   1   2 -17   97.06    5.79
  -1  -2  17  102.22    6.38
  -1   2  17  105.22    6.06
  -1   2  17  102.32    6.26
   1  -2 -17  100.06    5.75
   1   2 -17   95.87    6.42
  -1  -2  17   96.55    6.40
  -1   2  16    1.86    1.50
   1   2 -16    1.19    2.09
  -1  -2  16    3.96    2.55
   1  -2 -16    1.37    2.05
  -1   2  16    2.40    1.87
   1  -2 -16    3.08    1.83
  -1   2  16    1.08    2.69
  -1   2  16    3.11    2.81
  -1  -2  16    3.09    2.60
   1   2 -16    1.71    2.77
   1  -2 -15  408.28   19.00
  -1   2  15  433.44   19.18
   1  -2 -15  348.05   20.51
   1   2 -15  366.81   21.69
  -1  -2  15  376.69   19.52
  -1   2  15  354.18   20.61
  -1   2  15  399.44   18.82
   1  -2 -15  374.43   18.83
   1   2 -15  337.79   20.97
  -1  -2  15  347.37   19.37
   1   2 -15  356.57   19.05
  -1   2  15  330.85   21.37
  -1   2  15  402.44   19.20
   1   2 -15  353.97   21.01
  -1   2  15  364.10   19.58
   1   2 -15  341.56   19.32
  -1   2  15  359.86   20.94
   1   2 -15  380.97   19.48
   1   2 -14   45.66    6.06
   1  -2 -14   69.15    4.17
   1   2 -14   61.14    6.40
   1  -2 -14   57.15    3.95
  -1   2  14   57.89    4.52
   1   2 -14   52.33    4.53
   1  -2 -14   47.08    5.47
  -1  -2  14   59.83    4.39
   1   2 -14   53.46    4.32
  -1   2  14   62.23    5.05
   1   2 -14   55.09    6.61
  -1   2  14   63.22    3.93
  -1   2  14   53.29    6.56
  -1  -2  14   47.95    4.46
  -1   2  14   55.41    5.67
   1   2 -14   62.14    4.77
  -1   2  14   59.43    6.11
  -1  -2  14   56.82    4.74
  -1  -2  13 1223.04   57.81
   1   2 -13 1218.28   59.56
   1   2 -13 1146.62   59.68
  -1  -2  13 1196.37   58.04
   1   2 -13 1140.08   59.06
  -1   2  13 1289.25   57.43
  -1   2  13 1065.91   59.97
  -1   2  13 1224.98   57.64
   1   2 -13 1049.15   57.74
  -1  -2  13 1085.50   57.82
   1   2 -13 1181.33   57.76
   1  -2 -13 1259.32   57.48
   1   2 -13 1162.58   57.88
  -1   2  13 1181.57   58.07
   1  -2 -13 1201.80   57.37
   1  -2 -13 1173.01   59.07
  -1   2  13 1207.60   59.16
  -1   2  13 1185.10   59.30
   1   2 -13 1106.81   60.12
  -1   2  12   58.29    5.40
  -1   2  12   54.69    6.34
   1   2 -12   51.38    4.29
  -1   2  12   62.06    3.70
  -1  -2  12   53.36    4.10
  -1   2  12   53.74    5.49
  -1   2  12   54.50    4.46
   1  -2 -12   50.68    5.20
   1   2 -12   46.74    5.58
   1   2 -12   47.38    4.49
   1  -2 -12   58.40    3.71
   1   2 -12   50.37    4.20
   1   2 -12   51.91    5.49
  -1  -2  12   51.40    4.23
   1  -2 -12   55.14    3.76
   1  -2 -12   57.10    3.74
   1   2 -12   45.28    4.81
   1   2 -12   50.44    5.71
  -1  -2  12   42.82    4.76
  -1  -2  12   56.28    4.45
   1   2 -12   41.84    6.15
   1   2 -11   40.06    5.81
   1   2 -11   43.87    5.00
   1   2 -11   53.24    4.39
  -1  -2  11   53.91    4.27
  -1   2  11   55.00    5.44
  -1   2  11   54.03    5.31
  -1   2  11   59.95    3.64
  -1  -2  11   59.78    4.06
  -1  -2  11   48.01    4.30
   1   2 -11   59.03    4.34
  -1   2  11   49.09    4.53
  -1   2  11   53.72    6.29
   1   2 -11   46.64    4.17
   1  -2 -11   55.92    3.73
  -1  -2  11   46.08    4.98
   1   2 -11   45.48    5.45
   1  -2 -11   58.69    3.68
   1  -2 -11   59.30    3.69
   1   2 -11   42.52    5.61
   1   2 -11   52.69    5.29
   1  -2 -11   52.08    5.22
   1   2 -10   50.17    5.58
   1   2 -10   53.77    4.13
   1  -2 -10   50.88    4.90
  -1   2  10   56.48    5.15
  -1   2  10   52.72    5.07
  -1   2  10   55.72    3.66
  -1   2  10   55.82    6.19
  -1  -2  10   56.15    4.06
  -1  -2  10   52.53    4.12
   1   2 -10   53.12    5.22
   1   2 -10   54.89    5.53
   1   2 -10   47.39    4.24
  -1   2  10   52.70    4.33
  -1  -2  10   52.39    5.12
  -1  -2  10   61.49    4.45
   1  -2 -10   57.55    3.66
   1   2 -10   57.15    6.31
   1   2  -9  193.57   12.03
  -1   2   9  201.33   11.27
  -1   2   9  185.62   11.21
  -1   2   9  183.27   12.36
   1   2  -9  176.64   11.59
  -1   2   9  186.96   10.14
  -1  -2   9  186.42   10.49
   1  -2  -9  196.42   11.39
   1   2  -9  181.46   10.31
   1  -2  -9  210.07    9.98
  -1   2   9  202.01    9.94
   1  -2  -9  190.07   10.62
  -1   2   9  175.08   10.50
   1   2  -9  191.14   10.31
  -1   2   9  201.99   10.16
   1  -2  -9  200.52   10.70
  -1  -2   9  168.18   10.28
   1   2  -9  187.43   11.39
  -1  -2   9  192.49   11.48
  -1  -2   9  199.13   10.27
   1   2  -9  181.95   12.33
   1   2  -8   13.85    4.01
   1  -2  -8   11.11    3.14
   1  -2  -8    8.72    2.13
  -1   2   8   11.33    1.75
   1   2  -8   12.87    2.18
  -1   2   8   12.09    2.75
  -1   2   8    5.26    2.81
  -1  -2   8   12.71    2.44
  -1  -2   8   13.04    2.12
   1   2  -8   14.42    3.20
   1   2  -8   10.80    2.25
  -1   2   8   10.61    2.21
  -1   2   8   11.70    2.08
  -1  -2   8    8.15    2.96
  -1   2   8   12.73    2.35
   1   2  -8   15.46    3.34
  -1   2   8   14.23    3.94
   1  -2  -8   14.11    1.89
   1  -2  -8    6.91    2.09
   1   2  -8   12.64    3.67
   1   2  -7  180.70   11.52
   1   2  -7  169.99    9.79
   1  -2  -7  177.29   10.10
  -1  -2   7  173.14   10.96
  -1   2   7  177.40    9.91
  -1   2   7  193.68   10.38
  -1  -2   7  199.11    9.80
  -1   2   7  201.99   10.60
   1  -2  -7  183.98    9.50
  -1   2   7  178.90   11.82
   1   2  -7  174.27   10.82
  -1   2   7  185.22    9.62
   1   2  -7  166.90    9.82
  -1   2   7  189.38    9.63
   1   2  -7  190.17   10.57
  -1  -2   7  173.53    9.96
   1   2  -7  164.52   11.45
   1  -2  -7  186.07   10.68
   1  -2  -7  195.07   10.12
  -1   2   7  192.19    9.48
   1  -2  -6    2.69    1.86
   1  -2  -6    1.59    1.69
  -1  -2   6    5.72    2.94
  -1  -2   6    0.83    1.86
  -1   2   6    4.01    1.79
   1   2  -6    4.77    2.38
   1   2  -6    6.81    3.65
   1   2  -6    0.31    1.84
  -1   2   6    3.00    1.94
   1  -2  -6    4.01    2.48
  -1   2   6    1.12    1.30
  -1  -2   6    3.38    1.67
   1   2  -6    2.63    2.22
   1   2  -6    1.68    1.89
  -1   2   6    1.30    2.06
  -1   2   6    2.72    1.92
   1  -2  -6    2.89    2.02
   1   2  -6    1.51    3.20
   1  -2  -6    2.82    1.51
  -1   2   6    4.23    1.88
  -1  -2   5 4010.70  183.53
   1  -2  -5 3836.84  182.91
   1   2  -5 3693.26  182.26
  -1   2   5 3843.38  182.03
   1  -2  -5 3988.41  183.17
  -1   2   5 3657.75  182.02
   1  -2  -5 4136.55  182.61
   1  -2  -5 3714.15  182.05
   1   2  -5 3861.20  182.21
  -1  -2   5 4016.70  182.45
  -1   2   5 3369.92  182.44
  -1   2   5 3814.27  182.79
   1   2  -5 3668.20  183.78
  -1   2   5 4149.74  182.79
   1   2  -5 3702.62  182.70
  -1   2   4  567.61   27.91
   1  -2  -4  563.40   28.05
   1   2  -4  525.28   27.26
   1  -2  -4  578.27   28.17
  -1   2   4  596.55   27.65
  -1  -2   4  557.32   28.47
   1   2  -4  505.35   28.60
   1  -2  -4  590.73   27.67
  -1  -2   4  537.37   27.39
  -1  -2   4  535.32   28.86
   1  -2  -4  543.29   27.07
  -1  -2   4  559.33   27.36
   1   2  -3 2252.72  113.29
   1  -2  -3 2281.74  112.85
  -1  -2   3 2362.56  113.19
  -1   2   3 2340.92  112.77
  -1   2   3 2274.19  112.26
  -1   2   3 2411.54  113.08
   1  -2  -3 2381.25  112.91
   1   2  -3 2291.79  112.05
   1  -2  -3 2436.87  112.51
   1   2  -3 2391.38  113.65
  -1  -2   3 2300.27  113.57
   1   2  -2    1.17    2.58
  -1  -2   2    1.28    3.08
  -1   2   2    1.16    1.44
   1  -2  -2    0.37    2.23
  -1   2   2    0.90    2.12
   1   2  -2    0.25    2.97
   1  -2  -2   -0.20    2.66
  -1  -2   2    2.41    1.19
   1  -2  -2    2.60    2.09
  -1   2   2    0.96    2.36
   1   2  -1  236.75   12.62
  -1   2   1  219.67   11.01
   1  -2  -1  213.40   12.18
  -1   2   1  223.20   12.07
   1   2  -1  222.02   12.24
   1  -2  -1  204.20   11.69
  -1  -2   1  219.51   12.48
  -1   2   1  220.68   12.10
  -1  -2   1  200.07   10.93
  -1  -2   0    9.40    3.36
   1  -2   0    6.74    3.24
  -1  -2   0    8.90    1.45
   1   2   0    8.45    3.25
  -1   2   0    6.75    1.33
   1  -2   0    5.91    2.48
  -1   2   0   14.64    3.01
   1   2   0    5.63    2.50
  -1  -2   0    8.39    2.78
  -1   2  -1   43.78    4.34
  -1  -2  -1   46.19    4.27
   1  -2   1   44.34    4.44
   1   2   1   43.72    4.35
  -1  -2  -1   37.04    2.79
  -1   2  -1   35.12    2.70
  -1  -2  -1   49.75    4.46
   1   2   1   42.12    4.16
   1  -2   1   40.57    4.11
   1   2   1   39.20    3.78
   1   2   1   36.64    3.75
   1   2   2    6.35    2.78
   1   2   2    9.89    2.53
   1  -2   2    7.63    3.30
  -1  -2  -2    9.64    1.84
  -1   2  -2    6.09    2.74
  -1   2  -2    7.90    1.65
   1   2   2    4.92    2.67
   1   2   2    8.87    2.68
  -1  -2  -2    8.04    1.51
  -1  -2  -2    8.87    2.88
  -1   2  -2    5.62    2.75
  -1   2  -2   11.56    1.86
  -1  -2  -2    7.84    2.82
   1   2   2    5.68    2.66
   1  -2   2    6.64    2.89
   1   2   3  278.54   15.10
  -1   2  -3  272.50   15.41
   1  -2   3  273.38   15.85
  -1  -2  -3  299.18   15.33
   1   2   3  288.75   15.29
   1   2   3  286.59   15.40
  -1   2  -3  285.79   14.33
  -1   2  -3  289.08   14.69
   1   2   3  260.11   15.54
  -1   2  -3  272.40   14.18
  -1   2  -3  266.25   15.35
  -1  -2  -3  285.19   14.36
  -1  -2  -3  303.06   15.44
  -1  -2  -3  285.47   14.40
   1  -2   4    4.23    3.45
  -1   2  -4    2.16    1.91
   1  -2   4    2.94    1.84
  -1  -2  -4    5.05    1.64
  -1   2  -4    3.98    2.83
  -1  -2  -4    2.03    1.58
  -1  -2  -4    4.54    2.63
  -1  -2  -4    3.44    1.73
  -1   2  -4    3.96    1.84
   1   2   4    1.57    2.71
   1   2   4    2.29    2.57
   1   2   4    1.89    3.16
  -1   2  -4    4.47    1.85
  -1  -2  -4    1.61    1.34
  -1   2  -4    1.73    1.83
   1   2   4    7.33    2.57
  -1   2  -4    4.65    1.72
   1   2   5   12.19    2.60
  -1  -2  -5   13.80    2.92
  -1  -2  -5   13.83    1.91
  -1   2  -5   10.68    2.09
  -1   2  -5   13.37    3.29
  -1   2  -5   11.18    2.37
  -1   2  -5   13.73    3.08
   1  -2   5   11.19    2.13
  -1   2  -5   10.96    2.64
   1   2   5    9.35    3.30
   1   2   5    9.38    3.56
  -1  -2  -5   14.51    1.64
  -1  -2  -5   10.74    1.87
  -1  -2  -5   11.33    1.91
  -1  -2  -5   10.75    1.99
   1   2   5   10.12    3.29
  -1  -2  -6  533.60   24.07
  -1   2  -6  465.80   23.92
   1   2   6  445.37   25.56
  -1  -2  -6  479.99   23.89
  -1   2  -6  461.58   25.04
   1   2   6  496.67   25.13
   1  -2   6  462.01   23.89
  -1   2  -6  503.43   24.67
  -1  -2  -6  431.50   23.77
  -1  -2  -6  544.17   24.95
  -1   2  -6  484.77   25.08
  -1  -2  -6  475.30   24.21
   1  -2   6  487.73   24.11
  -1  -2  -6  499.44   23.62
   1   2   6  502.28   24.57
  -1  -2  -6  497.79   23.86
  -1   2  -6  469.34   23.76
   1   2   6  513.52   25.25
  -1   2  -6  443.06   24.83
  -1   2  -7   29.58    4.00
  -1  -2  -7   39.12    2.63
  -1   2  -7   29.69    2.96
  -1   2  -7   40.10    4.04
  -1  -2  -7   36.85    3.26
  -1  -2  -7   29.01    2.92
   1  -2   7   42.52    5.08
   1  -2   7   29.27    2.96
  -1   2  -7   32.64    2.93
  -1  -2  -7   35.39    3.07
  -1   2  -7   32.13    3.66
  -1   2  -7   35.02    2.82
  -1  -2  -7   36.70    2.92
  -1   2  -7   31.63    3.97
   1   2   7   32.94    4.98
   1   2   7   35.98    4.43
  -1  -2  -7   34.18    3.69
   1  -2   7   40.09    3.30
   1   2   7   39.96    4.55
   1   2   7   31.45    3.19
   1   2   8    9.54    4.10
   1   2   8   11.20    2.18
   1  -2   8   17.83    4.40
  -1  -2  -8   11.00    2.82
  -1   2  -8    9.32    3.21
  -1   2  -8    9.03    3.22
  -1   2  -8   11.70    2.85
  -1   2  -8   14.05    2.31
   1  -2   8   16.14    2.52
  -1  -2  -8   16.04    2.22
  -1  -2  -8   14.89    2.59
   1   2   8   15.26    3.46
  -1   2  -8   12.76    2.48
  -1  -2  -8    9.35    2.10
  -1  -2  -8   12.44    1.79
  -1   2  -8   10.19    2.11
   1   2   8   12.26    2.46
   1  -2   8   10.04    2.08
   1   2   8   17.69    3.83
  -1  -2  -8   10.39    2.23
  -1   2  -8   11.91    3.09
  -1   2  -9    3.02    3.03
  -1   2  -9    4.25    2.30
   1   2   9    0.30    3.87
  -1   2  -9    2.22    2.15
   1   2   9    3.43    3.29
  -1   2  -9    4.05    2.37
  -1  -2  -9    1.17    2.50
   1  -2   9    5.44    3.81
   1   2   9    4.96    2.34
  -1  -2  -9    1.18    1.81
  -1   2  -9    5.37    2.64
  -1   2  -9    2.71    1.96
   1  -2   9    0.35    1.77
  -1  -2  -9    4.97    2.04
   1   2   9    2.88    2.01
  -1  -2  -9    4.26    2.07
  -1  -2  -9   -1.34    2.22
   1  -2   9    4.74    2.36
   1   2   9   -1.17    3.63
  -1   2  -9    4.11    2.86
  -1  -2  -9    3.14    1.62
  -1   2 -10    7.25    3.62
  -1  -2 -10    5.95    2.91
  -1   2 -10    7.56    2.80
  -1   2 -10    6.94    2.40
  -1   2 -10    4.66    2.22
   1   2  10    6.76    3.92
   1   2  10    7.31    3.69
  -1  -2 -10   11.71    2.79
   1   2  10    3.13    2.07
   1  -2  10    7.47    4.33
  -1   2 -10    3.74    2.17
   1   2  10    9.10    2.55
  -1  -2 -10    2.90    1.99
  -1   2 -10    3.36    1.93
   1  -2  10    3.92    1.99
   1   2  10    4.60    3.71
  -1   2 -10    4.82    3.01
  -1  -2 -10    5.38    2.36
  -1  -2 -10    9.50    2.21
   1  -2  10    6.92    2.37
   1  -2  10    2.22    1.75
  -1  -2 -10    7.48    1.76
   1   2  11  170.56   10.76
  -1   2 -11  137.99    9.34
  -1   2 -11  164.96    8.97
   1  -2  11  143.36    8.61
  -1  -2 -11  154.93    9.47
  -1  -2 -11  150.79    8.39
  -1  -2 -11  146.80    8.51
   1  -2  11  146.65   10.69
  -1   2 -11  157.60    8.60
  -1   2 -11  179.33   10.54
  -1  -2 -11  159.22    8.39
   1   2  11  159.44    8.79
  -1  -2 -11  163.86    8.94
  -1   2 -11  158.87    8.94
   1   2  11  168.56   10.86
  -1  -2 -11  177.50    8.80
   1  -2  11  156.30    8.53
   1   2  11  146.17    8.88
   1   2  11  149.22   11.13
   1  -2  11  164.01    9.24
  -1   2 -11  152.10   10.49
  -1  -2 -11  166.98    9.96
  -1  -2 -12    7.80    1.96
  -1  -2 -12    5.97    1.85
  -1   2 -12    9.44    2.53
   1   2  12   10.64    4.14
  -1   2 -12    4.07    2.00
  -1  -2 -12    8.47    2.46
   1   2  12    6.10    3.91
  -1  -2 -12    4.87    2.81
  -1   2 -12    6.55    2.48
   1  -2  12    5.22    2.56
  -1  -2 -12    7.47    2.20
   1  -2  12    8.45    2.15
  -1   2 -12    7.60    3.91
   1   2  12    7.29    2.52
  -1  -2 -12    7.51    2.63
  -1   2 -12    4.94    2.38
   1   2  12    5.14    4.08
   1   2  12    7.32    2.80
  -1   2 -12    6.98    3.71
   1  -2  12    8.63    3.89
   1  -2  13   10.09    3.08
   1  -2  13    9.77    4.11
  -1  -2 -13   12.26    2.16
  -1  -2 -13    7.20    3.03
   1   2  13    7.29    4.68
  -1   2 -13    6.29    3.59
   1   2  13    8.23    4.22
  -1  -2 -13    9.95    2.23
  -1   2 -13   10.01    2.22
  -1   2 -13   11.42    2.71
   1  -2  13    9.59    2.36
  -1   2 -13   10.39    4.03
  -1  -2 -13    7.57    2.77
   1   2  13   13.25    2.71
   1   2  13   12.97    2.63
  -1  -2 -13   17.09    2.85
  -1   2 -13    8.82    2.84
   1  -2  14   20.86    4.39
   1   2  14   17.44    3.05
  -1   2 -14   25.61    3.32
   1  -2  14   18.56    3.20
   1   2  14   29.70    2.54
   1   2  14   17.35    4.75
  -1   2 -14   18.22    2.35
   1  -2  14   17.79    2.77
  -1  -2 -14   25.11    3.08
   1   2  14   24.21    3.26
  -1  -2 -14   17.63    2.57
  -1  -2 -14   15.50    3.40
  -1   2 -14   19.93    4.36
  -1  -2 -14   21.19    2.52
  -1   2 -14   20.24    3.02
  -1  -2 -15   68.06    4.37
  -1   2 -15   74.14    4.94
   1   2  15   55.61    6.65
   1   2  15   73.43    4.31
   1  -2  15   63.63    4.56
  -1   2 -15   54.77    4.00
   1   2  15   68.66    4.67
   1   2  15   58.65    4.78
  -1  -2 -15   62.77    4.78
   1  -2  15   52.46    5.46
  -1   2 -15   56.49    6.38
   1  -2  15   74.06    5.17
  -1   2 -15   61.13    4.82
  -1   2 -16   49.22    4.14
  -1  -2 -16   54.29    3.60
   1   2  16   51.23    3.52
   1  -2  16   45.93    3.67
  -1   2 -16   40.05    3.11
   1  -2  16   58.33    4.60
   1   2  16   48.11    3.98
   1   2  16   49.26    4.30
  -1   2 -16   50.15    3.98
   1   2  17   52.09    3.56
  -1   2 -17   55.55    4.20
   1  -2  17   45.34    4.35
  -1   2 -17   49.66    4.01
   1  -2  17   48.01    3.74
  -1  -2 -17   55.41    3.68
   1   2  17   51.19    4.33
   1   2  17   55.04    3.95
   1  -2  18    3.38    2.49
  -1  -2 -18    3.04    1.76
  -1   2 -18    2.32    2.16
   1   2  18    4.80    2.11
   1   2  18    5.81    2.46
  -1   2 -18    2.87    1.92
  -1   2 -18    4.00    1.66
   1   2  18    2.25    1.48
  -1   2 -18    2.67    2.13
  -1  -2 -19   14.39    1.86
  -1   2 -19   12.36    2.03
  -1   2 -19   12.38    2.25
  -1   2 -19   11.63    2.04
  -1   2 -19   10.08    1.66
   1   2  19    9.17    1.58
   1   2  19   11.18    2.08
   1   2  19   15.35    2.50
   1  -2  19   12.55    2.52
  -1   2 -20    8.87    1.34
   1  -2  20   11.94    2.15
   1   2  20   11.42    2.13
  -1  -2 -20   10.40    1.59
  -1   2 -20   10.24    1.81
  -1   2 -20   -0.33    0.86
   1  -2  20    0.47    0.66
  -1   2 -20    5.19    1.68
  -1  -2 -21    8.10    1.29
   1  -2  21    9.16    1.78
   1   2  21    5.69    1.56
  -1   2 -21    4.40    1.30
  -1   3  19    1.87    1.14
  -1  -3  18    7.77    1.58
  -1   3  18   10.33    1.40
  -1   3  18   10.91    1.77
   1   3 -18   10.60    1.75
  -1   3  18   13.09    1.78
   1  -3 -18    9.63    1.57
   1   3 -18   10.86    1.75
   1  -3 -18    9.80    1.29
   1  -3 -17   14.45    1.81
   1   3 -17   11.33    2.09
  -1   3  17   12.02    1.66
  -1  -3  17   11.96    2.07
   1   3 -17   11.37    1.57
   1  -3 -17   15.38    1.62
  -1   3  17   12.80    2.08
   1   3 -17   14.57    2.07
   1  -3 -16  126.71    6.22
   1   3 -16  124.57    6.51
   1   3 -16  117.07    6.50
  -1   3  16  125.82    6.21
  -1   3  16  117.12    6.50
   1  -3 -16  108.64    6.03
   1   3 -16  115.68    6.17
  -1  -3  16  102.06    6.46
   1  -3 -15   75.69    4.16
   1   3 -15   62.96    4.42
   1  -3 -15   65.35    3.96
  -1  -3  15   56.94    4.43
  -1   3  15   63.11    4.49
  -1   3  15   69.84    4.11
   1   3 -15   60.26    4.41
   1   3 -15   63.35    4.15
   1  -3 -15   51.59    3.87
  -1  -3  14   12.16    2.61
   1  -3 -14   11.58    2.05
   1   3 -14   10.21    2.61
   1   3 -14    8.03    2.56
   1   3 -14    9.85    2.30
   1  -3 -14    6.94    1.84
  -1   3  14    9.92    2.43
  -1   3  14   11.19    2.43
   1  -3 -14    9.70    1.92
  -1  -3  13    2.60    2.66
   1   3 -13    5.05    2.51
   1   3 -13    4.38    2.21
  -1  -3  13    4.90    2.14
   1  -3 -13    1.42    1.83
  -1   3  13    7.32    2.53
   1  -3 -13    5.52    1.89
  -1   3  13    3.38    1.33
  -1   3  13    6.37    2.54
   1  -3 -13    1.90    1.91
   1   3 -13    6.37    2.43
   1  -3 -12  162.30    8.48
   1   3 -12  156.62    8.88
   1  -3 -12  168.20    8.40
  -1   3  12  158.78    8.10
  -1  -3  12  158.96    8.60
   1   3 -12  150.07    8.84
  -1   3  12  148.64    8.91
   1  -3 -12  120.28    8.31
  -1   3  12  165.22    8.69
  -1  -3  12  149.71    9.06
   1  -3 -11   34.93    3.03
   1   3 -11   26.29    3.55
  -1   3  11   30.36    2.56
   1   3 -11   29.03    3.51
  -1  -3  11   39.09    3.27
   1  -3 -11   22.40    2.76
   1  -3 -11   32.01    2.94
  -1   3  11   32.79    3.29
  -1  -3  11   29.11    3.57
  -1   3  11   27.24    3.40
  -1  -3  10    6.61    4.26
   1   3 -10    7.10    3.80
  -1  -3  10    9.24    3.31
   1  -3 -10    3.58    1.99
   1   3 -10    4.95    3.39
  -1  -3  10    8.52    2.30
   1   3 -10    9.77    2.77
   1  -3 -10    7.45    3.08
   1   3 -10    3.14    3.37
   1   3 -10   11.11    2.77
  -1   3  10    6.85    2.56
  -1   3  10   10.49    2.66
   1   3 -10    8.57    2.51
  -1   3  10    9.39    1.70
   1  -3 -10   12.43    2.28
   1   3  -9   -3.12    3.19
   1   3  -9    1.04    2.54
   1   3  -9    5.37    2.70
   1  -3  -9    1.10    2.78
   1   3  -9    2.38    3.65
  -1   3   9    1.10    1.62
   1  -3  -9    0.71    1.82
  -1  -3   9    1.99    3.29
   1  -3  -9    1.55    2.02
  -1  -3   9   -1.88    4.12
   1   3  -9   -3.67    3.93
  -1  -3   9   -0.67    2.04
  -1   3   9    3.23    2.48
  -1   3   9    1.61    2.39
   1   3  -9    2.63    2.42
  -1  -3   8   -0.68    3.57
   1   3  -8   -0.38    3.30
   1   3  -8    3.45    2.84
   1  -3  -8    2.45    3.03
  -1   3   8    3.27    1.72
  -1  -3   8    4.44    2.17
   1  -3  -8    5.61    2.06
   1   3  -8    1.93    2.66
  -1   3   8    2.47    2.48
   1   3  -8    2.30    3.42
  -1   3   8    3.31    2.62
   1   3  -8    3.58    2.29
   1   3  -8    3.66    3.91
  -1  -3   8    1.40    3.86
   1  -3  -8    2.53    2.12
  -1   3   7  119.11    6.39
  -1  -3   7  117.39    6.86
  -1   3   7  122.48    6.69
   1   3  -7   88.23    8.34
   1  -3  -7  117.89    7.82
   1   3  -7  107.19    6.88
   1  -3  -7  122.77    6.58
   1   3  -7  111.14    7.05
   1   3  -7  111.02    8.95
   1   3  -7  116.33    6.91
   1   3  -7   90.66    8.30
  -1  -3   7   86.04    8.79
  -1   3   7  111.48    6.98
  -1  -3   7   90.08    8.17
  -1  -3   6  167.88   11.00
   1   3  -6  163.63   11.55
  -1   3   6  168.29    9.15
  -1   3   6  168.02    9.00
  -1  -3   6  197.45    9.45
  -1   3   6  161.24    9.51
   1   3  -6  126.45   10.76
   1   3  -6  157.68    9.43
   1  -3  -6  166.76    9.14
  -1  -3   6  145.60   11.48
   1  -3  -6  167.09   10.29
   1   3  -6  176.17    9.44
   1   3  -6  185.21    9.69
  -1  -3   5    9.88    4.10
   1  -3  -5   12.74    2.24
   1  -3  -5   10.91    3.34
  -1  -3   5   11.03    3.82
   1  -3  -5   11.73    2.98
  -1   3   5    7.94    1.95
  -1   3   5   11.17    2.59
   1  -3  -5   11.43    2.38
  -1  -3   5   11.34    2.45
   1   3  -5   10.05    3.63
   1   3  -5   13.07    2.99
   1   3  -5   16.32    2.77
  -1  -3   5   10.26    2.53
  -1   3   5   10.97    2.22
   1   3  -5   12.47    2.33
   1  -3  -4    2.33    2.56
  -1  -3   4    1.23    3.62
   1   3  -4    6.33    3.47
   1   3  -4    4.67    2.09
  -1  -3   4    5.87    2.62
   1   3  -4    0.78    3.95
   1   3  -4    3.18    2.59
  -1  -3   4    3.75    3.45
  -1   3   4    4.39    1.81
  -1  -3   4    4.49    2.26
  -1   3   4    5.10    2.16
   1   3  -4    3.12    2.18
   1  -3  -4    2.90    1.93
  -1   3   4    2.34    2.12
   1  -3  -4    2.29    2.20
   1  -3  -4    2.58    3.04
  -1   3   4    5.11    2.68
  -1  -3   4    2.39    2.15
   1  -3  -3  149.38    9.99
  -1   3   3  156.81   10.24
   1   3  -3  171.01   11.32
   1  -3  -3  170.81    9.07
  -1  -3   3  176.39    9.24
   1  -3  -3  132.06   10.25
   1   3  -3  171.83    9.09
  -1  -3   3  163.95    9.52
  -1   3   3  169.69    8.66
  -1   3   3  159.51    9.19
  -1  -3   3  146.88    9.07
   1   3  -3  175.06    9.37
  -1  -3   3  139.16   10.93
  -1   3   3  170.56    8.81
   1  -3  -3  168.01    9.13
   1   3  -3  175.60    9.06
   1  -3  -2  407.93   21.62
  -1   3   2  396.50   21.87
   1  -3  -2  349.56   21.85
  -1  -3   2  377.25   22.35
   1   3  -2  453.24   20.85
  -1  -3   2  449.53   20.73
   1   3  -2  391.02   22.65
   1  -3  -2  408.44   20.49
   1   3  -2  393.68   20.40
  -1   3   2  417.94   20.21
   1   3  -2  441.52   20.46
  -1   3   2  407.20   20.57
  -1  -3   2  403.30   20.86
   1   3  -2  391.34   21.39
  -1   3   2  394.32   20.13
  -1  -3   2  390.00   20.47
   1  -3  -2  388.07   20.57
  -1  -3   1   17.49    2.79
   1  -3  -1    9.75    2.31
   1  -3  -1   17.43    4.08
  -1  -3   1   15.35    3.94
   1   3  -1   16.21    4.34
   1   3  -1   14.19    2.86
   1  -3  -1   11.00    3.13
  -1  -3   1   15.75    2.53
  -1  -3   1    9.23    4.02
   1   3  -1   15.12    2.22
  -1   3   1   16.71    2.06
   1   3  -1   20.00    2.36
  -1  -3   1   16.40    2.46
  -1   3   1   11.41    3.47
   1   3  -1   15.28    3.17
  -1  -3   1   16.90    2.27
   1  -3   0    3.69    2.18
   1   3   0    3.58    1.71
  -1   3   0   -2.21    3.09
   1   3   0   -1.08    3.34
   1   3   0    3.05    2.40
   1   3   0    0.99    2.62
   1  -3   0    2.90    2.78
  -1  -3   0    4.79    2.41
  -1  -3   0    3.68    2.18
  -1   3   0    3.03    2.33
  -1  -3   0    2.91    3.43
  -1  -3   0    2.34    3.09
  -1   3   0    2.40    1.68
   1  -3   0   -1.02    3.43
  -1   3   0    5.85    3.22
  -1  -3   0    2.28    1.83
  -1  -3   0    5.03    2.12
  -1   3   0    6.61    2.48
   1  -3   1    6.53    2.87
  -1  -3  -1   -1.66    3.04
  -1  -3  -1   -0.45    2.14
  -1  -3  -1    0.23    2.01
   1  -3   1   -1.07    3.37
   1   3   1    6.25    3.96
  -1   3  -1    3.58    3.51
   1  -3   1    1.88    2.80
  -1  -3  -1    2.78    2.30
   1   3   1   -0.70    3.13
  -1   3  -1    0.81    2.42
  -1   3  -1   -0.27    2.19
   1  -3   1    1.62    2.09
  -1  -3  -1    1.59    3.33
   1   3   1   -0.26    2.67
  -1  -3  -1    0.68    1.89
  -1   3  -1    1.17    1.86
  -1   3  -2   91.93    5.62
   1  -3   2   79.72    7.52
  -1   3  -2   88.87    7.45
  -1  -3  -2  101.03    7.46
  -1   3  -2  102.38    6.09
   1   3   2   94.41    6.94
   1   3   2   84.79    7.42
  -1  -3  -2   87.33    5.47
  -1  -3  -2   98.09    6.02
   1  -3   2   76.38    6.90
   1   3   2   84.40    7.43
  -1  -3  -2   98.24    7.30
  -1   3  -2  111.49    6.17
   1  -3   2   98.96    6.06
   1  -3   2   74.20    6.58
  -1  -3  -2   96.59    5.73
  -1  -3  -2  109.16    6.21
   1  -3   3   14.11    3.61
   1  -3   3   14.52    2.74
   1  -3   3    5.81    3.31
   1   3   3   14.47    3.59
  -1   3  -3   17.07    4.10
   1   3   3   14.38    3.63
  -1   3  -3   12.57    3.68
  -1  -3  -3    8.83    3.24
   1  -3   3   11.10    4.20
   1   3   3   11.94    3.50
  -1  -3  -3   17.37    2.69
  -1  -3  -3   17.70    2.81
  -1   3  -3   15.78    2.38
  -1  -3  -3   15.53    2.43
  -1  -3  -3   14.08    2.17
  -1   3  -3   15.67    2.89
  -1   3  -3   19.50    2.78
   1  -3   4   45.68    5.66
   1   3   4   60.29    5.54
  -1   3  -4   52.78    5.61
   1  -3   4   54.78    6.57
  -1   3  -4   51.00    5.62
   1   3   4   49.59    5.41
  -1  -3  -4   63.87    4.52
   1   3   4   47.31    5.31
  -1   3  -4   54.27    4.16
  -1   3  -4   63.84    4.53
  -1  -3  -4   62.32    4.27
  -1  -3  -4   57.10    3.93
  -1  -3  -4   68.24    4.63
  -1  -3  -4   64.62    5.66
  -1   3  -4   58.21    4.68
   1  -3   4   61.24    4.69
  -1  -3  -5    2.86    2.62
  -1   3  -5    3.39    2.40
  -1   3  -5   -0.43    2.42
  -1   3  -5    3.02    3.17
   1   3   5   -0.28    2.62
   1   3   5    0.13    2.77
  -1  -3  -5    1.50    2.37
  -1  -3  -5    2.37    2.22
  -1   3  -5    3.62    2.15
   1  -3   5   -6.06    4.08
   1  -3   5    1.43    3.44
  -1  -3  -5    3.39    1.99
   1  -3   5    2.82    2.39
   1   3   5    1.75    3.02
  -1  -3  -5    0.86    1.73
  -1   3  -6    8.80    3.62
  -1   3  -6   13.62    2.69
   1   3   6   11.10    3.76
  -1  -3  -6   12.84    3.35
  -1  -3  -6   12.39    2.75
  -1  -3  -6   14.16    2.12
   1  -3   6   12.83    2.93
  -1   3  -6   11.79    2.43
   1  -3   6   10.20    3.71
   1   3   6   13.65    2.99
  -1  -3  -6   10.98    2.43
  -1   3  -6   10.42    3.53
  -1   3  -6   15.35    3.02
  -1   3  -7   50.47    4.09
   1   3   7   50.09    5.23
   1  -3   7   25.74    5.07
  -1  -3  -7   43.70    4.02
  -1  -3  -7   46.66    3.36
  -1   3  -7   50.09    3.83
  -1   3  -7   47.31    4.05
   1   3   7   46.93    4.13
  -1   3  -7   35.38    4.78
  -1  -3  -7   46.02    4.78
  -1   3  -7   27.29    4.95
   1  -3   7   39.64    4.07
  -1  -3  -7   54.92    3.83
   1   3   8   84.63    8.53
  -1   3  -8  100.00    8.02
  -1   3  -8   84.19    7.46
   1   3   8   91.55    7.91
  -1  -3  -8  117.81    6.18
  -1  -3  -8   94.52    6.80
   1  -3   8   64.80    7.78
   1  -3   8   94.46    8.61
  -1   3  -8  117.93    6.90
  -1   3  -8  115.20    6.79
  -1  -3  -8  124.10    6.46
   1  -3   8  111.07    6.92
  -1  -3  -8  114.00    7.84
   1  -3   9  156.08   11.41
  -1   3  -9  176.96    9.51
  -1   3  -9  128.98   10.03
   1   3   9  170.10   10.88
  -1   3  -9  153.44   10.53
  -1  -3  -9  151.61    9.47
   1  -3   9  110.70   10.63
  -1  -3  -9  161.00   10.44
   1   3   9  138.46   11.38
  -1  -3  -9  187.64    9.25
   1  -3   9  177.95    9.61
  -1  -3  -9  190.22    8.93
  -1   3 -10    3.28    2.55
   1   3  10    1.42    4.01
  -1  -3 -10    2.40    2.64
  -1  -3 -10    9.67    2.34
  -1   3 -10    3.34    2.23
  -1  -3 -10    7.18    1.97
   1  -3  10    4.61    2.58
  -1  -3 -10    4.06    2.09
   1   3  10    0.83    1.91
  -1  -3 -11   54.50    3.64
  -1   3 -11   48.82    4.18
  -1  -3 -11   45.64    4.23
   1   3  11   56.43    4.36
  -1   3 -11   47.60    3.85
   1   3  11   41.31    3.62
  -1  -3 -11   54.66    3.62
  -1  -3 -11   54.73    3.95
   1  -3  11   43.47    4.38
  -1   3 -12  103.86    5.97
  -1   3 -12  105.83    6.34
  -1  -3 -12   82.70    6.24
  -1  -3 -12  108.54    5.81
  -1  -3 -12  103.43    5.83
   1  -3  12   90.59    6.39
  -1  -3 -12  112.66    6.09
   1   3  12   76.95    5.76
   1   3  12  115.47    6.40
   1  -3  13   15.33    2.88
  -1  -3 -13   12.98    2.05
  -1   3 -13   18.76    2.74
  -1  -3 -13   14.91    2.83
  -1   3 -13   15.29    2.24
  -1  -3 -13   15.70    2.39
   1   3  13   15.76    2.90
  -1  -3 -13   11.40    2.06
  -1   3 -13   14.20    2.72
   1   3  13   11.26    2.23
  -1  -3 -14   41.23    3.02
  -1   3 -14   42.51    3.50
  -1  -3 -14   30.21    3.34
   1   3  14   41.51    2.86
  -1   3 -14   39.36    2.96
   1   3  14   31.33    3.00
  -1   3 -14   43.94    3.50
  -1  -3 -14   39.73    3.13
   1   3  14   41.75    3.55
   1  -3  14   37.25    3.51
  -1  -3 -14   38.09    2.96
  -1   3 -15   -3.09    1.95
  -1  -3 -15    1.67    2.03
  -1  -3 -15    2.39    1.53
   1   3  15    0.62    1.33
  -1   3 -15    1.66    1.47
   1   3  15   -0.09    2.03
  -1  -3 -15    3.09    1.60
   1  -3  15    2.61    2.03
   1   3  15    1.58    1.55
  -1   3 -15    1.62    2.05
  -1  -3 -16   12.27    2.27
   1   3  16   15.10    1.49
  -1   3 -16    7.54    1.36
  -1  -3 -16   14.68    1.70
   1   3  16   11.11    1.72
   1   3  16   15.07    2.20
  -1  -3 -16   12.27    1.67
  -1   3 -16   11.96    1.99
   1  -3  16   17.21    2.40
  -1   3 -16   15.18    2.19
   1   3  17   60.42    4.14
   1  -3  17   68.19    4.60
  -1   3 -17   80.47    4.26
  -1  -3 -17   86.48    4.28
  -1   3 -17   88.94    4.54
  -1  -3 -17   77.97    4.23
  -1   3 -17   73.22    4.34
   1   3  17   85.80    4.50
  -1  -3 -17   65.70    4.55
  -1  -3 -18    4.19    1.05
   1   3  18    3.11    1.33
  -1  -3 -18    4.80    1.41
  -1   3 -18    5.07    1.24
  -1   3 -18    4.92    1.02
   1  -3  18    5.42    1.46
   1   4 -12   11.52    1.54
  -1   4  12    6.96    1.18
   1   4 -12    9.09    1.35
   1  -4 -12    8.40    1.19
   1  -4 -12    8.42    1.24
   1   4 -11    8.07    1.67
   1  -4 -11    5.37    1.23
   1   4 -11    6.35    1.31
   1   4 -11    6.26    1.38
   1  -4 -11    7.40    1.32
   1   4 -10    1.46    1.42
   1  -4 -10    3.51    1.35
  -1  -4  10    3.02    1.09
  -1   4  10    0.05    0.79
   1  -4 -10    2.84    1.36
   1   4 -10    1.51    1.33
   1   4  -9   -2.35    1.77
  -1   4   9   -0.79    0.79
  -1  -4   9    2.67    1.21
  -1  -4   9   -0.47    0.42
   1  -4  -9   -0.19    1.38
  -1  -4   9    0.31    1.82
   1  -4  -9    1.30    1.32
   1   4  -9    2.88    1.44
   1   4  -9    2.43    1.53
   1  -4  -8   19.93    1.84
  -1  -4   8   14.98    1.62
   1   4  -8   20.85    2.23
   1  -4  -8   18.06    1.71
   1   4  -8   15.68    1.85
  -1  -4   8   16.25    2.20
  -1   4   8    0.99    0.74
  -1  -4   8   -0.41    0.69
   1   4  -8   16.49    1.77
  -1   4   7   59.28    2.11
   1   4  -7   63.62    2.84
  -1  -4   7   66.94    2.60
  -1  -4   7   62.36    3.28
   1   4  -6   20.11    2.20
  -1   4   6   20.11    1.82
  -1  -4   6   22.86    2.08
  -1  -4   6   19.87    1.90
   1  -4  -6   23.51    2.30
  -1  -4   6   21.41    2.59
  -1   4   5   14.07    1.60
  -1  -4   5   11.84    1.81
  -1  -4   5   11.27    1.69
   1  -4  -5   18.17    2.09
   1   4  -5   13.75    1.94
  -1  -4   5   14.84    2.54
  -1  -4   4    1.95    2.14
  -1  -4   4    3.72    1.45
  -1   4   4    3.16    1.33
  -1  -4   4    3.57    1.58
   1   4  -4    3.15    1.48
   1  -4  -4    5.24    1.81
  -1   4   3    2.93    1.42
  -1  -4   3    3.21    1.67
  -1  -4   3    2.75    1.47
   1   4  -3    1.95    1.43
  -1  -4   3    3.26    2.11
   1  -4  -3    5.54    1.88
  -1  -4   2   35.26    2.75
  -1   4   2   30.09    2.49
  -1  -4   2   30.51    2.51
  -1  -4   2   36.06    3.31
  -1   4   1    4.45    1.62
   1  -4  -1    7.24    1.79
  -1  -4   1    7.55    1.77
  -1  -4   1    9.50    2.18
  -1  -4   1    5.92    1.61
   1  -4   0    6.37    1.86
  -1  -4   0    4.41    2.22
  -1   4   0    3.00    1.55
  -1  -4   0    7.98    1.76
  -1   4   0    5.34    1.39
  -1  -4   0    7.41    1.63
   1  -4   1   57.61    3.67
  -1  -4  -1   63.16    4.09
  -1  -4  -1   61.00    3.34
  -1  -4  -1   68.51    3.65
  -1   4  -1   66.17    3.34
  -1   4  -1   52.11    3.38
  -1  -4  -2    2.26    1.78
   1  -4   2    2.38    1.81
   1   4   2   -0.24    1.67
  -1  -4  -2    2.35    1.57
  -1   4  -2    0.83    1.49
  -1  -4  -3   25.45    2.49
  -1  -4  -3   28.50    2.29
  -1   4  -3   26.47    2.36
   1  -4   3   21.80    2.50
   1   4   3   25.31    2.58
  -1  -4  -4    9.93    1.69
  -1  -4  -4    8.04    1.82
  -1   4  -4   12.56    1.91
   1   4   4   11.90    2.08
   1  -4   4    7.48    1.93
  -1   4  -5    2.88    1.65
  -1  -4  -5    1.92    1.66
   1  -4   5   -1.03    1.84
   1  -4   5   -0.11    1.63
  -1  -4  -5    0.07    1.40
   1   4   5    2.79    1.92
  -1   4  -6   16.02    2.05
   1  -4   6   11.16    2.06
  -1  -4  -6   15.79    1.79
   1   4   6   14.69    2.20
   1  -4   6   14.75    2.20
  -1  -4  -6   14.88    2.10
   1   4   7   65.42    4.17
  -1  -4  -7   62.25    4.12
  -1   4  -7   71.83    4.15
  -1  -4  -7   69.93    3.87
   1  -4   7   61.64    4.07
   1  -4   7   61.32    4.14
  -1  -4  -8  196.83    9.78
  -1  -4  -8  181.82    9.95
   1   4   8  208.49   10.02
   1  -4   8  165.52    9.89
   1  -4   8  171.26   10.00
  -1   4  -8  194.26    9.97
  -1  -4  -8  234.97    9.94
  -1  -4  -9   84.72    4.20
  -1  -4  -9   63.98    4.19
   1   4   9   75.74    4.36
  -1   4  -9   77.22    4.31
  -1  -4  -9   74.30    4.06
   1  -4   9   56.72    4.26
  -1  -4 -10  312.90   13.23
  -1  -4 -10  240.63   13.22
  -1   4 -10  281.34   13.31
  -1  -4 -10  286.90   13.14
   1   4  10  298.35   13.33
   1  -4  10  232.93   13.19
   1  -4  10  211.68   13.25
   1  -4  11    6.80    1.40
  -1  -4 -11    9.26    1.24
  -1  -4 -11    7.17    1.28
   1   4  11    8.46    1.57
  -1  -4 -11    6.74    1.14
   1  -4  11    5.82    1.34
   1   4  12    5.28    1.26
   2   0 -24   12.88    1.83
   2   0 -24   13.98    1.66
  -2   0  24   15.00    1.69
   2   0 -23    0.46    1.84
   2   0 -23   -0.16    1.61
  -2   0  23    1.29    1.48
   2   0 -23    2.06    1.52
   2   0 -22   67.54    4.32
  -2   0  22   72.50    4.41
  -2   0  22   67.21    4.43
   2   0 -22   76.37    4.42
  -2   0  21   -0.12    1.94
  -2   0  21    2.05    2.19
  -2   0  21   -0.09    1.37
   2   0 -21    3.83    2.14
   2   0 -21   -0.35    2.04
  -2   0  20    1.01    2.24
   2   0 -20   -0.36    2.05
   2   0 -20    2.73    2.37
  -2   0  20    0.65    2.10
  -2   0  20    1.21    1.78
  -2   0  19    0.75    1.96
  -2   0  19   -0.78    2.24
  -2   0  19    1.26    2.28
  -2   0  19    0.80    2.16
   2   0 -19    0.49    2.08
   2   0 -19    2.38    2.41
   2   0 -18 1972.28   99.13
  -2   0  18 1984.44   99.21
   2   0 -18 2005.13   96.82
  -2   0  18 2082.63   97.18
   2   0 -18 2163.62   99.63
  -2   0  18 1892.02   96.72
  -2   0  18 2014.57   96.87
   2   0 -18 2143.98   99.38
  -2   0  17   -1.49    2.33
   2   0 -17   -0.24    2.00
  -2   0  17    4.07    2.59
  -2   0  17    0.68    1.93
   2   0 -17    0.80    4.27
  -2   0  17    0.40    2.11
  -2   0  17   -0.83    3.55
   2   0 -16  949.70   45.09
  -2   0  16  843.72   44.96
  -2   0  16  951.24   47.66
  -2   0  16  972.27   45.25
  -2   0  16  960.65   45.51
   2   0 -16  956.94   47.44
  -2   0  16  922.00   45.12
   2   0 -16  868.23   46.86
   2   0 -15    3.10    1.86
  -2   0  15    3.13    4.40
   2   0 -15    0.99    2.47
   2   0 -15   -0.33    3.04
  -2   0  15    2.53    1.75
  -2   0  15    1.21    2.25
   2   0 -15   -2.15    3.56
  -2   0  15   -0.88    1.96
  -2   0  15    0.12    2.32
   2   0 -14  111.94    6.35
   2   0 -14  120.79    7.52
   2   0 -14  104.93    7.47
  -2   0  14  111.66    6.35
  -2   0  14  115.23    9.17
  -2   0  14  119.21    6.53
  -2   0  14   98.53    6.64
  -2   0  14  122.68    6.93
  -2   0  14  119.43    6.60
   2   0 -14  124.65    8.62
  -2   0  14  133.77    9.13
   2   0 -14   86.38    7.86
   2   0 -13    1.66    1.60
  -2   0  13    1.01    2.14
  -2   0  13    0.77    3.99
   2   0 -13    2.26    2.51
   2   0 -13    0.65    2.20
  -2   0  13    1.46    1.95
  -2   0  13    1.03    1.49
  -2   0  13    1.70    1.57
  -2   0  13    0.76    1.77
   2   0 -13   -0.29    2.86
  -2   0  12  422.53   21.03
   2   0 -12  413.36   20.99
  -2   0  12  440.71   21.07
   2   0 -12  430.89   21.98
  -2   0  12  470.32   23.72
   2   0 -12  400.58   22.63
  -2   0  12  426.06   21.18
  -2   0  11    0.52    1.35
   2   0 -11    0.06    1.23
   2   0 -11    0.49    1.96
  -2   0  11    1.58    3.64
   2   0 -11    0.24    2.76
  -2   0  11   -0.15    1.20
  -2   0  11    0.67    1.79
  -2   0  10  290.00   14.76
   2   0 -10  309.64   15.88
  -2   0  10  259.01   14.52
   2   0 -10  301.02   15.14
  -2   0  10  303.17   14.44
  -2   0  10  319.95   16.63
   2   0 -10  272.77   15.78
  -2   0   9    0.48    1.29
   2   0  -9   -0.89    1.89
  -2   0   9    0.25    3.20
   2   0  -9    0.40    2.52
   2   0  -9    5.54    2.94
  -2   0   8 1932.06   93.78
   2   0  -8 1897.49   94.05
   2   0  -8 1941.46   94.66
   2   0  -8 1991.12   94.57
  -2   0   8 2109.05   95.24
  -2   0   7    0.49    1.14
   2   0  -7    0.71    2.60
   2   0  -7    1.73    1.72
  -2   0   7    0.40    3.23
   2   0  -7    0.82    2.49
  -2   0   7   -0.17    2.55
   2   0  -6  265.10   14.75
   2   0  -6  272.55   14.55
  -2   0   6  297.69   14.86
  -2   0   6  291.90   15.14
   2   0  -6  278.70   14.11
   2   0  -5    0.43    1.41
  -2   0   5   -1.30    2.69
   2   0  -5   -0.66    2.23
  -2   0   5    0.95    2.22
   2   0  -5    0.77    2.15
   2   0  -4   77.72    4.79
  -2   0   4   72.45    4.91
   2   0  -4   74.48    4.28
  -2   0   4   80.14    5.37
   2   0  -4   72.84    4.89
   2   0  -3    0.33    1.86
   2   0  -3    0.41    1.27
  -2   0   3    0.81    2.43
  -2   0   3    0.66    1.90
  -2   0   3    0.19    1.13
  -2   0   2 2154.89  100.09
  -2   0   2 2156.60   99.92
   2   0  -2 2036.57   99.46
  -2   0   2 2053.84   99.30
  -2   0   1    0.37    0.80
  -2   0   1    0.31    1.97
  -2   0   1    0.92    2.61
  -2   0   0  455.50   22.98
  -2   0   0  452.91   23.12
  -2   0   0  466.48   22.34
  -2   0  -1    0.17    0.89
  -2   0  -1   -0.32    1.92
  -2   0  -1    0.12    2.36
  -2   0  -2  139.97    8.28
  -2   0  -2  146.00    8.58
  -2   0  -2  154.20    8.40
  -2   0  -2  155.32    7.72
  -2   0  -3    0.51    1.27
   2   0   3    0.56    1.76
  -2   0  -3    0.13    2.66
  -2   0  -3   -0.60    2.00
  -2   0  -3    1.43    2.49
   2   0   4  441.23   22.15
  -2   0  -4  446.53   22.19
  -2   0  -4  430.83   22.35
   2   0   4  437.24   21.72
  -2   0  -5    3.14    2.77
  -2   0  -5   -0.49    2.92
  -2   0  -5    0.82    2.45
   2   0   5    1.93    2.80
   2   0   5    0.57    1.75
  -2   0  -6  137.36    8.33
   2   0   6  132.85    7.68
   2   0   6  144.20    8.38
  -2   0  -6  152.89    8.28
  -2   0  -6  128.21    8.66
   2   0   7    0.51    2.85
   2   0   7    0.85    2.24
  -2   0  -7    1.43    2.94
  -2   0  -7   -1.03    2.67
  -2   0  -7    1.25    3.42
   2   0   8  460.40   23.20
  -2   0  -8  447.80   23.21
  -2   0  -8  454.58   23.20
  -2   0  -8  442.51   23.58
   2   0   8  438.47   22.59
   2   0   9    0.19    2.30
  -2   0  -9    0.57    1.84
  -2   0  -9    0.68    3.04
   2   0   9   -0.22    3.05
   2   0   9    1.37    2.12
  -2   0  -9    3.41    3.52
  -2   0  -9    0.65    2.90
  -2   0 -10  639.02   30.20
   2   0  10  655.35   29.86
   2   0  10  638.85   30.09
  -2   0 -10  543.24   28.53
  -2   0 -10  586.90   30.50
   2   0  10  585.83   29.31
  -2   0 -10  543.47   28.36
  -2   0 -10  629.02   30.03
  -2   0 -10  587.27   28.72
  -2   0 -11    0.84    3.37
  -2   0 -11    0.58    2.15
   2   0  11    1.59    3.28
   2   0  11    1.70    2.39
  -2   0 -11   -2.13    3.06
  -2   0 -11    0.26    1.52
  -2   0 -11    1.53    1.30
  -2   0 -11   -1.34    1.59
  -2   0 -11    0.33    3.78
  -2   0 -12   62.63    3.89
  -2   0 -12   67.09    6.26
  -2   0 -12   58.55    4.53
   2   0  12   65.76    5.08
  -2   0 -12   66.40    4.18
  -2   0 -12   59.72    6.54
   2   0  12   66.06    6.18
  -2   0 -12   60.03    5.72
  -2   0 -13    2.70    4.01
  -2   0 -13    1.96    4.06
  -2   0 -13   -0.17    1.50
   2   0  13   -0.96    3.67
   2   0  13    1.15    2.45
  -2   0 -13    2.09    2.47
  -2   0 -13   -0.41    1.75
  -2   0 -13    1.59    3.45
   2   0  14   41.47    5.37
  -2   0 -14   41.29    5.53
  -2   0 -14   35.81    3.13
   2   0  14   27.86    4.00
  -2   0 -14   38.11    5.01
  -2   0 -14   36.83    5.76
   2   0  14   38.86    4.57
  -2   0 -14   46.11    3.90
  -2   0 -14   38.51    2.99
   2   0  15    1.44    2.67
  -2   0 -15    2.23    1.78
   2   0  15    0.36    3.87
   2   0  15    2.38    3.09
  -2   0 -15   -3.10    4.24
  -2   0 -15    5.70    2.78
  -2   0 -15    1.83    2.03
  -2   0 -15   -0.36    3.40
   2   0  15    1.45    3.21
  -2   0 -15    1.34    4.66
   2   0  16  133.26    9.15
   2   0  16  122.43    8.27
  -2   0 -16  113.72    6.62
  -2   0 -16   97.39    8.87
   2   0  16  105.38    8.95
  -2   0 -16  121.17    6.74
  -2   0 -16   87.67    9.27
  -2   0 -16  109.86    8.79
  -2   0 -16  119.56    7.34
  -2   0 -17   -1.21    3.98
   2   0  17    1.19    3.22
  -2   0 -17    0.22    1.90
   2   0  17    1.51    3.93
  -2   0 -17   -0.33    2.68
  -2   0 -17    3.74    4.67
  -2   0 -17    3.71    2.11
  -2   0 -17    2.19    3.40
  -2   0 -18  459.25   23.46
  -2   0 -18  488.02   23.59
  -2   0 -18  470.09   24.03
  -2   0 -19    1.35    1.82
  -2   0 -19   -1.48    2.61
  -2   0 -19    1.13    1.75
  -2   0 -20    1.08    1.44
   2   0  20    2.46    2.50
  -2   0 -20    2.93    1.72
  -2   0 -20    0.93    2.37
  -2   0 -21    1.58    2.19
  -2   0 -21   -0.50    0.81
  -2   0 -21    2.41    1.39
  -2   0 -22   24.65    2.59
  -2   0 -23   -0.23    1.20
  -2   0 -23    3.89    1.51
   2   1 -23   85.07    3.83
   2  -1 -23   96.98    3.87
   2   1 -23   75.16    3.67
  -2   1  23   96.26    3.89
  -2  -1  23   97.81    3.98
  -2  -1  23   77.82    3.56
  -2   1  23   74.64    3.61
  -2  -1  23   43.51    3.59
  -2   1  23   36.53    3.50
   2  -1 -23   85.00    3.82
  -2   1  23   13.78    3.06
   2   1 -23   95.95    3.91
   2  -1 -22    7.37    1.97
   2   1 -22    9.19    1.97
   2  -1 -22   10.66    1.88
   2   1 -22    4.66    1.91
  -2   1  22    7.20    1.64
  -2  -1  22    8.99    1.93
  -2  -1  22    1.72    1.86
  -2   1  22    5.31    2.03
  -2  -1  22    5.14    1.55
  -2   1  22    5.03    1.61
  -2   1  22    6.64    1.75
   2  -1 -22    1.42    1.12
   2   1 -22    5.85    1.87
   2  -1 -21   84.15    4.77
   2   1 -21   82.38    4.89
  -2   1  21   89.64    4.83
  -2  -1  21   86.71    5.05
  -2  -1  21   77.53    4.75
  -2   1  21   75.84    4.76
  -2  -1  21   50.11    4.90
  -2   1  21   53.19    4.91
  -2   1  21   71.73    4.80
  -2   1  21   75.20    4.84
   2  -1 -21   87.60    4.82
   2   1 -21   80.29    5.07
   2   1 -20  189.49    5.39
   2  -1 -20  203.51    5.20
  -2   1  20  200.14    5.27
  -2  -1  20  212.92    5.78
  -2  -1  20  187.55    5.23
  -2   1  20  185.57    5.34
  -2  -1  20  153.39    5.69
  -2   1  20  136.42    5.49
  -2   1  20  187.88    5.20
  -2   1  20  187.09    5.45
   2   1 -20  202.60    5.73
  -2   1  20  178.37    4.66
   2   1 -19   91.59    5.90
  -2   1  19   91.23    5.50
  -2   1  19   94.67    5.98
  -2  -1  19  103.58    6.08
  -2  -1  19   94.03    5.84
  -2   1  19   98.39    5.89
  -2   1  19   97.70    5.93
   2  -1 -19   92.06    5.66
  -2  -1  19   85.30    5.54
   2   1 -18   43.36    3.78
   2  -1 -18   43.92    3.57
  -2   1  18   43.47    3.84
  -2   1  18   42.42    3.38
  -2  -1  18   42.78    3.55
  -2  -1  18   44.64    3.71
  -2   1  18   47.93    3.84
  -2   1  18   45.19    4.02
   2  -1 -17  209.53   11.01
   2   1 -17  204.56   11.26
   2  -1 -17  205.16   13.00
   2   1 -17  218.05   13.58
  -2   1  17  222.12   13.78
   2  -1 -17  203.87   10.60
  -2  -1  17  199.95   13.10
  -2   1  17  189.00   12.88
   2  -1 -17  197.52   12.49
  -2   1  17  220.19   11.04
  -2   1  17  172.92   13.30
  -2  -1  17  193.68   13.64
  -2   1  17  223.35   11.32
  -2  -1  17  208.83   11.19
   2   1 -17  193.76   10.92
  -2  -1  17  209.77   11.28
  -2   1  17  209.23   11.32
   2   1 -17  221.51   13.56
   2   1 -17  205.54   13.70
  -2   1  17  225.28   11.57
   2  -1 -17  199.49   13.40
   2   1 -17  208.47   13.70
   2  -1 -16  400.17   19.39
   2   1 -16  386.08   19.67
   2  -1 -16  395.42   21.39
   2   1 -16  390.05   21.94
  -2   1  16  424.48   22.19
   2  -1 -16  394.79   21.06
  -2  -1  16  354.13   21.36
   2   1 -16  407.21   19.84
  -2   1  16  389.36   21.55
  -2   1  16  409.70   19.47
  -2  -1  16  377.55   19.67
  -2   1  16  401.85   19.77
  -2   1  16  382.59   19.87
  -2   1  16  394.55   19.66
   2  -1 -16  363.67   19.03
  -2  -1  16  352.30   21.93
  -2  -1  16  383.72   19.61
  -2   1  16  327.96   21.63
   2   1 -16  345.27   21.82
   2  -1 -15  163.39    8.52
   2   1 -15  141.41    8.66
   2  -1 -15  160.20   10.45
   2   1 -15  154.10   10.91
  -2   1  15  152.42   10.87
  -2   1  15  150.90   11.03
   2   1 -15  164.11    9.02
   2  -1 -15  155.31   10.15
  -2   1  15  176.83    8.58
  -2  -1  15  148.15   10.45
  -2   1  15  157.04   10.62
  -2   1  15  160.22    9.07
  -2  -1  15  145.34    8.80
  -2   1  15  166.45    8.93
  -2   1  15  159.28    8.83
   2  -1 -15  151.33    8.18
  -2  -1  15  156.82    8.75
  -2  -1  15  136.41   10.95
   2   1 -15  155.45   11.21
   2   1 -14   34.39    5.42
  -2   1  14   30.17    4.22
   2  -1 -14   41.82    3.04
  -2   1  14   39.58    5.69
   2   1 -14   37.19    3.27
   2  -1 -14   36.83    5.04
   2   1 -14   37.30    5.30
  -2   1  14   45.46    3.25
   2   1 -14   31.74    4.37
   2  -1 -14   40.11    4.59
  -2   1  14   44.31    3.23
  -2   1  14   40.54    3.81
  -2  -1  14   35.21    5.52
  -2   1  14   33.02    5.46
   2  -1 -14   39.55    2.76
  -2  -1  14   39.65    3.44
  -2   1  14   43.79    3.49
  -2  -1  14   28.55    4.53
  -2   1  14   40.62    3.54
  -2   1  14   45.42    4.95
   2   1 -14   41.04    3.73
  -2  -1  14   40.36    3.33
  -2  -1  13    2.29    1.89
   2   1 -13    6.40    3.94
   2  -1 -13    3.28    1.31
   2   1 -13    1.69    3.96
   2   1 -13    2.07    2.96
   2   1 -13    4.19    2.02
  -2   1  13    1.02    3.62
   2  -1 -13    8.94    3.02
  -2  -1  13    0.38    3.57
  -2   1  13    3.75    2.90
  -2   1  13    5.21    3.73
  -2  -1  13    1.82    1.77
  -2   1  13    3.75    1.79
   2  -1 -13    2.91    1.64
  -2   1  13    3.25    1.51
  -2  -1  13    3.13    1.93
   2  -1 -13    3.49    3.34
  -2  -1  13    6.01    2.00
  -2   1  13    2.88    3.14
  -2   1  13    3.91    2.31
  -2  -1  13    0.96    2.85
  -2   1  13    3.88    2.03
  -2   1  13    4.47    2.16
   2   1 -13    2.30    2.13
  -2   1  12   39.90    4.35
   2   1 -12   38.19    3.13
   2  -1 -12   45.64    4.80
  -2   1  12   33.88    4.96
   2   1 -12   40.65    4.89
  -2  -1  12   45.15    3.26
  -2   1  12   41.70    4.54
  -2   1  12   43.38    5.18
   2  -1 -12   36.59    4.27
  -2   1  12   39.40    2.92
  -2   1  12   43.32    3.52
  -2  -1  12   41.11    5.16
  -2  -1  12   41.69    4.65
  -2  -1  12   37.47    3.13
   2   1 -12   36.91    5.34
  -2   1  12   40.43    3.01
  -2  -1  12   36.48    3.12
  -2  -1  12   37.16    3.13
  -2   1  12   41.46    3.28
   2  -1 -12   38.43    2.61
  -2   1  12   35.07    4.57
   2   1 -12   43.16    4.76
  -2   1  12   38.21    3.32
   2  -1 -12   36.03    2.77
   2  -1 -11   94.93    5.48
   2  -1 -11  104.36    5.70
   2   1 -11   91.97    5.84
   2  -1 -11  117.55    7.50
   2   1 -11   98.24    7.61
   2   1 -11  115.79    7.58
  -2   1  11  115.07    7.90
  -2   1  11   97.31    7.18
   2  -1 -11   97.89    7.03
  -2   1  11  102.90    5.77
  -2  -1  11   99.18    7.31
  -2  -1  11  110.08    5.97
  -2   1  11  106.51    7.46
  -2   1  11  106.28    7.84
  -2   1  11   98.05    7.14
  -2   1  11  107.55    6.03
  -2  -1  11  101.55    6.00
  -2  -1  11   99.11    5.97
  -2   1  11  112.22    6.12
  -2  -1  11  110.73    7.89
  -2   1  11  109.32    6.26
   2   1 -11  107.09    8.23
  -2   1  11  116.63    6.24
  -2  -1  11  109.22    5.96
  -2   1  10    2.62    2.49
   2  -1 -10    3.91    1.28
   2  -1 -10    0.43    2.74
  -2   1  10    1.45    2.42
   2   1 -10    1.53    2.58
   2   1 -10    4.38    1.67
  -2   1  10    6.90    3.06
   2  -1 -10    1.39    2.46
  -2  -1  10    5.37    3.10
  -2   1  10    7.33    2.79
  -2   1  10    6.36    1.48
  -2   1  10    4.55    3.43
  -2  -1  10    4.41    1.58
   2   1 -10    6.60    3.84
  -2  -1  10    3.21    1.50
  -2  -1  10    5.01    1.66
   2   1 -10    2.49    3.22
  -2  -1  10    4.08    2.63
  -2   1  10    1.61    1.79
  -2   1  10    2.94    1.96
   2   1  -9    2.74    3.47
  -2   1   9    1.10    2.42
   2  -1  -9    1.77    2.51
   2   1  -9    3.81    2.77
   2   1  -9   -0.70    1.42
  -2  -1   9    0.95    1.27
  -2   1   9   -1.09    2.75
   2  -1  -9    0.91    2.39
  -2   1   9    2.23    1.25
  -2   1   9    0.56    2.36
  -2  -1   9   -1.53    2.77
  -2   1   9    1.02    2.73
   2   1  -9    1.56    2.57
  -2  -1   9    0.93    1.36
  -2  -1   9    5.15    2.37
  -2   1   9    1.96    2.52
  -2   1   9    1.00    1.79
  -2   1   8  101.44    6.88
   2   1  -8   86.93    7.18
  -2  -1   8   93.06    5.47
   2  -1  -8  102.39    6.41
   2   1  -8  104.24    6.63
   2   1  -8  105.36    6.85
  -2   1   8   90.86    6.51
  -2   1   8   90.34    6.19
   2  -1  -8   96.48    6.16
  -2  -1   8   99.02    6.46
  -2   1   8   87.11    6.36
  -2   1   8   92.29    6.45
  -2  -1   8   99.48    6.83
   2   1  -7 1932.28   95.67
  -2   1   7 1952.83   95.22
  -2   1   7 1937.19   95.07
  -2  -1   7 1946.67   94.32
   2   1  -7 1941.38   94.93
   2   1  -7 1999.76   95.30
  -2   1   7 2035.43   94.98
  -2   1   7 1904.74   94.66
  -2  -1   7 1951.18   94.92
  -2   1   7 2008.60   94.97
   2  -1  -7 2041.95   94.95
  -2  -1   7 1918.59   95.17
   2  -1  -7 1924.06   94.79
   2   1  -6  820.04   39.96
  -2  -1   6  792.23   39.35
  -2   1   6  799.88   39.30
  -2  -1   6  802.63   38.69
  -2   1   6  811.93   39.14
  -2   1   6  777.82   38.82
  -2  -1   6  778.54   39.06
  -2   1   6  793.74   39.12
   2  -1  -6  770.17   39.04
   2   1  -6  756.37   39.05
  -2   1   6  828.84   39.45
   2   1  -5  168.94   10.09
  -2   1   5  158.98    9.36
   2  -1  -5  155.70    8.33
  -2  -1   5  177.03    8.88
   2   1  -5  154.44    9.08
  -2  -1   5  173.04    9.11
  -2   1   5  155.76    9.06
  -2   1   5  163.05    9.05
  -2   1   5  153.02    8.77
  -2  -1   5  168.73    9.40
   2  -1  -5  174.66    9.32
   2   1  -4    4.54    3.12
   2  -1  -4    3.68    1.70
   2   1  -4    3.41    2.26
   2   1  -4    0.86    2.73
  -2   1   4    3.84    1.69
  -2  -1   4    6.07    2.52
  -2   1   4    1.62    2.29
  -2  -1   4    3.03    1.91
  -2   1   4    3.51    2.04
  -2  -1   4    4.02    1.92
   2  -1  -4    2.09    2.54
   2   1  -3  201.76   11.50
   2  -1  -3  207.74   10.60
  -2   1   3  214.24   10.75
   2   1  -3  181.41   10.46
  -2  -1   3  204.02   10.72
   2   1  -3  190.32   11.21
   2  -1  -3  208.17   10.98
  -2  -1   3  189.53   11.08
  -2   1   3  202.57   10.68
  -2  -1   3  217.31   10.74
   2   1  -2  494.23   25.66
  -2   1   2  535.89   25.05
   2  -1  -2  500.43   24.95
   2   1  -2  467.89   24.60
   2   1  -2  512.29   25.38
  -2   1   2  490.11   24.92
  -2  -1   2  546.31   25.05
  -2  -1   2  510.72   24.95
  -2  -1   2  489.21   25.28
   2   1  -1    8.64    1.49
   2   1  -1   11.65    1.42
  -2   1   1    7.23    2.24
   2   1  -1    9.60    2.71
  -2   1   1    7.27    1.90
  -2  -1   1    9.87    1.96
  -2  -1   1    8.45    2.41
  -2  -1   1   12.54    2.54
  -2   1   1    8.63    2.43
   2  -1  -1    3.91    0.45
   2  -1  -1    7.66    2.28
   2   1   0  103.88    5.77
  -2   1   0   98.96    5.92
  -2  -1   0  107.88    6.05
   2  -1   0  101.58    6.26
  -2   1   0  109.47    6.20
  -2  -1   0  104.28    6.30
  -2  -1   0  115.91    6.24
  -2   1   0  113.81    6.24
   2   1   0  106.71    6.43
   2   1   0  101.55    5.22
   2  -1   0   88.53    5.29
  -2   1  -1   78.02    4.98
  -2  -1  -1   83.18    5.10
   2   1   1   80.67    4.95
   2   1   1   91.04    5.47
  -2  -1  -1   80.99    5.24
  -2   1  -1   84.12    5.34
  -2   1  -1   80.16    5.32
   2  -1   1   83.91    5.46
   2  -1   1   78.89    4.13
  -2  -1  -1   90.79    5.42
   2  -1   2  176.28    9.03
   2  -1   2  148.95    7.63
   2   1   2  168.70    8.79
  -2  -1  -2  163.49    8.82
  -2   1  -2  165.88    8.83
   2   1   2  156.86    8.55
  -2  -1  -2  164.23    8.66
  -2   1  -2  147.89    8.49
  -2  -1  -2  152.99    8.58
  -2  -1  -3   12.70    2.43
   2   1   3   11.14    2.30
   2  -1   3   10.10    2.93
   2   1   3    8.67    2.21
  -2   1  -3    9.56    2.83
   2  -1   3   12.23    1.29
  -2  -1  -3    9.02    2.77
  -2   1  -4  678.26   31.91
   2   1   4  650.69   32.20
   2  -1   4  622.06   31.08
   2  -1   4  635.72   32.14
   2   1   4  653.47   31.61
  -2  -1  -4  639.39   32.03
  -2   1  -4  646.68   32.03
   2   1   4  619.25   31.94
  -2   1  -4  631.79   31.89
  -2  -1  -4  646.09   31.87
  -2   1  -4  660.57   32.05
  -2  -1  -4  665.78   31.80
   2   1   5  124.14    8.24
  -2   1  -5  149.51    8.30
   2   1   5  155.32    8.80
   2   1   5  145.96    7.80
   2  -1   5  143.09    7.58
  -2   1  -5  148.63    8.45
  -2  -1  -5  137.89    8.41
  -2   1  -5  150.01    8.68
  -2   1  -5  153.44    8.75
   2  -1   5  140.46    8.61
  -2  -1  -5  152.56    8.21
  -2  -1  -5  136.90    8.65
   2   1   6  258.79   14.42
   2  -1   6  252.56   13.35
  -2   1  -6  274.95   14.15
  -2  -1  -6  250.06   14.05
   2  -1   6  261.88   14.38
  -2   1  -6  283.36   13.98
  -2  -1  -6  269.02   14.38
  -2   1  -6  257.05   14.38
  -2  -1  -6  275.14   13.99
  -2   1  -6  279.38   14.44
   2   1   6  250.24   14.17
  -2   1  -7  318.51   16.38
   2   1   7  336.21   17.00
   2   1   7  341.29   17.46
   2  -1   7  305.77   15.99
  -2   1  -7  320.00   16.81
  -2  -1  -7  315.44   16.72
   2   1   7  285.30   16.73
  -2   1  -7  344.51   17.09
  -2  -1  -7  307.33   16.92
  -2   1  -7  303.02   17.04
   2   1   8  249.75   13.69
  -2   1  -8  220.77   12.35
   2   1   8  254.21   13.18
  -2   1  -8  223.21   12.88
   2  -1   8  223.29   12.14
  -2  -1  -8  243.09   12.90
   2   1   8  220.50   13.00
  -2  -1  -8  225.67   13.12
  -2   1  -8  228.87   13.28
  -2   1  -8  239.35   13.25
  -2  -1  -8  227.80   11.73
   2   1   9   73.84    6.17
   2  -1   9   92.63    6.61
  -2   1  -9   91.71    6.40
   2   1   9   96.08    6.60
  -2  -1  -9   88.24    6.39
   2  -1   9   76.19    5.49
  -2  -1  -9   80.75    4.96
  -2  -1  -9   85.05    6.72
  -2   1  -9   89.43    6.87
  -2   1  -9   85.85    5.17
   2   1   9   81.15    5.00
  -2  -1  -9   87.06    5.03
  -2  -1  -9   89.63    4.73
   2   1   9   86.40    7.12
  -2   1  -9   95.78    6.79
  -2  -1  -9   82.54    5.09
   2   1  10    3.81    3.02
   2  -1  10    4.29    3.30
  -2  -1 -10    3.99    2.02
  -2   1 -10    4.19    1.98
  -2   1 -10    2.15    1.61
   2   1  10    3.58    1.89
   2   1  10    5.93    4.11
   2   1  10    3.33    3.28
  -2   1 -10    2.94    3.44
  -2  -1 -10    2.89    1.80
  -2   1 -10    3.29    1.25
  -2   1 -10   -0.28    3.33
  -2   1 -10    2.02    3.26
  -2  -1 -10    2.93    1.29
  -2  -1 -10    2.93    1.80
  -2   1 -10    2.83    1.62
  -2  -1 -10    0.29    3.32
  -2  -1 -10    6.32    1.44
  -2  -1 -10    1.26    2.93
  -2   1 -11   32.36    2.81
  -2   1 -11   34.36    2.91
   2   1  11   40.32    5.60
   2   1  11   41.18    4.81
   2   1  11   37.12    4.67
  -2  -1 -11   37.32    3.06
  -2   1 -11   26.01    4.82
  -2  -1 -11   42.79    2.72
  -2   1 -11   45.24    4.66
   2  -1  11   32.73    4.71
  -2  -1 -11   31.61    3.09
  -2  -1 -11   37.63    4.55
   2   1  11   38.41    2.99
  -2  -1 -11   31.34    3.13
  -2   1 -11   29.30    3.20
  -2   1 -11   41.56    5.06
  -2  -1 -11   33.42    5.02
  -2  -1 -11   33.48    2.56
  -2  -1 -12   20.62    1.94
   2  -1  12   16.77    4.02
  -2  -1 -12   15.41    2.69
  -2   1 -12   16.57    2.34
   2   1  12   15.35    4.95
   2   1  12   16.84    4.17
  -2  -1 -12   15.10    3.91
  -2   1 -12   18.36    4.19
  -2  -1 -12   12.16    4.17
  -2   1 -12   11.39    4.21
  -2  -1 -12   19.00    2.53
  -2   1 -12   20.49    4.28
   2   1  12   13.06    4.11
   2   1  12   18.14    2.29
  -2  -1 -12   19.10    2.59
  -2  -1 -12   18.26    2.07
  -2   1 -12   14.97    2.60
  -2   1 -12   12.87    2.13
   2   1  13  194.89   12.65
   2  -1  13  192.52   12.13
  -2   1 -13  187.18   10.29
  -2   1 -13  188.65   12.17
  -2  -1 -13  199.51   12.26
   2   1  13  228.26   12.37
  -2  -1 -13  193.83   10.62
  -2  -1 -13  182.60   10.34
  -2   1 -13  200.00   12.50
   2   1  13  231.15   13.31
  -2  -1 -13  168.27   12.39
  -2   1 -13  166.22   12.35
  -2  -1 -13  204.90   10.07
  -2  -1 -13  194.38   10.46
  -2   1 -13  185.73   10.60
  -2  -1 -13  203.24   10.15
  -2   1 -13  190.98   10.22
   2   1  14  244.78   15.58
   2  -1  14  286.58   15.27
   2  -1  14  274.40   15.26
  -2  -1 -14  273.78   13.02
  -2   1 -14  253.00   15.20
   2   1  14  291.89   16.24
   2   1  14  295.95   15.43
  -2  -1 -14  251.65   15.19
   2   1  14  269.80   13.68
  -2   1 -14  238.47   13.18
  -2  -1 -14  242.98   13.47
  -2  -1 -14  251.52   13.33
  -2  -1 -14  261.64   15.75
  -2   1 -14  226.80   15.43
  -2   1 -14  250.20   13.09
  -2  -1 -14  234.20   13.37
  -2   1 -14  263.95   15.69
  -2   1 -14  238.16   13.49
  -2  -1 -14  253.55   13.01
   2  -1  15  366.36   18.76
  -2   1 -15  345.94   19.18
   2  -1  15  339.34   18.80
  -2  -1 -15  346.11   16.55
  -2   1 -15  315.94   16.72
   2   1  15  361.23   19.84
   2   1  15  342.62   18.68
  -2   1 -15  330.76   18.82
  -2  -1 -15  323.05   18.70
  -2   1 -15  303.93   17.01
  -2  -1 -15  314.74   16.79
  -2   1 -15  340.90   16.81
  -2  -1 -15  330.26   17.01
  -2  -1 -15  307.60   19.02
  -2   1 -15  311.11   19.25
  -2  -1 -15  324.28   16.54
  -2  -1 -15  305.80   16.87
   2   1  15  348.14   17.16
  -2   1 -15  319.63   16.54
  -2   1 -16   50.32    6.76
   2  -1  16   67.49    6.08
   2  -1  16   51.82    5.79
  -2   1 -16   66.32    4.42
   2   1  16   62.65    6.34
   2   1  16   65.69    7.52
  -2   1 -16   60.47    6.73
  -2   1 -16   55.20    6.42
  -2  -1 -16   61.17    4.40
  -2   1 -16   61.64    4.44
  -2  -1 -16   57.67    6.30
  -2  -1 -16   43.43    6.56
   2   1  16   66.70    5.02
  -2  -1 -16   64.79    4.82
  -2   1 -16   66.26    4.79
  -2  -1 -16   64.67    4.07
  -2   1 -17   43.20    4.01
  -2  -1 -17   38.46    3.16
  -2   1 -17   42.73    3.54
  -2  -1 -17   52.00    3.68
  -2   1 -17   40.05    3.55
  -2  -1 -17   40.44    3.97
   2   1  17   46.73    4.09
  -2  -1 -18   60.32    3.98
  -2   1 -18   56.68    4.13
  -2  -1 -18   66.25    4.61
  -2  -1 -18   62.83    4.23
  -2   1 -18   56.73    4.21
   2   1  18   65.76    4.73
  -2   1 -18   60.21    4.59
  -2  -1 -19    1.48    2.32
  -2   1 -19    4.15    2.27
  -2  -1 -19    4.03    1.60
  -2   1 -19    2.50    1.71
  -2  -1 -19    3.40    1.68
  -2   1 -19    2.52    1.89
   2   1  19    3.17    2.57
  -2  -1 -20    7.02    2.14
  -2   1 -20    4.64    2.04
  -2  -1 -20    0.07    0.90
  -2   1 -20   -0.81    0.90
  -2   1 -20    5.88    1.58
   2  -1  20    3.28    2.04
   2   1  20    5.96    2.21
   2   1  20    2.99    2.01
  -2  -1 -21    2.15    1.74
  -2   1 -21    2.42    1.71
  -2  -1 -21    0.83    0.54
   2  -1  21    1.95    2.00
   2  -1  21    2.34    1.61
  -2   1 -21    1.91    1.30
   2  -1  21    1.99    1.98
   2   1  21    2.96    1.97
   2   1  21    1.72    1.69
   2  -1  22    1.45    1.69
  -2  -1 -22    0.50    1.36
  -2   1 -22    0.87    1.30
   2  -1  22    1.92    1.29
   2   1  22    2.94    1.40
   2   1  22    1.80    1.62
   2  -1  22    2.30    1.60
  -2   1 -22    3.21    1.55
   2   1  23    4.50    1.24
  -2   2  22    0.50    1.07
   2  -2 -21   26.56    2.11
  -2   2  21   21.27    2.01
   2   2 -21   23.75    2.21
  -2  -2  21   23.98    2.26
  -2   2  21   22.30    2.25
  -2   2  21   27.28    2.35
  -2  -2  20   -0.14    0.60
   2  -2 -20    3.74    1.58
   2   2 -20    2.65    1.78
  -2   2  20    2.23    1.41
  -2  -2  20    3.99    1.79
  -2   2  20    0.61    1.78
  -2   2  20    5.18    1.84
   2   2 -20    2.53    1.80
   2  -2 -19   37.50    2.37
   2   2 -19   32.10    2.61
  -2   2  19   32.13    1.89
  -2   2  19   34.64    2.87
  -2  -2  19   35.94    2.82
  -2  -2  19    3.11    1.29
  -2   2  19   36.07    2.90
   2   2 -19   37.01    2.87
   2  -2 -18    0.37    1.73
   2   2 -18    2.85    2.19
  -2   2  18    3.57    1.63
  -2  -2  18   -0.46    1.78
   2   2 -18   -0.72    1.66
   2  -2 -18    0.53    1.37
  -2   2  18    2.44    2.20
  -2   2  18    4.29    2.53
   2   2 -18    2.31    2.12
   2  -2 -17    3.04    1.51
   2  -2 -17    3.31    1.94
   2   2 -17    5.99    2.49
  -2   2  17    3.51    1.59
   2   2 -17    4.68    2.09
  -2   2  17    2.87    2.66
  -2   2  17    2.97    2.42
  -2  -2  17    5.31    2.15
   2   2 -17    3.37    2.60
  -2   2  16   11.78    1.99
  -2  -2  16   10.92    2.41
   2   2 -16    9.92    2.44
  -2   2  16   10.07    2.93
   2  -2 -16   12.46    2.21
  -2   2  16   11.51    2.86
   2  -2 -16    9.63    1.87
   2   2 -16   12.30    2.73
   2   2 -16    8.81    2.77
   2  -2 -15   16.49    2.30
  -2  -2  15   16.66    2.75
  -2   2  15   16.39    2.23
  -2  -2  15   15.83    2.71
   2   2 -15   16.31    2.81
   2   2 -15   13.14    2.90
   2  -2 -15   14.15    2.02
   2   2 -15   15.87    3.09
   2   2 -14   74.69    7.36
   2   2 -14   74.64    7.04
  -2   2  14   95.71    5.25
  -2  -2  14   79.06    5.64
   2  -2 -14   85.48    5.02
  -2   2  14   94.00    5.40
   2   2 -14   85.11    5.77
   2   2 -14   74.94    5.71
   2   2 -14   80.96    5.71
   2   2 -14   83.71    7.38
   2  -2 -14   90.22    5.25
  -2  -2  14   81.90    5.67
  -2  -2  13    2.52    2.26
   2   2 -13    2.48    3.28
   2   2 -13    4.74    2.55
  -2   2  13    7.44    1.92
  -2   2  13    3.73    2.96
  -2  -2  13    5.06    2.34
   2  -2 -13    7.20    1.88
   2   2 -13    3.80    3.29
  -2  -2  13    4.86    2.60
   2  -2 -13    8.37    1.81
   2   2 -13    7.84    3.81
   2   2 -13    7.54    2.76
   2  -2 -12  226.95   10.91
  -2  -2  12  210.27   11.37
   2  -2 -12  212.20   12.26
   2   2 -12  183.90   11.18
   2   2 -12  203.24   12.78
   2   2 -12  226.63   13.51
  -2   2  12  180.15   12.02
  -2   2  12  218.18   10.98
  -2  -2  12  201.56   11.28
  -2  -2  12  200.89   11.38
   2   2 -12  205.24   11.35
  -2   2  12  212.56   11.20
   2  -2 -12  210.74   10.74
  -2  -2  11    1.65    2.00
   2  -2 -11    0.26    1.55
   2   2 -11   -0.39    3.44
  -2   2  11   -2.27    2.82
  -2   2  11    0.20    1.79
  -2  -2  11    2.51    2.09
   2   2 -11   -0.14    2.32
  -2  -2  11    0.76    2.33
   2  -2 -11    3.49    1.64
   2  -2 -11   -2.01    2.77
  -2   2  11    4.63    2.39
   2   2 -11    5.03    3.30
  -2   2  11    2.58    2.39
   2   2 -11    1.94    2.43
   2   2 -10   -6.65    4.46
  -2  -2  10    3.03    2.10
  -2  -2  10    2.38    2.28
   2  -2 -10   -0.24    2.65
   2  -2 -10    3.83    1.62
   2   2 -10    1.94    3.65
   2   2 -10    0.13    2.14
  -2   2  10    3.69    1.70
  -2   2  10    3.93    2.56
  -2  -2  10    2.79    2.10
  -2  -2  10    1.16    2.16
   2   2 -10    0.87    3.06
  -2   2  10    3.28    2.19
   2  -2 -10    1.51    1.56
  -2   2  10    2.00    2.09
   2   2 -10    2.99    2.27
   2   2  -9   20.84    4.86
  -2  -2   9   29.84    3.45
   2  -2  -9   30.11    3.60
   2   2  -9   21.29    3.77
   2   2  -9   24.97    4.62
   2   2  -9   24.01    2.84
   2   2  -9   27.50    2.83
  -2   2   9   23.54    2.40
  -2  -2   9   26.80    2.83
  -2   2   9   20.53    3.30
   2  -2  -9   28.95    2.36
  -2  -2   9   27.35    3.04
  -2  -2   9   28.58    2.96
  -2   2   9   20.96    2.67
  -2   2   9   25.27    2.78
   2   2  -8   15.33    4.34
  -2  -2   8    6.09    2.74
  -2   2   8   14.91    2.33
   2  -2  -8   13.21    2.94
   2   2  -8    9.41    2.95
  -2   2   8   10.36    1.93
  -2   2   8   12.15    2.63
  -2  -2   8   12.77    2.21
  -2  -2   8   10.42    2.20
  -2  -2   8   13.11    2.36
   2   2  -8   13.12    2.20
  -2   2   8   12.79    2.32
   2   2  -8    9.90    3.85
  -2   2   8   15.18    2.63
   2  -2  -8   14.18    1.85
   2   2  -8   12.18    2.34
  -2  -2   8   10.96    3.95
   2   2  -7    3.83    3.98
  -2  -2   7    4.29    2.63
   2  -2  -7    6.20    2.63
   2   2  -7    1.45    2.48
   2   2  -7    0.35    3.59
   2   2  -7    4.82    2.07
  -2   2   7    3.61    1.86
  -2   2   7    5.19    1.59
  -2   2   7    1.64    1.85
  -2  -2   7    7.61    1.95
  -2  -2   7    4.53    2.15
  -2  -2   7    6.43    2.14
  -2   2   7    7.41    2.31
   2  -2  -7    4.24    1.56
  -2   2   7    3.63    2.03
   2   2  -7    2.08    1.87
  -2  -2   7    4.86    3.72
  -2  -2   6  198.19   11.59
  -2   2   6  218.45   11.09
   2   2  -6  197.07   10.55
   2   2  -6  202.12   11.15
  -2   2   6  207.55   10.31
  -2  -2   6  201.90   10.63
   2   2  -6  193.44   12.63
   2  -2  -6  201.80   10.25
  -2   2   6  190.86   10.70
  -2   2   6  191.92   10.76
  -2   2   6  189.22   10.33
  -2   2   6  213.40   10.51
   2   2  -6  199.02   10.43
  -2  -2   6  177.07   12.23
  -2  -2   6  194.28   10.61
   2   2  -5  367.66   20.57
  -2   2   5  358.56   18.71
   2  -2  -5  363.92   19.05
  -2  -2   5  370.25   19.61
  -2   2   5  414.73   19.24
   2   2  -5  361.00   18.50
  -2   2   5  374.47   18.28
  -2  -2   5  320.30   20.01
   2  -2  -5  347.40   18.24
  -2  -2   5  361.76   18.57
  -2   2   5  363.17   18.18
   2   2  -5  386.93   20.58
  -2   2   5  369.24   18.27
  -2   2   5  388.92   18.47
   2   2  -5  372.61   18.38
  -2  -2   5  383.41   18.64
   2  -2  -4 2323.35  116.69
  -2  -2   4 2537.98  117.14
  -2   2   4 2550.64  116.76
   2   2  -4 2372.51  115.96
   2   2  -4 2650.52  118.07
  -2   2   4 2259.26  115.75
  -2   2   4 2490.82  116.16
  -2   2   4 2395.85  115.69
  -2  -2   4 2268.68  117.54
  -2  -2   4 2324.23  116.04
  -2   2   4 2593.10  115.73
  -2  -2   4 2461.04  116.09
  -2   2   4 2459.67  115.92
   2  -2  -4 2340.31  115.77
   2   2  -4 2337.27  117.86
  -2  -2   4 2403.45  116.07
  -2  -2   3   97.63    5.62
   2  -2  -3   99.70    6.51
  -2  -2   3  109.88    6.81
  -2   2   3  101.84    6.40
   2   2  -3   95.33    5.55
   2   2  -3  108.52    7.58
   2   2  -3   82.16    7.13
  -2   2   3   86.47    5.16
  -2  -2   3   96.70    5.60
  -2   2   3   86.80    5.38
  -2   2   3   95.79    5.69
   2   2  -2  160.64   10.99
   2  -2  -2  165.18   10.41
  -2  -2   2  182.90   10.53
  -2   2   2  186.27   10.25
   2   2  -2  178.81    9.35
   2   2  -2  195.31   11.27
  -2   2   2  174.13    9.26
  -2   2   2  180.82    9.10
  -2  -2   2  166.52    9.41
  -2   2   2  180.23    9.46
  -2  -2   2  172.43    9.40
  -2   2   1   23.52    2.41
   2   2  -1   20.86    3.82
   2  -2  -1   22.53    3.74
  -2  -2   1   31.86    3.65
  -2   2   1   22.82    3.35
   2   2  -1   25.65    2.56
   2   2  -1   33.20    4.15
  -2   2   1   26.51    2.68
  -2   2   1   23.66    2.14
  -2  -2   1   22.82    2.49
  -2  -2   1   23.84    2.57
  -2  -2   1   23.78    2.52
   2  -2   0   58.47    5.39
  -2   2   0   66.17    4.93
   2   2   0   62.66    5.48
  -2   2   0   52.69    3.70
  -2   2   0   59.00    3.59
   2   2   0   60.93    3.83
  -2  -2   0   56.50    3.89
  -2   2   0   60.80    3.94
  -2  -2   0   51.15    3.84
  -2  -2   0   59.16    3.89
   2   2   1   56.17    4.83
   2  -2   1   64.47    5.62
  -2   2  -1   80.22    5.48
   2   2   1   70.35    4.18
   2   2   1   64.62    5.54
  -2   2  -1   71.16    3.96
  -2  -2  -1   57.20    4.12
  -2  -2  -1   62.70    4.18
  -2   2  -1   63.77    4.08
   2   2   1   56.13    5.42
   2  -2   1   54.02    4.45
  -2  -2  -1   62.38    4.12
   2   2   2  382.61   22.43
   2  -2   2  456.91   23.20
  -2   2  -2  480.18   22.82
   2   2   2  415.71   22.73
   2   2   2  443.94   22.93
   2  -2   2  363.29   21.96
  -2   2  -2  438.29   21.48
  -2   2  -2  444.80   21.39
  -2  -2  -2  421.41   21.58
  -2  -2  -2  438.83   21.55
  -2   2  -2  439.94   21.54
  -2  -2  -2  459.46   21.62
   2   2   3   37.90    4.47
   2  -2   3   48.86    5.16
  -2   2  -3   43.74    3.15
   2   2   3   54.48    4.61
   2   2   3   42.96    4.86
   2   2   3   39.07    4.55
  -2  -2  -3   42.10    3.42
  -2  -2  -3   48.33    3.46
  -2   2  -3   44.70    3.19
  -2  -2  -3   47.16    3.42
  -2  -2  -3   46.82    3.40
  -2   2  -3   44.63    3.34
  -2  -2  -3   43.26    2.77
  -2   2  -3   44.92    3.39
   2  -2   3   49.26    3.31
   2  -2   3   31.82    3.88
  -2  -2  -4  118.97    6.45
   2   2   4   98.65    7.56
   2  -2   4  118.31    8.47
  -2   2  -4  106.68    6.18
   2   2   4  114.23    7.96
   2   2   4  112.12    7.31
   2   2   4  117.19    8.13
  -2  -2  -4  113.80    5.88
  -2  -2  -4  103.19    6.37
  -2  -2  -4  108.68    6.40
  -2  -2  -4  120.87    7.59
  -2   2  -4  110.23    6.40
  -2  -2  -4  115.33    6.38
  -2   2  -4  109.35    6.33
   2  -2   4  104.89    6.34
  -2  -2  -5 1547.11   65.17
   2  -2   5 1360.16   66.90
  -2   2  -5 1345.84   66.21
  -2   2  -5 1238.86   64.83
   2   2   5 1292.92   65.76
   2   2   5 1412.62   66.65
  -2  -2  -5 1248.89   64.98
  -2   2  -5 1406.62   65.06
  -2  -2  -5 1389.98   65.08
   2   2   5 1231.10   66.40
  -2  -2  -5 1386.73   65.00
  -2   2  -5 1276.87   64.97
  -2  -2  -5 1337.57   64.60
  -2  -2  -5 1407.76   66.19
   2  -2   5 1350.03   65.06
   2  -2   6   13.36    2.31
  -2  -2  -6   15.12    3.08
   2   2   6   12.75    3.52
   2  -2   6   13.51    4.48
  -2   2  -6   21.66    3.65
  -2   2  -6   17.38    2.32
  -2  -2  -6    9.88    2.45
  -2   2  -6   17.57    2.15
  -2  -2  -6   20.94    2.51
  -2  -2  -6   16.88    1.80
  -2  -2  -6   17.58    2.40
  -2   2  -6   14.85    2.37
   2   2   6   12.62    4.24
  -2   2  -6   19.34    2.49
   2   2   7  246.22   15.79
   2  -2   7  258.85   16.05
  -2   2  -7  281.12   15.26
  -2   2  -7  264.77   13.98
   2   2   7  285.86   16.01
  -2   2  -7  272.41   14.13
  -2  -2  -7  294.58   15.35
  -2  -2  -7  243.66   14.06
  -2   2  -7  278.42   14.11
  -2   2  -7  271.21   13.95
   2  -2   7  259.03   14.21
  -2  -2  -7  288.26   14.23
  -2  -2  -7  295.16   14.15
  -2  -2  -7  279.43   13.69
   2   2   8  215.41   14.59
  -2   2  -8  272.80   14.10
  -2   2  -8  238.10   12.68
   2   2   8  264.88   14.94
  -2  -2  -8  213.91   12.81
  -2   2  -8  243.12   12.62
  -2   2  -8  238.87   12.82
  -2  -2  -8  241.86   12.98
  -2  -2  -8  265.19   12.88
  -2   2  -8  251.11   12.86
  -2  -2  -8  243.82   12.37
   2  -2   8  240.47   12.94
  -2  -2  -8  281.92   14.18
  -2   2  -9  150.04    8.30
   2   2   9  124.15   10.23
  -2  -2  -9  162.00    9.66
   2  -2   9  142.35   10.59
  -2   2  -9  142.94    9.18
  -2   2  -9  143.91    8.17
   2   2   9  154.14   10.67
  -2  -2  -9  138.63    8.21
  -2   2  -9  133.15    7.94
  -2  -2  -9  165.92    8.52
  -2   2  -9  141.94    9.54
   2   2   9  150.99    8.30
  -2  -2  -9  147.56    8.35
  -2   2  -9  151.40    8.45
  -2  -2  -9  147.88    7.78
   2  -2   9  145.68    8.42
   2   2  10   59.66    7.02
  -2  -2 -10   81.03    4.63
   2  -2  10   73.43    7.37
  -2   2 -10   85.15    5.26
  -2   2 -10   75.89    5.99
  -2   2 -10   81.13    5.10
  -2  -2 -10   93.57    6.54
   2  -2  10   76.86    5.38
  -2   2 -10   68.37    6.48
  -2  -2 -10   65.34    5.01
  -2   2 -10   82.41    4.89
  -2  -2 -10   88.70    5.55
  -2  -2 -10   81.27    5.19
   2   2  10   69.50    4.87
  -2   2 -10   74.04    5.25
   2   2  10   77.09    5.28
  -2  -2 -10   77.53    4.62
   2   2  10   73.29    7.60
  -2   2 -11    2.17    2.19
   2  -2  11    5.19    2.38
   2   2  11    2.24    3.99
   2  -2  11    6.61    4.27
  -2   2 -11    0.73    2.40
  -2  -2 -11    1.98    1.54
  -2   2 -11    2.82    2.17
   2   2  11    2.39    4.66
   2   2  11    7.58    4.01
  -2  -2 -11    2.09    2.27
   2   2  11    4.29    2.66
  -2   2 -11    1.18    1.86
  -2  -2 -11    4.75    1.72
  -2  -2 -11    5.86    2.63
  -2  -2 -11    5.83    2.62
   2   2  11    3.81    2.11
  -2   2 -11    2.78    2.40
  -2   2 -11    0.67    3.34
  -2  -2 -11    3.81    3.09
   2  -2  12   14.93    2.67
   2   2  12   17.24    4.54
   2  -2  12   10.89    4.51
  -2  -2 -12   15.28    2.01
  -2   2 -12   16.70    2.67
   2   2  12   13.58    5.17
   2   2  12   13.29    4.37
  -2  -2 -12   11.66    2.55
  -2   2 -12   12.66    2.82
  -2   2 -12   13.32    2.13
  -2  -2 -12   12.37    3.07
  -2  -2 -12   14.69    2.73
   2   2  12   12.40    2.42
   2   2  12   14.93    2.85
  -2   2 -12   11.91    2.61
  -2   2 -12    9.44    3.91
  -2  -2 -12   12.46    2.13
   2  -2  13    4.27    2.71
   2   2  13    0.48    3.91
   2  -2  13    1.67    3.78
  -2  -2 -13    5.51    1.74
  -2   2 -13    5.82    2.40
   2   2  13   -1.26    4.54
   2   2  13    0.37    3.80
  -2   2 -13    7.21    3.58
  -2  -2 -13    3.75    2.23
  -2   2 -13    3.24    1.69
  -2  -2 -13    7.78    2.84
   2   2  13    3.99    2.35
  -2  -2 -13    4.56    2.70
   2   2  13    5.06    2.57
  -2   2 -13    4.89    2.56
  -2  -2 -13    3.75    1.89
  -2   2 -13    3.53    2.25
   2   2  14  259.23   17.28
  -2  -2 -14  291.43   14.53
  -2   2 -14  275.46   14.82
   2   2  14  315.66   17.10
   2   2  14  298.51   17.54
   2   2  14  278.90   14.95
  -2  -2 -14  279.74   14.94
  -2   2 -14  244.04   14.34
  -2  -2 -14  290.26   15.30
  -2  -2 -14  298.73   15.07
  -2   2 -14  306.55   15.16
   2   2  14  312.57   14.87
  -2  -2 -14  309.70   14.60
  -2   2 -14  284.64   14.85
   2  -2  14  291.65   15.23
  -2  -2 -15   96.16    5.23
  -2   2 -15   93.72    5.61
  -2  -2 -15   96.09    5.29
   2   2  15   81.20    5.61
  -2  -2 -15   84.85    5.62
  -2   2 -15   75.92    4.85
  -2  -2 -15   91.15    5.95
  -2   2 -15   82.38    5.88
   2   2  15   89.32    5.61
  -2   2 -15   93.18    5.59
   2  -2  15  104.27    6.08
   2   2  16  144.36    8.85
  -2  -2 -16  160.28    8.49
  -2   2 -16  152.76    8.70
  -2   2 -16  165.15    9.10
   2   2  16  168.42    8.68
  -2  -2 -16  153.04    8.71
  -2  -2 -16  176.03    9.05
  -2  -2 -16  166.44    8.55
  -2   2 -16  168.35    8.78
   2  -2  16  147.58    9.19
  -2  -2 -17   93.20    5.22
  -2  -2 -17   92.08    5.41
  -2  -2 -17   97.73    5.31
  -2   2 -17  100.09    5.57
  -2   2 -17   92.82    5.78
   2  -2  17  100.78    6.04
   2   2  17  100.95    5.40
   2   2  17   97.09    5.68
  -2   2 -17   88.89    5.31
  -2  -2 -18   48.74    2.03
  -2   2 -18   61.29    2.73
  -2   2 -18   56.30    3.07
   2   2  18   54.49    2.85
   2  -2  18   58.43    3.36
  -2   2 -19   51.43    2.19
   2   2  19   45.71    2.42
  -2   2 -19   43.24    2.52
   2  -2  19   50.29    2.91
   2  -2  20   15.49    1.99
  -2   2 -20   15.35    1.53
   2   2  20   13.36    1.70
  -2   2 -20   13.73    1.83
  -2  -2 -21    6.64    1.31
   2   3 -18    2.24    1.25
  -2   3  18    2.59    1.42
  -2   3  18    3.71    1.47
   2   3 -18    1.56    1.21
   2  -3 -17  121.39    5.71
   2   3 -17  110.72    5.88
   2  -3 -17   99.07    5.48
  -2   3  17  112.08    6.06
   2   3 -17  109.52    5.72
  -2   3  17  116.03    5.93
   2   3 -17  110.69    5.86
  -2   3  16   41.48    3.22
   2  -3 -16   45.24    2.81
   2   3 -16   38.53    3.03
  -2   3  16   34.93    2.39
   2   3 -16   38.25    2.87
  -2   3  16   41.50    3.12
   2  -3 -16   38.94    2.54
   2   3 -16   40.62    3.07
  -2  -3  16   37.01    2.88
  -2  -3  15    2.45    1.69
   2  -3 -15    0.21    1.45
   2   3 -15    0.94    1.92
  -2   3  15    1.94    1.25
   2   3 -15    3.10    1.83
  -2  -3  15   -0.49    1.42
  -2   3  15   -0.53    1.95
   2  -3 -15    2.25    1.34
  -2   3  15    3.17    2.25
   2   3 -15    0.40    1.80
   2  -3 -14   31.71    2.55
   2   3 -14   28.42    2.93
  -2   3  14   28.79    2.34
  -2  -3  14   26.57    2.78
  -2   3  14   28.41    2.64
   2   3 -14   33.39    3.04
  -2   3  14   29.10    3.20
  -2   3  14   28.01    2.92
   2  -3 -14   32.84    2.42
   2   3 -14   30.27    2.86
  -2  -3  14   36.49    3.04
  -2  -3  13    4.23    2.18
   2  -3 -13    4.15    1.77
   2   3 -13    4.83    2.24
  -2  -3  13    4.26    2.03
  -2   3  13    4.11    1.51
  -2  -3  13    2.50    1.74
  -2   3  13    1.77    2.63
  -2   3  13    3.88    2.25
   2  -3 -13    3.61    1.63
   2   3 -13    4.50    2.07
  -2  -3  12    1.32    2.00
   2  -3 -12    5.38    1.74
   2   3 -12    0.13    2.16
   2  -3 -12    0.84    1.69
  -2   3  12    1.65    1.54
  -2  -3  12    1.14    2.18
  -2  -3  12    1.77    1.85
  -2   3  12   -1.09    2.66
  -2   3  12    2.00    2.10
   2   3 -12    0.37    2.04
   2  -3 -11   35.72    3.19
   2   3 -11   49.92    3.94
  -2   3  11   44.18    3.19
  -2  -3  11   46.58    3.69
  -2  -3  11   38.18    3.72
   2   3 -11   40.82    3.88
  -2  -3  11   35.69    3.45
  -2   3  11   44.69    4.04
  -2   3  11   50.63    3.65
   2  -3 -11   46.18    3.23
   2   3 -11   46.27    3.58
  -2  -3  10    4.98    2.57
   2  -3 -10    2.49    1.79
   2   3 -10    7.10    2.58
  -2   3  10    5.95    1.85
  -2  -3  10    6.91    2.44
   2   3 -10    3.30    2.73
   2  -3 -10    5.87    1.95
  -2  -3  10    3.77    2.03
  -2   3  10    7.31    2.97
  -2   3  10    7.57    2.29
   2   3 -10    5.88    2.30
   2   3  -9   63.70    6.86
  -2   3   9   88.08    5.09
   2  -3  -9   84.99    6.81
  -2  -3   9   94.97    5.60
  -2   3   9   83.40    5.79
   2   3  -9   83.27    5.66
   2   3  -9   83.84    5.56
  -2  -3   9   65.21    5.20
  -2   3   9   89.22    5.18
   2   3  -9   83.07    7.80
  -2   3   9   74.34    4.89
   2  -3  -9   87.69    5.05
   2   3  -9   84.07    5.37
  -2  -3   9   71.49    5.49
   2   3  -9   61.91    7.24
  -2   3   8   91.99    6.04
  -2  -3   8   75.59    6.69
   2   3  -8   87.40    5.77
   2   3  -8   70.37    7.76
   2  -3  -8   77.76    6.81
  -2  -3   8   96.00    5.75
   2   3  -8   64.93    7.48
   2   3  -8   79.73    5.87
  -2  -3   8   80.04    5.46
  -2   3   8   92.19    5.48
  -2   3   8   83.90    5.21
   2  -3  -8   95.51    5.41
   2   3  -8   95.00    5.56
  -2  -3   8   92.33    6.01
  -2   3   8   96.04    5.41
  -2  -3   7 1105.66   58.18
   2   3  -7 1161.01   56.95
  -2   3   7 1288.25   56.66
   2  -3  -7 1211.84   58.37
  -2  -3   7 1270.74   56.99
  -2   3   7 1168.15   57.13
   2   3  -7 1078.49   59.21
   2   3  -7 1160.26   56.98
  -2  -3   7 1088.19   56.75
  -2   3   7 1109.39   56.48
  -2   3   7 1188.91   56.54
   2  -3  -7 1198.97   56.62
   2   3  -7 1179.99   56.73
  -2  -3   7 1133.97   57.07
   2   3  -7  996.74   58.81
  -2  -3   6  564.41   30.40
  -2  -3   6  584.76   29.22
   2   3  -6  585.10   29.05
  -2   3   6  600.16   28.74
   2  -3  -6  617.98   30.55
  -2  -3   6  640.18   29.13
   2   3  -6  613.11   29.13
   2   3  -6  478.38   30.85
  -2  -3   6  528.35   28.84
  -2   3   6  586.34   29.22
  -2  -3   6  561.29   29.04
  -2   3   6  557.58   28.58
  -2   3   6  613.26   28.63
   2  -3  -6  606.00   28.77
  -2  -3   6  455.96   30.72
   2   3  -6  597.49   28.81
   2   3  -5   90.32    8.39
  -2  -3   5   96.32    7.79
   2   3  -5  103.94    8.82
  -2   3   5  105.53    6.06
   2  -3  -5  109.92    7.87
  -2  -3   5   85.08    8.31
  -2  -3   5  112.25    6.39
   2   3  -5   93.65    6.38
  -2   3   5   99.05    5.88
  -2  -3   5  102.33    6.24
   2  -3  -5  111.94    6.18
  -2  -3   5  102.32    6.40
   2   3  -5  112.62    6.49
  -2   3   5  104.17    5.83
  -2  -3   5   85.33    5.60
  -2   3   5  107.92    6.59
   2   3  -5  110.41    6.07
  -2  -3   5  102.95    6.56
  -2  -3   4   46.62    5.70
   2   3  -4   35.35    5.50
  -2   3   4   50.10    4.84
  -2  -3   4   43.36    5.29
   2   3  -4   39.07    5.86
  -2   3   4   40.86    3.42
   2  -3  -4   50.31    5.24
  -2  -3   4   49.61    3.91
   2   3  -4   49.27    3.91
  -2   3   4   48.34    3.24
  -2  -3   4   41.40    3.75
  -2   3   4   44.49    3.33
  -2   3   4   49.01    4.06
  -2  -3   4   54.47    4.13
   2   3  -4   51.92    4.01
  -2  -3   4   40.27    3.10
   2  -3  -4   45.16    3.69
  -2  -3   4   50.40    4.16
   2   3  -3  100.59    8.67
   2  -3  -3   94.43    7.91
  -2  -3   3  106.36    8.33
  -2   3   3  118.01    7.93
   2   3  -3  102.67    8.05
  -2   3   3  119.80    6.57
  -2  -3   3  135.45    7.05
   2   3  -3  108.99    6.79
  -2   3   3  123.83    6.46
  -2  -3   3  121.25    6.81
  -2  -3   3  100.78    6.93
   2   3  -3  124.58    9.35
  -2   3   3  126.89    7.15
   2   3  -3  125.51    7.04
  -2   3   3  113.58    6.45
   2  -3  -3  122.18    8.53
  -2  -3   3  100.33    6.18
   2  -3  -3  114.22    6.70
  -2  -3   3  106.37    8.73
  -2  -3   3  114.39    7.08
  -2  -3   2   50.11    5.92
   2   3  -2   52.79    6.03
   2  -3  -2   55.16    5.71
  -2   3   2   57.75    5.43
   2   3  -2   70.96    4.61
   2   3  -2   54.31    5.52
   2   3  -2   54.88    6.52
   2  -3  -2   65.52    6.01
  -2  -3   2   72.16    4.71
   2   3  -2   61.20    4.23
  -2   3   2   65.70    4.04
  -2  -3   2   60.04    4.32
  -2  -3   2   70.33    4.71
  -2   3   2   56.16    3.98
   2  -3  -2   57.86    4.35
  -2  -3   2   53.79    3.77
  -2  -3   2   66.19    4.70
  -2  -3   1   16.38    3.99
   2  -3  -1   14.10    3.90
   2   3  -1    8.40    4.04
   2   3  -1   22.31    2.96
   2   3  -1    9.54    3.67
  -2  -3   1   20.24    2.80
   2  -3  -1   16.06    3.99
  -2   3   1   16.01    2.17
  -2  -3   1   18.89    2.89
   2   3  -1   14.90    2.40
  -2   3   1   21.34    2.32
  -2   3   1   21.67    3.96
  -2  -3   1   17.19    2.60
  -2  -3   1   22.91    2.89
   2   3  -1   16.24    3.96
  -2  -3   1   14.26    1.94
   2   3   0   -3.32    3.48
   2  -3   0    4.29    3.52
  -2   3   0    7.77    3.39
   2   3   0    4.17    3.49
   2   3   0   -1.88    3.20
   2  -3   0    0.65    3.24
  -2  -3   0   -1.03    2.23
  -2  -3   0   -0.27    2.37
  -2   3   0    3.72    1.83
  -2  -3   0    0.76    2.25
  -2  -3   0   -0.38    2.08
  -2  -3   0    0.71    3.38
  -2  -3   0    2.38    1.50
  -2   3   0   -1.63    1.68
  -2  -3  -1   22.00    4.06
   2  -3   1   16.87    2.48
   2  -3   1   16.53    4.26
   2   3   1   17.47    4.27
   2   3   1   20.56    4.09
   2  -3   1   12.87    4.09
  -2  -3  -1   18.66    2.88
  -2   3  -1   24.05    2.59
  -2  -3  -1   17.24    2.68
   2   3   1   11.79    3.93
  -2  -3  -1   19.39    2.94
  -2  -3  -1   19.36    2.09
  -2   3  -1   14.47    2.23
  -2   3  -1   17.24    3.70
   2  -3   2   12.49    2.38
  -2  -3  -2   15.93    3.89
   2  -3   2   14.87    4.39
  -2   3  -2   23.45    3.07
   2   3   2   18.77    4.17
  -2   3  -2   21.60    2.75
   2   3   2   12.16    3.86
   2  -3   2   13.30    4.04
  -2  -3  -2   20.56    2.92
  -2   3  -2   28.10    4.29
  -2   3  -2   20.38    2.55
  -2  -3  -2   15.19    2.63
  -2  -3  -2   17.00    2.01
  -2  -3  -2   15.75    2.76
  -2   3  -2   14.02    2.24
   2  -3   3  227.98   15.08
  -2   3  -3  240.86   14.59
  -2   3  -3  267.33   13.07
   2   3   3  276.14   14.95
   2   3   3  234.85   14.55
  -2  -3  -3  257.86   13.29
  -2  -3  -3  238.87   12.51
  -2   3  -3  244.34   12.88
  -2  -3  -3  234.66   13.02
  -2   3  -3  237.87   12.69
  -2  -3  -3  267.21   13.13
  -2  -3  -3  256.69   14.56
  -2   3  -3  278.78   13.46
   2  -3   3  218.88   12.90
   2  -3   4   21.75    2.92
  -2  -3  -4   24.31    4.10
   2  -3   4   25.72    5.32
   2   3   4   24.73    3.86
  -2   3  -4   22.36    2.82
   2   3   4   21.28    4.26
  -2  -3  -4   19.18    3.23
  -2   3  -4   25.26    4.37
  -2   3  -4   24.22    2.80
  -2  -3  -4   20.62    2.86
  -2  -3  -4   26.34    3.01
  -2  -3  -4   24.86    2.26
  -2   3  -4   21.96    2.46
   2  -3   5   28.48    3.25
  -2  -3  -5   29.76    4.47
   2  -3   5   31.95    5.62
  -2   3  -5   32.80    3.19
   2   3   5   26.33    4.76
  -2  -3  -5   28.60    3.56
  -2  -3  -5   33.20    3.44
  -2   3  -5   34.29    3.25
  -2  -3  -5   32.69    3.27
  -2  -3  -5   38.38    3.45
  -2   3  -5   30.55    2.84
  -2  -3  -5   33.61    2.67
   2  -3   6   10.41    2.46
  -2  -3  -6   12.21    3.63
   2  -3   6    4.82    4.57
  -2   3  -6   15.21    3.73
  -2   3  -6   18.43    2.66
   2   3   6   11.65    3.97
  -2  -3  -6   13.67    2.86
  -2  -3  -6    8.45    2.64
  -2   3  -6   15.26    2.53
  -2  -3  -6   13.56    2.48
  -2   3  -6    9.59    2.17
  -2  -3  -6   11.76    2.68
  -2  -3  -6   13.07    1.90
   2   3   7   83.46    8.62
   2  -3   7   96.24    9.16
  -2   3  -7  125.89    8.67
  -2   3  -7  121.69    7.07
   2   3   7  121.72    8.92
  -2  -3  -7  110.68    7.45
  -2  -3  -7  120.51    7.21
  -2   3  -7  111.37    6.78
  -2  -3  -7  117.94    7.13
  -2  -3  -7  131.81    7.25
  -2  -3  -7  124.38    6.54
  -2  -3  -7  118.36    8.42
   2  -3   7  125.87    7.20
   2  -3   8   10.24    2.60
   2   3   8   13.62    3.93
  -2  -3  -8   11.18    3.23
   2  -3   8   14.94    4.71
  -2   3  -8   18.33    3.84
   2   3   8   18.18    3.27
  -2   3  -8   11.13    2.44
   2   3   8   16.30    4.13
  -2  -3  -8   13.54    2.89
  -2   3  -8   10.74    2.19
  -2  -3  -8   14.33    2.79
  -2  -3  -8   16.85    2.83
  -2  -3  -8   13.91    2.80
  -2  -3  -8   13.72    1.97
  -2   3  -8   12.52    2.80
   2   3   9   63.11    4.67
  -2   3  -9   57.54    4.24
  -2  -3  -9   49.31    4.53
  -2  -3  -9   50.43    4.41
  -2   3  -9   65.12    4.64
  -2   3  -9   63.15    4.24
  -2  -3  -9   59.33    4.46
  -2   3  -9   51.88    3.99
  -2  -3  -9   59.12    4.36
  -2  -3  -9   58.79    3.73
   2  -3   9   53.67    4.32
   2  -3  10    9.09    2.38
  -2  -3 -10   17.09    1.98
  -2   3 -10   12.82    2.33
  -2  -3 -10   11.32    2.89
  -2  -3 -10   12.56    2.53
  -2   3 -10   11.58    2.33
  -2   3 -10    9.36    2.14
  -2  -3 -10    9.41    2.38
  -2   3 -10   12.14    2.58
  -2  -3 -10   12.52    2.64
   2   3  10   13.92    3.09
  -2  -3 -10   13.01    1.93
   2  -3  11    2.73    2.26
  -2  -3 -11    0.32    1.50
  -2   3 -11   -0.34    1.98
  -2  -3 -11    1.97    2.39
  -2  -3 -11    1.39    2.19
  -2   3 -11    1.51    1.86
  -2  -3 -11    2.01    2.28
  -2  -3 -11    3.29    2.35
   2   3  11    2.13    2.73
  -2   3 -11    0.40    1.69
  -2  -3 -11    1.51    1.57
  -2   3 -11   -0.40    2.13
  -2  -3 -12   52.92    3.30
  -2  -3 -12   50.75    3.29
  -2  -3 -12   49.23    4.10
  -2  -3 -12   50.66    3.70
  -2   3 -12   47.13    3.47
  -2  -3 -12   42.96    3.70
  -2   3 -12   43.86    3.51
  -2  -3 -12   56.94    3.93
   2   3  12   52.52    4.01
  -2   3 -12   44.00    3.39
  -2   3 -12   51.71    3.93
   2  -3  12   41.01    3.83
  -2  -3 -13   45.53    2.82
  -2  -3 -13   42.03    3.51
  -2   3 -13   39.53    2.96
  -2  -3 -13   44.03    3.36
   2   3  13   50.91    3.51
  -2   3 -13   39.66    2.96
  -2  -3 -13   47.98    2.88
  -2   3 -13   49.88    3.49
   2  -3  13   39.58    3.36
  -2  -3 -14   25.31    1.84
  -2  -3 -14   25.24    2.69
   2  -3  14   19.31    2.47
  -2  -3 -14   28.26    1.96
  -2   3 -14   26.45    1.98
  -2   3 -14   31.66    2.46
  -2  -3 -14   29.84    2.58
   2   3  14   31.56    2.63
  -2  -3 -15   22.57    1.68
  -2  -3 -15   74.61    3.30
  -2   3 -15  101.09    3.12
   2  -3  15   77.12    3.08
   2   3  15  100.25    3.14
  -2  -3 -15   85.57    2.52
  -2  -3 -16   86.82    3.11
  -2   3 -16  106.05    2.75
   2   3  16  109.57    2.85
  -2  -3 -16   94.42    2.31
   2  -3  16   87.38    2.86
  -2   3 -16  104.69    2.73
  -2  -3 -17  174.92    9.29
  -2   3 -17  186.38    9.12
  -2  -4  11    2.66    1.18
  -2   4  11    4.75    1.01
   2   4 -11    3.88    1.20
   2  -4 -11    2.29    1.01
   2  -4 -10   60.73    3.08
   2  -4 -10   55.24    3.12
  -2  -4  10   47.60    3.17
   2   4 -10   54.53    3.27
  -2  -4  10   47.88    3.34
   2  -4  -9  190.44    8.28
  -2   4   9  159.54    8.16
  -2  -4   9  161.80    8.40
   2   4  -9  168.38    8.43
  -2  -4   9  129.75    8.19
   2  -4  -9  185.16    8.35
  -2  -4   9  160.39    8.56
  -2  -4   8   16.92    2.07
   2  -4  -8   20.46    1.67
  -2   4   8   17.03    1.58
  -2  -4   8   17.67    1.85
   2   4  -8   15.57    1.81
   2  -4  -8   21.24    1.83
   2  -4  -7  185.43    8.73
  -2   4   7  173.19    8.70
  -2  -4   7  176.86    8.94
  -2  -4   7  160.58    9.06
   2   4  -7  168.18    8.82
   2  -4  -7  188.58    8.84
  -2  -4   7  146.64    8.71
  -2  -4   6   21.58    2.48
  -2   4   6   23.93    2.05
  -2  -4   6   27.89    2.36
   2   4  -6   20.24    2.10
  -2  -4   6   21.82    2.11
   2  -4  -6   30.30    2.25
  -2  -4   5   16.10    2.22
  -2   4   5   12.99    1.73
  -2  -4   5   16.45    2.01
   2   4  -5   10.77    1.67
  -2  -4   5   15.94    1.95
   2  -4  -5   16.81    1.89
  -2   4   4   19.65    1.95
  -2  -4   4   24.08    2.33
   2   4  -4   17.68    1.86
  -2  -4   4   17.10    2.06
   2  -4  -4   22.79    2.17
  -2   4   3   12.75    1.87
  -2  -4   3   16.93    2.13
   2  -4  -3   16.82    2.08
  -2  -4   3   16.30    2.01
  -2   4   2   45.51    2.42
  -2  -4   2   55.00    2.76
  -2  -4   2   43.82    2.54
   2  -4  -2   54.25    2.67
  -2   4   1   -2.29    1.58
  -2  -4   1    0.60    1.69
  -2   4   1   -0.67    1.22
  -2  -4   1    0.33    1.63
   2   4  -1    1.78    1.52
   2  -4  -1    2.11    1.79
  -2   4   0   10.11    1.70
  -2  -4   0    9.55    2.01
  -2   4   0    8.63    1.57
  -2  -4   0    8.69    1.75
   2   4   0    9.74    1.96
   2  -4   0   10.31    1.94
  -2   4  -1    7.60    1.69
  -2  -4  -1    6.96    1.83
  -2   4  -1    9.04    1.55
  -2  -4  -1    7.81    1.74
   2   4   1    9.94    2.09
   2  -4   1    8.02    1.90
   2  -4   2    2.30    1.84
  -2   4  -2    1.28    1.49
  -2  -4  -2    0.90    1.81
  -2   4  -2    3.89    1.54
  -2  -4  -2    1.77    1.58
   2   4   2    4.65    1.88
  -2  -4  -2    0.24    0.58
  -2   4  -3   72.59    2.80
  -2  -4  -3   84.98    3.25
  -2   4  -3   80.92    2.84
  -2  -4  -3   86.39    2.92
   2   4   3   77.53    3.03
   2  -4   3   77.91    3.04
  -2   4  -4   12.66    1.76
  -2  -4  -4   17.94    2.14
  -2   4  -4   18.86    1.92
  -2  -4  -4   15.59    1.79
   2  -4   4   19.40    2.14
   2   4   4   15.89    2.23
  -2  -4  -5    4.19    1.71
  -2   4  -5    2.05    1.57
  -2  -4  -5    2.18    1.46
   2   4   5    3.09    1.81
   2  -4   5    1.07    1.65
  -2  -4  -5   -0.09    0.58
  -2  -4  -6    3.43    1.64
  -2   4  -6    3.28    1.57
  -2  -4  -6    2.03    1.42
   2   4   6    5.01    1.98
   2  -4   6    2.96    1.66
  -2  -4  -6    0.26    0.57
  -2  -4  -7    1.14    1.10
  -2  -4  -7    3.63    1.59
  -2   4  -7    0.87    1.45
  -2  -4  -7    0.53    1.30
   2   4   7    0.07    1.79
   2  -4   7   -0.58    1.51
  -2  -4  -7   -0.63    0.54
   2  -4   8   -0.99    1.44
  -2  -4  -8    0.35    1.02
  -2  -4  -8    1.62    1.55
  -2   4  -8    1.67    1.42
   2   4   8    1.37    1.71
  -2  -4  -8    1.56    1.23
  -2  -4  -8    0.28    0.47
  -2  -4  -9    5.49    0.98
   2  -4   9    6.34    1.45
  -2  -4  -9    5.77    1.52
  -2   4  -9    9.19    1.45
   2   4   9    7.84    1.65
  -2  -4 -10   17.49    1.79
   2  -4  10   18.84    1.68
  -2  -4 -11    2.99    1.06
  -3   0  23   12.77    1.67
   3   0 -23   15.74    1.82
   3   0 -22    2.87    1.56
  -3   0  22   -1.63    1.56
  -3   0  22    1.88    1.61
   3   0 -22    0.44    1.73
   3   0 -21    7.96    1.86
  -3   0  21    8.23    2.04
  -3   0  21    8.36    2.05
   3   0 -21    6.81    2.26
  -3   0  20    0.79    1.83
  -3   0  20    6.91    2.81
  -3   0  20    0.38    2.01
   3   0 -20    1.75    1.89
   3   0 -19  272.97   13.86
  -3   0  19  274.96   13.97
  -3   0  19  264.64   14.13
  -3   0  19  252.69   14.51
   3   0 -18    1.88    2.05
  -3   0  18    1.51    2.08
  -3   0  18    0.21    3.08
  -3   0  18    0.77    2.27
   3   0 -17  100.91    5.90
  -3   0  17  101.12    8.05
  -3   0  17   88.68    5.72
  -3   0  17  105.88    5.99
  -3   0  17  106.64    6.33
  -3   0  17   78.84    6.15
  -3   0  17   97.09    6.95
   3   0 -16    2.61    2.02
  -3   0  16   -1.22    2.52
  -3   0  16   -0.12    2.10
  -3   0  16   -5.76    3.84
  -3   0  16   -0.90    3.06
  -3   0  16    2.40    2.45
   3   0 -15   79.09    4.77
   3   0 -15   64.86    6.06
  -3   0  15   76.88    7.03
   3   0 -15   62.01    5.49
  -3   0  15   74.16    5.18
  -3   0  15   79.94    4.79
  -3   0  15   70.98    5.12
  -3   0  15   65.80    5.74
   3   0 -14    0.10    1.68
   3   0 -14    1.18    2.73
   3   0 -14   -1.06    2.28
  -3   0  14    0.43    1.63
  -3   0  14   -0.21    2.79
  -3   0  14    0.77    3.61
  -3   0  14    0.46    2.15
  -3   0  14    1.55    2.50
   3   0 -14   -3.22    4.08
   3   0 -13   -0.30    2.98
   3   0 -13    3.82    1.76
   3   0 -13    5.74    3.10
   3   0 -13    1.58    2.23
  -3   0  13    6.97    1.85
  -3   0  13    3.47    4.03
  -3   0  13    4.74    1.68
   3   0 -13    5.02    3.91
  -3   0  13    5.10    3.45
  -3   0  13    3.74    2.30
  -3   0  13    7.62    2.49
   3   0 -12   -0.29    2.89
   3   0 -12   -0.30    3.50
   3   0 -12   -0.17    1.51
   3   0 -12   -0.90    2.03
  -3   0  12    0.79    1.57
  -3   0  12    0.40    3.69
  -3   0  12   -0.37    1.52
  -3   0  12   -1.36    3.15
  -3   0  12    0.19    2.66
  -3   0  12    0.67    1.97
  -3   0  12    1.37    2.29
   3   0 -11   38.55    4.69
   3   0 -11   44.55    2.94
   3   0 -11   44.69    4.98
   3   0 -11   47.14    3.75
  -3   0  11   41.34    2.98
  -3   0  11   55.05    5.78
  -3   0  11   44.36    2.97
  -3   0  11   46.35    3.55
  -3   0  11   45.60    4.07
  -3   0  11   38.66    4.95
  -3   0  11   39.25    3.45
   3   0 -10    0.52    2.69
   3   0 -10    0.49    3.19
  -3   0  10    2.36    1.99
   3   0 -10    0.59    1.85
  -3   0  10    0.28    1.26
  -3   0  10    1.72    3.70
  -3   0  10   -0.07    1.19
  -3   0  10    1.44    2.89
  -3   0  10    0.80    2.33
  -3   0  10   -0.46    1.73
  -3   0  10    0.69    1.67
  -3   0   9 2149.41  101.88
   3   0  -9 2161.25  101.00
  -3   0   9 2208.25  101.41
   3   0  -9 1979.42  100.09
  -3   0   9 2077.42   99.54
  -3   0   9 2022.51   99.54
  -3   0   9 2134.47   99.93
  -3   0   9 2121.89   99.69
   3   0  -9 1949.01  100.96
   3   0  -8    0.23    2.69
   3   0  -8   -0.80    2.50
   3   0  -8    1.77    1.60
  -3   0   8    1.62    1.16
  -3   0   8   -0.29    3.32
  -3   0   8   -0.48    2.55
   3   0  -7  200.82   11.97
  -3   0   7  225.31   12.63
   3   0  -7  207.24   11.75
  -3   0   7  222.51   12.14
   3   0  -7  205.13   10.96
  -3   0   6    1.34    1.13
   3   0  -6    1.00    2.43
   3   0  -6    0.50    2.28
   3   0  -6   -0.57    1.46
  -3   0   6   -0.74    2.96
  -3   0   6    0.81    2.73
   3   0  -5  980.98   45.49
   3   0  -5 1016.79   45.21
  -3   0   5 1005.02   45.95
  -3   0   5 1000.50   45.54
   3   0  -5  957.87   44.50
  -3   0   5  825.60   44.12
  -3   0   4   -0.54    0.74
   3   0  -4   -0.53    2.35
   3   0  -4    0.81    1.36
  -3   0   4    3.75    2.62
   3   0  -3  454.40   21.22
  -3   0   3  394.29   19.72
  -3   0   3  460.63   21.23
   3   0  -3  417.11   20.22
  -3   0   2    0.70    0.69
   3   0  -2   -2.42    1.36
  -3   0   2    1.69    2.63
  -3   0   2    1.67    3.18
  -3   0   1   16.00    2.91
  -3   0   1   13.98    3.64
  -3   0   1   15.09    1.25
  -3   0   0    0.56    0.96
  -3   0   0    3.86    2.65
  -3   0   0    1.11    3.26
  -3   0  -1 1367.78   67.73
  -3   0  -1 1348.38   67.91
  -3   0  -1 1409.15   66.77
  -3   0  -2    0.70    2.58
  -3   0  -2    0.59    3.19
   3   0   3 2010.21   92.89
  -3   0  -3 1853.12   93.61
  -3   0  -3 1862.10   93.38
   3   0   4   -1.35    1.91
  -3   0  -4    3.71    3.28
   3   0   5   65.80    4.40
   3   0   5   63.38    5.21
  -3   0  -5   62.36    5.59
  -3   0  -5   58.50    5.18
  -3   0  -6    2.04    1.83
   3   0   6   -0.22    2.99
   3   0   6    1.09    2.00
  -3   0  -6    0.76    3.13
  -3   0  -6   -1.09    1.76
  -3   0  -6   -1.13    2.95
   3   0   7   36.83    3.42
   3   0   7   44.88    4.68
  -3   0  -7   43.11    4.61
  -3   0  -7   36.68    3.11
  -3   0  -7   32.90    4.79
  -3   0  -7   33.64    3.04
   3   0   8    2.07    2.30
  -3   0  -8    0.88    2.01
   3   0   8    1.99    3.12
   3   0   8    0.47    2.17
  -3   0  -8    1.90    1.59
  -3   0  -8    3.47    3.33
  -3   0  -8   -0.43    1.63
  -3   0  -8    1.21    3.51
   3   0   9   66.91    5.07
   3   0   9   57.42    4.62
   3   0   9   68.09    5.97
  -3   0  -9   65.79    6.03
  -3   0  -9   66.84    6.35
  -3   0  -9   64.80    4.00
  -3   0  -9   54.82    3.71
  -3   0  -9   61.39    4.34
   3   0  10   -0.51    2.44
  -3   0 -10    3.36    2.23
   3   0  10    1.45    3.84
  -3   0 -10    0.32    3.56
   3   0  10    1.09    2.27
  -3   0 -10    2.51    3.80
  -3   0 -10    1.56    1.88
  -3   0 -10    0.75    1.55
   3   0  11  359.71   18.54
   3   0  11  360.85   18.97
  -3   0 -11  352.45   19.10
  -3   0 -11  346.43   16.96
  -3   0 -11  346.06   19.52
  -3   0 -11  321.14   16.96
  -3   0 -11  305.49   16.77
  -3   0 -11  345.88   17.29
  -3   0 -12   -0.15    2.54
   3   0  12    0.67    3.88
  -3   0 -12    1.59    1.92
  -3   0 -12   -4.03    3.91
  -3   0 -12    5.44    4.42
   3   0  12   -1.54    2.81
   3   0  13  817.40   43.62
   3   0  13  853.16   43.88
  -3   0 -13  852.95   44.22
  -3   0 -13  890.63   41.96
  -3   0 -13  815.17   44.54
  -3   0 -13  852.68   42.28
  -3   0 -14    0.40    4.21
   3   0  14    2.16    3.10
  -3   0 -14    1.96    2.81
   3   0  14   -2.53    4.09
  -3   0 -14    2.13    2.17
  -3   0 -14   -0.46    4.46
   3   0  15   63.94    6.33
   3   0  15   62.18    6.22
   3   0  15   51.42    6.17
  -3   0 -15   50.98    6.52
  -3   0 -15   62.49    4.34
  -3   0 -15   58.36    7.23
  -3   0 -15   62.40    5.02
  -3   0 -16    2.61    2.67
  -3   0 -16    0.13    2.16
  -3   0 -16    0.46    4.36
  -3   0 -17   29.47    3.91
  -3   0 -17   41.89    3.43
  -3   0 -18   -1.29    2.60
  -3   0 -18    1.78    1.96
  -3   0 -19    3.16    2.30
  -3   0 -19    4.12    1.95
   3   0  19    4.52    2.40
  -3   0 -20    1.28    2.04
  -3   0 -20    3.31    1.55
   3   0  20    1.85    2.04
  -3   0 -20   -0.09    1.66
  -3   0 -21    7.14    1.89
  -3   0 -21    9.32    1.51
   3   0  21   10.60    2.08
  -3   0 -21    5.91    1.55
  -3   0 -22    0.66    1.30
   3   0  22    3.62    1.47
   3  -1 -22   20.01    1.81
   3   1 -22   18.17    1.86
   3  -1 -22   24.80    2.10
  -3   1  22   25.34    1.94
  -3  -1  22   21.11    2.10
  -3  -1  22   18.58    1.75
  -3   1  22   17.86    1.82
  -3  -1  22   15.66    2.12
  -3   1  22   12.43    1.94
   3   1 -21   60.16    3.03
   3  -1 -21   59.82    2.64
   3   1 -21   57.42    2.77
  -3   1  21   59.70    2.68
  -3  -1  21   56.87    2.94
  -3  -1  21   50.67    2.52
  -3   1  21   52.56    2.60
  -3  -1  21   41.26    2.97
  -3   1  21   43.19    2.87
  -3   1  20  336.94   16.76
   3  -1 -20  347.17   16.61
   3   1 -20  338.47   16.72
  -3   1  20  308.31   16.52
  -3   1  20  353.50   16.72
  -3  -1  20  345.27   16.87
  -3  -1  20  332.40   16.71
  -3   1  20  349.47   16.77
  -3  -1  20  302.60   17.01
  -3   1  20  277.26   16.86
  -3   1  20  310.23   16.55
   3   1 -20  376.99   16.95
   3   1 -19  312.09   15.58
   3  -1 -19  295.46   15.16
   3   1 -19  296.02   15.32
  -3   1  19  317.34   15.21
  -3   1  19  318.72   15.31
  -3  -1  19  302.83   15.46
  -3  -1  19  312.10   15.38
  -3   1  19  295.17   15.40
  -3  -1  19  276.24   15.71
  -3   1  19  263.21   15.60
  -3   1  19  288.57   15.26
  -3   1  19  303.12   15.44
   3  -1 -18   19.89    2.38
   3   1 -18   20.94    2.77
  -3   1  18   20.19    2.49
  -3   1  18   19.52    2.45
  -3  -1  18   17.46    2.66
  -3  -1  18   17.72    3.15
  -3   1  18   15.73    3.01
  -3  -1  18   21.90    2.60
  -3   1  18   18.85    2.69
  -3   1  18   18.00    2.59
  -3   1  18   23.92    3.00
   3   1 -18   18.20    3.04
   3  -1 -17    0.41    1.80
   3   1 -17    2.43    2.20
  -3   1  17    2.40    1.89
  -3   1  17    0.23    1.84
  -3  -1  17    0.56    2.16
  -3  -1  17    2.95    2.73
  -3   1  17    1.35    2.64
  -3  -1  17   -0.28    2.07
  -3   1  17    1.00    2.00
  -3   1  17   -0.70    2.08
  -3   1  17    1.47    2.48
   3   1 -17    0.86    2.61
   3   1 -16   20.84    4.69
   3  -1 -16   16.18    4.26
   3   1 -16   13.40    4.30
   3  -1 -16   18.62    2.32
   3   1 -16   15.22    2.64
   3  -1 -16   16.65    3.73
  -3   1  16   20.07    2.41
  -3  -1  16   11.74    4.45
  -3   1  16   16.97    4.47
  -3   1  16   13.89    2.12
  -3  -1  16   18.91    2.75
  -3  -1  16    8.18    3.67
  -3   1  16   10.02    3.62
  -3  -1  16   17.32    3.26
  -3   1  16   12.94    3.11
  -3  -1  16   16.90    2.70
  -3   1  16   19.19    2.65
  -3   1  16   12.21    2.76
  -3   1  16   16.37    3.19
   3   1 -16   18.06    2.94
   3   1 -15    1.35    3.91
   3  -1 -15    0.74    3.71
   3   1 -15   -1.94    3.87
   3  -1 -15    2.88    1.79
   3   1 -15    2.46    3.31
   3   1 -15    2.32    2.16
   3  -1 -15    1.14    2.92
  -3   1  15    3.72    2.00
  -3  -1  15    3.15    3.96
  -3   1  15    2.21    3.89
  -3   1  15    3.61    1.85
  -3  -1  15    3.40    2.19
  -3  -1  15   -0.37    3.14
  -3   1  15    4.44    3.24
  -3  -1  15    1.63    2.76
  -3   1  15    5.23    2.94
  -3  -1  15   -0.14    2.06
  -3   1  15    1.91    2.14
  -3   1  15    0.60    2.36
  -3   1  15    2.02    2.73
   3   1 -15    3.01    2.44
  -3  -1  14  217.37   14.92
  -3   1  14  230.84   15.01
   3  -1 -14  250.93   12.46
   3   1 -14  223.03   12.64
   3  -1 -14  238.26   14.72
   3   1 -14  236.48   14.75
   3   1 -14  257.44   14.72
  -3  -1  14  240.62   14.53
  -3   1  14  251.92   14.71
   3  -1 -14  214.09   13.79
  -3   1  14  260.16   12.59
  -3   1  14  254.66   12.56
  -3  -1  14  244.53   12.79
  -3  -1  14  245.74   12.83
  -3   1  14  242.24   12.89
  -3  -1  14  226.87   13.32
  -3   1  14  249.60   13.41
  -3   1  14  227.14   12.85
   3   1 -14  259.36   12.93
   3   1 -14  215.58   15.10
   3   1 -13   40.00    5.64
   3  -1 -13   41.07    2.89
   3   1 -13   38.17    3.25
   3  -1 -13   38.72    5.10
   3   1 -13   30.53    5.05
   3   1 -13   38.96    5.29
  -3   1  13   37.97    3.03
   3  -1 -13   34.56    4.24
  -3  -1  13   29.74    3.12
  -3   1  13   43.74    3.05
  -3  -1  13   29.24    5.19
  -3  -1  13   34.58    3.30
  -3   1  13   30.19    5.17
  -3  -1  13   40.07    3.32
  -3   1  13   45.21    3.47
  -3  -1  13   40.91    4.09
  -3   1  13   35.80    3.93
  -3  -1  13   33.38    4.45
  -3   1  13   38.30    5.07
  -3   1  13   35.97    3.45
   3   1 -13   43.24    3.53
  -3  -1  12  267.80   16.20
  -3   1  12  256.77   16.03
   3  -1 -12  280.77   13.62
   3   1 -12  252.11   13.80
   3  -1 -12  304.05   15.91
   3   1 -12  255.31   15.66
   3   1 -12  288.30   16.03
  -3  -1  12  257.58   15.52
  -3   1  12  281.19   15.71
   3  -1 -12  285.74   15.22
  -3  -1  12  240.13   13.86
  -3   1  12  285.54   13.75
  -3  -1  12  259.77   13.90
  -3  -1  12  259.92   14.01
  -3   1  12  272.08   14.06
  -3  -1  12  282.96   14.54
  -3   1  12  276.85   14.58
  -3   1  12  279.08   14.20
   3   1 -12  266.31   16.49
   3   1 -11   58.65    6.45
  -3  -1  11   59.32    6.15
   3  -1 -11   60.91    3.67
  -3   1  11   59.20    6.08
   3   1 -11   55.60    3.97
   3  -1 -11   60.66    5.74
   3   1 -11   61.29    5.86
   3   1 -11   61.83    5.87
  -3  -1  11   65.48    5.65
  -3   1  11   60.58    5.64
   3  -1 -11   56.95    5.10
  -3  -1  11   57.12    3.95
  -3   1  11   65.40    3.78
  -3  -1  11   52.38    3.91
  -3  -1  11   59.66    4.05
  -3   1  11   58.77    4.17
  -3  -1  11   64.96    4.76
  -3   1  11   68.00    4.76
  -3   1  11   59.91    4.29
  -3   1  11   57.28    4.25
  -3  -1  10  570.33   29.40
  -3   1  10  567.04   29.38
   3   1 -10  518.76   27.17
   3  -1 -10  589.47   28.95
   3   1 -10  556.86   28.78
   3   1 -10  558.64   29.20
  -3  -1  10  554.59   28.84
  -3   1  10  607.80   29.04
   3  -1 -10  559.49   28.37
  -3  -1  10  536.25   27.21
   3   1 -10  555.38   29.76
  -3   1  10  605.36   27.11
  -3  -1  10  533.09   27.25
  -3  -1  10  533.26   27.34
  -3   1  10  541.40   27.40
  -3  -1  10  545.24   27.78
  -3   1  10  556.34   27.78
  -3   1  10  553.85   27.33
  -3   1  10  555.13   27.49
   3   1  -9  175.99   11.79
  -3  -1   9  177.66   11.33
  -3   1   9  190.05   11.51
   3   1  -9  165.60    9.36
   3  -1  -9  208.13   11.23
   3   1  -9  165.24   10.77
   3   1  -9  197.94   11.50
  -3  -1   9  191.33   10.99
  -3   1   9  189.99   11.07
   3  -1  -9  171.19   10.44
  -3   1   9  181.76    9.38
  -3  -1   9  179.37    9.43
  -3   1   9  188.28    9.27
  -3   1   9  167.86    9.55
  -3  -1   9  164.78    9.44
  -3  -1   9  180.71    9.55
  -3   1   9  187.22    9.61
  -3  -1   9  194.77   10.03
  -3   1   9  197.82   10.05
  -3   1   9  177.43    9.66
   3   1  -8   18.31    4.10
   3  -1  -8   25.40    3.88
   3   1  -8   21.23    3.56
   3   1  -8   27.15    4.00
  -3   1   8   26.32    2.14
   3  -1  -8   25.55    3.23
  -3  -1   8   22.64    2.19
  -3  -1   8   22.93    2.16
  -3  -1   8   25.09    3.94
  -3  -1   8   21.15    2.28
  -3   1   8   21.11    2.38
  -3   1   8   22.09    3.83
  -3   1   8   28.55    2.79
  -3  -1   8   31.08    3.53
  -3   1   8   24.65    3.41
  -3  -1   8   23.41    2.80
  -3   1   8   23.47    2.55
   3   1  -7   83.36    7.24
  -3  -1   7   96.83    6.87
   3   1  -7   92.37    6.26
  -3   1   7   91.35    6.82
  -3  -1   7   89.19    6.33
  -3   1   7   91.32    6.32
   3  -1  -7   81.36    5.98
  -3   1   7   90.06    4.95
  -3  -1   7  100.69    5.62
  -3   1   7   98.21    5.57
  -3   1   7   80.83    5.17
  -3  -1   7   82.04    6.22
  -3  -1   6   12.57    2.87
   3   1  -6   15.30    2.87
   3   1  -6   26.23    3.72
  -3   1   6   17.26    1.68
   3  -1  -6   16.61    2.79
  -3   1   6   19.22    2.91
  -3  -1   6   19.97    2.80
   3   1  -6   18.37    3.84
   3   1  -5   96.26    7.23
   3   1  -5   89.08    5.90
  -3   1   5   95.14    6.30
  -3  -1   5   92.37    6.21
   3   1  -5  100.99    6.94
   3  -1  -5   88.09    6.07
  -3  -1   5   95.19    6.33
   3   1  -4  288.27   16.28
   3  -1  -4  300.18   14.78
   3   1  -4  286.69   15.03
  -3   1   4  304.42   15.50
  -3  -1   4  294.22   15.49
   3   1  -4  288.81   15.86
   3  -1  -4  279.03   15.41
  -3  -1   4  270.04   15.36
  -3  -1   3    1.03    2.19
   3   1  -3    5.20    3.17
   3  -1  -3    0.88    1.78
   3   1  -3    1.36    1.72
   3   1  -3    2.11    2.60
   3  -1  -3    2.65    2.45
  -3   1   3    2.29    2.21
  -3  -1   3    2.13    2.10
  -3  -1   2   -0.32    1.92
   3  -1  -2    1.25    2.00
   3   1  -2    0.10    1.44
   3   1  -2    3.02    2.67
  -3   1   2   -0.51    2.10
  -3  -1   2   -0.17    2.12
  -3   1   1  657.43   32.35
   3  -1  -1  680.10   32.22
  -3  -1   1  664.63   32.39
   3   1  -1  586.15   31.46
   3   1  -1  696.76   32.64
  -3  -1   1  660.35   32.48
  -3   1   1  657.85   32.49
  -3  -1   1  658.37   32.16
  -3   1   0   75.34    5.11
   3   1   0   64.82    4.17
  -3  -1   0   61.61    5.01
   3  -1   0   74.76    5.10
   3   1   0   72.59    5.23
  -3  -1   0   67.50    5.33
  -3   1   0   72.91    5.38
  -3  -1   0   77.89    4.90
  -3  -1  -1   12.49    2.31
   3   1   1   11.46    1.91
   3  -1   1   16.38    2.76
   3   1   1   12.93    2.62
  -3   1  -1    9.38    2.51
  -3  -1  -1   10.28    2.67
  -3  -1  -1   11.45    3.20
  -3   1  -1   13.20    2.99
   3   1   2  134.79    7.72
   3  -1   2  143.19    8.35
   3   1   2  142.02    8.15
  -3  -1  -2  141.97    8.53
  -3   1  -2  135.34    8.56
  -3  -1  -2  147.06    7.95
  -3   1  -2  123.05    8.05
  -3  -1  -2  131.53    8.24
   3   1   3  582.71   30.54
   3  -1   3  617.74   31.05
   3   1   3  635.95   30.72
  -3  -1  -3  584.91   31.03
  -3   1  -3  619.88   31.22
  -3  -1  -3  642.30   30.61
   3   1   4  891.04   47.69
   3  -1   4  959.57   48.16
   3   1   4 1045.03   48.44
   3   1   4  996.10   47.60
  -3  -1  -4  923.73   48.25
  -3   1  -4  963.44   48.28
  -3  -1  -4  962.49   47.12
  -3  -1  -4 1047.66   47.77
  -3  -1  -5    7.70    2.27
   3   1   5    4.48    2.25
   3  -1   5    8.69    2.95
  -3  -1  -5    9.64    1.77
  -3   1  -5    7.96    1.79
   3   1   5   11.43    4.01
   3   1   5   10.49    3.20
  -3   1  -5    7.58    1.45
  -3  -1  -5   11.02    1.97
  -3   1  -5    4.40    1.64
  -3  -1  -5    8.27    1.65
  -3  -1  -5    5.24    1.70
  -3  -1  -5    9.42    3.18
  -3   1  -5   10.02    3.31
   3   1   6  117.38    7.98
   3  -1   6  135.65    8.66
   3   1   6  144.93    8.67
   3   1   6  139.99    9.39
  -3  -1  -6  122.82    7.04
  -3   1  -6  142.70    6.85
  -3  -1  -6  131.94    8.66
  -3   1  -6  146.75    8.83
  -3  -1  -6  131.98    7.20
  -3  -1  -6  112.55    7.16
  -3   1  -6  118.33    7.09
  -3  -1  -6  128.59    7.00
  -3  -1  -6  133.56    7.14
  -3   1  -6  118.11    7.13
  -3  -1  -6  146.70    8.03
   3   1   7   52.32    4.71
   3  -1   7   58.33    5.27
   3   1   7   57.59    5.25
   3   1   7   63.09    6.31
  -3   1  -7   51.99    3.84
  -3   1  -7   53.99    3.41
  -3  -1  -7   53.33    5.36
  -3   1  -7   51.64    5.42
  -3  -1  -7   63.49    4.69
  -3  -1  -7   57.07    3.93
  -3  -1  -7   55.51    3.74
  -3   1  -7   51.99    5.16
  -3  -1  -7   58.90    5.07
  -3  -1  -7   58.15    3.26
  -3  -1  -7   56.23    3.94
   3   1   8  522.49   28.86
   3  -1   8  591.63   29.32
   3   1   8  612.96   29.25
   3   1   8  631.92   30.01
  -3   1  -8  536.73   27.28
  -3  -1  -8  559.44   29.38
  -3   1  -8  550.67   29.44
  -3  -1  -8  577.92   27.79
  -3  -1  -8  559.26   27.56
  -3   1  -8  571.90   29.13
  -3  -1  -8  559.22   29.03
  -3  -1  -8  558.66   27.22
  -3  -1  -8  546.87   27.71
  -3   1  -8  559.91   27.72
  -3  -1  -8  570.69   28.60
  -3   1  -9   12.72    3.76
   3   1   9   15.41    3.52
  -3  -1  -9   17.45    2.51
  -3   1  -9   11.91    2.45
   3   1   9   13.68    4.80
   3   1   9   14.74    3.96
  -3  -1  -9   14.76    2.32
  -3   1  -9   11.97    1.56
  -3  -1  -9   14.00    2.47
  -3  -1  -9   15.80    2.24
  -3  -1  -9    8.40    3.99
  -3   1  -9   10.48    3.87
  -3  -1  -9   11.26    3.68
  -3  -1  -9   11.52    1.61
   3   1  10  154.91   10.08
   3   1  10  169.75   10.32
   3   1  10  160.68   11.13
  -3  -1 -10  144.44    8.40
  -3  -1 -10  137.13   10.31
  -3   1 -10  147.59    9.99
  -3   1 -10  150.05   10.53
  -3  -1 -10  149.50    8.60
  -3  -1 -10  146.46    9.99
  -3  -1 -10  163.72    8.38
  -3  -1 -10  159.27    7.97
  -3  -1 -10  151.91    8.52
  -3   1 -10  132.85    8.50
   3   1  11   52.68    5.73
   3  -1  11   56.93    5.96
   3   1  11   74.36    6.22
   3   1  11   64.17    6.88
  -3   1 -11   60.39    4.47
  -3  -1 -11   62.92    4.34
  -3   1 -11   61.18    6.15
  -3  -1 -11   67.44    6.06
  -3  -1 -11   64.23    4.61
  -3  -1 -11   55.90    4.33
  -3  -1 -11   58.03    6.19
  -3   1 -11   50.79    6.40
  -3  -1 -11   56.78    4.52
  -3  -1 -11   58.05    3.72
   3   1  12  327.84   19.46
   3  -1  12  357.72   19.73
   3   1  12  384.13   19.56
   3   1  12  389.83   20.66
  -3  -1 -12  342.63   17.64
  -3   1 -12  368.68   17.60
  -3   1 -12  340.19   19.59
  -3  -1 -12  342.81   19.43
  -3  -1 -12  306.96   19.54
  -3   1 -12  316.76   19.74
  -3  -1 -12  354.14   17.87
  -3  -1 -12  345.66   17.57
  -3  -1 -12  328.16   17.76
  -3  -1 -12  336.41   17.19
  -3   1 -12  343.10   17.79
   3   1  13  631.78   35.16
   3  -1  13  685.34   35.39
   3   1  13  688.65   34.84
   3   1  13  797.58   36.34
  -3  -1 -13  651.22   33.19
  -3   1 -13  752.55   33.14
  -3   1 -13  660.84   35.08
  -3  -1 -13  641.96   35.29
  -3   1 -13  637.55   35.34
  -3  -1 -13  642.19   34.96
  -3  -1 -13  652.85   33.33
  -3  -1 -13  635.96   33.08
  -3  -1 -13  652.85   33.24
  -3   1 -13  674.41   33.28
   3   1  14  166.03   11.36
   3  -1  14  156.76   11.20
   3   1  14  195.39   12.62
   3   1  14  169.43   11.05
  -3  -1 -14  168.65    9.29
  -3   1 -14  186.21    9.23
  -3  -1 -14  147.24   11.37
  -3   1 -14  148.77   11.57
  -3   1 -14  154.22   11.24
  -3  -1 -14  165.35    9.56
  -3  -1 -14  159.96   11.22
  -3  -1 -14  160.79    9.21
   3   1  14  163.55    9.37
  -3  -1 -14  159.23    9.39
  -3   1 -14  168.27    9.45
   3   1  15   22.34    4.57
   3  -1  15   27.90    4.36
  -3   1 -15   21.40    3.24
   3   1  15   26.13    5.49
  -3   1 -15   28.19    5.41
  -3  -1 -15   28.42    3.05
  -3   1 -15   28.80    3.02
  -3  -1 -15   27.14    3.08
   3   1  15   27.37    3.10
  -3  -1 -15   21.60    4.87
  -3  -1 -15   32.08    3.42
  -3  -1 -16   50.31    4.16
  -3   1 -16   50.97    3.94
   3   1  16   53.65    4.21
  -3  -1 -16   49.97    4.21
  -3   1 -16   49.72    4.19
  -3  -1 -17   83.55    5.35
  -3   1 -17   86.32    5.29
   3   1  17   82.50    5.52
  -3  -1 -17   85.53    5.54
  -3   1 -17   84.72    5.53
  -3  -1 -18   77.12    4.99
  -3   1 -18   82.69    4.92
   3   1  18   87.67    5.19
  -3  -1 -18   71.46    5.05
  -3   1 -18   74.98    5.08
  -3  -1 -19    1.28    1.88
  -3   1 -19    3.21    1.92
  -3  -1 -19    1.61    1.69
  -3   1 -19    4.41    1.83
   3   1  19    3.72    1.94
   3  -1  20    0.10    1.70
  -3  -1 -20    2.67    1.59
  -3   1 -20   -0.55    1.62
  -3  -1 -20    0.86    1.34
  -3   1 -20    3.06    1.42
   3   1  20   -0.17    1.68
   3  -1  21    6.51    1.60
  -3  -1 -21    8.07    1.41
  -3   1 -21    6.14    1.23
   3   1  21    6.17    1.46
   3  -1  21    7.57    1.39
   3   1  21    6.35    1.42
  -3   1 -21    7.73    1.55
   3   2 -21  256.95   12.73
   3   2 -20    3.15    1.35
  -3   2  20    2.36    1.08
  -3   2  20    4.13    1.23
  -3  -2  20    3.80    1.57
  -3   2  20    3.29    1.48
  -3   2  20    3.06    1.72
   3   2 -20    3.36    1.55
   3  -2 -19   16.89    1.64
   3   2 -19   19.18    2.01
  -3   2  19   18.42    1.74
  -3   2  19   18.89    1.79
  -3  -2  19   21.40    2.27
  -3   2  19   19.09    2.06
  -3   2  19   20.08    2.38
   3   2 -19   22.72    2.21
   3  -2 -18    0.64    1.42
   3   2 -18    1.84    1.89
  -3   2  18    2.75    1.48
  -3   2  18    3.43    1.58
   3   2 -18    1.72    1.61
  -3  -2  18    2.08    1.87
  -3   2  18    3.05    2.10
   3   2 -18    2.73    2.07
   3  -2 -17   84.68    5.08
   3   2 -17   90.89    5.49
  -3   2  17   93.44    5.21
  -3   2  17   89.97    5.20
  -3  -2  17   88.53    5.60
   3   2 -17   86.61    5.38
  -3   2  17   87.47    5.62
   3   2 -17   87.15    5.47
   3  -2 -16    9.12    1.88
   3   2 -16   10.18    2.33
  -3   2  16    8.84    1.92
  -3   2  16    7.82    1.79
   3   2 -16    5.60    2.32
  -3  -2  16    8.75    2.23
  -3   2  16   10.82    2.59
   3   2 -16    5.63    2.24
  -3  -2  15   -0.33    1.45
   3  -2 -15    0.36    1.63
   3   2 -15    1.03    2.17
  -3  -2  15    0.91    2.11
  -3   2  15    2.84    2.67
  -3   2  15    0.51    1.73
  -3   2  15    1.99    1.59
  -3  -2  15    0.45    2.03
  -3   2  15    4.58    2.48
   3   2 -15    0.94    2.37
  -3  -2  14    5.23    1.87
   3  -2 -14    5.18    1.81
   3   2 -14    4.28    2.36
  -3  -2  14    4.56    2.16
  -3   2  14    5.06    2.03
  -3   2  14    4.12    1.78
  -3  -2  14    4.77    2.48
  -3   2  14    5.31    2.54
  -3   2  14    2.89    2.68
   3   2 -14    1.37    2.38
   3   2 -13    5.46    4.29
  -3  -2  13    4.62    1.93
   3  -2 -13    7.58    3.47
   3  -2 -13    8.79    1.85
   3   2 -13    5.44    3.96
   3   2 -13    3.38    2.37
   3  -2 -13    3.21    3.32
  -3  -2  13    7.74    2.40
  -3   2  13    3.52    1.97
  -3   2  13    5.25    1.80
  -3  -2  13    6.06    2.45
  -3   2  13    6.80    2.68
  -3   2  13    6.05    2.69
   3   2 -13    0.68    2.34
  -3  -2  13    7.88    4.13
   3  -2 -12  160.47    7.84
   3  -2 -12  134.83    9.74
   3   2 -12  139.45    8.21
   3   2 -12  144.08   10.60
   3  -2 -12  158.50    9.97
  -3   2  12  158.66    8.05
  -3  -2  12  151.64    8.32
  -3   2  12  151.84    7.95
  -3  -2  12  131.69    8.36
  -3   2  12  129.60    8.51
  -3   2  12  142.06    8.28
  -3   2  12  161.48    8.49
  -3  -2  12  115.26    9.90
   3   2 -12  139.80    8.21
  -3  -2  12  131.08    8.03
   3   2 -12  120.98   10.76
  -3  -2  11   20.15    4.55
   3   2 -11   32.61    5.99
  -3  -2  11   25.11    2.89
   3  -2 -11   30.04    2.50
   3  -2 -11   24.42    4.17
   3   2 -11   23.10    4.97
   3   2 -11   27.62    3.00
  -3   2  11   26.26    2.73
   3  -2 -11   35.04    4.47
  -3  -2  11   31.86    3.09
  -3  -2  11   26.21    3.02
  -3   2  11   22.94    3.44
  -3   2  11   23.29    3.00
  -3   2  11   32.39    3.45
   3   2 -11   32.16    3.12
  -3  -2  10   -0.40    3.40
   3   2 -10    4.46    4.36
  -3  -2  10    7.03    2.16
   3  -2 -10    2.42    3.10
   3  -2 -10    3.91    1.55
   3   2 -10    1.74    3.99
   3   2 -10    3.57    2.22
   3  -2 -10    6.51    3.32
  -3   2  10    5.88    1.97
  -3  -2  10    4.04    2.26
  -3  -2  10    4.62    2.12
  -3   2  10    5.95    2.68
  -3   2  10    5.46    2.40
   3  -2 -10    6.12    1.51
  -3   2  10    6.79    2.49
   3   2 -10    7.96    2.11
   3  -2  -9  160.19    8.28
   3  -2  -9  179.07   10.49
   3   2  -9  143.06    8.68
   3   2  -9  162.32   11.22
  -3   2   9  155.19    8.58
   3  -2  -9  163.68   10.30
  -3  -2   9  177.98    8.88
  -3  -2   9  156.70    8.89
  -3   2   9  158.54    9.09
  -3   2   9  162.98    8.69
  -3   2   9  162.08    8.97
   3  -2  -9  159.50    8.23
  -3  -2   9  122.81   10.31
   3   2  -9  151.09    8.62
  -3  -2   9  155.16    8.73
  -3  -2   8    1.12    3.48
  -3  -2   8    2.37    1.91
   3  -2  -8    2.31    3.17
   3  -2  -8    3.35    1.41
   3   2  -8    2.49    2.05
   3  -2  -8    2.39    3.04
  -3   2   8    2.30    1.75
  -3  -2   8    3.18    2.03
  -3  -2   8    1.98    1.97
  -3   2   8    5.12    2.57
  -3   2   8    4.43    2.00
   3  -2  -8    3.37    1.42
  -3   2   8    1.88    2.23
   3   2  -8    1.70    1.73
  -3   2   7  197.48   10.43
   3  -2  -7  208.73   11.84
   3   2  -7  180.18    9.96
   3  -2  -7  202.42   11.71
  -3  -2   7  207.77   10.12
  -3  -2   7  180.26   10.08
  -3   2   7  172.99    9.75
  -3  -2   7  153.23   11.60
  -3   2   7  195.71    9.92
  -3   2   7  190.91   10.14
   3  -2  -7  185.29    9.56
  -3  -2   7  177.75    9.97
  -3  -2   6   32.00    4.54
  -3  -2   6   22.74    2.60
   3   2  -6   28.37    2.77
   3   2  -6   29.83    5.08
   3  -2  -6   21.52    3.83
  -3  -2   6   26.50    2.74
  -3   2   6   28.22    2.49
  -3  -2   6   23.83    2.70
  -3  -2   6   26.71    2.95
  -3   2   6   27.41    3.03
  -3   2   6   30.53    2.70
  -3   2   6   31.23    3.04
   3  -2  -6   24.83    2.25
   3   2  -5   84.85    7.94
   3   2  -5   95.45    5.48
   3   2  -5   88.25    7.78
   3  -2  -5   97.97    7.26
  -3  -2   5  103.95    5.61
  -3   2   5   94.74    5.28
  -3  -2   5   89.66    5.78
  -3   2   5   91.54    5.59
  -3   2   5   90.00    5.83
  -3   2   5   81.35    5.19
   3  -2  -5   87.63    5.10
  -3  -2   5   97.64    7.44
  -3  -2   5   88.88    5.48
  -3  -2   4   12.19    3.50
  -3  -2   4   11.46    2.04
   3   2  -4   12.78    4.01
   3   2  -4   12.20    2.12
   3  -2  -4    8.64    3.30
  -3   2   4    9.63    1.79
  -3  -2   4   11.14    2.27
   3  -2  -4    9.60    1.76
  -3   2   4   13.56    1.95
  -3  -2   4   12.40    2.39
   3   2  -4   16.76    4.32
  -3   2   4   10.73    2.31
  -3  -2   3    0.88    3.13
   3   2  -3    1.53    3.59
  -3  -2   3    2.28    1.57
   3  -2  -3    0.90    2.59
   3   2  -3    3.17    3.51
   3  -2  -3   -0.29    3.18
  -3   2   3    1.98    1.42
  -3  -2   3    3.07    1.91
  -3   2   3    2.29    1.57
  -3  -2   3    3.62    2.19
   3  -2  -3    3.24    1.56
  -3   2   3    1.55    1.97
  -3  -2   2   -2.32    2.86
   3   2  -2    2.59    3.23
  -3  -2   2    2.46    1.71
   3  -2  -2    0.50    2.79
   3   2  -2   -1.69    3.70
   3  -2  -2    2.61    3.00
  -3   2   2    0.98    1.50
  -3  -2   2    1.37    1.96
  -3  -2   2    0.68    1.92
  -3   2   2    0.80    1.58
  -3  -2   2    0.51    2.08
  -3   2   2   -2.06    1.89
   3   2  -1   29.16    4.70
   3  -2  -1   37.36    4.39
  -3   2   1   52.32    4.59
   3   2  -1   37.34    5.03
  -3  -2   1   38.45    3.24
  -3  -2   1   38.76    3.30
  -3   2   1   41.62    2.97
  -3  -2   1   40.21    3.39
  -3   2   1   36.47    3.20
  -3  -2   1   40.61    4.43
  -3  -2   1   36.25    3.04
   3   2   0   40.27    5.52
   3  -2   0   52.24    5.22
  -3   2   0   65.37    5.28
   3   2   0   55.54    5.38
  -3  -2   0   50.00    3.79
  -3  -2   0   53.33    3.92
  -3   2   0   53.90    3.56
  -3  -2   0   52.61    4.01
  -3   2   0   45.43    3.83
  -3  -2   0   54.38    4.97
  -3  -2   0   54.94    3.68
  -3  -2  -1  161.77    8.28
   3   2   1  144.48   10.28
   3  -2   1  154.38   10.08
  -3   2  -1  170.60    9.77
   3   2   1  152.09    9.84
  -3  -2  -1  143.27    8.29
  -3  -2  -1  146.71    8.32
  -3   2  -1  148.44    8.09
  -3  -2  -1  155.53    8.45
  -3   2  -1  138.20    8.33
  -3  -2  -1  153.23    9.46
  -3  -2  -2   20.78    2.33
  -3  -2  -2   16.44    3.37
   3  -2   2   19.56    4.32
  -3   2  -2   27.20    3.85
   3   2   2   19.77    3.69
  -3  -2  -2   15.02    2.46
  -3  -2  -2   19.44    2.61
  -3   2  -2   18.50    2.21
  -3  -2  -2   17.69    2.56
  -3   2  -2   19.78    2.56
  -3   2  -2   21.94    2.42
  -3  -2  -3   42.28    3.19
   3   2   3   30.74    3.95
   3  -2   3   38.48    5.48
   3   2   3   45.52    4.44
   3   2   3   42.49    5.30
  -3   2  -3   44.83    3.34
  -3  -2  -3   37.48    3.35
  -3  -2  -3   32.57    3.40
  -3  -2  -3   45.83    3.47
  -3   2  -3   36.31    3.42
  -3  -2  -3   39.24    4.20
   3   2   4   57.89    5.67
   3  -2   4   77.84    6.86
   3   2   4   86.50    6.82
   3   2   4   73.58    7.09
  -3  -2  -4   62.87    4.77
  -3  -2  -4   72.38    4.98
  -3   2  -4   72.07    4.86
  -3   2  -4   77.28    4.75
  -3  -2  -4   78.24    5.75
  -3  -2  -5   11.68    3.03
   3   2   5    4.41    2.90
   3  -2   5    9.26    4.10
  -3   2  -5    4.47    2.89
   3   2   5    9.40    4.24
   3   2   5    9.69    4.05
  -3  -2  -5    8.27    2.22
  -3   2  -5    8.18    1.92
  -3  -2  -5    9.61    2.45
  -3   2  -5    7.07    2.40
  -3   2  -5    7.91    2.15
   3   2   6  120.00    9.15
   3  -2   6  119.92    9.94
   3   2   6  147.89    9.89
   3   2   6  140.71   10.13
  -3  -2  -6  132.26    7.14
  -3   2  -6  135.81    7.61
  -3  -2  -6  140.54    8.07
  -3   2  -6  139.97    7.98
  -3   2  -6  140.50    7.74
  -3  -2  -7    0.54    2.75
   3   2   7   -1.38    2.92
   3  -2   7   -2.82    4.14
   3   2   7   -2.36    4.72
   3   2   7   -1.42    3.73
  -3  -2  -7    1.00    2.29
  -3   2  -7    2.12    1.86
  -3  -2  -7    3.49    2.42
  -3   2  -7    2.91    2.38
  -3  -2  -7    1.73    1.27
  -3   2  -7    1.65    2.01
  -3  -2  -8   39.86    4.55
   3   2   8   27.37    4.55
  -3  -2  -8   37.65    2.61
   3  -2   8   30.07    5.78
   3   2   8   42.34    6.12
   3   2   8   37.61    5.30
  -3  -2  -8   34.46    3.61
  -3   2  -8   38.68    3.13
  -3  -2  -8   42.26    3.89
  -3   2  -8   40.52    3.68
  -3  -2  -8   39.35    2.71
  -3   2  -8   40.88    3.38
   3  -2   8   35.56    3.30
   3  -2   9    7.17    2.06
   3   2   9    2.75    3.34
  -3  -2  -9    6.11    2.95
   3  -2   9    5.59    4.22
  -3  -2  -9    5.07    1.37
   3   2   9    8.85    4.89
   3   2   9    9.75    4.20
  -3  -2  -9    3.49    2.43
  -3   2  -9    7.02    1.86
  -3  -2  -9    5.94    2.79
  -3   2  -9    8.69    2.76
  -3  -2  -9    6.91    1.60
  -3   2  -9    7.73    2.16
   3  -2  10    2.11    2.01
   3   2  10   -2.06    3.35
  -3  -2 -10    0.60    2.70
  -3  -2 -10   -0.47    1.22
   3   2  10   -0.87    4.78
   3   2  10   -0.76    4.12
   3   2  10    0.13    2.67
  -3  -2 -10    3.55    2.50
  -3   2 -10    2.50    1.82
  -3  -2 -10    0.32    2.79
  -3   2 -10    3.07    2.55
  -3  -2 -10    1.18    1.56
  -3   2 -10    0.72    2.04
   3   2  11  197.02   13.76
  -3  -2 -11  206.58   10.92
   3  -2  11  199.53   13.90
   3   2  11  243.83   14.05
   3   2  11  237.07   14.63
  -3  -2 -11  199.61   11.73
  -3   2 -11  208.20   11.18
  -3  -2 -11  239.38   12.05
   3   2  11  219.08   11.65
  -3   2 -11  233.24   11.87
  -3  -2 -11  225.05   11.08
  -3   2 -11  232.99   11.47
   3  -2  11  189.45   11.53
   3   2  12   53.43    6.18
   3  -2  12   50.90    6.58
   3   2  12   49.09    6.85
   3   2  12   60.59    6.56
  -3  -2 -12   64.04    4.57
  -3   2 -12   51.56    3.76
  -3  -2 -12   63.46    5.00
   3   2  12   67.67    4.47
  -3   2 -12   63.98    4.78
  -3  -2 -12   63.68    3.80
  -3   2 -12   54.55    4.02
   3  -2  12   52.00    4.39
  -3  -2 -13  423.66   20.39
  -3  -2 -13  421.77   20.60
   3   2  13  421.07   20.11
  -3   2 -13  423.62   20.48
  -3  -2 -13  431.12   19.80
  -3   2 -13  416.56   19.97
   3  -2  13  374.78   20.21
   3  -2  14   11.94    2.41
  -3  -2 -14   14.54    2.79
  -3   2 -14   12.09    2.34
  -3  -2 -14   11.48    3.05
   3   2  14   11.71    2.44
  -3   2 -14    7.67    2.73
  -3  -2 -14   12.99    1.82
  -3   2 -14    7.76    1.52
  -3  -2 -15  435.35   22.66
  -3   2 -15  484.16   22.55
  -3   2 -15  465.49   22.78
   3  -2  15  419.04   22.59
  -3  -2 -16   48.32    3.77
  -3   2 -16   56.78    3.69
  -3   2 -16   53.25    4.06
   3  -2  16   44.99    3.72
   3  -2  17    2.16    1.74
  -3  -2 -17    2.77    1.79
  -3   2 -17    3.89    1.73
  -3   2 -17    2.28    1.96
   3  -2  18    3.29    1.55
  -3  -2 -18    3.61    1.57
  -3  -2 -18    4.97    1.45
  -3   2 -18    2.35    1.49
  -3   2 -18    2.65    1.72
  -3  -2 -19   24.60    2.11
  -3   2 -19   32.58    2.17
  -3   2 -19   29.20    2.27
   3   3 -17    2.64    1.07
  -3  -3  17    3.54    1.27
   3   3 -16   -0.23    1.23
  -3   3  16    1.99    0.99
  -3   3  16    1.87    1.09
   3   3 -16   -0.32    1.31
  -3  -3  16    1.87    1.23
  -3  -3  16    1.39    1.50
  -3   3  16    4.57    1.54
   3   3 -16    1.34    1.15
   3  -3 -15    1.84    1.13
   3   3 -15    2.62    1.51
  -3   3  15    4.34    1.26
  -3   3  15    3.53    1.28
   3   3 -15    5.18    1.74
  -3  -3  15    2.49    1.54
  -3  -3  15    3.17    1.77
  -3   3  15    5.54    1.75
   3   3 -15    3.21    1.41
   3  -3 -14   35.97    1.96
   3   3 -14   33.96    2.36
  -3   3  14   33.40    2.12
  -3  -3  14   37.31    2.52
  -3   3  14   35.42    2.11
  -3  -3  14   31.20    2.42
  -3  -3  14   30.82    2.60
  -3   3  14   37.39    2.58
   3   3 -14   30.28    2.21
  -3  -3  13   17.00    1.94
   3  -3 -13   17.95    1.85
   3   3 -13   19.68    2.33
  -3   3  13   20.20    2.06
  -3  -3  13   18.30    2.37
  -3   3  13   20.91    1.98
  -3  -3  13   19.58    2.46
  -3   3  13   19.45    2.30
   3  -3 -13   19.13    1.73
   3   3 -13   15.84    2.10
   3  -3 -12   34.88    2.40
   3   3 -12   27.53    2.79
  -3   3  12   29.71    2.64
  -3  -3  12   33.28    3.03
  -3   3  12   31.29    2.49
   3   3 -12   33.05    3.25
  -3  -3  12   23.06    2.85
  -3   3  12   31.30    2.80
  -3   3  12   31.51    3.37
   3  -3 -12   28.84    2.31
   3   3 -12   30.68    2.64
  -3  -3  12   30.75    2.78
  -3  -3  11   17.18    2.41
   3  -3 -11   20.02    1.97
   3   3 -11   16.21    2.44
  -3   3  11   19.09    2.22
  -3  -3  11   15.12    2.41
  -3   3  11   19.29    2.96
   3   3 -11   23.62    2.92
  -3  -3  11   19.14    2.68
  -3  -3  11   18.08    2.76
  -3   3  11   20.81    2.47
   3  -3 -11   15.68    1.88
   3   3 -11   17.33    2.21
   3  -3 -10  100.23    5.30
   3   3 -10  101.61    5.78
  -3   3  10   96.78    5.51
  -3  -3  10   99.58    5.87
   3   3 -10   93.24    6.09
  -3  -3  10   80.47    5.75
  -3  -3  10   83.26    5.97
  -3   3  10   96.98    6.28
  -3   3  10   97.67    5.56
  -3   3  10   96.01    5.58
   3  -3 -10   95.68    5.29
   3   3 -10   92.31    5.46
  -3  -3  10   80.97    5.64
   3  -3  -9  127.53    6.56
   3   3  -9  124.57    7.04
  -3   3   9  134.01    6.88
   3   3  -9  119.27    7.37
  -3  -3   9  112.85    7.12
  -3  -3   9  113.14    7.26
  -3   3   9  129.51    7.52
  -3   3   9  117.46    6.71
  -3   3   9  116.21    6.87
   3  -3  -9  117.04    6.56
  -3  -3   9  114.52    7.01
  -3  -3   8    5.61    2.15
   3  -3  -8    3.08    1.47
   3   3  -8    3.55    2.14
  -3   3   8    2.15    1.82
   3   3  -8    5.25    2.56
  -3  -3   8    3.79    2.45
  -3  -3   8    3.57    2.48
  -3   3   8    8.76    2.96
  -3   3   8    0.52    1.73
   3  -3  -8    5.55    1.77
  -3   3   8    2.49    2.02
   3  -3  -7   88.05    4.85
   3   3  -7   84.19    5.35
  -3   3   7   89.58    5.15
   3   3  -7   84.08    5.61
  -3  -3   7   74.48    5.50
  -3  -3   7   84.14    5.74
  -3   3   7   94.96    5.86
  -3   3   7   77.94    5.16
   3  -3  -7   85.00    4.97
  -3  -3   7   71.07    5.34
   3   3  -6  197.75   14.62
   3   3  -6  262.50   12.39
   3   3  -6  212.09   14.74
  -3   3   6  221.74   12.11
   3  -3  -6  266.00   14.27
   3   3  -6  236.47   12.47
  -3   3   6  217.54   11.92
  -3  -3   6  220.01   12.44
  -3  -3   6  237.62   12.61
  -3   3   6  268.17   12.89
  -3   3   6  250.55   12.22
   3  -3  -6  236.83   12.00
  -3  -3   6  184.02   13.78
  -3  -3   6  222.07   12.35
  -3  -3   5   24.12    4.44
   3   3  -5   22.13    5.04
   3   3  -5   41.10    3.30
   3   3  -5   33.41    5.48
  -3   3   5   27.50    2.98
   3  -3  -5   28.75    4.57
   3   3  -5   29.81    3.43
  -3   3   5   30.53    2.71
  -3  -3   5   31.85    3.45
  -3  -3   5   29.99    3.65
  -3   3   5   33.43    3.01
  -3   3   5   37.67    3.67
   3  -3  -5   34.92    2.84
  -3  -3   5   36.59    3.28
   3   3  -4   64.51    7.45
   3   3  -4  106.19    5.58
   3   3  -4   72.28    7.73
  -3   3   4   83.65    5.26
   3  -3  -4   76.01    7.01
   3   3  -4   91.08    5.56
  -3   3   4   80.64    5.13
  -3  -3   4   85.98    5.59
  -3  -3   4   85.24    5.69
  -3   3   4   89.26    5.28
   3  -3  -4   82.30    5.14
  -3  -3   4   70.05    6.98
  -3  -3   4   80.62    5.46
   3   3  -3    0.91    3.69
  -3  -3   3   -1.07    3.07
  -3  -3   3   -0.57    2.18
  -3  -3   3   -0.15    2.70
   3   3  -3   -2.58    3.75
   3   3  -3    1.48    2.18
   3   3  -3    2.03    3.40
   3  -3  -3   -4.86    3.58
   3   3  -3    1.10    2.13
  -3   3   3    2.21    1.84
  -3  -3   3    1.60    2.37
   3  -3  -3    2.64    1.94
  -3   3   3    0.57    2.01
   3   3  -2    3.55    4.16
  -3  -3   2    6.79    3.39
  -3  -3   2   14.67    2.48
   3   3  -2   10.86    4.14
   3   3  -2   11.99    3.70
   3  -3  -2    6.72    3.79
  -3  -3   2    7.27    2.76
   3   3  -2    8.29    2.21
  -3   3   2    9.53    2.11
  -3  -3   2    7.80    2.50
   3  -3  -2    8.19    2.18
  -3   3   2    7.97    2.35
  -3  -3   1   92.09    5.73
   3   3  -1   91.81    7.50
   3   3  -1   83.15    7.71
   3  -3  -1   86.71    7.57
  -3   3   1   94.53    5.52
  -3  -3   1  100.23    5.90
   3   3  -1   63.49    7.55
  -3  -3   1   94.18    6.08
  -3   3   1   90.14    5.62
   3  -3  -1   85.16    5.53
  -3  -3   1   90.05    7.27
  -3  -3   0   44.73    3.66
   3   3   0   23.57    5.06
  -3  -3   0   38.25    4.77
   3  -3   0   32.83    4.86
   3   3   0   43.85    5.50
   3   3   0   37.57    5.13
   3  -3   0   42.79    5.47
  -3   3   0   47.54    3.47
  -3  -3   0   45.24    3.77
  -3  -3   0   44.92    3.97
  -3   3   0   36.65    3.51
  -3  -3  -1  335.93   16.57
   3  -3   1  266.74   18.02
  -3   3  -1  348.73   18.30
   3   3   1  325.63   18.37
   3   3   1  286.24   18.10
   3  -3   1  299.05   18.26
  -3   3  -1  350.61   16.41
  -3  -3  -1  321.62   16.62
  -3  -3  -1  343.38   16.64
  -3   3  -1  327.82   16.35
   3   3   2    4.50    3.48
  -3  -3  -2    3.51    2.32
   3  -3   2    5.48    3.72
  -3   3  -2    6.71    3.51
   3   3   2    3.57    3.49
   3  -3   2    1.81    3.53
  -3   3  -2    2.70    2.03
  -3  -3  -2    4.46    2.43
  -3  -3  -2    4.19    2.66
  -3   3  -2    1.90    2.10
   3   3   3   91.41    8.84
   3  -3   3  101.05    9.18
  -3   3  -3  122.29    8.88
   3   3   3  109.97    8.90
   3  -3   3  113.00    8.94
  -3   3  -3  139.53    7.18
  -3  -3  -3  136.10    7.45
  -3   3  -3  115.82    7.13
  -3  -3  -3  134.86    7.44
   3  -3   4   99.63    9.05
   3   3   4   96.50    8.53
  -3   3  -4  119.87    6.73
  -3  -3  -4  114.22    6.97
  -3  -3  -4  125.21    7.05
  -3   3  -4  112.69    6.73
  -3  -3  -5    5.44    2.61
  -3   3  -5    5.58    2.24
  -3  -3  -5    4.75    2.46
  -3  -3  -5   11.16    2.71
  -3   3  -5    5.15    2.25
  -3   3  -6   35.71    3.40
  -3  -3  -6   38.29    3.81
  -3  -3  -6   41.13    3.74
  -3  -3  -6   36.53    3.65
  -3  -3  -6   36.84    2.50
  -3  -3  -7   33.43    3.47
  -3  -3  -7   27.53    3.33
  -3  -3  -7   32.66    3.31
  -3   3  -7   26.05    2.79
   3   3   7   29.30    3.60
  -3  -3  -7   26.68    2.11
  -3   3  -7   28.61    3.16
  -3  -3  -8   64.83    4.24
  -3  -3  -8   75.85    5.30
  -3   3  -8   81.29    4.91
  -3  -3  -8   79.44    5.27
  -3  -3  -8   88.14    5.30
   3   3   8   83.95    5.31
  -3   3  -8   77.06    4.98
  -3  -3  -8   74.87    4.27
  -3   3  -8   86.05    5.26
  -3  -3  -9   24.64    3.04
  -3   3  -9   22.65    2.46
  -3  -3  -9   21.30    2.87
  -3  -3  -9   24.69    2.89
  -3   3  -9   22.53    2.58
   3   3   9   23.05    3.01
  -3  -3  -9   21.50    1.78
  -3   3  -9   28.10    2.76
  -3  -3 -10    0.16    0.60
  -3  -3 -10   15.91    2.49
  -3   3 -10   16.41    2.08
  -3  -3 -10   13.69    2.59
  -3  -3 -10   20.65    2.67
   3   3  10   16.88    2.60
  -3   3 -10   17.61    2.30
  -3  -3 -10    2.26    0.95
  -3   3 -10   18.38    2.39
  -3  -3 -11    2.64    2.09
  -3  -3 -11    6.33    2.21
  -3   3 -11    2.45    1.63
  -3  -3 -11    5.86    2.25
  -3  -3 -11    1.85    2.15
   3   3  11    3.94    2.37
  -3   3 -11    4.03    1.82
  -3  -3 -11   -0.70    0.69
  -3  -3 -12   99.52    3.67
  -3  -3 -12  108.46    3.65
  -3   3 -12   98.22    2.99
  -3  -3 -12  101.61    3.78
  -3  -3 -12  115.15    3.75
   3   3  12  115.65    3.61
  -3   3 -12   93.70    3.26
  -3  -3 -13   38.89    2.58
  -3   3 -13   37.77    1.83
  -3  -3 -13   46.21    2.58
   3   3  13   47.86    2.55
  -3   3 -13   40.19    2.24
  -3  -3 -14    6.98    1.73
  -3   3 -14    0.13    0.54
  -3  -3 -14    5.56    1.69
   3   3  14    5.52    1.63
  -3   3 -14    5.36    1.37
  -3  -3 -15    1.17    1.37
  -3  -3 -16   25.83    1.99
  -3   3 -16   29.30    1.92
  -3  -4  10   26.84    1.88
  -3   4   9  170.27    8.52
  -3  -4   9  173.16    8.68
  -3  -4   8  353.51   18.00
  -3   4   8  378.44   17.93
  -3  -4   8  396.98   18.11
  -3  -4   8  346.66   18.00
  -3  -4   7    4.75    1.36
  -3   4   7    4.81    1.20
  -3  -4   7    4.26    1.44
   3   4  -7    4.29    1.03
  -3  -4   7    4.33    1.40
   3  -4  -7    6.00    1.07
  -3  -4   6    8.98    1.52
  -3   4   6   12.18    1.47
  -3  -4   6   12.81    1.69
  -3  -4   6   10.13    1.68
   3  -4  -6    9.58    1.30
  -3  -4   5   12.36    1.69
  -3   4   5   13.76    1.55
  -3  -4   5   12.11    1.76
  -3  -4   5   11.81    1.78
   3  -4  -5   10.83    1.43
  -3  -4   4   42.89    2.26
  -3   4   4   42.41    2.05
  -3  -4   4   49.20    2.37
  -3  -4   4   43.74    2.32
   3  -4  -4   46.63    1.95
  -3   4   3   25.55    1.80
  -3  -4   3   23.11    2.01
  -3  -4   3   18.31    1.99
   3  -4  -3   23.46    1.69
  -3   4   2    4.00    1.36
  -3  -4   2    3.76    1.55
  -3  -4   2   -1.32    1.79
   3   4  -2    2.17    1.62
   3  -4  -2    2.32    1.34
  -3   4   1    1.60    1.40
  -3  -4   1    5.91    1.65
  -3   4   1    1.84    1.26
  -3  -4   1    1.24    1.66
   3   4  -1    3.73    1.74
   3  -4  -1    2.92    1.52
  -3   4   0  125.24    6.73
  -3  -4   0  147.92    7.01
  -3   4   0  121.00    6.66
  -3  -4   0  136.48    6.93
   3  -4   0  136.79    6.72
  -3   4  -1    8.97    1.66
  -3  -4  -1   15.66    1.97
  -3   4  -1   13.53    1.64
  -3  -4  -1    8.87    1.91
   3   4   1   10.11    2.02
   3  -4   1   10.27    1.83
  -3  -4  -2  423.72   18.39
  -3   4  -2  358.79   18.10
  -3  -4  -2  398.44   18.24
   3   4   2  322.03   18.09
   3  -4   2  359.12   18.06
  -3  -4  -3  109.91    5.99
  -3   4  -3  113.61    5.84
  -3  -4  -3  113.96    5.95
   3   4   3   95.80    5.84
   3  -4   3  104.36    5.73
  -3  -4  -4    1.88    1.52
  -3   4  -4    7.32    1.45
  -3  -4  -4    5.19    1.57
   3   4   4    3.76    1.78
   3  -4   4    3.44    1.42
  -3   4  -5    0.96    1.18
  -3  -4  -5    1.66    1.44
  -3   4  -5    1.60    1.30
  -3  -4  -5    0.31    1.35
   3   4   5    4.19    1.62
   3  -4   5    0.28    1.25
  -3   4  -6   26.55    1.95
  -3  -4  -6   25.74    2.24
  -3   4  -6   27.67    2.13
  -3  -4  -6   29.23    2.17
   3   4   6   29.24    2.28
   3  -4   6   25.10    2.00
  -3   4  -7    2.71    1.00
  -3  -4  -7    0.95    1.28
  -3   4  -7    3.29    1.22
  -3  -4  -7    2.32    1.22
   3  -4   7    0.60    1.10
  -3   4  -8    2.77    0.90
  -3  -4  -8    4.57    1.19
   3  -4   8    2.37    1.00
  -3  -4  -9   22.05    1.71
   4   0 -22    4.20    1.45
  -4   0  21    0.21    1.32
  -4   0  21   -1.32    1.47
   4   0 -21    1.33    1.72
  -4   0  20   43.79    3.01
  -4   0  20   40.22    3.21
   4   0 -20   42.27    3.31
  -4   0  19    0.10    1.54
  -4   0  19   -0.48    1.86
   4   0 -19    3.08    2.15
  -4   0  18    9.22    1.91
  -4   0  18    9.74    2.38
  -4   0  17    1.53    1.88
  -4   0  17    1.34    1.76
  -4   0  17    1.03    2.22
  -4   0  16  326.51   18.06
  -4   0  16  366.60   18.21
  -4   0  16  388.85   18.67
  -4   0  16  387.37   19.22
   4   0 -15   -0.39    3.71
   4   0 -15    1.03    3.35
  -4   0  15    1.91    1.83
  -4   0  15   -0.33    1.66
  -4   0  15    2.02    3.35
  -4   0  15    2.84    3.29
  -4   0  15    0.48    2.42
   4   0 -14  136.53   10.42
   4   0 -14  165.53   10.69
  -4   0  14  178.79   10.99
  -4   0  14  139.25    8.17
  -4   0  14  145.50    8.22
  -4   0  14  160.64    8.82
  -4   0  14  168.95    9.50
   4   0 -13    3.96    3.79
   4   0 -13   -2.44    3.39
  -4   0  13    1.60    1.80
  -4   0  13    1.04    1.57
  -4   0  13    1.97    3.32
  -4   0  13    1.93    3.12
  -4   0  13   -0.16    2.26
   4   0 -12   10.65    4.05
  -4   0  12    9.84    1.79
  -4   0  12    7.82    1.72
  -4   0  12   10.21    4.41
  -4   0  12    9.51    3.79
  -4   0  12   13.50    3.10
  -4   0  12   11.61    2.44
   4   0 -11   -2.24    3.69
  -4   0  11    0.71    1.55
  -4   0  11    1.26    1.39
  -4   0  11    2.66    4.07
  -4   0  11   -1.81    3.37
  -4   0  11    3.03    2.26
  -4   0  11    3.18    2.87
   4   0 -10  306.96   16.76
  -4   0  10  307.57   17.13
  -4   0  10  281.33   14.76
  -4   0  10  271.84   14.71
  -4   0  10  312.84   15.36
  -4   0  10  339.58   15.99
  -4   0  10  305.20   14.98
   4   0  -9    2.02    2.77
   4   0  -9   -0.81    2.87
  -4   0   9    1.57    1.28
  -4   0   9   -0.33    2.94
  -4   0   9    0.91    1.87
  -4   0   9   -0.27    1.64
   4   0  -8  105.75    7.96
   4   0  -8  115.55    7.83
  -4   0   8  125.60    8.44
  -4   0   8  115.98    6.16
  -4   0   8  113.92    6.74
  -4   0   8  117.40    6.44
   4   0  -7   -1.64    2.82
   4   0  -7    2.32    2.50
  -4   0   7    0.99    1.08
  -4   0   7    1.62    2.27
  -4   0   7   -0.58    2.73
  -4   0   7   -0.12    1.79
  -4   0   7   -0.08    1.54
   4   0  -6   90.84    6.91
  -4   0   6   98.65    6.04
   4   0  -6  106.65    6.76
  -4   0   6   96.90    7.24
  -4   0   6  100.49    5.24
  -4   0   6   99.61    5.77
  -4   0   6   93.28    5.47
   4   0  -5   -1.02    2.06
   4   0  -5   -0.40    2.16
  -4   0   5    1.24    2.17
  -4   0   5   -1.36    2.73
  -4   0   5    0.84    1.61
  -4   0   5    1.31    1.36
   4   0  -4  183.29   10.92
  -4   0   4  184.56    9.85
  -4   0   4  190.69   11.20
   4   0  -4  188.45   10.53
  -4   0   4  178.67    9.69
   4   0  -3   -0.49    2.23
  -4   0   3   -1.77    1.87
  -4   0   3   -1.01    2.65
  -4   0   3    0.49    1.50
  -4   0   2  262.98   13.57
  -4   0   2  270.79   14.89
  -4   0   2  270.52   15.14
  -4   0   2  261.75   13.49
  -4   0   1    1.81    1.93
  -4   0   1    0.99    2.77
  -4   0   1   -1.07    3.42
  -4   0   0  895.51   44.10
  -4   0   0  905.61   45.43
  -4   0   0  880.21   44.05
  -4   0   0  914.87   45.63
  -4   0   0  949.76   44.26
  -4   0  -1    0.51    1.85
  -4   0  -1    0.25    2.88
  -4   0  -1   -0.78    1.52
  -4   0  -1    2.44    3.40
  -4   0  -1    0.58    1.83
   4   0   2  900.36   41.89
  -4   0  -2  800.18   41.22
  -4   0  -2  870.03   42.90
  -4   0  -2  870.90   41.41
  -4   0  -2  828.86   41.28
  -4   0  -2  868.10   42.72
  -4   0  -3    0.64    1.97
   4   0   3    0.16    1.98
  -4   0  -3    0.80    2.76
  -4   0  -3    3.61    1.99
  -4   0  -3   -1.12    1.60
  -4   0  -3   -0.29    3.41
  -4   0  -3    0.08    1.41
   4   0   4   34.01    3.28
   4   0   4   38.55    4.52
  -4   0  -4   27.12    2.77
  -4   0  -4   32.21    2.54
  -4   0  -4   34.05    3.10
  -4   0  -4   30.99    2.55
  -4   0  -4   30.06    4.64
  -4   0  -4   39.22    3.12
   4   0   5    2.25    2.16
  -4   0  -5    1.76    2.07
   4   0   5   -0.83    3.57
  -4   0  -5   -0.67    1.52
  -4   0  -5   -0.81    1.35
  -4   0  -5   -2.56    2.10
  -4   0  -5    4.51    3.78
  -4   0  -5    0.44    1.51
   4   0   6  893.08   40.44
   4   0   6  936.09   41.37
  -4   0  -6  828.17   39.32
  -4   0  -6  854.06   41.66
  -4   0  -6  800.06   39.23
  -4   0  -6  753.76   39.61
  -4   0  -6  758.61   39.29
  -4   0  -6  799.05   39.60
   4   0   7    0.23    2.09
  -4   0  -7    0.92    2.22
   4   0   7    5.14    3.69
  -4   0  -7    1.47    1.82
  -4   0  -7   -0.65    1.55
  -4   0  -7    6.38    2.39
  -4   0  -7    0.36    4.02
  -4   0  -7    0.71    1.86
   4   0   8  419.60   21.39
   4   0   8  416.43   22.01
  -4   0  -8  380.71   20.07
  -4   0  -8  385.07   22.37
  -4   0  -8  373.88   19.98
  -4   0  -8  380.52   20.10
  -4   0  -8  381.11   20.38
   4   0   9    0.28    2.64
  -4   0  -9    2.05    2.53
   4   0   9    0.98    3.95
  -4   0  -9    1.12    1.93
  -4   0  -9    0.22    1.86
  -4   0  -9   -2.04    4.06
  -4   0  -9    1.98    1.88
   4   0  10 2279.01  106.90
   4   0  10 2228.85  107.21
  -4   0 -10 2211.59  105.26
  -4   0 -10 2171.76  107.88
  -4   0 -10 2066.63  105.15
  -4   0 -10 2188.68  105.30
  -4   0 -10 2266.94  105.61
   4   0  11   -0.98    2.86
  -4   0 -11   -0.16    2.63
   4   0  11    4.16    4.10
  -4   0 -11   -4.03    4.71
  -4   0 -11   -1.54    2.05
   4   0  12  720.35   36.50
  -4   0 -12  686.57   37.42
  -4   0 -12  694.45   34.73
  -4   0 -12  715.10   35.07
   4   0  13    0.36    3.36
  -4   0 -13    1.48    2.81
  -4   0 -13   -4.19    4.43
  -4   0 -13    2.39    2.22
  -4   0 -14   94.20    5.69
  -4   0 -14   85.93    5.63
  -4   0 -14   84.28    6.02
  -4   0 -15    0.15    2.72
  -4   0 -15    1.00    2.03
  -4   0 -15    1.98    1.99
  -4   0 -16   82.92    5.18
  -4   0 -16   72.37    5.01
  -4   0 -16   86.46    5.56
  -4   0 -17    1.79    2.32
  -4   0 -17    0.32    1.93
  -4   0 -17    0.68    1.70
  -4   0 -18   92.95    3.62
   4   0  18   95.38    3.87
  -4   0 -18  104.65    4.09
  -4   0 -19    0.63    1.81
  -4   0 -19    2.37    1.56
   4   0  19    1.34    1.71
  -4   0 -19   -0.06    0.67
  -4   0 -20   87.00    4.58
  -4   0 -20   92.87    4.76
  -4   1  21   18.21    1.68
  -4  -1  21   20.85    1.71
  -4   1  21   21.96    1.78
  -4  -1  21   21.66    1.83
  -4  -1  21   18.29    1.95
  -4   1  21   15.12    1.87
   4  -1 -21   21.40    2.13
   4   1 -21   24.89    2.06
  -4   1  20   40.52    2.73
  -4  -1  20   44.58    2.82
  -4  -1  20   41.28    2.84
  -4   1  20   36.65    2.78
  -4  -1  20   35.59    3.09
  -4   1  20   39.00    3.08
   4   1 -20   45.90    3.07
  -4   1  19   40.61    3.00
  -4   1  19   42.95    2.98
  -4  -1  19   42.85    3.18
  -4  -1  19   39.90    3.05
  -4   1  19   45.63    3.20
  -4  -1  19   40.26    3.51
  -4   1  19   43.43    3.48
   4   1 -19   49.47    3.41
  -4   1  18    5.86    1.74
  -4   1  18    3.29    1.49
  -4  -1  18    4.80    1.72
  -4  -1  18    3.16    1.66
  -4   1  18    2.58    1.79
  -4  -1  18    4.59    2.28
  -4   1  18    5.17    2.24
  -4   1  18   -0.57    2.43
   4   1 -18    4.03    2.05
  -4   1  17   -0.48    1.58
  -4  -1  17    1.76    1.75
  -4  -1  17    1.22    1.90
  -4   1  17    0.63    1.89
  -4  -1  17    1.18    2.35
  -4   1  17    2.63    2.44
   4   1 -17    1.59    2.07
  -4   1  16    0.29    1.55
  -4  -1  16    2.86    2.06
  -4  -1  16    0.40    2.00
  -4   1  16   -0.14    1.93
  -4  -1  16    0.36    2.52
  -4   1  16    0.18    2.51
  -4   1  16    0.21    1.65
   4   1 -16    3.45    2.30
  -4   1  15   -0.70    1.64
  -4  -1  15   -2.76    1.95
  -4  -1  15    2.21    1.99
  -4   1  15    3.12    2.06
  -4  -1  15    1.72    2.68
  -4   1  15    2.24    2.68
  -4   1  15    0.58    1.84
   4   1 -15   -1.18    2.36
   4  -1 -14  171.36   11.05
   4   1 -14  142.37   10.49
   4   1 -14  170.80   11.17
  -4   1  14  145.14   10.48
  -4  -1  14  164.41   10.70
   4  -1 -14  140.23    9.66
  -4   1  14  172.65    8.69
  -4   1  14  162.08    8.49
  -4  -1  14  155.84    8.72
  -4  -1  14  165.25    8.94
  -4   1  14  158.18    8.90
  -4  -1  14  168.98    9.45
  -4   1  14  151.07    9.36
  -4   1  14  149.88    8.66
  -4   1  14  155.83    9.07
   4   1 -14  163.43    8.92
   4   1 -14  119.42   10.72
   4   1 -13   67.14    7.72
   4  -1 -13   85.29    7.52
   4   1 -13   78.95    7.23
   4   1 -13   86.92    7.50
  -4   1  13   87.78    7.24
  -4  -1  13   75.05    6.92
   4  -1 -13   72.73    6.22
  -4   1  13   88.35    5.18
  -4   1  13   87.67    5.02
  -4  -1  13   83.02    5.23
  -4  -1  13   81.24    5.43
  -4   1  13   85.91    5.49
  -4  -1  13   92.54    6.08
  -4   1  13   90.31    6.04
  -4   1  13   79.04    5.32
  -4   1  13   84.23    5.65
   4   1 -13   91.03    5.51
   4   1 -12   19.26    4.94
   4  -1 -12   19.04    4.59
   4   1 -12   20.29    4.34
   4   1 -12   17.34    4.47
  -4   1  12   26.00    2.53
   4  -1 -12   20.02    3.48
  -4  -1  12   21.94    2.41
  -4   1  12   22.62    2.18
  -4  -1  12   27.26    2.82
  -4  -1  12   22.25    2.52
  -4   1  12   15.18    3.85
  -4  -1  12   16.53    3.95
  -4   1  12   21.84    2.87
  -4  -1  12   23.96    3.44
  -4   1  12   25.28    3.35
  -4   1  12   22.91    3.04
  -4   1  12   18.04    2.58
  -4   1  12   23.51    3.00
   4   1 -12   23.76    2.85
   4   1 -11  247.59   16.62
   4   1 -11  260.06   15.71
  -4   1  11  277.22   16.07
  -4  -1  11  278.58   16.02
   4   1 -11  284.43   16.46
   4  -1 -11  254.10   15.04
  -4   1  11  282.71   13.92
  -4  -1  11  267.49   13.93
  -4   1  11  275.55   13.79
  -4  -1  11  267.20   13.99
  -4  -1  11  276.65   14.24
  -4   1  11  271.54   14.28
  -4  -1  11  273.37   14.73
  -4   1  11  287.50   14.75
  -4   1  11  256.05   14.10
  -4   1  11  273.98   14.29
  -4   1  11  291.67   14.41
   4   1 -11  276.17   14.09
   4   1 -10   88.04    8.66
   4   1 -10  109.21    7.74
  -4   1  10  108.52    7.99
  -4  -1  10  111.54    7.98
   4   1 -10   97.77    8.36
   4  -1 -10  106.53    7.29
  -4   1  10  108.77    6.09
  -4  -1  10  110.06    6.08
  -4   1  10  106.77    5.85
  -4  -1  10  100.70    6.06
  -4  -1  10  104.04    6.36
  -4   1  10  103.32    6.40
  -4  -1  10  120.94    6.95
  -4   1  10  120.91    6.99
  -4   1  10   99.04    6.28
  -4   1  10  109.75    6.48
  -4   1  10  114.98    6.55
   4   1  -9   32.66    5.45
  -4  -1   9   51.82    5.25
   4   1  -9   42.23    4.59
   4  -1  -9   44.01    4.26
  -4   1   9   45.86    3.04
  -4  -1   9   39.10    3.04
  -4   1   9   39.25    2.76
  -4  -1   9   35.39    2.93
  -4  -1   9   42.57    3.34
  -4   1   9   43.49    3.43
  -4   1   9   40.57    4.87
  -4  -1   9   43.81    3.94
  -4   1   9   49.70    3.92
  -4   1   9   41.90    3.35
  -4   1   9   42.35    3.54
  -4   1   9   40.87    3.62
   4   1  -8   12.99    4.35
   4  -1  -8    9.72    3.56
   4   1  -8   10.34    3.19
   4  -1  -8   13.92    2.86
  -4   1   8   11.32    1.72
  -4  -1   8   12.00    1.85
  -4   1   8   15.40    3.55
  -4  -1   8   13.94    3.25
  -4  -1   8   11.66    2.09
  -4   1   8   10.07    2.12
  -4  -1   8   16.26    2.79
  -4   1   8   13.50    2.66
  -4   1   8   10.87    2.11
  -4   1   8   11.82    2.47
  -4   1   8   15.11    2.45
   4   1  -7  110.74    9.32
   4  -1  -7  137.77    8.92
   4   1  -7  128.66    8.21
  -4   1   7  130.09    8.81
  -4  -1   7  128.89    8.65
   4   1  -7  129.47    9.18
   4  -1  -7  134.11    8.12
  -4   1   7  122.69    6.89
  -4  -1   7  133.02    6.93
  -4   1   7  133.95    7.23
  -4  -1   7  122.19    7.17
  -4   1   7  129.18    7.25
  -4  -1   7  139.33    7.61
  -4   1   7  133.24    7.59
  -4   1   7  120.42    7.17
  -4   1   7  137.40    7.34
  -4  -1   7  114.27    7.64
  -4  -1   6    5.45    2.08
   4   1  -6    7.37    3.84
   4   1  -6    5.23    2.57
   4   1  -6   13.28    3.76
   4  -1  -6    6.40    2.54
  -4   1   6    6.64    1.43
  -4  -1   6    6.21    1.47
  -4  -1   6    7.71    2.30
  -4   1   6    6.15    2.27
  -4   1   6    4.24    2.84
  -4  -1   6    5.85    2.90
  -4   1   6    6.17    1.87
  -4  -1   6    4.88    1.68
  -4   1   6    8.58    1.91
  -4  -1   6    8.76    2.26
  -4   1   6    9.91    2.31
  -4   1   6    7.26    1.94
  -4   1   6    5.41    1.98
   4   1  -5  120.55    8.66
  -4  -1   5  115.84    6.49
  -4   1   5  113.54    6.52
  -4   1   5  118.54    7.77
  -4  -1   5  114.48    7.71
   4   1  -5  109.03    6.93
   4   1  -5  117.71    8.15
   4  -1  -5  115.95    7.30
  -4   1   5  109.80    5.92
  -4  -1   5  112.87    5.99
  -4  -1   5  105.47    6.20
  -4   1   5  109.03    6.27
  -4  -1   5  108.29    6.48
  -4  -1   5  106.57    6.55
  -4   1   5  111.10    6.54
  -4   1   5  119.96    6.31
  -4   1   5   94.38    6.04
  -4   1   5  107.47    6.39
  -4  -1   5  108.06    6.72
   4   1  -4  311.62   17.63
  -4  -1   4  308.19   15.52
  -4   1   4  299.28   15.52
  -4   1   4  314.51   16.92
  -4  -1   4  315.23   16.81
   4   1  -4  293.03   15.84
   4   1  -4  333.55   17.31
   4  -1  -4  282.76   16.27
  -4   1   4  291.83   15.07
  -4  -1   4  298.68   15.36
  -4   1   4  314.34   15.44
  -4  -1   4  304.91   15.56
  -4  -1   4  320.22   15.67
  -4   1   4  329.84   15.70
  -4   1   4  283.80   15.15
  -4   1   4  302.66   15.47
  -4  -1   4  298.57   15.85
  -4   1   4  316.45   15.43
   4   1  -3  161.17    9.93
  -4  -1   3  137.96    7.63
  -4   1   3  128.12    7.59
  -4   1   3  133.73    8.91
  -4  -1   3  143.79    8.93
   4   1  -3  146.01    9.03
   4  -1  -3  139.29    8.61
  -4   1   3  136.66    7.16
  -4  -1   3  135.22    7.46
  -4   1   3  139.84    7.51
  -4   1   3  142.55    7.50
  -4  -1   3  132.43    7.63
  -4  -1   3  150.27    7.80
  -4   1   3  136.62    7.71
  -4  -1   3  130.37    7.43
  -4   1   3  140.29    7.61
  -4  -1   3  130.19    7.82
   4   1  -2   46.95    5.17
  -4  -1   2   35.26    3.09
  -4   1   2   34.58    3.10
  -4   1   2   38.97    4.26
   4  -1  -2   36.82    3.59
   4   1  -2   39.91    4.32
   4  -1  -2   41.04    4.12
  -4   1   2   39.83    2.48
  -4  -1   2   29.50    4.02
  -4  -1   2   34.67    2.89
  -4   1   2   37.32    2.97
  -4  -1   2   40.95    3.13
  -4  -1   2   39.26    3.21
  -4   1   2   36.95    3.15
  -4  -1   2   36.61    2.84
  -4   1   2   35.74    3.05
  -4  -1   2   38.17    3.25
  -4  -1   1  197.25   10.73
  -4   1   1  210.49   10.78
  -4   1   1  210.35   12.06
  -4  -1   1  212.88   12.12
   4  -1  -1  219.99   11.66
   4   1  -1  207.64   12.07
  -4   1   1  205.35   10.27
  -4  -1   1  207.98   12.31
  -4   1   1  209.18   12.31
  -4  -1   1  204.48   10.67
  -4   1   1  192.95   10.62
  -4  -1   1  206.29   10.84
  -4  -1   1  207.04   10.90
  -4   1   1  207.52   10.85
  -4  -1   1  204.49   10.60
  -4   1   1  198.62   10.78
  -4  -1   1  210.35   11.11
  -4   1   0  489.23   25.19
  -4  -1   0  494.47   25.24
  -4  -1   0  464.34   23.85
  -4   1   0  470.29   23.88
   4  -1   0  493.24   24.92
   4   1   0  520.60   25.23
  -4  -1   0  457.79   23.79
  -4   1   0  472.93   23.81
  -4  -1   0  461.92   25.28
  -4   1   0  490.11   25.36
  -4   1   0  532.09   23.82
  -4  -1   0  491.04   23.97
  -4  -1   0  495.18   24.03
  -4   1   0  476.42   23.96
  -4  -1   0  462.24   23.71
  -4   1   0  472.41   23.93
  -4  -1   0  491.96   24.27
  -4  -1  -1  306.33   15.65
  -4   1  -1  305.62   15.66
   4  -1   1  307.86   16.80
   4   1   1  327.56   16.79
  -4  -1  -1  301.55   15.57
  -4   1  -1  297.19   15.55
  -4  -1  -1  303.27   15.50
  -4  -1  -1  309.31   17.10
  -4   1  -1  307.62   17.20
  -4   1  -1  344.33   15.56
  -4  -1  -1  322.55   15.74
  -4  -1  -1  309.63   15.76
  -4   1  -1  309.92   15.72
  -4  -1  -1  298.83   15.47
  -4   1  -1  289.64   15.63
  -4  -1  -1  314.78   16.09
  -4   1  -1  301.49   16.90
  -4  -1  -1  296.84   16.91
  -4  -1  -2    2.41    2.00
  -4  -1  -2    6.67    1.97
   4  -1   2    5.54    2.73
   4   1   2    1.31    2.28
  -4  -1  -2    2.49    1.90
  -4   1  -2    5.87    1.99
  -4  -1  -2    6.04    2.82
  -4  -1  -2    5.01    1.69
  -4   1  -2    5.06    1.59
  -4  -1  -2    4.80    1.65
  -4   1  -2    3.59    1.59
  -4  -1  -2    6.56    1.92
  -4  -1  -2    6.67    3.28
  -4   1  -2    3.08    3.22
  -4   1  -2    2.81    1.79
  -4  -1  -2    7.00    1.83
  -4   1  -2    5.21    1.99
   4  -1   3   75.54    5.94
   4   1   3   81.65    6.42
   4   1   3   72.97    5.23
  -4  -1  -3   63.22    4.37
  -4   1  -3   63.30    4.32
  -4  -1  -3   72.19    4.39
  -4   1  -3   71.34    4.12
  -4  -1  -3   62.79    5.92
  -4   1  -3   72.16    6.25
  -4   1  -3   77.49    4.35
  -4  -1  -3   68.45    4.56
  -4  -1  -3   64.84    4.62
  -4   1  -3   66.23    4.56
  -4  -1  -3   74.24    4.32
  -4   1  -3   66.57    4.55
  -4  -1  -3   83.06    5.18
  -4  -1  -3   66.68    4.53
  -4   1  -3   75.42    4.62
  -4  -1  -4   20.60    2.87
   4  -1   4   20.16    3.77
  -4  -1  -4   18.85    2.51
  -4   1  -4   18.58    2.63
   4   1   4   18.72    3.97
  -4   1  -4   19.21    2.02
  -4  -1  -4   20.84    2.39
  -4   1  -4   23.32    2.16
  -4  -1  -4   18.75    2.47
  -4  -1  -4   15.32    3.97
  -4   1  -4   21.24    4.24
  -4  -1  -4   19.05    2.61
  -4   1  -4   16.79    2.42
  -4  -1  -4   19.22    2.17
  -4   1  -4   21.79    2.62
  -4  -1  -5    3.48    2.31
   4   1   5    3.75    2.36
   4  -1   5    3.19    3.03
  -4  -1  -5    6.03    2.07
  -4   1  -5    8.76    2.26
   4   1   5    9.70    4.32
   4   1   5    9.67    3.64
  -4  -1  -5    5.45    1.90
  -4   1  -5    6.02    1.64
  -4   1  -5    4.73    1.63
  -4  -1  -5    6.51    2.04
  -4  -1  -5   10.13    3.87
  -4  -1  -5    1.55    2.04
  -4   1  -5    4.80    3.56
  -4   1  -5    5.62    1.90
  -4  -1  -5    6.86    1.74
  -4   1  -5   10.56    2.24
   4   1   6   28.52    3.80
  -4  -1  -6   33.05    3.69
   4  -1   6   28.35    4.53
   4   1   6   41.94    5.74
   4   1   6   35.31    4.70
  -4  -1  -6   30.45    3.03
  -4   1  -6   34.72    2.76
  -4   1  -6   36.16    2.66
  -4  -1  -6   33.80    3.12
  -4  -1  -6   37.32    3.41
  -4   1  -6   41.41    3.34
  -4  -1  -6   33.72    2.84
  -4   1  -6   35.14    4.97
  -4  -1  -6   32.57    4.97
  -4   1  -6   34.36    3.33
  -4  -1  -6   31.23    3.25
  -4   1  -6   32.38    3.20
   4   1   7   76.75    6.47
   4  -1   7   90.28    7.32
   4   1   7   97.38    7.35
   4   1   7  101.21    8.64
  -4  -1  -7   83.46    5.60
  -4   1  -7   94.27    5.46
  -4  -1  -7   85.47    7.41
  -4   1  -7   83.10    7.62
  -4   1  -7   78.40    5.20
  -4  -1  -7   90.25    5.72
  -4  -1  -7   87.01    5.44
  -4   1  -7   86.67    5.77
  -4  -1  -7   81.92    5.72
  -4   1  -7   90.82    5.77
   4   1   8  218.21   13.76
   4  -1   8  251.30   14.61
   4   1   8  274.97   14.55
   4   1   8  275.02   15.84
  -4  -1  -8  229.78   12.67
  -4   1  -8  269.32   12.57
  -4  -1  -8  249.98   14.85
  -4   1  -8  259.54   14.87
  -4   1  -8  216.80   12.16
  -4  -1  -8  243.49   12.80
  -4  -1  -8  240.13   12.49
  -4   1  -8  240.82   12.81
  -4  -1  -8  242.28   12.80
  -4   1  -8  236.46   12.75
   4   1   9  160.23   10.97
   4  -1   9  182.59   11.70
   4   1   9  198.06   11.46
   4   1   9  217.26   12.92
  -4   1  -9  192.38    9.54
  -4  -1  -9  167.27   11.64
  -4   1  -9  173.35   11.89
  -4   1  -9  147.50    9.04
  -4  -1  -9  182.22    9.83
  -4  -1  -9  193.71    9.54
  -4   1  -9  177.19    9.89
  -4  -1  -9  181.85    9.86
  -4   1  -9  178.31    9.82
   4   1  10  127.42    9.50
   4  -1  10  146.78   10.20
   4   1  10  167.95   10.00
   4   1  10  171.03   11.48
  -4   1 -10  149.90    8.00
  -4  -1 -10  133.99   10.14
  -4   1 -10  123.36   10.17
  -4  -1 -10  141.10    8.21
  -4  -1 -10  138.13    7.92
  -4   1 -10  136.78    8.23
  -4  -1 -10  129.11    8.18
  -4   1 -10  144.33    8.23
   4   1  11  469.94   27.27
   4   1  11  543.20   27.33
   4   1  11  559.20   28.75
  -4   1 -11  535.61   25.59
  -4  -1 -11  499.25   27.87
  -4   1 -11  497.37   27.89
  -4  -1 -11  514.97   25.82
  -4  -1 -11  523.20   25.47
  -4   1 -11  499.57   25.81
  -4  -1 -11  503.70   25.73
  -4   1 -11  490.12   25.74
   4   1  12  144.66   10.55
   4  -1  12  177.55   10.99
   4  -1  12  167.14   11.37
   4   1  12  172.03   12.05
  -4  -1 -12  165.12    9.10
  -4   1 -12  173.53    9.00
  -4  -1 -12  144.70   11.19
  -4   1 -12  149.60   11.25
  -4  -1 -12  158.56    9.13
  -4  -1 -12  148.44    8.82
  -4   1 -12  169.01    9.23
  -4  -1 -12  159.16    9.14
  -4   1 -12  153.34    9.15
  -4  -1 -13   16.45    2.81
  -4   1 -13   18.78    3.09
  -4  -1 -13   14.19    2.94
  -4  -1 -13   17.73    3.09
  -4  -1 -13   17.57    2.46
   4   1  13   14.33    2.29
  -4   1 -13   17.38    2.95
  -4  -1 -14  100.44    6.04
   4   1  14   84.46    5.64
  -4   1 -14  101.64    6.20
  -4  -1 -14   99.89    6.13
  -4   1 -14   95.31    6.07
  -4  -1 -15   29.80    3.14
  -4   1 -15   32.18    3.29
   4   1  15   26.83    2.79
  -4  -1 -15   33.07    3.24
  -4   1 -15   32.73    3.20
   4  -1  16   15.63    2.40
  -4   1 -16   23.29    2.84
  -4  -1 -16   24.68    2.85
  -4   1 -16   20.91    2.56
   4   1  16   18.83    2.33
  -4   1 -16   25.40    2.90
  -4  -1 -16   27.24    2.84
   4  -1  17   10.40    1.94
  -4  -1 -17   11.49    2.17
  -4   1 -17    9.45    2.23
  -4  -1 -17   10.74    2.19
  -4   1 -17   13.80    2.03
   4   1  17    9.13    1.78
  -4   1 -17    9.70    2.16
   4  -1  18   -0.72    1.50
  -4  -1 -18    1.22    1.55
  -4   1 -18    0.41    1.75
  -4  -1 -18    2.02    1.63
  -4   1 -18    2.52    1.57
   4   1  18    0.61    1.36
  -4   1 -18    2.03    1.75
  -4  -1 -19  104.75    5.72
  -4   1 -19  115.29    5.77
  -4   1 -19  107.75    5.79
  -4  -1 -19  100.21    5.70
  -4   1 -19  104.65    5.71
  -4   1 -20    3.36    1.06
   4  -1  20    3.37    1.32
  -4   2  19    2.29    1.04
  -4  -2  19    0.50    1.36
   4   2 -19    2.31    1.18
  -4   2  18   10.70    1.43
   4   2 -18    7.75    1.58
  -4  -2  18    5.88    1.81
  -4   2  18    8.06    1.49
  -4   2  18    6.68    1.89
   4   2 -18    7.93    1.58
  -4   2  17   -1.08    1.33
  -4   2  17    1.97    1.20
   4   2 -17   -0.09    1.72
  -4  -2  17    1.73    1.90
  -4   2  17   -1.19    1.53
  -4   2  17    1.50    1.92
   4   2 -17    1.85    1.64
  -4   2  16    4.70    1.58
  -4   2  16    4.12    1.42
  -4  -2  16    1.02    1.65
  -4  -2  16    2.24    2.13
  -4   2  16    3.62    1.85
  -4   2  16    2.59    2.23
   4   2 -16    4.03    1.83
  -4   2  15    5.85    1.79
  -4   2  15    8.24    1.54
  -4  -2  15    5.20    1.94
  -4  -2  15    6.23    2.47
  -4   2  15    7.62    2.16
  -4   2  15   13.34    2.50
   4   2 -15    7.48    2.03
  -4   2  14  161.67    8.26
  -4  -2  14  148.79    8.30
  -4   2  14  146.01    7.96
  -4  -2  14  146.17    8.36
  -4  -2  14  148.87    8.66
  -4   2  14  151.75    8.53
  -4   2  14  155.67    8.46
   4   2 -14  152.96    8.29
  -4  -2  13  239.73   12.57
  -4   2  13  235.25   12.25
  -4  -2  13  231.98   12.64
  -4  -2  13  230.45   12.95
  -4   2  13  248.62   12.91
  -4   2  13  268.22   12.78
   4   2 -13  240.03   12.54
  -4  -2  12    1.92    1.97
  -4   2  12    1.16    1.41
  -4  -2  12    2.44    1.92
  -4  -2  12    1.63    2.64
  -4   2  12    4.18    2.44
  -4   2  12    2.14    2.37
  -4   2  12   -1.89    2.46
   4   2 -12    1.31    1.87
   4   2 -11  254.82   17.93
   4  -2 -11  331.44   17.51
   4   2 -11  282.21   17.81
   4  -2 -11  292.93   16.84
  -4  -2  11  306.95   15.35
  -4   2  11  291.01   14.92
  -4  -2  11  280.44   15.28
  -4  -2  11  308.54   15.76
  -4   2  11  289.71   15.59
  -4   2  11  314.73   15.40
  -4   2  11  331.38   15.63
   4   2 -11  282.57   15.13
   4   2 -10   83.56    8.47
   4  -2 -10   97.67    7.74
   4   2 -10  105.26    8.64
   4  -2 -10   95.67    7.36
  -4  -2  10  109.14    5.88
  -4   2  10   94.10    5.35
  -4  -2  10   90.03    5.75
  -4  -2  10   98.54    6.32
  -4   2  10   89.70    6.09
  -4   2  10  100.20    5.88
  -4   2  10   97.17    6.25
  -4  -2  10   74.71    7.15
  -4  -2   9   45.36    5.15
   4   2  -9   31.95    6.27
   4  -2  -9   48.50    5.77
  -4   2   9   51.67    3.70
   4  -2  -9   49.87    5.30
  -4  -2   9   49.49    3.71
  -4   2   9   45.27    3.14
  -4  -2   9   53.61    4.37
  -4   2   9   53.45    4.27
  -4   2   9   48.36    3.73
  -4   2   9   52.86    4.28
  -4  -2   8   15.84    3.61
   4   2  -8   23.05    5.40
   4  -2  -8   18.44    4.10
   4   2  -8   23.85    4.90
  -4   2   8   20.13    2.40
   4  -2  -8   18.01    3.72
  -4  -2   8   17.00    2.49
  -4  -2   8   18.13    3.00
  -4   2   8   20.86    3.05
  -4   2   8   16.90    2.54
  -4   2   8   21.17    3.07
  -4  -2   7    3.53    3.16
   4   2  -7    6.02    4.60
   4  -2  -7   13.90    3.91
   4   2  -7    2.65    4.11
   4  -2  -7    5.73    3.35
  -4   2   7    4.15    1.81
  -4  -2   7    7.03    2.06
  -4  -2   7    2.25    2.41
  -4   2   7    6.78    2.59
  -4   2   7    6.20    1.94
  -4   2   7    4.92    2.45
  -4  -2   6    8.83    3.36
   4   2  -6   16.73    5.00
   4   2  -6    9.07    4.39
   4  -2  -6   15.33    3.89
  -4   2   6   15.08    2.10
  -4  -2   6   17.78    2.42
  -4  -2   6   15.94    2.85
  -4   2   6   14.57    2.85
  -4   2   6   19.02    2.88
  -4  -2   5    1.21    2.60
   4   2  -5   -0.48    4.39
   4   2  -5   -0.42    3.90
   4  -2  -5    0.32    3.04
  -4   2   5    1.41    1.70
  -4  -2   5    2.34    1.80
  -4   2   5    2.20    1.84
  -4  -2   5    3.25    2.46
  -4  -2   5    0.14    2.30
  -4   2   5   -0.15    2.30
  -4   2   5    1.59    2.52
   4   2  -4  181.60   12.40
  -4   2   4  193.26    9.96
   4  -2  -4  198.46   11.95
  -4  -2   4  189.39   10.14
  -4   2   4  187.09   10.11
  -4  -2   4  197.35   10.62
  -4  -2   4  188.75   10.35
  -4   2   4  193.42   10.58
  -4   2   4  186.23   10.38
  -4  -2   4  176.60   11.39
  -4  -2   3   33.93    2.75
  -4  -2   3   29.21    4.12
   4   2  -3   27.53    5.04
  -4   2   3   30.91    2.63
   4  -2  -3   27.75    4.45
  -4  -2   3   36.58    2.99
  -4   2   3   36.87    3.05
  -4  -2   3   32.62    3.52
  -4  -2   3   34.94    3.39
  -4   2   3   29.74    3.38
  -4  -2   2  781.74   38.04
   4   2  -2  809.50   40.57
  -4   2   2  755.29   37.92
   4  -2  -2  787.87   40.08
  -4  -2   2  774.54   38.19
  -4  -2   2  763.07   38.21
  -4   2   2  834.07   38.22
  -4  -2   2  800.03   38.52
  -4  -2   2  761.44   38.32
  -4   2   2  780.56   38.37
  -4  -2   2  751.64   39.39
  -4  -2   1  203.84   10.07
   4   2  -1  182.91   12.23
  -4   2   1  182.74    9.91
   4  -2  -1  187.53   12.11
  -4  -2   1  180.93   10.22
  -4  -2   1  186.54   10.29
  -4   2   1  209.06   10.26
  -4  -2   1  197.19   10.56
  -4  -2   1  187.52   10.38
  -4   2   1  187.14   10.41
  -4  -2   1  185.39   11.29
   4   2   0   49.88    6.32
   4  -2   0   51.02    5.64
   4   2   0   53.59    5.69
  -4   2   0   54.73    3.80
  -4  -2   0   58.16    4.22
  -4  -2   0   61.16    4.35
  -4   2   0   68.03    4.19
  -4  -2   0   65.55    4.61
  -4  -2   0   57.45    4.32
  -4   2   0   64.07    4.48
  -4  -2   0   62.20    5.17
   4   2   1    2.60    3.74
  -4  -2  -1    4.11    2.70
   4  -2   1    1.68    3.23
   4   2   1   -0.33    3.18
  -4   2  -1    3.79    1.46
  -4  -2  -1    2.80    1.84
  -4  -2  -1    5.04    2.19
  -4  -2  -1    1.17    2.26
  -4  -2  -1    5.48    2.29
  -4   2  -1    4.99    2.21
   4   2   2   11.31    4.26
  -4  -2  -2    9.60    2.97
   4  -2   2    6.40    3.93
   4   2   2   16.49    4.49
  -4   2  -2    6.86    1.65
  -4  -2  -2   12.28    2.24
  -4  -2  -2   11.89    2.50
  -4  -2  -2   12.44    2.48
  -4   2  -2    8.29    2.45
   4  -2   3  102.25    8.65
   4   2   3  108.45    8.70
   4   2   3  122.88    9.41
  -4  -2  -3  100.05    6.54
  -4  -2  -3  107.35    6.75
  -4   2  -3  123.88    6.59
  -4  -2  -3  118.07    6.71
  -4   2  -3  108.44    6.77
  -4  -2  -3  108.48    7.52
  -4  -2  -4    7.35    2.79
   4  -2   4   17.49    4.53
   4   2   4   12.60    4.82
   4   2   4   12.41    4.39
  -4  -2  -4   14.12    2.39
  -4  -2  -4   12.79    2.76
  -4   2  -4   16.13    2.45
  -4  -2  -4   12.45    2.66
  -4   2  -4   12.46    2.60
  -4  -2  -5   10.18    2.94
   4  -2   5   12.08    4.56
   4   2   5   11.64    4.71
   4   2   5   14.43    4.44
  -4  -2  -5   10.65    2.52
  -4  -2  -5   16.47    2.78
  -4   2  -5   15.78    2.43
  -4  -2  -5   18.97    2.69
  -4   2  -5   16.58    2.99
   4  -2   6   50.61    6.20
   4   2   6   64.10    6.58
   4   2   6   57.16    6.87
  -4  -2  -6   52.55    4.25
  -4  -2  -6   50.84    4.49
  -4   2  -6   59.17    4.04
  -4  -2  -6   63.92    4.34
  -4   2  -6   52.57    4.46
  -4  -2  -6   52.84    5.16
  -4  -2  -7    4.48    2.87
   4  -2   7    6.37    4.13
   4   2   7   11.18    5.07
   4   2   7    5.04    3.94
  -4  -2  -7    5.03    2.25
  -4   2  -7    5.97    2.08
  -4  -2  -7    5.72    2.46
  -4   2  -7    7.39    2.72
   4  -2   8  324.04   19.04
   4   2   8  386.43   19.19
   4   2   8  360.91   19.56
  -4  -2  -8  276.51   16.48
  -4   2  -8  325.33   16.31
  -4  -2  -8  327.54   16.60
  -4   2  -8  308.03   16.78
  -4  -2  -8  349.61   17.97
  -4  -2  -9    9.46    3.20
   4  -2   9    5.21    4.14
   4   2   9    8.83    4.10
  -4  -2  -9    9.01    2.33
  -4   2  -9   10.26    2.00
  -4  -2  -9    9.56    2.46
   4   2   9    8.49    2.76
  -4   2  -9    8.48    2.91
  -4  -2 -10   16.12    2.81
  -4  -2 -10   21.12    2.96
  -4   2 -10   19.03    2.56
  -4   2 -10   20.38    2.20
  -4  -2 -10   14.75    2.84
   4   2  10   24.03    2.84
  -4   2 -10   16.72    3.04
  -4  -2 -11    1.82    2.01
  -4  -2 -11    1.78    2.66
  -4   2 -11    1.30    1.84
  -4   2 -11   -1.03    1.49
  -4  -2 -11    2.84    2.24
   4   2  11    4.02    2.22
  -4   2 -11    1.88    2.59
  -4  -2 -12   87.20    4.63
  -4  -2 -12  103.92    5.14
  -4   2 -12   97.97    4.66
  -4  -2 -12  101.51    4.87
  -4   2 -12   94.17    5.04
  -4  -2 -13   15.64    2.37
  -4   2 -13   23.59    2.45
  -4  -2 -13   22.85    3.08
  -4  -2 -13   21.64    2.66
  -4   2 -13   20.71    2.90
  -4  -2 -14    7.30    1.79
  -4  -2 -14   15.62    2.46
  -4   2 -14   12.19    2.02
  -4  -2 -14   12.33    2.21
  -4   2 -14    8.52    2.37
  -4  -2 -15    3.41    1.52
  -4  -2 -15    3.75    1.97
  -4   2 -15    3.38    2.03
  -4  -2 -16    6.55    1.33
  -4  -2 -16    6.86    1.81
  -4   2 -16    9.94    1.98
  -4  -2 -17    2.71    1.36
  -4   2 -17    0.68    1.37
  -4   2 -18    1.21    0.96
  -4   3  15   31.46    1.86
  -4  -3  15   20.21    1.94
  -4   3  14   11.23    1.39
   4   3 -14   10.38    1.72
  -4  -3  14    7.42    1.58
  -4  -3  13    8.22    1.58
  -4   3  13    8.33    1.38
   4   3 -13   11.97    1.93
  -4  -3  13    8.25    1.73
  -4  -3  12    0.25    1.43
  -4   3  12    1.02    1.43
  -4   3  12    0.05    0.41
   4   3 -12   -1.05    1.84
  -4  -3  12    2.92    1.85
  -4   3  11    2.02    1.50
  -4  -3  11    2.02    1.74
  -4   3  11   -0.26    0.48
   4   3 -11    3.77    2.07
  -4  -3  11    1.83    1.92
  -4   3  10   30.49    2.14
  -4  -3  10   29.63    2.31
   4   3 -10   26.76    2.70
  -4  -3  10   31.20    2.50
  -4   3  10   27.56    2.29
  -4   3   9  120.95    3.39
  -4  -3   9  129.72    3.82
   4   3  -9  111.86    3.99
  -4  -3   9  112.40    3.99
  -4   3   9  125.95    3.67
  -4  -3   8    0.08    0.71
  -4  -3   8    1.76    1.92
   4   3  -8    2.54    2.13
  -4  -3   8    2.74    2.11
  -4   3   8    3.87    1.94
  -4  -3   7   -0.09    1.22
  -4  -3   7    2.39    1.91
   4   3  -7   -1.21    2.06
  -4  -3   7    2.55    2.21
  -4   3   7    1.96    1.92
  -4  -3   6   83.16    5.26
  -4  -3   6   99.40    5.64
   4   3  -6   90.68    5.67
  -4  -3   6   93.97    5.87
  -4   3   6   96.91    5.66
  -4  -3   5    6.99    1.74
  -4   3   5    7.57    1.92
  -4  -3   5    7.79    2.17
   4   3  -5    7.64    2.25
  -4  -3   5   11.50    2.49
  -4   3   5    6.89    2.37
  -4  -3   4    4.39    1.72
  -4   3   4    9.60    1.90
  -4  -3   4    8.60    2.12
   4   3  -4    7.34    2.10
  -4   3   4    6.56    1.87
  -4  -3   4    4.24    2.23
  -4   3   4    7.47    2.19
  -4  -3   3   24.80    2.42
  -4   3   3   19.22    2.40
  -4  -3   3   19.29    2.65
   4   3  -3   24.08    2.40
  -4   3   3   17.86    2.36
  -4  -3   3   22.23    3.02
   4  -3  -3   18.09    2.02
  -4   3   3   17.43    2.79
  -4   3   2  208.54   10.17
  -4  -3   2  192.69   10.45
  -4   3   2  183.70   10.22
  -4  -3   2  206.95   10.63
  -4   3   2  201.38   10.44
   4  -3  -2  176.40    9.91
  -4   3   1  204.39   10.82
  -4  -3   1  206.85   11.09
  -4   3   1  231.18   11.03
  -4  -3   1  214.47   11.27
  -4   3   1  214.67   11.05
   4  -3  -1  184.31   10.59
  -4   3   0  250.12   13.16
  -4  -3   0  260.94   13.52
  -4   3   0  285.07   13.44
  -4  -3   0  276.07   13.72
  -4   3   0  260.10   13.45
   4  -3   0  233.78   13.03
  -4   3  -1  313.46   15.81
  -4  -3  -1  327.66   16.18
  -4   3  -1  325.12   16.04
  -4  -3  -1  332.97   16.31
  -4   3  -1  310.54   16.14
   4  -3   1  286.86   15.69
  -4   3  -2    2.50    1.73
  -4  -3  -2   -0.65    2.04
  -4   3  -2    4.01    2.14
  -4  -3  -2    2.82    2.60
   4  -3   2    2.16    1.77
  -4   3  -2    0.60    2.05
  -4   3  -3  163.68    8.86
  -4  -3  -3  166.78    9.33
  -4   3  -3  188.00    9.26
  -4  -3  -3  171.52    9.43
  -4   3  -3  155.43    9.23
  -4   3  -4    9.30    1.72
  -4  -3  -4   10.30    2.34
  -4  -3  -4    5.51    2.67
  -4   3  -4    5.23    2.33
  -4   3  -5    1.92    1.47
  -4  -3  -5    1.38    1.89
  -4  -3  -5    5.00    2.31
  -4   3  -5    1.77    2.08
  -4   3  -6    0.78    1.38
  -4  -3  -6    1.09    2.07
  -4   3  -6    0.84    1.87
  -4  -3  -6    6.02    2.27
  -4   3  -6    2.73    2.05
  -4   3  -7   30.14    2.52
  -4  -3  -7   35.40    3.31
  -4   3  -7   36.47    3.02
  -4  -3  -7   42.62    3.51
   4   3   7   46.13    3.49
  -4   3  -7   39.83    3.17
  -4  -3  -8   48.28    3.61
  -4  -3  -8   48.54    3.75
  -4   3  -8   46.62    3.34
  -4  -3  -8   54.69    3.80
   4   3   8   55.76    3.74
  -4   3  -8   48.90    3.52
  -4  -3  -9   11.92    2.04
  -4  -3  -9    8.22    2.16
  -4   3  -9    7.85    1.60
  -4   3  -9    9.08    1.71
  -4  -3  -9    6.77    2.21
   4   3   9   12.43    2.30
  -4   3  -9    8.16    1.92
  -4  -3 -10   76.35    2.92
  -4  -3 -10   78.77    3.26
  -4   3 -10   78.35    2.52
  -4   3 -10   70.76    2.48
  -4  -3 -10   85.23    3.38
   4   3  10   82.01    3.00
  -4   3 -10   66.69    2.76
  -4  -3 -11  180.45   10.07
  -4   3 -11  193.79    9.95
  -4   3 -11  185.20    9.88
  -4  -3 -11  214.59   10.35
   4   3  11  207.03   10.02
  -4   3 -11  205.11   10.10
  -4  -3 -12   24.72    1.78
  -4   3 -12   25.07    1.61
   4   3  12   24.22    1.69
  -4   3 -12   23.70    1.74
  -4  -3 -13    2.70    1.09
  -4   3 -13    1.84    1.05
  -4   4   5    3.07    0.94
  -4  -4   5    0.58    1.16
  -4  -4   4    4.74    1.27
  -4  -4   3    3.26    1.30
  -4  -4   2    0.33    1.26
  -4   4   1    8.79    1.18
  -4  -4   1    8.15    1.46
   4   4  -1    4.77    1.39
  -4   4   0    1.81    0.95
  -4  -4   0    2.85    1.32
   4   4   0    2.03    1.29
  -4   4  -1  130.04    5.92
  -4  -4  -1  156.86    6.16
  -4   4  -2   12.96    1.22
  -4  -4  -2   12.50    1.46
  -4  -4  -2   11.98    1.48
   4   4   2    9.35    1.51
  -4  -4  -3   15.18    1.45
  -4  -4  -3   15.83    1.51
  -4  -4  -4    6.00    1.07
  -4  -4  -5   28.28    1.87
  -5   0  20    1.17    1.23
   5   0 -20    0.63    1.33
  -5   0  19   29.23    2.60
   5   0 -19   37.48    2.71
  -5   0  18   -0.20    1.65
   5   0 -18    2.68    1.71
  -5   0  17  120.91    6.95
  -5   0  16    0.92    2.04
  -5   0  15  315.66   17.16
  -5   0  15  401.89   17.89
  -5   0  14    0.54    1.55
  -5   0  14    0.15    2.22
  -5   0  13   54.33    3.75
  -5   0  13   64.52    4.55
   5   0 -12   -3.18    3.72
   5   0 -12   -0.39    3.28
  -5   0  12    1.71    1.51
  -5   0  12   -1.67    3.57
  -5   0  12   -0.47    2.11
   5   0 -11   79.20    6.76
  -5   0  11   68.71    6.90
   5   0 -11   84.35    7.24
  -5   0  11   68.41    4.32
  -5   0  11   76.09    5.16
   5   0 -10    1.66    3.84
  -5   0  10    1.24    1.41
  -5   0  10   -0.41    3.37
  -5   0  10   -0.46    1.72
  -5   0  10    3.84    2.33
  -5   0  10    0.40    2.87
  -5   0   9   92.05    7.44
   5   0  -9   90.65    6.87
  -5   0   9   78.44    4.64
  -5   0   9   81.43    5.46
  -5   0   9   76.22    4.96
  -5   0   9   91.99    6.06
  -5   0   9   79.51    4.85
   5   0  -8    2.66    3.42
  -5   0   8    0.14    1.19
  -5   0   8   -1.16    3.36
  -5   0   8    0.15    2.17
  -5   0   8    0.56    2.60
  -5   0   8   -0.91    1.65
  -5   0   7  270.51   13.77
  -5   0   7  238.56   15.31
   5   0  -7  260.38   14.73
  -5   0   7  245.14   13.52
  -5   0   7  280.38   13.99
  -5   0   7  249.12   13.03
   5   0  -6   -1.34    2.87
  -5   0   6    1.04    2.51
  -5   0   6   -0.73    3.40
  -5   0   6    4.03    2.09
  -5   0   6    0.69    2.42
  -5   0   6   -1.22    1.60
  -5   0   5  691.36   34.64
  -5   0   5  702.61   36.48
   5   0  -5  741.67   35.66
  -5   0   5  682.56   34.54
  -5   0   5  735.79   34.91
  -5   0   5  684.99   34.09
   5   0  -4    1.93    2.52
  -5   0   4    1.26    2.53
  -5   0   4   -0.70    3.20
  -5   0   4    0.93    1.91
  -5   0   4    0.32    2.39
  -5   0   4    0.83    1.41
   5   0  -3   25.05    3.74
   5   0  -3   25.83    3.56
  -5   0   3   27.13    3.21
  -5   0   3   28.62    4.38
  -5   0   3   24.14    2.76
  -5   0   3   28.04    3.08
  -5   0   3   27.27    2.29
   5   0  -2   -0.32    2.72
   5   0  -2   -2.47    2.63
  -5   0   2   -0.27    2.32
  -5   0   2   -0.67    3.20
  -5   0   2    1.16    1.84
  -5   0   2    0.31    2.25
  -5   0   2    0.40    1.43
   5   0  -1   -3.65    2.80
  -5   0   1    4.43    2.36
  -5   0   1    1.68    3.19
  -5   0   1    2.95    1.98
  -5   0   1    2.15    3.67
  -5   0   1    2.29    2.21
  -5   0   1    0.49    1.45
  -5   0   0    1.21    2.29
  -5   0   0    0.34    3.15
  -5   0   0    1.54    1.91
  -5   0   0   -0.36    3.54
  -5   0   0    3.94    2.29
  -5   0   0   -0.17    1.38
  -5   0  -1  149.76    8.10
  -5   0  -1  134.31    7.92
  -5   0  -1  145.71    9.97
  -5   0  -1  139.25    8.09
  -5   0  -1  136.37    7.46
  -5   0  -1  138.43    9.71
  -5   0  -2    0.82    2.33
  -5   0  -2    1.43    1.96
  -5   0  -2   -1.48    4.05
  -5   0  -2   -0.93    2.37
  -5   0  -2    0.26    1.46
   5   0   3   -1.35    3.75
  -5   0  -3    1.40    2.41
  -5   0  -3    1.42    1.45
  -5   0  -3   -0.40    1.99
  -5   0  -3   -0.76    3.99
  -5   0  -3   -2.96    2.40
  -5   0  -3    0.36    1.53
   5   0   4   -0.68    3.73
  -5   0  -4   -0.14    2.38
  -5   0  -4    1.16    1.60
  -5   0  -4    0.39    3.89
  -5   0  -4   -0.47    2.33
  -5   0  -4   -0.37    1.45
   5   0   5  154.71    9.69
  -5   0  -5  125.98    7.19
  -5   0  -5  140.55    9.98
  -5   0  -5  123.09    7.75
  -5   0  -5  127.89    7.14
  -5   0  -5  137.02    7.85
   5   0   6    3.80    3.51
  -5   0  -6    1.37    2.57
  -5   0  -6   -0.54    1.78
  -5   0  -6    4.59    4.48
  -5   0  -6   -1.77    2.38
  -5   0  -6    1.21    1.72
  -5   0  -7   31.59    3.65
  -5   0  -7   30.48    3.02
  -5   0  -7   25.06    5.41
  -5   0  -7   28.58    2.77
   5   0   8   -0.57    2.52
  -5   0  -8    2.06    2.77
  -5   0  -8    0.72    2.06
  -5   0  -8    0.44    4.34
  -5   0  -8   -0.11    1.80
   5   0   9   99.25    7.64
  -5   0  -9  111.52    6.53
  -5   0  -9  108.12    9.32
  -5   0  -9  111.02    6.31
  -5   0  -9  114.06    7.11
   5   0  10    1.28    2.58
  -5   0 -10    0.32    2.81
  -5   0 -10    0.88    2.14
  -5   0 -10    4.05    4.12
  -5   0 -10   -0.32    1.69
  -5   0 -11   75.23    4.97
  -5   0 -11   69.37    4.57
  -5   0 -11   79.19    5.48
  -5   0 -12    1.99    2.80
  -5   0 -12    1.99    2.21
  -5   0 -12   -0.60    1.59
  -5   0 -13   67.30    3.58
  -5   0 -13   72.96    4.09
  -5   0 -14    2.51    2.36
  -5   0 -14    1.31    2.01
  -5   0 -14    0.32    0.75
  -5   0 -15    2.35    2.19
  -5   0 -16    3.41    2.10
   5   0  16    2.71    1.58
  -5   0 -17  200.65    8.87
  -5   0 -17  203.20    9.01
  -5   0 -18    0.61    1.34
  -5   0 -18    1.91    1.24
   5  -1 -20    1.72    1.25
  -5  -1  19   38.09    2.36
  -5   1  19   37.28    2.43
  -5  -1  19   28.48    2.38
  -5  -1  19   33.08    2.58
  -5   1  19   31.72    2.48
   5   1 -19   41.02    2.48
  -5   1  18   43.41    2.90
  -5  -1  18   46.01    3.02
  -5   1  18   44.32    3.02
  -5  -1  18   42.78    3.07
  -5  -1  18   43.32    3.27
  -5   1  18   40.04    3.16
   5   1 -18   52.73    3.14
  -5   1  17   44.31    2.94
  -5  -1  17   45.88    3.15
  -5   1  17   40.11    3.14
  -5  -1  17   39.22    3.20
  -5  -1  17   41.44    3.44
  -5   1  17   44.01    3.41
   5   1 -17   52.08    3.21
  -5   1  16   33.04    2.67
  -5  -1  16   33.81    2.87
  -5   1  16   37.97    3.03
  -5  -1  16   33.29    3.10
  -5  -1  16   37.56    3.39
  -5   1  16   38.63    3.26
   5   1 -16   40.44    3.02
  -5   1  15   92.69    5.34
  -5  -1  15   88.01    5.52
  -5   1  15   96.69    5.61
  -5  -1  15   86.17    5.67
  -5  -1  15   93.27    5.98
  -5   1  15   94.42    5.90
   5   1 -15   90.52    5.42
  -5   1  14  134.44    7.23
  -5  -1  14  132.31    7.51
  -5   1  14  139.40    7.65
  -5  -1  14  124.37    7.68
  -5  -1  14  131.81    7.88
  -5   1  14  131.11    7.85
   5   1 -14  135.59    7.43
  -5   1  13   16.28    2.09
  -5  -1  13   15.37    2.69
  -5  -1  13   12.14    2.29
  -5   1  13   19.14    2.59
  -5  -1  13   14.55    2.81
  -5   1  13   20.00    2.87
   5   1 -13   19.18    2.32
  -5   1  12  145.90    7.75
  -5  -1  12  137.21    8.10
  -5   1  12  149.55    8.18
  -5  -1  12  140.12    8.27
  -5  -1  12  144.66    8.52
  -5   1  12  143.33    8.51
  -5   1  12  141.98    8.13
   5   1 -12  138.81    7.81
   5   1 -11   28.91    5.16
   5  -1 -11   36.64    5.20
   5   1 -11   37.72    5.44
  -5   1  11   40.59    2.99
  -5  -1  11   37.33    3.33
  -5   1  11   33.58    3.39
  -5   1  11   32.65    4.83
  -5  -1  11   30.95    4.69
  -5  -1  11   40.31    3.61
  -5  -1  11   43.13    3.93
  -5   1  11   36.71    3.93
  -5   1  11   42.16    3.58
   5   1 -10  103.82    9.21
  -5   1  10  112.35    8.76
  -5  -1  10  116.49    8.71
   5  -1 -10  121.22    9.04
  -5   1  10  117.10    6.56
  -5  -1  10  108.46    6.95
  -5   1  10  117.26    7.04
  -5  -1  10  123.32    7.24
  -5  -1  10  131.59    7.46
  -5   1  10  116.36    7.41
  -5   1  10  128.24    7.08
   5   1  -9   14.41    4.79
   5  -1  -9   29.68    4.61
   5   1  -9   24.23    4.58
  -5   1   9   23.02    2.28
  -5   1   9   19.99    4.18
  -5  -1   9   13.53    3.93
  -5   1   9   30.33    3.35
  -5  -1   9   28.98    3.13
  -5  -1   9   23.01    2.75
  -5   1   9   22.31    2.78
  -5  -1   9   22.49    3.20
  -5   1   9   27.53    3.06
   5   1  -8   22.46    5.12
   5  -1  -8   38.26    5.01
   5   1  -8   27.00    5.05
  -5   1   8   28.26    2.53
  -5  -1   8   32.85    3.10
  -5   1   8   33.40    3.17
  -5   1   8   32.17    4.78
  -5  -1   8   29.55    4.52
  -5  -1   8   35.25    3.34
  -5  -1   8   36.53    3.52
  -5   1   8   35.20    3.51
  -5   1   8   32.55    3.27
   5   1  -7   12.52    4.51
   5  -1  -7    9.08    3.75
   5   1  -7   12.50    4.03
  -5   1   7   12.93    1.80
  -5   1   7    5.72    3.30
  -5  -1   7   11.97    3.74
  -5  -1   7   14.64    2.62
  -5  -1   7   11.87    2.25
  -5   1   7   11.22    2.33
  -5  -1   7   14.29    2.69
  -5   1   7   11.33    2.63
  -5  -1   7    9.38    1.95
  -5   1   7   11.78    2.46
   5   1  -6  118.19    9.39
  -5   1   6  120.49    8.60
  -5  -1   6  110.27    8.29
   5  -1  -6  129.72    8.75
   5   1  -6  110.66    8.73
  -5   1   6  114.69    6.21
  -5  -1   6  112.16    6.76
  -5   1   6  105.13    6.71
  -5  -1   6  116.69    6.89
  -5  -1   6  112.42    7.00
  -5   1   6  128.37    7.19
  -5  -1   6  106.46    6.43
  -5   1   6  121.97    6.80
   5   1  -5  675.03   37.70
  -5   1   5  738.53   37.07
  -5  -1   5  719.55   36.97
  -5  -1   5  747.00   35.33
  -5   1   5  734.10   35.31
   5  -1  -5  797.48   37.16
   5   1  -5  725.58   37.26
  -5   1   5  719.00   34.67
  -5  -1   5  672.52   35.10
  -5   1   5  692.10   35.18
  -5  -1   5  721.90   35.27
  -5  -1   5  705.21   35.43
  -5   1   5  724.57   35.48
  -5  -1   5  682.36   34.89
  -5   1   5  723.06   35.13
   5   1  -4  461.38   27.08
  -5   1   4  504.70   26.51
  -5  -1   4  468.32   26.26
  -5  -1   4  500.60   24.80
  -5   1   4  500.61   24.83
   5   1  -4  513.81   26.75
   5  -1  -4  477.38   25.47
  -5   1   4  500.05   24.17
  -5  -1   4  477.00   24.66
  -5   1   4  502.13   24.76
  -5  -1   4  519.16   24.82
  -5  -1   4  497.75   24.93
  -5   1   4  493.19   24.95
  -5  -1   4  471.13   24.41
  -5   1   4  509.22   24.70
   5   1  -3  156.34   11.04
  -5   1   3  157.46   10.31
  -5  -1   3  159.66   10.22
  -5  -1   3  150.10    8.59
  -5   1   3  156.24    8.69
   5   1  -3  151.78   10.39
   5  -1  -3  152.43    9.33
  -5  -1   3  144.54    8.43
  -5   1   3  157.11    8.54
  -5  -1   3  155.44    8.63
  -5  -1   3  152.55    8.72
  -5   1   3  151.05    8.74
  -5  -1   3  147.93    8.19
  -5   1   3  154.76    8.52
   5   1  -2  110.80    8.94
  -5   1   2  119.35    8.36
  -5  -1   2  116.47    8.30
  -5  -1   2  106.34    6.72
  -5   1   2  121.06    6.81
   5   1  -2  123.21    8.40
   5  -1  -2  109.35    7.50
  -5  -1   2  105.31    6.52
  -5   1   2  112.63    6.64
  -5  -1   2  117.94    6.72
  -5  -1   2  110.64    6.83
  -5   1   2  107.02    6.82
  -5  -1   2  108.50    6.27
  -5   1   2  112.33    6.62
  -5   1   1  188.66   12.14
  -5  -1   1  184.68   12.04
   5   1  -1  199.52   13.09
  -5  -1   1  190.78   10.55
  -5   1   1  200.69   10.64
   5   1  -1  206.58   12.16
   5  -1  -1  202.22   11.63
  -5  -1   1  189.37   10.45
  -5   1   1  184.45   10.47
  -5  -1   1  203.42   10.56
  -5  -1   1  198.28   10.74
  -5   1   1  203.38   10.76
  -5  -1   1  192.73   10.19
  -5   1   1  196.23   10.50
  -5  -1   0   50.19    3.74
  -5   1   0   41.21    3.80
   5   1   0   42.94    5.64
   5   1   0   46.02    4.88
   5  -1   0   42.11    4.66
  -5   1   0   37.59    4.90
  -5  -1   0   40.11    3.42
  -5   1   0   41.04    3.50
  -5  -1   0   46.70    3.62
  -5  -1   0   43.14    3.84
  -5   1   0   45.11    3.83
  -5  -1   0   45.62    3.23
  -5   1   0   48.47    3.63
  -5  -1   0   48.61    5.12
   5  -1   1   16.43    3.34
  -5  -1  -1   10.82    2.55
  -5   1  -1   16.27    2.59
  -5  -1  -1   15.61    2.14
  -5  -1  -1   11.94    2.24
  -5   1  -1   10.70    2.26
  -5  -1  -1   16.84    2.60
  -5  -1  -1   21.45    4.30
  -5   1  -1   11.32    4.10
  -5  -1  -1   11.18    2.60
  -5   1  -1   18.60    2.82
  -5  -1  -1   12.39    2.00
  -5   1  -1   18.12    2.56
   5  -1   2    4.95    3.01
   5   1   2    3.70    3.51
  -5  -1  -2    7.12    2.43
  -5   1  -2    4.55    2.33
  -5  -1  -2    2.93    1.77
  -5  -1  -2    5.56    1.98
  -5   1  -2    3.01    1.96
  -5  -1  -2    7.37    2.31
  -5  -1  -2    6.40    3.70
  -5   1  -2    2.51    3.90
  -5  -1  -2    4.03    2.45
  -5   1  -2    3.60    2.29
  -5  -1  -2    5.48    1.75
  -5   1  -2    5.98    2.33
  -5  -1  -3   29.47    3.20
  -5   1  -3   29.41    3.20
   5  -1   3   33.81    4.40
   5   1   3   36.30    6.03
   5   1   3   29.87    4.75
  -5  -1  -3   28.44    2.74
  -5  -1  -3   30.54    2.95
  -5  -1  -3   29.41    4.91
  -5   1  -3   25.60    4.83
  -5  -1  -3   30.68    2.58
  -5  -1  -3   23.14    3.14
  -5   1  -3   20.72    3.00
  -5   1  -3   33.31    3.16
  -5  -1  -4   91.86    5.86
  -5   1  -4   95.39    5.91
   5  -1   4   88.92    7.32
   5   1   4  105.12    7.73
  -5  -1  -4   91.46    5.68
  -5   1  -4   91.72    5.31
  -5  -1  -4   93.21    7.88
  -5   1  -4   96.50    7.85
  -5  -1  -4   96.18    5.91
  -5  -1  -4   82.69    5.91
  -5   1  -4   84.26    5.84
  -5  -1  -4   91.09    5.42
  -5   1  -4   98.07    5.88
  -5  -1  -5   38.81    3.67
  -5   1  -5   34.36    3.53
   5  -1   5   36.93    4.90
   5   1   5   34.24    6.27
   5   1   5   37.96    4.91
  -5  -1  -5   37.80    3.30
  -5   1  -5   35.37    2.88
  -5  -1  -5   35.21    3.36
  -5  -1  -5   35.91    3.72
  -5   1  -5   39.61    3.70
  -5  -1  -5   37.20    5.26
  -5  -1  -5   37.19    2.96
  -5   1  -5   37.47    5.45
  -5   1  -5   41.70    3.62
  -5  -1  -6  518.06   26.25
  -5   1  -6  520.56   26.26
   5  -1   6  503.71   27.95
  -5  -1  -6  496.76   26.12
  -5   1  -6  519.82   25.89
  -5  -1  -6  515.69   28.22
  -5   1  -6  492.02   28.15
  -5  -1  -6  537.74   26.24
  -5  -1  -6  541.46   26.46
  -5   1  -6  605.28   26.59
  -5  -1  -6  499.09   25.80
  -5   1  -6  508.71   26.20
   5  -1   7   19.80    4.33
   5   1   7   31.91    6.05
  -5  -1  -7   24.12    3.15
  -5   1  -7   26.12    3.13
  -5   1  -7   26.42    2.56
  -5  -1  -7   21.46    3.01
  -5  -1  -7   24.55    2.89
  -5  -1  -7   23.10    2.43
  -5  -1  -7   22.00    4.65
  -5   1  -7   19.20    4.68
  -5   1  -7   24.82    2.96
   5  -1   8  458.29   24.78
   5   1   8  541.70   26.16
  -5  -1  -8  429.47   22.72
  -5   1  -8  465.56   22.53
  -5  -1  -8  445.43   24.88
  -5   1  -8  421.01   24.79
  -5  -1  -8  466.99   22.82
  -5  -1  -8  439.70   22.38
  -5   1  -8  441.45   22.79
  -5  -1  -8  447.67   22.85
  -5   1  -8  460.17   22.90
  -5  -1  -9  447.67   24.07
  -5   1  -9  505.34   24.00
  -5  -1  -9  425.37   26.05
  -5   1  -9  422.25   26.06
  -5  -1  -9  493.05   24.19
  -5  -1  -9  473.24   23.77
  -5   1  -9  508.61   24.29
  -5  -1  -9  473.48   24.25
  -5   1  -9  468.57   24.25
  -5  -1 -10   27.83    3.35
  -5   1 -10   27.98    3.15
  -5  -1 -10   31.50    3.28
  -5   1 -10   29.57    2.93
  -5  -1 -10   32.15    3.31
  -5  -1 -10   23.85    2.55
  -5   1 -10   31.58    3.18
  -5  -1 -11   25.59    3.15
  -5   1 -11   23.57    3.01
  -5   1 -11   23.12    2.67
  -5  -1 -11   22.02    2.95
  -5  -1 -11   22.88    2.79
  -5  -1 -11   20.15    2.26
  -5   1 -11   23.07    2.90
  -5  -1 -12   75.16    4.85
  -5   1 -12   66.38    4.60
  -5  -1 -12   70.18    4.88
  -5   1 -12   73.17    4.83
  -5  -1 -12   66.68    4.86
  -5   1 -12   78.40    4.95
  -5  -1 -13   19.87    2.60
  -5   1 -13   18.44    2.74
  -5   1 -13   17.13    2.39
  -5   1 -13   16.95    2.56
  -5  -1 -14    5.32    1.97
  -5   1 -14    4.02    2.07
  -5   1 -14    4.83    1.78
  -5   1 -14    6.06    2.00
  -5   1 -15   39.98    3.14
  -5  -1 -15   41.25    3.24
  -5   1 -15   44.15    3.03
  -5   1 -15   42.45    3.10
  -5  -1 -15   37.20    3.14
  -5  -1 -16   48.48    3.20
  -5   1 -16   47.13    3.24
  -5  -1 -16   48.79    3.28
  -5   1 -16   51.00    3.27
  -5   1 -16   46.53    3.16
  -5  -1 -17   22.06    2.01
   5   2 -17   19.12    1.84
  -5  -2  17   21.32    1.94
  -5   2  16    3.29    1.25
   5   2 -16    3.56    1.61
  -5   2  15   13.90    1.63
  -5  -2  15   11.84    1.84
  -5   2  14    3.57    1.46
  -5  -2  14    0.81    1.68
  -5   2  13   12.58    1.77
  -5  -2  13   10.90    2.15
  -5   2  12   89.99    4.90
  -5  -2  12   77.28    4.78
  -5  -2  12   82.98    5.19
  -5  -2  11   10.70    1.75
  -5   2  11   13.43    1.91
  -5  -2  11    8.80    2.22
  -5  -2  10    6.73    1.61
  -5   2  10    7.95    1.79
  -5  -2  10    4.54    2.13
  -5   2   9    5.86    1.64
  -5  -2   9    5.40    1.68
  -5  -2   9    2.65    2.08
  -5   2   8    5.99    1.60
  -5  -2   8    4.93    1.67
  -5  -2   8    4.25    2.33
  -5   2   7  139.30    7.31
  -5  -2   7  128.96    7.32
  -5  -2   7  138.47    8.00
  -5  -2   7  131.00    7.70
   5   2  -6   19.76    5.02
  -5   2   6   24.30    2.26
  -5  -2   6   21.72    2.26
  -5  -2   6   20.42    3.12
  -5  -2   6   20.65    2.86
   5   2  -5   72.49    8.08
   5  -2  -5   91.04    7.60
   5   2  -5   78.23    7.61
   5  -2  -5   87.35    6.93
  -5   2   5   94.53    5.18
  -5  -2   5   89.69    5.23
  -5  -2   5   85.58    5.84
  -5  -2   5   84.18    5.58
   5   2  -4    9.16    4.74
   5   2  -4   14.36    4.25
   5  -2  -4   10.14    3.52
  -5   2   4   18.53    2.02
  -5  -2   4   14.92    2.12
  -5  -2   4   18.06    3.01
  -5  -2   4   14.63    2.70
   5   2  -3  726.48   42.45
   5   2  -3  808.23   42.00
   5  -2  -3  790.89   41.33
  -5   2   3  849.69   39.43
  -5  -2   3  783.37   39.48
  -5  -2   3  826.49   40.03
  -5  -2   3  810.16   39.77
   5   2  -2   46.72    6.47
   5   2  -2   56.63    6.18
   5  -2  -2   54.84    5.63
  -5   2   2   64.78    3.84
  -5  -2   2   56.22    3.97
  -5  -2   2   63.50    4.66
  -5  -2   2   62.72    4.42
   5   2  -1  219.13   14.80
   5  -2  -1  223.65   13.83
  -5   2   1  236.89   11.59
  -5  -2   1  216.47   11.73
  -5   2   1  219.69   12.07
  -5  -2   1  234.65   12.35
  -5  -2   1  230.01   12.08
   5   2   0    7.36    4.18
   5   2   0    3.90    4.01
   5  -2   0    5.49    3.66
  -5   2   0    1.87    1.44
  -5  -2   0    3.28    1.72
  -5  -2   0    5.21    2.00
  -5  -2   0    5.75    2.69
  -5  -2   0    5.84    2.23
   5   2   1  422.30   22.51
   5   2   1  409.89   22.79
   5  -2   1  403.53   22.03
  -5   2  -1  398.63   19.65
  -5  -2  -1  380.35   19.88
  -5  -2  -1  384.74   20.11
  -5  -2  -1  418.98   20.41
  -5  -2  -1  404.92   20.15
   5   2   2    3.92    3.81
   5  -2   2    7.00    3.47
  -5   2  -2    3.22    1.36
  -5  -2  -2    4.56    1.77
  -5  -2  -2   10.11    2.36
  -5   2  -2    7.78    2.32
  -5  -2  -2    9.33    2.77
  -5  -2  -2    7.84    2.28
   5   2   3    4.65    3.68
  -5  -2  -3    4.84    1.84
  -5  -2  -3    5.55    2.37
  -5   2  -3   10.71    2.38
  -5  -2  -3    6.89    2.61
  -5  -2  -3    5.59    2.08
   5   2   4    6.65    3.88
  -5  -2  -4    2.87    1.71
  -5  -2  -4    5.67    2.38
  -5   2  -4    4.76    2.11
  -5  -2  -4    5.82    2.52
  -5  -2  -4    6.27    2.19
  -5  -2  -5  452.71   24.71
  -5  -2  -5  490.32   25.13
  -5   2  -5  538.26   24.98
  -5  -2  -5  528.00   25.29
  -5  -2  -5  514.83   24.94
  -5  -2  -6   75.71    5.05
  -5  -2  -6   84.53    5.66
  -5   2  -6   77.34    4.87
  -5   2  -6   92.01    5.27
  -5  -2  -6  101.21    5.82
  -5  -2  -6   87.93    5.31
  -5  -2  -7  322.66   17.41
  -5  -2  -7  351.67   17.89
  -5   2  -7  327.84   17.33
  -5   2  -7  346.57   17.51
  -5  -2  -7  383.52   18.02
  -5  -2  -7  381.23   17.69
  -5  -2  -8   11.13    1.83
  -5  -2  -8    6.27    2.40
  -5   2  -8   13.68    1.89
  -5   2  -8    9.71    1.93
  -5  -2  -8   15.82    2.82
  -5  -2  -8    9.68    2.26
   5   2   8   13.33    2.49
  -5  -2  -9  112.91    6.66
  -5  -2  -9  131.65    7.29
  -5   2  -9  130.41    6.81
  -5   2  -9  105.34    6.66
  -5  -2  -9  139.74    7.51
  -5  -2  -9  143.22    7.05
  -5  -2 -10    0.30    0.88
  -5  -2 -10    4.48    2.27
  -5   2 -10    7.10    1.74
  -5  -2 -10    7.43    2.44
  -5  -2 -10    7.31    2.03
  -5   2 -11  149.80    8.33
  -5  -2 -11  162.39    8.81
  -5  -2 -11  166.13    8.45
  -5   2 -12   15.39    1.91
  -5  -2 -12   18.21    2.48
  -5  -2 -12   17.05    2.01
  -5  -2 -13   28.59    2.70
  -5   2 -13   29.01    2.30
  -5  -2 -14   10.81    1.76
  -5   2 -14    8.16    1.44
  -5  -2 -15    3.38    1.29
  -5   2 -15    3.27    1.05
  -5   3  12   11.80    1.24
   5   3 -12   10.63    1.51
  -5  -3  12   13.43    1.53
  -5  -3  12   11.06    1.48
  -5  -3  11    9.88    1.24
  -5   3  11    7.98    1.27
   5   3 -11    6.18    1.52
  -5  -3  11   11.56    1.65
  -5  -3  11    5.12    1.49
  -5  -3  10    8.93    1.36
  -5   3  10   11.21    1.42
   5   3 -10    8.36    1.73
  -5  -3  10   10.67    1.77
  -5  -3  10    8.80    1.75
  -5  -3   9    3.71    1.28
  -5   3   9    2.22    1.18
   5   3  -9    2.55    1.57
  -5  -3   9    4.04    1.78
  -5  -3   9    1.44    1.60
  -5   3   9    2.46    1.61
  -5   3   8    0.69    1.30
  -5  -3   8    2.44    1.28
   5   3  -8    1.55    1.55
  -5  -3   8    1.26    1.81
  -5  -3   8    3.90    1.79
  -5   3   8    1.13    1.73
  -5   3   7    3.93    1.43
  -5  -3   7    2.46    1.34
   5   3  -7    3.99    1.64
  -5  -3   7    3.50    1.88
  -5  -3   7    5.97    1.88
  -5   3   7    8.09    1.96
  -5   3   6   50.40    3.25
  -5  -3   6   49.64    3.31
   5   3  -6   45.52    3.35
  -5  -3   6   51.43    3.68
  -5  -3   6   53.67    3.63
  -5   3   6   56.63    3.61
  -5   3   5   38.77    2.73
  -5  -3   5   42.07    2.86
   5   3  -5   33.21    2.81
  -5  -3   5   47.49    3.40
  -5  -3   5   40.80    3.16
  -5   3   5   39.42    3.24
  -5   3   4   46.99    3.19
  -5  -3   4   51.61    3.34
  -5  -3   4   52.03    3.76
  -5  -3   4   48.97    3.57
  -5   3   4   46.93    3.62
  -5   3   3   10.26    1.61
  -5  -3   3   11.57    1.83
  -5  -3   3    7.03    2.20
  -5  -3   3   13.62    2.19
  -5   3   3   10.07    2.15
  -5   3   2    0.77    1.26
  -5  -3   2    1.39    1.52
  -5  -3   2   -1.51    2.15
  -5  -3   2    2.74    1.99
  -5   3   2    1.21    1.98
  -5   3   1   22.06    2.01
  -5  -3   1   25.97    2.28
  -5  -3   1   19.57    2.71
  -5  -3   1   21.68    2.47
  -5   3   1   19.78    2.67
  -5   3   0   23.13    1.99
  -5  -3   0   23.73    2.30
  -5  -3   0   19.85    2.76
  -5  -3   0   20.52    2.45
  -5   3   0   21.19    2.51
  -5   3  -1    1.14    1.21
  -5  -3  -1    2.06    1.58
  -5   3  -1    5.76    1.89
  -5  -3  -1    2.76    2.14
  -5  -3  -1    1.86    1.85
  -5   3  -1    3.44    2.00
  -5   3  -2    2.19    1.20
  -5  -3  -2    6.70    1.66
  -5   3  -2    3.12    1.77
  -5  -3  -2    5.76    2.23
  -5  -3  -2    1.92    1.82
  -5   3  -2    2.97    1.97
  -5  -3  -3   93.74    2.96
  -5  -3  -3  103.63    3.64
  -5  -3  -3   96.13    3.33
  -5   3  -3   92.91    3.38
  -5   3  -4    0.14    0.49
  -5  -3  -4    0.54    1.36
  -5  -3  -4    3.82    2.04
  -5  -3  -4    2.83    1.74
  -5   3  -4    1.12    1.76
  -5  -3  -5    5.07    1.46
  -5   3  -5    7.45    1.77
  -5  -3  -5    5.90    2.04
  -5  -3  -5    5.88    1.87
   5   3   5    1.87    1.90
  -5   3  -5    3.02    1.79
  -5  -3  -6  296.99   14.97
  -5   3  -6  298.29   15.08
  -5  -3  -6  330.42   15.36
  -5  -3  -6  319.36   15.15
   5   3   6  276.44   15.03
  -5   3  -6  300.37   15.17
  -5  -3  -7    9.02    1.43
  -5   3  -7   10.96    1.63
  -5  -3  -7   11.18    2.05
  -5  -3  -7    9.37    1.81
   5   3   7    8.32    1.88
  -5   3  -7   12.30    1.82
  -5  -3  -8    4.83    1.09
  -5  -3  -8   11.54    1.86
  -5  -3  -8    9.01    1.59
   5   3   8    8.38    1.56
  -5   3  -8    9.73    1.67
  -5  -3  -9   19.20    2.01
  -5  -3  -9   15.20    1.75
  -5   3  -9   18.20    1.82
  -5  -3 -10    6.83    1.45
  -5  -3 -10    4.99    1.22
  -5   3 -10    4.90    1.21
  -6   0  18    1.15    1.10
  -6   0  17    1.94    1.35
  -6   0  16  211.76   10.68
   6   0 -16  203.03   10.44
  -6   0  15    0.61    1.68
   6   0 -15    1.09    1.52
  -6   0  14    3.40    1.96
   6   0 -14    3.83    1.67
  -6   0  13   -1.12    1.97
  -6   0  12  201.66   10.89
  -6   0  11   -0.28    2.27
  -6   0  10   15.67    2.61
  -6   0   9    3.11    2.29
  -6   0   8  870.25   42.81
   6   0  -7    0.80    3.53
  -6   0   7   -2.81    3.77
  -6   0   7    0.15    2.21
  -6   0   6 1609.39   81.52
  -6   0   6 1619.16   79.54
   6   0  -6 1813.80   81.86
  -6   0   6 1607.47   79.46
   6   0  -5    1.94    3.48
  -6   0   5    2.05    3.03
  -6   0   5    0.40    3.59
  -6   0   5    0.45    2.27
  -6   0   4   59.53    4.59
   6   0  -4   48.21    5.72
  -6   0   4   47.99    6.05
  -6   0   4   54.18    4.21
  -6   0   4   52.46    4.54
   6   0  -3    2.54    3.37
  -6   0   3   -1.09    2.86
  -6   0   3    3.55    3.25
  -6   0   3   -2.52    2.13
  -6   0   3    1.41    2.68
  -6   0   2  267.38   13.64
   6   0  -2  265.49   15.13
  -6   0   2  241.84   13.47
  -6   0   2  247.06   13.69
  -6   0   2  253.83   15.48
  -6   0   1    3.08    2.80
  -6   0   1    3.14    3.14
  -6   0   1   -1.46    2.20
  -6   0   1    2.08    2.61
  -6   0   0  135.23    7.99
  -6   0   0  131.13    7.79
  -6   0   0  132.99    8.06
  -6   0  -1    0.61    2.77
  -6   0  -1    0.73    2.18
  -6   0  -1   -5.66    2.89
  -6   0  -2   22.62    3.35
  -6   0  -2   20.46    2.91
  -6   0  -2   23.42    5.01
  -6   0  -2   21.18    3.33
  -6   0  -3    3.08    2.67
  -6   0  -3    0.42    4.06
  -6   0  -3   -0.84    2.54
  -6   0  -4  627.79   29.96
  -6   0  -4  575.39   31.90
  -6   0  -4  577.73   29.92
  -6   0  -5    2.15    2.71
  -6   0  -5   -0.29    1.59
  -6   0  -6    6.38    2.87
  -6   0  -6    3.62    1.93
  -6   0  -7    0.30    2.67
  -6   0  -7    1.66    1.84
  -6   0  -8  550.50   26.48
  -6   0  -8  510.27   25.97
  -6   0  -9    2.22    2.45
  -6   0  -9   -0.52    1.76
  -6   0 -10   20.08    2.99
  -6   0 -10   21.34    2.42
  -6   0 -11    3.00    2.28
  -6   0 -11    2.16    1.85
  -6   0 -12   14.97    2.43
  -6   0 -12   14.12    1.94
  -6   0 -13    1.87    1.88
  -6   0 -13    1.46    1.47
  -6   0 -14    2.95    1.71
  -6   0 -14    3.56    1.41
  -6   0 -15    1.02    1.31
  -6   0 -15    0.88    1.15
  -6  -1  17   67.19    3.79
  -6   1  17   75.61    3.87
  -6  -1  16   -0.06    1.09
  -6   1  16   -0.49    1.20
  -6  -1  16    1.06    1.44
  -6   1  16    0.14    1.28
  -6   1  15   13.61    1.28
  -6  -1  15   19.00    1.71
  -6   1  15   13.68    1.62
  -6  -1  15   14.96    1.96
  -6   1  15   12.45    1.79
  -6   1  14    6.13    1.22
  -6  -1  14    7.42    1.61
  -6   1  14   10.90    1.71
  -6  -1  14   12.46    2.07
  -6   1  14    9.11    1.86
  -6   1  13    2.07    1.18
  -6  -1  13    0.64    1.56
  -6  -1  13    2.63    1.73
  -6   1  13    3.50    1.72
  -6  -1  13    0.86    1.99
  -6   1  13    1.76    1.90
  -6   1  12   22.16    1.92
  -6   1  12   22.69    2.46
  -6  -1  12   21.84    2.34
  -6  -1  12   23.82    2.42
  -6  -1  12   21.71    2.82
  -6   1  12   21.03    2.64
  -6   1  11    9.43    1.41
  -6  -1  11    9.27    1.97
  -6  -1  11   10.92    2.13
  -6   1  11   11.44    2.13
  -6  -1  11    7.09    2.36
  -6   1  11   13.17    2.41
  -6   1  10  105.95    5.85
  -6  -1  10  113.65    6.43
  -6   1  10  124.92    6.54
  -6  -1  10  107.10    6.37
  -6  -1  10  100.68    6.63
  -6   1  10  105.26    6.58
  -6   1  10  111.36    6.34
  -6   1   9  126.26    6.66
  -6  -1   9  135.63    7.30
  -6   1   9  127.24    7.32
  -6  -1   9  118.73    7.21
  -6  -1   9  127.41    7.55
  -6   1   9  124.50    7.51
  -6   1   9  129.05    7.15
  -6   1   8  162.35    8.48
  -6  -1   8  155.42    9.09
  -6   1   8  169.47    9.18
  -6  -1   8  162.62    9.07
  -6  -1   8  173.82    9.45
  -6   1   8  169.48    9.43
  -6   1   8  175.38    9.05
  -6  -1   7  221.45   11.85
  -6   1   7  223.10   11.90
  -6  -1   7  221.03   11.80
  -6  -1   7  224.55   12.09
  -6   1   7  222.74   12.12
  -6   1   7  226.70   11.74
  -6  -1   6   55.79    4.06
  -6   1   6   57.53    4.17
  -6  -1   6   52.11    4.03
  -6  -1   6   63.31    4.52
  -6   1   6   57.15    4.49
  -6   1   6   53.65    4.09
  -6  -1   5   55.80    4.20
  -6   1   5   56.64    4.22
  -6  -1   5   56.70    4.06
  -6  -1   5   58.85    4.54
  -6   1   5   59.29    4.48
  -6   1   5   60.55    4.19
  -6   1   4  195.81   12.62
  -6  -1   4  181.14   12.40
  -6  -1   4  209.55   10.96
  -6   1   4  193.23   10.91
  -6  -1   4  191.23   10.74
  -6   1   4  204.14   10.85
  -6  -1   4  203.16   10.70
  -6  -1   4  191.77   11.01
  -6   1   4  196.48   11.01
  -6   1   4  216.28   10.69
   6   1  -3    5.66    4.05
   6  -1  -3   10.13    3.83
  -6   1   3    8.69    3.50
  -6  -1   3    9.63    3.58
  -6  -1   3   14.37    2.80
  -6   1   3   10.78    2.78
  -6  -1   3   12.96    2.23
  -6   1   3   13.50    2.52
  -6  -1   3   17.84    2.38
  -6  -1   3   14.68    2.79
  -6   1   3   13.90    2.74
  -6   1   3   10.73    2.34
   6   1  -2   34.62    5.59
  -6  -1   2   39.57    3.58
  -6   1   2   38.32    3.63
   6  -1  -2   36.47    5.01
  -6   1   2   31.08    4.75
  -6  -1   2   30.32    4.64
  -6  -1   2   39.79    3.30
  -6   1   2   33.41    3.31
  -6  -1   2   39.19    3.22
  -6  -1   2   38.32    3.67
  -6   1   2   38.16    3.67
  -6   1   2   39.39    3.25
   6   1  -1  263.10   16.76
  -6  -1   1  267.67   14.17
  -6   1   1  283.58   14.24
  -6  -1   1  268.94   14.04
  -6   1   1  266.27   14.09
  -6  -1   1  278.62   13.99
  -6  -1   1  256.41   14.24
  -6   1   1  262.48   14.26
  -6   1   1  269.36   13.91
   6   1   0   -1.45    3.85
  -6  -1   0    1.95    2.40
  -6   1   0    3.12    2.48
  -6  -1   0   -0.66    2.04
  -6   1   0    2.55    1.98
  -6  -1   0    1.32    1.95
  -6  -1   0   -1.09    2.53
  -6   1   0    0.31    2.34
  -6   1   0   -0.12    2.03
   6   1   1  111.37    9.40
  -6  -1  -1  121.00    6.92
  -6   1  -1  112.83    6.89
  -6  -1  -1  109.41    6.58
  -6  -1  -1  111.23    6.99
  -6   1  -1  110.37    6.96
  -6   1  -1  116.06    6.63
  -6  -1  -2   20.73    2.95
  -6   1  -2   20.17    3.06
  -6  -1  -2   22.08    2.62
  -6  -1  -2   18.65    2.90
  -6   1  -2   18.67    2.90
  -6   1  -2   23.62    2.76
  -6  -1  -3  373.38   18.33
  -6   1  -3  368.55   18.37
  -6  -1  -3  336.27   17.86
  -6  -1  -3  361.69   18.11
  -6  -1  -3  349.58   18.35
  -6   1  -3  340.16   18.38
  -6   1  -3  378.12   18.15
  -6  -1  -4   20.13    2.91
  -6   1  -4   22.68    2.89
  -6  -1  -4   16.15    2.44
  -6  -1  -4   20.98    2.54
  -6   1  -4   18.61    2.56
  -6  -1  -5   13.66    2.62
  -6   1  -5   10.14    2.65
  -6  -1  -5   10.29    2.19
  -6  -1  -5    8.54    2.27
  -6   1  -5   11.35    2.21
  -6  -1  -6   79.84    5.28
  -6   1  -6   80.12    5.23
  -6  -1  -6   76.79    4.94
  -6  -1  -6   77.50    4.96
  -6   1  -6   80.92    5.05
  -6  -1  -7   10.00    2.46
  -6   1  -7    8.93    2.45
  -6  -1  -7   10.00    2.12
  -6   1  -7    7.30    1.59
  -6  -1  -7    5.18    1.88
  -6   1  -7   10.60    2.18
  -6  -1  -8   13.51    2.51
  -6   1  -8   17.64    2.57
  -6  -1  -8   17.60    2.38
  -6   1  -8   11.27    1.84
  -6  -1  -8   11.41    2.12
  -6   1  -8   13.32    2.27
  -6  -1  -9   32.32    2.91
  -6   1  -9   32.86    3.00
  -6  -1  -9   32.15    2.78
  -6   1  -9   26.05    2.32
  -6   1  -9   33.24    2.64
  -6  -1 -10   10.77    2.12
  -6   1 -10    9.32    2.11
  -6  -1 -10    9.67    2.18
  -6   1 -10    4.79    1.62
  -6   1 -10    7.74    1.81
  -6  -1 -11   11.36    2.09
  -6   1 -11   11.70    2.15
  -6  -1 -11   12.30    2.03
  -6   1 -11    9.82    1.69
  -6   1 -11   17.22    1.97
  -6  -1 -12    3.09    1.57
  -6   1 -12    1.29    1.68
  -6  -1 -12    3.62    1.71
  -6   1 -12    2.23    1.39
  -6   1 -12    0.92    1.09
  -6  -1 -13    2.58    1.43
  -6   1 -13    0.39    1.35
  -6  -1 -13    2.57    1.55
  -6   1 -13    3.61    1.27
  -6   1 -13   -0.45    0.67
  -6  -1 -14   67.81    3.63
  -6   1 -14   57.23    3.42
  -6  -2  14   29.53    2.14
  -6   2  13   10.06    1.16
  -6  -2  13    9.20    1.58
  -6   2  12    3.18    1.01
  -6  -2  12    3.62    1.60
  -6   2  11   17.52    1.36
  -6  -2  11   15.33    1.97
  -6   2  10   61.55    2.06
  -6  -2  10   56.63    2.82
  -6   2  10   63.62    2.85
  -6   2   9    0.58    1.13
  -6  -2   9   -0.14    0.86
  -6   2   9    2.63    1.91
  -6   2   8    9.76    1.35
  -6  -2   8    7.46    2.08
  -6   2   8   11.00    2.19
  -6   2   7   22.66    1.77
  -6  -2   7   19.67    2.45
  -6  -2   7   14.77    1.90
  -6   2   7   23.26    2.61
  -6   2   6    1.07    0.87
  -6  -2   6    2.90    2.09
  -6  -2   6    1.27    1.49
  -6   2   6    2.38    2.10
  -6  -2   5   41.60    2.88
  -6  -2   5   40.17    2.25
  -6   2   5   46.23    2.93
  -6  -2   4   12.20    2.22
  -6  -2   4    8.69    1.67
  -6   2   4   10.08    2.17
  -6  -2   3    5.02    2.14
  -6  -2   3    2.49    1.61
  -6   2   3    4.57    2.10
  -6  -2   2    3.64    2.14
  -6  -2   2    2.39    1.69
  -6   2   2    4.86    2.07
  -6  -2   1   -0.63    2.13
  -6  -2   1   -1.06    1.64
  -6   2   1    0.46    1.92
  -6  -2   0    2.48    2.14
  -6  -2   0   -0.09    1.56
  -6   2   0    5.79    2.25
  -6  -2  -1    8.22    2.24
  -6  -2  -1    7.63    1.67
  -6   2  -1    9.05    2.25
  -6  -2  -2   18.20    2.52
  -6  -2  -2   14.32    1.92
  -6   2  -2   19.30    2.52
  -6  -2  -3   40.75    3.14
  -6  -2  -3   49.73    3.62
  -6  -2  -3   43.28    3.06
  -6   2  -3   42.26    3.42
  -6  -2  -4  191.06    8.75
  -6  -2  -4  210.80    9.11
  -6   2  -4  204.19    9.08
  -6  -2  -5   19.30    2.06
  -6  -2  -5   23.37    2.45
  -6   2  -5   23.77    2.39
  -6  -2  -6  121.32    3.54
  -6  -2  -6  126.13    3.84
  -6   2  -6  128.25    3.79
  -6  -2  -7   75.31    2.84
  -6  -2  -7   80.49    3.18
  -6   2  -7   82.39    3.06
  -6  -2  -8    1.82    1.65
  -6  -2  -8    2.67    1.73
  -6  -2  -8    0.05    0.46
  -6   2  -8    0.34    1.69
  -6  -2  -9   16.82    1.99
  -6  -2  -9   17.59    2.09
  -6   2  -9   13.50    1.98
  -6  -2 -10   17.12    1.87
  -6  -2 -10   13.92    1.89
  -6   2 -10   16.98    1.83
  -6  -2 -11    3.20    1.28
  -6   2 -11    2.42    1.29
  -6  -3   7   57.82    3.45
  -6   3   7   60.84    3.40
  -6  -3   6    2.76    1.32
  -6   3   6    3.87    1.29
  -6  -3   5   16.62    1.86
  -6   3   5   21.19    1.82
  -6  -3   4   47.10    3.04
  -6  -3   4   42.82    2.76
  -6   3   4   47.65    2.99
  -6  -3   3   14.79    1.60
  -6   3   3   17.69    1.85
  -6  -3   2   24.04    1.86
  -6   3   2   19.83    2.04
  -6  -3   1  109.19    5.92
  -6   3   1  119.68    6.12
  -6  -3   0    0.59    1.16
  -6   3   0   -1.48    1.49
  -6  -3  -1   -1.46    1.17
  -6   3  -1    1.63    1.38
   6   3   2   20.89    2.19
  -6   3  -2   46.10    2.46
  -6   3  -3  114.39    6.01
  -6   3  -4  152.03    7.74
  -7   0  15    1.23    0.91
  -7   0  14    2.08    1.19
  -7   0  13    2.52    1.35
  -7   0  12    1.95    1.49
  -7   0  11    2.09    1.66
  -7   0  10    1.49    1.62
  -7   0   9    2.34    1.81
  -7   0   8    2.35    1.87
  -7   0   7   81.43    5.11
  -7   0   6    1.91    1.92
  -7   0   5    0.98    1.82
  -7   0   4    1.11    1.95
  -7   0   3  218.00   11.62
  -7   0   3  212.54   11.45
  -7   0   2    1.46    2.51
  -7   0   2    1.75    2.00
  -7   0   1  325.71   16.26
  -7   0   1  303.08   16.11
  -7   0   0    0.39    2.43
  -7   0  -1  282.27   14.68
  -7   0  -2    1.77    2.34
  -7   0  -3   -0.37    2.28
  -7   0  -4    1.67    2.26
  -7   0  -5    4.69    2.26
  -7   0  -6    3.45    2.04
  -7   0  -7   22.78    2.64
  -7   0  -8    2.56    1.89
  -7   0  -9   27.60    2.57
  -7   0 -10    0.97    1.53
  -7   0 -11   64.91    3.75
  -7   1  13    6.49    1.01
  -7  -1  12   40.11    2.41
  -7   1  12   42.10    2.46
  -7  -1  12   34.18    2.57
  -7   1  12   31.82    2.47
  -7  -1  11    2.37    1.20
  -7   1  11    1.55    1.28
  -7  -1  11    4.34    1.52
  -7   1  11    2.88    1.42
  -7  -1  10  194.00    9.24
  -7   1  10  196.11    9.26
  -7  -1  10  167.47    9.31
  -7   1  10  155.58    9.22
  -7  -1   9  158.60    8.05
  -7   1   9  162.99    8.11
  -7  -1   9  149.47    8.22
  -7   1   9  139.85    8.13
  -7  -1   8   72.29    4.32
  -7   1   8   78.77    4.42
  -7  -1   8   68.94    4.51
  -7   1   8   67.67    4.45
  -7  -1   7   98.68    3.14
  -7   1   7   99.97    3.25
  -7  -1   6  177.34    4.12
  -7   1   6  184.97    4.26
  -7  -1   6  155.81    4.36
  -7   1   6  164.56    4.38
  -7  -1   5    9.27    1.86
  -7   1   5   15.90    1.97
  -7  -1   5    7.61    2.18
  -7   1   5    8.07    2.11
  -7   1   5    0.77    0.90
  -7  -1   4   17.07    2.44
  -7   1   4   21.90    2.47
  -7  -1   3   30.05    2.24
  -7   1   3   33.18    2.51
  -7   1   3   26.36    2.62
  -7  -1   2   55.63    3.16
  -7   1   2   52.85    3.04
  -7   1   1   56.97    3.05
  -7  -1   1   51.94    2.89
  -7  -1   1   37.20    2.83
  -7   1   1   40.04    2.96
  -7  -1   0   20.35    2.48
  -7   1   0   15.93    2.44
  -7  -1   0    7.13    2.23
  -7   1   0    8.36    2.22
  -7   1   0    0.44    0.92
  -7  -1  -1    6.00    2.13
  -7   1  -1    8.03    2.21
  -7  -1  -1    7.25    2.23
  -7   1  -1   12.74    2.30
  -7  -1  -2  146.59    4.12
  -7   1  -2  145.77    4.19
  -7  -1  -3   12.54    2.18
  -7   1  -3   11.63    2.14
  -7  -1  -4   33.97    2.40
  -7   1  -4   28.09    2.36
  -7  -1  -5   26.41    2.21
  -7   1  -5   26.29    2.20
  -7  -1  -6   81.70    4.79
  -7   1  -6   79.91    4.80
  -7  -1  -7   12.19    1.81
  -7   1  -7   11.82    1.82
  -7  -1  -8    0.51    1.34
  -7   1  -8    2.46    1.44
  -7   2   7   43.79    2.74
  -7  -2   6    3.37    1.21
  -7   2   6    4.22    1.36
  -7  -2   5    7.23    1.46
  -7   2   5    9.92    1.53
  -7  -2   4   32.30    2.55
  -7   2   4   44.71    2.70
  -7  -2   3   42.20    2.88
  -7   2   3   44.52    2.92
  -7  -2   2   11.41    1.71
  -7   2   2   15.26    1.81
  -7  -2   1    6.04    1.47
  -7   2   1    8.19    1.61
  -7  -2   0   68.18    4.13
  -7   2   0   76.78    4.20
  -7  -2  -1   19.45    1.95
  -7   2  -1   31.81    2.17
  -7  -2  -2    0.45    0.89
  -7   2  -2    2.00    1.34
  -7   2  -3   85.18    4.68
  -7   2  -4    7.67    1.32
   0   0   0    0.00    0.00


TITL TX941 in P2(1)/n
REM P2(1)/n (#14 in standard setting)
CELL 1.54184   6.619127   3.797013  19.903020  90.0000  94.5919  90.0000
ZERR    9.00   0.000225   0.000113   0.000547   0.0000   0.0028   0.0000
LATT  1
SYMM -x+1/2, y+1/2,-z+1/2
SFAC C H N O
UNIT 9.00 9.00 9.00 9.00
TREF
HKLF 4
END
_computing_structure_solution     'SHELXT 2018/2 (Sheldrick, 2018)'
;
_shelx_hkl_checksum              27859
_olex2_submission_special_instructions 'No special instructions were received'
_oxdiff_exptl_absorpt_empirical_details
;
Empirical correction (ABSPACK) includes:
- Absorption correction using spherical harmonics
- Frame scaling
;
_oxdiff_exptl_absorpt_empirical_full_max 1.499
_oxdiff_exptl_absorpt_empirical_full_min 0.621
loop_
_space_group_symop_operation_xyz
'x, y, z'
'-x+1/2, y+1/2, -z+1/2'
'-x, -y, -z'
'x-1/2, -y-1/2, z-1/2'
loop_
_atom_site_label
_atom_site_type_symbol
_atom_site_fract_x
_atom_site_fract_y
_atom_site_fract_z
_atom_site_U_iso_or_equiv
_atom_site_adp_type
_atom_site_occupancy
_atom_site_site_symmetry_order
_atom_site_calc_flag
_atom_site_refinement_flags_posn
_atom_site_refinement_flags_adp
_atom_site_refinement_flags_occupancy
_atom_site_disorder_assembly
_atom_site_disorder_group
O1 O 0.86299(15) 0.4675(3) 0.60161(5) 0.0336(3) Uani 1 1 d . . . . .
N1 N 0.55912(17) 0.7191(3) 0.61854(5) 0.0240(3) Uani 1 1 d . . . . .
C1 C 0.3958(2) 0.5480(4) 0.48952(6) 0.0227(3) Uani 1 1 d . . . . .
C2 C 0.2788(2) 0.7187(4) 0.53210(7) 0.0244(3) Uani 1 1 d . . . . .
H2 H 0.145928 0.777599 0.517815 0.029 Uiso 1 1 calc R . . . .
C3 C 0.3579(2) 0.8075(4) 0.59812(7) 0.0243(3) Uani 1 1 d . . . . .
C4 C 0.2788(2) 0.9734(4) 0.65163(7) 0.0276(3) Uani 1 1 d . . . . .
H4 H 0.148174 1.062760 0.652330 0.033 Uiso 1 1 calc R . . . .
C5 C 0.4321(2) 0.9833(4) 0.70534(7) 0.0294(3) Uani 1 1 d . . . . .
H5 H 0.419346 1.079336 0.747785 0.035 Uiso 1 1 calc R . . . .
C6 C 0.6018(2) 0.8280(4) 0.68427(7) 0.0279(3) Uani 1 1 d . . . . .
H6 H 0.724754 0.800389 0.709763 0.033 Uiso 1 1 calc R . . . .
C7 C 0.6913(2) 0.5394(4) 0.57909(7) 0.0246(3) Uani 1 1 d . . . . .
loop_
_atom_site_aniso_label
_atom_site_aniso_U_11
_atom_site_aniso_U_22
_atom_site_aniso_U_33
_atom_site_aniso_U_23
_atom_site_aniso_U_13
_atom_site_aniso_U_12
O1 0.0240(6) 0.0457(7) 0.0301(5) -0.0010(5) -0.0039(4) 0.0058(4)
N1 0.0234(6) 0.0258(6) 0.0227(6) 0.0019(4) 0.0013(4) -0.0001(5)
C1 0.0209(7) 0.0237(7) 0.0235(7) 0.0041(5) 0.0010(5) -0.0008(5)
C2 0.0198(7) 0.0258(7) 0.0272(7) 0.0043(5) 0.0004(5) 0.0006(5)
C3 0.0219(7) 0.0242(7) 0.0269(7) 0.0037(5) 0.0029(5) -0.0004(5)
C4 0.0266(7) 0.0274(7) 0.0294(7) 0.0008(6) 0.0061(6) 0.0006(6)
C5 0.0338(8) 0.0297(7) 0.0251(7) -0.0016(6) 0.0050(6) -0.0028(6)
C6 0.0297(8) 0.0302(7) 0.0232(7) 0.0010(6) -0.0015(5) -0.0029(6)
C7 0.0222(7) 0.0257(7) 0.0258(7) 0.0040(5) 0.0015(5) -0.0007(5)
loop_
_atom_type_symbol
_atom_type_description
_atom_type_scat_dispersion_real
_atom_type_scat_dispersion_imag
_atom_type_scat_source
C C 0.0181 0.0091 'International Tables Vol C Tables 4.2.6.8 and 6.1.1.4'
H H 0.0000 0.0000 'International Tables Vol C Tables 4.2.6.8 and 6.1.1.4'
N N 0.0311 0.0180 'International Tables Vol C Tables 4.2.6.8 and 6.1.1.4'
O O 0.0492 0.0322 'International Tables Vol C Tables 4.2.6.8 and 6.1.1.4'
loop_
_geom_angle_atom_site_label_1
_geom_angle_atom_site_label_2
_geom_angle_atom_site_label_3
_geom_angle
_geom_angle_site_symmetry_1
_geom_angle_site_symmetry_3
_geom_angle_publ_flag
C6 N1 C3 108.71(11) . . ?
C6 N1 C7 126.06(12) . . ?
C7 N1 C3 125.20(11) . . ?
C1 C1 C7 119.99(15) 3_666 3_666 ?
C2 C1 C1 121.04(15) . 3_666 ?
C2 C1 C7 118.97(12) . 3_666 ?
C1 C2 C3 120.41(12) . . ?
N1 C3 C2 118.96(12) . . ?
C4 C3 N1 107.26(12) . . ?
C4 C3 C2 133.78(13) . . ?
C3 C4 C5 107.62(13) . . ?
C6 C5 C4 108.33(13) . . ?
C5 C6 N1 108.06(12) . . ?
O1 C7 N1 120.64(12) . . ?
O1 C7 C1 124.98(13) . 3_666 ?
N1 C7 C1 114.38(12) . 3_666 ?
loop_
_geom_bond_atom_site_label_1
_geom_bond_atom_site_label_2
_geom_bond_distance
_geom_bond_site_symmetry_2
_geom_bond_publ_flag
O1 C7 1.2185(17) . ?
N1 C3 1.4016(18) . ?
N1 C6 1.3795(17) . ?
N1 C7 1.3993(18) . ?
C1 C1 1.455(3) 3_666 ?
C1 C2 1.3574(19) . ?
C1 C7 1.4770(19) 3_666 ?
C2 C3 1.4157(18) . ?
C3 C4 1.3764(19) . ?
C4 C5 1.414(2) . ?
C5 C6 1.364(2) . ?
