#------------------------------------------------------------------------------
#$Date: 2022-03-10 12:14:44 +0200 (Thu, 10 Mar 2022) $
#$Revision: 273601 $
#$URL: file:///home/coder/svn-repositories/cod/cif/8/10/47/8104724.cif $
#------------------------------------------------------------------------------
#
# This file is available in the Crystallography Open Database (COD),
# http://www.crystallography.net/
#
# All data on this site have been placed in the public domain by the
# contributors.
#
data_8104724
loop_
_publ_author_name
'Ma, Ling'
'Yang, Ruoqi'
'Li, Jianqing'
_publ_section_title
;
 The crystal structure of
 6,6&#x2032;-((1E,1&#x2032;E)-hydrazine-1,2-diylidenebis(methaneylylidene))
 bis(2-bromo-4-nitrophenol) --- dimethylsulfoxide (1/2),
 C14H8Br2N4O6&#x22C5;2(C2H6OS)
;
_journal_issue                   4
_journal_name_full
'Zeitschrift f\"ur Kristallographie - New Crystal Structures'
_journal_page_first              823
_journal_page_last               825
_journal_paper_doi               10.1515/ncrs-2021-0079
_journal_volume                  236
_journal_year                    2021
_chemical_formula_moiety         'C14 H8 Br2 N4 O6, 2(C2 H6 O S)'
_chemical_formula_sum            'C18 H20 Br2 N4 O8 S2'
_chemical_formula_weight         644.32
_space_group_crystal_system      triclinic
_space_group_IT_number           2
_space_group_name_Hall           '-P 1'
_space_group_name_H-M_alt        'P -1'
_atom_sites_solution_hydrogens   geom
_cell_angle_alpha                85.578(5)
_cell_angle_beta                 85.942(5)
_cell_angle_gamma                86.310(5)
_cell_formula_units_Z            1
_cell_length_a                   6.1463(12)
_cell_length_b                   8.3637(16)
_cell_length_c                   12.461(3)
_cell_measurement_reflns_used    2265
_cell_measurement_temperature    296(2)
_cell_measurement_theta_max      22.68
_cell_measurement_theta_min      2.85
_cell_volume                     635.9(2)
_computing_cell_refinement       'Bruker SAINT (Bruker, 2012) [1]'
_computing_data_collection       'Bruker APEX3 (Bruker, 2012) [1]'
_computing_data_reduction        'Bruker SAINT (Bruker, 2012) [1]'
_computing_structure_refinement  'SHELXL-2016/6 (Sheldrick, 2015) [4]'
_computing_structure_solution    'SHELXT 2014/5 (Sheldrick, 2015) [3]'
_diffrn_ambient_temperature      296(2)
_diffrn_measured_fraction_theta_full 0.999
_diffrn_measured_fraction_theta_max 0.995
_diffrn_measurement_device_type  'Bruker photon 100'
_diffrn_measurement_method       '\f and \w scans'
_diffrn_radiation_type           MoK\a
_diffrn_radiation_wavelength     0.71073
_diffrn_reflns_av_R_equivalents  0.0682
_diffrn_reflns_av_unetI/netI     0.1020
_diffrn_reflns_Laue_measured_fraction_full 0.999
_diffrn_reflns_Laue_measured_fraction_max 0.995
_diffrn_reflns_limit_h_max       7
_diffrn_reflns_limit_h_min       -7
_diffrn_reflns_limit_k_max       10
_diffrn_reflns_limit_k_min       -10
_diffrn_reflns_limit_l_max       15
_diffrn_reflns_limit_l_min       -15
_diffrn_reflns_number            8435
_diffrn_reflns_point_group_measured_fraction_full 0.999
_diffrn_reflns_point_group_measured_fraction_max 0.995
_diffrn_reflns_theta_full        25.242
_diffrn_reflns_theta_max         26.398
_diffrn_reflns_theta_min         2.447
_diffrn_source                   'sealed tube'
_exptl_absorpt_coefficient_mu    3.400
_exptl_absorpt_correction_T_max  0.7454
_exptl_absorpt_correction_T_min  0.5639
_exptl_absorpt_correction_type   multi-scan
_exptl_absorpt_process_details   sadabs
_exptl_crystal_colour            ' yellow'
_exptl_crystal_density_diffrn    1.682
_exptl_crystal_description       block
_exptl_crystal_F_000             322
_exptl_crystal_size_max          0.300
_exptl_crystal_size_mid          0.250
_exptl_crystal_size_min          0.200
_refine_diff_density_max         0.414
_refine_diff_density_min         -0.408
_refine_diff_density_rms         0.085
_refine_ls_extinction_coef       .
_refine_ls_extinction_method     none
_refine_ls_goodness_of_fit_ref   1.055
_refine_ls_hydrogen_treatment    constr
_refine_ls_matrix_type           full
_refine_ls_number_parameters     167
_refine_ls_number_reflns         2602
_refine_ls_number_restraints     0
_refine_ls_restrained_S_all      1.055
_refine_ls_R_factor_all          0.1261
_refine_ls_R_factor_gt           0.0601
_refine_ls_shift/su_max          0.025
_refine_ls_shift/su_mean         0.001
_refine_ls_structure_factor_coef Fsqd
_refine_ls_weighting_details
'w=1/[\s^2^(Fo^2^)+(0.0382P)^2^] where P=(Fo^2^+2Fc^2^)/3'
_refine_ls_weighting_scheme      calc
_refine_ls_wR_factor_gt          0.0848
_refine_ls_wR_factor_ref         0.0983
_reflns_Friedel_coverage         0.000
_reflns_Friedel_fraction_full    .
_reflns_Friedel_fraction_max     .
_reflns_number_gt                1586
_reflns_number_total             2602
_reflns_threshold_expression     'I > 2\s(I)'
_cod_data_source_file            suppl_j_ncrs-2021-0079_suppl.cif
_cod_data_source_block           sf180410aml-2_a
_cod_database_code               8104724
_shelx_space_group_comment
;
The symmetry employed for this shelxl refinement is uniquely defined
by the following loop, which should always be used as a source of
symmetry information in preference to the above space-group names.
They are only intended as comments.
;
_shelx_estimated_absorpt_t_min   0.429
_shelx_estimated_absorpt_t_max   0.550
_shelx_res_file
;
TITL sf180410aml-2_a.res in P-1
    sf180410aml-2_a.res
    created by SHELXL-2016/6 at 12:35:14 on 11-Apr-2018
CELL  0.71073   6.1463   8.3637  12.4609   85.578   85.942   86.310
ZERR    1.000   0.0012   0.0016   0.0025    0.005    0.005    0.005
LATT 1
SFAC C  H  N  O  S  Br
UNIT 18  20  4  8  2  2
L.S. 10
ACTA
BOND $H
FMAP 2
PLAN 5
HTAB C10 O1
HTAB C7 O3_$1
EQIV $1 -x, -y+1, -z+1
HTAB C6 Br1_$2
EQIV $2 -x+2, -y+2, -z+1
HTAB O1 N2
CONF
SIZE 0.3 0.25 0.2
TEMP 23.000
WGHT    0.038200
FVAR       0.50961   0.41794
BR1   6    0.803639    0.881808    0.370223    11.00000    0.04169    0.05646 =
         0.05572    0.00630    0.00489   -0.01631
PART 1
S1    5    0.149842    0.702369    0.154864    21.00000    0.10359    0.11015 =
         0.07353    0.00487    0.02822    0.00299
PART 2
S1A   5    0.223499    0.602996    0.093316   -21.00000    0.13662    0.09364 =
         0.07527    0.01177    0.03162    0.00991
PART 0
O3    4    0.104478    0.537182    0.192971    11.00000    0.18195    0.13059 =
         0.11606    0.04412    0.05800   -0.00822
N1    3    0.680855    0.822725    0.792162    11.00000    0.07520    0.09007 =
         0.04853   -0.00337   -0.00842   -0.03304
O1    4    0.399747    0.702780    0.395215    11.00000    0.04021    0.06140 =
         0.04687    0.00018   -0.00133   -0.02401
AFIX 147
H1    2    0.297260    0.643909    0.401273    11.00000   -1.50000
AFIX   0
N2    3    0.092093    0.545388    0.495349    11.00000    0.02684    0.03843 =
         0.05225    0.00172   -0.00089   -0.00745
O2    4    0.565416    0.791690    0.872572    11.00000    0.10798    0.16266 =
         0.04527   -0.01809    0.00514   -0.05216
O4    4    0.857023    0.880860    0.792060    11.00000    0.10475    0.14688 =
         0.06971    0.00056   -0.02402   -0.07703
C1    1    0.647259    0.812262    0.499093    11.00000    0.03411    0.03501 =
         0.04435   -0.00332    0.00030   -0.00570
C2    1    0.460680    0.727120    0.492068    11.00000    0.03437    0.03005 =
         0.03693   -0.00229   -0.00256   -0.00186
C3    1    0.347753    0.670342    0.588274    11.00000    0.03090    0.03093 =
         0.04620    0.00264    0.00186   -0.00546
C4    1    0.419940    0.702075    0.686382    11.00000    0.04091    0.04481 =
         0.04145    0.00307    0.00049   -0.00320
AFIX  43
H4    2    0.344511    0.666738    0.750255    11.00000   -1.20000
AFIX   0
C5    1    0.604787    0.786590    0.689101    11.00000    0.04059    0.05238 =
         0.04508   -0.00767   -0.00661   -0.00925
C6    1    0.719146    0.841788    0.595911    11.00000    0.03334    0.03918 =
         0.05697   -0.00585   -0.00247   -0.00953
AFIX  43
H6    2    0.843601    0.898375    0.599224    11.00000   -1.20000
AFIX   0
C7    1    0.156923    0.577700    0.584532    11.00000    0.03069    0.03532 =
         0.04848    0.00474    0.00560   -0.00440
AFIX  43
H7    2    0.081932    0.541919    0.648422    11.00000   -1.20000
AFIX   0
C9    1    0.064967    0.752621    0.036589    11.00000    0.10601    0.22566 =
         0.17142    0.07315   -0.03959   -0.02588
AFIX 137
H9A   2    0.110755    0.669922   -0.010857    11.00000   -1.50000
H9B   2    0.125301    0.851714    0.008777    11.00000   -1.50000
H9C   2   -0.091628    0.766109    0.041511    11.00000   -1.50000
AFIX   0
C10   1    0.429445    0.715145    0.134538    11.00000    0.14642    0.20999 =
         0.08009    0.00683   -0.02892   -0.05708
AFIX 137
H10A  2    0.490694    0.724014    0.202445    11.00000   -1.50000
H10B  2    0.460538    0.808077    0.087158    11.00000   -1.50000
H10C  2    0.492417    0.620443    0.102721    11.00000   -1.50000
AFIX   0
HKLF 4




REM  sf180410aml-2_a.res in P-1
REM R1 =  0.0601 for    1586 Fo > 4sig(Fo)  and  0.1261 for all    2602 data
REM    167 parameters refined using      0 restraints

END

WGHT      0.0355      0.0000

REM Highest difference peak  0.414,  deepest hole -0.408,  1-sigma level  0.085
Q1    1   0.6764  0.8307  0.4083  11.00000  0.05    0.41
Q2    1   0.6991  0.7951  0.2968  11.00000  0.05    0.39
Q3    1   0.2329  0.6461  0.5962  11.00000  0.05    0.34
Q4    1   0.7970  0.9945  0.3024  11.00000  0.05    0.34
Q5    1   0.9139  0.9505  0.4416  11.00000  0.05    0.34
;
_shelx_hkl_file
;
  -1   0   0    3.60    0.90
  -1   0   0    0.90    1.60
   1   0   0    6.30    1.40
   1   0   0    5.70    1.80
  -2   0   0  406.26   12.40
  -2   0   0  394.16   10.30
  -2   0   0  385.56   11.80
   2   0   0  387.36   12.50
   2   0   0  396.06   10.50
   2   0   0  408.36   12.00
  -3   0   0  434.46   15.00
  -3   0   0  448.66   11.90
  -3   0   0  431.16   14.20
   3   0   0  434.96   12.30
   3   0   0  428.56   15.60
   3   0   0  417.36   14.10
  -4   0   0   59.39    6.90
  -4   0   0   48.70    5.00
   4   0   0   64.79    5.40
   4   0   0   72.19    9.40
  -5   0   0  162.88    8.00
  -5   0   0  148.69   12.00
   5   0   0  150.98    8.30
   5   0   0  145.19   14.30
   6   0   0    3.90    5.70
   6   0   0   18.50   12.70
  -7   0   0   12.20   10.50
   7   0   0   -0.10   14.00
   7  -1   0   -7.40   13.60
  -7   1   0    8.60   10.10
   6  -1   0   31.80   14.30
  -6   1   0   56.79    6.80
  -6   1   0   41.10   12.60
   5  -1   0   31.70    9.80
  -5   1   0   37.10    4.50
  -5   1   0   46.20    5.70
  -5   1   0   45.10    8.40
   4  -1   0    0.40    3.20
   4  -1   0    0.00    6.20
  -4   1   0   -2.60    2.70
  -4   1   0    2.80    5.40
  -4   1   0    1.50    2.80
   3  -1   0  486.95   15.40
   3  -1   0  503.85   13.50
   3  -1   0  459.85   17.10
  -3   1   0  502.85   13.40
  -3   1   0  483.95   13.00
  -3   1   0  488.45   17.00
  -3   1   0  476.35   15.30
   2  -1   0  140.19    6.10
   2  -1   0  134.79    7.60
  -2   1   0  131.69    7.30
  -2   1   0  128.79    6.10
  -2   1   0  138.69    5.20
   1  -1   0   89.89    3.20
   1  -1   0   86.59    3.80
   1  -1   0   89.89    5.20
  -1   1   0   89.89    3.70
  -1   1   0   85.49    3.40
  -1   1   0   96.99    4.50
   0  -1   0   12.20    1.20
   0  -1   0   15.30    1.20
  -1  -1   0  271.57   10.00
  -1  -1   0  265.17    8.50
  -1  -1   0  267.87    7.50
   1   1   0  270.07    7.60
   1   1   0  260.87    8.30
   1   1   0  268.57    8.10
   1   1   0  261.57    7.50
  -2  -1   0  585.34   16.40
  -2  -1   0  608.34   15.40
  -2  -1   0  603.64   16.80
   2   1   0  597.54   15.40
   2   1   0  618.94   17.70
   2   1   0  592.74   16.40
   2   1   0  593.34   16.80
  -3  -1   0   51.89    4.10
  -3  -1   0   47.90    5.70
  -3  -1   0   51.99    6.60
   3   1   0   58.39    6.20
   3   1   0   46.00    4.20
   3   1   0   49.00    6.80
  -4  -1   0  124.29    6.60
  -4  -1   0  122.09    8.30
   4   1   0  117.79   10.20
   4   1   0  118.59    6.70
  -5  -1   0  138.69    8.30
  -5  -1   0  129.79   11.70
   5   1   0  148.89   13.70
  -6  -1   0    3.40    8.60
   6   1   0    0.10    9.90
   6   1   0    0.00    5.60
  -7  -1   0   38.40   12.30
   7   1   0   46.80   16.80
   7  -2   0   22.60   16.20
  -7   2   0   28.60   11.70
  -6   2   0   42.40   10.00
   5  -2   0   21.60   10.20
  -5   2   0   20.20    4.30
  -5   2   0   13.60    7.00
  -5   2   0   25.10    4.80
   4  -2   0  111.29   12.90
  -4   2   0  140.29    7.30
  -4   2   0  126.19    6.70
  -4   2   0  123.79    9.30
   3  -2   0   91.39    6.80
   3  -2   0  105.59    9.90
  -3   2   0   95.39    5.80
  -3   2   0   95.29    5.30
  -3   2   0   87.99    6.40
   2  -2   0   16.00    2.50
   2  -2   0   17.30    3.10
   2  -2   0   17.20    5.70
  -2   2   0   16.40    3.40
  -2   2   0   12.20    4.30
  -2   2   0   19.10    3.10
  -2   2   0   16.50    2.80
   1  -2   0 9306.77  208.58
   1  -2   0 9999.00  209.68
   1  -2   0 9336.87  208.38
  -1   2   0 9385.16  208.08
  -1   2   0 9118.89  210.08
  -1   2   0 8866.41  206.18
   0  -2   0  862.51   21.00
   0  -2   0  902.11   20.60
   0  -2   0  950.50   22.00
   0  -2   0  891.81   22.90
   0   2   0  856.81   20.90
   0   2   0  894.51   22.80
   0   2   0  857.71   21.90
  -1  -2   0 1310.67   30.00
  -1  -2   0 1262.47   32.00
  -1  -2   0 1262.77   30.80
   1   2   0 1277.97   29.90
   1   2   0 1256.97   30.80
   1   2   0 1305.37   31.80
  -2  -2   0  494.85   13.70
  -2  -2   0  469.65   15.10
  -2  -2   0  467.35   13.80
   2   2   0  458.05   13.40
   2   2   0  457.15   14.30
   2   2   0  452.15   13.50
   2   2   0  483.45   15.70
  -3  -2   0   24.30    3.80
  -3  -2   0   27.20    5.00
   3   2   0   23.90    4.80
   3   2   0   28.10    4.10
   3   2   0   26.90    6.00
  -4  -2   0  429.26   13.80
  -4  -2   0  418.86   15.70
   4   2   0  411.76   16.50
   4   2   0  341.47   15.10
  -5  -2   0    2.90    5.50
  -5  -2   0    8.60    7.30
   5   2   0    8.30    8.30
   5   2   0    1.60    4.60
  -6  -2   0   43.70   10.30
   6   2   0   52.59   11.90
   6   2   0   41.90    8.10
  -7  -2   0   36.60   11.10
   7   2   0  -13.50   14.90
   7  -3   0   42.40   18.40
  -7   3   0   10.30   11.10
   6  -3   0   19.40   14.30
  -6   3   0    4.20    9.50
   5  -3   0   18.50   11.40
  -5   3   0   -4.80    5.80
  -5   3   0    5.20    5.40
  -5   3   0   -2.30    5.00
   4  -3   0  154.28   15.10
  -4   3   0  132.59    8.40
  -4   3   0  120.89    9.10
  -4   3   0  140.49   10.20
   3  -3   0   -3.10    4.30
   3  -3   0   -0.80    6.20
   3  -3   0    8.80    3.40
  -3   3   0   -1.80    4.10
  -3   3   0   -0.70    3.50
  -3   3   0    1.50    3.60
   2  -3   0  265.07    8.90
   2  -3   0  248.78   12.90
   2  -3   0  248.78    9.00
  -2   3   0  250.97    9.00
  -2   3   0  255.17    9.70
  -2   3   0  263.97   12.00
   1  -3   0   -0.70    3.80
   1  -3   0    0.20    2.40
   1  -3   0    1.80    1.90
  -1   3   0    0.70    2.20
  -1   3   0   -1.50    3.00
  -1   3   0    3.60    3.70
   0  -3   0  541.05   13.60
   0  -3   0  496.55   13.60
   0  -3   0  508.65   16.20
   0  -3   0  518.45   15.00
   0   3   0  505.05   15.20
   0   3   0  515.65   16.00
  -1  -3   0  743.43   20.20
  -1  -3   0  727.43   21.50
  -1  -3   0  717.93   18.40
   1   3   0  759.02   18.40
   1   3   0  740.53   20.30
   1   3   0  728.53   20.80
  -2  -3   0   37.00    5.70
  -2  -3   0   40.40    5.10
  -2  -3   0   46.20    5.30
   2   3   0   46.30    6.10
   2   3   0   43.20    4.80
  -3  -3   0  178.18    9.20
  -3  -3   0  179.68    9.00
   3   3   0  189.28    8.90
   3   3   0  199.48   10.30
   3   3   0  185.98   11.40
   3   3   0  187.78    9.80
  -4  -3   0  173.68   10.70
  -4  -3   0  158.58    9.10
   4   3   0  157.28    9.70
   4   3   0  152.68   11.40
  -5  -3   0   13.20    7.50
   5   3   0   18.60    5.60
   5   3   0   19.80    8.40
  -6  -3   0   83.09   12.60
   6   3   0   86.29   11.00
   6   3   0   64.99   14.00
  -7  -3   0   22.00   11.20
   7   3   0  -10.60   15.60
   6  -4   0    8.20   15.20
  -6   4   0   12.60    9.30
   5  -4   0   29.90   15.70
  -5   4   0   23.50    6.80
  -5   4   0   39.50    8.10
   4  -4   0    6.40   11.20
  -4   4   0   16.00    6.10
  -4   4   0    2.60    6.00
  -4   4   0    6.70    7.00
   3  -4   0   20.80    5.10
   3  -4   0   16.90    9.40
   3  -4   0   28.60    4.90
  -3   4   0   22.90    5.80
  -3   4   0   25.30    4.90
  -3   4   0   26.00    5.90
   2  -4   0 1504.05   42.30
   2  -4   0 1495.85   37.70
   2  -4   0 1513.65   36.60
  -2   4   0 1493.15   38.00
  -2   4   0 1547.15   37.20
   1  -4   0  209.38   11.90
   1  -4   0  201.78    8.90
   1  -4   0  206.98    7.00
  -1   4   0  193.68    9.40
  -1   4   0  196.68    8.20
  -1   4   0  188.28   11.30
   0  -4   0  297.97   11.10
   0  -4   0  319.97    8.90
   0  -4   0  244.18   15.50
   0  -4   0  331.07    9.90
   0   4   0  320.97   11.60
   0   4   0  302.47   12.90
  -1  -4   0   28.90    3.70
  -1  -4   0   34.30    5.30
  -1  -4   0   32.30    6.10
   1   4   0   31.90    4.90
   1   4   0   49.30    6.50
   1   4   0   29.70    3.70
  -2  -4   0    5.40    4.60
  -2  -4   0   -1.80    4.30
  -2  -4   0    5.70    8.30
   2   4   0    0.70    4.20
   2   4   0    2.50    3.50
   2   4   0    6.20    4.40
  -3  -4   0  439.26   15.20
  -3  -4   0  422.56   18.20
   3   4   0  438.16   18.50
   3   4   0  420.06   15.50
   3   4   0  420.36   16.80
  -4  -4   0   12.60    6.70
   4   4   0   10.10    5.90
   4   4   0    6.00    7.00
  -5  -4   0   83.29   10.80
   5   4   0  103.59   13.00
   5   4   0  107.89   10.70
  -6  -4   0   36.80   10.30
   6   4   0   53.59    9.50
   6   4   0   27.00   11.80
  -7  -4   0    8.90   12.20
   7   4   0   25.30   16.10
   6  -5   0   38.70   18.90
  -6   5   0    9.80   10.90
   5  -5   0   15.60   14.00
  -5   5   0   48.00    9.60
  -5   5   0   20.00    8.00
   4  -5   0    8.90   11.30
  -4   5   0    9.50    6.90
  -4   5   0   21.00    6.00
   3  -5   0   82.29   11.50
  -3   5   0   77.19    8.80
  -3   5   0   88.29    8.40
   2  -5   0   22.30    4.30
   2  -5   0   19.20    8.80
  -2   5   0   15.90    5.40
  -2   5   0   30.10    6.40
   1  -5   0  233.28   13.10
   1  -5   0  237.98    8.20
   1  -5   0  235.58    9.00
  -1   5   0  248.48    9.70
  -1   5   0  236.18   11.80
   0  -5   0  211.68    8.10
   0  -5   0  200.08    7.20
   0  -5   0  218.18   12.80
   0   5   0  224.88   11.70
  -1  -5   0  116.39   10.80
  -1  -5   0  112.29    5.90
   1   5   0  113.49    6.10
   1   5   0  115.89    9.80
   1   5   0  106.69    9.40
  -2  -5   0  252.47   10.40
  -2  -5   0  252.47   15.10
   2   5   0  240.28   13.20
   2   5   0  239.18    9.80
   2   5   0  233.78   12.50
  -3  -5   0  123.19    9.00
  -3  -5   0  135.19   14.40
   3   5   0  123.69   10.50
  -4  -5   0   36.40    7.60
   4   5   0   44.80    9.90
   4   5   0   44.60    8.70
  -5  -5   0   80.59   10.70
   5   5   0   90.09   13.60
   5   5   0   67.89    9.50
  -6  -5   0   -7.80   10.20
   6   5   0    0.50    9.70
   6   5   0    1.00   10.90
   5  -6   0    6.00   15.40
  -5   6   0   29.50    9.90
  -5   6   0   19.80    9.60
   4  -6   0  -14.70   11.50
  -4   6   0   10.20    7.60
  -4   6   0   28.30    7.80
   3  -6   0  241.38   19.60
  -3   6   0  240.88   14.80
  -3   6   0  230.18   11.90
   2  -6   0   60.19    6.50
   2  -6   0   53.09   12.30
  -2   6   0   60.09    7.60
  -2   6   0   65.29    9.40
   1  -6   0   94.49   12.50
   1  -6   0   82.89    6.10
   1  -6   0   86.09    5.80
  -1   6   0   81.89    9.80
   0  -6   0   -2.30    7.20
   0  -6   0    5.20    3.50
   0  -6   0    1.00    2.90
   0   6   0    5.80    5.70
  -1  -6   0   24.50    5.20
  -1  -6   0    7.70    8.10
  -1  -6   0    9.30    3.90
   1   6   0   13.20    4.20
   1   6   0    7.40    5.90
  -2  -6   0  163.38   17.20
  -2  -6   0  154.08    9.10
   2   6   0  154.88    8.40
   2   6   0  162.58   12.20
  -3  -6   0   29.80    6.60
  -3  -6   0   23.20   12.00
   3   6   0   19.90    8.20
  -4  -6   0   84.49   14.60
  -4  -6   0   83.59    9.60
   4   6   0   93.99   11.20
   4   6   0   74.99   12.80
  -5  -6   0   33.10    9.10
   5   6   0   16.40   10.80
   5   6   0   17.40    9.30
  -6  -6   0    4.70   10.70
   6   6   0   52.79   11.60
   6   6   0   27.00   15.00
   5  -7   0  -11.90   17.20
  -5   7   0   16.90   10.70
   4  -7   0    7.70   15.40
  -4   7   0   -0.40    9.40
  -4   7   0   25.20    9.10
   3  -7   0   25.70   11.70
  -3   7   0   18.00    9.20
  -3   7   0   30.40    7.90
   2  -7   0   54.09    6.70
   2  -7   0   55.59    7.40
   2  -7   0   51.49   13.40
  -2   7   0   48.10   10.10
  -2   7   0   59.19    7.90
   1  -7   0   29.70    4.30
   1  -7   0   31.00   11.50
   1  -7   0   26.50    4.60
  -1   7   0   26.40    9.30
   0  -7   0   73.29   12.80
   0  -7   0   76.89    6.00
   0  -7   0   69.29    6.60
   0   7   0   71.29   10.90
  -1  -7   0   75.39    8.70
  -1  -7   0   98.49   13.90
   1   7   0   96.59   12.40
  -2  -7   0    3.90    5.10
  -2  -7   0   21.40   13.00
   2   7   0    8.20    8.50
   2   7   0   24.50    6.60
  -3  -7   0   51.99    8.10
  -3  -7   0   66.39   15.60
   3   7   0   68.89   10.70
  -4  -7   0   54.79    9.90
  -4  -7   0   48.70   14.80
   4   7   0   51.29   12.80
   4   7   0   59.59   17.70
  -5  -7   0    1.40   16.80
   5   7   0   24.60   14.00
   5   7   0    5.10   10.60
   4  -8   0   28.00   18.30
  -4   8   0   19.70   16.30
   3  -8   0    8.70   16.40
  -3   8   0    9.10   11.00
   2  -8   0   28.40    5.70
   2  -8   0   -2.30   13.10
  -2   8   0   23.10   11.10
   1  -8   0    4.60    4.80
   1  -8   0   -8.10   11.70
  -1   8   0   14.80    9.70
   0  -8   0    3.20    4.20
   0  -8   0    1.50   11.60
   0   8   0    2.40   10.00
  -1  -8   0   40.90    5.90
  -1  -8   0   31.40   13.40
   1   8   0   59.89   18.70
  -2  -8   0   20.10    6.70
  -2  -8   0   48.90   15.40
   2   8   0   20.40   10.50
  -3  -8   0   50.69    8.70
  -3  -8   0   21.80   15.10
   3   8   0   41.30   12.00
  -4  -8   0    5.30    8.90
  -4  -8   0   17.60   15.30
   4   8   0    8.60   15.10
   4   8   0   -0.30    9.40
  -5  -8   0   19.60   11.40
   5   8   0   30.40   13.70
   5   8   0   -1.50   17.00
   3  -9   0  -23.00   17.70
  -3   9   0    2.10   13.40
   2  -9   0    5.80   16.50
  -2   9   0   -6.90   12.10
   1  -9   0   16.90   16.10
  -1   9   0    0.30   11.60
   0  -9   0   19.40   15.00
   0   9   0   22.50    9.20
  -1  -9   0    6.30   23.40
   1   9   0  -25.70   10.30
  -2  -9   0   13.60   17.10
   2   9   0   32.80   12.40
   3   9   0   -8.60   10.90
  -4  -9   0    6.70   21.50
   4   9   0   13.00   13.30
   4   9   0   -3.00   17.90
   1 -10   0   42.90   20.30
  -1  10   0    6.40   14.70
   0 -10   0  -18.00   21.40
   0  10   0    0.10   13.40
  -1 -10   0   28.00   19.50
   1  10   0   20.70   11.30
  -2 -10   0   27.80   22.40
   2  10   0   17.70   11.00
   2  10  -1   13.00   12.00
  -2 -10   1    1.50   22.30
   1  10  -1    5.70   13.20
  -1 -10   1   25.20   20.20
   0  10  -1   -0.40   13.80
   0 -10   1   -3.10   19.20
  -1  10  -1  -23.30   13.90
   1 -10   1  -19.10   19.10
   4   9  -1   -3.60   17.00
   4   9  -1    9.70   13.70
  -4  -9   1    3.70   21.00
   3   9  -1   49.30   13.50
  -3  -9   1   43.30   21.20
   2   9  -1    3.90   11.30
  -2  -9   1    7.90   17.50
   1   9  -1   19.30   12.50
  -1  -9   1   48.70   17.80
   0   9  -1   17.60   12.60
   0  -9   1   26.20   15.30
  -1   9  -1   13.70   12.70
   1  -9   1   10.00   14.90
  -2   9  -1   12.60   12.90
   2  -9   1   40.10   18.70
  -3   9  -1   -5.10   13.80
   3  -9   1   19.20   18.10
   5   8  -1   17.20   18.20
   5   8  -1   24.50   13.10
  -5  -8   1   10.70   10.70
   4   8  -1   22.00   11.20
  -4  -8   1   79.49   30.20
  -4  -8   1   49.10    9.60
   3   8  -1   35.60   11.60
  -3  -8   1   44.90    7.80
  -3  -8   1   20.40   17.60
   2   8  -1   -5.30    7.40
  -2  -8   1   -0.10   15.80
  -2  -8   1   -2.00    5.30
  -1  -8   1   24.80   13.70
  -1  -8   1   26.10    4.80
   0   8  -1    0.30   10.70
   0  -8   1   -6.50   11.90
   0  -8   1   -9.70    3.50
  -1   8  -1    9.40   10.90
   1  -8   1   19.40   13.20
   2  -8   1   24.90   14.60
  -3   8  -1    9.70   12.80
   3  -8   1   13.00   16.10
  -4   8  -1    7.90   14.00
   4  -8   1   41.20   19.20
   5   7  -1   21.10   10.90
   5   7  -1   20.20   18.60
  -5  -7   1    3.90   11.70
   4   7  -1  105.69   16.40
   4   7  -1   96.19   20.30
  -4  -7   1   90.59    9.90
  -4  -7   1   65.99   19.00
   3   7  -1    5.10    8.40
  -3  -7   1   23.50   12.60
  -3  -7   1   20.70    6.50
   2   7  -1  113.09   13.20
   2   7  -1  101.39    8.20
  -2  -7   1  107.89    8.50
  -2  -7   1  133.39   17.10
   1   7  -1   83.99   11.60
  -1  -7   1   92.09   14.00
  -1  -7   1   95.39    7.80
  -1  -7   1   87.09    6.30
   0   7  -1    1.90    6.70
   0  -7   1   12.50    3.00
   0  -7   1   -1.20    7.50
   0  -7   1    1.80    2.90
  -1   7  -1   77.79   11.00
   1  -7   1   60.19   12.70
   1  -7   1   51.09    4.70
   1  -7   1   72.19    5.00
  -2   7  -1    7.60    5.10
  -2   7  -1   -1.50    7.60
   2  -7   1  -14.40   10.80
   2  -7   1    7.80    4.10
  -3   7  -1  -10.10    6.90
  -3   7  -1   -2.50    8.70
   3  -7   1    2.40   12.50
  -4   7  -1    2.20    8.60
  -4   7  -1   20.90   10.90
   4  -7   1   -1.00   15.30
  -5   7  -1   34.50   12.50
   5  -7   1   12.90   19.10
   6   6  -1    1.80   17.30
   6   6  -1   11.70   15.70
  -6  -6   1   21.60   11.50
   5   6  -1   91.29   13.20
   5   6  -1   95.29   15.60
  -5  -6   1   74.19   10.90
   4   6  -1   52.79    9.60
   4   6  -1   28.20   10.60
  -4  -6   1   39.90   14.80
  -4  -6   1   51.39    8.70
   3   6  -1   31.40    8.30
  -3  -6   1   24.70   11.00
  -3  -6   1   21.60    6.10
   2   6  -1  109.99    7.50
   2   6  -1  103.39    9.50
  -2  -6   1  109.99   14.40
  -2  -6   1  102.39    7.90
   1   6  -1   19.20    7.90
   1   6  -1    7.20    3.60
  -1  -6   1   11.10    3.50
  -1  -6   1   11.20    4.20
  -1  -6   1    3.90   10.10
   0   6  -1  101.89   11.30
   0  -6   1  102.49   13.00
   0  -6   1  106.89    5.20
   0  -6   1  105.89    5.00
  -1   6  -1   32.40    8.40
   1  -6   1   30.60    3.50
   1  -6   1   34.20   10.80
   1  -6   1   28.70    3.60
  -2   6  -1    5.90    5.00
  -2   6  -1    1.50    6.70
   2  -6   1    4.30   10.50
   2  -6   1    4.00    4.00
  -3   6  -1  168.68   13.40
  -3   6  -1  154.28   10.20
   3  -6   1  157.18   18.40
   3  -6   1  146.29    9.40
  -4   6  -1   -7.00    7.10
  -4   6  -1   13.90    7.10
   4  -6   1   13.00   12.10
  -5   6  -1   22.10    8.80
  -5   6  -1   14.30    9.60
   5  -6   1   15.20   16.40
   6   5  -1   35.70   14.80
   6   5  -1   32.60   10.40
  -6  -5   1   46.50   11.10
   5   5  -1  136.89   12.60
   5   5  -1  134.89   17.10
  -5  -5   1  145.89   13.60
   4   5  -1    3.90    6.50
   4   5  -1    6.10    8.30
  -4  -5   1    0.30   10.20
  -4  -5   1    1.70    6.70
   3   5  -1  268.07   13.60
  -3  -5   1  255.07   11.50
  -3  -5   1  261.57   17.60
   2   5  -1  202.38   11.90
   2   5  -1  198.78    8.80
  -2  -5   1  191.78   16.30
   1   5  -1    9.30    2.70
   1   5  -1    6.20    5.80
  -1  -5   1    9.30    7.00
  -1  -5   1    6.80    2.80
   0   5  -1  243.18   11.20
   0  -5   1  225.48    7.10
   0  -5   1  239.68   13.70
  -1   5  -1    0.10    4.00
  -1   5  -1    4.80    2.90
   1  -5   1    0.60    2.30
   1  -5   1   -2.60    6.50
   1  -5   1    0.90    2.10
  -2   5  -1   13.90    4.20
  -2   5  -1    8.10    5.90
   2  -5   1    9.60    3.60
   2  -5   1    5.70    8.40
  -3   5  -1   41.90    6.20
  -3   5  -1   55.69    8.80
   3  -5   1   41.30    6.00
   3  -5   1   36.80   11.40
  -4   5  -1   12.80    7.80
  -4   5  -1   23.50    6.60
   4  -5   1   19.20   11.90
  -5   5  -1   35.80    8.80
  -5   5  -1   22.20    8.50
   5  -5   1   28.40   14.40
  -6   5  -1   11.10    9.50
   6  -5   1    0.90   16.30
   7   4  -1   -9.80   14.30
  -7  -4   1   14.50   10.90
   6   4  -1   97.79   11.80
   6   4  -1   60.49   14.30
  -6  -4   1   93.79   12.30
   5   4  -1   22.10    7.10
   5   4  -1   20.40   10.50
  -5  -4   1   35.00    9.10
   4   4  -1   92.99   12.20
   4   4  -1   93.49    8.30
  -4  -4   1   77.19    9.00
   3   4  -1   99.09    8.50
   3   4  -1  104.19   10.50
  -3  -4   1  102.69   12.30
  -3  -4   1  108.29    8.40
   2   4  -1   87.59    9.20
   2   4  -1   86.69    5.90
   2   4  -1   88.59    7.60
  -2  -4   1   74.69   10.20
  -2  -4   1   68.79    7.00
  -2  -4   1   72.89    5.90
   1   4  -1  401.66   15.80
   1   4  -1  389.26   14.40
   1   4  -1  416.06   11.20
  -1  -4   1  426.56   16.90
  -1  -4   1  387.56   13.90
  -1  -4   1  401.46   11.30
   0   4  -1   20.30    4.10
   0   4  -1   15.80    5.70
   0  -4   1   12.60    1.70
   0  -4   1   12.10    4.50
   0  -4   1   15.30    4.20
   0  -4   1   12.40    2.30
  -1   4  -1    6.10    2.60
  -1   4  -1    0.00    5.70
  -1   4  -1    4.50    4.20
   1  -4   1   -0.40    3.30
   1  -4   1    5.90    5.90
  -2   4  -1  537.75   17.30
  -2   4  -1  550.14   15.30
   2  -4   1  485.45   16.50
   2  -4   1  548.65   20.30
   2  -4   1  567.04   15.10
  -3   4  -1    2.40    4.80
  -3   4  -1   -1.80    3.40
  -3   4  -1    9.90    6.50
   3  -4   1    9.50    5.50
   3  -4   1   10.30    4.30
   3  -4   1   -6.00    8.10
  -4   4  -1  109.39    9.40
  -4   4  -1   83.39    9.10
   4  -4   1   76.59   12.30
  -5   4  -1   34.20    8.50
  -5   4  -1   19.50    7.50
   5  -4   1   23.50   12.80
  -6   4  -1   39.00    9.10
   6  -4   1    3.90   14.00
   7   3  -1   20.10   17.50
  -7  -3   1   39.40   11.90
   6   3  -1   82.49   10.30
   6   3  -1   83.29   13.60
  -6  -3   1   63.09   11.20
   5   3  -1   -1.80    8.30
   5   3  -1    2.90    5.30
  -5  -3   1    1.70    7.00
   4   3  -1  450.75   15.20
   4   3  -1  473.55   19.00
  -4  -3   1  411.36   14.90
  -4  -3   1  464.35   16.90
   3   3  -1  223.58    9.60
   3   3  -1  213.28   10.20
   3   3  -1  224.68   13.30
   3   3  -1  237.48   12.10
  -3  -3   1  232.88   10.10
  -3  -3   1  234.68   10.10
  -3  -3   1  230.58   13.50
   2   3  -1   45.40    5.80
   2   3  -1   52.69    7.10
   2   3  -1   50.99    5.00
  -2  -3   1   40.00    7.10
  -2  -3   1   43.10    5.60
  -2  -3   1   49.80    4.50
   1   3  -1  635.34   18.10
   1   3  -1  653.63   19.60
   1   3  -1  639.94   15.90
  -1  -3   1  638.04   16.00
  -1  -3   1  632.74   20.30
  -1  -3   1  616.54   17.80
   0   3  -1   17.80    4.60
   0   3  -1   14.40    3.20
   0  -3   1   17.40    1.70
   0  -3   1   22.90    3.90
   0  -3   1   19.60    2.20
   0  -3   1   17.90    4.50
  -1   3  -1   15.00    2.20
  -1   3  -1   23.70    5.20
  -1   3  -1   22.30    4.10
   1  -3   1   18.20    2.40
   1  -3   1   24.70    3.60
   1  -3   1   21.00    5.80
  -2   3  -1  116.59    5.80
  -2   3  -1  128.59    6.90
  -2   3  -1  121.59    9.30
   2  -3   1  132.59    7.00
   2  -3   1  112.09    9.70
   2  -3   1  117.79    5.80
  -3   3  -1  118.69    7.10
  -3   3  -1  115.79    7.70
  -3   3  -1  120.49    7.10
   3  -3   1  118.09    7.70
   3  -3   1  110.69   10.00
  -4   3  -1  191.48   11.30
  -4   3  -1  180.18    9.60
  -4   3  -1  173.48   11.00
   4  -3   1  190.08   16.10
  -5   3  -1   22.80    7.10
  -5   3  -1   36.90    7.10
  -5   3  -1   17.10    6.30
   5  -3   1   25.70   12.30
  -6   3  -1    9.70    7.00
  -6   3  -1   16.40    9.90
   6  -3   1   31.20   14.00
  -7   3  -1   32.50   12.80
   7  -3   1   -7.50   17.90
   7   2  -1   42.00   15.90
  -7  -2   1   49.80   12.20
   6   2  -1   -4.90   10.10
   6   2  -1   -1.20    6.10
  -6  -2   1   19.30    8.50
   5   2  -1  102.69   12.90
   5   2  -1  109.69    8.30
  -5  -2   1   99.09   10.80
  -5  -2   1  100.59    7.80
   4   2  -1   89.69    6.50
   4   2  -1   93.49   10.40
  -4  -2   1  101.69    6.80
  -4  -2   1   77.69    8.60
   3   2  -1  112.19    9.70
   3   2  -1  124.29    9.10
   3   2  -1  117.29    6.40
   3   2  -1  105.49    7.50
  -3  -2   1  118.69    6.50
  -3  -2   1  125.99    7.50
   2   2  -1  378.96   14.20
   2   2  -1  378.76   11.50
   2   2  -1  386.06   11.80
   2   2  -1  356.86   13.10
  -2  -2   1  373.76   11.40
  -2  -2   1  357.56   13.80
  -2  -2   1  362.86   11.40
   1   2  -1   39.30    5.10
   1   2  -1   39.90    3.20
   1   2  -1   38.80    4.30
  -1  -2   1   38.90    5.40
  -1  -2   1   43.40    3.90
  -1  -2   1   37.10    3.30
   0   2  -1    2.60    2.70
   0   2  -1    3.30    2.20
   0  -2   1    2.50    1.00
   0  -2   1    5.90    0.90
   0  -2   1   -0.10    3.20
   0  -2   1    5.50    2.60
  -1   2  -1 1383.76   35.50
  -1   2  -1 1401.66   32.30
  -1   2  -1 1424.66   33.70
   1  -2   1 1439.26   32.30
   1  -2   1 1418.86   33.60
   1  -2   1 1421.36   35.70
  -2   2  -1    4.70    2.70
  -2   2  -1   -2.20    2.50
  -2   2  -1   -2.90    2.60
  -2   2  -1   -0.80    3.70
   2  -2   1   -0.50    2.30
   2  -2   1    0.50    2.10
   2  -2   1    1.90    4.40
  -3   2  -1  327.37   11.90
  -3   2  -1  317.87   16.10
  -3   2  -1  313.37   11.40
  -3   2  -1  324.87   10.80
   3  -2   1  306.47   14.50
   3  -2   1  334.17   12.20
  -4   2  -1    8.90    5.50
  -4   2  -1   15.40    4.60
   4  -2   1    4.80    8.10
  -5   2  -1   17.70    5.30
  -5   2  -1   27.60    5.90
  -5   2  -1   17.20    7.00
   5  -2   1   20.40   10.90
  -6   2  -1   32.50    6.90
   6  -2   1   28.00   13.20
  -7   2  -1   15.00   11.10
   7  -2   1    7.20   16.50
   7   1  -1   14.80   15.70
  -7  -1   1   34.40   11.20
   6   1  -1   25.50    5.50
   6   1  -1   44.30   13.00
  -6  -1   1    5.20    7.90
   5   1  -1  234.88   16.20
   5   1  -1  248.68   10.10
  -5  -1   1  238.68   14.10
  -5  -1   1  245.38    9.90
   4   1  -1   23.30    3.80
   4   1  -1   21.50    7.20
  -4  -1   1   23.00    3.70
  -4  -1   1   18.20    5.90
   3   1  -1  223.88   11.10
   3   1  -1  216.48    7.50
   3   1  -1  222.28   11.10
   3   1  -1  227.28    9.40
  -3  -1   1  222.38    9.70
  -3  -1   1  227.88    7.70
  -3  -1   1  232.78   10.10
   2   1  -1  840.12   21.70
   2   1  -1  844.92   20.30
   2   1  -1  805.32   22.70
   2   1  -1  855.71   23.80
  -2  -1   1  849.22   21.70
  -2  -1   1  867.81   20.40
  -2  -1   1  810.42   22.60
   1   1  -1  171.88    5.50
   1   1  -1  177.18    7.30
   1   1  -1  176.68    5.70
   1   1  -1  176.48    7.00
  -1  -1   1  158.98    6.30
  -1  -1   1  174.48    5.40
  -1  -1   1  160.78    7.30
   0   1  -1  285.57    7.90
   0  -1   1  292.87    8.80
  -1   1  -1  521.75   13.10
  -1   1  -1  537.25   13.80
  -1   1  -1  503.65   13.40
  -1   1  -1  537.55   14.70
   1  -1   1  554.64   13.20
   1  -1   1  525.95   14.90
   1  -1   1  527.25   13.50
  -2   1  -1  439.26   12.10
  -2   1  -1  433.06   12.80
  -2   1  -1  452.45   14.10
  -2   1  -1  440.06   12.50
   2  -1   1  434.86   14.30
   2  -1   1  465.25   12.80
   2  -1   1  424.56   12.50
  -3   1  -1  627.14   16.90
  -3   1  -1  604.84   19.00
  -3   1  -1  613.34   16.60
  -3   1  -1  624.24   18.10
   3  -1   1  599.44   18.00
   3  -1   1  612.04   17.00
   3  -1   1  587.64   19.70
  -4   1  -1  197.18    8.50
  -4   1  -1  192.68    8.20
  -4   1  -1  194.18   10.80
   4  -1   1  193.98   12.90
   4  -1   1  187.48    9.10
  -5   1  -1  107.59    7.70
  -5   1  -1   90.19   10.50
  -5   1  -1  100.09    8.30
   5  -1   1  109.09    8.90
   5  -1   1  121.99   14.10
  -6   1  -1    9.90    5.40
   6  -1   1    9.90   13.20
  -7   1  -1   16.10   11.30
   7  -1   1    1.90   15.40
   7   0  -1    9.30   14.60
  -7   0   1   -6.20    9.10
   6   0  -1   68.99   14.40
  -6   0   1   74.69   10.10
   5   0  -1   53.49   10.80
   5   0  -1   40.10    4.70
  -5   0   1   38.00    4.40
  -5   0   1   40.00    8.10
   4   0  -1  165.58    6.70
   4   0  -1  172.98   12.20
  -4   0   1  170.38    6.30
  -4   0   1  175.18    9.50
   3   0  -1  370.86   12.90
   3   0  -1  360.66   14.40
   3   0  -1  377.66   10.20
  -3   0   1  362.86   13.40
  -3   0   1  384.06    9.90
  -3   0   1  377.16   13.10
   2   0  -1   12.40    1.50
   2   0  -1   15.80    3.80
   2   0  -1   16.10    2.90
  -2   0   1   14.60    3.60
  -2   0   1   13.30    3.30
  -2   0   1   15.00    1.70
   1   0  -1  191.18    5.80
   1   0  -1  182.38    4.40
   1   0  -1  184.28    6.50
  -1   0   1  171.78    5.80
  -1   0   1  191.18    6.30
  -1   0  -1    1.40    1.60
  -1   0  -1    0.60    1.30
  -1   0  -1    1.60    1.40
   1   0   1    2.90    1.50
   1   0   1    1.90    1.50
   1   0   1    2.00    1.50
  -2   0  -1  703.53   18.50
  -2   0  -1  679.23   17.60
  -2   0  -1  714.73   18.70
   2   0   1  707.73   18.40
   2   0   1  695.43   18.90
   2   0   1  676.63   17.80
  -3   0  -1   50.59    5.70
  -3   0  -1   42.70    5.70
  -3   0  -1   54.89    4.40
   3   0   1   52.79    5.00
   3   0   1   53.89    4.90
   3   0   1   64.39    7.20
  -4   0  -1   49.80    7.10
  -4   0  -1   56.89    5.40
   4   0   1   53.99    8.50
   4   0   1   47.50    5.90
  -5   0  -1   79.79    9.90
  -5   0  -1   78.79    7.60
   5   0   1   86.29   11.30
   5   0   1   63.29    7.00
  -6   0  -1   15.30    5.80
   6   0   1   12.20    9.90
   6   0   1   15.80    6.50
  -7   0  -1   67.49   12.90
   7   0   1   53.99   16.00
   7  -1  -1   13.20   14.50
  -7   1   1    8.50   11.30
   6  -1  -1   64.39   14.00
  -6   1   1   78.79   11.50
   5  -1  -1    0.20    9.20
  -5   1   1   -1.10    2.60
  -5   1   1   -8.60    6.20
  -5   1   1    6.70    3.20
   4  -1  -1   95.79   11.60
  -4   1   1   67.69    8.00
  -4   1   1   95.69    4.40
   3  -1  -1  143.49    8.00
   3  -1  -1  148.49    9.10
  -3   1   1  155.88    8.70
  -3   1   1  152.58    5.00
  -3   1   1  160.88    5.20
  -3   1   1  165.38    8.30
   2  -1  -1  374.86   11.70
   2  -1  -1  381.96   13.10
  -2   1   1  397.16   13.20
  -2   1   1  397.46    9.60
  -2   1   1  386.16   11.80
  -2   1   1  394.16    9.80
   1  -1  -1  298.97    7.50
   1  -1  -1  295.57    8.50
  -1   1   1  299.57    9.50
  -1   1   1  299.47    7.50
  -1   1   1  285.77    8.50
   0  -1  -1   58.69    3.20
   0   1   1   67.29    2.90
   0   1   1   67.59    2.90
  -1  -1  -1 1734.03   40.10
  -1  -1  -1 1700.53   39.90
   1   1   1 1753.52   39.30
   1   1   1 1765.52   39.70
   1   1   1 1765.82   40.70
   1   1   1 1727.83   40.00
  -2  -1  -1 1430.26   34.00
  -2  -1  -1 1408.66   33.50
  -2  -1  -1 1396.56   34.30
   2   1   1 1455.55   34.20
   2   1   1 1372.26   33.80
   2   1   1 1414.56   33.70
  -3  -1  -1  650.73   19.10
  -3  -1  -1  662.03   17.80
  -3  -1  -1  647.14   19.10
   3   1   1  684.73   19.50
   3   1   1  635.44   17.70
   3   1   1  616.74   18.90
  -4  -1  -1  224.18    9.20
  -4  -1  -1  184.18   11.20
  -4  -1  -1  223.18   10.80
   4   1   1  197.48   10.30
   4   1   1  214.58   12.40
  -5  -1  -1   -0.50    7.20
  -5  -1  -1    5.10    4.80
   5   1   1   -1.90    7.90
   5   1   1    3.70    5.60
  -6  -1  -1   85.49   14.60
   6   1   1   78.19    9.40
   6   1   1   76.29   14.20
  -7  -1  -1   43.20   11.10
   7   1   1   -6.70   14.60
   7  -2  -1   10.20   16.80
  -7   2   1   15.00   11.40
   6  -2  -1    6.70   12.60
  -6   2   1   21.10    9.00
   5  -2  -1  122.79   15.60
  -5   2   1  124.69   12.30
  -5   2   1  116.29    6.30
  -5   2   1  135.59    6.40
   4  -2  -1  124.79   13.40
  -4   2   1  122.29    5.80
  -4   2   1  111.89    9.20
  -4   2   1  121.39    5.90
   3  -2  -1   17.70    6.60
   3  -2  -1   19.90    4.60
  -3   2   1   19.10    4.50
  -3   2   1   22.20    2.90
  -3   2   1   20.80    3.00
   2  -2  -1   79.69    4.40
   2  -2  -1   81.79    5.10
  -2   2   1   74.99    6.80
  -2   2   1   82.89    5.10
  -2   2   1   84.79    4.10
   1  -2  -1 1840.82   44.70
   1  -2  -1 1811.22   42.70
   1  -2  -1 1909.71   42.70
  -1   2   1 1844.42   44.40
  -1   2   1 1789.92   42.90
  -1   2   1 1887.71   42.70
   0  -2  -1    3.70    2.70
   0  -2  -1    8.40    2.50
   0  -2  -1    2.70    2.60
   0  -2  -1    3.70    2.50
   0   2   1    5.90    2.80
   0   2   1    5.50    2.70
   0   2   1    2.30    2.80
  -1  -2  -1  604.34   15.70
  -1  -2  -1  584.24   15.80
  -1  -2  -1  544.85   15.00
   1   2   1  576.14   15.60
   1   2   1  587.34   15.40
   1   2   1  599.74   15.10
  -2  -2  -1  198.88    7.80
  -2  -2  -1  193.38    8.00
   2   2   1  197.48    7.80
   2   2   1  205.38    8.60
   2   2   1  197.38    7.80
   2   2   1  196.88    7.50
  -3  -2  -1   23.00    4.90
  -3  -2  -1   28.50    5.10
  -3  -2  -1   19.60    4.00
   3   2   1   16.20    4.90
   3   2   1   16.50    5.40
   3   2   1   20.50    4.10
   3   2   1   15.80    4.60
  -4  -2  -1   39.70    5.40
  -4  -2  -1   42.90    7.60
  -4  -2  -1   47.80    7.50
   4   2   1   43.30    7.40
   4   2   1   44.90    6.10
   4   2   1   58.59    9.10
  -5  -2  -1   77.19   10.20
   5   2   1   72.59   10.30
   5   2   1   72.49    8.50
  -6  -2  -1   86.29   12.60
   6   2   1   81.39   10.50
   6   2   1  111.39   14.80
  -7  -2  -1   23.90   11.00
   7  -3  -1   11.40   17.40
  -7   3   1   30.90   11.70
   6  -3  -1   -1.80   12.40
  -6   3   1   15.20    8.60
   5  -3  -1   35.10   12.10
  -5   3   1    8.30    7.00
  -5   3   1   29.90    4.90
   4  -3  -1   32.50   10.50
  -4   3   1   33.50    6.70
  -4   3   1   31.00    4.50
  -4   3   1   33.40    5.20
   3  -3  -1   94.69    5.70
   3  -3  -1   81.69    9.30
  -3   3   1   89.19    7.50
  -3   3   1  100.29    6.80
  -3   3   1   84.49    5.60
   2  -3  -1   65.29    4.80
   2  -3  -1   73.09    8.50
   2  -3  -1   72.29    5.10
  -2   3   1   66.89    7.80
  -2   3   1   64.29    5.20
  -2   3   1   62.39    5.10
   1  -3  -1    2.30    2.10
   1  -3  -1    2.80    2.50
   1  -3  -1    0.80    4.30
  -1   3   1    2.50    2.70
  -1   3   1   -3.10    3.70
  -1   3   1    3.90    2.90
   0  -3  -1  730.23   19.20
   0  -3  -1  695.23   17.90
   0  -3  -1  651.93   18.60
   0  -3  -1  696.63   19.90
   0   3   1  718.23   19.80
   0   3   1  729.33   19.10
  -1  -3  -1  461.05   14.60
  -1  -3  -1  474.05   14.10
  -1  -3  -1  458.05   13.00
   1   3   1  456.45   14.00
   1   3   1  462.65   14.10
   1   3   1  481.65   13.00
  -2  -3  -1 1149.69   28.80
  -2  -3  -1 1048.00   28.00
  -2  -3  -1 1117.99   29.60
   2   3   1 1089.39   27.90
   2   3   1 1067.09   29.30
   2   3   1 1170.18   29.40
  -3  -3  -1  171.88    9.00
  -3  -3  -1  165.98    9.30
   3   3   1  171.48   10.70
   3   3   1  170.78    8.90
   3   3   1  170.88    8.80
  -4  -3  -1    7.70    6.10
   4   3   1   11.20    7.00
   4   3   1    1.60    6.20
   4   3   1    5.20    5.50
  -5  -3  -1  139.29   12.20
   5   3   1  143.79   11.10
   5   3   1  147.99   13.90
  -6  -3  -1   19.00    9.00
   6   3   1    9.90    7.70
   6   3   1   -9.70   10.70
  -7  -3  -1   18.10   11.40
   7   3   1   -7.60   14.90
   6  -4  -1   64.69   17.70
  -6   4   1   35.10    9.90
   5  -4  -1   27.40   19.80
  -5   4   1   20.60    6.70
  -5   4   1   19.50    8.70
   4  -4  -1   34.40   11.50
  -4   4   1   41.70    7.20
  -4   4   1   38.00    7.90
  -4   4   1   29.10    5.90
   3  -4  -1   85.29    6.70
   3  -4  -1   63.59    9.70
  -3   4   1   73.29    7.10
  -3   4   1   74.89    7.70
   2  -4  -1  293.07   14.20
   2  -4  -1  281.57   10.40
   2  -4  -1  265.67   10.10
  -2   4   1  261.77   11.20
  -2   4   1  287.17   11.60
   1  -4  -1  303.67   10.00
   1  -4  -1  293.67   13.80
   1  -4  -1  306.47   11.30
  -1   4   1  304.97   13.50
  -1   4   1  301.37   11.60
  -1   4   1  301.97   11.30
   0  -4  -1  370.06   12.00
   0  -4  -1  360.96   13.90
   0  -4  -1  354.46   10.80
   0  -4  -1  399.76   13.10
   0   4   1  328.67   12.90
   0   4   1  368.96   13.80
  -1  -4  -1  114.99    8.20
  -1  -4  -1  116.79    7.70
  -1  -4  -1  117.29    6.00
   1   4   1  119.39    7.70
   1   4   1  118.49    5.90
   1   4   1  120.79    7.00
  -2  -4  -1   30.90    6.00
  -2  -4  -1   47.10    5.30
   2   4   1   32.70    5.70
   2   4   1   42.50    5.70
   2   4   1   43.40    5.00
  -3  -4  -1   27.50    7.80
  -3  -4  -1   29.80    6.00
   3   4   1   27.20    5.70
   3   4   1   25.10    6.50
   3   4   1   41.70    6.90
  -4  -4  -1  108.89   10.50
   4   4   1  109.69   10.40
   4   4   1  115.69   11.00
  -5  -4  -1   89.99   11.00
   5   4   1   79.79   10.00
   5   4   1   80.99   10.90
  -6  -4  -1   26.60    9.50
   6   4   1    9.70   11.30
   6   4   1    9.00    7.70
  -7  -4  -1   30.60   14.00
   7   4   1   -4.00   17.80
   6  -5  -1    0.70   13.60
  -6   5   1   34.00   11.50
   5  -5  -1   23.20   14.80
  -5   5   1    4.50    6.90
  -5   5   1   11.60    8.70
   4  -5  -1   10.30    9.60
  -4   5   1   34.70    7.70
  -4   5   1   30.90    7.10
   3  -5  -1   17.80    8.50
  -3   5   1   25.70    6.30
  -3   5   1   34.30    7.20
   2  -5  -1    5.60    8.20
   2  -5  -1   19.00    4.60
  -2   5   1   12.70    5.90
  -2   5   1    3.90    4.90
   1  -5  -1  225.98   10.10
   1  -5  -1  228.88    9.10
   1  -5  -1  253.07   14.20
  -1   5   1  240.78   11.00
  -1   5   1  235.58   11.50
   0  -5  -1  103.39    5.70
   0  -5  -1  114.29    7.10
   0  -5  -1  111.79   10.30
   0   5   1   95.59    8.90
   0   5   1   97.89    9.60
  -1  -5  -1  518.35   15.70
  -1  -5  -1  471.05   14.40
  -1  -5  -1  472.75   19.10
   1   5   1  497.35   17.40
   1   5   1  475.25   17.50
   1   5   1  484.15   14.70
  -2  -5  -1   51.19    6.50
  -2  -5  -1   44.70    9.10
   2   5   1   44.10    7.60
   2   5   1   45.70    7.10
   2   5   1   53.29    6.20
  -3  -5  -1   38.10    8.50
  -3  -5  -1   34.40    6.60
   3   5   1   28.40    8.00
   3   5   1   29.90    7.80
   3   5   1   22.00    7.00
  -4  -5  -1  117.99   10.80
   4   5   1  141.79   13.00
   4   5   1  117.09   11.20
  -5  -5  -1    6.00    7.90
   5   5   1   -6.30    9.10
   5   5   1  -14.50    6.90
  -6  -5  -1   27.10   10.80
   6   5   1   30.70    9.70
   6   5   1   29.20   13.10
   5  -6  -1    4.10   16.40
  -5   6   1   28.70   10.20
   4  -6  -1    7.70   10.00
  -4   6   1   29.20    8.30
  -4   6   1   12.30    7.70
   3  -6  -1   28.20   11.70
  -3   6   1   32.40    7.90
  -3   6   1   36.90    7.70
   2  -6  -1  160.68   16.30
   2  -6  -1  161.38    8.80
  -2   6   1  153.88   10.60
  -2   6   1  150.38   11.40
   1  -6  -1   41.60    5.20
   1  -6  -1   43.60   10.10
  -1   6   1   35.20    8.10
   0  -6  -1  102.59    6.30
   0  -6  -1  118.29   12.70
   0  -6  -1  110.79    7.80
   0   6   1   82.49   10.40
  -1  -6  -1   48.30    6.90
  -1  -6  -1   43.10    5.60
  -1  -6  -1   31.50    9.10
   1   6   1   38.20    8.30
   1   6   1   54.19    6.70
  -2  -6  -1    7.70    5.10
  -2  -6  -1    7.00    9.70
   2   6   1    9.10    7.40
  -3  -6  -1  110.39   13.70
  -3  -6  -1   79.59    9.10
   3   6   1  102.39    9.60
  -4  -6  -1   52.89    9.00
  -4  -6  -1   63.19   13.00
   4   6   1   46.30   10.10
   4   6   1   49.90    9.70
  -5  -6  -1   17.20    9.00
   5   6   1   33.80   10.90
   5   6   1   32.40    9.30
  -6  -6  -1   33.20   11.30
   6   6   1   37.70   11.10
   6   6   1   16.50   12.60
   5  -7  -1  -17.80   16.60
   4  -7  -1    9.80   14.70
  -4   7   1    2.00    8.60
  -4   7   1   -3.50    8.30
   3  -7  -1   10.60   13.90
  -3   7   1   15.30   10.00
  -3   7   1   13.30    8.90
   2  -7  -1   58.29   11.80
   2  -7  -1   57.29    7.90
  -2   7   1   64.59   10.10
  -2   7   1   59.59    9.10
   1  -7  -1   13.80    5.10
   1  -7  -1    5.20    9.70
   1  -7  -1    1.90    4.30
  -1   7   1    1.90    7.90
   0  -7  -1  169.68   16.10
   0  -7  -1  164.48    9.50
   0  -7  -1  160.38    8.20
   0   7   1  174.48   13.70
  -1  -7  -1   14.50    6.50
  -1  -7  -1    7.10    9.80
  -1  -7  -1   19.10    5.50
   1   7   1   17.40    8.50
  -2  -7  -1   20.70    6.20
  -2  -7  -1   34.00   11.60
   2   7   1   22.90    8.60
  -3  -7  -1   81.99   14.10
  -3  -7  -1   65.49    9.20
   3   7   1   59.69   10.40
  -4  -7  -1   25.40   14.40
  -4  -7  -1    0.10    8.80
   4   7   1    7.30   11.10
   4   7   1   12.90   11.10
  -5  -7  -1   23.00    9.90
   5   7   1   39.60   13.60
   5   7   1   54.99   11.20
  -6  -7  -1   19.70   12.40
   6   7   1   29.00   12.60
   4  -8  -1    1.20   18.60
  -4   8   1   -9.60   12.30
   3  -8  -1   36.10   16.20
   3  -8  -1   49.10    9.60
  -3   8   1   12.70   10.70
  -3   8   1   45.80   10.50
   2  -8  -1   19.50   13.20
   2  -8  -1    6.30    6.20
  -2   8   1   -7.30    9.60
   1  -8  -1   28.30   12.40
   1  -8  -1   31.00    5.80
  -1   8   1   35.50   10.70
   0  -8  -1    1.90    4.80
   0  -8  -1   12.80   10.80
   0   8   1    9.70    8.80
  -1  -8  -1   15.20   12.10
  -1  -8  -1    1.40    5.10
   1   8   1  -15.70    8.50
  -2  -8  -1   85.19   15.90
  -2  -8  -1   46.50    7.70
   2   8   1   76.79   12.10
  -3  -8  -1    8.50    7.60
  -3  -8  -1   10.50   13.50
   3   8   1   11.00   10.00
  -4  -8  -1   12.60   16.70
  -4  -8  -1   34.00    9.10
   4   8   1   29.30   11.30
   4   8   1   41.40   14.80
  -5  -8  -1   17.50   11.60
   5   8   1   23.10   11.70
   5   8   1   34.00   15.60
   3  -9  -1   10.70   19.20
  -3   9   1   -8.80   14.50
   2  -9  -1  -19.00   15.20
  -2   9   1   -9.10   11.30
   1  -9  -1   75.29   17.10
  -1   9   1   50.99   12.90
   0   9   1    3.60   10.20
  -1  -9  -1   11.20    7.50
  -1  -9  -1   18.60   16.10
   1   9   1   19.70   12.10
  -2  -9  -1   28.20    7.70
  -2  -9  -1   25.60   16.70
   2   9   1   37.90   12.40
  -3  -9  -1   17.90    8.80
  -3  -9  -1  -18.90   18.50
   3   9   1    7.00   12.90
  -4  -9  -1    2.20   10.40
  -4  -9  -1    9.50   20.00
   4   9   1   43.90   15.80
   4   9   1   28.30   13.00
   1 -10  -1   31.30   18.80
  -1  10   1   -8.30   12.50
   0  10   1   25.70   13.90
  -1 -10  -1  -21.10   17.80
   1  10   1   29.60   13.80
  -2 -10  -1   -5.90   22.20
   2  10   1    2.10   13.00
   1  10  -2    4.90   10.40
  -1 -10   2   -4.50   23.50
   0  10  -2   -1.20   15.30
   0 -10   2   11.90   22.60
  -1  10  -2   20.60   15.50
   1 -10   2   13.10   19.20
   3   9  -2    5.30   13.10
  -3  -9   2  -15.10   18.30
   2   9  -2  -20.00   12.00
  -2  -9   2   14.60   20.20
   1   9  -2   41.20   11.10
  -1  -9   2   80.09   19.30
   0   9  -2   -7.20    9.40
   0  -9   2   -1.30   15.30
  -1   9  -2   -5.00   11.40
   1  -9   2   15.50   17.30
  -2   9  -2   -1.50   13.10
   2  -9   2   26.80   16.80
  -3   9  -2   -9.60   13.70
   3  -9   2   14.10   20.60
  -5  -8   2  -10.30   10.40
   4   8  -2   66.19   17.80
   4   8  -2   25.70   13.40
  -4  -8   2   67.79    9.60
  -4  -8   2   63.79   20.30
   3   8  -2   -7.00   10.40
  -3  -8   2    0.60    6.10
  -3  -8   2    2.10   23.20
   2   8  -2   56.79   12.00
  -2  -8   2   69.29   18.30
   1   8  -2   11.10   10.40
  -1  -8   2   28.10   13.30
   0   8  -2   10.70   11.00
   0  -8   2   19.10   12.90
  -1   8  -2   44.40    9.50
   1  -8   2   49.80   14.10
  -2   8  -2   25.80   11.30
   2  -8   2    5.60   11.60
  -3   8  -2   17.90   12.90
   3  -8   2   13.80   15.50
  -4   8  -2   36.00   15.00
   4  -8   2   44.90   18.80
   5   7  -2   44.10   15.70
   5   7  -2   67.19   11.70
  -5  -7   2   53.89   10.60
   4   7  -2   16.70   16.30
   4   7  -2   31.40   13.80
  -4  -7   2   19.70    7.60
  -4  -7   2   13.80   16.90
   3   7  -2    5.20    9.20
  -3  -7   2   34.40   16.30
  -3  -7   2   12.50    5.70
   2   7  -2  129.19   14.30
  -2  -7   2  182.18   19.60
   1   7  -2    9.80    8.20
  -1  -7   2    2.30    2.80
  -1  -7   2   -4.10    8.30
  -1  -7   2   11.10    3.80
   0   7  -2   60.09   11.20
   0  -7   2   37.90   11.70
  -1   7  -2   41.50    9.90
   1  -7   2   29.70   12.70
  -2   7  -2    9.40    8.60
   2  -7   2   -1.50    2.90
   2  -7   2    3.60   11.10
  -3   7  -2   -7.30    6.60
  -3   7  -2    7.30   10.50
   3  -7   2   11.10   13.80
  -4   7  -2    4.30    9.90
   4  -7   2   -9.50   14.70
  -5   7  -2   16.50   11.90
   5  -7   2   36.80   19.90
   6   6  -2   -0.20   15.20
   6   6  -2   13.80   10.80
  -6  -6   2   43.20   11.90
   5   6  -2  107.79   16.80
   5   6  -2  128.99   12.60
   4   6  -2    0.50    8.50
   4   6  -2  -13.20   10.20
  -4  -6   2   -3.70   12.20
  -4  -6   2    2.90    6.90
   3   6  -2  145.89   12.60
  -3  -6   2  138.39    9.50
  -3  -6   2  137.29   17.00
   2   6  -2    3.10    4.30
   2   6  -2    8.10    7.60
  -2  -6   2    5.00    4.60
  -2  -6   2    4.30   10.10
   1   6  -2   90.49   11.20
   1   6  -2   93.89    5.70
  -1  -6   2   89.79    6.20
  -1  -6   2  102.79   13.80
  -1  -6   2   85.09    5.00
   0   6  -2  150.68   10.90
   0  -6   2  165.78   15.50
   0  -6   2  158.08    4.40
  -1   6  -2    3.90    5.60
   1  -6   2    1.50    1.60
   1  -6   2    2.40    1.90
   1  -6   2   -6.80    9.10
  -2   6  -2  100.39   11.50
  -2   6  -2  109.09    7.30
   2  -6   2  110.89   14.50
   2  -6   2   96.49    6.00
  -3   6  -2   26.80    8.30
  -3   6  -2   28.70    6.10
   3  -6   2   32.40    6.00
   3  -6   2   35.40   12.70
  -4   6  -2    7.90    8.60
  -4   6  -2   22.50    6.80
   4  -6   2   24.10   14.50
  -5   6  -2    5.90    9.20
  -5   6  -2   26.40    8.60
   5  -6   2    1.90   12.40
   6   5  -2   72.39   11.30
   6   5  -2   67.79   17.70
  -6  -5   2   73.79   12.50
   5   5  -2   18.10   11.60
   5   5  -2   11.40    7.40
  -5  -5   2    2.60    7.20
   4   5  -2   66.49    8.90
   4   5  -2   78.89   12.20
  -4  -5   2   65.09   14.10
  -4  -5   2   70.59    8.80
   3   5  -2  196.08   12.20
  -3  -5   2  205.78   17.50
  -3  -5   2  208.48   10.50
   2   5  -2   45.10    7.90
   2   5  -2   41.80    5.00
  -2  -5   2   41.40    4.90
  -2  -5   2   40.20   10.30
   1   5  -2  191.28    6.60
   1   5  -2  185.38   10.30
  -1  -5   2  178.58    6.40
  -1  -5   2  190.28   14.50
   0   5  -2   35.00    7.00
   0  -5   2   33.40    1.70
   0  -5   2   29.70    1.80
   0  -5   2   35.00    7.30
  -1   5  -2   39.60    7.40
   1  -5   2   53.79    9.70
   1  -5   2   49.00    3.10
   1  -5   2   46.40    2.50
  -2   5  -2   47.90    5.30
  -2   5  -2   58.39    8.00
   2  -5   2   52.99    5.00
   2  -5   2   46.50   10.60
  -3   5  -2    4.10    4.50
  -3   5  -2    4.50    6.40
   3  -5   2   -6.30    4.40
   3  -5   2   14.40   10.70
  -4   5  -2   32.70    6.20
  -4   5  -2   42.30    8.30
   4  -5   2   34.80   12.80
  -5   5  -2   10.90    8.30
  -5   5  -2    0.10    7.60
   5  -5   2   -9.80   12.70
  -6   5  -2   -7.80   10.40
   6  -5   2  -14.50   15.40
   7   4  -2    4.40   16.00
  -7  -4   2    4.70   11.60
   6   4  -2   77.99   10.50
  -6  -4   2   80.29   11.70
   5   4  -2   13.90    6.70
   5   4  -2   26.60   11.70
  -5  -4   2   12.90    7.20
   4   4  -2  193.58   11.80
   4   4  -2  235.48   16.40
  -4  -4   2  220.58   12.70
   3   4  -2   -0.80    4.80
   3   4  -2   -7.70    6.80
  -3  -4   2    1.30    4.10
  -3  -4   2   -3.90    7.90
   2   4  -2  280.47   12.20
   2   4  -2  282.87   10.20
  -2  -4   2  281.87    9.90
  -2  -4   2  264.97   15.60
   1   4  -2  298.67   14.20
   1   4  -2  314.57   12.70
   1   4  -2  304.77    8.80
  -1  -4   2  295.87    8.70
  -1  -4   2  309.87   15.40
  -1  -4   2  297.87   11.50
   0   4  -2   56.09    8.10
   0   4  -2   58.89    6.80
   0  -4   2   67.99    5.40
   0  -4   2   61.19    8.50
  -1   4  -2  591.54   15.00
  -1   4  -2  614.64   19.10
   1  -4   2  625.24   14.50
   1  -4   2  602.74   21.60
  -2   4  -2  105.29    5.50
  -2   4  -2  114.59    8.50
   2  -4   2  105.69    5.50
   2  -4   2   93.29   11.30
  -3   4  -2   76.79    8.20
  -3   4  -2   68.89    6.50
   3  -4   2   71.39    6.50
   3  -4   2   75.19   11.90
  -4   4  -2   67.99    8.30
  -4   4  -2   59.59    7.70
   4  -4   2   73.59   12.90
  -5   4  -2    1.40    5.90
  -5   4  -2   -1.50    6.20
   5  -4   2    6.30   11.90
  -6   4  -2   20.30    9.50
  -6   4  -2   28.20   12.10
   6  -4   2   -7.10   13.90
   7   3  -2   33.10   16.30
  -7  -3   2   43.80   12.60
   6   3  -2    7.70    6.90
   6   3  -2  -12.70   11.20
  -6  -3   2   10.80    9.10
   5   3  -2   63.59    7.70
   5   3  -2   70.89   12.40
  -5  -3   2   42.90    7.30
  -5  -3   2   79.89   10.70
   4   3  -2  126.89   12.90
   4   3  -2  127.49    8.60
  -4  -3   2  141.19   10.80
  -4  -3   2  130.29    8.60
   3   3  -2  114.09    7.40
   3   3  -2  120.49    8.10
   3   3  -2  120.19   10.70
  -3  -3   2  113.49    7.40
  -3  -3   2  123.29   12.00
  -3  -3   2  123.29    7.20
   2   3  -2  201.78    8.50
   2   3  -2  196.98   12.30
  -2  -3   2  227.58    9.10
  -2  -3   2  211.88    8.30
  -2  -3   2  232.18   13.10
   1   3  -2   -2.20    3.20
   1   3  -2    5.60    4.80
  -1  -3   2   -0.80    2.90
  -1  -3   2    2.90    3.70
  -1  -3   2   -1.00    1.70
   0   3  -2  260.27   10.20
   0   3  -2  259.17   11.00
   0  -3   2  268.07    9.20
   0  -3   2  252.17   11.50
  -1   3  -2   77.69    3.10
  -1   3  -2   84.09    7.80
   1  -3   2   77.09    3.10
   1  -3   2   74.29    7.70
   1  -3   2   79.09    5.60
  -2   3  -2   43.30    7.10
  -2   3  -2   42.00    3.90
  -2   3  -2   37.00    4.90
  -2   3  -2   35.50    5.50
   2  -3   2   39.30    4.00
   2  -3   2   39.80    5.10
   2  -3   2   38.10    7.20
  -3   3  -2  106.19    8.30
  -3   3  -2  106.09    7.30
  -3   3  -2  107.99    7.30
   3  -3   2  102.29    6.80
   3  -3   2  113.19   10.00
  -4   3  -2   24.20    6.50
  -4   3  -2   28.80    5.70
   4  -3   2   18.00    9.70
  -5   3  -2   74.99    8.80
  -5   3  -2   67.49    9.30
   5  -3   2   53.69   12.30
  -6   3  -2   20.30    7.40
   6  -3   2   17.80   15.90
  -7   3  -2   -0.30   12.50
   7  -3   2   -8.50   19.30
   7   2  -2   22.00   15.10
  -7  -2   2   10.50   10.90
   6   2  -2   26.50   12.10
  -6  -2   2   43.40    9.90
   5   2  -2  132.59   14.50
   5   2  -2  146.89    8.40
  -5  -2   2  132.49    8.10
  -5  -2   2  138.99   11.50
   4   2  -2   13.00    8.00
   4   2  -2    7.00    3.70
  -4  -2   2    8.30    6.10
  -4  -2   2   11.70    4.00
   3   2  -2  623.24   16.80
   3   2  -2  585.74   18.40
   3   2  -2  580.34   21.90
   3   2  -2  622.54   21.10
  -3  -2   2  617.94   18.30
  -3  -2   2  615.64   16.70
   2   2  -2  290.47    9.70
   2   2  -2  309.57   12.80
   2   2  -2  300.47   10.00
  -2  -2   2  302.27    9.80
  -2  -2   2  311.17    9.70
  -2  -2   2  257.87   14.00
   1   2  -2  252.27   11.10
   1   2  -2  263.87    8.80
  -1  -2   2  252.17   11.30
  -1  -2   2  266.77    8.60
  -1  -2   2  258.77    7.60
   0   2  -2 2034.00   46.20
   0   2  -2 1989.00   48.00
   0  -2   2 1876.51   47.70
   0  -2   2 1974.90   46.00
  -1   2  -2   67.79    3.10
  -1   2  -2   72.89    5.10
  -1   2  -2   73.29    4.90
  -1   2  -2   76.49    6.30
   1  -2   2   65.49    5.60
   1  -2   2   60.49    3.30
   1  -2   2   65.99    4.50
  -2   2  -2  754.82   20.80
  -2   2  -2  741.43   19.30
  -2   2  -2  749.82   22.20
  -2   2  -2  771.92   20.40
   2  -2   2  747.03   19.30
  -3   2  -2  263.57   13.10
  -3   2  -2  285.97   10.80
  -3   2  -2  294.77   11.30
   3  -2   2  291.77   14.10
   3  -2   2  291.47   10.80
  -4   2  -2   -1.20    5.10
  -4   2  -2   14.10    4.90
  -4   2  -2    1.10    5.10
   4  -2   2    6.10    8.20
  -5   2  -2   94.79    8.60
  -5   2  -2   81.59    9.80
   5  -2   2   95.59   13.00
  -6   2  -2    9.60    9.60
  -6   2  -2   -3.60    6.60
   6  -2   2   31.50   12.70
  -7   2  -2   19.30   10.80
   7  -2   2  -14.70   15.20
   7   1  -2   -0.60   17.10
  -7  -1   2   27.70   10.70
   6   1  -2   58.49   13.90
  -6  -1   2   69.69   11.30
   5   1  -2   98.79    6.50
   5   1  -2  100.69   13.90
  -5  -1   2  101.99   10.90
  -5  -1   2   94.69    6.00
   4   1  -2   67.49    4.90
   4   1  -2   74.59    9.80
  -4  -1   2   59.99    8.00
  -4  -1   2   61.39    4.50
   3   1  -2  130.69   10.50
   3   1  -2  114.29    5.10
   3   1  -2  128.79    9.60
   3   1  -2  116.19    7.50
  -3  -1   2  117.99    5.00
  -3  -1   2  114.39    8.80
  -3  -1   2  119.29    7.40
   2   1  -2   15.40    4.80
   2   1  -2    9.80    4.20
   2   1  -2   13.30    3.20
  -2  -1   2   13.30    2.20
  -2  -1   2   17.20    3.40
  -2  -1   2   15.80    3.70
   1   1  -2  243.98    9.80
   1   1  -2  234.88    7.40
   1   1  -2  226.48    9.40
  -1  -1   2  234.08    9.90
  -1  -1   2  234.58    7.00
  -1  -1   2  238.98    7.20
   0   1  -2   47.70    2.80
   0   1  -2   49.10    4.10
   0   1  -2   43.70    3.70
   0   1  -2   44.60    2.10
   0  -1   2   41.80    2.50
   0  -1   2   43.40    3.70
  -1   1  -2  421.06   11.10
  -1   1  -2  438.96   12.40
  -1   1  -2  421.96   12.90
  -1   1  -2  432.46   12.20
   1  -1   2  413.96   13.00
   1  -1   2  451.25   12.60
   1  -1   2  447.56   11.10
  -2   1  -2  205.48    7.80
  -2   1  -2  208.98    8.70
  -2   1  -2  214.18    8.20
  -2   1  -2  195.08    7.60
   2  -1   2  209.08    8.10
   2  -1   2  211.38    9.30
   2  -1   2  214.98    7.50
  -3   1  -2   17.30    3.70
  -3   1  -2   18.70    4.80
  -3   1  -2   15.70    5.00
  -3   1  -2   14.40    4.20
   3  -1   2   23.90    6.30
   3  -1   2   19.40    4.40
   3  -1   2   15.90    3.90
  -4   1  -2  199.18    9.80
  -4   1  -2  195.98   10.80
  -4   1  -2  193.98    9.50
   4  -1   2  191.68   12.80
   4  -1   2  204.98    9.80
  -5   1  -2   70.39    9.60
  -5   1  -2   62.99    7.80
  -5   1  -2   71.49    8.60
   5  -1   2   50.99   10.50
   5  -1   2   62.59    8.00
  -6   1  -2   16.20    6.40
  -6   1  -2   20.20   10.20
   6  -1   2   -0.10   10.40
   6  -1   2    4.40    7.70
  -7   1  -2   32.40   10.70
   7  -1   2   29.10   15.60
   7   0  -2    2.50   14.40
  -7   0   2   42.20   12.50
   6   0  -2   49.80   13.70
  -6   0   2   64.99   10.60
   5   0  -2   20.80   10.40
  -5   0   2   36.90    2.80
  -5   0   2   30.60    7.90
   4   0  -2  312.97    8.30
   4   0  -2  302.47   14.80
  -4   0   2  304.87   13.50
  -4   0   2  300.57    8.10
   3   0  -2   23.80    4.90
   3   0  -2   27.00    2.00
   3   0  -2   26.30    5.20
  -3   0   2   25.40    1.90
  -3   0   2   29.50    5.30
  -3   0   2   27.20    4.70
   2   0  -2  856.01   22.30
   2   0  -2  899.11   19.30
   2   0  -2  829.02   23.80
  -2   0   2  853.91   22.40
  -2   0   2  879.71   23.80
   1   0  -2 2739.33   63.09
   1   0  -2 2737.03   61.09
   1   0  -2 2696.33   62.49
   1   0  -2 2719.63   60.39
   1   0  -2 2701.33   61.39
  -1   0   2 2666.53   62.29
  -1   0   2 2722.73   61.39
   0   0  -2   20.20    2.60
   0   0   2   25.70    2.60
   0   0   2   24.90    2.50
   0   0   2   27.10    2.20
  -1   0  -2 2496.25   56.99
  -1   0  -2 2456.55   56.99
  -1   0  -2 2572.74   57.69
   1   0   2 2548.84   57.79
   1   0   2 2563.34   57.09
  -2   0  -2  449.95   13.20
  -2   0  -2  445.46   13.00
  -2   0  -2  456.55   13.00
   2   0   2  449.95   13.00
   2   0   2  443.96   13.30
   2   0   2  434.86   13.10
  -3   0  -2   68.49    5.30
  -3   0  -2   81.49    6.50
  -3   0  -2   78.89    6.50
   3   0   2   69.69    6.10
   3   0   2   81.69    6.50
   3   0   2   75.19    5.70
  -4   0  -2  333.27   12.40
  -4   0  -2  333.67   14.30
  -4   0  -2  330.07   14.00
   4   0   2  346.47   13.20
   4   0   2  338.97   15.30
  -5   0  -2    3.40    6.90
  -5   0  -2    0.70    5.30
   5   0   2  -11.70    8.00
   5   0   2   -1.90    5.90
   6   0   2   43.00    8.90
   6   0   2   66.09   13.50
  -7   0  -2   34.20   11.80
   7   0   2   44.80   17.20
   7  -1  -2   35.40   16.90
  -7   1   2   40.20   12.50
   6  -1  -2   20.20   13.20
  -6   1   2   21.50    8.50
   5  -1  -2   69.69   13.20
  -5   1   2   71.69    9.90
   4  -1  -2   95.79   10.30
  -4   1   2   71.79    8.30
   3  -1  -2    6.30    5.70
  -3   1   2    7.30    4.20
   2  -1  -2  173.08    9.00
   2  -1  -2  173.58    7.30
  -2   1   2  158.68    8.20
  -2   1   2  186.28    7.30
   1  -1  -2   30.40    2.30
   1  -1  -2   29.50    3.70
   1  -1  -2   31.90    3.50
  -1   1   2   29.40    3.40
  -1   1   2   26.60    2.00
  -1   1   2   31.30    4.10
   0  -1  -2  268.87    7.30
   0  -1  -2  279.07    7.50
   0  -1  -2  248.98    8.30
   0   1   2  278.47    7.30
   0   1   2  249.18    8.50
   0   1   2  262.47    7.40
  -1  -1  -2   32.20    3.50
  -1  -1  -2   25.40    2.70
   1   1   2   28.80    3.20
   1   1   2   30.80    1.50
   1   1   2   25.70    2.80
  -2  -1  -2   46.20    3.40
  -2  -1  -2   49.30    4.10
  -2  -1  -2   43.40    4.00
   2   1   2   46.20    4.10
   2   1   2   48.40    3.80
   2   1   2   48.90    4.30
  -3  -1  -2  625.04   17.80
  -3  -1  -2  605.44   17.40
   3   1   2  604.94   17.60
   3   1   2  621.74   18.00
   3   1   2  590.94   18.10
  -4  -1  -2   99.79    8.30
  -4  -1  -2   95.09    6.80
  -4  -1  -2  102.59    9.20
   4   1   2   91.19    7.30
   4   1   2   98.79    8.90
  -5  -1  -2   66.19    9.40
   5   1   2   54.29   10.30
   5   1   2   48.00    7.70
  -6  -1  -2   69.99   13.10
   6   1   2   76.29    9.50
   6   1   2   63.29   13.40
  -7  -1  -2   10.70   11.50
   7   1   2    5.50   14.60
   7  -2  -2   12.30   17.00
  -7   2   2   26.30   12.10
   6  -2  -2   -1.20   12.10
  -6   2   2   33.10   10.20
   5  -2  -2   90.39   13.70
  -5   2   2   77.29   10.00
   4  -2  -2   15.10    8.90
  -4   2   2    5.40    5.50
  -4   2   2    3.90    1.90
   3  -2  -2  243.48   13.50
  -3   2   2  238.08    7.80
  -3   2   2  244.38   10.60
  -3   2   2  246.78    7.10
   2  -2  -2  317.07   13.10
   2  -2  -2  319.57    8.80
   2  -2  -2  324.97   10.90
  -2   2   2  311.77   12.50
  -2   2   2  317.17   15.00
  -2   2   2  333.77    9.60
   1  -2  -2   53.49    4.10
   1  -2  -2   52.79    5.40
   1  -2  -2   43.60    4.00
  -1   2   2   50.89    3.60
  -1   2   2   51.69    4.30
  -1   2   2   52.99    4.40
   0  -2  -2 2202.68   51.79
   0  -2  -2 2112.89   52.19
   0  -2  -2 2379.96   51.49
   0  -2  -2 2119.29   52.79
   0   2   2 2289.37   51.39
   0   2   2 2319.47   51.29
   0   2   2 2191.08   52.19
  -1  -2  -2  150.78    6.20
  -1  -2  -2  152.28    5.60
  -1  -2  -2  154.78    6.20
   1   2   2  148.19    6.80
   1   2   2  155.68    5.20
   1   2   2  160.48    5.90
  -2  -2  -2  273.97   10.00
  -2  -2  -2  287.17   10.00
   2   2   2  284.27    9.80
   2   2   2  282.57    9.70
   2   2   2  287.67    9.50
   2   2   2  291.27    9.60
  -3  -2  -2  608.54   18.60
  -3  -2  -2  592.64   18.00
  -3  -2  -2  619.04   17.80
   3   2   2  603.94   17.60
   3   2   2  599.64   18.10
   3   2   2  637.84   18.90
  -4  -2  -2   20.00    6.20
  -4  -2  -2   16.60    6.40
  -4  -2  -2   22.40    5.40
   4   2   2   18.50    6.30
   4   2   2   23.90    7.30
   4   2   2   11.40    4.80
  -5  -2  -2  132.79   12.40
   5   2   2  177.78   13.80
   5   2   2  135.49   11.00
  -6  -2  -2   80.49   11.70
   6   2   2   86.49   10.70
   6   2   2   77.69   13.20
  -7  -2  -2   40.90   11.80
   7   2   2   14.90   13.60
   7  -3  -2    4.20   18.90
  -7   3   2    3.80   11.40
   6  -3  -2   11.40   14.10
  -6   3   2   16.60    9.40
   5  -3  -2    4.10   11.00
  -5   3   2    5.20    7.30
   4  -3  -2   44.70   11.10
  -4   3   2   45.10    5.20
  -4   3   2   35.40    4.50
  -4   3   2   49.80    7.60
   3  -3  -2  124.29   12.10
   3  -3  -2  116.49    6.00
  -3   3   2  123.59    6.70
  -3   3   2  123.29    8.00
  -3   3   2  120.49    6.00
   2  -3  -2   33.40    6.80
   2  -3  -2   38.30    4.80
   2  -3  -2   32.40    3.80
  -2   3   2   28.70    5.40
  -2   3   2   32.80    3.80
  -2   3   2   31.90    4.60
   1  -3  -2  399.56   14.50
   1  -3  -2  425.06   12.70
   1  -3  -2  411.86   12.40
  -1   3   2  406.26   13.20
  -1   3   2  412.36   12.50
  -1   3   2  411.06   14.10
   0  -3  -2   64.69    5.20
   0  -3  -2   78.59    4.80
   0  -3  -2   64.09    5.40
   0  -3  -2   76.89    5.40
   0   3   2   70.69    5.20
   0   3   2   69.19    5.30
  -1  -3  -2   64.89    5.50
  -1  -3  -2   68.69    5.10
  -1  -3  -2   58.79    4.50
   1   3   2   67.39    4.30
   1   3   2   65.79    4.70
   1   3   2   62.79    4.80
  -2  -3  -2  628.24   18.50
  -2  -3  -2  639.44   19.00
  -2  -3  -2  646.84   18.50
   2   3   2  657.53   17.80
   2   3   2  673.33   18.50
   2   3   2  666.93   18.20
   2   3   2  674.53   19.20
  -3  -3  -2   50.19    6.30
  -3  -3  -2   52.29    6.40
   3   3   2   48.60    6.70
   3   3   2   56.79    5.70
   3   3   2   54.59    6.40
  -4  -3  -2  160.78   11.20
   4   3   2  149.59   10.40
   4   3   2  147.39   11.50
   4   3   2  145.29    9.70
  -5  -3  -2  101.69   11.60
   5   3   2  100.59   12.30
   5   3   2  125.59   10.00
  -6  -3  -2   12.80    9.50
   6   3   2   18.60    7.60
   6   3   2   30.10   11.10
  -7  -3  -2   38.30   11.40
   7   3   2   54.89   15.20
   7   3   2   53.79   12.10
   6  -4  -2    9.40   16.30
  -6   4   2   30.20   11.60
   5  -4  -2   11.40   12.40
  -5   4   2    2.20    4.50
  -5   4   2    7.00    7.80
   4  -4  -2   80.69   12.00
  -4   4   2   86.59    9.00
  -4   4   2   80.09    9.00
  -4   4   2   67.59    6.70
   3  -4  -2   78.09    6.60
   3  -4  -2   81.29   11.70
  -3   4   2   76.29    6.40
  -3   4   2   80.29    8.50
   2  -4  -2   -2.70    6.70
   2  -4  -2    2.80    3.30
   2  -4  -2   -4.70    3.40
  -2   4   2    7.50    4.10
  -2   4   2   -2.10    4.20
   1  -4  -2  357.46   12.60
   1  -4  -2  378.86   15.30
   1  -4  -2  381.06   12.50
  -1   4   2  366.86   14.50
  -1   4   2  368.86   13.20
  -1   4   2  365.36   13.60
   0  -4  -2   10.30    5.10
   0  -4  -2   10.90    3.50
   0  -4  -2    6.90    3.80
   0  -4  -2    5.70    4.00
   0   4   2    9.00    4.90
   0   4   2    7.10    4.10
  -1  -4  -2  245.68   11.00
  -1  -4  -2  256.57    9.60
  -1  -4  -2  263.57   11.40
   1   4   2  253.27    9.70
   1   4   2  265.67   10.50
   1   4   2  265.37   10.50
  -2  -4  -2  203.88   10.40
  -2  -4  -2  228.18   10.00
   2   4   2  214.58    9.80
   2   4   2  213.18    9.10
   2   4   2  220.18    9.70
  -3  -4  -2   93.19    8.60
  -3  -4  -2   98.09    8.30
   3   4   2   90.59    7.80
   3   4   2  122.99    9.20
   3   4   2   84.89    8.50
  -4  -4  -2  218.48   13.00
   4   4   2  225.38   13.90
   4   4   2  213.08   12.20
   4   4   2  216.28   12.80
  -5  -4  -2   56.89    9.70
   5   4   2   61.39    9.60
   5   4   2   68.99    9.00
  -6  -4  -2  126.19   14.00
   6   4   2   83.99   13.20
   6   4   2  109.09   13.80
  -7  -4  -2   23.60   12.20
   7   4   2   38.80   12.50
   7   4   2    6.70   14.20
   6  -5  -2  -13.50   17.50
  -6   5   2   20.00   10.90
   5  -5  -2   -0.40   10.70
  -5   5   2   18.30    9.20
   4  -5  -2    5.90   11.40
  -4   5   2   28.60    6.20
  -4   5   2   17.10    9.00
  -4   5   2   15.70    7.90
   3  -5  -2   25.40   10.20
   3  -5  -2   37.60    6.80
  -3   5   2   41.40    6.80
  -3   5   2   44.50    7.60
   2  -5  -2  142.79   14.20
  -2   5   2  129.89    9.60
  -2   5   2  125.69    8.90
   1  -5  -2   12.00    4.20
   1  -5  -2    2.60    4.60
   1  -5  -2    6.80    6.30
  -1   5   2    7.90    5.50
  -1   5   2    9.40    5.40
   0  -5  -2  125.49   10.00
   0  -5  -2  125.69    7.80
   0   5   2  111.59    8.70
   0   5   2  116.79    9.30
  -1  -5  -2  395.96   13.30
  -1  -5  -2  424.06   14.50
   1   5   2  387.56   15.40
   1   5   2  412.86   15.50
   1   5   2  404.46   13.90
  -2  -5  -2   -0.90   10.50
  -2  -5  -2    8.30    4.90
   2   5   2    2.30    5.90
   2   5   2   -2.30    5.90
  -3  -5  -2  221.68   14.20
  -3  -5  -2  192.48   10.90
   3   5   2  208.48   12.40
   3   5   2  180.48   11.40
   3   5   2  189.18   11.40
  -4  -5  -2   80.39   10.50
   4   5   2   89.49   10.20
   4   5   2   71.19    9.80
   4   5   2   83.19   11.50
  -5  -5  -2   28.10    9.10
   5   5   2   32.00    9.80
   5   5   2   31.40    9.70
  -6  -5  -2   61.59   11.80
   6   5   2   56.29   11.00
   6   5   2   50.19   12.40
   5  -6  -2   24.60   16.60
   4  -6  -2   18.80   10.80
  -4   6   2   25.70    8.00
  -4   6   2    9.50    8.30
   3  -6  -2   -3.40   10.90
  -3   6   2    9.90    7.10
  -3   6   2  -14.50    7.10
   2  -6  -2   93.49   13.50
  -2   6   2  100.19   10.70
  -2   6   2   95.39   10.80
   1  -6  -2    8.80    4.00
   1  -6  -2    2.80    5.10
   1  -6  -2    5.90    8.60
  -1   6   2   10.50    6.50
  -1   6   2    7.60    5.10
   0  -6  -2   86.39    6.90
   0  -6  -2  101.29    8.50
   0  -6  -2  107.89   12.00
   0   6   2   84.19    8.30
  -1  -6  -2   29.60    8.50
  -1  -6  -2   48.00    7.60
  -1  -6  -2   39.10    5.40
   1   6   2   38.80    6.50
   1   6   2   37.90    7.00
  -2  -6  -2   69.89    8.00
  -2  -6  -2   68.69   11.70
   2   6   2   57.39    9.30
   2   6   2   60.59    8.10
  -3  -6  -2  119.39   10.10
  -3  -6  -2  120.99   14.90
   3   6   2  128.39   12.00
  -4  -6  -2    6.60    7.20
   4   6   2    8.40    8.10
   4   6   2   16.20    8.70
   5   6   2   89.19   12.20
   5   6   2   89.49   12.00
  -6  -6  -2   10.40   11.20
   6   6   2    5.70   11.70
   5  -7  -2   -1.80   18.00
  -5   7   2   -3.60   10.80
   4  -7  -2  -18.20   14.80
  -4   7   2    7.10    9.00
  -4   7   2   14.20   10.00
   3  -7  -2   25.90   14.00
  -3   7   2   23.50    8.40
  -3   7   2   22.40    9.00
   2  -7  -2   -1.70    6.40
   2  -7  -2   -5.20   11.00
  -2   7   2    1.90    7.10
  -2   7   2   -1.70    6.90
   1  -7  -2   42.50    6.40
   1  -7  -2   41.70   10.80
  -1   7   2   33.70    8.70
   0  -7  -2   81.29   12.30
   0  -7  -2  100.69    8.50
   0   7   2   89.39   10.70
  -1  -7  -2   12.20    5.60
  -1  -7  -2    6.70    8.80
   1   7   2   10.90    8.30
  -2  -7  -2  116.49   14.60
  -2  -7  -2   99.19    9.60
   2   7   2   98.09   11.90
  -3  -7  -2   21.40   11.00
  -3  -7  -2   22.10    7.10
   3   7   2   20.50    8.70
  -4  -7  -2   55.69   11.00
  -4  -7  -2   72.69   13.50
   4   7   2   52.69   11.30
   4   7   2   53.99   11.50
  -5  -7  -2   39.70   12.00
   5   7   2   54.39   12.00
   5   7   2   42.20   12.20
  -6  -7  -2    8.40   11.90
   6   7   2  -27.50   13.20
   4  -8  -2  -11.70   17.30
  -4   8   2  -11.80   11.70
  -4   8   2  -12.20   11.60
   3  -8  -2   16.90   17.00
   3  -8  -2   36.90    9.90
  -3   8   2   23.30   10.40
  -3   8   2   16.00   11.60
   2  -8  -2   -2.10    6.70
   2  -8  -2    1.60   13.40
  -2   8   2  -15.50    8.90
   1  -8  -2   27.00    6.60
   1  -8  -2   20.20   12.50
  -1   8   2   19.80    9.50
   0  -8  -2   -0.90   10.40
   0  -8  -2   -2.30    5.10
   0   8   2    8.00    8.90
  -1  -8  -2   37.90   12.20
  -1  -8  -2   20.10    6.40
   1   8   2   25.10    8.10
  -2  -8  -2   43.10    7.90
  -2  -8  -2   39.40   14.50
   2   8   2   27.80   10.50
  -3  -8  -2  -15.90    7.30
  -3  -8  -2   -5.20   13.30
   3   8   2    9.30    9.70
  -4  -8  -2   82.69   12.10
  -4  -8  -2   52.39   16.10
   4   8   2   59.19   13.70
   4   8   2   68.99   15.00
  -5  -8  -2   11.30   12.00
   5   8   2    5.70   12.00
   3  -9  -2    2.30   18.80
  -3   9   2   21.00   13.40
   2  -9  -2   11.60   16.70
  -2   9   2    0.50   10.70
   1  -9  -2   37.90   18.00
   1  -9  -2   20.60    8.00
  -1   9   2    0.30   10.10
   0  -9  -2    4.20   13.50
   0  -9  -2    2.80    6.70
   0   9   2   20.40   11.00
  -1  -9  -2   30.20   14.70
  -1  -9  -2    8.30    6.60
   1   9   2   31.40   11.40
  -2  -9  -2    3.60    8.00
  -2  -9  -2   11.20   17.20
   2   9   2   -3.60   10.60
  -3  -9  -2   39.70   10.30
  -3  -9  -2   19.60   18.80
   3   9   2   40.90   10.60
  -4  -9  -2    6.90   11.30
   4   9   2   33.90   14.30
   1 -10  -2   22.70   18.30
  -1  10   2   12.10   13.20
   0 -10  -2   14.00   17.10
   0  10   2   28.40   13.40
  -1 -10  -2   29.10   21.70
   1  10   2   19.70   13.40
  -2 -10  -2   39.90   22.50
   2  10   2   -4.30   12.70
   1  10  -3  -11.00   15.10
  -1 -10   3   27.70   23.50
   0  10  -3   10.10   15.50
   0 -10   3    0.20   19.60
   3   9  -3  -30.30   11.80
  -3  -9   3    1.70   20.80
   2   9  -3   36.70   11.00
  -2  -9   3   18.60   20.00
   1   9  -3   83.89   14.70
   0   9  -3   19.60   10.40
   0  -9   3   16.40   17.90
  -1   9  -3   23.90   13.30
   1  -9   3    0.40   17.40
  -2   9  -3   16.80   14.40
   2  -9   3   35.10   19.50
  -3   9  -3   22.20   15.50
   3  -9   3   -4.30   20.70
   4   8  -3   27.60   12.40
   4   8  -3   42.50   17.80
  -4  -8   3   42.00   23.80
   3   8  -3   12.00   11.10
  -3  -8   3   -6.70   16.80
   2   8  -3   56.59   13.10
  -2  -8   3   70.59   19.30
   1   8  -3   21.40   10.30
   0   8  -3   39.40   11.60
   0  -8   3   44.60   15.30
  -1   8  -3   35.50   11.90
   1  -8   3   14.40   13.90
  -2   8  -3   16.10    8.90
   2  -8   3   22.20   15.60
  -3   8  -3   44.40   13.30
   3  -8   3   13.40   13.40
  -4   8  -3   -9.20   12.60
   4  -8   3  -14.60   17.50
   5   7  -3   73.29   13.60
   5   7  -3   35.60   17.50
  -5  -7   3   63.89   10.90
   4   7  -3   14.00   14.10
  -4  -7   3   15.60   18.50
  -4  -7   3   19.60    6.80
   3   7  -3   41.50   10.60
  -3  -7   3   86.69   18.40
  -3  -7   3   66.59    8.30
   2   7  -3  181.28   15.10
  -2  -7   3  181.78   21.10
  -2  -7   3  181.38    8.00
   1   7  -3   52.69   11.10
  -1  -7   3   58.89    2.90
  -1  -7   3   46.20   13.50
   0   7  -3   82.59   11.50
   0  -7   3   98.49   15.20
  -1   7  -3    2.10    8.40
   1  -7   3    9.80   10.50
  -2   7  -3   20.90    9.20
   2  -7   3   13.70   12.70
  -3   7  -3    5.20    9.60
   3  -7   3   10.30   13.40
  -4   7  -3   22.10   11.50
   4  -7   3   34.10   16.80
  -5   7  -3   -5.50   11.30
   5  -7   3  -25.00   18.30
   6   6  -3    0.90   18.90
  -6  -6   3   32.40   11.90
   5   6  -3   40.40   15.60
   5   6  -3   19.20    8.80
  -5  -6   3   38.80    9.70
   4   6  -3   52.59    9.90
   4   6  -3   69.19   16.60
  -4  -6   3   49.20   15.80
  -4  -6   3   75.19    9.70
   3   6  -3  107.59   11.80
  -3  -6   3  112.39    8.90
  -3  -6   3   99.69   16.60
   2   6  -3  114.09   12.40
   2   6  -3  102.29    7.10
  -2  -6   3  104.89    6.60
  -2  -6   3  116.59   16.00
   1   6  -3  134.39   10.70
   1   6  -3  119.29    5.10
  -1  -6   3  122.09   16.20
  -1  -6   3  127.89    5.60
   0   6  -3   20.30    8.60
   0  -6   3   18.10   10.20
  -1   6  -3  111.39   11.80
   1  -6   3  107.59   14.90
  -2   6  -3   81.29   10.50
   2  -6   3   84.69   14.20
  -3   6  -3    0.80    7.00
  -3   6  -3    0.40    4.70
   3  -6   3   13.20   11.70
  -4   6  -3   32.10    9.70
  -4   6  -3   35.50    7.10
   4  -6   3   21.60   14.80
  -5   6  -3   17.10    8.90
  -5   6  -3    8.00   10.30
   5  -6   3   30.60   17.20
   6   5  -3   34.60   16.60
  -6  -5   3   62.19   12.20
   5   5  -3   -9.10   14.10
   5   5  -3   34.90    8.70
  -5  -5   3   23.60    8.10
   4   5  -3  124.99   15.90
   4   5  -3  122.69   12.20
  -4  -5   3  133.69   10.60
  -4  -5   3  142.69   17.60
   3   5  -3  245.48   13.50
  -3  -5   3  248.78   11.20
  -3  -5   3  243.58   19.80
   2   5  -3  212.18    8.80
   2   5  -3  192.68   11.20
  -2  -5   3  202.58    8.40
  -2  -5   3  215.28   16.90
   1   5  -3  229.88    7.20
   1   5  -3  229.58   11.60
  -1  -5   3  217.68   16.60
   0   5  -3   31.30    7.10
   0  -5   3   19.90    8.00
  -1   5  -3   33.60    7.50
   1  -5   3   37.20    9.20
  -2   5  -3   12.30    3.30
  -2   5  -3   22.10    7.20
   2  -5   3   17.50    9.20
   2  -5   3   11.20    3.00
  -3   5  -3   61.29    9.10
   3  -5   3   50.29    5.90
   3  -5   3   53.89   12.90
  -4   5  -3   31.40    6.30
  -4   5  -3   32.40    8.20
   4  -5   3   30.90   12.90
  -5   5  -3   28.90    7.80
  -5   5  -3    9.50    9.40
   5  -5   3   20.60   13.50
  -6   5  -3   -4.90   10.30
  -6   5  -3    9.30   14.40
   6  -5   3   25.70   16.80
   6   4  -3   15.10   13.50
  -6  -4   3   22.30    9.20
   5   4  -3   86.29   10.20
   5   4  -3  118.29   16.50
  -5  -4   3  108.59   12.00
   4   4  -3   88.99    9.50
   4   4  -3  103.69   13.50
  -4  -4   3   96.79    8.90
   3   4  -3  328.47   18.30
   3   4  -3  356.56   15.00
  -3  -4   3  358.56   13.00
  -3  -4   3  373.86   20.90
   2   4  -3  230.38    9.20
   2   4  -3  235.48   11.60
  -2  -4   3  227.78    8.80
  -2  -4   3  213.18   15.40
   1   4  -3   15.90    5.50
  -1  -4   3    7.80    7.50
  -1  -4   3   17.10    2.30
   0   4  -3  460.45   16.20
   0  -4   3  469.55   18.70
  -1   4  -3  116.19    8.70
   1  -4   3  132.79   11.40
  -2   4  -3    1.00    2.50
  -2   4  -3   -3.40    4.70
   2  -4   3    1.20    2.50
   2  -4   3    2.50    7.80
  -3   4  -3   91.19    8.80
  -3   4  -3   75.99    9.00
   3  -4   3  104.79    6.80
   3  -4   3  102.19   13.30
  -4   4  -3    1.40    5.40
  -4   4  -3    8.20    7.10
   4  -4   3   -3.40    9.40
  -5   4  -3   20.10    7.70
  -5   4  -3   19.80    8.50
   5  -4   3   24.60   13.30
  -6   4  -3   -1.70    8.60
   6  -4   3   -5.60   13.40
   7   3  -3   35.90   17.70
  -7  -3   3   25.10   11.80
   6   3  -3   21.90   13.50
  -6  -3   3   47.60   10.00
   5   3  -3  135.59   15.70
   5   3  -3  131.39    9.40
  -5  -3   3  139.79   11.30
  -5  -3   3  155.08   14.80
   4   3  -3  124.39    8.60
   4   3  -3  134.99   14.30
  -4  -3   3  116.29    8.60
  -4  -3   3  128.39    9.70
   3   3  -3  476.45   15.40
   3   3  -3  459.85   19.60
  -3  -3   3  472.95   15.10
  -3  -3   3  435.76   20.60
  -3  -3   3  459.25   15.40
   2   3  -3  356.76   11.60
   2   3  -3  327.37   12.60
   2   3  -3  343.27   19.10
  -2  -3   3  351.96   16.60
  -2  -3   3  349.07   11.90
  -2  -3   3  347.77   11.00
   1   3  -3   98.79    8.20
   1   3  -3  128.79    5.10
   1   3  -3  128.39    9.70
  -1  -3   3  118.49   10.10
  -1  -3   3  139.09    6.90
  -1  -3   3  127.29    4.90
   0   3  -3   73.49    8.00
   0   3  -3   71.69    6.10
   0  -3   3   72.69    5.50
   0  -3   3   69.69    8.10
  -1   3  -3   33.70    6.60
  -1   3  -3   25.90    2.00
  -1   3  -3   30.80    4.80
   1  -3   3   27.20    1.90
   1  -3   3   30.00    6.40
   1  -3   3   29.60    4.50
  -2   3  -3  339.07   13.60
  -2   3  -3  348.27   13.00
  -2   3  -3  344.67   10.50
   2  -3   3  378.26   10.60
   2  -3   3  352.56   12.60
   2  -3   3  344.87   15.90
  -3   3  -3  125.39    7.70
  -3   3  -3  117.99    8.30
   3  -3   3  119.79   11.90
   3  -3   3  108.99    7.30
  -4   3  -3   14.60    5.90
  -4   3  -3   27.40    6.60
   4  -3   3    8.20    9.60
  -5   3  -3   57.99    8.20
  -5   3  -3   58.79    9.10
   5  -3   3   46.30   13.80
  -6   3  -3    4.10    7.80
  -6   3  -3   13.70   13.20
   6  -3   3    8.00   13.90
  -7   3  -3   41.70   12.30
   7  -3   3   31.40   19.20
   7   2  -3   -8.00   17.60
  -7  -2   3   -9.70   10.70
   6   2  -3   77.89   15.10
  -6  -2   3   73.09   11.10
   5   2  -3   63.89   11.90
   5   2  -3   55.59    5.80
  -5  -2   3   50.79    5.60
  -5  -2   3   52.69    8.90
   4   2  -3  458.95   13.80
   4   2  -3  425.76   20.10
  -4  -2   3  436.26   13.50
  -4  -2   3  441.56   16.50
   3   2  -3  166.98   10.60
   3   2  -3  164.88    7.60
  -3  -2   3  166.98    8.60
  -3  -2   3  164.68    7.10
   2   2  -3   -2.00    2.70
   2   2  -3    5.20    5.10
   2   2  -3   -2.30    2.80
   2   2  -3    4.20    5.30
  -2  -2   3   -2.20    2.90
  -2  -2   3   -0.60    5.40
  -2  -2   3    0.70    2.60
   1   2  -3 1352.86   33.30
   1   2  -3 1344.07   36.40
   1   2  -3 1401.76   31.90
  -1  -2   3 1379.86   33.00
  -1  -2   3 1337.57   36.70
  -1  -2   3 1360.46   31.90
   0   2  -3  201.18    9.60
   0   2  -3  215.98    8.00
   0   2  -3  191.28    5.60
   0   2  -3  201.78    5.40
   0  -2   3  197.28    5.80
   0  -2   3  199.18    7.40
   0  -2   3  207.98    9.90
  -1   2  -3   26.80    2.60
  -1   2  -3   24.80    4.30
  -1   2  -3   25.60    3.90
  -1   2  -3   23.10    5.00
   1  -2   3   24.10    3.60
   1  -2   3   18.10    4.70
   1  -2   3   22.50    2.20
  -2   2  -3  116.49    7.90
  -2   2  -3  134.99    7.80
  -2   2  -3  128.69    8.50
  -2   2  -3  142.69    6.30
   2  -2   3  109.09   10.80
   2  -2   3  141.79    6.00
  -3   2  -3    4.60    3.80
  -3   2  -3    7.60    4.10
  -3   2  -3    0.60    6.50
  -3   2  -3   -0.70    4.70
   3  -2   3    3.20    3.40
   3  -2   3    4.70    5.90
   3  -2   3    6.00    4.40
  -4   2  -3   87.99    8.30
  -4   2  -3   90.29    7.90
   4  -2   3   80.39   11.30
  -5   2  -3   17.40    8.20
  -5   2  -3   16.80    6.70
   5  -2   3   14.00    9.90
  -6   2  -3   19.90    7.80
  -6   2  -3   10.60    8.60
   6  -2   3    4.00   12.70
  -7   2  -3   19.40   10.90
   7  -2   3   15.90   17.00
   7   1  -3   37.60   17.10
  -7  -1   3   42.20   12.60
   6   1  -3   20.20   12.40
  -6  -1   3   27.90    9.60
   5   1  -3    6.50    9.80
  -5  -1   3   13.40    2.70
  -5  -1   3   10.90    7.20
   4   1  -3  383.96   18.40
   4   1  -3  372.66   10.60
  -4  -1   3  360.36   15.00
   3   1  -3   85.69    4.50
   3   1  -3   67.19    8.90
  -3  -1   3   79.09    6.60
   2   1  -3  500.05   14.50
   2   1  -3  524.15   18.10
   2   1  -3  490.05   13.10
   2   1  -3  474.75   18.80
  -2  -1   3  496.45   14.50
   1   1  -3  165.68    8.60
   1   1  -3  183.98    8.50
   1   1  -3  170.88    6.20
   1   1  -3  173.08    6.20
  -1  -1   3  160.98    9.00
  -1  -1   3  160.88    6.00
  -1  -1   3  182.68    6.10
   0   1  -3   17.60    3.10
   0   1  -3   16.60    4.00
   0   1  -3   18.30    2.40
   0   1  -3   20.30    3.10
   0   1  -3   13.20    2.80
   0  -1   3   18.20    4.20
   0  -1   3   17.80    2.70
   0  -1   3   15.60    2.70
  -1   1  -3 1183.48   29.80
  -1   1  -3 1200.58   29.50
  -1   1  -3 1212.98   28.10
  -1   1  -3 1194.18   30.20
   1  -1   3 1168.68   30.10
   1  -1   3 1237.98   30.10
  -2   1  -3  244.78   10.00
  -2   1  -3  249.68    8.70
  -2   1  -3  251.17    9.50
  -2   1  -3  248.98    9.80
   2  -1   3  262.77    8.80
   2  -1   3  259.67    9.90
   2  -1   3  248.68   10.60
  -3   1  -3  199.18   10.50
  -3   1  -3  225.48    9.70
  -3   1  -3  215.88    9.60
   3  -1   3  210.88   10.40
   3  -1   3  228.38    9.80
   3  -1   3  215.98   11.10
  -4   1  -3  186.18   10.60
  -4   1  -3  185.28    9.60
  -4   1  -3  160.38   10.30
   4  -1   3  178.38   12.70
   4  -1   3  196.58   10.40
  -5   1  -3    0.60    6.80
  -5   1  -3    4.00    5.40
   5  -1   3   12.50    8.20
   5  -1   3    4.40    6.90
  -6   1  -3   49.99    8.40
  -6   1  -3   51.79   15.80
   6  -1   3   35.40    9.30
   6  -1   3   52.09   12.70
  -7   1  -3    5.80   10.80
   7  -1   3    4.80   14.20
   7   0  -3   -1.50   17.70
  -7   0   3   31.40   11.00
   6   0  -3   13.50   13.20
  -6   0   3   26.90    9.10
   5   0  -3  326.97   20.50
  -5   0   3  358.66   16.60
   4   0  -3  108.49   12.50
  -4   0   3  112.49    9.40
   3   0  -3    0.80    5.40
  -3   0   3   -0.40    3.50
   2   0  -3 1122.49   24.50
   2   0  -3 1058.79   27.40
   2   0  -3 1086.69   24.40
   2   0  -3 1063.29   30.20
  -2   0   3 1089.89   27.60
  -2   0   3 1068.79   29.00
   1   0  -3   69.49    5.70
   1   0  -3   69.29    3.30
   1   0  -3   70.19    3.80
   1   0  -3   71.79    6.00
   1   0  -3   69.19    4.40
  -1   0   3   78.69    3.60
  -1   0   3   68.29    4.40
  -1   0   3   77.49    5.60
   0   0  -3   15.00    2.90
   0   0  -3   12.40    3.30
   0   0  -3   21.20    2.90
   0   0  -3   16.80    3.50
   0   0   3   19.80    2.80
   0   0   3   17.20    3.20
  -1   0  -3  314.67    9.40
  -1   0  -3  306.87    9.20
  -1   0  -3  307.37    9.70
   1   0   3  298.77    9.10
   1   0   3  303.57    8.90
   1   0   3  298.17   10.10
  -2   0  -3   14.60    3.50
  -2   0  -3   14.20    3.00
  -2   0  -3   12.80    3.10
   2   0   3    9.40    3.50
   2   0   3    9.30    3.10
   2   0   3   12.70    3.10
  -3   0  -3  208.48    9.50
  -3   0  -3  197.78    9.40
  -3   0  -3  208.88    9.50
   3   0   3  194.58   10.20
   3   0   3  208.58    9.50
   3   0   3  195.68    9.10
  -4   0  -3    5.30    4.20
  -4   0  -3    2.10    6.20
  -4   0  -3   10.10    6.00
   4   0   3   14.30    5.00
   4   0   3   10.00    6.40
  -5   0  -3   33.30    8.50
   5   0   3   37.70   10.00
   5   0   3   38.70    7.50
   6   0   3   10.20   10.30
   6   0   3   34.30    9.10
  -7   0  -3   11.30   10.60
  -7   0  -3   -7.00    9.00
   7  -1  -3   -5.40   15.70
  -7   1   3   28.50   12.50
   6  -1  -3    1.20   13.10
  -6   1   3   -0.80    8.60
   5  -1  -3  118.09   16.20
  -5   1   3  122.69   10.90
   4  -1  -3   -1.50    8.20
  -4   1   3   -5.10    5.00
   3  -1  -3  359.06   15.70
  -3   1   3  345.67   13.00
   2  -1  -3   29.00    3.80
  -2   1   3   23.40    4.80
  -2   1   3   29.20    5.10
   1  -1  -3  132.99    6.90
   1  -1  -3  138.79    6.30
  -1   1   3  134.99    6.50
  -1   1   3  137.19    4.60
  -1   1   3  127.99    6.20
   0  -1  -3 2298.97   51.39
   0  -1  -3 2239.08   52.89
   0  -1  -3 2348.47   51.69
   0  -1  -3 2141.49   52.89
   0   1   3 2151.68   53.09
   0   1   3 2302.87   51.69
   0   1   3 2341.77   51.49
  -1  -1  -3  436.56   12.50
  -1  -1  -3  432.36   12.60
   1   1   3  419.06   12.60
   1   1   3  445.26   12.20
  -2  -1  -3  447.56   13.90
  -2  -1  -3  461.95   13.90
  -2  -1  -3  464.75   12.20
   2   1   3  467.35   12.30
   2   1   3  451.55   14.00
   2   1   3  467.65   13.70
  -3  -1  -3  260.77   10.30
  -3  -1  -3  252.07   10.40
  -3  -1  -3  260.47    9.70
   3   1   3  251.77   10.50
   3   1   3  243.78    9.60
   3   1   3  264.77   10.60
  -4  -1  -3   14.30    6.50
  -4  -1  -3    7.70    5.30
   4   1   3   14.80    5.00
   4   1   3    8.90    5.50
  -5  -1  -3  134.59   12.30
   5   1   3  109.99    9.90
   5   1   3   98.09   12.50
  -6  -1  -3    9.30    8.40
   6   1   3   -4.40    7.60
   6   1   3    2.60   10.40
  -7  -1  -3   40.40   12.20
   7   1   3   39.70   14.80
   7   1   3   38.30   11.20
   7  -2  -3    0.40   17.20
  -7   2   3   -3.10   10.70
   6  -2  -3  118.19   18.00
  -6   2   3  133.19   14.10
   5  -2  -3   28.30   11.70
  -5   2   3   32.10    8.70
   4  -2  -3   48.60    9.50
  -4   2   3   39.20    7.60
   3  -2  -3  515.05   19.90
  -3   2   3  495.65   11.60
  -3   2   3  512.15   11.80
  -3   2   3  491.75   16.70
   2  -2  -3   42.70    6.70
   2  -2  -3   45.20    3.10
   2  -2  -3   48.40    5.30
  -2   2   3   45.50    5.30
  -2   2   3   56.29    5.60
  -2   2   3   41.90    2.90
   1  -2  -3   31.90    3.30
   1  -2  -3   37.50    4.50
   1  -2  -3   29.40    4.60
  -1   2   3   31.40    3.10
  -1   2   3   34.00    4.40
  -1   2   3   30.30    4.20
   0  -2  -3  174.78    8.10
   0  -2  -3  198.88    8.50
   0  -2  -3  195.48    7.10
   0  -2  -3  188.28    7.00
   0   2   3  182.28    8.30
   0   2   3  207.58    6.90
   0   2   3  196.98    7.10
  -1  -2  -3    1.30    2.80
  -1  -2  -3    3.80    2.80
  -1  -2  -3   -0.60    1.20
   1   2   3    4.80    2.20
   1   2   3    0.50    2.20
   1   2   3    3.00    0.90
  -2  -2  -3  352.26   11.90
  -2  -2  -3  327.37   11.60
   2   2   3  355.86    9.20
   2   2   3  335.47   11.40
   2   2   3  349.67    9.70
  -3  -2  -3    6.90    4.30
  -3  -2  -3    6.80    3.30
  -3  -2  -3   -7.40    3.60
   3   2   3    4.20    4.00
   3   2   3    1.10    3.60
   3   2   3    4.50    3.10
  -4  -2  -3   75.69    8.10
  -4  -2  -3   64.19    8.70
   4   2   3   77.99   10.40
   4   2   3   74.89    7.60
   4   2   3   89.49    9.80
  -5  -2  -3   51.19    9.40
   5   2   3   54.49    9.20
   5   2   3   46.30    8.00
  -6  -2  -3  -11.80    6.60
   6   2   3  -10.00    9.50
   6   2   3    7.00    7.70
  -7  -2  -3   40.70   12.10
   7   2   3   34.20   12.30
   7   2   3   34.20   11.60
   6  -3  -3   31.20   16.30
  -6   3   3   25.00   10.50
   5  -3  -3   -2.50   11.50
  -5   3   3    5.40    7.50
   4  -3  -3  106.29   14.40
  -4   3   3   84.79    9.60
  -4   3   3   88.49    4.00
   3  -3  -3   -0.50    2.60
   3  -3  -3    4.40    5.60
  -3   3   3    3.10    2.70
  -3   3   3   -2.60    4.90
   2  -3  -3   75.49    5.00
   2  -3  -3   84.79    6.30
   2  -3  -3   71.79    9.10
  -2   3   3   58.59    8.00
  -2   3   3   80.99    6.50
  -2   3   3   79.69    4.90
   1  -3  -3  611.24   18.80
   1  -3  -3  617.74   16.60
  -1   3   3  597.54   16.50
  -1   3   3  560.54   19.30
  -1   3   3  604.34   18.30
   0  -3  -3   45.50    4.90
   0  -3  -3   46.50    5.00
   0  -3  -3   40.90    5.30
   0  -3  -3   50.29    5.50
   0   3   3   42.60    4.60
   0   3   3   45.70    4.70
   0   3   3   48.00    5.40
  -1  -3  -3  611.14   17.50
  -1  -3  -3  594.14   17.00
  -1  -3  -3  615.94   16.70
   1   3   3  633.24   15.70
   1   3   3  510.35   19.60
   1   3   3  582.34   16.60
  -2  -3  -3  213.78    9.20
  -2  -3  -3  235.78    9.70
  -2  -3  -3  230.38    8.10
   2   3   3  235.48    7.90
   2   3   3  240.28    8.30
   2   3   3  224.48    9.20
   2   3   3  230.98   10.00
  -3  -3  -3   35.30    6.30
   3   3   3   21.90    5.60
   3   3   3   31.70    5.00
   3   3   3   35.20    4.80
  -4  -3  -3  128.29   11.20
   4   3   3  139.59   10.00
   4   3   3  132.99    9.00
   4   3   3  150.18   11.10
  -5  -3  -3    3.80    8.10
   5   3   3   -4.80    7.20
   5   3   3   -0.60    6.40
  -6  -3  -3   57.59   12.20
   6   3   3   73.59   10.30
   6   3   3   63.39   12.00
  -7  -3  -3   30.10   11.60
   7   3   3   19.20   12.00
   7   3   3    8.60   13.30
   6  -4  -3  -28.30   14.90
  -6   4   3    1.40   11.50
   5  -4  -3   32.50   11.30
  -5   4   3   26.30    8.10
   4  -4  -3   75.19   13.90
  -4   4   3   91.89    9.90
  -4   4   3   75.09    6.10
  -4   4   3   85.99    8.10
   3  -4  -3    6.10    3.80
   3  -4  -3    0.70    8.80
  -3   4   3    6.00    5.20
  -3   4   3    4.00    3.90
   2  -4  -3  117.59   11.60
   2  -4  -3  130.59    7.40
  -2   4   3  132.59    9.10
  -2   4   3  132.09    7.30
   1  -4  -3   44.20    5.40
   1  -4  -3   49.10    5.80
   1  -4  -3   42.00    7.00
  -1   4   3   49.70    6.90
  -1   4   3   48.50    6.70
  -1   4   3   53.49    6.30
   0  -4  -3   60.69    7.40
   0  -4  -3   64.09    7.40
   0  -4  -3   80.99    6.70
   0  -4  -3   66.39    7.50
   0   4   3   60.69    6.10
   0   4   3   75.39    7.00
  -1  -4  -3  332.67   12.50
  -1  -4  -3  330.47   11.80
  -1  -4  -3  333.97   12.30
  -1  -4  -3  296.57   12.10
   1   4   3  335.87   12.30
   1   4   3  359.36   12.00
   1   4   3  358.76   12.20
  -2  -4  -3   11.80    4.10
  -2  -4  -3   15.20    4.60
   2   4   3   15.50    4.20
   2   4   3    2.30    4.90
   2   4   3    5.30    4.80
  -3  -4  -3   96.39    8.60
   3   4   3  103.69    7.30
   3   4   3   94.39    9.00
   3   4   3   86.89    7.20
  -4  -4  -3   29.60    8.30
   4   4   3   31.10    6.70
   4   4   3   47.20    8.20
   4   4   3   38.00    7.70
  -5  -4  -3    7.90    8.10
   5   4   3    9.80    7.10
   5   4   3   -1.50    7.20
  -6  -4  -3   60.09   11.50
   6   4   3   71.09   11.90
   6   4   3   69.19   10.90
  -7  -4  -3   25.10   12.30
   7   4   3   -4.00   16.20
   6  -5  -3   25.70   19.00
  -6   5   3    9.10   10.80
   5  -5  -3   33.50   14.80
  -5   5   3   19.40   12.60
   4  -5  -3    5.00   11.40
  -4   5   3   -6.00    5.00
  -4   5   3    2.80    8.00
   3  -5  -3   19.80   11.20
   3  -5  -3   27.00    6.50
  -3   5   3   41.50    8.70
  -3   5   3   17.70    5.80
   2  -5  -3  136.49   14.40
   2  -5  -3  114.89    9.30
  -2   5   3  116.09    8.20
  -2   5   3  125.69    9.80
   1  -5  -3    2.60    5.60
   1  -5  -3    6.50    6.80
   1  -5  -3    5.10    4.40
  -1   5   3   11.90    6.10
  -1   5   3   -1.20    4.60
   0  -5  -3  183.58   12.20
   0  -5  -3  193.18   10.90
   0  -5  -3  196.18    9.20
   0   5   3  191.98   11.30
   0   5   3  193.68   10.60
  -1  -5  -3   64.09    7.60
  -1  -5  -3   72.49    6.40
  -1  -5  -3   81.09    8.70
   1   5   3   70.39    6.70
   1   5   3   73.49    8.50
   1   5   3   67.29    8.00
  -2  -5  -3   54.99    7.00
  -2  -5  -3   46.40    7.20
   2   5   3   57.79    7.60
   2   5   3   46.90    7.60
  -3  -5  -3   95.59    9.40
  -3  -5  -3  111.09    9.70
   3   5   3   92.29    9.20
   3   5   3   97.79    8.40
   3   5   3   78.99    9.80
  -4  -5  -3   -5.30    6.60
   4   5   3  -10.30    6.90
   4   5   3    9.20    7.30
   4   5   3   -0.10    6.20
  -5  -5  -3  103.99   12.70
   5   5   3   77.19   10.70
   5   5   3   96.39   11.70
  -6  -5  -3   12.60   11.80
   6   5   3    8.70   10.00
   5  -6  -3   13.30   15.40
  -5   6   3   12.40   11.10
   4  -6  -3    2.50   12.80
  -4   6   3   -4.40    6.60
  -4   6   3   10.50    8.30
   3  -6  -3   49.40   13.10
  -3   6   3   22.80    7.30
  -3   6   3   12.20    8.40
   2  -6  -3   10.30    9.90
  -2   6   3   -8.60    5.50
  -2   6   3   -0.80    6.80
   1  -6  -3   80.29   12.20
   1  -6  -3   65.09    8.00
  -1   6   3   74.39    9.00
  -1   6   3   70.49    8.70
   0  -6  -3   76.29    7.10
   0  -6  -3   76.49   10.80
   0   6   3   91.79    9.90
  -1  -6  -3   41.40    6.10
  -1  -6  -3   29.80    8.60
   1   6   3   30.50    6.60
   1   6   3   23.40    7.50
  -2  -6  -3   88.29   11.40
  -2  -6  -3  103.59    9.00
   2   6   3  108.69   10.00
   2   6   3   92.49   10.70
  -3  -6  -3   20.10    6.50
  -3  -6  -3   14.60    8.80
   3   6   3   19.00    8.10
   3   6   3   11.90    8.00
  -4  -6  -3  -10.80    6.80
   4   6   3   10.30    8.20
   4   6   3    7.70    8.10
  -5  -6  -3   52.59   10.90
   5   6   3   48.90   11.40
   5   6   3   55.69   10.60
  -6  -6  -3    0.30   10.80
   6   6   3   27.80   13.60
   5  -7  -3   -4.50   19.80
  -5   7   3   -0.80   11.40
   4  -7  -3    6.80   14.50
  -4   7   3   12.80    9.00
  -4   7   3   15.70   10.60
   3  -7  -3   -3.30    9.80
  -3   7   3   17.60    8.80
  -3   7   3    5.10    8.20
   2  -7  -3   -4.40    7.30
   2  -7  -3   -8.70   10.10
  -2   7   3    5.70    8.30
  -2   7   3   -6.40    6.50
   1  -7  -3   54.79    8.10
   1  -7  -3   48.00   11.50
  -1   7   3   44.30    9.10
   0  -7  -3   20.80    6.00
   0  -7  -3   22.80   10.50
   0   7   3   11.50    8.10
  -1  -7  -3   34.60   10.80
  -1  -7  -3   35.20    7.30
   1   7   3   24.90    8.70
  -2  -7  -3   35.80    6.80
  -2  -7  -3   41.00   11.90
   2   7   3   40.40    8.20
  -3  -7  -3   -1.60    9.90
  -3  -7  -3   10.60    6.70
   3   7   3    7.20    8.60
  -4  -7  -3   71.69   10.90
  -4  -7  -3   56.59   12.50
   4   7   3   79.99   11.20
   4   7   3   69.79   12.10
  -5  -7  -3   33.50   11.40
   5   7   3   -9.50   10.30
   4  -8  -3   -3.90   18.90
   3  -8  -3  -12.70    9.10
   3  -8  -3   -9.20   15.30
  -3   8   3   13.30   10.50
  -3   8   3   10.60   11.20
   2  -8  -3   18.80   18.20
   2  -8  -3   23.90    7.80
  -2   8   3    9.80    9.50
  -2   8   3   28.40    9.50
   1  -8  -3   -5.50   10.50
   1  -8  -3    9.30    6.40
  -1   8   3   17.10    9.60
   0  -8  -3   12.50    6.60
   0  -8  -3   25.10   11.60
   0   8   3   11.40    8.70
  -1  -8  -3   40.10    8.00
  -1  -8  -3   22.00   13.10
   1   8   3   23.50   16.40
  -2  -8  -3  -22.40   13.10
  -2  -8  -3   -2.20    6.00
   2   8   3   -2.70    9.30
  -3  -8  -3   -5.00   12.10
  -3  -8  -3    5.00    8.40
   3   8   3   16.10   10.00
   4   8   3   20.80   11.20
  -5  -8  -3   -4.20   12.40
   5   8   3    5.20   11.60
   3  -9  -3  -23.00   16.80
  -3   9   3   19.20   14.00
   2  -9  -3   22.90    8.50
   2  -9  -3   18.10   15.60
  -2   9   3   24.70   13.70
   1  -9  -3   -4.80    7.30
   1  -9  -3   18.30   15.50
  -1   9   3   10.40   11.10
   0  -9  -3   29.00   13.60
   0  -9  -3   26.90    7.50
   0   9   3   33.40   11.40
  -1  -9  -3   25.20   15.00
  -1  -9  -3    6.40    8.20
   1   9   3    1.70   10.40
  -2  -9  -3  -11.00    8.00
  -2  -9  -3   17.80   16.90
   2   9   3    9.90    9.10
  -3  -9  -3   11.30    9.70
   3   9   3   58.99   13.90
  -4  -9  -3    4.00   11.50
   4   9   3  -22.30   12.80
   1 -10  -3   29.30   18.80
  -1  10   3   14.30   15.70
   0 -10  -3   13.00   18.30
   0  10   3  -25.20   11.00
  -1 -10  -3   22.50   19.60
   1  10   3   -9.60   12.70
  -2 -10  -3  -12.80   24.10
   2  10   3    9.10   12.90
   3   9  -4   26.90   15.00
  -3  -9   4   47.40   23.60
   2   9  -4   -4.70   14.00
  -2  -9   4  -32.00   22.10
   1   9  -4   43.90   14.40
  -1  -9   4   14.40   18.90
   0   9  -4   16.80   13.10
   0  -9   4   26.70   17.40
  -1   9  -4    9.60   13.30
   1  -9   4   17.00   18.90
  -2   9  -4   12.90   13.30
   2  -9   4   19.40   19.60
   4   8  -4   17.30   20.30
   4   8  -4   15.70   12.50
  -4  -8   4   -2.50   21.20
   3   8  -4   38.80   13.20
  -3  -8   4   33.00   20.20
   2   8  -4    4.60   12.10
  -2  -8   4  -12.50   15.10
   1   8  -4   42.70   12.40
  -1  -8   4   53.79   17.50
   0   8  -4   49.70   12.20
   0  -8   4   47.60   16.70
  -1   8  -4   22.80   11.40
   1  -8   4    3.20   13.80
  -2   8  -4   47.10   10.70
   2  -8   4   78.09   17.30
  -3   8  -4  -16.00   11.20
   3  -8   4    9.80   17.20
  -4   8  -4   -1.30   15.30
   4  -8   4    1.50   19.00
   5   7  -4   28.30   17.70
  -5  -7   4   13.00    9.70
   4   7  -4   37.10   12.00
   4   7  -4   32.50   17.10
  -4  -7   4   61.69    9.00
  -4  -7   4   66.69   20.70
   3   7  -4    9.20   10.50
  -3  -7   4   14.00    5.70
   2   7  -4   41.80   10.90
  -2  -7   4    9.90   14.00
  -2  -7   4   45.40    5.40
   1   7  -4  107.79   13.50
  -1  -7   4  101.09   17.20
   0   7  -4   12.40    8.60
   0  -7   4   14.50   12.50
  -1   7  -4   43.50   10.70
   1  -7   4   49.40   14.20
  -2   7  -4   11.60    9.80
   2  -7   4    3.80   13.10
  -3   7  -4   -1.30    9.20
   3  -7   4   -6.60   14.00
  -4   7  -4   13.50   11.20
   4  -7   4   20.40   16.30
   5   6  -4    6.60    9.50
   5   6  -4   30.00   18.50
  -5  -6   4   18.50    9.20
   4   6  -4   51.79   11.40
  -4  -6   4   62.89   24.90
  -4  -6   4   52.59    8.40
   3   6  -4    4.00    8.20
  -3  -6   4   20.20   14.40
  -3  -6   4   10.10    5.00
   2   6  -4  171.18    8.40
   2   6  -4  176.58   14.40
  -2  -6   4  194.18    8.10
  -2  -6   4  207.68   19.80
   1   6  -4  123.09   13.00
  -1  -6   4  141.69   17.90
   0   6  -4   -6.10    5.50
   0  -6   4    4.90   10.30
  -1   6  -4  188.18   14.10
   1  -6   4  204.88   17.70
  -2   6  -4    6.90    8.00
   2  -6   4    0.10   11.10
  -3   6  -4   25.90    5.20
  -3   6  -4   29.80    9.30
   3  -6   4   39.20   13.50
  -4   6  -4   25.80    6.90
  -4   6  -4   21.80   10.60
   4  -6   4   17.80   14.40
  -5   6  -4    7.80   10.70
   5  -6   4   -1.90   16.70
   6   5  -4    0.40   16.40
  -6  -5   4   10.20   10.70
   5   5  -4  107.49   12.20
   5   5  -4   84.59   16.70
  -5  -5   4   80.49   10.90
   4   5  -4    3.20    7.40
   4   5  -4    1.40   11.30
  -4  -5   4    2.10    6.10
  -4  -5   4   13.90   13.30
   3   5  -4   22.50   11.50
   3   5  -4   25.40    7.80
  -3  -5   4   15.30    5.10
  -3  -5   4   12.10   11.80
   2   5  -4  161.78    8.20
   2   5  -4  176.28   12.60
  -2  -5   4  177.38   17.50
  -2  -5   4  169.88    7.80
   1   5  -4    0.80    3.00
   1   5  -4    4.50    6.80
  -1  -5   4    7.70    1.90
  -1  -5   4   -4.40    9.40
   0   5  -4  341.67   15.40
   0  -5   4  307.47   16.60
  -1   5  -4   -7.90    6.50
   1  -5   4    4.80    6.70
  -2   5  -4   36.90    8.30
   2  -5   4   29.40    3.10
   2  -5   4   31.00    9.20
  -3   5  -4   98.59    6.80
  -3   5  -4   76.89   10.10
   3  -5   4   94.89    7.00
   3  -5   4   94.49   14.00
  -4   5  -4  -12.60    7.00
  -4   5  -4    6.10    5.90
   4  -5   4   -6.10   11.60
  -5   5  -4    7.50    7.20
  -5   5  -4    2.50    8.60
   5  -5   4   26.10   14.70
  -6   5  -4   21.40   16.90
  -6   5  -4    9.10   13.80
   6  -5   4   -0.80   17.00
   6   4  -4   25.30   15.20
  -6  -4   4   31.80    9.80
   5   4  -4   62.39    8.40
   5   4  -4   76.19   14.70
  -5  -4   4   59.99    9.10
   4   4  -4   11.40   10.70
   4   4  -4    6.30    5.80
  -4  -4   4    0.40    5.00
   3   4  -4  403.56   16.40
   3   4  -4  402.46   21.00
  -3  -4   4  400.86   14.00
  -3  -4   4  401.46   22.50
   2   4  -4  196.28   11.10
   2   4  -4  187.28    8.80
  -2  -4   4  198.58   15.60
  -2  -4   4  181.38    7.70
   1   4  -4   40.70    6.70
   1   4  -4   38.00    5.40
  -1  -4   4   34.00    3.10
  -1  -4   4   31.60    8.70
   0   4  -4  632.74   20.30
   0  -4   4  620.84   23.40
  -1   4  -4   13.10    5.40
   1  -4   4    6.40    7.20
  -2   4  -4  170.78   10.70
  -2   4  -4  181.48    6.60
   2  -4   4  166.18   13.90
   2  -4   4  173.68    6.30
  -3   4  -4   46.50    7.80
   3  -4   4   43.70    5.70
   3  -4   4   35.30   11.00
  -4   4  -4   21.90    6.30
  -4   4  -4   29.40    7.50
   4  -4   4   23.90   11.40
  -5   4  -4   27.40    7.10
  -5   4  -4   41.00    8.60
   5  -4   4   18.60   12.60
  -6   4  -4    5.20   14.10
  -6   4  -4   -5.10    9.90
   6  -4   4   21.70   15.50
   7   3  -4  -21.80   16.40
  -7  -3   4    0.90   11.90
   6   3  -4   63.59   16.60
  -6  -3   4   98.89   12.90
   5   3  -4   -0.90    5.10
   5   3  -4    2.50   10.90
  -5  -3   4   17.40    7.50
   4   3  -4   19.60    5.60
   4   3  -4   16.80   10.10
  -4  -3   4   10.40    5.00
  -4  -3   4   15.50    6.10
   3   3  -4  193.68   10.20
   3   3  -4  195.28   14.70
  -3  -3   4  192.58    9.00
  -3  -3   4  186.18    9.30
  -3  -3   4  173.38   16.00
   2   3  -4   70.09    5.90
   2   3  -4   74.09    6.90
  -2  -3   4   77.19    6.00
  -2  -3   4   77.39   10.70
  -2  -3   4   67.99    5.40
   1   3  -4  743.73   25.40
   1   3  -4  798.92   22.30
   1   3  -4  804.62   19.40
  -1  -3   4  778.02   19.30
  -1  -3   4  778.32   21.40
  -1  -3   4  758.42   26.00
   0   3  -4   68.39    2.60
   0   3  -4   73.09    2.70
   0   3  -4   64.39    7.40
   0   3  -4   63.89    6.30
   0  -3   4   67.49    8.80
   0  -3   4   68.19    5.90
  -1   3  -4  156.48    8.00
  -1   3  -4  162.48    5.00
  -1   3  -4  172.08    5.20
  -1   3  -4  141.29    9.00
  -1   3  -4  142.79   11.00
   1  -3   4  161.68    4.90
   1  -3   4  178.28   10.90
   1  -3   4  145.39    8.10
  -2   3  -4  147.39    6.40
  -2   3  -4  139.69    8.00
   2  -3   4  149.69    6.10
   2  -3   4  131.39   11.10
  -3   3  -4    1.20    4.50
  -3   3  -4   -0.10    5.20
   3  -3   4   -1.80    7.70
   3  -3   4    2.80    3.80
  -4   3  -4   89.69    8.40
  -4   3  -4   71.79    9.00
   4  -3   4   83.39   12.00
  -5   3  -4   23.60    8.40
  -5   3  -4   14.50    7.00
   5  -3   4   10.10   10.30
  -6   3  -4    3.90    8.60
  -6   3  -4    5.40   10.00
   6  -3   4   -1.80   12.40
   7   2  -4    9.30   17.50
  -7  -2   4   30.40   11.30
   6   2  -4   15.30   13.90
  -6  -2   4   29.10    9.70
   5   2  -4   -1.80   10.40
   5   2  -4    6.80    3.90
  -5  -2   4    5.70    6.60
   4   2  -4  475.95   14.40
   4   2  -4  475.35   21.90
  -4  -2   4  465.85   17.50
  -4  -2   4  483.15   14.00
   3   2  -4   93.49    9.60
   3   2  -4  101.49    6.60
  -3  -2   4   95.49    5.60
  -3  -2   4   96.29    7.20
   2   2  -4  133.59   10.30
   2   2  -4  133.19    7.20
   2   2  -4  126.29    9.80
   2   2  -4  136.79    6.80
  -2  -2   4  132.09   11.60
  -2  -2   4  132.99    6.70
  -2  -2   4  142.29    6.50
   1   2  -4  643.84   16.70
   1   2  -4  656.23   21.90
   1   2  -4  655.73   18.10
  -1  -2   4  642.14   16.90
  -1  -2   4  687.13   18.10
  -1  -2   4  629.44   21.90
   0   2  -4   24.10    2.60
   0   2  -4   23.70    4.10
   0   2  -4   26.00    4.20
   0   2  -4   19.80    2.40
   0   2  -4   20.40    5.40
   0  -2   4   24.90    3.70
   0  -2   4   20.80    5.40
   0  -2   4   23.20    2.80
  -1   2  -4  991.30   27.90
  -1   2  -4 1031.40   27.50
  -1   2  -4 1072.59   29.70
  -1   2  -4 1074.59   25.00
   1  -2   4 1078.69   27.50
   1  -2   4 1001.30   28.90
   1  -2   4 1142.69   25.80
  -2   2  -4   18.20    3.60
  -2   2  -4   20.80    5.90
  -2   2  -4   16.70    4.90
  -2   2  -4   15.10    4.30
   2  -2   4   18.10    6.40
   2  -2   4   23.10    5.40
   2  -2   4   22.10    3.20
  -3   2  -4  156.88    8.20
  -3   2  -4  158.88    9.30
   3  -2   4  172.78   11.80
   3  -2   4  169.88    8.50
   3  -2   4  149.79   10.20
  -4   2  -4  158.08   10.00
  -4   2  -4  152.28   10.00
   4  -2   4  142.09   13.30
   4  -2   4  157.98   11.40
  -5   2  -4    2.10    5.80
  -5   2  -4   -4.50    7.20
   5  -2   4   -4.00    9.30
  -6   2  -4   23.10    8.70
  -6   2  -4   51.89   15.60
   6  -2   4   18.10   12.70
  -7   2  -4   37.40   12.20
   7  -2   4   -1.80   18.30
   7   1  -4   18.90   17.70
  -7  -1   4   42.60   11.40
   6   1  -4   17.00   13.00
  -6  -1   4    5.80    8.50
   5   1  -4   -6.60   10.70
  -5  -1   4    5.00    6.80
   4   1  -4  195.68    6.60
   4   1  -4  173.38   14.90
  -4  -1   4  182.88    5.90
  -4  -1   4  172.28   10.90
   3   1  -4   88.49    4.60
   3   1  -4   85.29   10.00
  -3  -1   4   79.39    6.90
   2   1  -4  792.92   24.30
   2   1  -4  797.52   20.30
   2   1  -4  831.92   20.50
   2   1  -4  776.32   25.10
   2   1  -4  802.42   21.80
  -2  -1   4  832.62   20.00
   1   1  -4  323.57   10.00
   1   1  -4  340.57   13.60
   1   1  -4  333.67   12.70
   1   1  -4  324.07   10.00
   1   1  -4  331.77   10.40
  -1  -1   4  320.67   10.30
  -1  -1   4  337.67    9.80
  -1  -1   4  312.87   13.50
   0   1  -4  356.16   12.40
   0   1  -4  337.17   10.40
   0   1  -4  343.67   10.70
   0   1  -4  342.47   10.30
   0   1  -4  349.57   11.20
   0  -1   4  340.27   12.70
   0  -1   4  338.67   11.30
   0  -1   4  343.57   10.60
  -1   1  -4  222.98    7.40
  -1   1  -4  236.08    8.80
  -1   1  -4  231.98    9.00
  -1   1  -4  217.98    9.50
   1  -1   4  221.88    9.30
   1  -1   4  216.78    9.50
   1  -1   4  223.78    7.20
  -2   1  -4   38.80    4.30
  -2   1  -4   42.40    5.40
  -2   1  -4   48.30    5.90
   2  -1   4   37.40    5.30
   2  -1   4   39.00    4.40
   2  -1   4   37.40    4.90
  -3   1  -4  129.79    9.40
  -3   1  -4  132.29    8.60
  -3   1  -4  129.89    8.60
   3  -1   4  128.09    9.80
   3  -1   4  126.39    8.90
   3  -1   4  134.79    7.60
  -4   1  -4    1.90    5.20
  -4   1  -4    3.40    6.50
   4  -1   4   21.90    7.10
   4  -1   4   12.80    7.20
  -5   1  -4   49.30    7.60
  -5   1  -4   46.00    8.40
   5  -1   4   46.50   10.20
   5  -1   4   53.49    9.60
  -6   1  -4   15.10    7.90
   6  -1   4   20.80   13.60
   6  -1   4   16.40    9.20
  -7   1  -4   10.60   12.70
  -7   1  -4    5.10    9.50
   7  -1   4    0.20   16.80
   7   0  -4   -4.60   16.70
  -7   0   4    1.20   10.70
   6   0  -4  -11.40   12.80
  -6   0   4    1.60    8.80
   5   0  -4  237.88   18.30
  -5   0   4  203.68   13.30
   4   0  -4    2.60    8.70
  -4   0   4    1.70    5.60
   3   0  -4  208.78   12.70
  -3   0   4  205.58   10.00
   2   0  -4  285.27   12.80
   2   0  -4  303.97   13.60
   2   0  -4  293.57   10.70
   2   0  -4  293.87    8.10
  -2   0   4  306.17   11.90
  -2   0   4  320.67   10.80
   1   0  -4   68.99    5.30
   1   0  -4   69.19    4.20
   1   0  -4   70.49    3.90
   1   0  -4   71.89    4.80
   1   0  -4   69.79    6.50
  -1   0   4   70.49    4.90
  -1   0   4   69.19    4.10
  -1   0   4   77.49    6.00
   0   0  -4 1417.76   34.30
   0   0  -4 1363.56   33.60
   0   0  -4 1433.46   33.20
   0   0   4 1339.67   34.10
   0   0   4 1364.06   33.30
   0   0   4 1284.97   33.60
  -1   0  -4  189.48    8.50
  -1   0  -4  173.88    7.00
  -1   0  -4  171.78    7.20
   1   0   4  163.08    6.90
   1   0   4  170.18    7.70
   1   0   4  171.38    6.60
  -2   0  -4  518.65   15.40
  -2   0  -4  539.85   15.30
  -2   0  -4  547.35   16.30
   2   0   4  550.24   15.70
   2   0   4  526.55   15.30
  -3   0  -4  297.37   11.80
  -3   0  -4  294.27   11.50
  -3   0  -4  300.47   11.70
   3   0   4  298.87   11.40
   3   0   4  290.07   12.20
   3   0   4  289.47   11.80
  -4   0  -4   31.40    7.00
  -4   0  -4   24.30    7.00
   4   0   4   22.60    7.30
   4   0   4   28.30    7.60
  -5   0  -4  137.69   12.20
   5   0   4  166.18   11.70
   5   0   4  157.08   14.80
  -6   0  -4   23.50    9.60
   6   0   4    9.70    9.50
   6   0   4    1.90    9.40
  -7   0  -4   16.60   13.40
  -7   0  -4    2.20    9.20
   7   0   4  -10.00   14.60
   7   0   4   20.70   12.10
   7  -1  -4   -8.00   17.70
  -7   1   4   -0.30   11.10
   6  -1  -4  -11.50   13.10
  -6   1   4  -12.20    8.90
   5  -1  -4   86.89   13.90
  -5   1   4   86.29   10.90
   4  -1  -4  107.99   13.80
  -4   1   4   89.99    9.30
   3  -1  -4  507.95   19.70
  -3   1   4  500.35   16.90
   2  -1  -4  187.68   10.50
   2  -1  -4  191.78    5.30
   2  -1  -4  190.58    8.90
  -2   1   4  189.68    9.80
  -2   1   4  183.28    8.50
  -2   1   4  186.68    5.40
   1  -1  -4  210.68    8.70
   1  -1  -4  215.08    7.50
   1  -1  -4  213.38    9.00
  -1   1   4  209.48    6.90
  -1   1   4  211.88    8.70
  -1   1   4  216.78    8.80
   0  -1  -4   93.39    4.90
   0  -1  -4   90.49    6.00
   0  -1  -4   84.19    6.10
   0  -1  -4   80.49    4.60
   0   1   4   84.69    4.80
   0   1   4   89.59    6.20
  -1  -1  -4  260.37    9.50
  -1  -1  -4  259.27    7.30
  -1  -1  -4  274.47    9.30
   1   1   4  262.97    7.40
   1   1   4  245.88    9.40
   1   1   4  269.17    8.90
  -2  -1  -4  176.88    8.40
  -2  -1  -4  206.28    8.80
   2   1   4  193.38    9.20
   2   1   4  195.68    8.20
   2   1   4  195.68    6.50
  -3  -1  -4    0.50    3.90
  -3  -1  -4    1.70    3.20
  -3  -1  -4   -0.50    4.10
   3   1   4   -1.00    3.60
   3   1   4    2.70    3.40
  -4  -1  -4  132.49    9.40
  -4  -1  -4  137.39   10.60
   4   1   4  140.79   10.60
   4   1   4  136.69   10.00
  -5  -1  -4   36.30    9.20
   5   1   4   36.80    8.80
   5   1   4   44.40    9.20
  -6  -1  -4    9.50    9.60
   6   1   4   14.70    8.30
   6   1   4    2.30   10.00
  -7  -1  -4   42.00   13.00
   7   1   4   35.70   12.60
   7   1   4   45.00   14.50
   7  -2  -4  -17.20   17.30
  -7   2   4   -5.40   11.80
  -6   2   4  111.19   14.50
   5  -2  -4   -3.10    8.10
  -5   2   4    3.50    6.60
   4  -2  -4   80.39   11.20
  -4   2   4   75.19    9.40
   3  -2  -4   66.59    9.50
  -3   2   4   68.59    7.30
   2  -2  -4   71.69    4.00
   2  -2  -4   78.79    8.60
   2  -2  -4   72.99    6.50
  -2   2   4   82.69    6.70
  -2   2   4   70.59    7.50
   1  -2  -4  524.75   16.60
   1  -2  -4  552.44   14.50
   1  -2  -4  555.34   16.80
  -1   2   4  529.15   14.40
  -1   2   4  529.85   16.30
   0  -2  -4  215.08    8.10
   0  -2  -4  239.38   10.00
   0  -2  -4  235.48    8.20
   0  -2  -4  216.68    9.60
   0   2   4  245.18    7.90
   0   2   4  221.48    9.90
   0   2   4  225.68    8.30
  -1  -2  -4  461.05   14.50
  -1  -2  -4  467.85   11.00
  -1  -2  -4  477.45   14.40
  -1  -2  -4  494.15   11.00
   1   2   4  474.55   14.50
   1   2   4  473.15   14.20
  -2  -2  -4  221.28    9.00
  -2  -2  -4  203.78    9.20
   2   2   4  207.38    8.90
   2   2   4  218.98    9.00
  -3  -2  -4  124.99    8.50
   3   2   4  111.99   10.10
   3   2   4  117.89    5.70
   3   2   4  117.09    8.40
  -4  -2  -4  284.97   14.20
  -4  -2  -4  282.87   11.50
   4   2   4  290.87   13.00
   4   2   4  269.27   11.50
   4   2   4  271.67   13.20
  -5  -2  -4   -0.70    7.60
  -5  -2  -4   -3.50    7.00
   5   2   4    6.70    9.10
   5   2   4    5.50    6.90
   5   2   4   -5.60    6.30
  -6  -2  -4   32.60   10.40
   6   2   4   30.20   10.40
   6   2   4   15.70    9.40
  -7  -2  -4   32.30   12.00
   7   2   4   22.60   12.30
   7   2   4    0.70   13.60
   6  -3  -4   19.80   15.60
  -6   3   4    1.40   10.50
  -5   3   4   83.39   10.80
   4  -3  -4  139.89   15.80
  -4   3   4  146.79   11.40
   3  -3  -4  169.08   14.00
  -3   3   4  150.08    5.70
  -3   3   4  169.18   10.40
   2  -3  -4  194.18    7.50
   2  -3  -4  203.68   12.10
  -2   3   4  191.08    7.20
  -2   3   4  193.58   10.10
   1  -3  -4   55.99    6.60
   1  -3  -4   54.09    4.90
   1  -3  -4   49.80    6.60
  -1   3   4   53.09    6.80
  -1   3   4   56.19    4.70
  -1   3   4   60.39    6.20
   0  -3  -4  246.08    9.40
   0  -3  -4  223.48    9.30
   0  -3  -4  232.28    9.90
   0  -3  -4  230.78   10.70
   0   3   4  243.18    8.80
   0   3   4  217.08   10.30
   0   3   4  244.98    9.30
  -1  -3  -4   77.59    4.60
  -1  -3  -4   89.89    6.40
  -1  -3  -4   88.69    6.90
  -1  -3  -4   83.99    6.20
   1   3   4   80.09    6.40
   1   3   4   80.39    5.90
  -2  -3  -4   40.50    5.60
   2   3   4   40.40    2.40
   2   3   4   40.50    4.90
   2   3   4   36.50    5.20
   2   3   4   38.80    2.20
  -3  -3  -4  250.97   11.50
   3   3   4  248.18   12.10
   3   3   4  259.07    9.00
  -4  -3  -4   45.00    7.30
   4   3   4   30.60    5.30
   4   3   4   36.70    7.40
   4   3   4   48.70    6.90
  -5  -3  -4   66.49   10.70
   5   3   4   65.29    8.70
   5   3   4   89.39   11.90
   5   3   4   63.79    9.50
  -6  -3  -4   60.39   11.60
   6   3   4   90.39   12.60
   6   3   4   62.69   11.40
  -7  -3  -4    9.20   11.80
   7   3   4   12.30   12.00
   6  -4  -4   13.50   16.50
  -6   4   4    6.90   11.70
   5  -4  -4   38.70   14.70
  -5   4   4   34.80    9.60
   4  -4  -4   13.90   11.30
  -4   4   4   18.90    3.60
  -4   4   4   12.80    7.30
  -4   4   4    7.90    4.70
   3  -4  -4   13.70    4.30
   3  -4  -4   27.00   10.10
  -3   4   4   29.10    4.20
  -3   4   4   21.90    6.80
   2  -4  -4   95.19    6.90
   2  -4  -4   97.79   11.60
  -2   4   4   99.29    6.70
  -2   4   4   99.89    8.70
   1  -4  -4   39.40    7.60
   1  -4  -4   49.80    5.90
   1  -4  -4   45.00    6.80
   1  -4  -4   34.80    6.70
  -1   4   4   43.00    6.30
  -1   4   4   39.40    7.30
  -1   4   4   34.90    4.90
   0  -4  -4  207.58    9.70
   0  -4  -4  175.88    9.60
   0  -4  -4  185.88    9.70
   0  -4  -4  193.78   10.90
   0   4   4  208.18    9.40
   0   4   4  193.18    9.30
  -1  -4  -4   40.20    6.10
  -1  -4  -4   51.09    6.60
  -1  -4  -4   39.40    5.40
   1   4   4   37.10    5.60
   1   4   4   43.80    6.40
   1   4   4   41.00    4.70
  -2  -4  -4  136.09    8.80
   2   4   4  137.89    6.40
   2   4   4  133.99    8.20
  -3  -4  -4  217.18   12.00
   3   4   4  219.48    8.90
   3   4   4  229.98    8.40
   3   4   4  215.78   11.30
  -4  -4  -4    7.00    7.10
   4   4   4   11.70    7.20
   4   4   4   11.60    5.50
   4   4   4   18.00    5.00
  -5  -4  -4   49.00    9.80
   5   4   4   39.40    8.60
   5   4   4   39.40    8.00
  -6  -4  -4   -1.90   10.00
   6   4   4   28.40    9.80
   6   4   4   12.10   10.10
  -7  -4  -4   27.10   13.20
   7   4   4    7.90   13.20
   6  -5  -4   19.40   19.70
  -6   5   4   14.90   14.20
   5  -5  -4    2.30   14.90
  -5   5   4   29.10   10.60
   4  -5  -4   60.69   14.90
  -4   5   4   75.39   11.40
   3  -5  -4   54.69    6.90
   3  -5  -4   70.59   12.70
  -3   5   4   53.79    8.80
  -3   5   4   54.79    6.70
   2  -5  -4    0.30    8.70
   2  -5  -4    0.70    5.80
  -2   5   4    1.90    6.30
  -2   5   4   -4.20    4.90
   1  -5  -4  161.38   10.80
   1  -5  -4  163.48   13.80
  -1   5   4  160.08    9.40
  -1   5   4  157.98   11.20
   0  -5  -4   42.40    7.60
   0  -5  -4   44.90    6.90
   0   5   4   34.30    5.70
   0   5   4   30.80    6.00
  -1  -5  -4   69.89    7.10
  -1  -5  -4   59.19    7.60
   1   5   4   57.29    7.90
   1   5   4   52.59    6.70
  -2  -5  -4  197.48   11.20
  -2  -5  -4  178.58   10.50
   2   5   4  182.48    9.40
   2   5   4  177.08   11.80
  -3  -5  -4    1.10    6.40
   3   5   4    5.20    4.30
   3   5   4   11.60    5.60
   3   5   4    9.50    5.00
  -4  -5  -4  116.29   11.60
   4   5   4   98.09   11.90
   4   5   4  113.89    9.80
   4   5   4  115.79    8.40
  -5  -5  -4   62.79   12.70
   5   5   4   77.09   11.60
   5   5   4   80.39    9.60
  -6  -5  -4    0.70   10.60
   6   5   4   -4.00   11.20
   5  -6  -4   -8.90   17.60
  -5   6   4  -11.00   10.40
   4  -6  -4    1.00   13.90
  -4   6   4   12.60    6.90
  -4   6   4   10.30    9.80
   3  -6  -4   32.10   13.00
  -3   6   4   24.60    9.50
  -3   6   4   15.10    6.60
   2  -6  -4    8.10   10.50
   2  -6  -4    7.90    7.00
  -2   6   4    8.30    5.90
  -2   6   4   21.60    8.30
   1  -6  -4   69.09   11.30
   1  -6  -4   70.49    9.10
  -1   6   4   77.49    9.60
  -1   6   4   86.89   10.10
   0  -6  -4   10.00    5.60
   0  -6  -4   10.80    8.20
   0   6   4   13.60    7.10
  -1  -6  -4   54.89    7.70
  -1  -6  -4   50.29    9.20
   1   6   4   52.59    8.90
   1   6   4   58.79    7.80
  -2  -6  -4   69.29    8.80
  -2  -6  -4   70.29   10.40
   2   6   4   63.29    8.30
   2   6   4   75.39   10.50
  -3  -6  -4   30.80    6.80
  -3  -6  -4   17.60    8.10
   3   6   4   31.10    6.90
   3   6   4   28.70    6.10
   3   6   4   17.20    7.90
  -4  -6  -4   22.50    8.20
   4   6   4   29.40    9.50
  -5  -6  -4    2.80   10.90
   5   6   4   22.70   10.40
  -6  -6  -4   27.00   11.70
   6   6   4    4.00   12.50
   5  -7  -4   15.80   20.10
  -5   7   4   16.60   13.30
   4  -7  -4  -12.20   16.20
  -4   7   4   43.40   16.50
   3  -7  -4   -7.00   13.20
  -3   7   4   -3.60    7.30
  -3   7   4    3.90    9.40
   2  -7  -4   59.19   10.20
   2  -7  -4   22.10   13.60
  -2   7   4   49.00    8.50
  -2   7   4   48.30   10.00
   1  -7  -4    2.30    9.30
   1  -7  -4    5.30    6.90
  -1   7   4   -0.90    7.30
   0  -7  -4   35.50    7.60
   0  -7  -4   31.40   11.30
   0   7   4   38.20    8.40
  -1  -7  -4   72.99    9.50
  -1  -7  -4   44.20   10.40
   1   7   4   50.69    9.50
  -2  -7  -4   -2.40    9.40
  -2  -7  -4    2.00    6.10
   2   7   4   -0.40    7.70
   2   7   4   -2.30    7.30
  -3  -7  -4  100.69   13.90
  -3  -7  -4   90.39   11.20
   3   7   4  101.39   19.20
  -4  -7  -4   40.20    9.50
   4   7   4   44.60   10.20
   4   7   4   45.90   11.60
  -5  -7  -4   -6.40    9.70
   5   7   4   -6.50   10.90
   4  -8  -4  -26.30   17.10
  -4   8   4    9.90   14.30
   3  -8  -4  -21.10   15.60
   3  -8  -4   16.90   10.30
  -3   8   4   -5.00    8.70
  -3   8   4   -1.70   10.50
   2  -8  -4   32.10    9.40
  -2   8   4   24.60   10.80
  -2   8   4   39.30   11.10
   1  -8  -4    2.80   11.40
   1  -8  -4   -5.80    7.40
  -1   8   4   -1.70    9.90
   0  -8  -4   43.40   13.50
   0  -8  -4   30.10    8.20
   0   8   4   26.90    9.20
  -1  -8  -4   14.60    7.80
  -1  -8  -4   17.30   12.00
   1   8   4   -5.60   11.20
  -2  -8  -4   15.40   13.20
  -2  -8  -4  -15.60    7.50
   2   8   4    2.50    6.90
  -3  -8  -4   28.50   12.80
  -3  -8  -4   17.30    9.60
   3   8   4    3.60   10.80
  -4  -8  -4   14.40   10.00
   4   8   4    8.40   11.10
  -5  -8  -4   15.20   12.70
   5   8   4   28.50   13.90
   3  -9  -4   27.30   21.50
   3  -9  -4   11.00   20.30
  -3   9   4    6.50   12.60
   2  -9  -4    7.60    9.40
   2  -9  -4   14.30   19.30
  -2   9   4   -8.40   11.80
   1  -9  -4   -7.10    7.80
   1  -9  -4   -0.20   13.80
  -1   9   4    5.10   10.30
   0  -9  -4   14.00    8.60
   0  -9  -4   31.10   15.00
   0   9   4   18.80   11.10
  -1  -9  -4   -1.70    8.20
  -1  -9  -4    0.60   13.80
   1   9   4   13.70   11.20
  -2  -9  -4    9.50   16.00
  -2  -9  -4   16.00    8.20
   2   9   4   39.10   11.90
   3   9   4    8.20    9.40
  -4  -9  -4    2.40   11.80
   4   9   4   28.30   13.30
   1 -10  -4   51.09   20.40
  -1  10   4  -17.30   13.00
   0 -10  -4   29.50   19.40
   0  10   4   -5.00   13.20
  -1 -10  -4   -0.30   19.70
   1  10   4    3.20   13.10
  -2 -10  -4  -16.40   14.10
   2  10   4   20.50   13.70
   2   9  -5    3.20   14.90
  -2  -9   5   35.10   22.30
   1   9  -5    1.90   13.70
  -1  -9   5   -5.90   19.40
   0   9  -5   16.60   13.80
   0  -9   5   -8.30   18.10
  -1   9  -5   -7.40   13.80
   1  -9   5  -21.80   12.80
  -2   9  -5    3.30   14.30
   2  -9   5   15.90   18.60
   4   8  -5   56.89   21.30
   4   8  -5   43.10   13.90
  -4  -8   5    1.10   27.00
   3   8  -5   15.90   14.00
  -3  -8   5   56.19   22.00
   2   8  -5   22.00   12.60
  -2  -8   5   45.10   20.20
   1   8  -5   40.20   13.00
  -1  -8   5   41.10   17.20
   0   8  -5   19.80   12.50
   0  -8   5   -4.40   15.10
  -1   8  -5   -0.50    8.80
   1  -8   5    2.30   15.60
  -2   8  -5   36.30   12.40
   2  -8   5   25.20   17.20
  -3   8  -5  -18.00   11.40
   3  -8   5   30.60   18.70
   5   7  -5   16.20   12.20
   5   7  -5   38.60   19.70
   4   7  -5   71.99   18.70
   4   7  -5   96.29   13.70
  -4  -7   5   86.29   11.10
  -4  -7   5  118.09   23.90
   3   7  -5  -12.20   10.20
  -3  -7   5  -25.40   16.00
  -3  -7   5    6.50    8.90
   2   7  -5    3.70   11.80
  -2  -7   5   20.00   15.10
   1   7  -5   45.90   11.30
  -1  -7   5   62.39   16.70
   0   7  -5    0.80    7.20
   0  -7   5   11.90   12.50
   1  -7   5   35.50   14.20
  -2   7  -5   -3.80    9.60
   2  -7   5    8.20   12.80
  -3   7  -5   16.40   10.30
   3  -7   5   29.40   16.80
  -4   7  -5   17.30   11.60
   4  -7   5   38.70   18.40
   5   6  -5   75.29   13.00
   5   6  -5   95.29   20.50
  -5  -6   5  117.59   13.10
   4   6  -5   20.60   10.50
   4   6  -5   32.70   16.10
  -4  -6   5   28.90    7.00
  -4  -6   5    7.20   16.40
   3   6  -5  105.59   13.80
  -3  -6   5  115.29   18.40
  -3  -6   5  112.79    8.70
   2   6  -5   93.59   12.10
  -2  -6   5   90.49    6.30
  -2  -6   5   87.39   16.40
   1   6  -5    4.20    6.30
  -1  -6   5    3.30   12.00
   0   6  -5   72.39   10.50
   0  -6   5   55.29   13.00
  -1   6  -5   78.49   11.10
   1  -6   5   57.79   13.70
  -2   6  -5   16.70    9.20
   2  -6   5   20.20   11.30
  -3   6  -5   29.70    9.70
   3  -6   5   21.40   17.30
  -4   6  -5   -2.70    9.40
   4  -6   5  -10.70   13.90
  -5   6  -5   27.50   11.70
   5  -6   5   33.00   16.30
   6   5  -5   12.10   17.70
  -6  -5   5   23.90   11.50
   5   5  -5   98.39   11.50
   5   5  -5  106.79   18.80
  -5  -5   5   89.79   11.70
   4   5  -5   11.30    7.70
   4   5  -5   13.40   13.70
  -4  -5   5   22.50   14.40
  -4  -5   5   19.10    7.30
   3   5  -5   22.00   12.20
   3   5  -5   52.59   10.00
  -3  -5   5   51.79    6.60
  -3  -5   5   68.09   14.90
   2   5  -5   90.09   11.50
   2   5  -5  109.49    7.50
  -2  -5   5  114.59    6.50
  -2  -5   5   99.19   15.60
   1   5  -5   28.20    7.80
  -1  -5   5   15.50   10.00
  -1  -5   5   19.90    2.50
   0   5  -5  323.47   14.70
   0  -5   5  311.47   19.40
  -1   5  -5    4.60    7.10
   1  -5   5  -12.50    9.20
  -2   5  -5   71.99    9.90
  -2   5  -5   79.99    3.60
   2  -5   5   52.89   12.60
  -3   5  -5   15.50    7.90
  -3   5  -5   25.30    4.30
   3  -5   5   25.70   11.90
   3  -5   5   21.50    4.70
  -4   5  -5  -20.50    9.20
  -4   5  -5   -1.20    5.50
   4  -5   5   -8.40   12.30
  -5   5  -5    8.70    9.50
   5  -5   5   -5.20   14.80
  -6   5  -5  -25.10   10.80
   6  -5   5  -11.90   17.70
   6   4  -5   42.90   18.60
  -6  -4   5   53.69   10.60
   5   4  -5    8.80   12.90
   5   4  -5    8.60    7.20
  -5  -4   5    8.40    7.20
   4   4  -5  190.28   12.00
   4   4  -5  230.98   18.90
  -4  -4   5  200.18   11.30
   3   4  -5   88.29   10.00
   3   4  -5   84.29   13.30
  -3  -4   5   88.09    8.00
  -3  -4   5   79.99   15.20
   2   4  -5   23.80    5.40
   2   4  -5   20.90    6.50
  -2  -4   5   30.40    4.60
  -2  -4   5   33.00   10.50
   1   4  -5  172.38    6.80
   1   4  -5  171.68   11.00
  -1  -4   5  177.78    6.60
  -1  -4   5  195.68   15.10
   0   4  -5   73.89    8.80
   0  -4   5   77.09    9.60
  -1   4  -5  123.89    8.70
   1  -4   5  124.99   10.90
  -2   4  -5   79.09    5.00
  -2   4  -5   94.19    8.10
   2  -4   5  111.99   14.00
   2  -4   5   96.69    4.60
  -3   4  -5    3.60    6.60
   3  -4   5   -3.60    3.90
   3  -4   5   -9.10    9.20
  -4   4  -5  128.59    9.70
  -4   4  -5  102.79   12.60
   4  -4   5  100.89   15.00
  -5   4  -5    4.50    8.90
  -5   4  -5   26.10    7.90
  -6   4  -5    9.90   11.60
  -6   4  -5    5.70   10.70
   6  -4   5   -1.50   15.20
   6   3  -5   57.19   16.70
  -6  -3   5   55.19   10.40
   5   3  -5   55.09    7.40
  -5  -3   5   62.99    9.20
   4   3  -5   39.60   12.20
   4   3  -5   50.29    7.00
  -4  -3   5   49.20    6.30
  -4  -3   5   47.40    7.50
   3   3  -5   57.79    7.20
   3   3  -5   63.89   11.40
  -3  -3   5   61.69   10.80
  -3  -3   5   51.39    6.50
  -3  -3   5   58.79    6.70
   2   3  -5  102.49    7.90
   2   3  -5   88.49    6.70
  -2  -3   5   92.09    6.70
  -2  -3   5   99.59   13.10
   1   3  -5  782.02   22.90
   1   3  -5  800.82   19.90
  -1  -3   5  800.12   20.00
  -1  -3   5  768.32   22.10
  -1  -3   5  748.83   26.20
   0   3  -5   40.10    6.00
   0   3  -5   33.10    3.00
   0   3  -5   36.90    2.80
   0  -3   5   45.30    8.10
  -1   3  -5  420.16   11.60
  -1   3  -5  438.66   15.00
   1  -3   5  412.86   17.60
  -2   3  -5  101.39    9.00
  -2   3  -5  117.09    6.20
   2  -3   5  112.69    5.50
   2  -3   5  134.49   11.70
  -3   3  -5   38.00    7.40
  -3   3  -5   23.40    5.60
   3  -3   5   26.10    5.10
   3  -3   5   24.70    8.80
  -4   3  -5   83.79    9.30
  -4   3  -5   89.69   10.10
   4  -3   5   84.09   13.70
  -5   3  -5    7.70    6.60
  -5   3  -5   -2.60    7.30
   5  -3   5    8.30   11.20
  -6   3  -5   24.10   10.60
  -6   3  -5   68.09   16.40
   6  -3   5   44.80   14.80
   6   2  -5  -15.10   13.20
  -6  -2   5   -2.70    8.80
   5   2  -5  160.68    7.40
   5   2  -5  143.89   15.00
  -5  -2   5  157.28   12.20
   4   2  -5   52.39    5.70
   4   2  -5   58.59   10.50
  -4  -2   5   65.29    8.10
  -4  -2   5   55.09    5.70
   3   2  -5   74.89    6.60
   3   2  -5   54.69   10.90
  -3  -2   5   69.79    7.00
  -3  -2   5   72.59    5.30
   2   2  -5  333.87   11.60
   2   2  -5  324.67   12.00
   2   2  -5  336.07   15.90
   2   2  -5  319.07   11.50
  -2  -2   5  330.17   17.50
  -2  -2   5  336.37   11.70
  -2  -2   5  340.97   11.10
   1   2  -5   86.79    9.90
   1   2  -5   78.99    6.30
   1   2  -5   87.39    5.10
  -1  -2   5   83.19    5.20
  -1  -2   5   97.19    5.90
  -1  -2   5   69.79    9.30
   0   2  -5  329.87   12.20
   0   2  -5  328.47    9.80
   0   2  -5  323.97   14.20
   0   2  -5  346.87   12.10
   0   2  -5  321.37    9.90
   0  -2   5  334.27   11.50
   0  -2   5  322.67   10.30
   0  -2   5  307.47   14.40
  -1   2  -5  158.38    6.10
  -1   2  -5  155.98    6.60
  -1   2  -5  153.48   10.30
  -1   2  -5  151.88    8.30
  -1   2  -5  155.18    8.60
   1  -2   5  169.78   10.20
   1  -2   5  174.68    6.30
  -2   2  -5    9.10    5.10
  -2   2  -5    0.40    5.60
  -2   2  -5   -0.90    3.10
   2  -2   5    0.90    2.70
   2  -2   5    0.90    5.20
   2  -2   5   -0.20    5.10
  -3   2  -5  368.16   14.60
  -3   2  -5  357.16   13.20
   3  -2   5  360.36   15.50
   3  -2   5  363.16   16.60
   3  -2   5  342.97   12.20
  -4   2  -5   -6.10    5.30
  -4   2  -5   -1.70    5.40
   4  -2   5   -2.30    7.20
   4  -2   5   -0.70    8.00
  -5   2  -5   42.20    8.70
  -5   2  -5   47.00    8.30
   5  -2   5   34.40   11.00
   5  -2   5   29.80    9.40
  -6   2  -5    6.00    8.90
   6  -2   5  -11.90   13.80
  -7   2  -5   24.10    9.90
  -7   2  -5   -5.60   12.70
   7  -2   5  -38.40   16.40
   7   1  -5    3.50   18.30
  -7  -1   5    9.60   11.80
   6   1  -5   44.20   15.60
  -6  -1   5   38.70    9.90
   5   1  -5   11.00    9.30
  -5  -1   5   18.40    7.30
   4   1  -5   -4.10    8.80
   4   1  -5    2.10    2.20
  -4  -1   5    7.90    6.10
   3   1  -5  144.09    6.60
   3   1  -5  144.49    6.40
   3   1  -5  150.48   12.70
  -3  -1   5  144.59    8.70
   2   1  -5  606.44   18.20
   2   1  -5  612.54   21.60
   2   1  -5  632.44   17.10
   2   1  -5  650.93   17.30
  -2  -1   5  637.84   18.60
   1   1  -5  326.67   10.90
   1   1  -5  336.57   11.20
   1   1  -5  318.17   10.80
   1   1  -5  333.97   14.40
   1   1  -5  325.77   13.60
  -1  -1   5  335.87   14.70
  -1  -1   5  330.07   11.10
   0   1  -5  755.52   19.80
   0   1  -5  717.53   20.40
   0   1  -5  718.33   20.20
   0   1  -5  743.83   19.80
   0   1  -5  736.13   22.30
   0  -1   5  742.23   20.10
   0  -1   5  739.93   22.40
   0  -1   5  741.03   20.80
  -1   1  -5   46.60    4.50
  -1   1  -5   47.70    5.60
  -1   1  -5   55.09    6.10
  -1   1  -5   42.50    4.70
  -1   1  -5   45.60    4.20
   1  -1   5   50.39    6.40
   1  -1   5   55.99    6.20
   1  -1   5   51.39    4.00
  -2   1  -5  308.07   12.30
  -2   1  -5  319.37   12.70
  -2   1  -5  326.67   10.90
   2  -1   5  325.97   10.70
   2  -1   5  305.47   12.40
   2  -1   5  333.57   12.80
  -3   1  -5  289.27   13.30
  -3   1  -5  274.47   11.60
   3  -1   5  298.37   13.40
   3  -1   5  276.17   11.40
   3  -1   5  280.07   13.20
  -4   1  -5   37.20    7.40
  -4   1  -5   24.40    6.50
   4  -1   5   37.70    7.90
   4  -1   5   22.90    7.60
  -5   1  -5   97.39   11.20
  -5   1  -5  111.89   12.30
   5  -1   5  102.49   13.00
   5  -1   5  111.99   11.90
  -6   1  -5    4.40    8.70
  -6   1  -5    3.90    9.70
   6  -1   5    1.80   10.40
   6  -1   5   33.10   13.10
  -7   1  -5   15.10   11.60
  -7   1  -5   26.90   11.00
   7  -1   5  -19.10   13.00
   7  -1   5   17.40   14.60
   7   0  -5   25.70   17.60
  -7   0   5   14.30   12.70
   6   0  -5   97.79   18.30
  -6   0   5   80.09   13.00
   5   0  -5   27.70   12.30
  -5   0   5   44.30    9.10
   4   0  -5   72.09   11.90
  -4   0   5   74.89    8.90
   3   0  -5  250.87   14.60
   3   0  -5  240.38    6.30
   3   0  -5  251.87    6.40
  -3   0   5  249.08   11.50
   2   0  -5   22.60    7.10
   2   0  -5   21.60    2.90
   2   0  -5   25.60    3.20
   2   0  -5   24.80    6.40
   2   0  -5   29.40    4.90
  -2   0   5   26.30    4.70
  -2   0   5   26.40    6.10
   1   0  -5  771.22   23.20
   1   0  -5  761.52   21.00
   1   0  -5  785.32   19.90
   1   0  -5  742.23   19.50
   1   0  -5  771.12   22.20
  -1   0   5  721.73   19.80
  -1   0   5  764.92   21.00
   0   0  -5  283.47   10.60
   0   0  -5  281.87    9.90
   0   0  -5  288.07   11.10
   0   0  -5  271.37   10.30
   0   0   5  281.37   10.20
   0   0   5  271.27   11.30
   0   0   5  282.37   10.70
  -1   0  -5    6.50    3.30
  -1   0  -5    4.70    3.10
  -1   0  -5    3.30    3.30
   1   0   5    5.10    3.10
   1   0   5    4.60    2.50
  -2   0  -5  972.60   25.90
  -2   0  -5 1011.70   25.60
  -2   0  -5  964.40   27.10
   2   0   5  987.50   27.40
   2   0   5  974.70   25.60
   2   0   5  995.00   25.60
  -3   0  -5   14.50    4.80
  -3   0  -5    8.40    4.40
   3   0   5    9.60    4.60
   3   0   5    4.30    4.80
  -4   0  -5   52.99    7.90
  -4   0  -5   56.19    8.40
   4   0   5   53.99    8.70
   4   0   5   41.10    7.90
  -5   0  -5    9.40    7.70
   5   0   5   16.30    9.40
   5   0   5   14.40    7.60
  -6   0  -5   -5.50    8.50
   6   0   5    3.80   10.90
   6   0   5  -16.70    9.70
  -7   0  -5   -9.20   11.40
  -7   0  -5   19.60   10.50
   7   0   5    2.70   11.30
   7   0   5   -9.00   14.50
   7  -1  -5   28.00   17.80
  -7   1   5   15.10   12.60
   6  -1  -5   -4.80   14.30
  -6   1   5    1.20    9.80
   5  -1  -5  -13.20   10.30
  -5   1   5   -0.10    7.00
   4  -1  -5   60.89   11.50
  -4   1   5   58.89    8.20
   3  -1  -5  139.49   12.50
  -3   1   5  152.38    9.50
   2  -1  -5  434.76   16.60
   2  -1  -5  460.85   11.50
  -2   1   5  419.66   15.80
  -2   1   5  432.26   14.90
  -2   1   5  410.96   13.40
   1  -1  -5  468.05   15.90
   1  -1  -5  443.96   15.10
   1  -1  -5  471.95   15.30
   1  -1  -5  482.45   13.10
  -1   1   5  470.55   15.30
  -1   1   5  447.46   14.80
  -1   1   5  456.95   13.30
   0  -1  -5   -2.60    3.10
   0  -1  -5    2.00    2.70
   0  -1  -5    4.60    2.90
   0  -1  -5   -0.60    2.60
   0  -1  -5   -1.30    3.40
   0   1   5    2.40    3.70
   0   1   5    0.80    2.70
  -1  -1  -5  470.15   16.90
  -1  -1  -5  509.85   14.50
  -1  -1  -5  545.65   16.00
  -1  -1  -5  536.75   13.60
  -1  -1  -5  541.05   16.20
   1   1   5  527.15   14.00
   1   1   5  522.45   15.30
  -2  -1  -5  274.27   11.20
  -2  -1  -5  278.67   10.70
   2   1   5  254.57   11.10
   2   1   5  271.77    8.30
   2   1   5  268.37   10.20
  -3  -1  -5  194.18    8.10
  -3  -1  -5  189.78   10.10
   3   1   5  185.38    8.20
   3   1   5  178.68   10.30
  -4  -1  -5  189.08    9.90
  -4  -1  -5  186.78   12.10
   4   1   5  199.48   10.80
   4   1   5  190.38   13.00
  -5  -1  -5   20.00    8.40
  -5  -1  -5   17.50    8.50
   5   1   5   17.70    8.30
   5   1   5   17.80    7.60
  -6  -1  -5   34.10   11.00
   6   1   5   24.80   10.60
   6   1   5   22.10   11.00
  -7  -1  -5   39.90   12.80
   7   1   5   27.60   13.50
   7   1   5    4.00   14.00
   6  -2  -5   37.10   16.70
  -6   2   5   16.50   10.40
  -5   2   5   92.49   17.60
   4  -2  -5   82.09   13.40
  -4   2   5   81.89    9.70
   3  -2  -5    4.10    7.80
  -3   2   5    8.00    5.20
   2  -2  -5  504.15   13.30
   2  -2  -5  511.35   18.60
  -2   2   5  508.75   13.40
  -2   2   5  475.35   16.90
   1  -2  -5   62.19    6.40
   1  -2  -5   59.39    4.60
   1  -2  -5   63.49    6.00
  -1   2   5   67.09    5.90
  -1   2   5   62.99    4.70
  -1   2   5   63.59    6.80
   0  -2  -5   83.59    7.00
   0  -2  -5   75.89    6.90
   0  -2  -5   82.09    5.50
   0  -2  -5   78.19    5.30
   0   2   5   75.79    5.20
   0   2   5   79.09    7.20
   0   2   5   77.89    5.50
  -1  -2  -5 1262.87   32.70
  -1  -2  -5 1276.77   32.40
  -1  -2  -5 1283.67   28.80
  -1  -2  -5 1242.18   33.10
  -1  -2  -5 1304.57   29.10
   1   2   5 1244.78   32.20
   1   2   5 1238.78   32.30
  -2  -2  -5   89.79    7.20
  -2  -2  -5   99.59    8.60
   2   2   5   80.59    6.20
   2   2   5   92.59    7.30
  -3  -2  -5  107.89    8.60
   3   2   5   92.39    8.50
   3   2   5  101.89    5.00
  -4  -2  -5   33.90    7.80
  -4  -2  -5   27.40    5.30
   4   2   5   27.60    7.20
   4   2   5   35.70    6.40
   4   2   5   21.50    5.00
  -5  -2  -5   -1.80    6.70
  -5  -2  -5    3.60    8.10
   5   2   5    3.10    7.50
   5   2   5    5.20    6.90
   5   2   5    5.90    8.30
  -6  -2  -5   24.90   10.80
   6   2   5   18.20    9.30
   6   2   5   20.10   10.30
  -7  -2  -5   23.60   11.70
   6  -3  -5  -11.50   15.00
  -6   3   5   12.50   10.70
   5  -3  -5   32.10   13.40
  -5   3   5   15.60    8.90
   4  -3  -5   41.60   12.10
  -4   3   5   28.70    8.50
   3  -3  -5  164.88   14.40
  -3   3   5  155.98   11.20
  -3   3   5  152.48    5.90
   2  -3  -5   90.89   10.20
   2  -3  -5   92.79    5.90
  -2   3   5   82.09    8.10
  -2   3   5   88.79    5.40
   1  -3  -5   19.80    4.10
   1  -3  -5   15.70    5.50
  -1   3   5   21.20    3.90
  -1   3   5   21.00    6.20
  -1   3   5   20.60    4.60
   0  -3  -5  356.66   13.80
   0  -3  -5  349.57   12.10
   0  -3  -5  358.76   12.40
   0  -3  -5  353.96   14.40
   0   3   5  370.46   14.50
   0   3   5  352.96   12.30
   0   3   5  373.16   11.70
  -1  -3  -5  105.89    8.30
  -1  -3  -5  123.39    5.30
  -1  -3  -5  108.39    7.70
  -1  -3  -5  125.69    7.80
   1   3   5  130.39    4.70
   1   3   5  131.59    7.90
   1   3   5  128.99    7.80
  -2  -3  -5  276.87   11.70
   2   3   5  260.17   11.30
  -3  -3  -5  150.58    9.40
   3   3   5  150.58   10.60
  -4  -3  -5   57.19    8.60
   4   3   5   41.10    5.60
   4   3   5   48.70    7.50
   4   3   5   41.00    4.80
  -5  -3  -5   54.39   10.30
   5   3   5   55.69    7.20
   5   3   5   59.49    9.80
  -6  -3  -5   23.50   10.10
   6   3   5    1.00    9.20
   6   3   5   37.10   11.80
  -7  -3  -5    7.90   14.30
   7   3   5   30.40   14.40
   6  -4  -5  -12.40   16.00
  -6   4   5   19.30   12.30
   5  -4  -5    5.90   13.60
  -5   4   5    6.80    9.90
   4  -4  -5   21.20   11.30
  -4   4   5    5.60    7.50
   3  -4  -5  134.39   15.30
   3  -4  -5  135.19    7.60
  -3   4   5  131.99   11.30
  -3   4   5  143.29    7.00
   2  -4  -5   -5.70    6.90
   2  -4  -5   -1.90    4.10
  -2   4   5   -4.00    3.70
  -2   4   5   -7.00    5.30
   1  -4  -5  160.88   11.80
   1  -4  -5  169.58   11.10
   1  -4  -5  161.98    9.30
  -1   4   5  143.59    7.90
  -1   4   5  142.49    9.50
  -1   4   5  169.28   11.30
   0  -4  -5  427.76   15.10
   0  -4  -5  428.46   16.70
   0  -4  -5  395.76   15.60
   0   4   5  432.16   14.70
   0   4   5  429.86   14.10
  -1  -4  -5  160.58    9.50
  -1  -4  -5  172.88    8.10
   1   4   5  178.18   10.00
   1   4   5  175.68    7.10
  -2  -4  -5  131.09    9.30
   2   4   5  130.99    8.60
   2   4   5  134.59    4.40
   2   4   5  127.59    4.30
  -3  -4  -5    9.10    6.30
   3   4   5    6.60    4.80
   3   4   5    9.70    1.80
   3   4   5    9.70    1.80
  -4  -4  -5   10.10    7.90
   4   4   5   -0.70    3.30
   4   4   5   14.60    7.50
   4   4   5    7.60    5.80
   5   4   5   27.10    6.30
   5   4   5   38.40   10.10
  -6  -4  -5   -6.70   10.20
   6   4   5   11.20   10.50
  -7  -4  -5    6.00   14.30
   7   4   5   -3.10   13.40
   5  -5  -5    4.10   16.80
  -5   5   5   -3.60   10.10
   4  -5  -5   28.30   16.10
  -4   5   5   58.79    6.60
  -4   5   5   44.60    9.30
   3  -5  -5   26.70    6.20
   3  -5  -5   27.60   11.80
  -3   5   5   23.90    5.50
  -3   5   5   10.60    7.50
   2  -5  -5   20.50    9.90
   2  -5  -5    4.50    5.40
  -2   5   5   -0.90    6.80
  -2   5   5   15.90    5.70
   1  -5  -5  108.29   10.60
   1  -5  -5  119.39   13.40
  -1   5   5  105.59    8.40
  -1   5   5  120.89   11.30
   0  -5  -5   14.90    6.60
   0  -5  -5    6.90    6.60
   0   5   5    9.20    5.80
   0   5   5   10.30    5.50
  -1  -5  -5  182.08   10.70
  -1  -5  -5  150.58   10.00
   1   5   5  178.98   11.10
   1   5   5  169.28    8.70
  -2  -5  -5   69.59    8.90
  -2  -5  -5   65.19    7.30
   2   5   5   74.49    5.90
   2   5   5   60.79    7.70
  -3  -5  -5   51.09    8.60
   3   5   5   47.90    8.90
  -4  -5  -5   61.49    9.80
   4   5   5   77.49   10.60
   4   5   5   50.69    6.00
  -5  -5  -5   16.30    9.30
   5   5   5   17.70   13.10
  -6  -5  -5    2.10   10.80
   6   5   5   -8.50   11.20
   5  -6  -5    2.50   17.60
  -5   6   5   -0.80   10.90
   4  -6  -5    5.50   14.90
  -4   6   5   25.40   10.70
   3  -6  -5   -4.30   11.20
  -3   6   5   16.10    6.10
  -3   6   5    9.90    9.20
   2  -6  -5   53.19   12.60
   2  -6  -5   61.99   10.60
  -2   6   5   50.09    7.60
  -2   6   5   63.19   11.30
   1  -6  -5   44.90   11.20
   1  -6  -5   63.29    9.10
  -1   6   5   59.19    9.70
  -1   6   5   52.69    7.90
   0  -6  -5  117.29   11.20
   0  -6  -5   97.29   12.50
   0   6   5  132.19   10.90
  -1  -6  -5   75.89    9.40
  -1  -6  -5   60.39   12.10
   1   6   5   64.19    8.90
   1   6   5   67.29    9.90
  -2  -6  -5    2.60    6.30
  -2  -6  -5    7.50    7.50
   2   6   5    0.50    7.20
   2   6   5    3.80    5.40
  -3  -6  -5    9.40    5.20
  -3  -6  -5   13.40    7.10
   3   6   5    7.90    5.60
   3   6   5   16.40    4.90
   3   6   5   15.10    8.40
  -4  -6  -5   23.90    8.70
   4   6   5   16.30   13.70
   4   6   5   20.20    7.90
  -5  -6  -5    1.60    9.80
   5   6   5   17.40   11.00
  -6  -6  -5   37.80   12.10
   6   6   5   56.39   14.70
   4  -7  -5   -3.60   17.30
  -4   7   5  -15.10   10.60
   3  -7  -5    4.30   13.50
  -3   7   5   -7.50   11.00
  -3   7   5    5.40    8.10
   2  -7  -5   20.70    9.50
   2  -7  -5   42.60   13.10
  -2   7   5   38.30   11.60
  -2   7   5    4.00    7.40
   1  -7  -5   -1.40    9.30
   1  -7  -5   11.40    7.60
  -1   7   5  -17.90    6.60
   0  -7  -5   58.09    8.50
   0  -7  -5   47.50   11.00
   0   7   5   57.19    9.10
  -1  -7  -5   26.70    7.50
  -1  -7  -5   26.80    9.60
   1   7   5   22.30    9.40
  -2  -7  -5   38.00    9.30
  -2  -7  -5   43.40   10.30
   2   7   5   31.30    9.40
  -3  -7  -5   27.20    9.00
  -3  -7  -5   36.90    8.40
   3   7   5   28.80   10.00
  -4  -7  -5  -16.70   10.00
   4   7   5   -0.20    9.70
  -5  -7  -5   -3.60   10.90
   5   7   5    9.00   11.70
   3  -8  -5   -0.40   15.20
   3  -8  -5   26.40   13.00
  -3   8   5    3.40   14.00
  -3   8   5   -1.40   10.20
   2  -8  -5    1.50   20.70
   2  -8  -5   -2.80    9.40
  -2   8   5   -6.30    9.80
  -2   8   5   13.30   11.50
   1  -8  -5   25.60   14.60
   1  -8  -5   23.10    9.20
  -1   8   5   13.80    9.20
   0  -8  -5   21.80   13.00
   0  -8  -5    7.50    8.40
   0   8   5   28.30    9.40
  -1  -8  -5   25.20    8.30
  -1  -8  -5   21.10   12.60
   1   8   5   16.50    9.40
  -2  -8  -5    5.20    8.60
  -2  -8  -5    5.00   12.10
   2   8   5    6.70   10.40
  -3  -8  -5    3.10    9.30
   3   8   5   12.60   10.90
  -4  -8  -5  -11.10    9.70
   4   8   5   13.60   12.10
   2  -9  -5   -9.00   19.20
   2  -9  -5   23.90   13.80
  -2   9   5  -15.60   10.70
   1  -9  -5   10.10    9.50
   1  -9  -5   -5.50   19.90
  -1   9   5   -2.00   10.70
   0  -9  -5   12.80    9.50
   0  -9  -5   36.00   16.00
   0   9   5   26.00   10.80
  -1  -9  -5    6.40   14.20
  -1  -9  -5   40.90   10.40
   1   9   5   34.30   11.60
  -2  -9  -5   -8.00   10.10
   2   9   5   18.80   12.30
  -3  -9  -5  -26.90   10.90
   3   9   5   16.40   12.10
   0 -10  -5   18.40   10.90
   0 -10  -5   16.00   19.00
   0  10   5   34.60   16.70
  -1 -10  -5   -5.00   17.90
   1  10   5   46.30   14.20
   1   9  -6    2.30   11.40
  -1  -9   6   -5.30   20.30
   0   9  -6   32.10   15.60
   0  -9   6  -21.00   19.70
  -1   9  -6   40.50   16.30
   1  -9   6    8.30   20.10
   3   8  -6   -1.20   14.30
  -3  -8   6   21.60   22.60
   2   8  -6   75.09   15.30
  -2  -8   6   28.90   20.40
   1   8  -6   12.90   10.00
  -1  -8   6   26.80   14.80
   0   8  -6  -13.20   10.90
   0  -8   6   33.30   17.60
  -1   8  -6   -8.60   11.80
   1  -8   6   28.70   13.90
  -2   8  -6   16.80   12.40
   2  -8   6   -2.90   16.50
  -3   8  -6   17.90   14.70
   3  -8   6   11.50   18.30
   4   7  -6   -9.90   12.20
   4   7  -6    0.90   16.10
  -4  -7   6   18.10   21.30
   3   7  -6    0.90   11.80
  -3  -7   6   37.80   18.40
   2   7  -6   38.90   12.00
  -2  -7   6   27.00   13.90
   1   7  -6   19.30   10.30
  -1  -7   6   14.10   12.10
   0   7  -6   41.60   11.70
   0  -7   6   28.40   15.00
  -1   7  -6   14.60   10.60
   1  -7   6    5.50   12.80
  -2   7  -6   23.20   11.20
   2  -7   6   10.70   14.50
  -3   7  -6   21.50   11.50
   3  -7   6   28.40   16.20
  -4   7  -6   -4.30   12.00
   4  -7   6   21.30   17.70
   5   6  -6   53.49   13.30
   5   6  -6   92.99   20.60
  -5  -6   6   33.10   10.70
   4   6  -6    0.00   11.30
   4   6  -6   -6.30   13.90
  -4  -6   6   44.60   20.70
  -4  -6   6    4.40    6.80
   3   6  -6  131.59   16.40
  -3  -6   6  177.18   23.40
  -3  -6   6  148.89   10.10
   2   6  -6   67.79   11.60
  -2  -6   6   32.10   14.70
  -2  -6   6   62.89    6.30
   1   6  -6   18.30    8.90
  -1  -6   6   35.70   13.70
   0   6  -6   71.39   10.90
   0  -6   6   65.99   12.80
  -1   6  -6   17.30    8.70
   1  -6   6    4.10   10.80
  -2   6  -6   50.09   10.80
   2  -6   6   54.49   14.00
  -3   6  -6    4.90   10.10
   3  -6   6   24.40   13.80
  -4   6  -6  -11.00   10.50
   4  -6   6   26.20   15.40
  -5   6  -6   11.50   12.00
   5  -6   6    0.30   19.70
   5   5  -6   13.40    9.80
   5   5  -6    6.30   13.20
  -5  -5   6   26.60    9.00
   4   5  -6   32.80   13.80
   4   5  -6   30.20   10.40
  -4  -5   6   33.20   16.90
  -4  -5   6   36.80    8.00
   3   5  -6   12.80   12.00
   3   5  -6   40.70    9.20
  -3  -5   6   31.70    6.40
  -3  -5   6   33.10   14.80
   2   5  -6   37.20    5.70
   2   5  -6   47.50    9.10
  -2  -5   6   40.80    5.30
  -2  -5   6   55.59   13.40
   1   5  -6   70.79    9.00
   1   5  -6   66.59    4.80
  -1  -5   6   68.89   12.10
   0   5  -6    1.20    7.80
   0  -5   6   13.80   10.80
  -1   5  -6   94.39   11.00
   1  -5   6   94.49   13.90
  -2   5  -6   41.40    9.50
   2  -5   6   75.49   13.20
  -3   5  -6   19.10    4.50
  -3   5  -6   -2.70    7.90
   3  -5   6   34.20   12.90
  -4   5  -6   13.30    6.20
  -4   5  -6    3.30    8.20
   4  -5   6   -3.10   12.50
  -5   5  -6  -11.30    9.90
   5  -5   6   17.80   17.40
   6   4  -6   46.50   17.80
  -6  -4   6   30.50   12.00
   5   4  -6   27.30   15.40
   5   4  -6   27.90    7.80
  -5  -4   6   34.60    9.40
   4   4  -6  172.08   16.70
   4   4  -6  186.18   12.90
  -4  -4   6  191.48   12.20
   3   4  -6   52.89    9.70
   3   4  -6   57.09   12.80
  -3  -4   6   50.09    6.80
  -3  -4   6   63.19   14.70
   2   4  -6  185.28   13.10
   2   4  -6  177.98    9.50
  -2  -4   6  174.98    8.80
  -2  -4   6  198.68   15.70
   1   4  -6  187.58    7.40
   1   4  -6  165.98   11.80
  -1  -4   6  154.98   15.90
  -1  -4   6  176.28    7.30
   0   4  -6   10.50    1.90
   0   4  -6    8.60    6.70
   0   4  -6    7.30    1.80
   0  -4   6   13.90    7.60
  -1   4  -6  151.48    4.40
  -1   4  -6  152.08    4.30
  -1   4  -6  157.68   11.30
   1  -4   6  161.78   14.60
  -2   4  -6   14.40    7.30
  -2   4  -6   16.90    3.50
   2  -4   6    7.90    8.60
   2  -4   6   21.70    3.30
  -3   4  -6   23.60    7.90
   3  -4   6   19.80    4.90
   3  -4   6   32.00   10.80
  -4   4  -6   64.29   10.40
  -4   4  -6   70.69    8.40
   4  -4   6   74.99   14.10
  -5   4  -6   14.50    7.60
  -5   4  -6   -6.10   10.10
   5  -4   6   12.30   14.80
  -6   4  -6    0.80   14.30
  -6   4  -6   -8.90   11.60
   6  -4   6   11.40   16.30
   6   3  -6   13.10   16.10
  -6  -3   6   -1.20   10.30
   5   3  -6   26.60   14.40
  -5  -3   6   58.39    9.70
   4   3  -6   34.50   12.10
   4   3  -6   17.00    6.70
  -4  -3   6   20.40    5.60
  -4  -3   6   20.80    6.90
   3   3  -6   70.59   12.60
   3   3  -6   77.69    9.30
  -3  -3   6   66.29    7.00
  -3  -3   6   81.39    8.30
  -3  -3   6   79.39   14.00
   2   3  -6   98.49    7.40
   2   3  -6   95.59    8.50
   2   3  -6   97.99   12.60
  -2  -3   6   86.19    6.60
  -2  -3   6  108.69   14.70
   1   3  -6   13.00    3.50
   1   3  -6   17.00    5.30
  -1  -3   6   20.50    3.80
  -1  -3   6   11.30    7.90
   0   3  -6  185.58    6.90
   0   3  -6  196.48    6.80
   0   3  -6  193.68    9.70
   0  -3   6  182.98   13.60
  -1   3  -6   35.40    6.80
  -1   3  -6   29.20    3.80
   1  -3   6   41.70    8.40
  -2   3  -6  114.59    8.80
  -2   3  -6  114.99    7.00
   2  -3   6  128.99   12.10
   2  -3   6  105.99    5.70
  -3   3  -6    6.30    5.00
  -3   3  -6   21.30    6.10
   3  -3   6   16.10    9.10
   3  -3   6   13.50    4.70
  -4   3  -6   13.30    6.10
  -4   3  -6   12.10    7.60
   4  -3   6    4.50   10.40
  -5   3  -6   18.20    8.00
  -5   3  -6   25.80    9.00
   5  -3   6   18.70   13.70
   6  -3   6   16.90   15.50
   6   2  -6   50.49   16.80
  -6  -2   6   25.20   10.20
   5   2  -6  140.29   17.80
  -5  -2   6  126.99   11.90
   4   2  -6    5.10    4.90
   4   2  -6   19.00   11.10
   4   2  -6    7.30    4.30
  -4  -2   6   13.20    4.10
  -4  -2   6    1.60    5.60
   3   2  -6  249.68   17.40
   3   2  -6  262.17   11.10
   3   2  -6  253.87   11.10
  -3  -2   6  253.47   11.70
  -3  -2   6  268.77   10.10
   2   2  -6   84.59    7.50
   2   2  -6   84.79    7.50
   2   2  -6   95.99   11.20
   2   2  -6   75.49    6.60
  -2  -2   6   92.79    6.10
  -2  -2   6   87.59    7.00
  -2  -2   6   91.79   12.40
   1   2  -6   -1.20    3.20
   1   2  -6    1.30    4.40
   1   2  -6   -3.80    3.80
  -1  -2   6    5.60    3.30
  -1  -2   6    0.70    3.10
  -1  -2   6    7.00    6.40
   0   2  -6  331.47   10.50
   0   2  -6  298.87   15.10
   0   2  -6  316.17   10.60
   0   2  -6  325.27   12.60
   0  -2   6  319.77   15.30
  -1   2  -6   -3.00    2.90
  -1   2  -6    0.20    3.90
  -1   2  -6   -1.50    2.70
  -1   2  -6    4.30    6.90
   1  -2   6    1.40    2.90
   1  -2   6   -0.70    5.20
  -2   2  -6  132.49    7.30
  -2   2  -6  122.19    9.40
  -2   2  -6  129.09   11.00
   2  -2   6  142.79   10.40
   2  -2   6  117.99    8.80
   2  -2   6  135.39    6.80
  -3   2  -6  201.78   10.70
  -3   2  -6  211.08   12.30
   3  -2   6  218.38   15.00
   3  -2   6  217.18   13.30
   3  -2   6  211.28    9.90
  -4   2  -6   13.50    7.30
  -4   2  -6    8.90    6.20
   4  -2   6    8.90    8.10
   4  -2   6    6.70    8.50
  -5   2  -6   74.29   10.50
  -5   2  -6   64.19    9.90
   5  -2   6   63.79   11.30
   5  -2   6   52.69   13.10
  -6   2  -6   10.10   10.60
  -6   2  -6    7.90   10.50
   6  -2   6   19.50   12.80
   6   1  -6   46.10   17.20
  -6  -1   6   50.09   11.20
   5   1  -6  -10.00   11.70
  -5  -1   6    9.30    7.60
   4   1  -6  105.19    5.20
   4   1  -6   87.69   12.20
  -4  -1   6  111.29   10.00
   3   1  -6  126.29    6.80
   3   1  -6  116.39   10.90
   3   1  -6  114.89    6.40
  -3  -1   6  115.39    8.80
   2   1  -6   31.90    4.40
   2   1  -6   24.40    4.40
   2   1  -6   28.40    5.50
   2   1  -6   31.10    7.90
  -2  -1   6   30.00    5.10
   1   1  -6  328.97   11.80
   1   1  -6  351.26   12.30
   1   1  -6  339.77   11.80
   1   1  -6  329.57   15.50
   1   1  -6  345.17   14.60
  -1  -1   6  336.87   14.90
   0   1  -6  109.39    6.80
   0   1  -6   98.19    7.00
   0   1  -6   95.69    7.00
   0   1  -6   99.39    8.70
   0   1  -6  106.59    6.30
   0  -1   6  106.19    6.60
   0  -1   6   98.49    7.40
  -1   1  -6  147.39    7.10
  -1   1  -6  154.98    8.90
  -1   1  -6  154.78    7.90
  -1   1  -6  158.88    9.80
  -1   1  -6  142.79    8.80
   1  -1   6  162.38    7.30
   1  -1   6  148.69    9.20
   1  -1   6  162.18    9.40
  -2   1  -6    4.80    5.50
  -2   1  -6    8.00    4.30
  -2   1  -6    3.20    5.00
   2  -1   6   10.40    3.30
   2  -1   6    7.20    5.00
   2  -1   6   11.70    5.50
  -3   1  -6   -1.00    6.20
  -3   1  -6   -1.20    4.40
   3  -1   6    0.90    6.50
   3  -1   6    2.20    6.30
  -4   1  -6   89.79    9.70
  -4   1  -6   78.49    9.50
   4  -1   6   81.29   11.10
   4  -1   6   89.09   10.90
  -5   1  -6   60.59    9.70
  -5   1  -6   62.99   10.70
   5  -1   6   84.19   12.30
   5  -1   6   73.99   11.50
  -6   1  -6   97.29   12.00
  -6   1  -6   94.29   12.40
   6  -1   6   78.99   13.30
   6  -1   6   82.79   12.90
  -7   1  -6    8.50   11.80
  -7   1  -6   18.50   12.00
   7  -1   6   22.90   18.60
   7  -1   6  -23.40   13.40
   6   0  -6   39.70   17.30
  -6   0   6   54.09   11.90
   5   0  -6    3.40   10.40
  -5   0   6   -7.90   11.80
   4   0  -6  147.69   15.80
  -4   0   6  129.69   10.90
   3   0  -6   19.00    8.50
   3   0  -6   15.80    2.60
   3   0  -6   15.70    2.70
  -3   0   6   13.60    5.70
   2   0  -6    7.90    6.20
   2   0  -6    3.70    2.90
   2   0  -6    4.80    3.00
  -2   0   6    4.70    4.00
   1   0  -6  152.38    7.10
   1   0  -6  159.98   10.40
   1   0  -6  157.88    8.40
   1   0  -6  152.48    9.60
   1   0  -6  167.58    7.30
  -1   0   6  149.19    8.30
  -1   0   6  161.18    7.60
   0   0  -6   55.29    5.30
   0   0  -6   58.29    6.60
   0   0  -6   51.69    6.30
   0   0  -6   47.40    6.70
   0   0  -6   44.30    5.60
   0   0   6   49.70    6.00
   0   0   6   49.30    6.10
  -1   0  -6  210.88    9.90
  -1   0  -6  208.58    9.30
  -1   0  -6  213.38    9.80
   1   0   6  210.98    9.60
   1   0   6  225.28    9.80
   1   0   6  222.28    9.10
  -2   0  -6  206.48    9.40
  -2   0  -6  204.98    9.70
   2   0   6  205.08    8.80
   2   0   6  209.38    9.30
   2   0   6  205.08   10.70
  -3   0  -6  123.69    8.70
  -3   0  -6  109.19    8.00
   3   0   6  105.59    8.60
   3   0   6  117.79    8.50
  -4   0  -6  164.68   11.90
  -4   0  -6  193.98   12.40
   4   0   6  183.48   12.10
   4   0   6  195.48   13.20
  -5   0  -6    0.30    7.80
   5   0   6    5.30    7.90
   5   0   6    7.40    8.40
  -6   0  -6   33.90   11.80
   6   0   6   13.00   10.50
   6   0   6    9.70   11.10
  -7   0  -6    1.70   11.00
  -7   0  -6   23.00   12.60
   7   0   6   18.50   14.40
   7   0   6  -26.80   13.50
   6  -1  -6    5.50   15.20
  -6   1   6   -5.20   10.10
   5  -1  -6   62.69   15.00
  -5   1   6   78.89   11.20
   4  -1  -6   63.09   12.50
  -4   1   6   74.29    9.70
   3  -1  -6   40.60    9.40
  -3   1   6   48.00    7.50
   2  -1  -6  352.36   15.70
   2  -1  -6  366.56   10.70
   2  -1  -6  384.16   10.90
  -2   1   6  348.57   11.00
  -2   1   6  362.86   14.20
   1  -1  -6   64.09    6.80
   1  -1  -6   68.89    5.30
   1  -1  -6   80.99    8.90
   1  -1  -6   69.09    8.10
  -1   1   6   83.49    7.80
  -1   1   6   69.79    5.60
  -1   1   6   76.19    7.10
   0  -1  -6  294.77   12.00
   0  -1  -6  290.07   10.70
   0  -1  -6  303.67   12.00
   0  -1  -6  286.67   10.80
   0  -1  -6  281.97   11.40
   0   1   6  288.07   12.30
   0   1   6  265.87   12.00
  -1  -1  -6    7.40    4.00
  -1  -1  -6    7.70    3.40
  -1  -1  -6    7.00    3.30
  -1  -1  -6   -0.70    3.90
  -1  -1  -6    7.20    2.80
   1   1   6    0.90    4.00
   1   1   6    9.10    4.00
   1   1   6    5.60    3.10
  -2  -1  -6    3.20    2.50
  -2  -1  -6    6.20    4.30
   2   1   6    5.20    5.10
   2   1   6    5.90    2.90
  -3  -1  -6  137.69    9.70
  -3  -1  -6  124.59    7.00
   3   1   6  133.29    7.10
   3   1   6  125.59   10.30
  -4  -1  -6   66.79    9.30
  -4  -1  -6   68.49    7.50
   4   1   6   81.89    8.40
   4   1   6   66.79    9.60
  -5  -1  -6  249.48   16.00
  -5  -1  -6  239.18   15.00
   5   1   6  247.98   15.40
   5   1   6  212.98   13.90
  -6  -1  -6   11.00   10.10
   6   1   6   -0.10   10.30
   6   1   6    2.70   11.30
  -7  -1  -6    6.50   12.80
   7   1   6   -1.10   12.40
   6  -2  -6   -4.70   16.70
  -6   2   6   -3.30   10.20
   5  -2  -6   25.70   12.70
  -5   2   6   29.70    9.80
   4  -2  -6   16.50   10.70
  -4   2   6    2.80    6.90
   3  -2  -6   14.50    1.70
   3  -2  -6   20.50    9.10
   3  -2  -6   11.00    1.50
  -3   2   6   13.20    6.60
   2  -2  -6   62.59    4.80
   2  -2  -6   56.79    8.60
  -2   2   6   59.29    4.90
  -2   2   6   63.69    7.70
   1  -2  -6   30.00    4.30
   1  -2  -6   27.60    6.30
  -1   2   6   34.50    5.40
  -1   2   6   32.70    6.10
  -1   2   6   34.50    4.40
   0  -2  -6  112.89    6.70
   0  -2  -6  115.69    7.60
   0  -2  -6  118.79    8.50
   0  -2  -6  114.19    6.90
   0  -2  -6  121.49    8.60
   0   2   6  111.09    6.90
   0   2   6   99.29    8.60
   0   2   6  116.79    6.60
  -1  -2  -6  127.19    7.20
  -1  -2  -6  128.19    8.10
  -1  -2  -6  125.49    5.10
   1   2   6  131.39    7.30
   1   2   6  123.69    8.00
  -2  -2  -6  136.49    8.90
   2   2   6  129.99    9.10
  -3  -2  -6  189.18   11.20
   3   2   6  166.38    5.00
   3   2   6  163.18    4.90
   3   2   6  182.98   11.10
  -4  -2  -6   58.49    9.20
  -4  -2  -6   52.39    6.00
   4   2   6   56.69    7.30
   4   2   6   56.99    6.40
   4   2   6   62.39    9.50
  -5  -2  -6   48.30    9.90
   5   2   6   50.49    8.60
   5   2   6   64.59   11.40
  -6  -2  -6  -12.30   10.10
   6   2   6   -5.00    9.70
   6   2   6    3.40    9.50
  -7  -2  -6   46.20   14.30
   7   2   6   11.70   14.90
   6  -3  -6    2.50   16.60
  -6   3   6   42.40   12.40
   5  -3  -6   14.60   14.20
  -5   3   6   18.50   10.00
   4  -3  -6   52.29   12.40
  -4   3   6   51.89    9.60
   3  -3  -6  142.09    9.20
   3  -3  -6  172.88   15.90
  -3   3   6  167.28   12.20
  -3   3   6  174.98    6.50
   2  -3  -6   10.00    8.20
   2  -3  -6    4.00    3.80
  -2   3   6    3.20    3.30
  -2   3   6    0.70    5.80
   1  -3  -6  258.37   12.50
   1  -3  -6  259.77   13.20
   1  -3  -6  242.08    9.90
  -1   3   6  258.37   13.30
  -1   3   6  257.67   11.80
   0  -3  -6   -2.00    4.80
   0  -3  -6    8.20    4.00
   0  -3  -6    8.00    4.30
   0   3   6    2.70    3.70
   0   3   6   -7.80    4.40
   0   3   6    0.10    3.30
  -1  -3  -6    9.50    2.70
  -1  -3  -6    5.40    4.60
   1   3   6   14.30    5.10
  -2  -3  -6  203.38   11.00
   2   3   6  170.08   10.60
  -3  -3  -6   44.70    8.20
   3   3   6   48.10    8.20
  -4  -3  -6  410.26   17.90
   4   3   6  412.76   18.20
   4   3   6  399.96   10.60
   4   3   6  359.06   11.20
  -5  -3  -6    9.40    9.00
   5   3   6   -2.70    7.90
   5   3   6    4.40    5.30
  -6  -3  -6   13.30   10.70
   6   3   6   -2.40   15.30
  -7  -3  -6   -5.10   12.70
   7   3   6   15.40   14.20
   6  -4  -6   20.30   18.70
  -6   4   6   10.90   13.50
   5  -4  -6    4.20   15.30
  -5   4   6   17.20   10.40
   4  -4  -6   -0.80    8.00
  -4   4   6   14.80    8.20
   3  -4  -6   25.80    5.20
   3  -4  -6   31.60   11.30
  -3   4   6   27.00    7.80
  -3   4   6   29.50    4.60
   2  -4  -6   18.80    8.60
   2  -4  -6   11.50    5.10
  -2   4   6   18.00    7.50
  -2   4   6   15.60    5.40
   1  -4  -6   51.79    8.90
   1  -4  -6   58.59    9.00
   1  -4  -6   42.90    6.80
  -1   4   6   53.89    7.60
  -1   4   6   52.09    6.10
  -1   4   6   65.09    9.50
   0  -4  -6   87.59    8.30
   0  -4  -6   67.89    8.90
   0   4   6   82.99    7.20
   0   4   6   80.09    7.30
  -1  -4  -6  112.79    9.40
  -1  -4  -6  113.89    7.00
   1   4   6  115.49    9.10
  -2  -4  -6  103.79    9.90
   2   4   6  101.59   10.00
  -3  -4  -6   93.49   10.80
   3   4   6  107.59   11.00
  -4  -4  -6   28.50    8.90
   4   4   6   38.10    8.70
  -5  -4  -6   10.70    9.70
   5   4   6   18.40    8.70
  -6  -4  -6   48.10   13.20
   6   4   6   54.59   12.40
   5  -5  -6  -15.60   15.00
  -5   5   6    2.00   11.00
   4  -5  -6   30.60   14.20
  -4   5   6   37.40   10.40
   3  -5  -6   -8.80    9.50
  -3   5   6   11.50    9.00
  -3   5   6    7.70    5.10
   2  -5  -6  103.29   13.00
  -2   5   6  100.79    8.60
  -2   5   6  118.89   12.20
   1  -5  -6   -2.30    7.00
   1  -5  -6   -3.20    7.10
  -1   5   6   10.30    7.30
  -1   5   6    4.10    5.10
   0  -5  -6   44.00    8.10
   0  -5  -6   31.80    7.50
   0   5   6   34.50    6.80
   0   5   6   35.60    6.40
  -1  -5  -6  102.19    9.00
  -1  -5  -6  116.99   10.10
   1   5   6  102.39   10.00
   1   5   6  109.29    7.30
  -2  -5  -6    4.70    6.30
  -2  -5  -6    7.70    2.80
   2   5   6   -1.30    6.30
  -3  -5  -6  389.16   17.60
   3   5   6  355.76   17.70
  -4  -5  -6    5.60    7.60
   4   5   6   10.30    8.50
  -5  -5  -6   -5.50   10.70
   5   5   6   17.20   10.30
  -6  -5  -6    4.30   12.10
   6   5   6   32.20   12.50
   5  -6  -6   14.00   18.40
  -5   6   6    6.80   12.10
   4  -6  -6   35.30   15.40
  -4   6   6   -0.20   10.10
   3  -6  -6    2.40   12.80
  -3   6   6   21.70    7.00
  -3   6   6   11.60    9.40
   2  -6  -6   25.20    9.20
   2  -6  -6   24.50   11.10
  -2   6   6   38.00   10.10
  -2   6   6   16.90    6.90
   1  -6  -6   16.50   10.10
   1  -6  -6   28.30    8.90
  -1   6   6   26.30    8.50
  -1   6   6   20.90    6.70
   0  -6  -6   64.29   10.30
   0  -6  -6   60.69    9.50
   0   6   6   59.39    8.70
  -1  -6  -6   54.19    9.10
  -1  -6  -6   30.70    7.60
   1   6   6   17.30    6.40
   1   6   6   36.40    8.10
  -2  -6  -6   63.89    9.80
  -2  -6  -6   56.69    7.10
   2   6   6   56.39    7.00
   2   6   6   55.79    9.80
  -3  -6  -6   15.10    8.40
   3   6   6    5.80    8.20
   3   6   6    2.70    2.70
  -4  -6  -6   26.20   10.10
   4   6   6    8.90    9.40
  -5  -6  -6   28.10   11.20
   5   6   6   35.60   12.90
  -6  -6  -6    3.70   12.60
   6   6   6   13.50   14.20
   4  -7  -6   28.00   18.60
  -4   7   6    3.80   14.50
   3  -7  -6   12.40   10.10
   3  -7  -6    9.60   17.20
  -3   7   6   15.50   12.10
  -3   7   6    8.50    8.40
   2  -7  -6   12.70   13.80
   2  -7  -6   17.80    9.20
  -2   7   6   10.30    7.50
  -2   7   6    2.80   11.50
   1  -7  -6   33.00    9.80
   1  -7  -6   22.60   11.60
  -1   7   6   33.00    8.20
   0  -7  -6   26.30   10.10
   0  -7  -6   32.30    8.50
   0   7   6   15.60    8.20
  -1  -7  -6    4.50    7.70
  -1  -7  -6    4.00    8.90
   1   7   6  -11.10    7.30
  -2  -7  -6  163.08   13.40
  -2  -7  -6  172.68   13.60
   2   7   6  172.48   13.80
  -3  -7  -6    5.00    8.10
   3   7   6   -7.60    6.80
  -4  -7  -6   -5.20   10.10
   4   7   6    1.50   11.20
  -5  -7  -6  -26.60   10.20
   5   7   6    5.20   12.80
   3  -8  -6  -14.00   16.80
   3  -8  -6   10.10   12.80
  -3   8   6   -5.40   10.10
  -3   8   6  -18.90   14.10
   2  -8  -6    9.30   16.00
   2  -8  -6   51.39   22.70
  -2   8   6   -4.90    9.80
   1  -8  -6    0.10   13.30
   1  -8  -6   22.40   10.80
  -1   8   6   28.50    9.90
   0  -8  -6    0.10    7.90
   0  -8  -6   10.90   11.80
  -1  -8  -6   16.40   11.40
  -1  -8  -6   46.60   10.60
   1   8   6   31.30   10.80
  -2  -8  -6   -6.70    9.60
   2   8   6   16.60   10.50
  -3  -8  -6    7.50    9.80
   3   8   6   -5.70   10.80
  -4  -8  -6   16.70   11.00
   4   8   6   30.80   14.20
   2  -9  -6   40.10   13.40
   2  -9  -6  -15.20   16.90
  -2   9   6   34.40   13.60
   1  -9  -6   -0.20   11.40
  -1   9   6   22.60   13.60
   0  -9  -6   35.40   14.70
   0  -9  -6    4.40   12.80
   0   9   6   11.10   13.20
   1   9   6   32.60   10.40
  -2  -9  -6  -12.20   11.10
   2   9   6    6.90   12.00
  -3  -9  -6  -15.40   12.00
   3   9   6  -13.40   11.50
   3   8  -7   47.20   16.50
  -3  -8   7  107.09   27.40
   2   8  -7   32.60   15.90
  -2  -8   7   11.80   20.80
   1   8  -7   -6.40    9.20
  -1  -8   7    1.40   18.30
   0   8  -7   27.00   13.60
   0  -8   7   39.90   19.40
  -1   8  -7   -3.40   12.20
   1  -8   7    2.40   16.30
  -2   8  -7    0.80   12.50
   2  -8   7  -12.80   17.40
   4   7  -7   18.50   15.50
   4   7  -7   23.20   19.80
  -4  -7   7   -6.40   22.00
   3   7  -7   31.80   14.00
  -3  -7   7   -1.40   18.60
   2   7  -7   22.20   12.00
  -2  -7   7   -4.20   14.00
   1   7  -7   30.10   11.60
  -1  -7   7   36.00   16.30
   0   7  -7   27.60   11.80
   0  -7   7   55.19   17.10
  -1   7  -7   -0.60   11.20
   1  -7   7   11.70   15.60
  -2   7  -7    7.20   11.80
   2  -7   7   15.40   15.10
  -3   7  -7   -1.40    9.30
   3  -7   7    6.20   13.20
  -4   7  -7   -2.20   13.50
   4  -7   7   26.70   20.00
   5   6  -7   29.80   21.50
  -5  -6   7    6.70   12.10
   4   6  -7  103.79   19.70
   4   6  -7  106.89   15.10
  -4  -6   7  109.69   12.60
  -4  -6   7   92.59   22.90
   3   6  -7    6.90   14.30
   3   6  -7   39.20   11.70
  -3  -6   7   39.40    7.30
  -3  -6   7   19.60   17.20
   2   6  -7   30.20   12.20
  -2  -6   7   24.20    6.20
  -2  -6   7   13.00   14.40
   1   6  -7   65.89   11.90
  -1  -6   7   61.59   16.70
   0   6  -7   -0.30    8.30
   0  -6   7   -5.10   12.70
  -1   6  -7   31.70   11.40
   1  -6   7   60.99   14.30
  -2   6  -7   22.50   10.30
   2  -6   7   16.70   13.60
  -3   6  -7   -8.20    9.50
   3  -6   7   18.70   14.30
  -4   6  -7   12.40   11.40
   4  -6   7   22.10   17.00
   5   5  -7   25.10   17.20
  -5  -5   7  -13.10   13.60
   4   5  -7   42.40   11.90
   4   5  -7   69.69   17.20
  -4  -5   7   49.00   15.60
  -4  -5   7   60.29    9.20
   3   5  -7    1.70    8.60
   3   5  -7   -6.60   11.40
  -3  -5   7    8.90    5.80
  -3  -5   7    5.80   11.50
   2   5  -7  120.09   12.80
  -2  -5   7  145.39   18.80
   1   5  -7  142.29   13.20
   1   5  -7  117.09    6.40
   1   5  -7  128.59    5.90
  -1  -5   7  129.89   17.80
  -1  -5   7  134.09    6.40
   0   5  -7    8.40    6.70
   0  -5   7    6.60    9.40
  -1   5  -7  120.49   12.70
   1  -5   7  100.79   15.40
  -2   5  -7   29.80    9.10
   2  -5   7   -0.30   11.20
  -3   5  -7   42.20   10.00
  -3   5  -7   38.90    5.60
   3  -5   7   56.69   13.00
  -4   5  -7    2.30    9.70
   4  -5   7   37.20   16.30
  -5   5  -7    5.10   10.60
   5  -5   7   -3.80   15.80
   5   4  -7  101.59   19.70
  -5  -4   7  119.09   20.10
   4   4  -7   10.80    8.60
   4   4  -7   12.30   14.00
  -4  -4   7   18.00    7.70
   3   4  -7   63.99    9.30
   3   4  -7   44.40   13.50
  -3  -4   7   59.19   15.30
  -3  -4   7   51.59    7.50
   2   4  -7   56.59    9.90
   2   4  -7   57.49    6.90
  -2  -4   7   61.19   13.80
  -2  -4   7   59.99    6.80
   1   4  -7   12.70    7.60
   1   4  -7    5.40    3.90
  -1  -4   7    1.30    3.80
  -1  -4   7    3.30   10.10
   0   4  -7  200.38    7.60
   0   4  -7  174.68   12.60
   0  -4   7  182.08   16.80
  -1   4  -7   18.40    2.90
  -1   4  -7   23.70    7.40
   1  -4   7    3.60    9.20
  -2   4  -7   49.30    9.60
  -2   4  -7   43.90    5.30
  -2   4  -7   57.09    5.60
   2  -4   7   57.09    5.20
   2  -4   7   41.20   10.90
  -3   4  -7   58.59    7.70
  -3   4  -7   74.19   10.50
   3  -4   7   74.29   13.60
   3  -4   7   58.69    6.60
  -4   4  -7   27.70    7.20
  -4   4  -7   12.80    8.90
   4  -4   7   28.50   14.10
  -5   4  -7   11.80    7.90
  -5   4  -7   10.90    9.60
   5  -4   7    8.30   15.80
  -6   4  -7   44.90   15.50
  -6   4  -7   -7.90   11.40
   6  -4   7   10.60   16.50
   6   3  -7    8.80   18.30
  -6  -3   7   29.90   11.00
   5   3  -7   20.30   14.30
   4   3  -7   13.80   12.90
   4   3  -7   15.00    7.20
  -4  -3   7    9.90    7.00
   3   3  -7  222.28   12.70
   3   3  -7  231.28   18.10
  -3  -3   7  223.88   20.40
  -3  -3   7  208.78   11.80
   2   3  -7  113.19   14.20
   2   3  -7  126.29    8.80
   2   3  -7  123.89   10.00
  -2  -3   7  110.79    8.20
  -2  -3   7  117.39   14.90
   1   3  -7   89.69    6.70
   1   3  -7   75.29    8.80
  -1  -3   7   96.29   13.30
  -1  -3   7   87.69    6.90
   0   3  -7  352.56   11.20
   0   3  -7  347.17   15.10
   0   3  -7  358.36   11.20
   0  -3   7  351.46   18.90
  -1   3  -7   30.90    7.30
  -1   3  -7   36.20    4.50
  -1   3  -7   36.00    4.30
   1  -3   7   35.80    8.60
  -2   3  -7  151.88   11.70
  -2   3  -7  153.98    8.10
  -2   3  -7  166.88    8.30
   2  -3   7  158.38    7.40
   2  -3   7  153.28   13.90
  -3   3  -7    4.80    5.60
  -3   3  -7    4.70    5.10
   3  -3   7   13.90    5.00
   3  -3   7    3.10    8.50
  -4   3  -7   30.00    7.00
  -4   3  -7    9.70    8.00
   4  -3   7    1.30   11.20
  -5   3  -7   33.70    9.30
  -5   3  -7   14.20    9.30
   5  -3   7   20.80   12.10
  -6   3  -7   12.80   12.50
  -6   3  -7    7.90   11.40
   6  -3   7   11.70   17.00
   6   2  -7   60.49   20.10
  -6  -2   7  118.49   14.70
   5   2  -7   21.00   13.50
  -5  -2   7    4.60    8.20
   4   2  -7   72.39    7.60
   4   2  -7   72.19   13.60
  -4  -2   7   76.19    9.30
   3   2  -7   74.79   11.50
   3   2  -7   63.99    8.00
   3   2  -7   81.89    7.90
  -3  -2   7   58.69    7.60
   2   2  -7    3.60    4.60
   2   2  -7   12.10    9.00
   2   2  -7   10.20    5.50
  -2  -2   7   15.30   10.30
  -2  -2   7   12.00    5.00
   1   2  -7  388.76   13.10
   1   2  -7  389.76   14.50
  -1  -2   7  398.06   19.40
  -1  -2   7  384.66   14.20
   0   2  -7    3.10    4.50
   0   2  -7   -1.70    3.40
   0   2  -7    5.40    3.60
   0  -2   7   -3.70    4.90
  -1   2  -7  153.18    8.00
  -1   2  -7  150.38   10.00
  -1   2  -7  139.49    7.60
   1  -2   7  145.39    9.70
   1  -2   7  150.48   11.80
  -2   2  -7  129.29   10.70
  -2   2  -7  144.29    8.40
   2  -2   7  164.08    7.80
   2  -2   7  159.18   13.10
   2  -2   7  166.28   12.10
  -3   2  -7   -3.80    4.80
  -3   2  -7   -0.80    5.60
   3  -2   7  -12.70    7.10
   3  -2   7   -4.00    7.10
  -4   2  -7   70.69   10.10
  -4   2  -7   61.89    8.40
   4  -2   7   56.19   10.50
   4  -2   7   60.39   11.20
  -5   2  -7    7.30    7.90
  -5   2  -7   -4.80    8.00
   5  -2   7    9.10   11.70
   5  -2   7   16.50   10.40
  -6   2  -7    8.40   10.40
  -6   2  -7    5.80    9.50
   6  -2   7  -10.20   11.70
   6  -2   7   -7.60   11.50
   6   1  -7    3.40   15.80
  -6  -1   7    4.20   10.30
   5   1  -7   11.40   13.10
  -5  -1   7   15.40    8.70
   4   1  -7  100.69   15.00
   4   1  -7  112.29    5.70
  -4  -1   7  123.99   10.70
   3   1  -7   23.40    4.90
   3   1  -7    7.80    9.00
   3   1  -7   28.30    5.10
  -3  -1   7   34.70    7.60
   2   1  -7  150.98    8.50
   2   1  -7  162.98   13.30
   2   1  -7  136.09    8.30
  -2  -1   7  153.88    9.10
   1   1  -7  235.28   11.00
   1   1  -7  261.67   10.50
   1   1  -7  244.88   10.50
   1   1  -7  247.08   13.40
  -1  -1   7  234.08   11.00
  -1  -1   7  236.78   14.60
   0   1  -7    9.80    6.10
   0   1  -7   10.30    4.70
   0   1  -7    8.50    4.40
   0   1  -7   17.40    5.10
   0  -1   7   10.50    5.80
   0  -1   7    7.30    5.00
  -1   1  -7  460.45   17.20
  -1   1  -7  514.75   16.70
  -1   1  -7  544.75   17.80
  -1   1  -7  553.74   20.00
   1  -1   7  528.95   16.10
   1  -1   7  537.55   19.20
   1  -1   7  546.35   18.30
  -2   1  -7   -1.50    4.00
  -2   1  -7    0.50    6.20
  -2   1  -7    4.00    4.20
   2  -1   7    6.40    4.20
   2  -1   7   -2.60    5.80
   2  -1   7   -1.10    4.70
  -3   1  -7   60.49    9.00
  -3   1  -7   73.59    8.20
  -3   1  -7   82.69   10.70
   3  -1   7   69.19    9.90
   3  -1   7   80.79   10.50
  -4   1  -7   52.79    8.50
  -4   1  -7   57.29    9.60
   4  -1   7   68.79   11.20
   4  -1   7   50.09    9.00
  -5   1  -7   13.50    7.90
  -5   1  -7   22.50    8.80
   5  -1   7   19.70    9.40
   5  -1   7   12.10    9.70
  -6   1  -7  128.29   16.20
  -6   1  -7  100.89   13.30
   6  -1   7   68.69   14.60
   6  -1   7   64.69   14.70
   6   0  -7   17.30   17.20
  -6   0   7   29.90   11.20
   5   0  -7   70.59   13.20
  -5   0   7   85.89   12.10
   4   0  -7   54.39   12.10
  -4   0   7   46.20    8.70
   3   0  -7   39.70    4.30
   3   0  -7   39.50   10.50
   3   0  -7   36.40    4.40
  -3   0   7   44.40    7.80
   2   0  -7  454.75   19.30
   2   0  -7  488.25   14.40
   2   0  -7  497.45   14.60
  -2   0   7  462.55   16.80
   1   0  -7   -5.50    4.90
   1   0  -7    5.30    4.20
   1   0  -7    2.40    5.10
   1   0  -7   10.50    7.10
  -1   0   7   -3.40    4.50
   0   0  -7  302.97   12.50
   0   0  -7  296.97   13.90
   0   0  -7  271.77   11.50
   0   0  -7  303.47   12.10
   0   0   7  299.07   12.50
   0   0   7  279.87   12.10
  -1   0  -7  255.17   11.20
  -1   0  -7  244.68   11.60
  -1   0  -7  247.58   10.70
   1   0   7  252.67   12.10
   1   0   7  256.87   11.10
   1   0   7  256.27   11.50
  -2   0  -7    3.10    4.30
  -2   0  -7   -2.40    4.10
   2   0   7    0.00    3.90
   2   0   7    0.50    5.60
  -3   0  -7  117.19    9.20
  -3   0  -7  130.69    9.90
   3   0   7  132.69    8.70
   3   0   7  120.29   11.00
  -4   0  -7    5.80    6.80
  -4   0  -7    2.50    6.30
   4   0   7   -7.30    6.70
   4   0   7    1.60    7.80
  -5   0  -7   -5.00    7.90
   5   0   7   -3.20    7.90
   5   0   7    3.20    9.00
  -6   0  -7   32.10   11.70
   6   0   7   24.10   12.20
  -7   0  -7   18.30   12.30
  -7   0  -7   16.30   13.00
   7   0   7   38.80   15.40
   6  -1  -7    9.70   17.30
  -6   1   7   28.90   11.70
   5  -1  -7   56.19   14.90
  -5   1   7   34.40   10.60
   4  -1  -7   -1.20    9.90
  -4   1   7    5.60    7.20
   3  -1  -7   67.59    6.00
   3  -1  -7   70.89    4.30
   3  -1  -7   69.89   11.60
  -3   1   7   81.99    9.80
   2  -1  -7   62.59    5.40
   2  -1  -7   67.79    5.40
   2  -1  -7   85.99   10.20
  -2   1   7   70.29    8.30
  -2   1   7   55.89    5.70
   1  -1  -7   42.60    5.30
   1  -1  -7   52.89    7.70
   1  -1  -7   54.59    7.50
  -1   1   7   47.00    6.00
  -1   1   7   50.29    6.30
   0  -1  -7  336.07   13.80
   0  -1  -7  347.97   13.50
   0  -1  -7  342.27   12.70
   0  -1  -7  346.17   12.60
   0   1   7  341.67   13.00
  -1  -1  -7   57.69    5.40
  -1  -1  -7   61.19    6.30
  -1  -1  -7   68.89    6.90
   1   1   7   65.69    6.10
   1   1   7   67.19    7.50
  -2  -1  -7  239.78   11.70
  -2  -1  -7  235.18    9.80
   2   1   7  230.08    8.90
   2   1   7  240.68   12.40
  -3  -1  -7   48.10    5.80
  -3  -1  -7   69.69    8.90
   3   1   7   66.99    8.10
   3   1   7   67.19    5.90
  -4  -1  -7    5.40    7.00
  -4  -1  -7   13.00    5.40
   4   1   7    3.90    7.60
   4   1   7    9.70    5.20
  -5  -1  -7  231.58   15.60
   5   1   7  231.98   13.80
   5   1   7  206.28   15.80
  -6  -1  -7    3.90   10.80
   6   1   7   20.40   15.60
   6   1   7  -11.90   11.80
  -7  -1  -7   38.20   16.10
   7   1   7   26.40   17.10
   6  -2  -7   12.60   18.20
  -6   2   7   43.50   12.80
   5  -2  -7   10.00   14.50
  -5   2   7   25.30   10.50
   4  -2  -7   40.20   10.60
  -4   2   7   49.80    9.90
   3  -2  -7  149.59    8.50
   3  -2  -7  179.68   15.80
   3  -2  -7  179.18    6.10
  -3   2   7  190.48   12.40
   2  -2  -7   20.10    7.80
   2  -2  -7   28.90    4.50
  -2   2   7   25.50    4.10
  -2   2   7   23.70    7.00
   1  -2  -7  360.16   12.40
   1  -2  -7  343.57   15.10
   1  -2  -7  349.96   14.50
  -1   2   7  355.56   14.00
  -1   2   7  359.86   15.70
   0  -2  -7  141.59    9.70
   0  -2  -7  145.99    8.40
   0  -2  -7  140.79    8.50
   0  -2  -7  140.69    8.00
   0   2   7  138.19   10.30
   0   2   7  128.59    8.10
  -1  -2  -7   26.20    3.80
  -1  -2  -7   28.60    5.80
   1   2   7   24.00    5.50
  -2  -2  -7  258.67   12.70
   2   2   7  250.67   11.80
  -3  -2  -7   -7.90    5.60
   3   2   7   -3.60    6.00
  -4  -2  -7    2.80    7.30
  -4  -2  -7    4.50    5.50
   4   2   7    0.10    8.00
  -5  -2  -7   58.59   11.00
   5   2   7   42.70    6.70
   5   2   7   49.40   10.50
  -6  -2  -7   27.00   13.20
   6   2   7   16.90   11.80
  -7  -2  -7   39.70   13.70
   7   2   7   17.60   14.70
   6  -3  -7    4.40   17.40
  -6   3   7    4.50   13.30
   5  -3  -7   26.60   14.70
  -5   3   7   21.90   11.00
   4  -3  -7   16.50   12.50
  -4   3   7   29.00    9.30
   3  -3  -7    7.80   10.40
   3  -3  -7   15.60    3.90
  -3   3   7    8.90    7.30
  -3   3   7   20.70    3.60
   2  -3  -7   19.40    4.90
   2  -3  -7   26.60    8.90
  -2   3   7   24.10    7.70
  -2   3   7   23.60    4.30
   1  -3  -7   94.79   10.90
   1  -3  -7  123.09    8.30
   1  -3  -7  113.69   10.80
  -1   3   7  104.89    9.50
  -1   3   7  110.79    7.40
  -1   3   7  121.29   11.20
   0  -3  -7   70.59    7.10
   0  -3  -7   64.89    8.60
   0  -3  -7   65.79    7.50
   0   3   7   70.19    7.10
   0   3   7   61.89    6.30
  -1  -3  -7  153.78   10.50
  -1  -3  -7  165.18    6.70
  -1  -3  -7  157.48    6.80
   1   3   7  159.58   10.00
  -2  -3  -7   21.60    6.80
   2   3   7   17.90    6.80
  -3  -3  -7   -0.20    6.90
   3   3   7   16.10    7.20
  -4  -3  -7  343.07   17.20
   4   3   7  345.37   16.20
  -5  -3  -7    7.00    9.40
   5   3   7   -3.10    8.50
  -6  -3  -7   29.80   12.00
   6   3   7   31.90   12.40
   5  -4  -7   18.20   15.50
  -5   4   7   23.50   11.30
   4  -4  -7   16.70   15.40
  -4   4   7   49.80   12.20
   3  -4  -7   13.00   10.70
  -3   4   7   25.00    4.70
  -3   4   7   11.90    8.40
   2  -4  -7  139.99    9.60
   2  -4  -7  127.29   13.70
  -2   4   7  133.09   12.80
  -2   4   7  150.88    9.40
   1  -4  -7    7.50    7.20
   1  -4  -7   10.40    6.70
  -1   4   7   14.70    7.50
  -1   4   7   14.90    5.70
   0  -4  -7   53.49    7.00
   0  -4  -7   53.09    8.80
   0   4   7   39.60    6.60
   0   4   7   50.49    6.00
  -1  -4  -7  139.29   11.20
  -1  -4  -7  142.09    7.60
   1   4   7  147.09   10.40
  -2  -4  -7   11.10    7.10
   2   4   7   21.20    7.60
  -3  -4  -7   24.10    9.00
   3   4   7   43.60    7.60
  -4  -4  -7   48.40   10.20
   4   4   7   46.60    8.80
  -5  -4  -7   18.90    9.40
   5   4   7   22.20   10.80
  -6  -4  -7   49.20   13.70
   6   4   7   28.70   12.50
   5  -5  -7   -1.30   16.80
  -5   5   7    0.40   13.70
   4  -5  -7   14.00   14.40
  -4   5   7   -1.10   10.70
   3  -5  -7    2.40   11.20
  -3   5   7   35.30   10.00
  -3   5   7   21.00    6.10
   2  -5  -7   31.50   11.90
   2  -5  -7   42.30   10.20
  -2   5   7   45.80   10.40
  -2   5   7   35.10    6.80
   1  -5  -7   40.00   10.40
   1  -5  -7   21.20    8.40
  -1   5   7   28.70    7.40
  -1   5   7   33.60    8.90
   0  -5  -7   61.19    9.40
   0  -5  -7   56.79    9.40
   0   5   7   61.99    7.60
   0   5   7   55.29    8.70
  -1  -5  -7    7.00    7.20
  -1  -5  -7    9.40    5.10
   1   5   7   10.20    7.10
   1   5   7   14.50    4.30
  -2  -5  -7    2.70    7.00
   2   5   7   -6.30    6.60
  -3  -5  -7  294.27   16.70
   3   5   7  289.17   16.50
  -5  -5  -7   55.99   12.50
   5   5   7   35.20   12.20
  -6  -5  -7  -16.90   12.30
   6   5   7   21.80   15.10
   4  -6  -7   26.50   17.00
  -4   6   7   -4.20   13.40
   3  -6  -7   43.60   14.50
  -3   6   7   30.30   10.50
  -3   6   7   22.00    8.00
   2  -6  -7   11.50   12.30
   2  -6  -7    2.80    9.50
  -2   6   7   14.80    9.80
  -2   6   7    2.00    6.30
   1  -6  -7   28.80   11.30
   1  -6  -7   13.50    7.70
  -1   6   7   13.00   10.20
  -1   6   7    0.00    6.20
   0  -6  -7   29.50    8.30
   0  -6  -7   24.00    9.00
   0   6   7   30.50    8.00
  -1  -6  -7   22.20    7.40
  -1  -6  -7   24.30    8.40
   1   6   7   21.10    8.30
   1   6   7   12.60    5.90
  -2  -6  -7   47.40    9.70
   2   6   7   18.50    8.70
  -3  -6  -7   -9.20    7.30
  -4  -6  -7   23.60   10.10
   4   6   7   51.09   12.10
  -5  -6  -7   35.60   13.30
   5   6   7   24.90   13.60
   4  -7  -7  -22.00   17.10
  -4   7   7   21.50   16.80
   3  -7  -7    1.40   16.60
   3  -7  -7   35.70   13.00
  -3   7   7   20.80   14.70
  -3   7   7    3.10    8.50
   2  -7  -7    1.90   14.00
  -2   7   7   12.80    8.50
   1  -7  -7   20.20   10.00
   1  -7  -7   28.30    9.50
  -1   7   7    2.50    7.00
   0  -7  -7   -0.90   10.20
   0  -7  -7    1.90    7.90
   0   7   7   -7.80    7.00
  -1  -7  -7    0.10    8.70
  -1  -7  -7   -7.50    8.20
   1   7   7    5.90    8.40
  -2  -7  -7  158.08   14.50
   2   7   7  115.39   13.90
  -3  -7  -7   -5.80    9.50
   3   7   7   17.60   10.50
  -4  -7  -7   24.40   11.90
   4   7   7    6.10   11.50
  -5  -7  -7  -24.80   10.90
   5   7   7    0.30   13.90
   3  -8  -7   11.20   13.90
   3  -8  -7    1.70   19.40
  -3   8   7   22.00   14.60
   2  -8  -7   10.20   10.90
   2  -8  -7   -6.20   16.00
  -2   8   7   18.50    9.00
   1  -8  -7   18.30   10.90
   1  -8  -7   10.30   14.70
  -1   8   7    0.10    9.40
   0  -8  -7   20.70   12.50
   0   8   7    2.50    9.80
  -1  -8  -7    6.50   16.70
   1   8   7   -3.70    9.50
  -2  -8  -7  -10.70   10.60
   2   8   7   11.20   11.30
  -3  -8  -7   15.30   10.90
   3   8   7   16.20   11.70
  -4  -8  -7   -2.00   12.20
   4   8   7    3.40   13.30
   1  -9  -7   -6.40   10.40
  -1   9   7    8.10   12.80
   0  -9  -7  -14.70   11.20
   0  -9  -7   50.99   25.00
   0   9   7    6.30   11.30
  -1  -9  -7   47.70   13.40
   1   9   7   49.99   12.70
  -2  -9  -7    9.80   13.30
   2   9   7   30.60   13.10
  -3  -9  -7   -7.30   11.80
   3   9   7   29.40   13.90
   2   8  -8   31.50   17.50
  -2  -8   8   22.40   22.60
   1   8  -8   22.90   15.50
  -1  -8   8   -6.50   20.40
   0   8  -8   14.80   14.30
   0  -8   8   36.30   20.70
  -1   8  -8   10.70   14.30
   1  -8   8   30.60   21.90
  -2   8  -8    9.70   14.30
   2  -8   8    6.60   21.50
   3   7  -8    3.80   13.60
   3   7  -8   24.10   14.70
  -3  -7   8    7.40   22.10
   2   7  -8   32.00   13.30
  -2  -7   8    6.50   14.10
   1   7  -8   30.70   13.20
  -1  -7   8   20.40   14.30
   0   7  -8   17.50   12.60
   0  -7   8  -18.70   15.60
  -1   7  -8   34.70   10.00
   1  -7   8   50.79   17.50
  -2   7  -8   14.90   12.80
   2  -7   8   -3.30   16.10
  -3   7  -8  -14.40   12.30
   3  -7   8   -3.50   18.40
   4   6  -8   98.09   20.20
  -4  -6   8   67.29   23.20
   3   6  -8    0.30   15.60
  -3  -6   8   -8.40   17.60
   2   6  -8  111.89   24.60
  -2  -6   8   67.39   18.80
  -1  -6   8   17.50   14.10
   0   6  -8    2.10    9.70
   0  -6   8   -6.60   13.50
  -1   6  -8   44.80   11.60
   1  -6   8   35.40   15.10
  -2   6  -8    0.20   10.60
   2  -6   8   22.00   14.80
  -3   6  -8    5.50   10.80
   3  -6   8   23.40   14.90
  -4   6  -8   -2.00   12.30
   4  -6   8   37.90   16.50
   5   5  -8   25.80   19.80
   4   5  -8   19.00   11.40
   4   5  -8   18.00   16.30
  -4  -5   8   -8.80   18.20
  -4  -5   8    7.60    8.10
   3   5  -8   39.10   14.70
   3   5  -8   47.90   12.00
  -3  -5   8   30.00   17.60
  -3  -5   8   30.10    8.00
   2   5  -8   60.29   11.10
  -2  -5   8   57.09    7.00
   1   5  -8   -2.60    8.50
   1   5  -8    6.70    3.40
  -1  -5   8   23.30   13.50
   0   5  -8   90.09   12.00
   0  -5   8   94.29   15.50
  -1   5  -8  -13.10    7.70
   1  -5   8   22.00   11.80
  -2   5  -8   24.00   11.30
   2  -5   8   56.69   14.30
  -3   5  -8   18.00    9.60
  -4   5  -8   -1.30   10.00
   4  -5   8   19.00   15.00
  -5   5  -8   22.90   13.00
   5  -5   8   21.00   20.20
   5   4  -8   62.59   15.70
   4   4  -8   -2.70    8.70
   4   4  -8   -1.80   13.50
  -4  -4   8   -1.00    7.90
   3   4  -8  186.28   14.70
  -3  -4   8  176.38   11.80
   2   4  -8   51.59    9.10
   2   4  -8   45.10    8.10
  -2  -4   8   36.60   13.80
  -2  -4   8   66.59    8.10
   1   4  -8   40.50    5.40
   1   4  -8   44.20    5.40
   1   4  -8   43.10    9.40
  -1  -4   8   23.40   12.90
  -1  -4   8   36.00    5.70
   0   4  -8  138.49   12.50
   0   4  -8  147.09    6.80
   0   4  -8  152.88    6.70
   0  -4   8  133.59   16.90
  -1   4  -8   19.20    8.20
  -1   4  -8   17.30    3.70
  -1   4  -8   13.70    3.50
   1  -4   8   33.30   12.20
  -2   4  -8   86.19    6.70
  -2   4  -8   89.29    7.30
  -2   4  -8   76.99   11.00
   2  -4   8   98.29   13.60
  -3   4  -8   38.80    6.20
  -3   4  -8   33.90   10.20
   3  -4   8   34.00   11.80
  -4   4  -8    2.80    6.70
  -4   4  -8    2.60    7.60
   4  -4   8   26.00   12.70
  -5   4  -8   28.50    9.30
  -5   4  -8    8.60   11.10
   5  -4   8   21.40   17.80
   5   3  -8    9.20   11.80
  -5  -3   8   23.60    9.40
   4   3  -8   58.69    9.50
   4   3  -8   51.79   15.90
  -4  -3   8   64.49   10.20
   3   3  -8   88.49   10.10
   3   3  -8   86.49   14.40
  -3  -3   8   89.69   16.60
  -3  -3   8   86.19    8.90
   2   3  -8   21.10    7.20
   2   3  -8    5.00    8.10
  -2  -3   8   19.10    5.40
  -2  -3   8   34.20   12.20
   1   3  -8  105.09    8.50
   1   3  -8  102.89   10.10
   1   3  -8  110.69    8.10
  -1  -3   8  112.99    8.80
  -1  -3   8  128.59   15.70
   0   3  -8    1.60    3.70
   0   3  -8    5.30    6.50
   0   3  -8    2.30    3.90
   0  -3   8    2.30    9.00
  -1   3  -8   94.99    7.40
  -1   3  -8   72.89   10.00
  -1   3  -8  112.19    6.90
   1  -3   8   86.69   12.30
  -2   3  -8   11.50    5.40
  -2   3  -8   27.50    8.50
   2  -3   8   21.40    9.30
   2  -3   8   32.60    5.20
  -3   3  -8   10.00    6.20
  -3   3  -8   15.10    8.70
   3  -3   8   21.60    9.60
  -4   3  -8   21.40    7.90
  -4   3  -8   41.60   10.20
   4  -3   8   67.29   14.20
  -5   3  -8    8.90    8.50
  -5   3  -8   12.40   10.40
   5  -3   8   39.20   14.20
  -6   3  -8   13.00   12.40
  -6   3  -8   20.50   10.00
   6  -3   8   18.70   15.30
   6   2  -8   22.40   19.90
  -6  -2   8   68.99   12.90
   5   2  -8    5.50   14.50
  -5  -2   8    6.70    8.90
   4   2  -8  119.59   19.40
  -4  -2   8  128.29   12.80
   3   2  -8   32.90   11.90
   3   2  -8   12.80    6.40
   3   2  -8    2.60    6.70
  -3  -2   8    6.10    7.00
   2   2  -8  101.39    9.60
   2   2  -8  138.99   15.10
  -2  -2   8   92.29    9.20
  -2  -2   8  118.39   15.80
   1   2  -8  173.08   10.50
   1   2  -8  171.78    9.70
  -1  -2   8  175.48   10.10
  -1  -2   8  170.08   15.20
   0   2  -8    1.80    4.70
   0   2  -8    0.40    4.30
   0   2  -8    7.20    4.60
   0  -2   8    0.00    7.60
  -1   2  -8  260.67   11.40
  -1   2  -8  259.27   13.60
  -1   2  -8  249.08   11.00
   1  -2   8  261.47   14.60
   1  -2   8  262.97   16.40
  -2   2  -8   33.10    6.40
  -2   2  -8   38.60    6.10
  -2   2  -8   22.40    7.50
   2  -2   8   30.40    8.60
   2  -2   8   18.50    8.50
   2  -2   8   48.90    6.30
  -3   2  -8    6.60    6.00
  -3   2  -8   21.80    8.80
   3  -2   8   20.30    9.00
   3  -2   8    3.90    7.60
  -4   2  -8   39.30    9.50
  -4   2  -8   46.20    8.70
   4  -2   8   41.30   10.90
   4  -2   8   39.20   10.80
  -5   2  -8   -7.10    7.70
  -5   2  -8  -11.10    8.60
   5  -2   8    7.60   12.00
   5  -2   8   -9.40   10.90
  -6   2  -8    9.10   12.10
  -6   2  -8    3.60   11.80
   6  -2   8   -3.30   13.40
   6  -2   8    8.90   14.60
   6   1  -8   -1.80   17.90
  -6  -1   8   22.90   11.00
   5   1  -8   77.49   17.00
  -5  -1   8   49.90   10.90
   4   1  -8   75.59    6.30
   4   1  -8   61.59   13.90
  -4  -1   8   73.19   10.20
   3   1  -8   47.90    6.20
   3   1  -8   43.00    6.30
   3   1  -8   37.90    9.60
  -3  -1   8   42.20    8.20
   2   1  -8  189.88   10.20
   2   1  -8  172.58   14.50
   2   1  -8  185.28   10.10
  -2  -1   8  164.18   10.30
   1   1  -8   -5.70    4.30
   1   1  -8    3.30    6.80
  -1  -1   8   -7.00    4.50
  -1  -1   8    0.80    7.70
   0   1  -8  116.19    8.90
   0   1  -8  124.69    8.40
   0   1  -8  134.19    8.90
   0  -1   8  108.89    9.40
   0  -1   8  107.49   11.00
  -1   1  -8   21.10    6.50
  -1   1  -8   47.40    6.80
  -1   1  -8   32.90    5.40
  -1   1  -8   26.30    8.30
   1  -1   8   33.10    6.70
   1  -1   8   29.50    7.10
  -2   1  -8   61.49    9.50
  -2   1  -8   55.89    8.70
  -2   1  -8   62.89    7.30
   2  -1   8   67.79    9.20
   2  -1   8   79.49   10.20
  -3   1  -8   88.39   10.70
  -3   1  -8   83.69   11.00
  -3   1  -8   84.29    8.80
   3  -1   8   80.09   10.90
   3  -1   8  115.39   12.70
  -4   1  -8    2.30    5.80
   4  -1   8   28.00    9.60
   4  -1   8   18.50    8.80
  -5   1  -8   20.00    8.90
  -5   1  -8   -4.10    8.60
   5  -1   8   32.50   10.60
   5  -1   8   23.90   11.40
  -6   1  -8   29.30   12.10
  -6   1  -8   23.00   11.30
   6  -1   8   32.70   14.10
   6  -1   8   26.80   15.90
   6   0  -8    7.30   17.50
  -6   0   8   -0.10   12.10
   5   0  -8   24.60   14.40
  -5   0   8   41.80   10.40
   4   0  -8   14.30   10.90
  -4   0   8   12.10    8.30
   3   0  -8  111.79   15.00
   3   0  -8   82.39    6.40
   3   0  -8   79.09    6.90
  -3   0   8   98.69   10.40
   2   0  -8   47.80    6.00
   2   0  -8   44.00    9.40
  -2   0   8   53.69    7.80
   1   0  -8   -2.40    4.20
   1   0  -8   -7.20    4.00
   1   0  -8    5.00    6.40
  -1   0   8    3.10    4.60
  -1   0   8   -1.20    5.80
   0   0  -8  274.57   13.60
   0   0  -8  278.27   14.10
   0   0  -8  293.67   12.60
   0   0   8  302.47   13.20
   0   0   8  276.97   13.00
   0   0   8  277.67   14.80
  -1   0  -8    1.70    5.30
  -1   0  -8    4.10    6.00
   1   0   8    2.50    5.00
   1   0   8    9.70    5.90
  -2   0  -8   39.80    7.20
  -2   0  -8   36.90    6.70
   2   0   8   30.10    6.10
   2   0   8   29.40    8.00
  -3   0  -8   78.19    9.50
  -3   0  -8   72.49    8.30
   3   0   8   66.49    8.50
   3   0   8   84.19   10.90
  -4   0  -8   15.00    7.90
  -4   0  -8   19.20    7.50
   4   0   8    6.20    6.50
   4   0   8   30.80    9.50
  -5   0  -8    7.70   10.30
   5   0   8    1.70    9.70
   5   0   8    6.50    9.30
  -6   0  -8   -2.90   10.30
   6   0   8  -14.30   11.70
   6  -1  -8   27.60   18.80
  -6   1   8   58.39   14.20
   5  -1  -8   27.40   16.00
  -5   1   8   10.20    9.70
   4  -1  -8   61.49   13.30
  -4   1   8   71.89   10.90
   3  -1  -8  130.89   15.30
   3  -1  -8  143.99    6.60
   3  -1  -8  129.69    6.70
  -3   1   8  139.39   11.70
   2  -1  -8    9.30    4.20
   2  -1  -8   16.40    8.20
   2  -1  -8   18.20    4.80
  -2   1   8    6.10    4.40
  -2   1   8   -4.20    6.00
   1  -1  -8  229.68   13.10
   1  -1  -8  242.58   12.70
   1  -1  -8  234.68   10.40
  -1   1   8  237.48   10.90
  -1   1   8  254.67   13.50
   0  -1  -8   76.39    9.00
   0  -1  -8   74.39    8.40
   0   1   8   84.89    9.00
   0   1   8   68.19    8.60
  -1  -1  -8   95.19    7.90
  -1  -1  -8   84.69    8.40
  -1  -1  -8   97.09    7.00
   1   1   8   91.69    9.00
   1   1   8   92.09    7.90
  -2  -1  -8  120.69    9.90
  -2  -1  -8  124.59    7.70
   2   1   8  110.59    7.30
   2   1   8  113.99    9.20
  -3  -1  -8    2.20    6.60
  -3  -1  -8    2.90    4.60
   3   1   8   12.20    7.60
   3   1   8    3.60    4.00
  -4  -1  -8   32.30    6.10
  -4  -1  -8   43.40    9.20
   4   1   8   47.20    9.80
   4   1   8   54.99    7.60
  -5  -1  -8   52.09   11.90
   5   1   8   28.10   10.60
   5   1   8   55.99   12.40
  -6  -1  -8  -14.80   11.20
   6   1   8   27.70   12.40
   6  -2  -8  -39.50   19.00
  -6   2   8   36.50   14.50
   5  -2  -8   21.90   16.40
  -5   2   8    9.10   10.40
   4  -2  -8   25.50   12.30
   3  -2  -8   16.70    3.70
   3  -2  -8   22.70   10.20
   3  -2  -8   12.30    3.30
  -3   2   8   16.70    8.10
   2  -2  -8    2.80    7.50
   2  -2  -8    1.10    4.30
  -2   2   8    2.30    4.50
  -2   2   8    7.70    6.90
   1  -2  -8  123.49   11.30
   1  -2  -8  135.79   10.60
   1  -2  -8  133.19    8.70
  -1   2   8  137.59   11.40
  -1   2   8  129.59   11.60
  -1   2   8  134.29    8.50
   0  -2  -8   -1.20    5.70
   0  -2  -8    1.70    5.50
   0  -2  -8    0.50    4.60
   0   2   8    2.10    4.80
  -1  -2  -8   16.10    4.60
  -1  -2  -8   15.10    6.10
  -1  -2  -8   18.80    4.00
   1   2   8   14.10    6.10
  -2  -2  -8   49.50    8.60
   2   2   8   37.50    7.10
  -3  -2  -8   49.20    9.70
   3   2   8   45.30    8.90
  -4  -2  -8   16.40    8.90
   4   2   8   22.00    9.20
  -5  -2  -8   -2.10    9.00
   5   2   8  -14.40   12.00
  -6  -2  -8    7.80   11.80
   6   2   8   16.50   12.30
   5  -3  -8   27.60   15.30
  -5   3   8   38.70   12.30
   4  -3  -8   22.00   15.90
  -4   3   8   35.60   10.50
   3  -3  -8   27.30   10.90
  -3   3   8   23.10    4.70
  -3   3   8   27.10    8.90
   2  -3  -8  173.58   14.30
   2  -3  -8  159.08    8.90
  -2   3   8  142.79   13.00
  -2   3   8  149.29    9.50
   1  -3  -8    8.40    5.20
   1  -3  -8    4.00    6.20
   1  -3  -8   10.90    7.60
  -1   3   8    7.10    4.70
  -1   3   8    3.80    6.30
   0  -3  -8  198.08   11.10
   0  -3  -8  184.88   11.40
   0  -3  -8  197.88   13.00
   0   3   8  198.48   10.90
   0   3   8  208.68   10.00
  -1  -3  -8  108.29   10.70
  -1  -3  -8  114.69    6.60
   1   3   8  108.19    8.40
  -2  -3  -8   18.90    7.00
   2   3   8   13.40    5.60
  -3  -3  -8   53.69    9.80
   3   3   8   38.20    8.90
  -4  -3  -8   35.40    9.50
   4   3   8   46.10   10.40
  -5  -3  -8    9.50   10.70
   5   3   8   12.20   10.80
  -6  -3  -8    3.60   12.60
   6   3   8    5.30   12.90
   5  -4  -8   -5.70   16.60
  -5   4   8   30.60   12.90
   4  -4  -8   15.30   13.30
  -4   4   8    2.00    9.80
   3  -4  -8   20.60   11.50
  -3   4   8   11.00    4.90
  -3   4   8   17.50    7.40
   2  -4  -8   40.50    7.40
   2  -4  -8   34.40   11.30
  -2   4   8   54.49    6.90
  -2   4   8   49.40   10.30
   1  -4  -8    5.50    8.50
   1  -4  -8  -10.90    6.70
  -1   4   8    0.40    8.10
  -1   4   8   -1.70    5.80
   0  -4  -8   17.50    8.10
   0   4   8   19.80    6.00
   0   4   8   23.10    6.50
  -1  -4  -8   20.00    7.50
  -1  -4  -8   18.10    4.40
  -1  -4  -8   20.00    7.00
   1   4   8   28.00    7.70
  -2  -4  -8   53.69    9.40
   2   4   8   47.60    9.20
  -3  -4  -8    2.80    8.50
   3   4   8    7.00    6.30
  -4  -4  -8    8.40   16.90
   4   4   8   16.40   10.10
  -5  -4  -8   11.50   10.10
   5   4   8   17.00   12.00
  -6  -4  -8   -5.00   12.10
   6   4   8  -11.20   12.50
   5  -5  -8   22.40   19.20
  -5   5   8   26.10   14.50
   4  -5  -8   14.50   14.90
  -4   5   8  -16.30   10.50
   3  -5  -8   32.80   13.00
  -3   5   8   37.70   12.30
  -3   5   8   43.80    7.20
   2  -5  -8   15.40    8.60
   2  -5  -8   -5.20   10.60
  -2   5   8    4.20    6.40
  -2   5   8   11.40    9.50
   1  -5  -8   95.69   12.00
   1  -5  -8  124.89   12.90
  -1   5   8  118.79   13.80
  -1   5   8  121.79   11.10
   0  -5  -8   28.40    9.00
   0  -5  -8   29.10    8.20
   0   5   8   37.70    7.00
   0   5   8   33.10    7.80
  -1  -5  -8   34.70    6.30
  -1  -5  -8   27.00    9.40
   1   5   8   25.50    4.80
   1   5   8   38.30    8.30
  -2  -5  -8   48.20   10.10
   2   5   8   33.90    8.90
  -3  -5  -8   29.10   10.00
   3   5   8   23.40    8.10
  -4  -5  -8   19.60   10.90
   4   5   8   35.50   10.60
  -5  -5  -8   -6.00   11.30
   5   5   8    3.70   11.80
  -6  -5  -8    5.00   14.30
   6   5   8   -2.30   13.70
   4  -6  -8   14.00   19.60
  -4   6   8    6.20   12.70
   3  -6  -8   17.70    9.70
   3  -6  -8   28.00   16.80
  -3   6   8   32.50   12.80
  -3   6   8   15.80    9.10
   2  -6  -8   23.60   12.70
  -2   6   8    8.10    7.60
   1  -6  -8   10.30    8.70
   1  -6  -8    8.40    9.10
  -1   6   8    7.20    8.00
  -1   6   8   19.90   10.00
   0  -6  -8   12.80    9.00
   0  -6  -8    3.70    8.90
   0   6   8    3.10    7.60
  -1  -6  -8   14.00    6.80
  -1  -6  -8   29.30    9.40
   1   6   8   16.40    8.60
  -2  -6  -8   -6.10    8.10
   2   6   8    1.80    6.60
  -3  -6  -8   32.10   10.40
   3   6   8   16.20    8.10
  -4  -6  -8    6.70   10.90
   4   6   8   16.30   12.20
  -5  -6  -8    4.30   11.60
   5   6   8   -9.80    9.20
   3  -7  -8   19.60   12.20
   3  -7  -8   -3.80   16.00
  -3   7   8    5.90   13.50
   2  -7  -8   -3.10   11.80
   2  -7  -8   59.99   16.60
  -2   7   8   39.80   10.20
  -2   7   8   27.20   13.90
   1  -7  -8   -1.50   10.10
   1  -7  -8    6.90   10.10
  -1   7   8   18.20    8.90
   0  -7  -8   -1.40    9.00
   0  -7  -8   28.70   11.50
   0   7   8   24.60    9.20
  -1  -7  -8   24.10   12.20
  -1  -7  -8   25.10   11.80
  -2  -7  -8    6.30    9.90
   2   7   8   19.10   10.70
  -3  -7  -8   -4.30   10.70
   3   7   8    3.00   11.20
  -4  -7  -8    0.40   12.10
   4   7   8   40.70   13.60
  -5  -7  -8  -28.30   12.70
   2  -8  -8   18.00   12.30
   2  -8  -8   10.70   15.20
  -2   8   8   32.90   11.40
   1  -8  -8   -0.10   14.30
   1  -8  -8   -1.80   12.70
  -1   8   8   13.60   10.70
   0  -8  -8    9.20   12.30
   0  -8  -8   -3.20    9.90
   0   8   8   -8.60    9.70
  -1  -8  -8    0.80   10.40
   1   8   8    0.40   10.10
  -2  -8  -8   24.60   11.70
   2   8   8    6.50   11.40
  -3  -8  -8   -3.50   12.20
   3   8   8   12.60   10.70
  -4  -8  -8   -1.50   13.60
   4   8   8    9.40   14.40
   1  -9  -8   14.10   12.50
  -1   9   8   -8.30   11.10
   0  -9  -8    3.10   11.90
   0   9   8  -20.10   11.30
  -1  -9  -8   20.30   13.90
   1   9   8   -9.10   12.70
  -2  -9  -8  -18.10   12.60
   2   9   8   34.20   14.30
   0   8  -9  -24.50   14.70
   0  -8   9  -26.80   20.80
   3   7  -9   36.10   18.90
   2   7  -9   45.90   16.10
  -2  -7   9   52.29   19.40
   1   7  -9    9.80   13.40
  -1  -7   9   30.70   19.70
   0   7  -9   17.70   12.80
   0  -7   9   -9.10   17.50
  -1   7  -9   39.90   14.50
   1  -7   9   35.90   19.50
  -2   7  -9   -5.40    9.90
   2  -7   9  -10.30   17.50
  -3   7  -9    8.80   14.40
   4   6  -9    0.70   14.30
   4   6  -9   14.30   19.10
   3   6  -9   28.40   13.50
   3   6  -9   13.20   17.70
  -3  -6   9   53.39   21.10
   2   6  -9   42.00   13.00
  -2  -6   9   20.60   18.30
   1   6  -9   -0.50   10.70
  -1  -6   9  -19.70   15.40
   0   6  -9   46.40   12.70
   0  -6   9   33.50   17.30
  -1   6  -9   -1.10    8.40
   1  -6   9   13.70   15.40
  -2   6  -9   -4.10   10.90
   2  -6   9   19.10   15.20
  -3   6  -9   -5.00   12.50
   3  -6   9   42.90   17.50
  -4   6  -9   -4.50   13.00
   4  -6   9   -9.30   18.50
   4   5  -9   27.20   18.20
   4   5  -9    0.60   10.00
  -4  -5   9   13.10   19.80
  -4  -5   9    5.10    9.80
   3   5  -9   92.29   14.80
   3   5  -9   49.60   16.60
  -3  -5   9   72.69    9.70
  -3  -5   9   56.19   15.90
   2   5  -9    4.20   10.00
  -2  -5   9   23.80   16.10
  -2  -5   9   -2.70    6.20
   1   5  -9   10.40    9.40
   0   5  -9   89.39   12.80
   0  -5   9   97.09   16.70
  -1   5  -9    3.50    9.90
   1  -5   9   -5.50   12.70
  -2   5  -9   63.49   11.90
  -3   5  -9    3.30   10.60
   3  -5   9   -8.30   13.80
  -4   5  -9    5.40   11.60
   4  -5   9    4.80   15.60
   5   4  -9   18.50   18.80
  -5  -4   9   34.10   11.30
   4   4  -9   32.60   14.20
   4   4  -9   18.80   10.80
  -4  -4   9   36.60   10.20
   3   4  -9   18.80    9.10
   3   4  -9    5.70   12.50
  -3  -4   9   34.00    8.10
  -3  -4   9   38.20   16.30
   2   4  -9   14.10   12.20
   2   4  -9   15.20    8.80
  -2  -4   9   30.50   14.60
  -2  -4   9    8.00    6.10
   1   4  -9   85.69   11.30
   1   4  -9   91.09    7.50
  -1  -4   9   78.39    8.40
  -1  -4   9   97.29   13.90
   0   4  -9    2.90    6.40
   0   4  -9    2.50    3.80
   0   4  -9    1.30    7.80
   0  -4   9   -1.60    8.80
  -1   4  -9   37.00    4.80
  -1   4  -9   33.30    9.50
   1  -4   9   31.60   11.70
  -2   4  -9   81.29    7.80
  -2   4  -9   85.19   12.00
   2  -4   9   87.99   14.30
  -3   4  -9   -3.00    7.10
  -3   4  -9   10.00    5.90
   3  -4   9   17.00   14.00
  -4   4  -9   40.60    9.30
  -4   4  -9   13.50   11.00
  -5   4  -9  -18.90   11.60
   5  -4   9   13.90   17.30
   5   3  -9   -3.30   16.00
  -5  -3   9   35.00   10.80
   4   3  -9   76.19   11.00
   4   3  -9   50.79   13.20
  -4  -3   9   78.89   11.20
   3   3  -9   -1.40   12.90
   3   3  -9   -6.80    8.30
  -3  -3   9    0.70    6.70
   2   3  -9   45.50    9.60
   2   3  -9   45.30   12.50
  -2  -3   9   45.30    7.60
  -2  -3   9   35.80   11.30
   1   3  -9  163.28   12.30
   1   3  -9  164.68   10.40
   1   3  -9  159.08   10.30
  -1  -3   9  172.48   17.60
  -1  -3   9  182.48   10.80
   0   3  -9   12.70    5.10
   0   3  -9    9.20    4.40
   0   3  -9   17.30    7.50
   0  -3   9    8.00   10.30
  -1   3  -9  186.58    9.80
  -1   3  -9  199.08   14.10
   1  -3   9  176.58   16.70
  -2   3  -9    3.00    5.10
  -2   3  -9   10.10    6.10
  -2   3  -9    5.00    7.60
   2  -3   9    8.20    9.90
  -3   3  -9   25.50    7.00
  -3   3  -9   52.59   10.40
   3  -3   9   37.90   10.90
  -4   3  -9   35.90   10.40
  -4   3  -9   31.70    8.30
   4  -3   9   44.80   14.70
  -5   3  -9   23.10    9.50
  -5   3  -9    7.20   10.00
   5  -3   9    2.60   14.80
   5   2  -9   36.40   17.30
  -5  -2   9   86.29   13.70
   4   2  -9   19.20   13.20
  -4  -2   9   19.30    9.70
   3   2  -9   16.00    7.80
   3   2  -9   22.00   12.10
  -3  -2   9   18.40    7.10
   2   2  -9  121.49   11.20
   2   2  -9  121.79   15.00
  -2  -2   9  120.19   15.90
  -2  -2   9  112.89    9.60
   1   2  -9    2.70    6.40
   1   2  -9    1.70    5.40
   1   2  -9    4.10    8.30
  -1  -2   9   22.30   10.30
  -1  -2   9    1.90    5.10
   0   2  -9  122.49   10.80
   0   2  -9  114.99    8.70
   0   2  -9  125.29    9.20
   0  -2   9  110.69   13.40
  -1   2  -9   91.69   10.90
  -1   2  -9   94.79    8.80
  -1   2  -9   92.29    8.20
   1  -2   9   80.29    9.40
   1  -2   9  107.39   13.30
  -2   2  -9   44.40    8.10
  -2   2  -9   47.40    7.40
   2  -2   9   53.29   10.70
   2  -2   9   53.39   10.60
  -3   2  -9   48.70    8.00
  -3   2  -9   66.69   10.10
   3  -2   9   65.39   11.80
   3  -2   9   58.29   11.50
  -4   2  -9    1.10    7.60
   4  -2   9    4.20   10.30
  -5   2  -9    0.80    9.70
  -5   2  -9   -0.80    8.60
   5  -2   9  -14.40   12.30
   5  -2   9   19.80   13.00
  -6   2  -9    8.70   12.30
  -6   2  -9   49.00   13.20
   6  -2   9   16.10   16.00
   6  -2   9   -6.70   15.30
   5   1  -9   42.90   16.90
  -5  -1   9   33.70   11.40
   4   1  -9   16.00   12.30
  -4  -1   9   22.50    8.90
   3   1  -9   27.30    6.50
   3   1  -9   28.30   11.20
  -3  -1   9   39.90    8.50
   2   1  -9   72.39    8.70
   2   1  -9   81.99   12.60
  -2  -1   9   69.19    9.00
   1   1  -9   68.59    8.30
   1   1  -9   65.19    8.40
   1   1  -9   77.69   10.80
  -1  -1   9   82.59    9.00
  -1  -1   9   57.09   11.40
   0   1  -9  219.88   11.70
   0   1  -9  241.68   12.60
   0  -1   9  233.88   15.40
   0  -1   9  206.08   13.00
  -1   1  -9   33.70    6.50
  -1   1  -9   31.60    7.80
   1  -1   9   24.80    8.20
   1  -1   9   34.50    7.20
  -2   1  -9   88.59   10.80
  -2   1  -9  101.89   10.00
   2  -1   9  104.49   12.30
   2  -1   9  111.99   12.80
  -3   1  -9   59.09   10.20
  -3   1  -9   56.69    9.00
   3  -1   9   71.49   11.30
   3  -1   9   70.99   10.40
  -4   1  -9    9.20    8.50
  -4   1  -9    7.70    6.10
   4  -1   9   19.20   10.30
   4  -1   9   19.10    9.60
  -5   1  -9   30.40   10.40
  -5   1  -9   19.60    9.80
   5  -1   9   53.99   12.20
   5  -1   9   21.50   12.10
  -6   1  -9    9.80   10.70
  -6   1  -9    5.30   11.50
   6  -1   9   10.00   14.30
   5   0  -9   -3.70   12.40
  -5   0   9   27.00   11.70
   4   0  -9   57.69   14.10
   3   0  -9  116.99   10.20
   3   0  -9  120.29    8.20
   3   0  -9  111.49   15.00
  -3   0   9  111.09   12.70
   2   0  -9   15.10    5.80
   2   0  -9   12.00    5.60
   2   0  -9   19.40    9.20
  -2   0   9    3.30    6.50
   1   0  -9  175.78   11.90
   1   0  -9  180.38   10.90
   1   0  -9  212.18   13.90
  -1   0   9  201.68   12.40
  -1   0   9  184.98   12.10
   0   0  -9   80.69    9.20
   0   0  -9   73.39    8.60
   0   0  -9   67.19    8.40
   0   0   9   67.69   10.00
   0   0   9  103.29    9.80
  -1   0  -9  101.29    9.80
  -1   0  -9   86.19   10.20
   1   0   9   85.09   10.40
   1   0   9   87.89   10.80
  -2   0  -9   91.09    9.60
  -2   0  -9   80.79    9.90
   2   0   9   99.29   11.80
  -3   0  -9   20.00    8.30
  -3   0  -9   22.60    7.20
   3   0   9   13.20    8.70
  -4   0  -9   18.40    8.20
   4   0   9   34.70   11.00
   4   0   9   12.00    7.60
   5   0   9   -0.40    8.60
   5   0   9   28.90   12.00
  -6   0  -9    5.10   11.70
  -6   0  -9   18.70   10.40
   6   0   9   28.20   14.50
   5  -1  -9    0.30   16.20
  -5   1   9   -8.70    9.90
   4  -1  -9    9.40   12.00
  -4   1   9    8.30    9.50
   3  -1  -9   23.70   10.80
   3  -1  -9   24.30    4.80
  -3   1   9   28.50    8.70
   2  -1  -9   41.30    6.30
   2  -1  -9   35.50   10.40
   2  -1  -9   49.40    6.60
  -2   1   9   46.00    8.80
  -2   1   9   43.80    7.00
   1  -1  -9   83.99   10.50
   1  -1  -9   85.49   10.30
  -1   1   9   83.09   10.20
  -1   1   9   62.99    7.70
   0  -1  -9   95.59   11.00
   0  -1  -9  107.29   10.30
   0  -1  -9  109.79   10.40
   0   1   9  117.29    9.60
  -1  -1  -9  113.69   10.20
  -1  -1  -9  126.39    9.60
  -1  -1  -9  107.69    8.50
   1   1   9  107.09    9.00
  -2  -1  -9   38.50    6.30
  -2  -1  -9   41.40    8.50
  -2  -1  -9   42.80    5.40
   2   1   9   34.50    7.60
   2   1   9   31.90    5.50
  -3  -1  -9   73.49   10.40
  -3  -1  -9   81.39    7.40
   3   1   9   74.49    7.80
   3   1   9   85.69   11.50
  -4  -1  -9   69.79   10.40
   4   1   9   61.39    7.20
   4   1   9   59.69   10.30
  -5  -1  -9    8.20    9.70
   5   1   9   12.80   11.40
  -6  -1  -9   19.00   13.10
   6   1   9   18.60   13.60
   5  -2  -9    7.80   15.90
  -5   2   9   33.90   12.80
   4  -2  -9   48.70   14.70
  -4   2   9   51.29   12.00
   3  -2  -9   27.50    4.60
   3  -2  -9   35.90   11.50
  -3   2   9   29.40    9.40
   2  -2  -9  132.19   15.30
   2  -2  -9  136.79    9.40
  -2   2   9  147.19    9.50
  -2   2   9  153.18   13.20
   1  -2  -9   23.80    7.80
   1  -2  -9   21.00    7.40
  -1   2   9   21.70    8.30
  -1   2   9   28.00    6.90
   0  -2  -9  145.69   10.30
   0  -2  -9  132.79   10.80
   0  -2  -9  136.89   11.90
   0   2   9  147.69   10.40
  -1  -2  -9   74.99    6.90
  -1  -2  -9   81.39   10.20
  -1  -2  -9   82.99    8.60
   1   2   9   76.29    8.10
  -2  -2  -9   78.29   10.10
  -2  -2  -9   54.09    4.00
   2   2   9   51.59    9.50
  -3  -2  -9   47.70    9.80
   3   2   9   28.30    9.30
  -4  -2  -9   15.20    8.60
   4   2   9   -3.10    8.60
  -5  -2  -9   15.40   11.00
   5   2   9   17.70   11.50
  -6  -2  -9   -2.20   12.60
   6   2   9   21.60   14.20
   5  -3  -9    7.30   17.20
  -5   3   9  -10.40   11.90
   4  -3  -9   -9.50   12.80
  -4   3   9   23.80   10.50
   3  -3  -9   28.30   13.30
  -3   3   9   20.60    5.30
  -3   3   9   12.40   10.10
   2  -3  -9   48.80   10.60
   2  -3  -9   36.40    6.80
  -2   3   9   31.60    6.60
  -2   3   9   32.00    9.70
   1  -3  -9   67.09   10.40
   1  -3  -9   69.19   11.10
  -1   3   9   94.09   12.20
  -1   3   9   64.09    7.90
   0  -3  -9   50.29    7.70
   0  -3  -9   46.40    8.10
   0   3   9   49.20    8.40
  -1  -3  -9   11.30    4.40
  -1  -3  -9    3.00    5.60
  -1  -3  -9    9.60    5.10
   1   3   9    8.80    6.90
  -2  -3  -9   96.59   12.10
   2   3   9   89.29   11.00
  -3  -3  -9   45.80   10.40
   3   3   9   39.50    8.20
  -5  -3  -9   14.50   11.80
   5   3   9   16.10   12.50
  -6  -3  -9  -19.20   13.00
   6   3   9   12.70   14.00
   5  -4  -9  -21.20   17.50
  -5   4   9   -3.10   13.40
   4  -4  -9   20.30   15.80
  -4   4   9   -3.00   10.80
   3  -4  -9   40.70   13.70
  -3   4   9   18.40   10.90
   2  -4  -9    6.90    9.20
   2  -4  -9   11.20    9.40
  -2   4   9    4.30    5.90
  -2   4   9    2.00    9.10
   1  -4  -9   85.59   10.60
   1  -4  -9   75.09   11.60
  -1   4   9   84.09    9.20
  -1   4   9   93.09   12.60
   0  -4  -9   13.70    7.60
   0  -4  -9   15.50    7.30
   0  -4  -9   21.20    8.50
   0   4   9   22.50    6.80
   0   4   9   29.90    6.90
  -1  -4  -9   66.79    7.10
  -1  -4  -9   69.99    7.10
  -1  -4  -9   74.39   11.30
   1   4   9  104.09   11.10
  -2  -4  -9   47.00    9.80
   2   4   9   53.79    9.60
  -3  -4  -9    0.40    8.00
   3   4   9   11.40    7.00
  -4  -4  -9   40.60   11.50
   4   4   9   53.49   12.10
  -5  -4  -9    3.30   11.20
   5   4   9   26.80   12.50
  -6  -4  -9   -3.60   13.90
   6   4   9   16.90   14.80
   4  -5  -9    9.60   16.40
  -4   5   9    3.30   12.00
   3  -5  -9   13.30   14.00
  -3   5   9   34.80   12.30
   2  -5  -9   41.00   13.50
   2  -5  -9   35.20   12.80
  -2   5   9   32.00   15.60
  -2   5   9   34.60    8.10
   1  -5  -9   10.30   10.00
   1  -5  -9   32.50    9.60
  -1   5   9   25.60    7.20
  -1   5   9   25.90   10.90
   0  -5  -9   15.20    8.10
   0  -5  -9   -0.20    7.90
   0   5   9  -13.70    6.10
   0   5   9   13.30    8.20
  -1  -5  -9   52.09    6.50
  -1  -5  -9   45.90   10.60
   1   5   9   53.09    9.60
  -2  -5  -9   19.20    7.90
   2   5   9   17.20    8.90
  -3  -5  -9  -23.40    9.40
   3   5   9    7.00    7.50
  -4  -5  -9   35.10   11.90
   4   5   9   24.40   11.80
  -5  -5  -9    7.80   12.00
   5   5   9   25.00   12.80
   4  -6  -9  -11.70   17.80
  -4   6   9   14.30   14.80
   3  -6  -9   33.50   12.60
   3  -6  -9  -12.60   13.70
  -3   6   9   37.50   14.00
   2  -6  -9   23.40   11.50
   2  -6  -9   26.20   14.60
  -2   6   9   18.40    8.80
  -2   6   9   44.30   13.40
   1  -6  -9   -6.80   10.50
   1  -6  -9   -8.40   10.10
  -1   6   9    2.50    7.90
   0  -6  -9   22.20    8.70
   0  -6  -9   33.30   11.00
   0   6   9   36.10    9.20
  -1  -6  -9    9.30   12.20
   1   6   9   14.30    9.00
  -2  -6  -9    0.00    9.90
   2   6   9   21.50   10.40
  -3  -6  -9   45.40   12.20
   3   6   9   36.10   12.10
  -4  -6  -9    2.10   11.30
   4   6   9   22.60   13.10
  -5  -6  -9    6.30   13.70
   5   6   9    4.20   12.80
   3  -7  -9   -2.60   16.70
   3  -7  -9   15.40   14.30
  -3   7   9   33.80   14.80
   2  -7  -9   -3.80   13.80
   2  -7  -9   32.90   11.70
  -2   7   9   -3.00    9.40
  -2   7   9    4.50   13.20
   1  -7  -9   -5.20   11.60
   1  -7  -9  -12.70    9.90
  -1   7   9    6.20    9.30
   0  -7  -9   29.50   11.10
   0  -7  -9   20.80   12.20
   0   7   9   36.60   12.70
  -1  -7  -9   33.00   11.30
   1   7   9   -3.30    9.40
  -2  -7  -9   -9.10   10.00
   2   7   9    4.90   11.30
  -3  -7  -9   10.50   12.00
   3   7   9   30.10   11.10
  -4  -7  -9   15.10   13.20
   4   7   9   -0.10   13.70
   2  -8  -9    7.30   12.90
   2  -8  -9  -45.40   16.80
   1  -8  -9    0.60   12.20
   1  -8  -9   25.10   16.00
  -1   8   9   -9.00   12.10
   0  -8  -9  -14.60   11.20
   0   8   9   10.00   11.30
  -1  -8  -9  -28.70   11.10
   1   8   9    0.90   11.30
  -2  -8  -9   20.50   13.50
   2   8   9   35.60   12.30
  -3  -8  -9  -33.90   14.70
   3   8   9   -6.30   13.60
   1   7 -10   -9.30   14.50
  -1  -7  10  -19.90   19.50
   0   7 -10   15.90   14.00
   0  -7  10   34.90   20.50
  -1   7 -10   -5.90   15.20
   1  -7  10   -4.50   19.60
  -2   7 -10    2.80   14.10
   3   6 -10   29.80   18.60
   3   6 -10   66.19   15.50
  -3  -6  10   46.40   22.70
   2   6 -10   -6.10   12.70
  -2  -6  10   13.50   18.60
   1   6 -10   54.09   14.30
  -1  -6  10   21.70   17.70
   0   6 -10   19.10   12.80
   0  -6  10    2.50   17.60
  -1   6 -10    1.40   11.40
   1  -6  10    8.40   16.70
  -2   6 -10   11.90   12.60
   2  -6  10   23.80   18.60
  -3   6 -10   -6.50   13.30
   3  -6  10    7.80   19.00
   4   5 -10   28.50   19.40
   3   5 -10   39.80   13.20
   3   5 -10   33.60   17.20
  -3  -5  10   31.00   20.30
   2   5 -10   36.10   13.60
   2   5 -10   31.60   16.00
  -2  -5  10   28.50   17.60
   1   5 -10   18.70   10.70
  -1  -5  10   19.10   12.50
   0   5 -10  -11.40    9.90
   0  -5  10    0.50   13.70
  -1   5 -10   20.50    9.60
   1  -5  10   22.30   14.50
  -2   5 -10   28.80   11.10
   2  -5  10   23.70   15.20
  -3   5 -10   22.90   12.60
   3  -5  10   12.60   15.70
  -4   5 -10    6.00   12.70
   4  -5  10  -17.90   19.00
   4   4 -10   33.20   17.20
  -4  -4  10   63.29   11.90
   3   4 -10    3.60   11.20
   3   4 -10   -3.90   14.50
  -3  -4  10   19.20   18.00
  -3  -4  10    9.60    8.50
   2   4 -10  115.79   13.90
   2   4 -10   88.79   16.50
  -2  -4  10  100.69   11.00
  -2  -4  10  110.19   18.90
   1   4 -10   49.99    6.30
   1   4 -10   20.20   10.10
  -1  -4  10   54.89   15.60
   0   4 -10   -8.00    8.20
   0  -4  10   -6.70   11.80
   1  -4  10   29.40   13.10
  -2   4 -10   73.69   12.60
   2  -4  10   94.89   15.90
  -3   4 -10   11.80   10.40
   3  -4  10   19.00   15.80
  -4   4 -10    0.10   11.40
   4  -4  10   34.60   15.30
   5   3 -10   21.30   18.40
  -5  -3  10   54.09   14.40
   4   3 -10   33.50   15.80
  -4  -3  10   28.20   13.20
   3   3 -10   44.70   10.80
   3   3 -10   67.89   15.60
  -3  -3  10   55.99   10.10
   2   3 -10   32.60    8.90
   2   3 -10   -4.80   11.10
  -2  -3  10   24.60   13.80
  -2  -3  10   18.00    7.40
   1   3 -10   -2.30    5.30
   1   3 -10   -6.60    6.80
  -1  -3  10    5.90   11.10
  -1  -3  10   -4.80    6.00
   0   3 -10   54.79    9.80
   0   3 -10   63.99    7.60
   0   3 -10   36.50    6.10
   0  -3  10   34.90   12.50
  -1   3 -10   40.10    9.80
  -1   3 -10   47.80    8.80
  -1   3 -10   44.00    6.70
   1  -3  10   47.60   13.50
  -2   3 -10   34.80    6.90
  -2   3 -10   56.89   10.40
   2  -3  10   49.90   12.50
  -3   3 -10   20.00    7.40
  -3   3 -10   38.30   10.80
   3  -3  10   46.30   13.60
  -4   3 -10   13.30    8.50
  -4   3 -10    0.60   10.40
   4  -3  10    6.70   13.10
  -5   3 -10   25.10   10.50
  -5   3 -10   26.20   12.80
   5   2 -10    7.10   14.10
  -5  -2  10   26.00   12.70
   4   2 -10   14.30   15.10
  -4  -2  10   15.80   12.90
   3   2 -10  140.69   18.40
   3   2 -10  111.09   13.00
  -3  -2  10  119.19   11.70
   2   2 -10    0.50    7.60
   2   2 -10   26.80   10.60
  -2  -2  10    4.20    7.80
  -2  -2  10   -2.90   11.60
   1   2 -10   29.70    7.00
   1   2 -10   11.40   10.30
   1   2 -10   28.60    7.70
  -1  -2  10   24.80   11.60
  -1  -2  10   33.90    7.10
   0   2 -10   48.80    9.10
   0   2 -10   45.20    7.30
   0  -2  10   47.70   11.10
  -1   2 -10  122.29   10.10
  -1   2 -10  117.29   12.30
   1  -2  10  143.09   14.50
  -2   2 -10   66.29    8.10
  -2   2 -10   86.49   11.60
   2  -2  10   64.19   12.60
   2  -2  10   87.39   13.20
  -3   2 -10   27.00    7.40
   3  -2  10   14.00   10.70
   3  -2  10   15.30   15.90
  -4   2 -10    7.70    9.00
  -4   2 -10   22.10   10.40
   4  -2  10   13.10   11.70
   4  -2  10   24.60   12.90
  -5   2 -10   18.50   10.40
  -5   2 -10   12.80   11.30
   5  -2  10   14.80   13.80
   5  -2  10  -27.00   13.30
   5   1 -10   -7.30   16.30
  -5  -1  10    8.50   11.70
   4   1 -10   86.19   17.30
  -4  -1  10   70.69   12.10
   3   1 -10   32.10   12.40
   3   1 -10    6.20    7.30
  -3  -1  10   21.60    8.30
   2   1 -10    8.30    6.50
   2   1 -10   10.50    9.70
  -2  -1  10  -10.00    7.30
   1   1 -10   81.89   11.80
   1   1 -10   81.89   10.20
   1   1 -10   74.59    9.20
  -1  -1  10   83.09   13.30
  -1  -1  10   87.09   10.50
   0   1 -10   67.09   10.20
   0   1 -10   78.79    9.60
   0   1 -10   72.69    9.40
   0  -1  10   56.69   11.30
   0  -1  10   84.49   10.60
  -1   1 -10  142.89   10.20
  -1   1 -10  129.29   12.10
   1  -1  10  145.69   15.00
   1  -1  10  139.39   13.50
  -2   1 -10   56.09    9.90
  -2   1 -10   63.79    8.70
   2  -1  10   70.09   11.10
   2  -1  10   81.49   12.10
  -3   1 -10    1.40    7.50
  -3   1 -10   18.20    8.60
   3  -1  10   13.00    8.20
   3  -1  10    3.80    8.60
  -4   1 -10   51.59   10.60
  -4   1 -10   50.49   10.20
   4  -1  10   24.50   10.60
   4  -1  10   56.39   13.20
  -5   1 -10   -0.60    9.80
  -5   1 -10    1.40   10.30
   5  -1  10    6.50   13.20
   5  -1  10   17.10   11.50
  -6   1 -10   17.00   12.30
  -6   1 -10    5.50   13.90
   6  -1  10   13.00   16.00
   5   0 -10    8.10   16.90
  -5   0  10    9.00   12.80
   4   0 -10   57.19   15.60
  -4   0  10   64.79   12.10
   3   0 -10   14.90   11.20
  -3   0  10   14.70    7.90
   2   0 -10   36.10    6.80
   2   0 -10   20.40    9.80
  -2   0  10   14.20    7.80
   1   0 -10    7.10    7.90
   1   0 -10   28.10    8.90
   1   0 -10   16.90    6.20
  -1   0  10   29.40    8.30
  -1   0  10   10.70    7.00
   0   0 -10   70.69    8.90
   0   0 -10   75.39   10.70
   0   0 -10   75.59    9.20
   0   0  10   70.79   10.00
   0   0  10   76.19   11.30
  -1   0 -10  152.68   11.20
  -1   0 -10  123.39   11.10
  -1   0 -10  149.19   14.10
   1   0  10  147.79   13.00
   1   0  10  143.59   12.90
  -2   0 -10   19.30    9.50
  -2   0 -10   -0.70    6.80
   2   0  10    0.30    9.10
   2   0  10   12.90    7.30
  -3   0 -10   45.20    9.10
   3   0  10   41.70    8.70
   3   0  10   56.89   11.40
  -4   0 -10    0.30    8.00
   4   0  10   14.60    8.70
   4   0  10    0.60   10.50
  -5   0 -10   -8.00   11.40
   5   0  10   14.00   10.10
  -6   0 -10   22.70   11.60
  -6   0 -10   19.90   13.40
   6   0  10   29.00   15.70
   5  -1 -10   63.29   19.30
  -5   1  10   54.59   13.90
   4  -1 -10   -1.50   13.50
  -4   1  10   -2.70    9.30
   3  -1 -10   20.20    5.80
   3  -1 -10   34.70   11.50
  -3   1  10   20.70   10.70
   2  -1 -10   87.79   12.70
   2  -1 -10   90.39    8.50
  -2   1  10   87.19    9.80
  -2   1  10   92.89   11.90
   1  -1 -10   68.59   10.20
   1  -1 -10   43.60   10.00
  -1   1  10   59.69   10.40
  -1   1  10   59.79    8.70
   0  -1 -10  252.97   14.50
   0  -1 -10  298.87   16.20
   0   1  10  279.17   14.70
  -1  -1 -10   75.79    9.50
  -1  -1 -10   79.69    9.60
  -1  -1 -10   76.69   10.00
   1   1  10   85.49   11.00
  -2  -1 -10   11.30    8.40
  -2  -1 -10    0.40    6.60
  -2  -1 -10    4.00    5.00
   2   1  10   -0.10    5.90
   2   1  10   -0.50    8.10
  -3  -1 -10   67.49   10.50
   3   1  10   71.39   11.80
   3   1  10   63.29    8.20
  -4  -1 -10  -13.20    8.80
   4   1  10   -3.00   10.30
  -5  -1 -10   -4.90   11.10
   5   1  10    3.80   12.40
  -6  -1 -10   -7.30   14.60
   6   1  10   -6.20   14.20
   5  -2 -10  -16.20   18.60
  -5   2  10   22.50   13.00
   4  -2 -10   36.90   15.90
  -4   2  10    5.30   10.80
   3  -2 -10   13.20   11.20
   3  -2 -10   19.30    5.10
  -3   2  10   18.50    9.70
   2  -2 -10    3.30   11.10
   2  -2 -10    1.30    8.90
  -2   2  10    7.10    8.10
  -2   2  10   -3.30    6.70
   1  -2 -10   27.10    8.90
   1  -2 -10   30.20    9.30
  -1   2  10   22.60    7.10
  -1   2  10   33.40    9.30
   0  -2 -10   99.49   12.10
   0  -2 -10   90.89   11.50
   0  -2 -10   82.19   10.00
   0   2  10  106.69   10.60
  -1  -2 -10   -3.90    6.30
  -1  -2 -10    3.70    4.70
  -1  -2 -10    4.30    7.50
   1   2  10   -8.60    7.30
  -2  -2 -10   65.99   10.50
   2   2  10   63.99   10.30
  -3  -2 -10    6.00    8.60
   3   2  10   -4.30    8.40
  -4  -2 -10   -2.00   12.10
   4   2  10   12.50   10.40
  -5  -2 -10   -9.10   11.10
   5   2  10   30.80   13.50
  -6  -2 -10   -4.70   13.40
   6   2  10  -33.70   13.20
   5  -3 -10  -10.20   19.90
  -5   3  10   28.20   14.10
   4  -3 -10  -10.40   15.60
  -4   3  10   35.20   12.50
   3  -3 -10   40.50   12.90
  -3   3  10   16.20   10.90
   2  -3 -10   -1.80    7.90
   2  -3 -10   -4.60    9.00
  -2   3  10    2.10    6.50
  -2   3  10   21.40    9.10
   1  -3 -10  278.77   16.50
   1  -3 -10  233.68   14.80
  -1   3  10  265.27   17.30
  -1   3  10  268.17   14.20
   0  -3 -10   43.30    7.80
   0  -3 -10   35.00    9.00
   0  -3 -10   39.10    9.70
   0   3  10   27.90    7.80
  -1  -3 -10   -5.80    8.20
  -1  -3 -10   18.80    5.60
  -1  -3 -10   16.90    5.90
   1   3  10   12.00    8.00
  -2  -3 -10   98.89   12.90
   2   3  10   85.49   11.70
  -3  -3 -10    5.70    8.90
   3   3  10    3.70    9.00
  -4  -3 -10   -1.10   10.30
   4   3  10   39.60   12.00
  -5  -3 -10   22.80   13.30
   5   3  10    3.90   12.40
  -6  -3 -10  -14.60   13.20
   6   3  10  -12.10   14.60
   4  -4 -10   13.30   17.00
  -4   4  10   16.60   12.80
   3  -4 -10   14.90   13.10
  -3   4  10   -2.30   10.50
   2  -4 -10   24.70   10.40
   2  -4 -10   20.80    9.80
  -2   4  10   19.40    7.90
  -2   4  10   18.20   10.50
   1  -4 -10   49.90   10.50
   1  -4 -10   63.09   11.00
  -1   4  10   49.90    8.50
  -1   4  10   64.99   11.90
   0  -4 -10   -0.90    7.30
   0  -4 -10    7.10    7.80
   0  -4 -10   16.80    8.60
   0   4  10    0.70    6.50
  -1  -4 -10   48.50   10.80
  -1  -4 -10   36.20    5.50
   1   4  10   42.00    8.80
  -2  -4 -10   -1.10    8.50
   2   4  10   -4.80    6.50
  -3  -4 -10   12.80    9.60
   3   4  10    0.00    9.00
  -4  -4 -10   22.80   11.20
   4   4  10   13.40   11.50
  -5  -4 -10    7.00   12.30
   5   4  10  -13.20   12.40
   4  -5 -10  -14.00   19.30
  -4   5  10    9.10   15.60
   3  -5 -10   12.00   11.50
   3  -5 -10   11.00   13.70
  -3   5  10   15.60   13.60
   2  -5 -10   93.69   15.70
   2  -5 -10  101.89   14.70
  -2   5  10   88.49   14.40
  -2   5  10   97.79   12.50
   1  -5 -10    2.50   10.50
   1  -5 -10  -12.80    9.30
  -1   5  10   14.50    7.70
  -1   5  10    8.10   10.60
   0  -5 -10   39.80   16.70
   0  -5 -10   39.90    9.40
   0   5  10   36.70    9.20
   1   5  10   37.80    9.40
  -2  -5 -10   -2.60   10.10
   2   5  10   -2.10    8.80
  -3  -5 -10   19.40   11.60
   3   5  10   17.70   10.90
  -4  -5 -10    8.10   11.90
   4   5  10   14.30   12.30
  -5  -5 -10   15.90   12.10
   5   5  10  -14.50   13.30
   3  -6 -10    3.90   15.60
   3  -6 -10   28.00   13.30
  -3   6  10   19.00   15.10
   2  -6 -10    9.00   10.50
   2  -6 -10    3.70   14.60
  -2   6  10   40.30   10.30
  -2   6  10   21.60   12.70
   1  -6 -10    9.60   12.20
   1  -6 -10    6.60   10.20
  -1   6  10   22.90    9.70
   0  -6 -10   26.40   10.00
   0  -6 -10   34.70   11.80
   0   6  10   29.70    9.60
  -1  -6 -10   -9.00   10.30
   1   6  10   -4.70   11.70
  -2  -6 -10   11.50   11.00
   2   6  10   -9.10    9.80
  -3  -6 -10   14.10   14.40
   3   6  10    7.40   10.20
  -4  -6 -10   -4.20   12.50
   4   6  10   32.10   13.40
   2  -7 -10    6.00   12.30
  -2   7  10   17.00   11.00
  -2   7  10   26.80   13.70
   1  -7 -10  -19.50   13.50
   1  -7 -10    0.00   11.40
  -1   7  10    7.00    9.90
   0  -7 -10   -7.70   10.20
   0   7  10   19.50   10.70
  -1  -7 -10   30.60   12.40
   1   7  10   23.20   11.10
  -2  -7 -10  -10.10   12.40
   2   7  10    8.20   12.30
  -3  -7 -10   -8.90   11.90
   3   7  10  -21.90   12.50
  -4  -7 -10   -3.60   14.50
   4   7  10   30.40   15.30
   1  -8 -10  -12.70   12.20
  -1   8  10   18.90   12.00
   0  -8 -10  -20.50   12.70
   0   8  10   -6.10   11.80
  -1  -8 -10   -8.80   12.90
   1   8  10   14.90   12.50
  -2  -8 -10   -8.80   14.00
   2   8  10    7.20   14.60
   2   6 -11   -5.40   19.00
   2   6 -11   20.20   14.20
  -2  -6  11   14.20   21.00
   1   6 -11   35.90   14.80
  -1  -6  11   35.50   19.90
   0   6 -11   -2.60   13.60
   0  -6  11   31.60   18.50
  -1   6 -11   20.80   14.60
   1  -6  11   -8.70   18.60
  -2   6 -11    6.20   13.60
   2  -6  11   -1.90   19.90
   3   5 -11   13.60   12.70
   3   5 -11  -13.10   17.60
  -3  -5  11   -9.70   21.10
   2   5 -11   41.00   13.30
   2   5 -11   19.10   17.10
  -2  -5  11    7.50   17.40
   1   5 -11   10.10   11.90
  -1  -5  11    0.60   15.70
   0   5 -11    7.50   11.60
   0  -5  11  -11.90   15.40
  -1   5 -11   32.70   13.00
   1  -5  11   52.99   17.30
  -2   5 -11    9.20   11.20
   2  -5  11  -16.30   19.20
  -3   5 -11   22.30   14.10
   3  -5  11   39.60   18.00
   4   4 -11   17.80   20.40
  -4  -4  11   13.80   11.60
   3   4 -11   14.40   11.50
   3   4 -11   16.90   16.80
  -3  -4  11   -8.10   17.90
  -3  -4  11   26.70    9.80
   2   4 -11   81.29   13.30
   2   4 -11   64.69    9.50
   2   4 -11   60.59   16.40
  -2  -4  11   62.19   10.40
  -2  -4  11   80.69   19.60
   1   4 -11   11.40    5.90
   1   4 -11  -17.60    9.10
  -1  -4  11   24.90   15.20
   0   4 -11   77.09   11.10
   0   4 -11   66.59   12.60
   0  -4  11   43.20   17.90
  -1   4 -11    9.40   10.90
   1  -4  11    2.60   14.40
  -2   4 -11    8.50   11.40
   2  -4  11   -3.40   22.60
  -3   4 -11    1.60   11.80
   3  -4  11   29.10   18.20
  -4   4 -11  -23.50   11.60
   4  -4  11    0.20   16.00
   4   3 -11    1.90   17.20
  -4  -3  11   -2.50   11.50
   3   3 -11   53.29   13.60
   3   3 -11   33.30   11.10
  -3  -3  11   34.30   11.00
   2   3 -11    6.90    8.00
   2   3 -11    7.00   10.00
   2   3 -11   16.10   13.30
  -2  -3  11  -18.60   14.80
  -2  -3  11   12.10    8.10
   1   3 -11   26.00   11.90
   1   3 -11   47.30    8.10
   1   3 -11   25.90    9.60
  -1  -3  11   32.30   13.60
  -1  -3  11   33.70    7.50
   0   3 -11   26.70    6.80
   0   3 -11   50.59    8.90
   0  -3  11   36.70   13.30
  -1   3 -11    2.00    6.30
   1  -3  11   13.40   12.20
  -2   3 -11   49.00   11.40
  -2   3 -11   31.50    7.70
   2  -3  11   72.09   14.70
  -3   3 -11   16.30   10.50
  -3   3 -11   11.30    7.30
   3  -3  11   25.70   13.60
  -4   3 -11    8.90   11.80
  -4   3 -11   17.00   10.00
   4  -3  11   13.20   13.10
   4   2 -11    6.00   16.10
  -4  -2  11   19.50   11.20
   3   2 -11   72.99   16.70
   3   2 -11   69.09   10.80
  -3  -2  11   59.39   11.00
   2   2 -11   -9.90    6.90
   2   2 -11    1.70   11.00
  -2  -2  11   24.20   14.40
  -2  -2  11    1.40    8.70
   1   2 -11  127.19   11.80
   1   2 -11  104.39   10.90
   1   2 -11   92.29   15.40
  -1  -2  11  124.49   16.60
  -1  -2  11  143.09   12.50
   0   2 -11   24.60    8.40
   0   2 -11   28.10    6.90
   0  -2  11   14.40   12.70
  -1   2 -11    0.30    7.90
  -1   2 -11   -2.20    6.00
   1  -2  11    8.70   10.40
  -2   2 -11   36.00    8.20
   2  -2  11   41.00   13.30
  -3   2 -11    1.80    7.60
  -3   2 -11    1.70    9.30
   3  -2  11   -8.50   11.60
   3  -2  11    2.30   12.40
  -4   2 -11   17.70    9.90
  -4   2 -11   33.50   11.40
   4  -2  11   29.40   14.50
   4  -2  11   26.80   14.90
  -5   2 -11   20.80   12.00
  -5   2 -11   19.50   12.20
   5  -2  11    2.60   16.50
   4   1 -11   19.50   16.20
  -4  -1  11   45.80   11.40
   3   1 -11  -13.90   11.70
   3   1 -11   -3.40    8.10
  -3  -1  11    2.50    8.40
   2   1 -11   47.20    9.10
   2   1 -11   52.49   12.60
  -2  -1  11   46.60    9.30
   1   1 -11    9.70    9.10
   1   1 -11   28.50    7.70
   1   1 -11   25.30    6.90
  -1  -1  11   27.00   12.00
  -1  -1  11   32.20    8.10
   0   1 -11   24.20    8.00
   0   1 -11   20.40    7.20
   0   1 -11   18.10    8.20
   0  -1  11    7.40   10.30
   0  -1  11   13.00   10.60
  -1   1 -11   58.19    9.90
  -1   1 -11   62.09    9.10
   1  -1  11   74.59   12.50
   1  -1  11   57.69   11.50
  -2   1 -11   -8.20    7.40
  -2   1 -11   -2.50    7.30
   2  -1  11    6.70   10.40
   2  -1  11   -1.40   10.10
  -3   1 -11   27.70    9.70
  -3   1 -11   10.70    8.60
   3  -1  11   25.80   12.20
   3  -1  11   10.50   10.60
  -4   1 -11   38.80   11.60
  -4   1 -11   17.40   10.10
   4  -1  11   63.39   15.10
   4  -1  11   43.80   12.80
  -5   1 -11    4.50   10.70
  -5   1 -11   -2.00   12.60
   5  -1  11  -22.30   14.10
   5   0 -11   -3.40   17.50
  -5   0  11   51.89   16.50
   4   0 -11   42.70   16.50
  -4   0  11   33.50   12.00
   3   0 -11   12.50   12.70
   3   0 -11   -9.10    6.90
   2   0 -11  121.59   16.00
   2   0 -11  137.89   11.30
  -2   0  11  143.89   13.70
   1   0 -11   52.49    8.70
   1   0 -11   34.50    9.90
   1   0 -11   54.49    9.80
  -1   0  11   43.20    9.80
  -1   0  11   24.50    9.20
   0   0 -11    4.10    7.20
   0   0 -11    2.70    6.30
   0   0 -11   -3.80    6.90
   0   0  11   14.70    8.40
   0   0  11    5.30    8.60
  -1   0 -11   35.80    8.40
  -1   0 -11   41.20    8.30
  -1   0 -11   47.60    9.00
   1   0  11   53.99   11.00
   1   0  11   49.30   11.10
  -2   0 -11    5.70    7.30
   2   0  11   11.10    9.70
   2   0  11   20.40    9.20
  -3   0 -11   76.79   11.00
   3   0  11   62.09   10.30
   3   0  11   77.79   13.60
  -4   0 -11    3.30    9.20
   4   0  11   -0.70   11.70
  -5   0 -11   22.30   12.10
  -5   0 -11    9.40   11.00
   5   0  11   12.10   14.40
   5  -1 -11   50.69   21.20
   4  -1 -11    6.40   17.10
  -4   1  11   21.20   11.70
  -3   1  11   30.30   10.60
   2  -1 -11    1.90    9.00
   2  -1 -11   -2.80    8.00
   2  -1 -11    6.90    6.10
  -2   1  11   21.40   10.00
  -2   1  11   -3.40    7.50
   1  -1 -11    3.30    7.40
   1  -1 -11   26.30    9.70
   1  -1 -11   12.20    7.10
  -1   1  11   15.60    8.40
  -1   1  11   29.80    8.80
   0  -1 -11   43.60    8.90
   0  -1 -11   38.90    7.70
   0   1  11   36.10    9.00
  -1  -1 -11   -2.30    6.80
  -1  -1 -11   -7.40    6.60
  -1  -1 -11  -15.20    8.10
   1   1  11    2.50    7.80
  -2  -1 -11   17.50    5.70
  -2  -1 -11   35.20    8.90
   2   1  11   18.20    9.80
   2   1  11   19.10    7.10
  -3  -1 -11   37.80   10.10
  -3  -1 -11   53.69    8.90
   3   1  11   25.60    6.90
   3   1  11   30.60   12.00
  -4  -1 -11   -1.80    9.70
   4   1  11   11.30   12.10
  -5  -1 -11   10.00   11.40
   5   1  11   28.00   14.40
   4  -2 -11   44.70   17.40
  -4   2  11   31.90   13.00
  -3   2  11   37.70   12.50
   2  -2 -11   61.69   19.90
   2  -2 -11   39.80   11.50
   2  -2 -11   30.90    7.00
  -2   2  11   54.69    8.40
  -2   2  11   66.39   13.70
   1  -2 -11    6.00    7.90
   1  -2 -11    4.50    8.40
  -1   2  11    2.30    8.10
  -1   2  11    0.70    8.00
   0  -2 -11   26.70    7.90
   0  -2 -11   41.70    9.70
   0   2  11   36.30    9.60
  -1  -2 -11   26.10    8.80
  -1  -2 -11   31.20    9.10
   1   2  11   32.30    9.20
  -2  -2 -11   77.49    6.70
  -2  -2 -11  111.49   13.00
   2   2  11   88.49   12.60
  -3  -2 -11   17.50   10.40
   3   2  11   16.50   10.30
  -4  -2 -11    3.80   10.90
   4   2  11   29.70   12.70
  -5  -2 -11   24.30   13.00
   5   2  11    6.20   13.40
   4  -3 -11   16.50   18.60
  -4   3  11   29.60   13.90
   3  -3 -11  -17.70   12.50
  -3   3  11   15.90   12.10
   2  -3 -11   23.30   10.30
   2  -3 -11   10.30   11.70
  -2   3  11    9.10   10.30
  -2   3  11   18.10    8.60
   1  -3 -11   18.40    9.60
   1  -3 -11   10.50    8.70
  -1   3  11   33.70    8.20
  -1   3  11   16.80    9.70
   0  -3 -11    9.30    8.30
   0  -3 -11  -11.90    7.20
   0   3  11    3.90    7.40
  -1  -3 -11   16.00    5.80
  -1  -3 -11   34.50   10.10
   1   3  11   17.60    9.10
  -2  -3 -11   -2.70    9.90
   2   3  11   15.30    8.90
  -3  -3 -11   -8.80   10.00
   3   3  11   30.50   11.10
  -4  -3 -11    6.90   10.90
   4   3  11   28.20   12.80
  -5  -3 -11   -0.20   13.10
   5   3  11   -1.40   10.50
   4  -4 -11    5.50   17.90
  -4   4  11  -21.30   13.30
   3  -4 -11   39.40   15.80
   3  -4 -11   22.40   12.20
  -3   4  11   29.30   14.10
   2  -4 -11   16.20   10.20
   2  -4 -11    6.70   10.70
  -2   4  11  -17.70    8.30
  -2   4  11    6.10   11.50
   1  -4 -11   12.90   10.00
   1  -4 -11    3.10    9.10
  -1   4  11   14.00    8.80
  -1   4  11    1.10   10.20
   0  -4 -11   18.90    8.60
   0  -4 -11   38.50   12.60
   0   4  11   15.40    8.30
  -1  -4 -11   28.20   19.10
   1   4  11   51.49   10.50
  -2  -4 -11   49.50   12.90
   2   4  11   20.80   10.80
  -3  -4 -11   31.20   13.00
   3   4  11   35.70   12.00
  -4  -4 -11   33.00   13.30
   4   4  11   -4.20   12.40
  -5  -4 -11   13.90   14.20
   5   4  11   23.80   16.70
   3  -5 -11   19.50   12.80
   3  -5 -11   11.20   17.20
  -3   5  11   32.80   14.60
   2  -5 -11   31.50   12.10
   2  -5 -11   28.50   14.20
  -2   5  11    5.50   10.20
  -2   5  11   10.80   12.80
   1  -5 -11   -0.70   11.20
   1  -5 -11  -16.80    9.60
  -1   5  11   14.80    9.40
   0  -5 -11   15.20    9.90
   0  -5 -11   18.90   10.60
   0   5  11   23.80    9.00
  -1  -5 -11    8.90    9.90
   1   5  11   11.00   14.40
  -2  -5 -11   13.40   11.00
   2   5  11   15.50   10.70
  -3  -5 -11    2.90   12.90
   3   5  11    3.40   11.80
  -4  -5 -11  -11.00   12.70
   4   5  11    5.40   13.00
   3  -6 -11   21.80   14.30
   3  -6 -11  -23.30   18.60
  -3   6  11   24.50   15.80
   2  -6 -11  -14.80   15.20
   2  -6 -11   35.60   13.30
  -2   6  11   -5.40   14.40
  -2   6  11   24.00   10.20
   1  -6 -11   -6.00   12.20
   1  -6 -11   15.60   11.90
  -1   6  11   19.00   11.00
   0  -6 -11    7.10   11.20
  -1  -6 -11   -3.50   11.20
   1   6  11   45.40   12.00
  -2  -6 -11   15.30   12.60
   2   6  11   21.40   11.20
  -3  -6 -11  -27.50   12.60
   3   6  11   17.60   12.80
  -4  -6 -11    5.90   14.50
   4   6  11   53.99   15.40
   1  -7 -11   20.80   13.60
  -1   7  11    4.00   12.20
   0  -7 -11    5.60   12.20
   0   7  11   18.00   11.80
  -1  -7 -11   10.00   13.00
   1   7  11   23.70   13.40
  -2  -7 -11  -16.10   12.50
   2   7  11   26.50   12.20
  -3  -7 -11   20.70   15.40
   3   7  11   33.80   15.50
   0   6 -12   14.00   13.90
   2   5 -12  -16.10   16.90
   2   5 -12   35.20   16.90
  -2  -5  12    3.50   22.20
   1   5 -12  -16.50   15.00
  -1  -5  12   23.20   17.90
   0   5 -12   14.20   13.40
   0  -5  12   32.10   20.30
  -1   5 -12   -1.40   13.70
   1  -5  12   19.90   17.00
  -2   5 -12   18.20   13.70
   2  -5  12    6.80   21.70
   3   4 -12   74.49   19.10
   3   4 -12   49.10   17.40
   2   4 -12    5.10   16.10
   2   4 -12    0.80   12.80
  -2  -4  12  -10.80   17.00
   1   4 -12   -3.70   11.70
   1   4 -12    0.40   16.40
  -1  -4  12   21.20   17.20
   0   4 -12   25.60   12.40
   0  -4  12   49.00   19.20
  -1   4 -12    5.90   11.70
   1  -4  12   14.40   15.00
  -2   4 -12  -15.50   11.60
   2  -4  12   -3.20   15.50
  -3   4 -12   15.90   13.90
   3  -4  12   20.40   17.20
   3   3 -12   44.30   18.00
   3   3 -12    5.50   11.90
  -3  -3  12   26.30   12.00
   2   3 -12   -6.20    9.60
   2   3 -12   26.00    8.90
   2   3 -12   31.40   15.10
  -2  -3  12   19.30    9.80
  -2  -3  12   16.00   16.60
   1   3 -12   57.59   11.60
   1   3 -12   33.90   14.60
   1   3 -12   49.30    8.20
  -1  -3  12   56.69   17.00
   0   3 -12   -1.70    6.60
   0   3 -12   12.50   10.50
   0  -3  12   21.50   15.00
  -1   3 -12   29.00   11.40
  -1   3 -12   28.20    8.00
   1  -3  12   33.40   15.00
  -2   3 -12   42.30   12.90
  -2   3 -12   22.40    8.20
   2  -3  12   21.20   15.40
  -3   3 -12   23.90   11.80
   3  -3  12    9.70   15.00
  -4   3 -12   16.40   13.10
   4   2 -12   17.30   17.40
  -4  -2  12   36.00   15.00
   3   2 -12    8.00   14.40
  -3  -2  12    5.60   14.20
   2   2 -12   13.10   14.50
   2   2 -12   15.90    9.70
   2   2 -12   16.30    9.30
  -2  -2  12   11.70   10.50
   1   2 -12   42.90    8.30
   1   2 -12   32.90    9.80
   1   2 -12   16.80   12.10
  -1  -2  12    8.00   13.90
   0   2 -12    1.10    9.10
   0   2 -12   16.70   11.00
   0   2 -12   14.20    6.60
   0  -2  12    0.50   11.50
  -1   2 -12   24.00   10.90
  -1   2 -12   27.80    8.10
   1  -2  12   24.30   13.40
  -2   2 -12    3.50   10.40
  -2   2 -12  -10.70    7.40
   2  -2  12   14.00   12.50
   2  -2  12    8.20   12.80
  -3   2 -12   15.30   11.40
  -3   2 -12    2.50    8.50
   3  -2  12   17.60   14.20
   3  -2  12    8.20   14.60
  -4   2 -12   26.60   12.80
  -4   2 -12    0.60   10.40
   4  -2  12    7.20   15.40
   4  -2  12    5.00   14.70
   4   1 -12   22.80   17.50
  -4  -1  12   24.10   13.10
   3   1 -12   37.70   14.40
  -3  -1  12   13.00   10.60
   2   1 -12   76.29   12.10
   2   1 -12   66.69   10.70
   2   1 -12   53.69   15.50
  -2  -1  12   56.79   12.00
   1   1 -12    1.10    7.70
   1   1 -12   10.00   11.10
   1   1 -12   -4.60    7.50
  -1  -1  12   14.20    8.70
   0   1 -12  105.39   12.40
   0   1 -12  112.39   14.10
   0   1 -12   75.09   10.00
   0  -1  12  115.39   14.50
   0  -1  12   76.39   14.50
  -1   1 -12   52.49   10.60
  -1   1 -12   37.30    9.00
  -1   1 -12   30.80   10.40
   1  -1  12   51.99   13.20
   1  -1  12   31.90   11.50
  -2   1 -12   16.00    9.80
  -2   1 -12   10.60    8.40
   2  -1  12   25.60   12.00
   2  -1  12    9.70   10.30
  -3   1 -12    8.50   10.00
  -3   1 -12   24.70   10.20
   3  -1  12   13.50   11.30
   3  -1  12  -12.40   12.00
  -4   1 -12    3.80   11.50
   4  -1  12   -3.00   10.50
  -5   1 -12   -1.10   14.40
  -5   1 -12   11.10   12.30
   5  -1  12   23.10   16.00
   4   0 -12    3.30   16.40
  -4   0  12   15.50   12.40
   3   0 -12   -6.40   13.30
  -3   0  12    9.10   11.00
   2   0 -12    5.80    8.30
   2   0 -12  -13.00    9.30
   2   0 -12    8.30    7.80
  -2   0  12   24.50   11.00
   1   0 -12   19.80    9.00
   1   0 -12    9.40   11.90
   1   0 -12   18.20    8.50
  -1   0  12   10.40   10.10
  -1   0  12   15.70    9.90
   0   0 -12   11.40   10.20
   0   0 -12   29.20    7.80
   0   0 -12   16.90    8.10
   0   0  12   12.70   10.00
  -1   0 -12   -0.60    7.20
  -1   0 -12    9.80    7.80
  -1   0 -12   21.10    8.90
   1   0  12    9.20    7.40
   1   0  12  -14.80    9.80
  -2   0 -12    7.70    8.40
  -2   0 -12   15.00    9.10
  -2   0 -12   13.70    8.50
   2   0  12   33.90   10.80
   2   0  12   24.80   11.30
  -3   0 -12   -7.40   10.30
  -3   0 -12   28.50    7.90
   3   0  12   33.10   12.70
   3   0  12   22.00   10.50
  -4   0 -12   -8.20    9.70
  -4   0 -12   21.50   10.60
   4   0  12   15.20   13.10
  -5   0 -12   -9.90   11.50
  -5   0 -12  -14.70   12.00
   5   0  12   41.70   12.80
   4  -1 -12   25.80   17.70
  -4   1  12   35.90   13.80
   3  -1 -12   32.80   15.70
  -3   1  12    9.40   11.30
   2  -1 -12    6.40   10.90
   2  -1 -12   11.20    7.40
   2  -1 -12   -6.20    9.00
  -2   1  12   13.70   10.10
  -2   1  12   -7.70    8.90
   1  -1 -12  115.39   13.90
   1  -1 -12  129.59   16.10
   1  -1 -12  114.79   11.70
  -1   1  12  113.39   14.50
  -1   1  12  116.99   15.20
   0  -1 -12   28.90    9.30
   0  -1 -12   27.40    8.40
   0   1  12   41.70    9.60
  -1  -1 -12   45.00    9.90
  -1  -1 -12   31.30    8.60
   1   1  12   42.80   10.90
  -2  -1 -12   22.80    7.70
  -2  -1 -12   35.10   11.40
   2   1  12   27.00   12.60
   3   1  12   -9.80   11.30
  -4  -1 -12   -3.20   13.00
   4   1  12   20.30   13.50
  -5  -1 -12  -17.30   11.60
   5   1  12    4.30   14.10
   4  -2 -12   22.60   18.20
  -4   2  12    2.70   14.60
   3  -2 -12   -6.20   12.90
  -3   2  12   -0.50   11.50
   2  -2 -12   15.50    7.30
   2  -2 -12   -9.80   11.90
   2  -2 -12   33.80   11.40
  -2   2  12    2.60   10.50
  -2   2  12    9.30    9.70
   1  -2 -12  -20.10    9.20
   1  -2 -12   10.20   10.10
  -1   2  12   -2.60    8.80
   0  -2 -12    3.60    7.90
   0  -2 -12   12.60    8.30
   0   2  12   21.90    8.70
  -1  -2 -12    6.00    6.70
  -1  -2 -12   17.70   10.60
   1   2  12    5.60    9.50
  -2  -2 -12   33.00   19.00
   2   2  12   12.70   10.40
  -3  -2 -12   11.30   10.30
   3   2  12   19.70   11.50
  -4  -2 -12    9.20   12.00
   4   2  12   10.40   13.10
  -5  -2 -12    2.70   13.80
   5   2  12   29.40   16.40
   4  -3 -12    2.00   19.10
  -4   3  12    8.00   15.90
   3  -3 -12   -9.00   13.70
   3  -3 -12  -12.10   11.70
  -3   3  12   24.10   13.80
   2  -3 -12   64.69   13.50
   2  -3 -12   19.50   13.60
  -2   3  12   41.10   10.90
  -2   3  12   68.69   14.00
   1  -3 -12    2.70    9.50
   1  -3 -12    8.10   10.60
  -1   3  12   17.20   10.50
  -1   3  12  -10.60    8.70
   0  -3 -12   38.40   10.20
   0  -3 -12   59.39   11.30
   0   3  12   61.69   10.70
  -1  -3 -12    8.60   11.20
   1   3  12    1.70    9.40
  -2  -3 -12    8.90   10.70
   2   3  12  -10.90   10.00
  -3  -3 -12   25.90   12.30
   3   3  12   18.50   12.40
  -4  -3 -12  -11.20   11.60
   4   3  12    9.40   13.90
  -5  -3 -12   13.30   15.00
   5   3  12   14.50   16.50
   3  -4 -12   28.90   15.90
   3  -4 -12   41.90   15.40
  -3   4  12   -8.40   13.40
   2  -4 -12   16.20   14.60
   2  -4 -12    2.70   11.00
  -2   4  12    4.70    9.70
  -2   4  12   -9.50   12.20
   1  -4 -12    3.20   11.30
   1  -4 -12   10.90   10.00
  -1   4  12   -7.00    9.20
   0  -4 -12  -10.10    8.90
   0  -4 -12    4.10   10.30
   0   4  12   -2.40   10.60
  -1  -4 -12    8.90   11.10
  -2  -4 -12   24.30   12.70
   2   4  12   48.30   12.50
  -3  -4 -12   -1.40   12.50
   3   4  12    2.40   12.60
  -4  -4 -12   -3.50   14.40
   4   4  12  -14.30   13.60
   3  -5 -12   30.30   16.20
  -3   5  12   64.39   17.30
   2  -5 -12  -17.20   10.30
   2  -5 -12   -0.70   12.90
  -2   5  12    3.00   12.50
   1  -5 -12   14.20   12.20
   1  -5 -12    4.80   12.80
  -1   5  12   -1.20    9.00
   0  -5 -12   13.40   11.40
   0   5  12   -1.70    9.70
  -1  -5 -12    3.20   11.90
   1   5  12   -2.80   10.10
  -2  -5 -12   38.40   14.10
   2   5  12   -5.10   10.90
  -3  -5 -12  -19.10   12.60
   3   5  12   -7.10   12.70
  -4  -5 -12  -16.20   13.50
   4   5  12   10.10   15.40
   2  -6 -12   16.20   13.70
   2  -6 -12  -10.80   16.90
  -2   6  12   11.10   15.80
   1  -6 -12  -22.90   10.80
  -1   6  12   -0.30   13.50
   0  -6 -12  -14.40   11.50
   0   6  12   20.40   11.40
  -1  -6 -12   25.90   13.70
   1   6  12   20.10   11.80
  -2  -6 -12   12.30   14.60
   2   6  12    6.40   12.00
  -3  -6 -12  -28.40   14.50
   3   6  12   19.40   15.20
   0  -7 -12  -28.40   12.90
   0   7  12   10.50   14.90
  -1  -7 -12   33.00   14.80
   0   5 -13    1.40   14.00
   0  -5  13   43.70   21.10
   2   4 -13  -13.90   14.60
   2   4 -13  -10.70   15.80
  -2  -4  13   -2.10   19.40
   1   4 -13  -21.80   12.40
   1   4 -13   -4.20   16.30
  -1  -4  13   -7.90   16.90
   0   4 -13   -8.20   11.40
   0  -4  13    8.70   16.90
  -1   4 -13    1.40   10.70
   1  -4  13   31.20   20.00
  -2   4 -13    9.10   14.90
   2  -4  13    9.20   19.20
   2   3 -13   24.20   12.20
   2   3 -13   27.60    9.90
   2   3 -13    7.90   15.60
  -2  -3  13   -2.70   20.30
  -2  -3  13   16.00   11.30
   1   3 -13    9.90   11.40
   1   3 -13   24.90    8.80
   1   3 -13   -0.40   14.30
  -1  -3  13   25.20   17.40
   0   3 -13    9.60   13.70
   0   3 -13   15.40   14.50
   0   3 -13   22.80    8.40
   0  -3  13   38.20   16.70
  -1   3 -13   22.60   12.20
   1  -3  13   44.50   17.90
  -2   3 -13   -7.70   12.40
  -3   3 -13   41.40   14.20
   3  -3  13   38.30   18.60
   3   2 -13   29.80   17.70
  -3  -2  13   20.60   13.40
   2   2 -13   32.40   12.20
   2   2 -13   63.59   12.20
   2   2 -13   65.69   16.90
  -2  -2  13   35.00   12.10
   1   2 -13   -1.60   14.30
   1   2 -13   -3.10   10.00
   1   2 -13  -13.00    8.80
  -1  -2  13    3.00   16.80
   0   2 -13    6.50   11.40
   0   2 -13   31.20   11.10
   0  -2  13   42.40   15.50
  -1   2 -13    3.70    8.10
  -1   2 -13   26.40   11.80
   1  -2  13   24.00   14.20
  -2   2 -13    2.90   10.70
  -2   2 -13   13.30    9.00
   2  -2  13  -17.90   13.50
  -3   2 -13    1.80    9.90
  -3   2 -13   33.70   12.50
   3  -2  13   -5.30   14.90
   3  -2  13    2.50   14.70
  -4   2 -13   14.40   15.10
  -4   2 -13   39.40   14.90
   4  -2  13   -6.90   17.80
   3   1 -13   16.30   16.30
  -3  -1  13    5.80   12.40
   2   1 -13   36.70   11.10
   2   1 -13    3.90    8.70
   2   1 -13    5.80   13.70
  -2  -1  13   22.80   13.20
   1   1 -13   34.80   11.20
   1   1 -13   23.00   13.80
   1   1 -13   29.00    9.50
   0   1 -13   19.80    7.90
   0   1 -13   34.80   11.20
   0   1 -13   -0.30   10.40
   0  -1  13   22.50   12.80
  -1   1 -13   -5.40   10.60
  -1   1 -13    1.70    9.10
  -1   1 -13    1.90    7.60
   1  -1  13   -2.70   11.00
   1  -1  13   -1.20   13.80
  -2   1 -13    9.40   10.40
  -2   1 -13   -2.90    9.50
   2  -1  13   36.90   13.50
   2  -1  13   44.20   13.60
  -3   1 -13    0.30   10.40
  -3   1 -13   -2.30   10.80
   3  -1  13   20.80   15.40
  -4   1 -13    4.60   12.40
  -4   1 -13    3.90   12.20
   4  -1  13   -0.30   15.30
   3   0 -13   28.10   16.80
  -3   0  13   29.80   14.20
   2   0 -13   -1.30    8.30
   2   0 -13   13.20   10.00
   2   0 -13   -8.00   12.50
  -2   0  13   19.40   11.20
   1   0 -13   35.10    9.40
   1   0 -13   30.20   12.70
   1   0 -13   19.00   15.70
   0   0 -13   14.60    8.70
   0   0 -13    8.80    9.50
   0   0 -13    1.40    8.60
   0   0  13  -21.70   11.50
  -1   0 -13    8.40    8.70
  -1   0 -13   15.30    9.40
  -1   0 -13   22.30    9.40
   1   0  13    6.20   11.70
   1   0  13   30.30   11.50
  -2   0 -13   35.20   10.30
  -2   0 -13   27.30   11.00
  -2   0 -13   16.80   10.30
   2   0  13   14.80    9.60
   2   0  13   31.20   12.50
  -3   0 -13  -11.80    7.30
  -3   0 -13    0.40   10.30
   3   0  13   18.00   13.50
  -4   0 -13    1.20   10.80
  -4   0 -13    8.70   12.10
   4   0  13   33.60   15.50
   3  -1 -13   -9.30   15.80
   3  -1 -13   31.50   13.20
  -3   1  13    4.80   13.20
   2  -1 -13   34.20    9.30
   2  -1 -13   33.20   12.70
  -2   1  13   37.30   13.70
   1  -1 -13   10.50    9.70
   1  -1 -13    3.10    9.40
   1  -1 -13   10.00    8.30
  -1   1  13   29.60   10.20
  -1   1  13   11.90    9.80
   0  -1 -13   10.60    9.80
   0  -1 -13   -8.20    8.00
   0   1  13   17.60   10.50
  -1  -1 -13   10.30    8.60
  -1  -1 -13    4.30   16.90
   1   1  13    4.10   11.40
  -2  -1 -13    1.30    9.60
   2   1  13   -4.40   11.90
  -3  -1 -13   13.10   11.90
   3   1  13   -9.10   13.00
  -4  -1 -13   -8.80   12.40
   4   1  13   13.20   14.80
   3  -2 -13   -1.60   15.20
   3  -2 -13   20.20   13.50
  -3   2  13   48.50   15.80
   2  -2 -13   35.10    9.30
   2  -2 -13   17.20   12.30
   2  -2 -13   32.20   12.50
  -2   2  13   18.30   11.00
  -2   2  13    7.60   12.00
   1  -2 -13    2.30    9.20
   1  -2 -13    0.70   11.80
  -1   2  13    8.00   10.60
   0  -2 -13   26.40   10.70
   0  -2 -13   19.00    9.90
   0   2  13   31.70   12.50
  -1  -2 -13   25.20   10.30
   1   2  13   26.20   11.10
  -2  -2 -13   12.80   11.80
   2   2  13   10.00   11.60
  -3  -2 -13   -3.60   11.00
   3   2  13   16.50   13.30
  -4  -2 -13   -5.10   12.30
   4   2  13   24.20   15.00
   3  -3 -13   40.70   18.80
   3  -3 -13   32.00   13.90
  -3   3  13   31.20   15.30
   2  -3 -13  -10.20   14.20
   2  -3 -13  -16.90   11.00
  -2   3  13   -5.30   12.30
   1  -3 -13  -13.90   10.70
   1  -3 -13    2.90    9.60
  -1   3  13   -4.60    9.90
   0  -3 -13    6.50    9.80
   0  -3 -13   -8.70    9.50
   0   3  13   13.80   10.00
  -1  -3 -13   -6.30    9.90
   1   3  13   -9.80   10.10
  -2  -3 -13   20.90   12.30
   2   3  13   40.00   13.00
  -3  -3 -13    3.30   13.50
   3   3  13   19.90   12.70
  -4  -3 -13    3.00   15.00
   4   3  13   41.50   12.90
   2  -4 -13    1.40   25.20
   2  -4 -13   10.40   11.70
  -2   4  13    0.50   12.80
   1  -4 -13   23.40   13.40
   1  -4 -13   46.40   12.60
  -1   4  13   38.60   11.80
   0  -4 -13   12.30   11.10
  -1  -4 -13   -7.70   12.00
   1   4  13   17.20   11.50
  -2  -4 -13    8.80   13.20
   2   4  13   52.89   14.10
  -3  -4 -13   -1.00   14.20
   3   4  13   -0.70   10.60
  -4  -4 -13   12.00   15.40
   4   4  13   10.30   16.30
   2  -5 -13   -2.80   16.80
   2  -5 -13    5.10   12.70
  -2   5  13   20.60   14.40
   1  -5 -13    0.50   12.10
  -1   5  13    3.00   11.00
   0  -5 -13  -12.20   11.90
   0   5  13   12.10   13.50
  -1  -5 -13   10.10   13.40
   1   5  13   -3.20   12.20
  -2  -5 -13  -20.10   12.60
   2   5  13    2.30    9.80
  -3  -5 -13   -6.50   13.90
   3   5  13   15.60   15.10
   0  -6 -13  -13.50   13.40
   0   6  13  -13.40   11.80
  -1  -6 -13    7.90   14.10
   1   6  13   -6.20   13.10
  -2  -6 -13   24.20   16.60
   2   6  13    8.80   13.70
   1   3 -14  -25.40   12.60
   1   3 -14   36.40   19.00
  -1  -3  14    0.00   18.30
   0   3 -14   -0.50   16.10
   0   3 -14   58.09   15.20
   0  -3  14   44.40   21.30
  -1   3 -14   19.40   13.60
   1  -3  14   17.60   19.40
  -2   3 -14  -10.20   13.10
   2  -3  14  -27.60   19.20
   2   2 -14  -20.40   10.90
   2   2 -14    3.30   17.70
   2   2 -14   -0.40   10.60
  -2  -2  14   -8.50   12.00
   1   2 -14   24.70   15.30
   1   2 -14   16.30    9.70
   1   2 -14   -5.30   11.60
  -1  -2  14    9.10   17.80
   0   2 -14   13.10   12.80
   0   2 -14   -7.90   11.60
   0   2 -14   -7.30    9.10
   0  -2  14   21.60   17.00
  -1   2 -14   19.40    9.30
  -1   2 -14    3.30   12.10
   1  -2  14   21.20   16.90
  -2   2 -14   18.50   13.40
  -2   2 -14    3.20   10.50
   2  -2  14   42.20   16.80
  -3   2 -14   11.50   13.80
   2   1 -14    7.30   11.10
   2   1 -14    0.10   10.60
   2   1 -14  -13.70   13.60
  -2  -1  14    6.80   11.90
   1   1 -14   53.99   11.90
   1   1 -14   71.29   15.50
   1   1 -14   53.29   12.10
   0   1 -14   -5.50   10.90
   0   1 -14   -8.90    8.90
   0   1 -14    7.70   11.70
   0  -1  14   20.80   14.70
  -1   1 -14   44.30   13.00
  -1   1 -14    4.70   10.30
  -1   1 -14   30.60   12.30
   1  -1  14    6.60   15.10
   1  -1  14   42.60   14.40
  -2   1 -14   12.30    9.10
  -2   1 -14    8.50   17.90
   2  -1  14   18.80   14.90
   2  -1  14    8.50   14.60
  -3   1 -14   -2.70   11.90
   3  -1  14    0.60   15.90
   2   0 -14   13.20   13.60
   2   0 -14   21.50   12.80
   2   0 -14   -1.20   11.80
  -2   0  14    9.30   13.40
   1   0 -14   13.60    9.70
   1   0 -14    9.80    9.90
   0   0 -14   -3.70   12.00
   0   0 -14   -3.80   11.00
   0   0 -14   -6.90    9.40
   0   0  14   12.90   13.90
  -1   0 -14   44.50   11.40
  -1   0 -14   13.30   11.50
  -1   0 -14   11.50   11.20
   1   0  14   -0.50   12.80
  -2   0 -14   13.00   11.20
  -2   0 -14   14.30   10.90
   2   0  14   17.00   13.60
  -3   0 -14   10.10    9.60
  -3   0 -14  -28.30   12.10
   3   0  14   12.30   15.60
   2  -1 -14   78.49   14.70
  -2   1  14   67.09   17.10
   1  -1 -14  -10.10   12.10
   1  -1 -14   -7.10   10.90
   1  -1 -14   16.50   10.80
  -1   1  14   -8.70   11.80
   0  -1 -14   26.00   11.00
   0  -1 -14   23.10    9.50
   0  -1 -14   28.10   11.80
   0   1  14   37.80   12.60
  -1  -1 -14   -5.00   11.00
  -1  -1 -14   15.10   10.40
   1   1  14   25.20   12.20
  -2  -1 -14   17.10   11.40
   2   1  14   15.60   13.60
  -3  -1 -14   38.00   15.10
   3   1  14   -0.80   14.50
   2  -2 -14   15.10   14.40
   2  -2 -14    2.50   12.20
  -2   2  14   19.20   13.20
   1  -2 -14    1.20   12.90
   1  -2 -14   -1.40   11.20
   1  -2 -14    9.20   10.00
  -1   2  14   15.10   12.70
   0  -2 -14   19.90   10.70
   0  -2 -14    7.80   18.00
   0   2  14   -5.60   13.40
  -1  -2 -14    1.60   11.00
   1   2  14   13.10   12.40
  -2  -2 -14    9.00   12.60
   2   2  14   -3.70   13.50
  -3  -2 -14   -9.30   15.30
   3   2  14   20.80   11.50
   2  -3 -14  -16.70   15.30
   2  -3 -14    0.40   12.40
  -2   3  14  -11.00   14.60
   1  -3 -14    1.90   13.40
   1  -3 -14  -22.40   11.00
  -1   3  14    0.00   12.60
   0  -3 -14   17.00   11.90
   0   3  14    1.40   13.10
  -1  -3 -14    2.80   12.30
   1   3  14   -6.90   11.90
  -2  -3 -14   28.50   15.30
   2   3  14   12.20   12.50
  -3  -3 -14  -22.80   15.20
   3   3  14    8.70   14.30
   1  -4 -14   17.80   13.10
   0  -4 -14  -20.80   12.50
   0   4  14   21.30   12.50
  -1  -4 -14   30.70   13.90
   1   4  14  -17.10   14.00
  -2  -4 -14   37.00   14.00
   2   4  14  -14.10   13.50
   0  -5 -14   -0.20   12.00
   0   5  14    8.00   13.30
  -1  -5 -14    7.20   14.70
   1   5  14   13.70   14.70
   1   1 -15  -20.10   13.30
   1   1 -15   18.60   11.70
   1   1 -15    0.00   15.50
   0   1 -15  -20.70   10.60
   0   1 -15   14.90   13.70
   0   1 -15   -1.50   12.10
  -1   1 -15   19.60   11.60
  -1   1 -15    7.80   12.20
  -1   1 -15  -26.80   16.00
   1  -1  15   -6.80   15.90
  -2   1 -15   -7.20   12.00
  -2   1 -15   -0.50   12.90
   1   0 -15    5.40   15.40
   1   0 -15   10.50   12.60
   1   0 -15  -18.20   10.30
   0   0 -15   18.60   12.80
   0   0 -15    2.20   13.20
   0   0 -15    4.40   11.20
   0   0  15   22.70   14.40
  -1   0 -15   11.30   11.50
  -1   0 -15   12.60   11.80
   1   0  15    2.80   13.90
  -2   0 -15  -12.90   11.40
  -2   0 -15   40.90   13.50
   2   0  15   -2.20   14.80
   1  -1 -15    3.20   10.40
   1  -1 -15  -28.50   13.80
   1  -1 -15    8.10   13.30
  -1   1  15  -10.90   13.20
   0  -1 -15    7.50   13.10
   0  -1 -15   38.80   13.00
   0   1  15   -7.00   12.80
  -1  -1 -15   23.90   12.10
  -1  -1 -15   -5.00   12.90
   1   1  15   16.20   14.80
  -2  -1 -15   -2.50   11.40
  -2  -1 -15   28.40   14.80
   2   1  15   20.90   15.20
   1  -2 -15   27.40   11.80
   1  -2 -15   -3.30   13.90
  -1   2  15    3.90   12.40
   0  -2 -15   18.80   11.90
   0  -2 -15    6.90   12.30
   0   2  15   25.10   12.90
  -1  -2 -15  -11.40   13.00
   1   2  15  -20.00   15.20
  -2  -2 -15   19.10   13.90
   2   2  15   16.40   16.00
   0  -3 -15   15.30   13.20
   0   3  15    7.70   14.20
  -1  -3 -15  -10.10   13.00
   1   3  15   -3.90   14.30
   0   0   0    0.00    0.00

_computing_structure_solution     'SHELXT 2014/5 (Sheldrick, 2014)'
;
loop_
_space_group_symop_operation_xyz
'x, y, z'
'-x, -y, -z'
loop_
_atom_site_label
_atom_site_type_symbol
_atom_site_fract_x
_atom_site_fract_y
_atom_site_fract_z
_atom_site_U_iso_or_equiv
_atom_site_adp_type
_atom_site_occupancy
_atom_site_site_symmetry_order
_atom_site_calc_flag
_atom_site_refinement_flags_posn
_atom_site_refinement_flags_adp
_atom_site_refinement_flags_occupancy
_atom_site_disorder_assembly
_atom_site_disorder_group
Br1 Br 0.80364(7) 0.88181(6) 0.37022(4) 0.0516(2) Uani 1 1 d . . . . .
S1 S 0.1498(8) 0.7024(7) 0.1549(4) 0.098(2) Uani 0.418(7) 1 d . . P A 1
S1A S 0.2235(6) 0.6030(5) 0.0933(3) 0.1053(17) Uani 0.582(7) 1 d . . P A 2
O3 O 0.1045(10) 0.5372(6) 0.1930(4) 0.149(2) Uani 1 1 d . . . . .
N1 N 0.6809(8) 0.8227(6) 0.7922(4) 0.0699(13) Uani 1 1 d . . . . .
O1 O 0.3997(5) 0.7028(4) 0.3952(2) 0.0489(8) Uani 1 1 d . . . . .
H1 H 0.297260 0.643909 0.401273 0.073 Uiso 1 1 calc R U . . .
N2 N 0.0921(5) 0.5454(4) 0.4953(3) 0.0393(9) Uani 1 1 d . . . . .
O2 O 0.5654(7) 0.7917(6) 0.8726(3) 0.1033(15) Uani 1 1 d . . . . .
O4 O 0.8570(7) 0.8809(5) 0.7921(3) 0.1037(15) Uani 1 1 d . . . . .
C1 C 0.6473(7) 0.8123(5) 0.4991(4) 0.0378(11) Uani 1 1 d . . . . .
C2 C 0.4607(6) 0.7271(5) 0.4921(3) 0.0338(10) Uani 1 1 d . . . . .
C3 C 0.3478(6) 0.6703(5) 0.5883(3) 0.0363(11) Uani 1 1 d . . . . .
C4 C 0.4199(7) 0.7021(5) 0.6864(4) 0.0428(11) Uani 1 1 d . . . . .
H4 H 0.344511 0.666738 0.750255 0.051 Uiso 1 1 calc R U . . .
C5 C 0.6048(7) 0.7866(5) 0.6891(4) 0.0453(12) Uani 1 1 d . . . . .
C6 C 0.7191(7) 0.8418(5) 0.5959(4) 0.0427(12) Uani 1 1 d . . . . .
H6 H 0.843601 0.898375 0.599224 0.051 Uiso 1 1 calc R U . . .
C7 C 0.1569(6) 0.5777(5) 0.5845(4) 0.0388(11) Uani 1 1 d . . . . .
H7 H 0.081932 0.541919 0.648422 0.047 Uiso 1 1 calc R U . . .
C9 C 0.0650(12) 0.7526(11) 0.0366(7) 0.170(4) Uani 1 1 d . . . . .
H9A H 0.110755 0.669922 -0.010857 0.255 Uiso 1 1 calc R U . A 1
H9B H 0.125301 0.851714 0.008777 0.255 Uiso 1 1 calc R U . A 1
H9C H -0.091628 0.766109 0.041511 0.255 Uiso 1 1 calc R U . A 1
C10 C 0.4294(12) 0.7151(10) 0.1345(5) 0.143(3) Uani 1 1 d . . . . .
H10A H 0.490694 0.724014 0.202445 0.215 Uiso 1 1 calc R U . A 1
H10B H 0.460538 0.808077 0.087158 0.215 Uiso 1 1 calc R U . A 1
H10C H 0.492417 0.620443 0.102721 0.215 Uiso 1 1 calc R U . A 1
loop_
_atom_site_aniso_label
_atom_site_aniso_U_11
_atom_site_aniso_U_22
_atom_site_aniso_U_33
_atom_site_aniso_U_23
_atom_site_aniso_U_13
_atom_site_aniso_U_12
Br1 0.0417(3) 0.0565(4) 0.0557(4) 0.0063(2) 0.0049(2) -0.0163(2)
S1 0.104(4) 0.110(5) 0.074(3) 0.005(3) 0.028(3) 0.003(3)
S1A 0.137(3) 0.094(3) 0.075(3) 0.012(2) 0.032(2) 0.010(2)
O3 0.182(5) 0.131(4) 0.116(4) 0.044(3) 0.058(4) -0.008(4)
N1 0.075(3) 0.090(4) 0.049(3) -0.003(3) -0.008(3) -0.033(3)
O1 0.0402(19) 0.061(2) 0.047(2) 0.0002(16) -0.0013(15) -0.0240(15)
N2 0.027(2) 0.038(2) 0.052(2) 0.0017(19) -0.0009(19) -0.0075(15)
O2 0.108(3) 0.163(4) 0.045(3) -0.018(3) 0.005(2) -0.052(3)
O4 0.105(3) 0.147(4) 0.070(3) 0.001(3) -0.024(2) -0.077(3)
C1 0.034(3) 0.035(3) 0.044(3) -0.003(2) 0.000(2) -0.006(2)
C2 0.034(3) 0.030(3) 0.037(3) -0.002(2) -0.003(2) -0.002(2)
C3 0.031(2) 0.031(3) 0.046(3) 0.003(2) 0.002(2) -0.0055(19)
C4 0.041(3) 0.045(3) 0.041(3) 0.003(2) 0.000(2) -0.003(2)
C5 0.041(3) 0.052(3) 0.045(3) -0.008(2) -0.007(2) -0.009(2)
C6 0.033(3) 0.039(3) 0.057(3) -0.006(2) -0.002(2) -0.010(2)
C7 0.031(3) 0.035(3) 0.048(3) 0.005(2) 0.006(2) -0.004(2)
C9 0.106(6) 0.226(10) 0.171(9) 0.073(7) -0.040(6) -0.026(6)
C10 0.146(7) 0.210(9) 0.080(6) 0.007(5) -0.029(5) -0.057(7)
loop_
_atom_type_symbol
_atom_type_description
_atom_type_scat_dispersion_real
_atom_type_scat_dispersion_imag
_atom_type_scat_source
C C 0.0033 0.0016 'International Tables Vol C Tables 4.2.6.8 and 6.1.1.4'
H H 0.0000 0.0000 'International Tables Vol C Tables 4.2.6.8 and 6.1.1.4'
N N 0.0061 0.0033 'International Tables Vol C Tables 4.2.6.8 and 6.1.1.4'
O O 0.0106 0.0060 'International Tables Vol C Tables 4.2.6.8 and 6.1.1.4'
S S 0.1246 0.1234 'International Tables Vol C Tables 4.2.6.8 and 6.1.1.4'
Br Br -0.2901 2.4595 'International Tables Vol C Tables 4.2.6.8 and 6.1.1.4'
loop_
_geom_angle_atom_site_label_1
_geom_angle_atom_site_label_2
_geom_angle_atom_site_label_3
_geom_angle
_geom_angle_site_symmetry_1
_geom_angle_site_symmetry_3
O3 S1 C9 112.7(5) . .
O3 S1 C10 108.6(5) . .
C9 S1 C10 103.0(4) . .
O3 S1A C9 108.2(4) . .
O3 S1A C10 106.6(4) . .
C9 S1A C10 99.4(4) . .
O2 N1 O4 124.1(5) . .
O2 N1 C5 117.8(4) . .
O4 N1 C5 118.1(4) . .
C2 O1 H1 109.5 . .
C7 N2 N2 114.0(4) . 2_566
C6 C1 C2 121.5(4) . .
C6 C1 Br1 120.0(3) . .
C2 C1 Br1 118.4(3) . .
O1 C2 C1 118.4(4) . .
O1 C2 C3 123.1(4) . .
C1 C2 C3 118.5(4) . .
C4 C3 C2 119.7(4) . .
C4 C3 C7 120.0(4) . .
C2 C3 C7 120.2(4) . .
C3 C4 C5 119.6(4) . .
C3 C4 H4 120.2 . .
C5 C4 H4 120.2 . .
C6 C5 C4 121.6(4) . .
C6 C5 N1 118.3(4) . .
C4 C5 N1 120.1(4) . .
C1 C6 C5 119.0(4) . .
C1 C6 H6 120.5 . .
C5 C6 H6 120.5 . .
N2 C7 C3 120.5(4) . .
N2 C7 H7 119.7 . .
C3 C7 H7 119.7 . .
S1 C9 H9A 109.5 . .
S1 C9 H9B 109.5 . .
H9A C9 H9B 109.5 . .
S1 C9 H9C 109.5 . .
H9A C9 H9C 109.5 . .
H9B C9 H9C 109.5 . .
S1 C10 H10A 109.5 . .
S1 C10 H10B 109.5 . .
H10A C10 H10B 109.5 . .
S1 C10 H10C 109.5 . .
H10A C10 H10C 109.5 . .
H10B C10 H10C 109.5 . .
loop_
_geom_bond_atom_site_label_1
_geom_bond_atom_site_label_2
_geom_bond_distance
_geom_bond_site_symmetry_2
Br1 C1 1.884(4) .
S1 O3 1.463(7) .
S1 C9 1.614(8) .
S1 C10 1.728(8) .
S1A O3 1.483(5) .
S1A C9 1.679(8) .
S1A C10 1.751(8) .
N1 O2 1.207(5) .
N1 O4 1.215(5) .
N1 C5 1.457(6) .
O1 C2 1.323(5) .
O1 H1 0.8200 .
N2 C7 1.261(5) .
N2 N2 1.396(6) 2_566
C1 C6 1.359(6) .
C1 C2 1.400(5) .
C2 C3 1.408(5) .
C3 C4 1.380(6) .
C3 C7 1.452(6) .
C4 C5 1.380(6) .
C4 H4 0.9300 .
C5 C6 1.378(6) .
C6 H6 0.9300 .
C7 H7 0.9300 .
C9 H9A 0.9600 .
C9 H9B 0.9600 .
C9 H9C 0.9600 .
C10 H10A 0.9600 .
C10 H10B 0.9600 .
C10 H10C 0.9600 .
loop_
_geom_hbond_atom_site_label_D
_geom_hbond_atom_site_label_H
_geom_hbond_atom_site_label_A
_geom_hbond_distance_DH
_geom_hbond_distance_HA
_geom_hbond_distance_DA
_geom_hbond_angle_DHA
_geom_hbond_site_symmetry_A
C10 H10A O1 0.96 2.42 3.234(7) 142.1 .
C7 H7 O3 0.93 2.29 3.217(6) 178.0 2_566
C6 H6 Br1 0.93 2.99 3.915(4) 170.7 2_776
O1 H1 N2 0.82 1.85 2.569(4) 145.8 .
loop_
_geom_torsion_atom_site_label_1
_geom_torsion_atom_site_label_2
_geom_torsion_atom_site_label_3
_geom_torsion_atom_site_label_4
_geom_torsion
_geom_torsion_site_symmetry_1
_geom_torsion_site_symmetry_2
_geom_torsion_site_symmetry_3
_geom_torsion_site_symmetry_4
C6 C1 C2 O1 179.9(4) . . . .
Br1 C1 C2 O1 -1.6(5) . . . .
C6 C1 C2 C3 -0.6(6) . . . .
Br1 C1 C2 C3 177.9(3) . . . .
O1 C2 C3 C4 -179.3(4) . . . .
C1 C2 C3 C4 1.2(6) . . . .
O1 C2 C3 C7 1.2(6) . . . .
C1 C2 C3 C7 -178.3(4) . . . .
C2 C3 C4 C5 -1.2(6) . . . .
C7 C3 C4 C5 178.3(4) . . . .
C3 C4 C5 C6 0.6(7) . . . .
C3 C4 C5 N1 179.2(4) . . . .
O2 N1 C5 C6 171.0(5) . . . .
O4 N1 C5 C6 -9.6(7) . . . .
O2 N1 C5 C4 -7.7(7) . . . .
O4 N1 C5 C4 171.7(5) . . . .
C2 C1 C6 C5 -0.1(6) . . . .
Br1 C1 C6 C5 -178.6(3) . . . .
C4 C5 C6 C1 0.1(7) . . . .
N1 C5 C6 C1 -178.5(4) . . . .
N2 N2 C7 C3 179.5(4) 2_566 . . .
C4 C3 C7 N2 -178.6(4) . . . .
C2 C3 C7 N2 0.9(6) . . . .
