#------------------------------------------------------------------------------
#$Date: 2022-03-09 11:07:24 +0200 (Wed, 09 Mar 2022) $
#$Revision: 273554 $
#$URL: file:///home/coder/svn-repositories/cod/cif/8/10/46/8104693.cif $
#------------------------------------------------------------------------------
#
# This file is available in the Crystallography Open Database (COD),
# http://www.crystallography.net/
#
# All data on this site have been placed in the public domain by the
# contributors.
#
data_8104693
loop_
_publ_author_name
'Hou, Siyu'
'Ren, Penggang'
'Zeng, Yan'
_publ_section_title
;
 The crystal structure of 3-amino-5-carboxypyridin-1-ium perchlorate
 monohydrate, C6H9ClN2O7
;
_journal_issue                   4
_journal_name_full
'Zeitschrift f\"ur Kristallographie - New Crystal Structures'
_journal_page_first              727
_journal_page_last               728
_journal_paper_doi               10.1515/ncrs-2021-0062
_journal_volume                  236
_journal_year                    2021
_chemical_formula_moiety         'C6 H7 N2 O2, Cl O4, H2 O'
_chemical_formula_sum            'C6 H9 Cl N2 O7'
_chemical_formula_weight         256.60
_space_group_crystal_system      triclinic
_space_group_IT_number           2
_space_group_name_Hall           '-P 1'
_space_group_name_H-M_alt        'P -1'
_atom_sites_solution_hydrogens   mixed
_cell_angle_alpha                74.237(2)
_cell_angle_beta                 81.603(3)
_cell_angle_gamma                88.888(3)
_cell_formula_units_Z            2
_cell_length_a                   6.8667(4)
_cell_length_b                   7.5196(4)
_cell_length_c                   10.0908(5)
_cell_measurement_reflns_used    2562
_cell_measurement_temperature    150(2)
_cell_measurement_theta_max      25.90
_cell_measurement_theta_min      2.82
_cell_volume                     495.95(5)
_computing_cell_refinement       'SAINT v8.37A (Bruker, 2015)'
_computing_data_collection       'Bruker APEX-II'
_computing_data_reduction        'SAINT v8.37A (Bruker, 2015)'
_computing_molecular_graphics    'Olex2 1.3 (Dolomanov et al., 2009)'
_computing_publication_material  'Olex2 1.3 (Dolomanov et al., 2009)'
_computing_structure_refinement  'SHELXL 2018/3 (Sheldrick, 2015)'
_computing_structure_solution    'SHELXT 2018/2 (Sheldrick, 2018)'
_diffrn_ambient_temperature      150.0
_diffrn_measured_fraction_theta_full 0.999
_diffrn_measured_fraction_theta_max 0.998
_diffrn_measurement_device_type  'Bruker APEX-II CCD'
_diffrn_measurement_method       '\f and \w scans'
_diffrn_radiation_type           MoK\a
_diffrn_radiation_wavelength     0.71073
_diffrn_reflns_av_R_equivalents  0.0723
_diffrn_reflns_av_unetI/netI     0.0426
_diffrn_reflns_Laue_measured_fraction_full 0.999
_diffrn_reflns_Laue_measured_fraction_max 0.998
_diffrn_reflns_limit_h_max       8
_diffrn_reflns_limit_h_min       -8
_diffrn_reflns_limit_k_max       9
_diffrn_reflns_limit_k_min       -9
_diffrn_reflns_limit_l_max       12
_diffrn_reflns_limit_l_min       -12
_diffrn_reflns_number            12649
_diffrn_reflns_point_group_measured_fraction_full 0.999
_diffrn_reflns_point_group_measured_fraction_max 0.998
_diffrn_reflns_theta_full        25.242
_diffrn_reflns_theta_max         26.428
_diffrn_reflns_theta_min         2.120
_diffrn_source_current           30.0
_diffrn_source_power             1.5
_diffrn_source_voltage           50.0
_diffrn_standards_number         0
_exptl_absorpt_coefficient_mu    0.411
_exptl_absorpt_correction_T_max  0.7454
_exptl_absorpt_correction_T_min  0.7155
_exptl_absorpt_correction_type   none
_exptl_absorpt_process_details
;
SADABS-2016/2 (Bruker,2016/2) was used for absorption correction.
wR2(int) was 0.0661 before and 0.0608 after correction.
The Ratio of minimum to maximum transmission is 0.9599.
The \l/2 correction factor is Not present.
;
_exptl_crystal_density_diffrn    1.718
_exptl_crystal_F_000             264
_exptl_crystal_size_max          0.2
_exptl_crystal_size_mid          0.15
_exptl_crystal_size_min          0.1
_refine_diff_density_max         0.275
_refine_diff_density_min         -0.439
_refine_diff_density_rms         0.065
_refine_ls_extinction_coef       .
_refine_ls_extinction_method     none
_refine_ls_goodness_of_fit_ref   1.070
_refine_ls_hydrogen_treatment    constr
_refine_ls_matrix_type           full
_refine_ls_number_parameters     149
_refine_ls_number_reflns         2054
_refine_ls_number_restraints     0
_refine_ls_restrained_S_all      1.070
_refine_ls_R_factor_all          0.0564
_refine_ls_R_factor_gt           0.0377
_refine_ls_shift/su_max          0.000
_refine_ls_shift/su_mean         0.000
_refine_ls_structure_factor_coef Fsqd
_refine_ls_weighting_details
'w=1/[\s^2^(Fo^2^)+(0.0365P)^2^+0.2489P] where P=(Fo^2^+2Fc^2^)/3'
_refine_ls_weighting_scheme      calc
_refine_ls_wR_factor_gt          0.0823
_refine_ls_wR_factor_ref         0.0902
_reflns_Friedel_coverage         0.000
_reflns_Friedel_fraction_full    .
_reflns_Friedel_fraction_max     .
_reflns_number_gt                1609
_reflns_number_total             2054
_reflns_threshold_expression     'I > 2\s(I)'
_cod_data_source_file            suppl_j_ncrs-2021-0062_suppl.cif
_cod_data_source_block           1
_cod_database_code               8104693
_shelx_space_group_comment
;
The symmetry employed for this shelxl refinement is uniquely defined
by the following loop, which should always be used as a source of
symmetry information in preference to the above space-group names.
They are only intended as comments.
;
_shelx_estimated_absorpt_t_max   0.960
_shelx_estimated_absorpt_t_min   0.922
_olex2_refinement_description
;
1. Fixed Uiso
 At 1.2 times of:
  All C(H) groups, All N(H) groups, All N(H,H) groups
 At 1.5 times of:
  All O(H) groups, All O(H,H) groups
2.a Free rotating group:
 O1W(H1WA,H1WB)
2.b Aromatic/amide H refined with riding coordinates:
 C3(H3), C5(H5), C6(H6), N1(H1)
2.c X=CH2 refined with riding coordinates:
 N2(H2A,H2B)
2.d Idealised tetrahedral OH refined as rotating group:
 O2(H2)
;
_shelx_res_file
;
TITL 1.res in P-1
    1.res
    created by SHELXL-2018/3 at 19:25:28 on 20-Jan-2021
CELL 0.71073 6.8667 7.5196 10.0908 74.237 81.603 88.888
ZERR 2 0.0004 0.0004 0.0005 0.002 0.003 0.003
LATT 1
SFAC C H Cl O N
UNIT 12 18 2 14 4

L.S. 10
PLAN  5
SIZE 0.2 0.15 0.1
TEMP -123.15
CONF
BOND $H
MORE -1
fmap 2
acta
REM <olex2.extras>
REM <HklSrc "%.\\1.hkl">
REM </olex2.extras>

WGHT    0.036500    0.248900
FVAR       1.26373
C1    1    0.193766   -0.273938    0.684761    11.00000    0.02132    0.01821 =
         0.02040   -0.00502   -0.00221   -0.00111
C2    1    0.213912   -0.070380    0.616792    11.00000    0.01836    0.01469 =
         0.01931   -0.00633   -0.00332    0.00106
C3    1    0.266677   -0.009138    0.473956    11.00000    0.02067    0.01550 =
         0.01975   -0.00684   -0.00432    0.00199
AFIX  43
H3    2    0.286515   -0.096305    0.420772    11.00000   -1.20000
AFIX   0
C4    1    0.291211    0.180375    0.406781    11.00000    0.01964    0.02059 =
         0.01992   -0.00704   -0.00580    0.00319
C5    1    0.258966    0.301559    0.490864    11.00000    0.02470    0.01351 =
         0.02304   -0.00361   -0.00461    0.00210
AFIX  43
H5    2    0.272691    0.431174    0.450083    11.00000   -1.20000
AFIX   0
C6    1    0.185516    0.055667    0.695618    11.00000    0.02337    0.01800 =
         0.01821   -0.00484   -0.00226    0.00161
AFIX  43
H6    2    0.150678    0.015737    0.793892    11.00000   -1.20000
AFIX   0

CL1   3    0.686966    0.213735    0.870458    11.00000    0.02102    0.01764 =
         0.02047   -0.00428   -0.00314    0.00192
N1    5    0.208895    0.235307    0.628442    11.00000    0.02879    0.01495 =
         0.02238   -0.00953   -0.00282    0.00237
AFIX  43
H1    2    0.190000    0.315350    0.678280    11.00000   -1.20000
AFIX   0
N2    5    0.348438    0.244547    0.267639    11.00000    0.05263    0.01790 =
         0.01782   -0.00358   -0.00189    0.00282
AFIX  93
H2A   2    0.365850    0.364063    0.228915    11.00000   -1.20000
H2B   2    0.368185    0.166698    0.216015    11.00000   -1.20000
AFIX   0
O1    4    0.235129   -0.385739    0.618643    11.00000    0.06050    0.01487 =
         0.02138   -0.00801    0.00096   -0.00160
O2    4    0.129971   -0.315558    0.818551    11.00000    0.03997    0.01564 =
         0.01921   -0.00432    0.00368    0.00006
AFIX 147
H2    2    0.137636   -0.430011    0.853099    11.00000   -1.50000
AFIX   0

O3    4    0.558976    0.104067    0.822169    11.00000    0.03087    0.03815 =
         0.04014   -0.02466   -0.00914   -0.00034
O4    4    0.798595    0.342230    0.753253    11.00000    0.03320    0.03770 =
         0.04193    0.02093   -0.00119   -0.00203
O5    4    0.569379    0.315174    0.953934    11.00000    0.03564    0.04174 =
         0.04620   -0.03252   -0.01314    0.01765
O6    4    0.820071    0.095744    0.950929    11.00000    0.02561    0.01970 =
         0.02377    0.00104   -0.00556    0.00555
AFIX   6
O1W   4    0.169097    0.329186    0.907051    11.00000    0.02199    0.01928 =
         0.02629   -0.00074   -0.00242   -0.00057
H1WA  2    0.276046    0.300689    0.944213    11.00000   -1.50000
H1WB  2    0.083147    0.244687    0.956493    11.00000   -1.50000
AFIX   0
HKLF 4




REM  1.res in P-1
REM wR2 = 0.0902, GooF = S = 1.070, Restrained GooF = 1.070 for all data
REM R1 = 0.0377 for 1609 Fo > 4sig(Fo) and 0.0564 for all 2054 data
REM 149 parameters refined using 0 restraints

END

WGHT      0.0365      0.2489

REM Highest difference peak  0.275,  deepest hole -0.439,  1-sigma level  0.065
Q1    1   0.2114 -0.0152  0.6619  11.00000  0.05    0.28
Q2    1   0.1580 -0.0304  0.6585  11.00000  0.05    0.27
Q3    1   0.2386 -0.1626  0.6565  11.00000  0.05    0.26
Q4    1   0.1912  0.1400  0.6528  11.00000  0.05    0.24
Q5    1   0.0662 -0.3746  0.6244  11.00000  0.05    0.23
;
_shelx_hkl_file
;
  -1   0   0   96.29    6.80
  -1   0   0   87.49    8.50
   1   0   0  106.29    9.10
   1   0   0   88.29    4.40
   1   0   0   82.19    6.40
  -3   0   0 1278.47   50.29
  -3   0   0 1463.65   31.30
  -3   0   0 1335.77   49.60
   3   0   0 1486.35   52.69
   3   0   0 1396.86   30.30
  -4   0   0  110.59    9.00
  -4   0   0  106.89   16.00
  -4   0   0   96.39   18.60
  -4   0   0   82.29   16.10
   4   0   0   80.89   17.00
   4   0   0  146.29   21.20
   4   0   0  105.29    8.60
  -5   0   0  121.79   24.00
  -5   0   0  153.48   20.80
  -5   0   0  115.59   23.70
   5   0   0  122.19   23.90
   5   0   0  109.59   21.20
  -6   0   0  180.88   25.40
  -6   0   0  171.88   33.00
   6   0   0  128.39   27.50
   6   0   0  159.68   34.80
  -7   0   0   54.59   23.50
  -7   0   0   39.50   16.80
   7   0   0   29.50   18.20
   7   0   0    9.60   14.20
   7   0   0   12.20   19.20
  -8   0   0  448.46   41.00
  -8   0   0  281.77   54.99
  -8   0   0  315.77   54.89
  -8   0   0  354.56   40.70
   8   0   0  402.66   53.59
   8   0   0  405.76   57.59
   8   0   0  391.96   50.29
   8  -1   0    3.80   22.00
   8  -1   0  -35.90   30.40
   8  -1   0   32.50   20.70
  -8   1   0  -37.20   20.50
  -8   1   0   37.70   27.40
   7  -1   0   94.49   30.40
   7  -1   0   76.69   23.70
  -7   1   0  100.99   29.40
  -7   1   0  102.69   11.70
  -7   1   0  135.79   31.80
  -7   1   0  114.59   25.50
   6  -1   0  174.08   11.50
   6  -1   0  154.78   34.60
   6  -1   0  192.68   30.60
  -6   1   0  189.88   32.80
  -6   1   0  238.28   35.50
  -6   1   0  206.58   28.70
  -6   1   0  194.78   15.50
   5  -1   0    9.40   10.50
   5  -1   0   -0.40   11.60
  -5   1   0   -5.80    6.90
  -5   1   0   -7.40   10.30
  -5   1   0   -3.10    4.60
   4  -1   0  183.18   23.80
   4  -1   0  210.28   27.00
  -4   1   0  202.08   21.40
  -4   1   0  178.08   14.00
  -4   1   0  198.98   25.90
   3  -1   0   54.49   13.00
   3  -1   0   44.80   11.90
  -3   1   0   55.99   13.30
  -3   1   0   57.79    8.60
  -3   1   0   58.09   13.30
   2  -1   0   41.20    9.70
   2  -1   0   36.20   10.20
  -2   1   0   43.80   10.00
  -2   1   0   34.50   10.70
  -2   1   0   33.00    9.90
  -2   1   0   44.00    7.00
   1  -1   0 2279.27   44.50
   1  -1   0 2295.07   48.20
  -1   1   0 2175.48   44.00
   0  -1   0  855.61   19.80
   0  -1   0  883.71   23.10
   0  -1   0  885.61   18.60
   0   1   0  874.71   22.80
   0   1   0  912.01   23.30
   0   1   0  853.51   23.20
   0   1   0  853.31   19.90
  -1  -1   0  504.35   22.00
  -1  -1   0  497.45   19.80
  -1  -1   0  536.25   17.90
  -1  -1   0  528.35   18.50
  -1  -1   0  478.35   19.30
  -1  -1   0  500.15   20.00
   1   1   0  502.75   12.70
   1   1   0  490.45   19.30
   1   1   0  489.65   19.30
   1   1   0  484.85   17.10
   1   1   0  494.35   17.90
   1   1   0  512.45   22.20
  -2  -1   0  201.38   15.50
  -2  -1   0  167.48   17.40
  -2  -1   0  203.78   20.20
  -2  -1   0  200.88   10.70
   2   1   0  191.68   10.60
   2   1   0  210.98   17.30
   2   1   0  195.18   18.10
   2   1   0  193.68   16.50
   2   1   0  187.68   11.30
  -3  -1   0  126.69   18.60
  -3  -1   0  152.08   21.00
  -3  -1   0  168.78   12.80
   3   1   0  173.78    9.90
   3   1   0  153.08   12.30
   3   1   0  118.89   18.00
   3   1   0  176.58   11.20
  -4  -1   0    0.70    5.00
  -4  -1   0   -3.10    8.00
  -4  -1   0   -3.00    9.10
   4   1   0    5.10    4.00
   4   1   0   -3.60    2.40
   4   1   0   25.20   11.60
  -5  -1   0   -9.20    6.50
  -5  -1   0    1.00    6.60
  -5  -1   0  -10.60   11.00
   5   1   0   -7.20    7.40
   5   1   0   -6.80    3.10
   5   1   0   -1.40    2.60
   5   1   0  -14.80    6.70
  -6  -1   0   64.39   17.00
  -6  -1   0   27.20   14.20
  -6  -1   0   54.99   24.20
  -6  -1   0   32.50   13.10
   6   1   0   36.00   17.80
   6   1   0   33.60   17.30
   6   1   0    7.30   15.20
  -7  -1   0  183.78   29.20
  -7  -1   0  191.68   37.30
  -7  -1   0  181.58   25.30
  -7  -1   0  169.48   36.80
   7   1   0   89.49   28.80
   7   1   0  156.08   31.30
   7   1   0  177.58   36.00
  -8  -1   0  118.19   31.80
  -8  -1   0   95.79   26.30
  -8  -1   0  127.39   34.30
  -8  -1   0  103.39   23.70
   8   1   0  109.19   32.20
   8   1   0   83.49   31.70
   8   1   0   76.59   31.40
   8  -2   0  122.99   31.70
   8  -2   0  121.39   34.60
  -8   2   0   97.59   31.10
  -8   2   0  100.09   19.80
  -8   2   0   71.19   34.00
  -8   2   0   74.49   29.40
   7  -2   0  129.19   13.20
   7  -2   0  138.89   31.40
   7  -2   0  115.19   31.30
  -7   2   0  146.99   31.10
  -7   2   0  146.09   17.90
  -7   2   0  116.79   32.70
   6  -2   0   48.90   19.30
   6  -2   0   61.99   21.80
  -6   2   0   64.99   23.30
  -6   2   0   54.99   12.30
  -6   2   0   -2.40   15.40
   5  -2   0  284.77   30.90
   5  -2   0  216.08   20.20
   5  -2   0  235.88   31.10
  -5   2   0  222.38   29.70
  -5   2   0  195.58   28.40
  -5   2   0  215.68   19.00
   4  -2   0   22.10   12.10
   4  -2   0   23.40   10.40
  -4   2   0   32.60    8.80
  -4   2   0   28.00   12.40
  -4   2   0   14.40   10.70
  -4   2   0   16.40   11.30
   3  -2   0  226.68   21.20
   3  -2   0  247.28   22.00
  -3   2   0  254.87   21.90
  -3   2   0  245.68   18.10
  -3   2   0  257.27   24.40
  -3   2   0  223.88   21.00
   2  -2   0 1640.74   46.60
   2  -2   0 1561.74   50.49
  -2   2   0 1686.73   52.49
  -2   2   0 1612.04   46.30
  -2   2   0 1499.75   53.09
  -2   2   0 1629.24   51.49
   1  -2   0  152.08   14.50
   1  -2   0  156.88   19.20
   1  -2   0  155.68   11.70
   1  -2   0  171.28   10.90
  -1   2   0  163.58   14.70
  -1   2   0  147.59   10.10
   0  -2   0 6718.73  106.09
   0  -2   0 6710.43  102.29
   0  -2   0 6725.13  116.59
   0  -2   0 6791.02  114.99
   0   2   0 6701.63  106.39
   0   2   0 6627.64  113.49
   0   2   0 6695.63  114.59
  -1  -2   0  192.08   11.30
  -1  -2   0  187.68   13.90
  -1  -2   0  182.58   14.40
  -1  -2   0  226.68   17.60
  -1  -2   0  176.58   15.20
   1   2   0  205.78   15.10
   1   2   0  173.58   14.80
   1   2   0  185.58   15.80
   1   2   0  171.08   15.10
   1   2   0  159.68   10.60
  -2  -2   0  307.27   24.30
  -2  -2   0  335.17   19.60
  -2  -2   0  305.17   20.70
   2   2   0  323.47   13.10
   2   2   0  314.57   21.30
   2   2   0  312.47   24.40
   2   2   0  300.17   18.80
   2   2   0  312.27   19.90
   2   2   0  353.86   21.90
  -3  -2   0  178.68   11.40
  -3  -2   0  165.88   17.60
  -3  -2   0  158.38   16.90
  -3  -2   0  176.08   24.30
   3   2   0  198.68   20.00
   3   2   0  214.48   22.40
   3   2   0  184.68   11.60
   3   2   0  191.38   25.30
   3   2   0  168.28   14.80
  -4  -2   0  112.09   20.00
  -4  -2   0  114.79   21.40
  -4  -2   0  133.99   20.20
  -4  -2   0  119.89   11.30
   4   2   0  133.89   23.30
   4   2   0  109.89   10.80
   4   2   0  101.69   19.90
   4   2   0  142.19   15.50
   4   2   0  115.99   22.80
   4   2   0  114.09   11.50
  -5  -2   0   29.90   15.50
  -5  -2   0   73.09   17.50
  -5  -2   0   42.00   10.00
  -5  -2   0   62.89   18.10
   5   2   0   61.19   18.30
   5   2   0   40.50   17.40
   5   2   0   26.90    6.20
  -6  -2   0  289.17   40.40
  -6  -2   0  263.17   33.50
  -6  -2   0  261.07   21.90
  -6  -2   0  218.18   35.80
   6   2   0  299.57   40.60
   6   2   0  280.77   39.00
  -7  -2   0   52.89   25.00
  -7  -2   0   14.30   11.80
  -7  -2   0   -4.60   20.60
  -7  -2   0    7.40   15.80
   7   2   0   90.59   29.00
   7   2   0   -7.60   17.10
  -8  -2   0   89.49   26.00
  -8  -2   0  106.09   37.60
  -8  -2   0   90.99   19.60
   8   2   0   54.09   34.30
   8   2   0  117.19   37.50
   8  -3   0   68.29   36.70
   8  -3   0   37.30   30.40
  -8   3   0   66.69   39.80
  -8   3   0   75.09   18.40
  -8   3   0  109.29   39.10
   7  -3   0   63.09   14.50
   7  -3   0   63.69   28.10
   7  -3   0   51.39   24.70
  -7   3   0   91.79   31.10
  -7   3   0   66.99   23.70
  -7   3   0   50.99   14.90
   6  -3   0  421.46   42.60
   6  -3   0  407.16   28.60
   6  -3   0  435.36   44.30
  -6   3   0  340.57   27.90
  -6   3   0  321.47   41.30
  -6   3   0  336.97   43.00
   5  -3   0   71.59   21.00
   5  -3   0   49.20   27.00
   5  -3   0   50.79   13.40
  -5   3   0   55.79   13.60
  -5   3   0   77.69   21.80
  -5   3   0   74.39   19.80
  -5   3   0   48.70   18.60
   4  -3   0  535.25   32.10
   4  -3   0  539.85   39.50
   4  -3   0  551.24   37.10
  -4   3   0  536.35   39.60
  -4   3   0  595.54   39.70
  -4   3   0  544.85   32.00
  -4   3   0  552.34   36.10
   3  -3   0 1018.20   43.10
   3  -3   0 1022.20   43.20
   3  -3   0 1001.90   47.60
  -3   3   0  975.40   48.20
  -3   3   0 1011.90   42.20
  -3   3   0 1028.60   49.30
  -3   3   0 1026.60   42.80
   2  -3   0  615.24   34.00
   2  -3   0  645.34   29.60
   2  -3   0  532.15   31.20
   2  -3   0  628.14   27.90
  -2   3   0  581.84   32.10
  -2   3   0  670.13   33.50
  -2   3   0  603.24   34.40
   1  -3   0   26.00   10.00
   1  -3   0    6.60    5.70
   1  -3   0   14.10    7.60
   1  -3   0   15.60    4.70
  -1   3   0   10.20    8.50
  -1   3   0   14.80    4.40
   0  -3   0 2145.39   49.10
   0  -3   0 2292.57   54.19
   0  -3   0 2298.77   64.89
   0  -3   0 2154.18   61.59
   0   3   0 2247.28   62.09
   0   3   0 2232.88   61.69
   0   3   0 2243.28   54.19
  -1  -3   0 2402.26   66.79
  -1  -3   0 2368.16   60.69
  -1  -3   0 2334.27   58.99
  -1  -3   0 2385.26   66.69
   1   3   0 2419.66   47.20
   1   3   0 2415.16   65.99
   1   3   0 2422.46   66.89
  -2  -3   0   78.19   13.20
  -2  -3   0   88.59   21.70
  -2  -3   0   60.89   14.20
  -2  -3   0   69.59   13.70
  -2  -3   0   86.99   15.30
   2   3   0   55.59   13.30
   2   3   0  113.59   19.90
   2   3   0   87.29   15.30
   2   3   0   81.49    8.50
   2   3   0   88.39   12.60
   2   3   0   83.49   14.70
  -3  -3   0 2356.06   66.49
  -3  -3   0 2342.57   73.49
  -3  -3   0 2303.47   67.59
   3   3   0 2272.57   46.60
   3   3   0 2430.06   76.49
   3   3   0 2382.96   66.29
   3   3   0 2246.88   80.09
   3   3   0 2348.97   68.89
  -4  -3   0  423.26   38.60
  -4  -3   0  457.95   34.60
  -4  -3   0  484.75   34.70
   4   3   0  460.55   34.80
   4   3   0  470.25   37.00
   4   3   0  421.56   37.10
   4   3   0  440.16   18.50
  -5  -3   0 1115.89   58.39
  -5  -3   0  954.40   61.09
  -5  -3   0 1028.60   54.79
   5   3   0  976.60   57.69
   5   3   0  990.40   56.79
   5   3   0 1039.90   36.10
   5   3   0  963.70   60.49
  -6  -3   0   55.69   22.30
  -6  -3   0   -6.10   15.00
  -6  -3   0   24.90   19.10
   6   3   0   -4.50   12.80
   6   3   0    4.30   17.10
   6   3   0   25.70    7.10
  -7  -3   0   93.59   32.50
  -7  -3   0   68.69   24.30
  -7  -3   0   49.99   30.20
   7   3   0  123.29   30.10
   7   3   0   44.20   26.60
   7  -4   0   38.70   26.60
   7  -4   0   22.40   14.80
   7  -4   0   29.70   44.20
  -7   4   0   37.80   26.40
  -7   4   0   45.30   20.00
  -7   4   0  -17.50   25.00
   6  -4   0  -22.90   16.20
   6  -4   0    6.70   20.90
   6  -4   0   17.50   12.40
  -6   4   0  -29.00   18.40
  -6   4   0   16.60   18.00
  -6   4   0    6.80   12.50
   5  -4   0  468.35   43.20
   5  -4   0  438.96   35.10
   5  -4   0  424.46   38.90
  -5   4   0  517.15   45.60
  -5   4   0  478.85   36.10
  -5   4   0  504.35   43.80
  -5   4   0  460.25   38.10
   4  -4   0  478.05   35.80
   4  -4   0  546.35   40.70
   4  -4   0  542.25   37.80
  -4   4   0  606.94   45.10
  -4   4   0  566.74   44.10
  -4   4   0  505.45   35.00
  -4   4   0  561.94   37.10
   3  -4   0  157.08   23.30
   3  -4   0  149.59   20.50
   3  -4   0  146.09   24.50
   3  -4   0  140.79   19.70
  -3   4   0  149.79   22.30
  -3   4   0  149.19   24.10
  -3   4   0  148.99   24.40
  -3   4   0  176.28   18.70
   2  -4   0  473.15   32.40
   2  -4   0  446.56   26.70
   2  -4   0  409.26   32.00
   2  -4   0  471.35   23.90
  -2   4   0  432.36   30.30
  -2   4   0  505.45   26.90
  -2   4   0  492.55   34.10
   1  -4   0  139.49   20.90
   1  -4   0  123.49   13.00
   1  -4   0  139.39   15.10
   1  -4   0  111.69   18.40
  -1   4   0  119.69   19.40
  -1   4   0  131.09   19.30
  -1   4   0  129.69    8.40
   0  -4   0   28.20   11.40
   0  -4   0   19.20    8.20
   0  -4   0   34.10    8.80
   0  -4   0   47.50   12.20
   0   4   0   25.00   10.00
   0   4   0   15.50    8.10
   0   4   0   24.00   10.70
  -1  -4   0    5.80    6.10
  -1  -4   0   -4.20    7.60
   1   4   0    2.60    6.30
   1   4   0    2.70    3.00
   1   4   0    2.60    7.80
   1   4   0    4.90    6.80
  -2  -4   0   16.40    8.40
  -2  -4   0    8.10    9.00
  -2  -4   0   10.40    8.10
  -2  -4   0   14.00   10.00
   2   4   0   -2.70   10.10
   2   4   0    0.10    7.60
   2   4   0   14.70    6.20
   2   4   0   -2.20    8.00
   2   4   0    8.90    8.00
  -3  -4   0 1164.18   45.70
  -3  -4   0 1162.08   51.39
  -3  -4   0 1072.49   52.99
   3   4   0 1109.59   52.69
   3   4   0 1179.98   54.29
   3   4   0 1123.79   32.50
   3   4   0 1147.59   59.99
   3   4   0 1113.19   45.40
  -4  -4   0  359.96   34.80
  -4  -4   0  351.96   30.70
   4   4   0  399.76   16.40
   4   4   0  395.46   32.50
   4   4   0  464.85   39.50
   4   4   0  448.06   49.20
  -5  -4   0    9.40   14.60
  -5  -4   0   39.90   19.50
   5   4   0    2.70   17.00
   5   4   0   18.60    9.40
   5   4   0   11.40   13.00
  -6  -4   0  100.29   27.40
  -6  -4   0   99.39   27.40
   6   4   0   72.09   13.30
   6   4   0  115.29   30.00
   6   4   0   96.99   25.50
  -7  -4   0   55.89   29.00
  -7  -4   0   38.40   23.20
   7   4   0   31.80    7.30
   7   4   0   78.99   31.10
   7   4   0   39.50    6.90
   7   4   0  -24.80   21.10
   7  -5   0   48.30   26.60
   7  -5   0  -29.00   31.40
   7  -5   0   13.90   17.90
  -7   5   0  -10.50   29.00
  -7   5   0  -44.50   24.30
  -7   5   0   17.50   19.00
   6  -5   0  117.19   28.30
   6  -5   0  139.19   26.80
   6  -5   0  145.29   32.30
  -6   5   0  100.39   31.40
  -6   5   0   76.69   29.70
  -6   5   0  114.49   24.60
  -6   5   0  110.99   27.60
   5  -5   0  453.95   39.80
   5  -5   0  428.96   43.90
   5  -5   0  436.36   38.60
   5  -5   0  384.26   36.90
  -5   5   0  376.46   38.00
  -5   5   0  390.26   36.00
  -5   5   0  300.57   43.30
   4  -5   0   -2.60   12.60
   4  -5   0   -0.40   11.20
   4  -5   0   -2.90   10.60
  -4   5   0   13.10   12.80
  -4   5   0   12.60   10.60
  -4   5   0   -3.40   14.70
   3  -5   0 1794.82   58.19
   3  -5   0 1811.82   74.59
   3  -5   0 1991.80   97.29
   3  -5   0 1731.53   62.69
  -3   5   0 1708.23   76.19
  -3   5   0 1880.51   73.49
  -3   5   0 1760.32   75.89
  -3   5   0 1801.12   57.09
   2  -5   0  164.68   26.70
   2  -5   0  177.48   27.30
   2  -5   0  159.08   16.60
   2  -5   0  202.08   20.90
  -2   5   0  193.18   28.40
  -2   5   0  165.88   13.90
  -2   5   0  129.79   21.70
  -2   5   0  145.89   24.30
   1  -5   0   36.30   13.10
   1  -5   0   27.80    9.70
   1  -5   0   14.80   11.00
   1  -5   0   38.80   10.30
  -1   5   0   24.10    9.50
  -1   5   0   29.40   13.40
  -1   5   0   20.40   12.30
   0  -5   0   27.80   12.80
   0  -5   0   75.99   13.50
   0  -5   0   49.00   11.30
   0  -5   0   17.20   12.90
   0   5   0   49.00   14.60
   0   5   0   67.29   13.60
   0   5   0   54.59   16.80
  -1  -5   0  136.49   19.90
  -1  -5   0  137.69   20.50
  -1  -5   0  100.49   22.30
   1   5   0  137.19    6.20
   1   5   0  157.28   24.60
   1   5   0  120.19   19.60
   1   5   0  122.49   21.50
  -2  -5   0  396.86   33.40
  -2  -5   0  399.36   31.40
  -2  -5   0  366.16   30.00
   2   5   0  351.56   20.40
   2   5   0  406.16   32.30
   2   5   0  396.56   37.20
   2   5   0  403.86   35.30
   2   5   0  362.46   32.70
  -3  -5   0  835.22   49.60
  -3  -5   0  744.73   49.70
   3   5   0  858.01   31.00
   3   5   0  868.61   50.89
   3   5   0  820.52   39.20
   3   5   0  662.93   84.29
   3   5   0  827.72   50.89
  -4  -5   0  350.26   37.10
   4   5   0  281.57   38.10
   4   5   0  293.37   37.10
   4   5   0  334.37   30.50
   4   5   0  296.17   15.00
  -5  -5   0  512.25   46.30
  -5  -5   0  439.86   39.30
   5   5   0  446.56   46.00
   5   5   0  457.35   39.50
  -6  -5   0   33.80   21.50
  -6  -5   0   20.90   23.00
   6   5   0   -8.50   12.40
   6   5   0    0.70   18.40
   6   5   0   -3.10   23.00
   6   5   0    6.90   23.30
   6  -6   0  -11.50   19.80
   6  -6   0  -50.49   20.10
   6  -6   0   -7.10   27.10
   6  -6   0   -6.40   19.40
  -6   6   0   -1.50   20.40
  -6   6   0  -24.80   29.50
  -6   6   0  -22.90   17.30
  -6   6   0   37.80   21.80
   5  -6   0   79.29   29.40
   5  -6   0   79.39   26.10
   5  -6   0   77.89   22.50
   5  -6   0   48.00   18.30
  -5   6   0   61.89   26.90
  -5   6   0   81.59   21.40
  -5   6   0   74.19   31.10
  -5   6   0  113.19   28.20
   4  -6   0  520.45   39.00
   4  -6   0  494.85   36.40
   4  -6   0  538.65   46.20
  -4   6   0  460.05   48.30
  -4   6   0  582.24   36.90
  -4   6   0  549.45   45.50
  -4   6   0  473.55   49.10
   3  -6   0  230.58   57.29
   3  -6   0  258.47   26.10
   3  -6   0  276.27   27.60
  -3   6   0  263.67   21.40
  -3   6   0  291.77   38.10
  -3   6   0  303.57   40.50
  -3   6   0  258.37   40.20
   2  -6   0  329.27   23.00
   2  -6   0  287.37   26.10
   2  -6   0  281.77   37.80
   2  -6   0  339.97   43.20
  -2   6   0  280.87   42.80
  -2   6   0  346.77   47.10
  -2   6   0  250.87   32.10
   1  -6   0   97.09   26.30
   1  -6   0   52.89   14.40
   1  -6   0   63.99   15.30
   1  -6   0  103.19   25.30
  -1   6   0  102.39   23.10
  -1   6   0   53.29   16.10
   0  -6   0   12.50   10.30
   0  -6   0    9.70   10.40
   0  -6   0   24.90   13.30
   0  -6   0   14.70   12.60
   0   6   0   15.70   11.70
   0   6   0   26.00   11.60
   0   6   0   24.60   14.00
  -1  -6   0  209.08   32.40
  -1  -6   0  210.98   26.90
  -1  -6   0  229.98   24.40
   1   6   0  264.27   34.20
   1   6   0  262.27   34.50
   1   6   0  221.18   28.30
  -2  -6   0   98.09   21.60
  -2  -6   0  115.89   24.90
   2   6   0  112.19   25.60
   2   6   0   61.29   19.20
   2   6   0   80.59   10.10
   2   6   0   92.99   21.20
  -3  -6   0  279.57   38.00
   3   6   0  215.98   40.20
   3   6   0  286.07   23.30
   3   6   0  208.98   35.00
   3   6   0  196.18   31.40
   3   6   0  271.77   20.50
   3   6   0  212.28   43.30
  -4  -6   0  255.27   40.20
   4   6   0  363.06   46.30
   4   6   0  239.58   37.10
   4   6   0  284.87   16.10
   4   6   0  286.37   29.20
  -5  -6   0    0.20   20.80
   5   6   0   34.10   21.90
   5   6   0   12.90   22.60
   5   6   0   40.90   19.50
   5   6   0   -2.40   19.90
  -6  -6   0   78.39   30.80
   6   6   0   75.09   38.00
   6   6   0   92.49   22.00
   6   6   0   59.89   27.80
   6   6   0  109.09   31.60
   6   6   0   74.59   32.30
   6   6   0   96.69   22.10
   5  -7   0   -5.90   19.40
   5  -7   0   19.10   17.70
   5  -7   0    9.10   23.40
   5  -7   0   -1.90   29.20
  -5   7   0   18.00   17.10
  -5   7   0   25.40   24.70
  -5   7   0  -40.70   27.00
  -5   7   0   37.40   23.90
   4  -7   0  -15.40   23.10
   4  -7   0   28.50   16.80
   4  -7   0    6.50   14.70
   4  -7   0   17.20   22.20
  -4   7   0  -13.20   25.10
  -4   7   0   16.10   20.30
  -4   7   0    7.70   20.80
  -4   7   0   20.40   12.30
   3  -7   0  258.37   34.20
   3  -7   0  189.18   27.00
   3  -7   0  196.48   38.20
  -3   7   0  158.08   33.80
  -3   7   0  185.28   37.60
  -3   7   0  215.38   45.40
  -3   7   0  166.68   32.70
   2  -7   0  257.47   39.40
   2  -7   0  365.56   31.40
   2  -7   0  293.07   44.60
  -2   7   0  290.47   42.60
  -2   7   0  324.07   40.40
  -2   7   0  300.07   40.40
  -2   7   0  373.06   38.40
   1  -7   0  118.59   18.90
   1  -7   0   77.19   18.20
   1  -7   0  121.39   26.80
  -1   7   0   39.40   22.10
  -1   7   0   60.39   20.90
  -1   7   0   67.19   23.30
  -1   7   0   97.89   26.20
   0  -7   0  442.76   31.50
   0  -7   0  554.14   51.19
   0  -7   0  333.97   52.29
   0  -7   0  392.76   33.40
   0   7   0  368.16   33.40
   0   7   0  441.36   44.60
  -1  -7   0    5.80   13.10
  -1  -7   0   31.50   16.20
  -1  -7   0  -11.00   12.60
   1   7   0    9.30   15.40
   1   7   0   31.10   14.00
  -2  -7   0   68.69   21.20
  -2  -7   0   82.99   23.70
   2   7   0   86.49   22.40
   2   7   0   76.69   24.10
   2   7   0   20.70   24.60
  -3  -7   0   27.80   18.70
   3   7   0    5.70   27.00
   3   7   0   -1.20   14.60
   3   7   0   -9.30    9.00
   3   7   0    5.50   17.10
   3   7   0   -3.90   17.40
   4   7   0   48.30   24.00
   4   7   0   26.30    8.70
   4   7   0   37.70   23.00
   4   7   0   48.00   15.70
   5   7   0   24.40   25.20
   5   7   0   -2.70   31.40
   5   7   0    6.60   21.70
   5   7   0  -12.70   19.20
   4  -8   0  201.88   42.70
   4  -8   0   51.59   23.50
  -4   8   0  140.79   35.90
  -4   8   0  108.69   37.20
  -4   8   0   90.39   32.70
   3  -8   0  -44.50   21.50
   3  -8   0    8.70   15.40
   3  -8   0  -66.99   25.40
   3  -8   0   17.00   19.60
  -3   8   0   57.69   27.60
  -3   8   0  -31.90   24.90
  -3   8   0   13.40   32.60
  -3   8   0  -35.80   15.70
   2  -8   0   32.30   23.80
   2  -8   0   35.40   25.20
   2  -8   0   29.00   16.90
  -2   8   0   23.40   25.00
  -2   8   0   30.90   21.40
  -2   8   0   47.90   25.00
  -2   8   0   35.20   23.00
   1  -8   0  103.59   28.90
   1  -8   0   41.70   26.20
   1  -8   0   47.90   17.40
   1  -8   0   99.29   19.00
  -1   8   0   93.79   29.70
  -1   8   0   71.29   22.60
  -1   8   0   55.49   27.40
  -1   8   0   35.20   23.90
   0  -8   0   73.29   19.40
   0  -8   0   37.50   17.60
   0  -8   0   50.69   23.70
   0   8   0   41.80   20.80
   0   8   0   88.59   29.30
   0   8   0   63.79   28.70
   0   8   0   80.29   25.60
   0   8   0   74.09   20.80
  -1  -8   0  166.68   28.60
  -1  -8   0  205.68   42.90
   1   8   0  176.28   32.50
   1   8   0  170.58   27.80
   1   8   0  115.19   34.20
   1   8   0  174.58   36.70
  -2  -8   0  152.68   37.00
   2   8   0  137.49   41.80
   2   8   0  109.19   23.60
   2   8   0  122.39   27.60
   2   8   0  123.49   33.40
  -3  -8   0   10.70   24.60
   3   8   0  -58.99   29.60
   3   8   0   65.19   30.00
   3   8   0   49.00   31.90
   3   8   0    6.60   14.20
   3   8   0  -26.00   19.40
   3   8   0   26.90   13.60
   1  -9   0   34.00   18.70
   1  -9   0  -23.70   28.80
  -1   9   0  -48.50   27.10
  -1   9   0  -50.79   23.70
  -1   9   0   28.70   36.60
   0  -9   0  103.79   28.20
   0  -9   0  107.59   39.70
   0   9   0  140.19   37.70
   0   9   0  144.29   46.40
   0   9   0   95.59   41.80
   0   9   0  154.38   35.10
   3   8  -1   82.09   29.70
   3   8  -1   74.19   30.30
   3   8  -1   86.39   43.30
   3   8  -1   89.09   16.20
   3   8  -1   83.09   16.20
  -3  -8   1   57.29   29.90
   2   8  -1  -36.80   26.30
   2   8  -1   20.00   29.90
   2   8  -1    0.40   23.80
   2   8  -1  -28.40   15.10
   2   8  -1   10.40   18.70
  -2  -8   1  -23.60   23.40
   1   8  -1  127.89   34.20
   1   8  -1  158.68   41.10
   1   8  -1   97.89   27.50
   1   8  -1  114.89   24.50
  -1  -8   1  159.98   39.30
  -1  -8   1   99.49   26.10
   0   8  -1   82.39   33.00
   0   8  -1  114.89   27.50
   0   8  -1  130.09   25.90
   0   8  -1  125.09   33.60
   0  -8   1  110.29   30.10
   0  -8   1  116.89   26.30
  -1   8  -1  -13.70   16.00
  -1   8  -1    0.50   24.10
  -1   8  -1   15.00   22.80
   1  -8   1   45.10   23.00
   1  -8   1   36.40   33.60
  -2   8  -1  308.87   48.30
  -2   8  -1  234.58   40.10
  -2   8  -1  275.97   44.20
  -2   8  -1  435.56   53.89
   2  -8   1  338.67   51.49
   2  -8   1  326.07   48.60
  -3   8  -1   20.30   26.80
  -3   8  -1    8.00   18.00
  -3   8  -1   34.20   42.40
   3  -8   1  -16.00   18.30
   3  -8   1   30.10   25.80
   3  -8   1  -46.20   27.30
   4   7  -1   29.60   14.30
   4   7  -1   33.50   27.00
   4   7  -1   10.10   23.30
   4   7  -1   -2.10   21.10
  -4  -7   1  -13.10   19.00
   3   7  -1   66.79   24.40
   3   7  -1   45.50   26.90
   3   7  -1   77.19   14.00
   3   7  -1   85.59   17.60
   3   7  -1   77.19   25.40
  -3  -7   1  100.89   29.00
   2   7  -1  241.28   42.50
   2   7  -1  321.47   43.60
   2   7  -1  271.27   27.00
  -2  -7   1  313.17   43.60
  -2  -7   1  260.07   37.10
   1   7  -1    9.50   17.90
   1   7  -1   14.90   13.90
   1   7  -1  -25.00   12.70
   1   7  -1   19.60   16.60
  -1  -7   1   24.30   17.80
  -1  -7   1    9.50   13.50
   0   7  -1  228.18   32.00
   0   7  -1  247.18   37.30
   0   7  -1  217.78   31.40
   0  -7   1  247.18   40.40
   0  -7   1  229.78   31.40
  -1   7  -1  154.88   32.70
  -1   7  -1  154.78   36.50
  -1   7  -1  154.28   28.50
   1  -7   1  228.38   37.20
   1  -7   1  146.19   26.10
  -2   7  -1  158.38   30.90
  -2   7  -1  193.38   34.40
  -2   7  -1  153.78   33.50
   2  -7   1  170.28   35.90
   2  -7   1  114.29   23.70
  -3   7  -1   59.19   26.20
  -3   7  -1   85.59   27.50
  -3   7  -1   82.79   24.90
  -3   7  -1  119.59   27.50
   3  -7   1  124.69   27.30
   3  -7   1   46.80   20.20
   3  -7   1   68.69   25.30
  -4   7  -1   10.10   27.30
  -4   7  -1   22.10   17.90
  -4   7  -1   27.60   25.10
   4  -7   1   11.00   20.30
   4  -7   1    4.00   18.50
   4  -7   1    2.40   10.10
  -5   7  -1   21.70   23.80
  -5   7  -1   22.10   31.10
  -5   7  -1   12.00   33.90
   5  -7   1   21.80   25.80
   5  -7   1   20.70   22.20
   5  -7   1   66.39   33.20
   5  -7   1    4.80   16.10
   5   6  -1   61.99   29.40
   5   6  -1  145.69   37.80
   5   6  -1  167.68   51.49
   5   6  -1  116.19   25.70
  -5  -6   1   73.69   27.90
   4   6  -1   34.30   22.80
   4   6  -1   12.00   24.20
   4   6  -1   23.20   13.40
   4   6  -1   13.80   19.80
  -4  -6   1  -13.90   11.60
  -4  -6   1   16.40   18.20
   3   6  -1  539.95   23.60
   3   6  -1  578.74   49.60
   3   6  -1  552.04   30.50
  -3  -6   1  558.44   45.80
  -3  -6   1  586.04   50.59
  -3  -6   1  516.95   44.70
   2   6  -1   82.29   21.70
   2   6  -1   64.39   13.40
   2   6  -1   97.29   22.30
  -2  -6   1   75.89   21.90
  -2  -6   1   80.09   21.10
   1   6  -1   25.80   14.00
   1   6  -1   33.00   12.70
   1   6  -1   20.90   18.40
   1   6  -1    0.40   12.00
  -1  -6   1   13.70   13.40
  -1  -6   1   32.50   17.90
   0   6  -1   61.19   22.80
   0   6  -1   92.79   19.30
   0   6  -1  119.79   21.70
   0   6  -1   84.89   21.10
   0  -6   1   65.39   16.10
   0  -6   1   90.19   25.10
   0  -6   1  103.79   24.10
  -1   6  -1    6.90   13.30
  -1   6  -1   26.50   12.70
  -1   6  -1   11.30   12.50
  -1   6  -1   33.80   20.50
   1  -6   1   32.70   13.00
   1  -6   1   -0.60   19.30
   1  -6   1   40.20   16.60
   1  -6   1   12.20    8.90
  -2   6  -1  212.98   35.60
  -2   6  -1  165.38   30.00
  -2   6  -1  196.48   30.10
   2  -6   1  218.68   27.10
   2  -6   1  210.48   34.30
   2  -6   1  206.88   14.10
  -3   6  -1    9.70   15.70
  -3   6  -1    3.50   13.40
  -3   6  -1    7.10   16.40
  -3   6  -1    1.00   14.90
   3  -6   1   -1.00   12.20
   3  -6   1    3.60   15.30
   3  -6   1    1.90    8.10
  -4   6  -1   60.49   21.80
  -4   6  -1   32.20   21.90
  -4   6  -1   15.60   17.50
   4  -6   1   32.50   18.00
   4  -6   1   42.10   18.30
   4  -6   1   94.89   31.30
   4  -6   1   39.40   14.70
  -5   6  -1  172.78   35.30
  -5   6  -1  260.77   32.90
  -5   6  -1  278.87   39.60
  -5   6  -1  232.48   39.60
   5  -6   1  236.08   42.00
   5  -6   1  309.67   32.10
   5  -6   1  192.98   35.00
   5  -6   1  209.78   34.60
  -6   6  -1  221.68   35.10
  -6   6  -1  158.48   41.70
  -6   6  -1  104.79   42.30
  -6   6  -1  118.79   29.10
   6  -6   1  168.48   35.50
   6  -6   1  212.28   45.70
   6  -6   1  174.18   33.10
   6   5  -1    5.80   27.80
   6   5  -1    6.20   15.40
   6   5  -1  -35.10   18.40
   6   5  -1   19.60   23.80
  -6  -5   1  -27.60   15.00
   5   5  -1  270.57   47.70
   5   5  -1  269.97   35.20
   5   5  -1  219.78   39.10
   5   5  -1  250.97   30.40
  -5  -5   1  236.38   34.30
  -5  -5   1  208.08   36.20
   4   5  -1  129.19   23.20
   4   5  -1  173.28   31.00
   4   5  -1  123.89   28.60
  -4  -5   1  135.09   22.00
  -4  -5   1  137.09   26.20
  -4  -5   1  112.29   26.30
   3   5  -1   24.20    5.60
   3   5  -1   22.60   16.40
   3   5  -1   24.50    6.20
   3   5  -1   30.20   16.10
   3   5  -1   34.10   17.90
   3   5  -1   19.20    9.90
  -3  -5   1   27.80   15.00
  -3  -5   1   -7.70   11.20
  -3  -5   1   33.00   18.00
  -3  -5   1   -3.40    7.80
   2   5  -1  -10.20    4.70
   2   5  -1   -6.20   11.90
   2   5  -1   13.40   13.00
   2   5  -1    8.60    6.20
   2   5  -1    7.90   12.10
   2   5  -1   18.80   10.10
  -2  -5   1    0.90   11.30
  -2  -5   1    3.50   10.80
  -2  -5   1    4.80   10.60
   1   5  -1  280.97   29.60
   1   5  -1  248.78   22.30
   1   5  -1  278.97   28.80
   1   5  -1  254.17   26.50
  -1  -5   1  283.47   27.00
  -1  -5   1  258.97   32.80
   0   5  -1  184.58   26.10
   0   5  -1  200.28   24.30
   0   5  -1  208.88   28.60
   0   5  -1  164.78   23.10
   0  -5   1  284.77   30.30
   0  -5   1  217.18   17.50
   0  -5   1  167.98   25.50
   0  -5   1  176.58   23.50
  -1   5  -1  767.82   43.60
  -1   5  -1  715.83   46.30
  -1   5  -1  734.33   43.00
  -1   5  -1  653.73   38.00
   1  -5   1  727.63   47.60
   1  -5   1  704.23   45.40
   1  -5   1  742.03   25.30
   1  -5   1  820.32   41.30
  -2   5  -1   21.00   11.30
  -2   5  -1   -2.60   10.90
  -2   5  -1   -8.80    8.10
   2  -5   1    4.80    9.60
   2  -5   1  -10.50    7.70
   2  -5   1    2.20   11.80
   2  -5   1   -0.10    4.10
   2  -5   1   11.20    6.50
  -3   5  -1  534.95   28.40
  -3   5  -1  478.95   40.30
  -3   5  -1  455.65   76.09
   3  -5   1  498.75   28.70
   3  -5   1  524.95   43.70
   3  -5   1  481.55   35.90
   3  -5   1  555.24   43.50
  -4   5  -1  224.38   36.30
  -4   5  -1  192.08   27.70
  -4   5  -1  266.47   26.10
   4  -5   1  191.68   31.20
   4  -5   1  252.17   25.60
   4  -5   1  181.48   31.90
   4  -5   1  193.38   28.20
  -5   5  -1  227.68   31.20
  -5   5  -1  203.98   34.00
  -5   5  -1  245.38   34.60
   5  -5   1  201.78   37.70
   5  -5   1  185.18   29.90
   5  -5   1  251.27   34.30
  -6   5  -1  106.29   28.30
  -6   5  -1   95.19   23.00
  -6   5  -1   40.00   22.30
  -6   5  -1   50.99   23.70
   6  -5   1  102.39   35.40
   6  -5   1   86.09   24.80
   6  -5   1   69.29   23.00
  -7   5  -1  397.76   42.70
  -7   5  -1  319.77   52.09
  -7   5  -1  418.86   52.09
   7  -5   1  291.57   45.20
   7  -5   1  319.57   49.40
   7  -5   1  295.27   55.39
   7  -5   1  413.46   43.70
   7   4  -1   59.69   35.10
   7   4  -1   11.00   26.30
   7   4  -1   20.60   12.40
  -7  -4   1   49.50   26.10
  -7  -4   1   60.49   31.00
   6   4  -1   -2.00   17.90
   6   4  -1    1.50   10.80
   6   4  -1    2.60   16.90
   6   4  -1  -10.80   15.00
  -6  -4   1  -47.90   17.60
  -6  -4   1    3.10   18.70
   5   4  -1  383.06   46.90
   5   4  -1  412.36   31.20
   5   4  -1  380.36   37.30
  -5  -4   1  392.26   39.60
  -5  -4   1  422.86   38.70
   4   4  -1   12.00   11.50
   4   4  -1    7.80   12.00
   4   4  -1   32.00   17.50
  -4  -4   1   22.40   12.50
  -4  -4   1    8.80    9.70
  -4  -4   1   29.10   14.80
   3   4  -1 1252.57   22.50
   3   4  -1 1160.98   63.29
   3   4  -1 1358.56   50.69
   3   4  -1 1333.87   62.29
   3   4  -1 1265.77   22.50
  -3  -4   1 1268.87   60.09
  -3  -4   1 1462.05   64.59
  -3  -4   1 1251.07   53.79
  -3  -4   1 1334.77   49.99
   2   4  -1  130.89   21.80
   2   4  -1  123.19   22.30
   2   4  -1   96.49   13.20
   2   4  -1   75.79   16.60
   2   4  -1  112.19   24.20
  -2  -4   1   75.59   17.10
  -2  -4   1   97.49   18.00
  -2  -4   1  113.59   19.80
   1   4  -1  102.09   19.30
   1   4  -1  111.79   19.40
   1   4  -1  110.29   17.40
  -1  -4   1  111.09   19.40
  -1  -4   1   88.59   16.10
  -1  -4   1  108.19   18.30
   0   4  -1  171.88   18.20
   0   4  -1  127.59   21.10
   0   4  -1  182.68   19.40
   0   4  -1  176.18   23.70
   0  -4   1  151.08   21.20
   0  -4   1  167.28   23.20
   0  -4   1  142.59   18.70
   0  -4   1  189.18   14.70
  -1   4  -1   13.30    9.70
  -1   4  -1   13.30    8.00
  -1   4  -1   26.00   11.80
  -1   4  -1   37.40   11.00
   1  -4   1   51.49   14.70
   1  -4   1   19.30    9.00
   1  -4   1   43.00   13.00
   1  -4   1   30.50    6.40
  -2   4  -1   86.89   18.90
  -2   4  -1  101.99   11.80
  -2   4  -1   68.39   17.50
  -2   4  -1  102.79   17.50
   2  -4   1   93.19   18.00
   2  -4   1   80.59   17.20
   2  -4   1  112.89   17.50
   2  -4   1   83.99   11.20
  -3   4  -1  379.86   34.80
  -3   4  -1  343.17   24.10
  -3   4  -1  401.56   34.40
   3  -4   1  369.76   25.50
   3  -4   1  326.57   27.20
   3  -4   1  346.47   31.90
  -4   4  -1   50.59   13.30
  -4   4  -1   74.99   20.80
  -4   4  -1   99.09   26.20
  -4   4  -1   68.19   16.00
   4  -4   1   87.49   18.60
   4  -4   1   63.79   16.20
   4  -4   1   88.79   20.70
  -5   4  -1  657.23   41.60
  -5   4  -1  623.04   48.00
  -5   4  -1  578.04   42.00
  -5   4  -1  438.66   44.10
   5  -4   1  531.15   41.20
   5  -4   1  666.53   46.60
   5  -4   1  607.64   49.40
  -6   4  -1   74.29   28.60
  -6   4  -1   36.80   21.00
  -6   4  -1   78.99   25.90
  -6   4  -1  101.79   20.50
   6  -4   1   96.59   25.30
   6  -4   1   69.59   24.90
   6  -4   1   92.59   21.90
  -7   4  -1   77.49   20.80
  -7   4  -1   87.79   29.60
  -7   4  -1   87.09   32.60
   7  -4   1   40.80   23.70
   7  -4   1   26.00   22.80
   7  -4   1   62.29   20.30
   7   3  -1    5.00   22.20
   7   3  -1  -21.10   18.90
  -7  -3   1    4.70   17.20
  -7  -3   1   19.80   25.50
  -7  -3   1   14.80   25.40
   6   3  -1  177.18   18.40
   6   3  -1  164.48   31.60
   6   3  -1  165.78   31.20
  -6  -3   1  168.38   37.30
  -6  -3   1  180.68   34.40
  -6  -3   1  193.08   32.20
   5   3  -1    4.60    7.70
   5   3  -1    5.50   12.00
   5   3  -1  -17.70   15.80
  -5  -3   1   16.00   11.50
  -5  -3   1   28.50   15.20
   4   3  -1  473.15   41.10
   4   3  -1  513.35   36.60
   4   3  -1  474.05   28.50
   4   3  -1  584.64   42.30
  -4  -3   1  464.35   37.20
  -4  -3   1  470.85   35.20
   3   3  -1  227.88   31.30
   3   3  -1  189.08   20.30
   3   3  -1  161.78   24.00
  -3  -3   1  231.98   28.30
  -3  -3   1  186.58   18.70
  -3  -3   1  208.38   19.90
   2   3  -1  225.38   23.90
   2   3  -1  222.08   10.20
   2   3  -1  240.28   18.00
   2   3  -1  195.48   21.50
  -2  -3   1  241.28   20.80
  -2  -3   1  229.18   22.00
  -2  -3   1  221.78   21.60
  -2  -3   1  233.88   18.30
   1   3  -1 2193.58   66.69
   1   3  -1 2082.79   43.60
   1   3  -1 2179.68   64.99
   1   3  -1 2084.19   62.39
  -1  -3   1 2156.68   62.89
  -1  -3   1 2202.08   65.69
  -1  -3   1 2279.67   66.09
  -1  -3   1 2187.88   43.90
   0   3  -1   96.99   15.00
   0   3  -1  131.49   17.10
   0   3  -1  111.49   14.40
   0   3  -1   97.49   14.50
   0  -3   1  136.99   11.00
   0  -3   1   96.79   14.50
   0  -3   1  116.29   17.60
   0  -3   1  115.59   16.40
  -1   3  -1 3318.37   77.49
  -1   3  -1 3280.67   83.69
  -1   3  -1 3228.68   76.29
  -1   3  -1 3225.88   79.89
   1  -3   1 3187.68   52.69
   1  -3   1 3202.78   53.99
   1  -3   1 3332.77   76.99
   1  -3   1 3333.87   83.69
  -2   3  -1   46.90   13.60
  -2   3  -1   45.40   13.00
  -2   3  -1   39.10    8.40
   2  -3   1   38.50   10.60
   2  -3   1   35.10    8.10
   2  -3   1   51.79   11.60
  -3   3  -1  237.88   28.90
  -3   3  -1  277.77   27.00
  -3   3  -1  283.87   21.90
   3  -3   1  265.97   22.00
   3  -3   1  245.18   25.70
  -4   3  -1  314.77   31.90
  -4   3  -1  338.67   28.50
  -4   3  -1  369.66   27.10
  -4   3  -1  260.67   27.60
   4  -3   1  343.47   29.60
   4  -3   1  305.47   29.90
  -5   3  -1   27.10   14.40
  -5   3  -1   19.20   16.80
  -5   3  -1   41.40   11.90
   5  -3   1   35.10   14.90
   5  -3   1   -1.40   15.90
  -6   3  -1  175.78   33.70
  -6   3  -1  141.49   21.10
  -6   3  -1  192.58   31.70
   6  -3   1  227.98   35.30
   6  -3   1  222.48   41.40
  -7   3  -1   44.30   15.30
  -7   3  -1   76.29   28.10
  -7   3  -1   48.50   25.80
   7  -3   1   74.69   27.20
   7  -3   1   77.89   18.70
   7  -3   1   79.89   28.00
  -8   3  -1   40.30   31.20
  -8   3  -1   49.30   32.00
  -8   3  -1  -10.10   12.60
   8  -3   1    2.70   28.20
   8  -3   1   51.39   30.10
   8  -3   1   -2.70   13.10
   8   2  -1  190.48   44.80
   8   2  -1  123.79   39.80
  -8  -2   1  111.99   40.10
  -8  -2   1   99.79   16.90
  -8  -2   1   77.39   43.90
  -8  -2   1   64.99   26.20
   7   2  -1    1.10   24.50
   7   2  -1   39.00    6.60
   7   2  -1   50.29   26.20
  -7  -2   1   13.20   25.30
  -7  -2   1   16.00    9.20
  -7  -2   1  -23.60   16.90
  -7  -2   1   65.49   30.10
   6   2  -1    4.00   13.90
   6   2  -1    7.00    6.90
   6   2  -1    2.50   15.20
  -6  -2   1   -1.60   18.70
  -6  -2   1    6.80    7.60
  -6  -2   1    2.00   10.70
  -6  -2   1    0.10   14.00
   5   2  -1  161.28   15.90
   5   2  -1  178.38   27.90
   5   2  -1  222.58   31.50
  -5  -2   1  214.78   31.80
  -5  -2   1  178.28   13.30
  -5  -2   1  189.68   27.90
  -5  -2   1  199.08   32.90
   4   2  -1  242.38   27.00
   4   2  -1  247.98   26.90
   4   2  -1  242.38   30.80
   4   2  -1  221.68   17.50
  -4  -2   1  226.88   24.20
  -4  -2   1  243.18   11.60
  -4  -2   1  240.28   25.30
  -4  -2   1  260.27   29.50
   3   2  -1  189.88   16.40
   3   2  -1  218.58   22.80
   3   2  -1  202.28   22.70
   3   2  -1  162.68   21.30
  -3  -2   1  225.18   22.20
  -3  -2   1  212.28   23.50
  -3  -2   1  174.18   19.10
  -3  -2   1  186.58   15.00
   2   2  -1 1878.61   52.09
   2   2  -1 1817.52   61.49
   2   2  -1 1835.12   58.09
  -2  -2   1 1845.32   49.30
  -2  -2   1 1893.81   52.09
  -2  -2   1 1851.61   58.69
  -2  -2   1 1835.32   56.89
   1   2  -1  638.04   18.20
   1   2  -1  597.34   34.70
   1   2  -1  654.43   22.20
   1   2  -1  641.24   28.70
  -1  -2   1  614.64   28.40
  -1  -2   1  684.13   28.80
  -1  -2   1  648.04   21.80
  -1  -2   1  614.34   29.10
   0   2  -1 2714.53   57.49
   0   2  -1 2874.71   65.59
   0   2  -1 2847.52   66.39
   0   2  -1 2859.81   63.49
   0  -2   1 2840.02   63.09
   0  -2   1 2876.31   63.29
   0  -2   1 2832.32   65.79
   0  -2   1 2823.52   41.10
  -1   2  -1   50.09   12.80
  -1   2  -1   39.80    9.20
  -1   2  -1   38.10    9.50
  -1   2  -1   53.79    9.10
   1  -2   1   33.50    8.30
   1  -2   1   30.00    5.40
   1  -2   1   36.80    9.40
  -2   2  -1 1762.72   54.29
  -2   2  -1 1758.02   47.50
  -2   2  -1 1809.42   55.99
   2  -2   1 1829.22   48.60
   2  -2   1 1763.82   54.09
  -3   2  -1   30.00    9.70
  -3   2  -1   31.90   10.80
  -3   2  -1   26.90    9.90
   3  -2   1   14.60    9.40
   3  -2   1   16.80    9.30
  -4   2  -1 1044.10   50.79
  -4   2  -1 1028.80   49.30
  -4   2  -1 1001.90   37.60
  -4   2  -1 1085.49   51.19
   4  -2   1 1007.80   48.90
   4  -2   1  994.60   48.10
  -5   2  -1  474.75   38.60
  -5   2  -1  415.06   36.30
  -5   2  -1  467.25   26.40
   5  -2   1  460.85   37.80
   5  -2   1  411.16   36.10
  -6   2  -1   97.19   24.30
  -6   2  -1  118.59   15.80
  -6   2  -1   45.70   19.20
   6  -2   1   86.29   23.10
  -7   2  -1  198.28   18.50
  -7   2  -1  172.88   34.30
   7  -2   1  192.48   20.70
   7  -2   1  176.08   33.00
   7  -2   1  223.88   37.10
  -8   2  -1   19.10   22.10
  -8   2  -1   40.60   26.70
  -8   2  -1    9.10    7.80
  -8   2  -1  -47.20   27.40
   8  -2   1   21.10   27.60
   8   1  -1  162.58   40.10
   8   1  -1  190.98   52.79
  -8  -1   1  175.98   34.70
  -8  -1   1  116.89   43.00
  -8  -1   1  149.79   23.80
  -8  -1   1  132.19   36.10
   7   1  -1    9.70   21.90
   7   1  -1   -4.40   19.80
   7   1  -1    1.20   15.30
  -7  -1   1   10.40   15.10
  -7  -1   1  -23.70   14.50
  -7  -1   1  -36.90   22.50
  -7  -1   1  -13.80   10.40
   6   1  -1  630.74   49.00
   6   1  -1  650.63   52.79
   6   1  -1  661.83   35.20
  -6  -1   1  764.12   36.50
  -6  -1   1  751.52   54.99
  -6  -1   1  782.72   55.89
   5   1  -1    4.30    9.50
   5   1  -1   10.10   10.50
  -5  -1   1   13.00   13.00
  -5  -1   1   13.10    7.30
  -5  -1   1   -9.40   10.80
   4   1  -1   83.49   18.10
   4   1  -1   64.49    9.80
   4   1  -1   49.80   14.30
  -4  -1   1   46.20    9.00
  -4  -1   1   78.89   18.60
  -4  -1   1   69.59   17.50
   3   1  -1  189.48   20.00
   3   1  -1  154.38   20.30
   3   1  -1  164.78   18.10
   3   1  -1  158.18   13.20
  -3  -1   1  171.88   10.80
  -3  -1   1  133.69   20.20
  -3  -1   1  144.79   19.60
   2   1  -1  773.52   33.70
   2   1  -1  754.92   26.20
   2   1  -1  794.22   34.90
   2   1  -1  807.92   32.40
  -2  -1   1  793.42   32.60
  -2  -1   1  767.02   16.30
  -2  -1   1  809.02   33.80
  -2  -1   1  743.83   22.20
   1   1  -1 3751.92   74.99
   1   1  -1 3735.03   73.99
   1   1  -1 3783.52   68.39
  -1  -1   1 3679.23   73.69
  -1  -1   1 3781.42   72.59
  -1  -1   1 3691.53   67.29
   0   1  -1  873.41   26.90
   0   1  -1  846.12   24.40
   0   1  -1  861.51   26.10
   0   1  -1  855.01   22.40
   0  -1   1  882.71   26.50
   0  -1   1  826.92   25.80
   0  -1   1  914.01   24.90
   0  -1   1  892.41   22.80
  -1   1  -1 1943.21   40.70
  -1   1  -1 1970.20   47.00
  -1   1  -1 2134.79   46.60
   1  -1   1 2008.60   41.30
   1  -1   1 2006.50   47.40
   1  -1   1 2051.79   47.20
   1  -1   1 2015.50   45.50
  -2   1  -1 2738.43   65.39
  -2   1  -1 2591.74   61.69
  -2   1  -1 2734.33   62.59
   2  -1   1 2730.83   62.49
   2  -1   1 2552.34   66.69
  -3   1  -1    7.60    7.80
  -3   1  -1   15.50    5.40
  -3   1  -1   -4.70    6.30
  -3   1  -1   18.30    9.70
   3  -1   1    8.70    8.60
   3  -1   1   19.90    8.10
   3  -1   1   15.00    9.30
  -4   1  -1  550.04   34.70
  -4   1  -1  554.64   22.10
  -4   1  -1  523.85   34.60
   4  -1   1  553.74   34.80
   4  -1   1  589.14   36.80
  -5   1  -1   37.80   13.00
  -5   1  -1   27.90    6.90
  -5   1  -1   47.00   15.60
   5  -1   1   21.40   11.60
   5  -1   1   15.10   10.50
  -6   1  -1  397.56   19.00
  -6   1  -1  378.16   39.80
  -6   1  -1  400.16   36.60
  -7   1  -1  129.29   31.90
  -7   1  -1   98.29   26.00
  -7   1  -1  155.98   29.00
   7  -1   1  149.19   32.50
   7  -1   1  121.59   29.00
  -8   1  -1   48.20   31.30
  -8   1  -1   61.09   29.90
  -8   1  -1   34.60   28.90
   8  -1   1   21.10   26.30
   8  -1   1   -1.80   28.30
   8   0  -1  112.19   36.00
   8   0  -1   78.09   35.70
   8   0  -1  147.89   40.00
  -8   0   1   99.79   40.40
  -8   0   1  127.39   37.40
  -8   0   1   91.69   27.90
   7   0  -1  241.48   38.20
   7   0  -1  341.97   47.50
   7   0  -1  321.07   47.80
  -7   0   1  292.17   29.80
  -7   0   1  254.57   41.70
   6   0  -1  -21.60   10.10
   6   0  -1   19.60   16.60
   6   0  -1   15.90   16.70
  -6   0   1    4.40   15.70
  -6   0   1    9.30    9.30
   5   0  -1   -1.40   11.50
   5   0  -1   -0.90    8.80
   5   0  -1   -3.10   10.90
  -5   0   1    2.40   11.90
  -5   0   1    1.70    5.10
  -5   0   1   -2.50    7.60
  -5   0   1   11.50   11.20
   4   0  -1   19.10    5.90
   4   0  -1   13.80   10.50
   4   0  -1   21.70   11.30
  -4   0   1    4.50    9.30
  -4   0   1   30.70   11.70
  -4   0   1   19.90    6.70
  -4   0   1   18.90    8.70
   3   0  -1    5.30    8.60
   3   0  -1    0.90    3.90
   3   0  -1    3.40    7.50
  -3   0   1    3.90    7.20
  -3   0   1   13.00    5.80
  -3   0   1    4.00    4.30
  -3   0   1    9.60    8.10
   2   0  -1 1332.07   43.80
   2   0  -1 1408.86   43.10
   2   0  -1 1290.87   33.10
  -2   0   1 1437.76   43.50
  -2   0   1 1365.86   43.60
  -2   0   1 1461.15   35.10
   1   0  -1  154.68   11.60
   1   0  -1  137.49   10.30
   1   0  -1  119.89   10.50
   1   0  -1  140.99    9.70
  -1   0   1  145.59   11.00
  -1   0   1  124.39    9.70
  -1   0   1  127.39    9.90
  -1   0   1  145.59    9.90
   0   0  -1  121.29    7.90
   0   0  -1  107.29    7.10
   0   0   1   81.69    7.50
  -1   0  -1  314.77   12.80
  -1   0  -1  331.57   12.00
  -1   0  -1  312.67   14.00
   1   0   1  320.77   14.60
   1   0   1  300.07   11.40
   1   0   1  313.17   14.30
  -3   0  -1  400.86   27.30
  -3   0  -1  424.06   11.50
  -3   0  -1  429.46   24.60
   3   0   1  425.26   28.00
   3   0   1  401.06   23.90
   3   0   1  365.66   23.00
  -4   0  -1 3819.32   58.09
  -4   0  -1 3893.81   91.89
  -4   0  -1 3846.02  102.89
   4   0   1 3849.91   95.59
   4   0   1 3841.52   92.69
   4   0   1 4034.40  105.39
  -5   0  -1   74.29   16.00
  -5   0  -1   63.39   17.20
  -5   0  -1   46.70   17.60
   5   0   1   57.89   16.10
   5   0   1   61.39   16.50
  -6   0  -1  992.10   50.89
  -6   0  -1  957.80   74.49
  -6   0  -1 1124.59   63.19
   6   0   1  946.11   55.79
  -7   0  -1   -7.70   14.00
  -7   0  -1   30.50   18.60
   7   0   1    1.70    5.20
   7   0   1  -17.90   15.50
   7   0   1    4.20   13.70
  -8   0  -1  181.18   28.50
  -8   0  -1  210.18   33.10
  -8   0  -1   89.49   35.10
  -8   0  -1  254.37   46.10
   8   0   1  247.48   44.30
   8   0   1  197.78   38.40
   8  -1  -1   86.99   41.60
   8  -1  -1  211.68   44.50
   8  -1  -1  200.18   40.30
  -8   1   1  231.08   43.80
  -8   1   1  162.18   36.50
  -8   1   1  133.99   31.40
   7  -1  -1   -8.50   14.30
   7  -1  -1   28.50   22.10
   7  -1  -1   41.00   23.70
  -7   1   1  -15.50   19.60
  -7   1   1   11.90    8.50
  -7   1   1   20.00   17.70
  -7   1   1   28.60   17.70
   6  -1  -1  163.78   31.40
   6  -1  -1  158.78   28.70
  -6   1   1  133.69   16.60
  -6   1   1  167.08   27.40
  -6   1   1  158.18   30.60
  -6   1   1  149.69   29.40
   5  -1  -1   11.20   13.10
   5  -1  -1   -2.50    5.60
   5  -1  -1  -18.40    8.70
  -5   1   1    8.00   10.60
  -5   1   1  -18.60    9.60
  -5   1   1    7.40    6.60
  -5   1   1  -11.40    9.60
   4  -1  -1    7.60    7.70
   4  -1  -1   12.20    3.00
   4  -1  -1   18.30    6.70
   4  -1  -1    5.90    9.80
  -4   1   1    4.10    6.70
  -4   1   1    7.70    7.80
  -4   1   1   20.90    9.50
   3  -1  -1   12.30    3.50
   3  -1  -1    0.70    6.60
   3  -1  -1   15.20    6.20
   3  -1  -1    8.30    8.60
  -3   1   1   -2.40    5.00
  -3   1   1   18.20    6.70
  -3   1   1    2.80    6.80
   2  -1  -1  194.88   16.20
   2  -1  -1  181.88   16.20
   2  -1  -1  164.48   12.50
   2  -1  -1  165.38    9.50
  -2   1   1  203.78   17.60
  -2   1   1  199.48   14.00
   1  -1  -1 2410.96   51.09
   1  -1  -1 2421.56   48.60
   1  -1  -1 2369.06   51.29
   1  -1  -1 2407.06   44.40
  -1   1   1 2422.36   51.49
  -1   1   1 2423.56   48.60
  -1   1   1 2340.87   51.09
  -1   1   1 2322.97   44.00
   0  -1  -1  235.08    9.90
   0   1   1  239.68   11.20
   0   1   1  220.58   11.60
   0   1   1  250.37   10.00
  -1  -1  -1  539.15   14.90
  -1  -1  -1  523.55   21.10
  -1  -1  -1  558.34   18.50
  -1  -1  -1  530.55   20.90
  -1  -1  -1  497.75   17.60
   1   1   1  547.15   18.40
   1   1   1  535.15   18.00
   1   1   1  520.15   20.50
   1   1   1  528.85   19.50
   1   1   1  510.55   14.60
  -2  -1  -1  551.14   21.90
  -2  -1  -1  574.34   21.90
  -2  -1  -1  585.94   29.00
  -2  -1  -1  573.64   26.30
   2   1   1  572.04   22.00
   2   1   1  573.24   27.00
   2   1   1  560.64   12.10
  -3  -1  -1  182.78   20.80
  -3  -1  -1  188.48   15.50
  -3  -1  -1  196.38   20.00
   3   1   1  224.18   21.20
   3   1   1  196.08   16.00
  -4  -1  -1  159.28   24.50
  -4  -1  -1  116.59   15.60
  -4  -1  -1  140.19   21.50
  -4  -1  -1  129.19   16.40
   4   1   1  141.89   17.60
   4   1   1  130.39   22.00
  -5  -1  -1   27.90   11.50
  -5  -1  -1   11.40   11.10
  -5  -1  -1   24.40   15.20
  -5  -1  -1   10.10    8.70
   5   1   1   19.50   12.50
   5   1   1   24.70   10.40
  -6  -1  -1   83.19   19.80
  -6  -1  -1   65.39   16.70
  -6  -1  -1   90.19   18.00
   6   1   1   66.99   18.40
   6   1   1   62.09   11.70
  -7  -1  -1    8.70   15.30
  -7  -1  -1   56.29   21.30
  -7  -1  -1   51.39   16.10
  -7  -1  -1   46.90   17.70
   7   1   1   22.60   21.90
   7   1   1   51.29    8.00
   7   1   1   21.00   18.00
  -8  -1  -1  254.97   49.80
  -8  -1  -1  256.67   61.79
  -8  -1  -1  253.47   46.70
   8   1   1  340.67   52.29
   8   1   1  252.27   42.90
   8   1   1  191.18   42.60
   8  -2  -1   43.10   28.70
   8  -2  -1  -11.20   21.00
  -8   2   1   -5.20   28.90
  -8   2   1   -9.60   10.60
  -8   2   1   12.60   26.60
  -8   2   1  -11.70   23.30
   7  -2  -1  408.16   53.79
   7  -2  -1  397.36   43.60
  -7   2   1  351.56   48.90
  -7   2   1  392.26   53.19
  -7   2   1  401.46   29.20
  -7   2   1  408.16   41.80
   6  -2  -1   15.90   14.00
   6  -2  -1   -3.90   14.40
  -6   2   1   37.90   18.10
  -6   2   1   11.00   13.10
  -6   2   1   -5.70    8.00
   5  -2  -1  274.97   35.90
   5  -2  -1  299.37   32.60
   5  -2  -1  261.57   16.70
  -5   2   1  214.68   31.20
  -5   2   1  281.07   22.70
  -5   2   1  280.57   28.60
   4  -2  -1  267.47   26.20
   4  -2  -1  276.37   17.50
   4  -2  -1  304.97   29.20
  -4   2   1  264.17   24.60
  -4   2   1  288.87   21.90
  -4   2   1  270.27   26.70
   3  -2  -1   98.79   14.00
   3  -2  -1   98.19   17.40
   3  -2  -1  104.49   11.40
   3  -2  -1   85.69   16.40
  -3   2   1  115.69   18.20
  -3   2   1  106.29   14.40
  -3   2   1   97.49   17.60
   2  -2  -1  833.52   42.50
   2  -2  -1  816.82   31.80
   2  -2  -1  850.91   36.60
   2  -2  -1  847.92   30.40
  -2   2   1  858.41   34.10
   1  -2  -1 2254.57   66.19
   1  -2  -1 2233.38   50.79
   1  -2  -1 2349.56   54.99
  -1   2   1 2361.46   56.49
  -1   2   1 2347.97   55.29
  -1   2   1 2357.36   54.99
  -1   2   1 2262.07   50.89
   0  -2  -1    4.40    2.60
   0  -2  -1    5.70    4.70
   0  -2  -1    1.50    4.60
   0  -2  -1   -4.80    4.80
   0   2   1    7.60    2.80
   0   2   1    6.20    5.10
   0   2   1   -0.70    5.60
   0   2   1    4.70    4.10
  -1  -2  -1 3113.99   66.99
  -1  -2  -1 3146.69   68.79
   1   2   1 3093.09   68.39
   1   2   1 3251.37   67.89
   1   2   1 3232.18   61.89
   1   2   1 3279.47   63.69
   1   2   1 3240.88   61.19
   1   2   1 3180.38   70.89
  -2  -2  -1  348.97   24.70
  -2  -2  -1  344.97   22.00
  -2  -2  -1  315.77   26.30
  -2  -2  -1  376.16   26.80
   2   2   1  340.47   26.00
   2   2   1  376.96   24.90
   2   2   1  366.86   21.60
   2   2   1  363.26   17.60
   2   2   1  372.26   21.50
  -3  -2  -1  919.61   41.00
  -3  -2  -1  867.71   36.50
  -3  -2  -1  901.81   31.10
  -3  -2  -1  811.32   43.40
  -3  -2  -1  882.71   42.00
   3   2   1  868.51   30.50
   3   2   1  952.80   41.70
   3   2   1  958.50   35.30
   3   2   1  856.81   43.90
  -4  -2  -1  325.77   25.10
  -4  -2  -1  404.86   34.80
  -4  -2  -1  303.67   28.60
  -4  -2  -1  357.86   21.90
   4   2   1  332.27   21.20
   4   2   1  335.77   26.30
   4   2   1  323.17   11.70
   4   2   1  315.97   29.00
   4   2   1  327.37   12.10
  -5  -2  -1   97.49   15.60
  -5  -2  -1   69.89   20.30
  -5  -2  -1  102.29   19.60
  -5  -2  -1   78.79   20.60
   5   2   1  118.39   22.10
   5   2   1  148.09   26.20
   5   2   1   81.89   13.30
   5   2   1   84.59   14.20
  -6  -2  -1   50.39   22.80
  -6  -2  -1  108.89   21.00
  -6  -2  -1  104.99   25.10
  -6  -2  -1   83.89   16.80
   6   2   1   45.50   18.00
   6   2   1   75.29   12.70
   6   2   1   55.49   22.10
  -7  -2  -1  289.67   28.80
  -7  -2  -1  341.97   47.30
  -7  -2  -1  301.37   35.80
  -7  -2  -1  242.98   42.30
   7   2   1  316.57   42.30
   7   2   1  402.36   53.29
   7   2   1  307.97   45.70
  -8  -2  -1   24.70   20.00
  -8  -2  -1   -7.30   30.00
  -8  -2  -1    3.80   23.40
  -8  -2  -1  -10.00   15.40
   8   2   1   25.40   30.70
   8   2   1   -3.80   29.70
   8   2   1   22.10   25.50
   8  -3  -1   13.10   23.80
  -8   3   1  -47.20   25.20
  -8   3   1    9.50   15.60
  -8   3   1   -3.60   24.70
   7  -3  -1   19.00   26.30
   7  -3  -1   24.00   24.00
  -7   3   1   21.40   23.40
  -7   3   1   39.80   14.80
  -7   3   1   30.70   19.20
   6  -3  -1   60.09   20.10
   6  -3  -1   49.20   20.70
   6  -3  -1   21.00    9.60
  -6   3   1   26.20   12.90
  -6   3   1   22.70   18.00
  -6   3   1   33.80   16.20
   5  -3  -1  948.81   39.90
   5  -3  -1  887.71   54.79
   5  -3  -1  902.61   56.59
  -5   3   1  917.31   44.90
  -5   3   1  902.51   52.39
  -5   3   1  976.30   55.89
   4  -3  -1  227.28   20.50
   4  -3  -1  250.87   31.80
   4  -3  -1  203.78   26.80
  -4   3   1  211.08   28.60
  -4   3   1  266.87   23.40
  -4   3   1  236.98   26.10
  -4   3   1  217.18   29.60
   3  -3  -1 1972.00   58.69
   3  -3  -1 1947.81   64.19
   3  -3  -1 1819.42   66.59
  -3   3   1 1922.01   68.09
  -3   3   1 1941.31   63.09
  -3   3   1 1851.51   59.89
   2  -3  -1  303.27   22.40
   2  -3  -1  275.67   22.60
  -2   3   1  278.47   20.40
  -2   3   1  247.08   21.10
  -2   3   1  278.47   24.20
   1  -3  -1   69.29   13.30
   1  -3  -1   67.29    8.50
   1  -3  -1   57.49   11.40
  -1   3   1   63.49   12.00
  -1   3   1   66.89   12.50
  -1   3   1   57.39   11.60
  -1   3   1   51.19    8.60
   0  -3  -1    9.70    6.30
   0  -3  -1    3.20    6.60
   0  -3  -1   13.60    7.10
   0  -3  -1   11.30    4.50
   0   3   1    5.50    7.60
   0   3   1   12.60    4.50
   0   3   1    2.40    6.50
   0   3   1    8.80    6.60
  -1  -3  -1   18.50    8.30
  -1  -3  -1    5.40    8.20
  -1  -3  -1   21.90    7.30
   1   3   1    8.00    8.40
   1   3   1   17.60    6.70
   1   3   1   11.30    6.60
   1   3   1   16.80    5.50
   1   3   1   13.40    7.90
  -2  -3  -1 3231.38   81.69
  -2  -3  -1 3050.59   78.39
  -2  -3  -1 3185.08   79.89
   2   3   1 3123.99   79.29
   2   3   1 3017.90   70.79
   2   3   1 3002.30   76.99
   2   3   1 3196.78   66.19
   2   3   1 3081.39   75.39
   2   3   1 3105.49   76.49
   2   3   1 3200.28   87.69
  -3  -3  -1  103.49   17.70
  -3  -3  -1  109.29   22.60
  -3  -3  -1   98.99   17.10
  -3  -3  -1   92.39   19.30
   3   3   1  110.39   11.90
   3   3   1  101.89   16.50
   3   3   1   94.89   16.60
   3   3   1   93.29   16.40
   3   3   1   75.99   14.40
   3   3   1  131.59   21.70
  -4  -3  -1 1032.60   48.50
  -4  -3  -1 1056.89   57.29
  -4  -3  -1 1027.10   49.50
   4   3   1 1022.30   36.30
   4   3   1 1081.09   53.39
   4   3   1  982.00   56.09
   4   3   1 1050.39   51.29
   4   3   1 1048.80   43.00
  -5  -3  -1    8.90    6.90
  -5  -3  -1    1.60   12.90
  -5  -3  -1   -8.10    8.50
  -5  -3  -1   13.10   11.10
   5   3   1    1.80    6.60
   5   3   1    9.40    4.80
   5   3   1    3.20    4.10
   5   3   1   -7.90   11.60
   5   3   1   13.80   11.10
   5   3   1    0.10    8.00
  -6  -3  -1    7.90    9.20
  -6  -3  -1    3.80   13.10
  -6  -3  -1  -10.30   19.60
  -6  -3  -1   -0.20   13.00
   6   3   1   42.10   18.60
   6   3   1   13.10    9.60
   6   3   1   12.00    9.50
   6   3   1   -7.60   15.20
  -7  -3  -1  114.89   34.10
  -7  -3  -1   96.99   18.30
  -7  -3  -1   95.89   32.10
  -7  -3  -1  105.79   25.40
   7   3   1   55.49   24.80
   7   3   1   63.59   24.70
  -8  -3  -1  -21.30   20.70
  -8  -3  -1   -6.20   35.20
  -8  -3  -1   10.90   29.00
  -8  -3  -1   19.00   15.40
   8   3   1   54.79   31.70
   8   3   1   12.70   25.70
   8   3   1   19.00   22.90
   7  -4  -1   58.09   30.00
   7  -4  -1   66.49   32.60
   7  -4  -1   62.19   16.60
  -7   4   1   22.60   28.90
  -7   4   1   52.39   24.30
  -7   4   1   82.59   21.80
   6  -4  -1   85.79   18.30
   6  -4  -1   51.09   26.10
   6  -4  -1   71.89   21.70
  -6   4   1   87.89   23.20
  -6   4   1   71.29   19.00
   5  -4  -1  165.28   29.00
   5  -4  -1  164.88   23.10
  -5   4   1  175.88   31.20
  -5   4   1  191.98   32.00
  -5   4   1  147.59   27.10
  -5   4   1  153.18   24.00
   4  -4  -1 1617.74   72.69
   4  -4  -1 1640.14   66.89
   4  -4  -1 1571.44   60.99
  -4   4   1 1667.23   64.29
  -4   4   1 1724.83   74.19
  -4   4   1 1646.64   73.69
  -4   4   1 1595.14   64.59
   3  -4  -1  203.48   25.30
   3  -4  -1  179.28   23.10
   3  -4  -1  201.78   27.20
  -3   4   1  215.18   21.20
  -3   4   1  201.18   28.70
  -3   4   1  193.98   24.40
   2  -4  -1  144.59   21.40
   2  -4  -1  140.99   19.80
   2  -4  -1  178.38   24.80
   2  -4  -1  153.18   19.40
  -2   4   1  166.28   22.70
  -2   4   1  195.98   20.60
  -2   4   1  145.39   15.30
   1  -4  -1   41.40    8.00
   1  -4  -1   32.60   12.30
   1  -4  -1   40.30   11.20
   1  -4  -1   58.49   12.10
  -1   4   1   31.80   10.00
  -1   4   1   37.80    7.50
  -1   4   1   51.99   14.60
   0  -4  -1   77.29   10.70
   0  -4  -1   70.59   13.20
   0  -4  -1   51.59   14.60
   0  -4  -1   56.89   13.70
   0   4   1   92.69   17.40
   0   4   1   65.99    7.30
   0   4   1   69.09   10.60
   0   4   1   58.89   13.90
   0   4   1   75.19   16.70
   0   4   1   93.99   15.50
  -1  -4  -1  503.35   28.60
  -1  -4  -1  538.85   34.50
  -1  -4  -1  542.95   26.90
   1   4   1  545.65   31.90
   1   4   1  491.65   33.20
   1   4   1  462.25   20.10
   1   4   1  511.65   32.60
  -2  -4  -1  554.84   35.40
  -2  -4  -1  568.34   34.40
   2   4   1  539.15   33.30
   2   4   1  557.34   31.50
   2   4   1  513.45   31.50
   2   4   1  564.84   29.50
   2   4   1  516.25   33.30
   2   4   1  612.14   37.20
   2   4   1  590.24   38.20
  -3  -4  -1  483.15   36.40
  -3  -4  -1  492.05   34.10
   3   4   1  563.64   32.20
   3   4   1  491.35   34.40
   3   4   1  481.65   25.40
   3   4   1  559.64   41.80
   3   4   1  471.65   32.70
   3   4   1  514.25   35.50
   3   4   1  523.85   35.40
  -4  -4  -1 1091.49   54.79
   4   4   1 1059.79   52.09
   4   4   1  990.40   60.49
   4   4   1 1152.78   42.90
   4   4   1 1221.08   59.69
   4   4   1 1064.19   49.70
  -5  -4  -1  193.08   29.70
  -5  -4  -1  227.48   32.90
   5   4   1  233.98   33.20
   5   4   1  134.19   29.10
   5   4   1  188.58   25.30
   5   4   1  208.18   17.60
  -6  -4  -1   49.10   23.00
  -6  -4  -1   27.90   21.60
  -6  -4  -1   34.20   19.80
   6   4   1   53.29    8.60
   6   4   1   78.79   23.60
   6   4   1   28.50   21.10
   6   4   1   39.50   12.50
   6   4   1   49.80   11.20
  -7  -4  -1   95.49   27.10
  -7  -4  -1   76.59   31.90
  -7  -4  -1   29.70   27.00
   7   4   1   82.79   27.70
   7   4   1   36.90   20.10
   7  -5  -1  -19.60   28.70
   7  -5  -1   28.20   28.50
   7  -5  -1   14.50   16.20
  -7   5   1   19.10   25.10
  -7   5   1  -12.90   19.20
  -7   5   1  -32.50   30.00
   6  -5  -1   22.90   20.00
   6  -5  -1    5.00   14.50
   6  -5  -1  -13.00   17.20
  -6   5   1   11.10   18.70
  -6   5   1  -32.30   14.40
  -6   5   1    0.60   22.70
   5  -5  -1  496.25   43.50
   5  -5  -1  435.36   39.30
  -5   5   1  537.25   50.79
  -5   5   1  595.94   44.30
  -5   5   1  629.54   44.70
   4  -5  -1  293.57   31.20
   4  -5  -1  393.56   31.40
   4  -5  -1  260.17   31.50
  -4   5   1  246.88   30.00
  -4   5   1  246.88   32.30
  -4   5   1  324.47   35.30
   3  -5  -1  448.86   31.20
   3  -5  -1  483.05   30.20
   3  -5  -1  499.75   39.30
   3  -5  -1  474.95   37.80
  -3   5   1  489.45   31.00
  -3   5   1  515.25   37.60
  -3   5   1  407.16   38.90
   2  -5  -1   72.99   18.70
   2  -5  -1   70.79   12.40
   2  -5  -1   90.59   20.20
  -2   5   1   73.09   17.90
  -2   5   1   88.19   19.10
  -2   5   1   57.49   11.30
   1  -5  -1   34.90    8.90
   1  -5  -1   29.30   13.40
   1  -5  -1   50.79   12.10
   1  -5  -1   46.20   15.00
  -1   5   1   40.10    7.40
  -1   5   1   44.40   14.20
  -1   5   1   43.20   13.10
   0  -5  -1  287.17   20.00
   0  -5  -1  313.97   28.60
   0  -5  -1  255.37   26.80
   0  -5  -1  300.87   22.90
   0   5   1  353.46   30.10
   0   5   1  286.47   12.70
   0   5   1  287.47   27.80
   0   5   1  272.17   26.50
   0   5   1  231.98   23.50
  -1  -5  -1   52.89   12.30
  -1  -5  -1   23.30   13.90
  -1  -5  -1   46.60   13.30
   1   5   1   34.40   11.00
   1   5   1   38.00   13.00
   1   5   1   41.60    7.00
   1   5   1   59.39   14.80
   1   5   1   34.90   12.80
  -2  -5  -1  -13.60   10.40
  -2  -5  -1    2.00    7.90
   2   5   1    5.70    8.30
   2   5   1   -2.80    7.10
   2   5   1    9.90    6.60
   2   5   1   -3.80   12.00
   2   5   1   -0.50    9.50
   2   5   1   -7.20    9.50
  -3  -5  -1  536.95   40.70
   3   5   1  478.85   26.90
   3   5   1  586.74   40.30
   3   5   1  524.95   44.80
   3   5   1  517.55   38.30
   3   5   1  525.75   32.70
   3   5   1  553.54   41.70
   3   5   1  464.05   36.70
  -4  -5  -1  222.38   32.80
   4   5   1  169.68   28.00
   4   5   1  182.98   29.40
   4   5   1  156.38   31.30
   4   5   1  173.88   26.10
   4   5   1  148.59   17.90
   4   5   1  127.89   22.10
  -5  -5  -1  114.99   27.60
   5   5   1   99.99   16.70
   5   5   1  127.19   25.70
   5   5   1  175.78   26.00
   5   5   1  113.39   27.80
  -6  -5  -1   33.80   20.70
   6   5   1   71.79   22.70
   6   5   1   86.79   15.50
   6   5   1   71.69   30.70
   6   5   1  104.59   16.10
   6   5   1  147.19   30.50
  -7  -5  -1  -13.20   21.10
   7   5   1    1.30    5.50
   7   5   1  -26.60   18.30
   7   5   1  -39.70   22.90
   7   5   1  -10.20    6.00
   6  -6  -1  413.46   56.69
   6  -6  -1  390.46   45.70
   6  -6  -1  379.76   48.30
   6  -6  -1  465.65   44.90
  -6   6   1  385.26   49.10
  -6   6   1  348.67   56.89
  -6   6   1  387.16   46.00
  -6   6   1  339.97   52.59
   5  -6  -1  366.06   39.70
   5  -6  -1  464.65   56.49
   5  -6  -1  364.76   37.60
   5  -6  -1  407.66   56.09
  -5   6   1  435.46   42.70
  -5   6   1  424.36   39.90
  -5   6   1  321.17   48.80
  -5   6   1  385.66   52.39
   4  -6  -1  778.72   55.59
   4  -6  -1  694.03   43.50
   4  -6  -1  691.23   41.30
  -4   6   1  723.63   58.39
  -4   6   1  725.43   52.09
  -4   6   1  734.03   43.70
   3  -6  -1  274.37   24.90
   3  -6  -1  299.17   41.60
   3  -6  -1  255.77   36.50
  -3   6   1  231.68   35.00
  -3   6   1  258.27   37.60
  -3   6   1  277.77   24.20
   2  -6  -1   -1.60    7.20
   2  -6  -1   19.30   15.40
   2  -6  -1   11.10   11.90
   2  -6  -1   24.20   11.80
  -2   6   1    4.40    6.70
  -2   6   1   13.50   13.80
  -2   6   1   19.20   15.20
   1  -6  -1   65.79   16.70
   1  -6  -1   81.89   21.80
   1  -6  -1  102.39   22.20
   1  -6  -1   94.89   15.70
  -1   6   1   54.59   16.20
  -1   6   1   73.39   20.50
  -1   6   1   89.99   22.20
  -1   6   1   70.89    7.50
   0  -6  -1  267.57   33.30
   0  -6  -1  228.18   31.60
   0  -6  -1  240.18   21.30
   0  -6  -1  224.78   23.20
   0   6   1  229.78   32.60
   0   6   1  292.07   29.30
   0   6   1  210.08   30.40
   0   6   1  232.18   21.70
  -1  -6  -1   51.79   14.50
  -1  -6  -1   30.90   16.20
  -1  -6  -1   54.09   13.70
   1   6   1   27.00   12.20
   1   6   1   36.80   14.90
   1   6   1   28.00    5.00
   1   6   1   24.90   12.40
  -2  -6  -1  437.86   38.80
  -2  -6  -1  447.76   36.70
   2   6   1  466.35   42.70
   2   6   1  524.95   40.80
   2   6   1  417.26   40.20
   2   6   1  435.66   23.20
   2   6   1  473.15   35.00
  -3  -6  -1   34.30   14.90
  -3  -6  -1   22.90   15.90
   3   6   1    5.70    8.10
   3   6   1   36.80   12.00
   3   6   1   -8.10   15.00
   3   6   1   15.50   15.50
   3   6   1   24.40   13.80
   3   6   1   22.20   14.90
   4   6   1  108.89   27.70
   4   6   1   91.79   21.60
   4   6   1   86.59   14.40
   4   6   1  100.79   26.20
   4   6   1  147.09   27.80
   4   6   1   84.79   19.30
   5   6   1   97.29   32.20
   5   6   1  111.29   21.70
   5   6   1  134.79   29.80
   5   6   1  110.99   20.70
   5   6   1  121.79   24.10
   5   6   1   76.59   24.20
  -6  -6  -1  -21.00   22.90
   6   6   1   25.00   32.80
   6   6   1   39.20   28.20
   6   6   1  -22.20   20.00
   6   6   1   -4.00   22.80
   6   6   1    9.30   13.70
   5  -7  -1  160.08   35.30
   5  -7  -1  135.69   37.00
   5  -7  -1  153.98   27.30
  -5   7   1  203.68   44.40
  -5   7   1  156.28   37.60
  -5   7   1  185.88   37.50
  -5   7   1  204.68   34.00
   4  -7  -1  335.37   47.20
   4  -7  -1  226.08   41.90
   4  -7  -1  264.67   30.30
  -4   7   1  271.37   28.90
  -4   7   1  234.28   40.80
  -4   7   1  164.58   34.60
  -4   7   1  246.38   44.20
   3  -7  -1  103.59   24.50
   3  -7  -1   73.39   23.50
   3  -7  -1   57.19   15.40
   3  -7  -1   55.19   17.40
  -3   7   1   52.99   13.30
  -3   7   1   94.79   25.50
  -3   7   1   55.99   22.70
  -3   7   1   62.69   21.80
   2  -7  -1  312.47   27.50
   2  -7  -1  321.87   26.40
   2  -7  -1  209.28   36.30
  -2   7   1  316.77   41.50
  -2   7   1  343.97   35.40
  -2   7   1  307.47   16.20
  -2   7   1  281.87   39.30
   1  -7  -1   40.10   21.70
   1  -7  -1   21.00   14.30
   1  -7  -1   47.80   20.50
   1  -7  -1   64.59   13.10
  -1   7   1   41.90   18.10
  -1   7   1   35.40   19.70
  -1   7   1   46.50   19.20
   0  -7  -1   98.39   16.80
   0  -7  -1   86.69   19.90
   0  -7  -1   89.39   21.30
   0  -7  -1   79.89   24.20
   0   7   1   80.29   16.10
   0   7   1   93.59   24.00
   0   7   1   74.79   19.50
   0   7   1   96.09   25.90
  -1  -7  -1  167.68   24.30
  -1  -7  -1  201.28   29.60
  -1  -7  -1  181.88   32.70
   1   7   1  197.38   25.90
   1   7   1  140.39   28.10
   1   7   1  146.99   28.90
  -2  -7  -1   66.99   24.50
  -2  -7  -1   84.49   23.20
   2   7   1   46.00   17.80
   2   7   1  106.19   24.80
   2   7   1   69.49    9.00
   2   7   1   67.59   24.50
   2   7   1   47.50   16.90
   3   7   1  124.99   34.30
   3   7   1  129.19   31.10
   3   7   1   60.19   19.80
   3   7   1   64.89   14.80
   3   7   1  104.99   16.60
   3   7   1  108.39   26.20
   3   7   1   90.39   21.80
   4   7   1  183.28   25.10
   4   7   1  158.18   31.90
   4   7   1  169.88   34.80
   4   7   1  125.09   37.30
   4   7   1  121.79   30.70
   4   7   1  192.98   36.10
   4   7   1  173.58   21.60
   5   7   1  206.38   47.50
   5   7   1  101.09   44.10
   5   7   1  120.49   26.20
   5   7   1  178.88   36.60
   5   7   1  245.88   39.40
   5   7   1  141.59   15.90
   4  -8  -1  -37.00   21.70
   4  -8  -1   10.70   15.30
   4  -8  -1   -2.10   31.80
   4  -8  -1   19.40   18.70
  -4   8   1   -8.00   23.40
  -4   8   1   26.10   14.60
  -4   8   1   -4.30   27.50
  -4   8   1  -34.90   23.20
  -4   8   1   29.40   26.70
   3  -8  -1   19.20   23.20
   3  -8  -1   -1.50   12.90
   3  -8  -1  -12.40   20.60
   3  -8  -1   -4.20   15.60
  -3   8   1   19.90   25.90
  -3   8   1   30.70   21.10
  -3   8   1   35.10   24.80
  -3   8   1   17.20   29.00
   2  -8  -1  130.19   34.90
   2  -8  -1  154.88   23.70
   2  -8  -1  111.09   19.70
   2  -8  -1   85.89   32.10
  -2   8   1  139.39   33.40
  -2   8   1  147.49   35.90
  -2   8   1  129.39   31.70
  -2   8   1   64.09   29.00
   1  -8  -1  255.17   40.10
   1  -8  -1  219.18   38.20
   1  -8  -1  287.57   29.50
   1  -8  -1  270.77   27.10
  -1   8   1  247.28   40.60
  -1   8   1  257.37   41.50
  -1   8   1  282.77   42.20
   0  -8  -1  626.24   55.39
   0  -8  -1  640.84   39.80
   0  -8  -1  610.74   54.89
   0  -8  -1  579.34   40.10
   0   8   1  581.14   38.90
   0   8   1  610.04   58.09
   0   8   1  670.73   55.29
   0   8   1  595.14   54.59
  -1  -8  -1  133.49   26.90
  -1  -8  -1  117.89   31.90
   1   8   1  142.69   29.90
   1   8   1  108.79   21.30
   1   8   1  125.49   33.10
   1   8   1  144.09   32.80
  -2  -8  -1  107.59   32.20
  -2  -8  -1  176.68   32.30
   2   8   1  145.89   28.10
   2   8   1  127.59   38.40
   2   8   1  127.19   31.80
   2   8   1   86.49   26.00
   2   8   1  128.09   30.10
   3   8   1  -32.40   17.50
   3   8   1    0.50   18.80
   3   8   1   -1.30    6.20
   3   8   1    1.70   24.80
   3   8   1  -13.40   34.60
   3   8   1  -17.50   12.10
   3   8   1  -18.80   19.50
   4   8   1    2.50   26.00
   4   8   1   -4.70   12.70
   4   8   1    5.70   24.10
   4   8   1    9.30   13.60
   4   8   1   -0.20   19.50
   4   8   1  -37.10   21.30
  -2   9   1  311.37   51.99
   1  -9  -1  565.64   62.29
   1  -9  -1  570.64   38.70
   1  -9  -1  611.04   41.30
   1  -9  -1  621.44   66.09
  -1   9   1  689.23   65.19
  -1   9   1  515.85   61.19
  -1   9   1  483.95   61.49
  -1   9   1  722.43   62.89
   0  -9  -1  276.67   34.30
   0  -9  -1  182.18   43.50
   0  -9  -1  221.28   28.50
   0   9   1   77.39   61.99
   0   9   1  206.78   37.90
   0   9   1  174.78   41.00
   0   9   1  320.87   49.20
  -1  -9  -1  288.17   39.70
  -1  -9  -1  277.97   52.09
   1   9   1  239.68   44.80
   1   9   1  205.48   36.50
   1   9   1  207.78   49.90
   1   9   1  210.48   31.70
   2   8  -2   67.99   26.20
   2   8  -2   31.90   23.30
   2   8  -2  -15.60   14.20
   2   8  -2   36.70   37.90
  -2  -8   2    8.40   26.20
  -2  -8   2   14.30   24.80
   1   8  -2   17.50   28.00
   1   8  -2  -21.30   24.70
   1   8  -2   54.09   22.50
   1   8  -2   -4.90   18.40
  -1  -8   2   29.10   24.40
  -1  -8   2   -2.10   18.80
   0   8  -2   71.89   30.50
   0   8  -2   72.49   35.20
   0   8  -2   96.29   26.40
   0   8  -2   68.59   25.30
   0  -8   2  115.69   38.00
  -1   8  -2   22.20   22.80
  -1   8  -2   63.99   29.20
  -1   8  -2   40.50   24.20
   1  -8   2   11.70   20.70
   1  -8   2   -0.50   22.90
  -2   8  -2  113.19   32.90
  -2   8  -2  125.39   44.90
  -2   8  -2  117.39   35.10
   2  -8   2   92.79   27.70
   2  -8   2  114.29   32.50
   2  -8   2   53.09   31.40
  -3   8  -2   46.20   29.70
  -3   8  -2   15.90   32.80
  -3   8  -2   17.30   23.90
  -3   8  -2    4.30   21.80
   3  -8   2  -14.70   25.00
   4   7  -2  -19.70   24.40
   4   7  -2    0.20   33.70
   4   7  -2   18.20   29.20
  -4  -7   2   57.09   26.90
  -4  -7   2  -15.70   26.60
   3   7  -2   61.69    8.10
   3   7  -2   88.19   30.10
   3   7  -2   68.49   23.10
   3   7  -2   40.80   34.70
   3   7  -2   77.09    9.20
  -3  -7   2  107.19   30.50
  -3  -7   2  122.59   31.10
   2   7  -2  -11.60   16.90
   2   7  -2   22.00   12.10
   2   7  -2   29.00   24.00
   2   7  -2   -6.10   19.40
  -2  -7   2   24.00   20.60
   1   7  -2  677.83   53.09
   1   7  -2  758.12   60.29
   1   7  -2  792.22   56.29
   1   7  -2  719.33   44.70
  -1  -7   2  751.52   54.79
  -1  -7   2  674.53   55.69
   0   7  -2   87.09   25.10
   0   7  -2   64.49   26.90
   0   7  -2   88.79   22.60
   0   7  -2   82.19   22.50
   0  -7   2   72.99   22.20
   0  -7   2   38.80   22.80
  -1   7  -2  654.43   49.40
  -1   7  -2  775.42   52.29
  -1   7  -2  796.22   61.99
   1  -7   2  646.14   55.19
   1  -7   2  643.04   69.89
  -2   7  -2   30.70   23.90
  -2   7  -2   70.09   23.80
   2  -7   2   26.30   18.30
   2  -7   2   50.19   24.70
   2  -7   2   47.50   21.80
  -3   7  -2  178.48   36.90
  -3   7  -2  169.68   30.10
  -3   7  -2  176.38   34.90
   3  -7   2  123.29   28.80
   3  -7   2  148.49   32.50
   3  -7   2  126.99   28.90
  -4   7  -2  120.69   37.10
  -4   7  -2  201.98   38.70
   4  -7   2  131.49   32.30
   4  -7   2  121.59   29.10
   4  -7   2  188.28   41.20
  -5   7  -2   87.59   31.70
  -5   7  -2   61.19   29.10
  -5   7  -2  -35.10   36.10
   5  -7   2   51.69   19.00
   5  -7   2   81.89   28.20
   5  -7   2   93.29   32.20
   5  -7   2   56.49   45.40
   5   6  -2  161.68   39.70
   5   6  -2  148.19   28.80
   5   6  -2   99.49   36.50
   5   6  -2  211.08   41.20
   5   6  -2  182.98   32.70
  -5  -6   2  142.49   29.40
  -5  -6   2   71.69   25.10
   4   6  -2   58.99   27.20
   4   6  -2   36.50   24.80
   4   6  -2   60.29   25.60
   4   6  -2   69.49   18.80
  -4  -6   2   56.49   21.50
  -4  -6   2   47.40   24.60
   3   6  -2   11.30   15.80
   3   6  -2    5.60   18.70
   3   6  -2    6.40    2.40
   3   6  -2   18.10   17.80
   3   6  -2    5.90    2.90
  -3  -6   2   10.50   13.40
  -3  -6   2    1.50   17.10
  -3  -6   2   -0.90   17.20
   2   6  -2   23.60   16.90
   2   6  -2   -9.60   15.20
   2   6  -2   13.70    9.80
  -2  -6   2   16.90   14.50
  -2  -6   2   26.20   15.50
  -2  -6   2   33.20   17.70
   1   6  -2  426.16   41.20
   1   6  -2  360.36   35.80
   1   6  -2  436.06   41.10
   1   6  -2  388.26   30.80
  -1  -6   2  446.26   40.40
  -1  -6   2  385.96   37.40
   0   6  -2   60.09   16.90
   0   6  -2   59.49   19.10
   0   6  -2   95.99   24.80
   0   6  -2   31.80   18.20
   0  -6   2   86.39   21.80
   0  -6   2   80.89   21.60
  -1   6  -2  140.39   24.60
  -1   6  -2  118.19   22.00
  -1   6  -2  159.58   30.10
  -1   6  -2   92.89   36.60
   1  -6   2  115.09   28.80
   1  -6   2  134.79   25.00
  -2   6  -2  408.46   37.90
  -2   6  -2  332.47   33.30
  -2   6  -2  444.76   44.30
   2  -6   2  367.86   34.80
   2  -6   2  355.86   45.50
  -3   6  -2  272.37   34.00
  -3   6  -2  217.18   38.60
  -3   6  -2  276.07   38.90
   3  -6   2  308.27   43.60
   3  -6   2  254.87   18.00
   3  -6   2  278.07   35.90
   3  -6   2  230.98   38.50
  -4   6  -2   12.90   15.30
  -4   6  -2   58.29   23.60
  -4   6  -2   17.70   21.60
  -4   6  -2   63.99   21.40
   4  -6   2    1.90   11.40
   4  -6   2    4.50   20.20
   4  -6   2   30.30   17.40
   4  -6   2   15.40   18.60
  -5   6  -2   33.70   31.60
  -5   6  -2   10.60   34.10
  -5   6  -2   98.39   25.60
  -5   6  -2  111.79   34.90
   5  -6   2  102.79   34.80
   5  -6   2   94.89   29.40
   5  -6   2   59.99   21.30
   5  -6   2   63.79   30.10
  -6   6  -2   54.19   28.80
  -6   6  -2   45.60   23.80
  -6   6  -2   26.70   24.50
   6  -6   2   15.80   27.50
   6  -6   2  126.89   30.30
   6  -6   2   65.39   32.50
   6  -6   2   24.60   23.40
   6   5  -2   20.00   24.80
   6   5  -2   65.99   34.60
   6   5  -2   49.70   20.20
   6   5  -2   90.39   27.90
  -6  -5   2   48.20   25.70
   5   5  -2   55.89   21.50
   5   5  -2   60.49   26.10
   5   5  -2   19.20   18.80
   5   5  -2   30.60   19.60
  -5  -5   2   55.69   25.50
  -5  -5   2   41.10   20.20
   4   5  -2  165.08   32.50
   4   5  -2  161.78   33.60
   4   5  -2  153.78   25.80
  -4  -5   2  148.39   32.20
  -4  -5   2  164.38   26.70
  -4  -5   2  192.28   26.50
   3   5  -2  306.97   44.30
   3   5  -2  372.16   37.60
   3   5  -2  380.96   39.20
   3   5  -2  374.46   27.70
  -3  -5   2  405.66   36.20
  -3  -5   2  360.26   26.70
  -3  -5   2  321.27   40.70
  -3  -5   2  414.66   39.80
   2   5  -2   13.20   13.00
   2   5  -2   23.60   17.90
   2   5  -2   -9.60   11.40
  -2  -5   2   17.10   13.30
  -2  -5   2   13.80   11.00
  -2  -5   2    7.60   12.70
  -2  -5   2    1.30    5.60
   1   5  -2 1116.79   57.29
   1   5  -2 1013.80   57.99
   1   5  -2 1066.79   42.80
   1   5  -2 1173.18   58.19
  -1  -5   2 1148.89   59.99
  -1  -5   2 1081.99   57.29
  -1  -5   2 1126.89   55.79
   0   5  -2   -1.20    8.80
   0   5  -2   -9.90    5.90
   0   5  -2    1.00   11.30
   0   5  -2   -9.40    8.20
   0  -5   2   17.10   10.60
   0  -5   2    9.80   12.40
  -1   5  -2  586.94   38.90
  -1   5  -2  585.64   41.80
  -1   5  -2  602.84   39.90
  -1   5  -2  621.84   39.60
   1  -5   2  573.24   38.60
   1  -5   2  548.95   42.20
   1  -5   2  573.44   41.60
  -2   5  -2   10.20   13.00
  -2   5  -2   -1.80   10.60
  -2   5  -2   -0.20   11.70
   2  -5   2   29.20   14.70
   2  -5   2    6.20    4.30
   2  -5   2    9.60   10.60
   2  -5   2   -1.80   10.30
  -3   5  -2   21.80   16.60
  -3   5  -2    3.30   14.20
  -3   5  -2   -2.10   10.60
   3  -5   2   -8.70    6.30
   3  -5   2    6.50   11.80
   3  -5   2    4.70    9.50
  -4   5  -2   88.09   19.70
  -4   5  -2   55.69   17.80
  -4   5  -2   88.19   21.60
   4  -5   2   70.99   20.60
   4  -5   2  100.69   18.80
   4  -5   2   89.09   23.60
  -5   5  -2  274.77   59.49
  -5   5  -2  217.18   37.90
   5  -5   2  293.37   39.70
   5  -5   2  250.17   33.30
   5  -5   2  303.07   40.70
   5  -5   2  169.38   34.60
  -6   5  -2   13.90   23.30
  -6   5  -2  -16.30   16.10
  -6   5  -2  -28.20   20.10
   6  -5   2  -16.40   17.80
   6  -5   2  -18.80   17.00
   6  -5   2    5.40   22.50
   6  -5   2   24.90   24.80
   7   4  -2  244.78   44.40
   7   4  -2  363.46   32.50
   7   4  -2  286.17   47.60
  -7  -4   2  377.16   55.49
  -7  -4   2  366.36   60.29
   6   4  -2   30.90   22.10
   6   4  -2   13.40   23.60
   6   4  -2  -12.40   26.80
   6   4  -2   37.50   15.00
  -6  -4   2    2.90   20.10
   5   4  -2  924.81   49.40
   5   4  -2  967.60   58.09
   5   4  -2  956.10   63.59
  -5  -4   2  873.81   58.19
  -5  -4   2 1010.20   63.29
   4   4  -2  164.38   32.30
   4   4  -2  232.38   29.00
   4   4  -2  178.78   26.70
  -4  -4   2  170.08   28.60
  -4  -4   2  181.68   25.00
  -4  -4   2  182.78   27.00
   3   4  -2  422.36   29.80
   3   4  -2  389.96   39.80
   3   4  -2  404.36   36.20
  -3  -4   2  388.36   31.70
  -3  -4   2  356.46   35.80
  -3  -4   2  369.36   28.30
  -3  -4   2  326.97   32.50
   2   4  -2  217.38   12.80
   2   4  -2  262.07   28.70
   2   4  -2  224.98   29.50
   2   4  -2  243.68   20.20
   2   4  -2  204.98   31.00
  -2  -4   2  200.38   17.10
  -2  -4   2  293.67   28.10
  -2  -4   2  178.38   26.30
  -2  -4   2  208.28   26.90
   1   4  -2   14.60    7.20
   1   4  -2    9.30    8.70
   1   4  -2   41.00   13.40
   1   4  -2    4.90    8.00
  -1  -4   2    2.40    6.30
  -1  -4   2   21.90    5.30
  -1  -4   2   10.10    9.50
  -1  -4   2   22.10   11.60
   0   4  -2   23.20   10.50
   0   4  -2   10.20   10.80
   0   4  -2    9.00    8.40
   0   4  -2   28.30   10.10
   0  -4   2   19.50    9.90
  -1   4  -2   68.79   14.00
  -1   4  -2   50.69   14.70
  -1   4  -2   67.89   15.90
  -1   4  -2   56.29   13.90
   1  -4   2   62.09   16.90
   1  -4   2   67.29   15.20
  -2   4  -2    5.20    9.40
  -2   4  -2    5.60    7.80
  -2   4  -2    6.70    8.20
   2  -4   2    2.40    4.40
   2  -4   2   -5.50    8.20
   2  -4   2    8.70    7.60
  -3   4  -2  700.73   45.30
  -3   4  -2  786.32   39.20
  -3   4  -2  758.32   46.50
   3  -4   2  781.92   44.60
   3  -4   2  726.63   45.10
   3  -4   2  815.62   36.30
  -4   4  -2   -6.60    8.90
  -4   4  -2   -3.10   12.00
  -4   4  -2  -18.80   12.80
   4  -4   2    9.60   12.10
   4  -4   2    8.30   10.00
  -5   4  -2  307.17   39.50
  -5   4  -2  343.47   32.10
  -5   4  -2  394.76   33.40
   5  -4   2  352.66   43.30
   5  -4   2  302.37   44.80
   5  -4   2  399.26   35.90
  -6   4  -2   -9.30   17.80
  -6   4  -2   -7.50   18.40
  -6   4  -2   12.50   12.50
  -6   4  -2   -8.30   18.90
   6  -4   2  -31.60   16.60
   6  -4   2   -1.40   17.20
  -7   4  -2  -29.80   13.70
  -7   4  -2  -23.30   32.40
  -7   4  -2   10.60   23.60
   7  -4   2  -23.80   24.40
   7  -4   2    1.60   16.90
   7  -4   2   19.50   21.10
   7   3  -2   89.79   31.90
   7   3  -2   31.10   27.90
   7   3  -2   24.20   12.90
  -7  -3   2   19.00   30.10
  -7  -3   2   -6.00   17.50
   6   3  -2  104.29   29.60
   6   3  -2  163.88   21.50
   6   3  -2  172.48   34.40
  -6  -3   2  140.09   29.50
   5   3  -2  155.48   22.10
   5   3  -2  117.29   29.00
   5   3  -2  130.29   29.00
   5   3  -2  132.29   27.40
  -5  -3   2  136.09   25.10
  -5  -3   2  152.88   28.00
   4   3  -2  161.88   27.70
   4   3  -2  142.29   21.10
   4   3  -2  148.19   28.60
   4   3  -2  138.39   23.80
  -4  -3   2  181.58   27.50
  -4  -3   2  160.58   25.00
  -4  -3   2  108.49   16.80
   3   3  -2  477.65   38.50
   3   3  -2  382.86   32.40
   3   3  -2  439.26   30.40
  -3  -3   2  402.86   32.90
  -3  -3   2  425.56   29.90
  -3  -3   2  419.66   34.40
  -3  -3   2  408.86   27.40
   2   3  -2  372.96   31.30
   2   3  -2  398.66   31.60
   2   3  -2  427.66   10.30
   2   3  -2  442.26   30.20
  -2  -3   2  438.76   24.70
  -2  -3   2  446.76   32.80
  -2  -3   2  412.36   31.40
  -2  -3   2  437.56   28.80
   1   3  -2  714.53   37.70
   1   3  -2  739.63   39.00
   1   3  -2  736.83   26.20
   1   3  -2  750.42   40.40
  -1  -3   2  792.12   40.00
  -1  -3   2  750.12   25.60
  -1  -3   2  733.53   38.20
   0   3  -2   42.80   11.50
   0   3  -2   34.00    8.90
   0   3  -2   40.90   10.50
   0   3  -2   13.20   10.00
   0  -3   2   26.00   10.20
   0  -3   2   50.39   11.80
   0  -3   2   30.00    4.50
  -1   3  -2  749.23   36.60
  -1   3  -2  782.32   34.70
  -1   3  -2  794.42   39.40
  -1   3  -2  760.12   37.40
   1  -3   2  749.92   37.40
   1  -3   2  755.72   21.90
   1  -3   2  821.62   40.10
  -2   3  -2  139.99   16.80
  -2   3  -2  161.38   21.60
  -2   3  -2  146.19   21.10
   2  -3   2  146.19   21.10
   2  -3   2  149.59   21.30
   2  -3   2  153.08   13.90
  -3   3  -2 3307.17   96.89
  -3   3  -2 3394.56   95.19
   3  -3   2 3194.68   91.19
   3  -3   2 3235.18   92.69
   3  -3   2 3237.78   81.49
  -4   3  -2   99.09   21.40
  -4   3  -2   93.79   18.60
  -4   3  -2  107.09   22.40
   4  -3   2  138.39   22.60
   4  -3   2  113.09   20.10
  -5   3  -2  999.20   58.39
  -5   3  -2 1004.60   45.90
  -5   3  -2  998.40   53.89
  -5   3  -2  951.50   57.09
   5  -3   2  935.91   68.89
   5  -3   2  987.60   54.79
  -6   3  -2   40.70   20.20
  -6   3  -2   27.30   18.80
  -6   3  -2   59.69   15.60
   6  -3   2   41.20   21.60
  -7   3  -2  248.68   27.60
  -7   3  -2  300.17   45.00
  -7   3  -2  286.37   44.40
   7  -3   2  343.47   46.00
   7  -3   2  304.47   45.60
  -8   3  -2   -7.70   33.60
  -8   3  -2   21.20   14.60
  -8   3  -2   30.80   32.60
   8  -3   2   57.49   19.60
   8  -3   2   30.90   31.60
   8  -3   2   48.30   26.70
   7   2  -2  124.09   34.90
   7   2  -2  199.08   41.40
   7   2  -2  154.38   18.50
  -7  -2   2  203.28   42.00
  -7  -2   2  188.78   39.50
  -7  -2   2  142.19   34.20
   6   2  -2  113.79   27.90
   6   2  -2  143.69   18.40
   6   2  -2  102.69   28.50
  -6  -2   2  134.39   31.50
  -6  -2   2  129.79    8.40
  -6  -2   2  118.19   29.40
  -6  -2   2  134.69   28.70
   5   2  -2   16.90   14.60
   5   2  -2   20.10   14.50
   5   2  -2   29.90    9.80
  -5  -2   2   20.60   13.50
  -5  -2   2    4.80   12.70
  -5  -2   2   21.90   12.90
   4   2  -2  600.24   43.10
   4   2  -2  557.74   30.90
   4   2  -2  518.85   38.50
   4   2  -2  554.44   41.40
  -4  -2   2  506.65   37.30
  -4  -2   2  546.65   42.60
  -4  -2   2  501.75   37.00
   3   2  -2  234.28   20.10
   3   2  -2  247.98   23.80
   3   2  -2  169.98   24.40
   3   2  -2  240.08   26.50
  -3  -2   2  178.78   24.30
  -3  -2   2  220.88   22.40
  -3  -2   2  197.38   16.40
  -3  -2   2  257.17   25.50
   2   2  -2 1258.97   52.29
   2   2  -2 1317.97   52.19
   2   2  -2 1326.87   45.20
  -2  -2   2 1304.87   44.60
  -2  -2   2 1305.87   51.19
  -2  -2   2 1347.47   50.59
  -2  -2   2 1332.07   45.30
   1   2  -2 1253.37   36.00
   1   2  -2 1327.67   47.50
   1   2  -2 1162.18   27.80
  -1  -2   2 1217.48   45.60
  -1  -2   2 1151.18   34.60
  -1  -2   2 1196.08   43.40
   0   2  -2   29.30    7.30
   0   2  -2   23.50    8.30
   0   2  -2   15.60    7.30
   0   2  -2   28.70    9.10
   0  -2   2   26.70    8.60
   0  -2   2   18.20    6.20
  -1   2  -2   50.29   11.40
  -1   2  -2   62.69    9.80
  -1   2  -2   56.09   11.40
  -1   2  -2   83.09   13.50
   1  -2   2   67.59   12.10
   1  -2   2   55.39   11.30
   1  -2   2   58.99   11.10
   1  -2   2   48.80    7.20
  -2   2  -2 6168.38  102.99
  -2   2  -2 6051.39  120.49
  -2   2  -2 6045.40  124.39
   2  -2   2 5877.41  120.89
   2  -2   2 6112.49  109.79
   2  -2   2 5948.10  119.19
   2  -2   2 5975.00  123.29
  -3   2  -2    4.10    8.70
  -3   2  -2    3.60    6.80
  -3   2  -2    0.60    6.20
   3  -2   2    1.30    5.90
   3  -2   2    5.00    6.50
   3  -2   2    5.90    7.20
  -4   2  -2  674.33   39.30
  -4   2  -2  630.64   38.00
  -4   2  -2  666.33   42.20
   4  -2   2  676.73   39.90
   4  -2   2  665.23   39.70
  -5   2  -2  479.05   36.70
  -5   2  -2  458.65   26.40
  -5   2  -2  471.35   36.60
  -5   2  -2  468.65   38.00
   5  -2   2  467.35   38.80
   5  -2   2  499.55   38.40
  -6   2  -2  141.59   29.70
  -6   2  -2  168.78   17.10
  -6   2  -2  182.48   30.90
   6  -2   2  171.28   28.30
  -7   2  -2   -6.40    7.10
  -7   2  -2    6.50   16.10
   7  -2   2  -14.30   17.90
   7  -2   2   16.30   21.00
  -8   2  -2   28.90   30.50
  -8   2  -2   70.09   30.70
   8  -2   2  -20.60   25.60
   8  -2   2   63.69   33.10
   8   1  -2  124.99   34.50
   8   1  -2  178.18   44.70
   8   1  -2  170.48   43.30
  -8  -1   2   83.59   40.30
  -8  -1   2  130.69   21.60
  -8  -1   2  152.98   40.50
  -8  -1   2  220.88   39.00
   7   1  -2   10.10   18.50
   7   1  -2   -8.30    7.90
   7   1  -2   -2.20   21.10
   7   1  -2   32.90   26.40
  -7  -1   2    0.70   22.70
  -7  -1   2   -3.20   10.30
  -7  -1   2   18.40   16.20
   6   1  -2   22.90    9.00
   6   1  -2   59.79   23.30
   6   1  -2   13.10   19.70
  -6  -1   2   27.10   10.00
  -6  -1   2   16.20   17.90
  -6  -1   2   19.30   14.40
   5   1  -2    9.30    6.80
   5   1  -2   16.40   12.20
   5   1  -2   17.00   15.00
  -5  -1   2   16.50   14.60
  -5  -1   2   14.80   14.50
   4   1  -2   93.99   20.50
   4   1  -2   94.09   19.60
   4   1  -2  127.49   16.40
  -4  -1   2  125.29   21.30
  -4  -1   2  120.29   10.90
  -4  -1   2  104.79   20.70
   3   1  -2    3.00    6.60
   3   1  -2    7.90    7.20
   3   1  -2   10.40    8.70
   3   1  -2   -3.50    5.20
  -3  -1   2    2.30    3.10
  -3  -1   2   -8.70    7.70
  -3  -1   2    4.50    7.80
  -3  -1   2    7.70    3.50
   2   1  -2   -5.30    6.20
   2   1  -2    4.30    5.60
   2   1  -2    0.60    6.00
   2   1  -2    2.80    7.00
  -2  -1   2    2.60    1.40
  -2  -1   2   -0.50    5.10
  -2  -1   2    4.30    7.20
   1   1  -2 1694.73   31.80
   1   1  -2 1696.93   51.99
   1   1  -2 1824.62   46.30
  -1  -1   2 1726.83   32.10
  -1  -1   2 1729.03   45.40
  -1  -1   2 1798.32   50.49
   0   1  -2 4350.56   75.99
   0   1  -2 4436.06   86.39
   0   1  -2 4529.45   83.79
   0  -1   2 4410.26   86.39
   0  -1   2 4515.25   77.09
   0  -1   2 4479.75   79.89
  -1   1  -2 1833.62   47.70
  -1   1  -2 1794.82   36.60
  -1   1  -2 1748.82   31.70
  -1   1  -2 1799.52   45.10
  -1   1  -2 1886.21   50.59
   1  -1   2 1734.73   57.69
   1  -1   2 1789.92   44.70
   1  -1   2 1811.62   36.90
   1  -1   2 1862.01   48.50
  -2   1  -2  659.03   30.80
  -2   1  -2  652.83   27.80
   2  -1   2  634.04   28.50
   2  -1   2  585.74   32.30
   2  -1   2  644.44   30.60
  -3   1  -2 1687.73   55.99
  -3   1  -2 1711.43   57.89
  -3   1  -2 1733.63   54.09
   3  -1   2 1802.82   58.09
   3  -1   2 1804.12   59.69
   3  -1   2 1698.93   53.29
  -4   1  -2   76.39   15.40
  -4   1  -2   57.99    8.90
  -4   1  -2   54.89   14.30
  -4   1  -2   52.89   14.10
   4  -1   2   75.59   16.30
   4  -1   2   49.00   14.70
   4  -1   2   69.39   14.90
  -5   1  -2  383.16   34.30
  -5   1  -2  352.06   32.10
  -5   1  -2  422.26   19.50
   5  -1   2  377.96   32.40
   5  -1   2  446.46   38.00
   5  -1   2  453.75   36.40
  -6   1  -2  186.78   31.00
  -6   1  -2  200.88   30.10
  -6   1  -2  154.78   11.60
   6  -1   2  194.48   30.70
  -7   1  -2  414.96   42.10
  -7   1  -2  387.96   50.29
   7  -1   2  411.66   42.00
   7  -1   2  408.36   51.99
  -8   1  -2  407.26   51.09
  -8   1  -2  386.36   56.39
  -8   1  -2  324.47   52.29
  -8   1  -2  423.06   33.80
   8  -1   2  410.86   52.99
   8  -1   2  480.55   61.49
   8   0  -2   14.40   29.50
   8   0  -2   76.89   33.60
   8   0  -2   67.29   35.90
  -8   0   2    4.20   28.80
  -8   0   2   59.89   37.90
  -8   0   2   44.00   20.50
   7   0  -2  451.85   57.49
   7   0  -2  477.15   58.59
   7   0  -2  545.55   53.29
   7   0  -2  547.95   28.60
  -7   0   2  472.45   36.80
  -7   0   2  503.25   53.19
  -7   0   2  494.45   53.19
   6   0  -2    8.80    8.90
   6   0  -2   19.30   17.20
   6   0  -2    6.20   15.80
   6   0  -2   47.00   19.50
  -6   0   2   12.90   10.70
  -6   0   2   22.40   19.50
  -6   0   2   20.70   13.80
   5   0  -2    3.10    6.50
   5   0  -2   -7.80    7.60
   5   0  -2    0.00   10.90
  -5   0   2    3.90    7.00
  -5   0   2    9.40    8.50
  -5   0   2   34.60   16.60
  -5   0   2  -11.00   11.40
   4   0  -2    7.90    8.80
   4   0  -2    6.10    5.80
   4   0  -2   10.70   11.10
  -4   0   2   13.10    6.50
  -4   0   2   19.60   11.20
  -4   0   2    2.40    5.80
  -4   0   2    5.10    7.40
   3   0  -2  157.88   22.20
   3   0  -2  151.88   14.50
   3   0  -2  126.99   18.30
  -3   0   2  150.48   20.20
  -3   0   2  144.39   21.30
  -3   0   2  117.99   18.10
   2   0  -2  689.23   31.10
   2   0  -2  731.33   33.40
   2   0  -2  697.83   29.30
   2   0  -2  738.93   32.60
  -2   0   2  712.93   31.40
  -2   0   2  772.12   31.40
  -2   0   2  754.92   29.20
  -2   0   2  686.23   32.40
   1   0  -2 2951.00   56.49
   1   0  -2 2852.11   63.79
   1   0  -2 2885.91   60.89
   1   0  -2 2888.61   61.79
  -1   0   2 2908.61   63.89
  -1   0   2 2851.01   60.69
  -1   0   2 2840.02   61.29
  -1   0   2 2872.31   55.99
   0   0  -2   78.69    8.50
   0   0  -2   74.49    9.50
   0   0  -2   78.39   10.10
   0   0   2  100.79    9.40
   0   0   2   90.49    9.40
   0   0   2   79.99    9.80
  -1   0  -2 4440.26   75.09
  -1   0  -2 4401.26   74.19
  -1   0  -2 4422.36   80.99
  -1   0  -2 4396.56   68.79
   1   0   2 4314.07   68.69
   1   0   2 4558.24   81.89
  -2   0  -2  249.48   17.70
  -2   0  -2  276.87   15.20
  -2   0  -2  254.77   16.30
   2   0   2  247.08   14.30
   2   0   2  257.87   18.40
   2   0   2  228.78   16.90
  -3   0  -2  772.12   35.60
  -3   0  -2  820.12   37.70
   3   0   2  712.73   30.90
   3   0   2  776.82   35.40
   3   0   2  787.72   37.90
  -4   0  -2  947.71   47.40
  -4   0  -2  966.00   19.60
  -4   0  -2  919.81   43.00
   4   0   2  998.40   48.60
   4   0   2  940.51   41.80
   4   0   2  993.00   44.90
  -5   0  -2  250.17   24.80
  -5   0  -2  300.57   29.60
   5   0   2  230.58   24.30
   5   0   2  268.87   33.80
   5   0   2  234.98   29.00
  -6   0  -2  253.37   22.30
  -6   0  -2  231.88   31.60
  -6   0  -2  230.98   36.00
   6   0   2  244.38   32.40
   6   0   2  297.07   31.80
  -7   0  -2   46.90   25.20
  -7   0  -2   27.50   13.30
  -7   0  -2   27.00   19.00
  -7   0  -2   25.30   25.40
   7   0   2   53.79   21.90
   7   0   2   36.20   22.80
  -8   0  -2  163.28   40.50
  -8   0  -2  104.99   32.70
  -8   0  -2  140.99   24.40
   8   0   2  154.28   43.00
   8   0   2  138.29   33.50
   8  -1  -2  133.99   46.10
   8  -1  -2  189.98   41.70
   8  -1  -2  160.98   43.60
  -8   1   2  222.88   47.10
  -8   1   2  171.18   31.80
  -8   1   2  182.58   42.00
   7  -1  -2  134.99   33.80
   7  -1  -2  218.38   38.90
   7  -1  -2  198.38   39.10
  -7   1   2  193.18   36.40
  -7   1   2  210.18   23.40
  -7   1   2  271.07   46.10
  -7   1   2  150.98   26.60
   6  -1  -2   95.69   16.20
   6  -1  -2   86.39   24.70
   6  -1  -2   61.99   23.30
  -6   1   2   72.89   21.70
  -6   1   2   81.19   15.40
  -6   1   2  108.69   21.70
   5  -1  -2  219.78   31.00
   5  -1  -2  175.78   27.10
   5  -1  -2  200.48   31.80
   5  -1  -2  197.08   19.40
  -5   1   2  228.88   20.80
  -5   1   2  258.57   34.50
  -5   1   2  217.18   31.40
  -5   1   2  253.07   24.90
   4  -1  -2   40.50   15.50
   4  -1  -2   39.50   13.00
   4  -1  -2   33.00    9.50
   4  -1  -2   33.80   11.30
  -4   1   2   54.29   17.10
  -4   1   2   33.50    9.70
  -4   1   2   24.60   10.40
  -4   1   2   44.90   13.80
   3  -1  -2   35.00    9.20
   3  -1  -2   62.59   12.90
   3  -1  -2   17.40   11.00
   3  -1  -2    5.60    9.50
  -3   1   2   14.40   10.70
  -3   1   2   35.50    9.00
   2  -1  -2   97.19   12.60
   2  -1  -2  116.19   16.10
   2  -1  -2  109.89   13.60
   2  -1  -2  107.39   16.20
  -2   1   2  107.09   13.10
  -2   1   2   98.79   15.30
  -2   1   2  115.49    8.40
   1  -1  -2  860.01   29.50
   1  -1  -2  900.61   30.00
   1  -1  -2  854.91   31.70
   1  -1  -2  878.21   25.50
  -1   1   2  910.21   30.50
  -1   1   2  890.61   32.20
  -1   1   2  814.22   24.50
   0   1   2 7844.12  111.99
   0   1   2 7865.81  122.39
  -1  -1  -2 3153.78   59.99
  -1  -1  -2 3169.78   63.89
  -1  -1  -2 3105.59   62.89
  -1  -1  -2 3101.39   55.59
   1   1   2 3054.59   55.69
   1   1   2 3094.09   63.19
  -2  -1  -2 9651.73  170.88
  -2  -1  -2 9445.75  157.98
  -2  -1  -2 9302.87  159.58
   2   1   2 9228.38  138.39
   2   1   2 9999.00  179.98
   2   1   2 9661.53  154.68
  -3  -1  -2  604.34   34.90
  -3  -1  -2  587.04   32.40
  -3  -1  -2  565.24   28.80
  -3  -1  -2  556.04   31.80
  -3  -1  -2  581.74   22.80
   3   1   2  569.14   28.90
   3   1   2  595.74   33.80
  -4  -1  -2  752.32   42.40
  -4  -1  -2  791.12   45.70
  -4  -1  -2  788.42   37.00
  -4  -1  -2  736.03   36.60
   4   1   2  814.02   37.80
   4   1   2  742.33   37.20
   4   1   2  774.42   42.80
  -5  -1  -2   66.49   17.30
  -5  -1  -2   47.50   13.40
  -5  -1  -2   71.29   20.00
  -5  -1  -2   59.49   12.30
   5   1   2   49.10   13.60
   5   1   2   48.80   18.60
   5   1   2   32.80   12.70
  -6  -1  -2  217.98   28.50
  -6  -1  -2  226.38   23.30
  -6  -1  -2  220.88   41.40
   6   1   2  204.28   29.00
   6   1   2  267.67   28.20
   6   1   2  209.38   42.60
  -7  -1  -2   -4.00   19.50
  -7  -1  -2    4.90   11.50
  -7  -1  -2    7.60   13.30
   7   1   2  -14.60    7.90
   7   1   2  -37.80   15.50
   7   1   2    6.90   15.50
  -8  -1  -2  173.88   41.70
  -8  -1  -2  137.49   29.70
  -8  -1  -2  146.49   26.20
  -8  -1  -2  151.48   35.70
   8   1   2  232.28   44.20
   8   1   2  151.08   32.20
   8  -2  -2   13.70   31.50
   8  -2  -2   41.40   34.30
   8  -2  -2   31.20   27.90
  -8   2   2   19.80   31.00
  -8   2   2   28.30   25.70
  -8   2   2   -6.00   13.40
   7  -2  -2   94.99   32.10
   7  -2  -2  129.79   33.40
   7  -2  -2  121.99   31.30
  -7   2   2   81.09   32.70
  -7   2   2  137.29   30.10
  -7   2   2  121.09   20.50
  -7   2   2  131.99   33.40
   6  -2  -2   47.50   23.40
   6  -2  -2   18.40   16.50
   6  -2  -2    6.60   18.40
  -6   2   2   22.70   15.80
  -6   2   2    6.80   15.50
  -6   2   2   33.10   12.90
  -6   2   2   41.30   18.20
   5  -2  -2    3.90    7.90
   5  -2  -2    5.70    8.50
   5  -2  -2   -7.30   13.60
   5  -2  -2   12.70   12.40
  -5   2   2   20.30   14.60
  -5   2   2   19.70   10.80
  -5   2   2   -7.30    9.40
   4  -2  -2  170.48   25.70
   4  -2  -2  183.68   18.60
   4  -2  -2  164.38   25.90
  -4   2   2  209.98   19.80
  -4   2   2  206.78   28.00
   3  -2  -2 1900.41   56.49
   3  -2  -2 2003.80   67.39
   3  -2  -2 1994.50   67.39
  -3   2   2 1850.11   56.39
  -3   2   2 1834.62   63.69
   2  -2  -2  730.63   34.90
   2  -2  -2  735.83   35.00
   2  -2  -2  763.92   32.30
  -2   2   2  707.53   33.90
  -2   2   2  688.73   33.50
  -2   2   2  691.73   31.40
  -2   2   2  659.93   26.30
   1  -2  -2 2601.64   61.79
   1  -2  -2 2572.84   44.20
  -1   2   2 2430.46   71.09
  -1   2   2 2737.33   61.99
  -1   2   2 2648.54   59.89
  -1   2   2 2523.15   61.29
   0  -2  -2  940.41   33.60
   0  -2  -2 1002.30   29.00
   0   2   2  992.50   35.40
   0   2   2 1040.80   33.60
   0   2   2 1004.40   28.90
  -1  -2  -2 2289.07   50.09
  -1  -2  -2 2236.48   56.69
   1   2   2 2194.68   44.20
   1   2   2 2165.38   49.30
   1   2   2 2138.19   52.89
   1   2   2 2312.47   54.19
  -2  -2  -2   -1.30    6.90
  -2  -2  -2   -0.60    5.70
  -2  -2  -2    3.80    5.30
   2   2   2    5.20    3.70
   2   2   2    2.70    7.10
   2   2   2    3.40    6.20
   2   2   2    0.80    5.30
  -3  -2  -2  296.97   19.80
  -3  -2  -2  230.38   18.10
  -3  -2  -2  306.87   25.70
  -3  -2  -2  268.77   24.80
   3   2   2  265.77   18.90
   3   2   2  277.97   23.90
   3   2   2  260.57   11.60
   3   2   2  256.77   19.20
  -4  -2  -2    2.30    8.10
  -4  -2  -2   14.80    7.40
  -4  -2  -2   -1.10    6.60
  -4  -2  -2   11.80    6.80
   4   2   2   13.50    7.30
   4   2   2   10.40    8.80
  -5  -2  -2  567.94   33.90
  -5  -2  -2  615.04   34.40
  -5  -2  -2  527.55   40.40
  -5  -2  -2  477.15   41.60
   5   2   2  499.65   30.50
   5   2   2  508.55   31.70
   5   2   2  431.06   38.20
  -6  -2  -2  127.39   26.40
  -6  -2  -2  158.88   23.20
  -6  -2  -2  198.88   36.60
  -6  -2  -2  167.68   23.80
   6   2   2  121.99   23.60
   6   2   2  136.29   19.50
   6   2   2  153.98   22.90
   6   2   2  126.39   27.40
  -7  -2  -2  138.49   34.40
  -7  -2  -2  120.89   23.10
  -7  -2  -2   69.89   19.80
  -7  -2  -2   82.09   29.50
   7   2   2  152.28   36.80
   7   2   2  147.59   18.60
   7   2   2  112.39   26.00
   7   2   2  106.89   21.70
  -8  -2  -2   14.40   30.50
  -8  -2  -2   48.20   31.50
  -8  -2  -2  -33.10   30.80
  -8  -2  -2   13.90   19.90
   8   2   2   29.30   24.80
   8   2   2   22.80   26.80
   8   2   2   18.70   24.50
   8   2   2    9.10   10.60
   7  -3  -2   87.19   26.40
   7  -3  -2  112.89   29.60
   7  -3  -2   66.59   24.30
  -7   3   2   74.89   31.50
  -7   3   2  119.49   23.10
   6  -3  -2  187.78   34.80
  -6   3   2  176.18   31.50
  -6   3   2  194.98   26.00
  -6   3   2  160.18   32.10
   5  -3  -2  968.10   58.69
   5  -3  -2  930.41   58.29
  -5   3   2  878.71   66.09
  -5   3   2  895.21   53.39
  -5   3   2  931.51   46.30
   4  -3  -2  172.58   26.20
   4  -3  -2  188.98   17.60
   4  -3  -2  147.59   24.00
  -4   3   2  206.78   22.10
  -4   3   2  192.48   27.20
   3  -3  -2   34.00   14.00
   3  -3  -2    9.90    6.90
   3  -3  -2   19.00   11.70
   3  -3  -2   32.60   11.20
  -3   3   2   31.90   10.60
  -3   3   2   30.90   12.40
  -3   3   2   18.60   11.20
   2  -3  -2  714.43   36.90
   2  -3  -2  632.04   33.70
   2  -3  -2  760.52   36.10
   2  -3  -2  729.93   33.70
  -2   3   2  683.53   34.10
  -2   3   2  660.23   35.10
  -2   3   2  691.43   34.10
  -2   3   2  735.03   33.60
   1  -3  -2 2096.19   58.99
   1  -3  -2 1970.90   58.99
   1  -3  -2 1998.60   59.29
   1  -3  -2 2138.59   36.30
  -1   3   2 2119.09   59.39
  -1   3   2 2091.49   60.19
  -1   3   2 2097.69   60.79
   0  -3  -2  191.38   16.20
   0  -3  -2  185.28   16.30
   0  -3  -2  192.28   19.30
   0   3   2  200.48   19.50
   0   3   2  182.18   15.70
   0   3   2  187.08    7.70
   0   3   2  189.88   16.70
  -1  -3  -2  370.66   25.90
   1   3   2  403.06   21.60
   1   3   2  397.66   24.60
   1   3   2  405.06   23.20
   1   3   2  416.06   25.70
   1   3   2  388.56   18.20
   1   3   2  392.36   25.60
  -2  -3  -2 1773.12   59.29
   2   3   2 1744.13   57.49
   2   3   2 1791.52   51.69
   2   3   2 1720.43   51.39
   2   3   2 1771.02   48.00
   2   3   2 1753.72   60.19
   2   3   2 1705.33   59.69
   2   3   2 1692.13   51.99
   2   3   2 1853.61   56.29
  -3  -3  -2 1008.10   42.70
  -3  -3  -2 1001.90   49.00
  -3  -3  -2 1059.59   51.49
   3   3   2  970.50   43.10
   3   3   2  943.71   41.20
   3   3   2 1015.30   44.90
   3   3   2 1001.50   44.70
   3   3   2  996.00   37.90
   3   3   2  957.30   31.80
   3   3   2  919.01   48.10
  -4  -3  -2  246.78   28.50
  -4  -3  -2  230.78   20.00
  -4  -3  -2  273.37   24.40
  -4  -3  -2  254.37   27.80
   4   3   2  242.58   29.90
   4   3   2  333.07   29.00
   4   3   2  248.68   14.30
   4   3   2  252.27   20.20
   4   3   2  264.27   33.70
   4   3   2  262.17   24.10
  -5  -3  -2   11.70    8.70
  -5  -3  -2  -10.60    8.80
  -5  -3  -2  -17.20    9.90
  -5  -3  -2   13.50    9.60
   5   3   2  -18.80   11.70
   5   3   2   13.30    9.50
   5   3   2   13.20   13.40
   5   3   2   -0.20    1.20
   5   3   2    0.70    1.50
   5   3   2    0.00    7.90
  -6  -3  -2  581.74   41.10
  -6  -3  -2  672.23   50.49
  -6  -3  -2  617.34   52.79
  -6  -3  -2  597.64   36.10
   6   3   2  633.14   51.89
   6   3   2  612.84   50.59
   6   3   2  591.64   37.40
   6   3   2  658.23   38.20
  -7  -3  -2  -14.80   20.60
  -7  -3  -2  101.09   22.60
  -7  -3  -2   80.49   27.20
  -7  -3  -2   68.39   17.80
   7   3   2   66.59   17.10
   7   3   2   73.49   27.50
   7   3   2   38.50   20.90
   7   3   2   70.29   15.90
  -8  -3  -2  127.89   37.40
  -8  -3  -2  158.38   30.80
  -8  -3  -2  155.98   26.40
   8   3   2  166.48   51.59
   8   3   2  126.79   43.00
   8   3   2  105.19   33.60
   7  -4  -2   35.80   28.90
   7  -4  -2   13.20   19.80
   7  -4  -2   29.40   28.40
  -7   4   2  -51.39   24.60
  -7   4   2    8.50   27.40
  -7   4   2    4.90   15.10
   6  -4  -2  257.47   41.40
  -6   4   2  264.67   33.20
  -6   4   2  244.08   37.70
   5  -4  -2   88.99   16.80
   5  -4  -2   62.69   19.10
  -5   4   2   94.69   18.90
  -5   4   2   97.09   22.90
   4  -4  -2  449.36   36.80
   4  -4  -2  478.25   32.10
   4  -4  -2  485.65   40.40
  -4   4   2  488.55   39.70
  -4   4   2  457.95   34.50
  -4   4   2  400.66   34.30
   3  -4  -2 1323.07   55.39
   3  -4  -2 1320.27   53.59
   3  -4  -2 1291.57   59.19
  -3   4   2 1237.08   53.99
  -3   4   2 1367.06   60.69
  -3   4   2 1255.47   52.79
   2  -4  -2  633.94   24.40
   2  -4  -2  639.94   38.40
   2  -4  -2  640.54   36.20
  -2   4   2  571.04   35.90
  -2   4   2  610.14   32.20
  -2   4   2  581.24   35.10
   1  -4  -2   99.09   16.90
   1  -4  -2  117.29   18.60
   1  -4  -2  114.69    8.00
  -1   4   2   85.29   16.10
  -1   4   2   98.09   17.50
  -1   4   2  100.79   16.80
  -1   4   2  105.39   14.00
   0  -4  -2   64.79    7.10
   0  -4  -2   81.39   15.00
   0  -4  -2   76.09   14.40
   0  -4  -2   69.49   16.10
   0   4   2   54.29    6.90
   0   4   2   45.20   12.40
   0   4   2   61.29   12.50
   0   4   2   85.89   17.40
  -1  -4  -2  202.08   18.80
  -1  -4  -2  228.68   22.80
  -1  -4  -2  155.98   21.30
   1   4   2  180.78   17.90
   1   4   2  208.78   15.60
   1   4   2  220.58   23.10
   1   4   2  209.48   20.60
   1   4   2  207.18   19.90
  -2  -4  -2   44.20   12.50
   2   4   2   31.50    9.40
   2   4   2   46.10   13.00
   2   4   2   45.30   10.80
   2   4   2   74.79   15.70
   2   4   2   30.00    9.30
   2   4   2   35.80   13.30
   2   4   2   48.30   11.50
   2   4   2   37.70    9.90
  -3  -4  -2  304.17   30.20
   3   4   2  309.37   25.30
   3   4   2  341.77   26.30
   3   4   2  323.77   26.60
   3   4   2  302.07   27.50
   3   4   2  338.87   22.70
   3   4   2  314.67   28.20
   3   4   2  355.16   23.40
   3   4   2  360.76   32.50
  -4  -4  -2    3.30   14.10
  -4  -4  -2   -3.20    7.20
   4   4   2    7.40    9.60
   4   4   2    6.30    6.30
   4   4   2    4.10   10.50
   4   4   2   -3.90    8.00
   4   4   2    0.90    6.60
   4   4   2   -3.10    7.60
   4   4   2   -1.00    8.20
  -5  -4  -2  941.61   63.99
  -5  -4  -2  928.11   52.09
   5   4   2  927.81   32.40
   5   4   2  990.90   59.09
   5   4   2  962.40   57.09
   5   4   2 1034.30   63.09
   5   4   2  970.70   49.20
   5   4   2  923.21   40.60
  -6  -4  -2  181.08   38.00
  -6  -4  -2  133.19   25.60
   6   4   2  144.09   20.00
   6   4   2  184.18   25.40
   6   4   2  110.49   25.60
   6   4   2  183.78   33.60
  -7  -4  -2   70.29   22.50
  -7  -4  -2   75.49   28.00
   7   4   2   72.69   28.20
   7   4   2   88.69   32.60
   7   4   2   63.99   18.90
   7   4   2   83.49   17.60
   7  -5  -2   -5.10   25.20
   7  -5  -2    2.20   29.40
  -7   5   2   19.90   21.00
  -7   5   2    3.90   30.20
   6  -5  -2   11.60   28.00
   6  -5  -2   18.70   16.10
   6  -5  -2   58.29   24.90
  -6   5   2   23.70   24.80
  -6   5   2   47.00   24.50
  -6   5   2   49.20   20.50
   5  -5  -2  202.68   28.50
   5  -5  -2  251.47   36.10
  -5   5   2  229.28   37.00
  -5   5   2  258.97   41.30
  -5   5   2  284.57   37.60
   4  -5  -2  355.66   33.30
   4  -5  -2  296.17   30.30
   4  -5  -2  281.87   38.20
  -4   5   2  288.67   39.60
  -4   5   2  277.87   29.80
  -4   5   2  304.37   31.70
   3  -5  -2   33.60   13.20
   3  -5  -2   33.60   15.00
   3  -5  -2   30.70    9.80
   3  -5  -2   28.00   16.30
  -3   5   2   34.50   17.80
  -3   5   2    9.90   10.50
  -3   5   2   25.50   12.40
   2  -5  -2    9.50    5.90
   2  -5  -2   12.20    9.90
   2  -5  -2   15.50   10.30
  -2   5   2    3.90   11.20
  -2   5   2   20.90   11.40
  -2   5   2   17.00    8.60
   1  -5  -2  -10.40    8.40
   1  -5  -2   -7.80    3.10
   1  -5  -2   -6.60    7.70
   1  -5  -2   -0.80    9.90
  -1   5   2   -4.40    9.00
  -1   5   2    8.80   10.70
  -1   5   2   -3.40    5.30
  -1   5   2    9.50    8.00
   0  -5  -2   41.90   13.20
   0  -5  -2   41.60   12.10
   0  -5  -2   14.90    8.10
   0  -5  -2   39.00    7.30
   0   5   2   36.60    8.50
   0   5   2   24.20   11.50
   0   5   2   21.00    6.40
   0   5   2   23.80   10.20
   0   5   2   18.70   12.20
  -1  -5  -2   -9.50    7.70
  -1  -5  -2  -17.10    8.30
  -1  -5  -2   -8.10    5.70
   1   5   2   -2.40    7.50
   1   5   2    5.40    8.10
   1   5   2   -3.10    4.30
   1   5   2    7.50    8.80
   1   5   2    3.60    8.30
  -2  -5  -2   50.39   15.20
   2   5   2   66.09   12.90
   2   5   2   75.79   20.10
   2   5   2   88.69   15.60
   2   5   2   88.29   17.80
   2   5   2   65.99   15.80
   2   5   2   72.49   16.10
   2   5   2   71.19   16.20
  -3  -5  -2  227.98   33.50
   3   5   2  256.47   32.20
   3   5   2  248.08   23.10
   3   5   2  269.17   27.40
   3   5   2  263.87   35.90
   3   5   2  262.37   23.70
   3   5   2  225.18   30.20
   3   5   2  233.18   21.70
   3   5   2  265.57   26.70
  -4  -5  -2  451.55   42.20
   4   5   2  450.45   37.20
   4   5   2  460.55   30.40
   4   5   2  555.64   38.40
   4   5   2  487.35   39.40
   4   5   2  520.15   30.90
   4   5   2  464.15   41.70
   4   5   2  511.75   47.50
   4   5   2  581.94   40.30
   5   5   2   24.20   10.30
   5   5   2   51.39   25.10
   5   5   2   46.90   12.70
   5   5   2   31.50   17.50
   5   5   2    6.00   15.50
   5   5   2   14.40   15.10
  -6  -5  -2   47.10   21.60
   6   5   2   56.89   11.20
   6   5   2   80.09   22.70
   6   5   2   67.99   16.00
   6   5   2   63.99   15.40
   6   5   2   61.09   24.90
   6   5   2  134.89   30.20
  -7  -5  -2   28.60   21.50
   7   5   2  -22.20   23.20
   7   5   2   40.10   27.50
   7   5   2  -12.10   11.00
   6  -6  -2  -40.80   21.10
   6  -6  -2    2.50   28.10
   6  -6  -2   21.80   21.10
   6  -6  -2  -37.30   27.80
  -6   6   2   20.20   21.40
  -6   6   2   16.20   25.00
  -6   6   2  -41.50   22.60
   5  -6  -2  219.18   34.30
   5  -6  -2  337.67   32.90
   5  -6  -2  317.97   47.80
   5  -6  -2  300.27   40.00
  -5   6   2  294.17   38.70
  -5   6   2  336.47   42.80
  -5   6   2  257.67   41.70
  -5   6   2  206.28   41.40
   4  -6  -2   93.99   39.80
   4  -6  -2  196.38   33.30
   4  -6  -2  163.88   22.10
  -4   6   2  100.59   26.20
  -4   6   2  162.98   26.90
  -4   6   2  178.08   29.40
   3  -6  -2 1516.15   72.79
   3  -6  -2 1571.74   50.79
   3  -6  -2 1646.84   78.29
  -3   6   2 1729.73   76.19
  -3   6   2 1597.94   60.09
  -3   6   2 1711.43   79.09
   2  -6  -2 1031.20   59.29
   2  -6  -2  987.60   47.50
   2  -6  -2  805.72   81.29
  -2   6   2 1054.69   57.09
  -2   6   2  989.00   41.00
  -2   6   2  953.80   57.39
   1  -6  -2 2508.85   88.59
   1  -6  -2 2617.74   78.29
   1  -6  -2 2519.15   92.79
   1  -6  -2 2379.36   55.89
  -1   6   2 2544.85   70.69
  -1   6   2 2579.74   90.39
  -1   6   2 2435.16   87.69
   0  -6  -2  512.35   38.30
   0  -6  -2  617.14   38.40
   0  -6  -2  589.54   27.60
   0  -6  -2  606.34   44.10
   0   6   2  609.14   41.90
   0   6   2  635.64   25.50
   0   6   2  578.84   43.00
   0   6   2  621.84   28.00
   0   6   2  524.15   40.30
  -1  -6  -2  504.25   36.30
  -1  -6  -2  570.44   43.80
   1   6   2  540.95   44.50
   1   6   2  616.44   45.10
   1   6   2  561.94   39.80
   1   6   2  525.35   38.30
   1   6   2  526.45   24.40
   1   6   2  536.65   30.40
  -2  -6  -2  -14.10    7.80
  -2  -6  -2    1.30   11.00
   2   6   2  -16.10   12.50
   2   6   2   23.00   16.20
   2   6   2   -1.50    6.50
   2   6   2   19.90   11.20
   2   6   2  -12.60    9.90
   2   6   2   -7.50    9.70
  -3  -6  -2   93.09   25.30
   3   6   2  146.69   20.80
   3   6   2  102.89   24.00
   3   6   2  116.59   21.80
   3   6   2  115.79   18.90
   3   6   2  125.19   24.50
   3   6   2  136.79   29.50
   3   6   2  127.89   21.60
   3   6   2  125.69   25.40
  -4  -6  -2   41.90   25.70
   4   6   2   40.00   17.50
   4   6   2   26.70   13.20
   4   6   2   24.30   14.10
   4   6   2   23.30   16.80
   4   6   2   52.89   14.40
   4   6   2   58.19   19.20
   4   6   2   39.90   22.90
   4   6   2   48.40   19.40
   5   6   2  292.27   47.30
   5   6   2  227.58   23.30
   5   6   2  224.98   37.60
   5   6   2  268.77   36.30
   5   6   2  204.28   35.00
   5   6   2  302.57   28.60
   5   6   2  296.27   39.60
   6   6   2   11.90   11.80
   6   6   2   14.40   19.60
   6   6   2   -1.80   11.50
   6   6   2   35.50   33.70
   6   6   2   22.60   23.30
   6   6   2    6.80   20.70
   5  -7  -2   71.69   26.50
   5  -7  -2   25.10   33.50
   5  -7  -2   24.30   17.80
  -5   7   2    5.70   24.50
  -5   7   2   21.90   22.00
  -5   7   2   53.99   23.50
  -5   7   2   54.19   27.50
   4  -7  -2    2.10   11.40
   4  -7  -2    5.80   20.50
   4  -7  -2   17.50   17.10
  -4   7   2  -18.60   19.20
  -4   7   2    4.10   14.10
  -4   7   2   -4.20   13.90
  -4   7   2    2.00   24.00
   3  -7  -2  187.58   32.40
   3  -7  -2  161.38   18.90
   3  -7  -2  128.59   30.10
   3  -7  -2  145.39   26.50
  -3   7   2  108.79   19.60
  -3   7   2  203.08   35.40
  -3   7   2  161.38   32.20
   2  -7  -2   36.80   17.70
   2  -7  -2   31.80   16.50
   2  -7  -2   13.00    8.90
  -2   7   2   32.60   19.30
  -2   7   2   18.70   13.80
  -2   7   2   15.90    9.10
   1  -7  -2  309.27   20.80
   1  -7  -2  343.37   44.30
   1  -7  -2  312.07   32.90
   1  -7  -2  319.47   30.60
  -1   7   2  335.37   36.80
  -1   7   2  336.17   43.60
  -1   7   2  301.97   17.60
  -1   7   2  284.67   39.00
   0  -7  -2   -1.90   16.60
   0  -7  -2  -18.50   12.60
   0  -7  -2    7.40    8.10
   0  -7  -2   16.30   13.50
   0   7   2    6.00   10.60
   0   7   2    6.10    4.20
   0   7   2    6.20    4.70
   0   7   2    5.20   12.30
   0   7   2    2.70    8.60
   0   7   2    1.70   11.80
  -1  -7  -2   50.19   18.50
  -1  -7  -2   84.09   20.60
   1   7   2   72.39   10.30
   1   7   2   77.39   20.60
   1   7   2   61.99    8.70
   1   7   2   72.69   21.70
   1   7   2   88.69   17.10
  -2  -7  -2  294.47   42.60
  -2  -7  -2  338.17   34.70
   2   7   2  298.17   29.40
   2   7   2  296.57   39.40
   2   7   2  313.57   33.40
   2   7   2  326.97   46.00
  -3  -7  -2    1.30   14.00
   3   7   2   13.50   19.50
   3   7   2  -10.40    9.50
   3   7   2  -21.20   13.20
   3   7   2    9.80   15.10
   3   7   2    9.00   10.90
   3   7   2   28.00   22.70
   3   7   2  -11.30   13.90
   4   7   2   63.19   26.40
   4   7   2  127.49   29.00
   4   7   2  137.59   30.70
   4   7   2  104.79   19.20
   4   7   2   88.99   21.00
   4   7   2   78.89   21.90
   4   7   2  123.79   35.10
   5   7   2   -5.70   17.00
   5   7   2  -26.60   14.10
   5   7   2    3.30   20.30
   5   7   2   12.70   11.70
   5   7   2  -17.40   19.00
   5   7   2   21.20   31.00
   4  -8  -2    2.80   13.20
   4  -8  -2   65.89   25.00
   4  -8  -2  -38.40   16.80
   4  -8  -2    6.10   25.90
  -4   8   2   60.29   34.60
  -4   8   2    2.60   15.70
  -4   8   2   -5.70   17.10
   3  -8  -2  190.08   29.80
   3  -8  -2  211.68   40.50
   3  -8  -2  182.48   50.79
   3  -8  -2  134.49   18.40
  -3   8   2  165.38   38.70
  -3   8   2  166.38   20.80
  -3   8   2  161.08   33.30
   2  -8  -2  118.49   15.60
   2  -8  -2  113.79   29.40
   2  -8  -2  150.48   26.90
   2  -8  -2  119.09   30.20
  -2   8   2   94.59   28.80
  -2   8   2  133.89   32.70
  -2   8   2  158.08   35.30
  -2   8   2  102.49   13.10
   1  -8  -2  303.97   45.20
   1  -8  -2  286.77   45.30
   1  -8  -2  303.47   22.70
   1  -8  -2  331.77   32.40
  -1   8   2  297.97   42.40
  -1   8   2  333.97   47.20
  -1   8   2  297.37   44.20
   0  -8  -2  255.47   47.60
   0  -8  -2  298.57   45.00
   0  -8  -2  296.37   36.30
   0   8   2  305.87   42.60
   0   8   2  328.67   44.20
   0   8   2  275.37   39.40
  -1  -8  -2   56.89   21.20
  -1  -8  -2  -17.90   20.50
   1   8   2   48.80   22.20
   1   8   2   60.29   16.10
   1   8   2   30.60   21.70
   1   8   2   14.30   16.00
  -2  -8  -2    2.00   15.30
   2   8   2  -10.90   14.90
   2   8   2   -6.50   17.60
   2   8   2   12.30   14.90
   2   8   2    5.30    4.80
   2   8   2   14.20   25.60
   2   8   2  -14.80   15.10
  -3  -8  -2   82.59   27.20
   3   8   2   84.19   22.40
   3   8   2   41.40   30.90
   3   8   2   41.60   12.50
   3   8   2   34.10   16.40
   3   8   2   27.00   20.40
   3   8   2   54.29   22.60
   4   8   2   44.10   21.80
   4   8   2   29.40   31.20
   4   8   2   42.00   32.90
   4   8   2   13.30   15.60
   4   8   2   10.70   16.40
   4   8   2   66.99   25.30
   4   8   2    9.60   24.70
   2  -9  -2   33.10   26.00
   2  -9  -2   22.50   12.20
   2  -9  -2   56.59   33.60
   2  -9  -2   61.09   21.20
  -2   9   2    7.40   32.60
  -2   9   2   26.00   22.90
   1  -9  -2   -2.20   17.60
   1  -9  -2  -16.70   25.90
  -1   9   2  -41.50   28.50
  -1   9   2  -27.50   24.40
   0  -9  -2  105.99   55.89
   0  -9  -2   58.39   21.00
   0   9   2   36.40   26.60
   0   9   2   43.60   29.50
   0   9   2  -25.30   24.90
  -1  -9  -2   60.19   22.30
   1   9   2   72.99   19.60
   1   9   2   58.69   30.70
   1   9   2  114.29   40.60
   1   9   2  127.09   47.10
   1   9   2   55.19   26.90
  -2  -9  -2  248.38   41.00
   2   9   2  226.58   45.00
   2   9   2  244.48   43.70
   2   9   2  257.27   34.00
   2   9   2  242.58   43.30
   2   9   2  237.78   57.89
   1   8  -3   37.80   25.50
   1   8  -3   36.00   20.70
   1   8  -3  -27.70   24.30
  -1  -8   3  -26.40   55.29
  -1  -8   3    8.40   24.60
   0   8  -3  265.87   45.80
   0   8  -3  195.08   40.50
   0   8  -3  220.68   37.30
   0   8  -3  263.07   44.00
   0  -8   3  258.87   43.60
   0  -8   3  220.08   52.79
  -1   8  -3  -12.60   26.30
  -1   8  -3  -15.20   23.80
   1  -8   3   56.49   32.80
   1  -8   3   36.90   26.40
  -2   8  -3   94.29   30.90
  -2   8  -3   81.19   31.10
  -2   8  -3   78.19   39.00
   2  -8   3   70.89   29.30
   2  -8   3   58.19   30.30
   3   7  -3   85.09   31.10
   3   7  -3   69.79   35.70
   3   7  -3   87.99   36.90
  -3  -7   3   91.39   33.90
  -3  -7   3  101.19   32.60
  -3  -7   3   75.59   32.20
   2   7  -3    4.20   11.40
   2   7  -3   20.40   22.40
   2   7  -3    5.70   17.00
  -2  -7   3   19.30   24.90
  -2  -7   3  -12.70   19.70
   1   7  -3   71.09   17.80
   1   7  -3   60.79   25.70
   1   7  -3   65.09   23.80
  -1  -7   3  115.89   30.50
   0   7  -3   35.60   20.90
   0   7  -3   51.39   26.20
   0   7  -3   -5.00   15.90
   0   7  -3   42.70   23.00
   0  -7   3  -51.19   28.30
   0  -7   3    8.70   20.90
  -1   7  -3   -6.70   17.60
  -1   7  -3   38.60   23.60
  -1   7  -3   27.00   18.90
  -1   7  -3  -22.70   19.10
   1  -7   3   -9.10   18.20
   1  -7   3   12.30   21.30
  -2   7  -3   19.10   23.70
  -2   7  -3   26.90   22.90
   2  -7   3   36.70   22.40
   2  -7   3  -18.30   22.90
   2  -7   3   41.20   19.70
  -3   7  -3   58.39   28.40
  -3   7  -3  117.59   32.40
   3  -7   3  208.48   62.59
   3  -7   3   98.39   33.90
  -4   7  -3   66.19   26.80
  -4   7  -3  -10.30   29.10
  -4   7  -3  -10.60   24.40
   4  -7   3   57.39   32.00
   4  -7   3   26.30   33.80
   4  -7   3   67.59   27.20
   5   6  -3  103.79   29.50
   5   6  -3   97.69   37.70
   5   6  -3  130.19   29.40
  -5  -6   3  138.39   40.80
  -5  -6   3  154.08   32.30
  -5  -6   3  163.88   38.00
   4   6  -3    9.80   38.30
   4   6  -3   18.10   23.50
   4   6  -3  -24.80   23.70
  -4  -6   3   16.70   15.00
  -4  -6   3   -1.90   20.40
  -4  -6   3  -20.80   17.00
   3   6  -3   -0.50   22.50
   3   6  -3   41.40   21.10
   3   6  -3   22.40   29.50
  -3  -6   3   16.00   15.00
  -3  -6   3   40.00   24.60
  -3  -6   3   15.70   19.60
   2   6  -3   69.39   23.10
   2   6  -3   51.59   27.40
   2   6  -3   70.59   12.00
   2   6  -3   64.49   21.70
  -2  -6   3   94.29   24.30
  -2  -6   3  103.09   31.80
  -2  -6   3   57.09   23.70
   1   6  -3  319.07   43.30
   1   6  -3  297.87   40.30
   1   6  -3  281.07   25.90
  -1  -6   3  293.17   41.10
  -1  -6   3  301.57   40.60
   0   6  -3  135.99   24.00
   0   6  -3  152.78   27.60
   0   6  -3  148.59   29.30
   0   6  -3  134.69   26.40
   0  -6   3  131.19   27.30
   0  -6   3  180.78   32.10
  -1   6  -3  195.58   30.60
  -1   6  -3  205.18   32.20
  -1   6  -3  205.98   36.40
  -1   6  -3  155.88   28.60
   1  -6   3  168.68   32.60
   1  -6   3  162.68   46.60
  -2   6  -3  276.47   40.40
  -2   6  -3  292.57   39.90
   2  -6   3  249.08   38.70
   2  -6   3  249.88   35.70
   2  -6   3  249.38   37.00
  -3   6  -3  237.48   37.70
  -3   6  -3  211.98   34.30
  -3   6  -3  198.78   30.30
   3  -6   3  185.68   33.50
   3  -6   3  234.18   40.00
   3  -6   3  236.48   35.40
  -4   6  -3   62.19   25.30
  -4   6  -3   25.80   15.50
  -4   6  -3   28.70   21.60
   4  -6   3  -31.70   19.60
   4  -6   3    1.40   11.70
   4  -6   3  -11.40   18.30
   4  -6   3    9.90   22.30
  -5   6  -3   31.30   29.90
  -5   6  -3   33.60   25.70
  -5   6  -3   37.70   18.40
  -5   6  -3   -7.30   21.30
   5  -6   3   -3.10   16.70
   5  -6   3   21.50   24.10
   5  -6   3   22.30   23.40
   5   5  -3   28.80   20.10
   5   5  -3   -7.10   17.50
   5   5  -3  -13.00   28.10
   5   5  -3   40.80   27.20
  -5  -5   3   -5.60   15.60
  -5  -5   3   22.10   19.80
  -5  -5   3    4.00   18.30
   4   5  -3    4.00   21.30
   4   5  -3   -1.50   16.10
   4   5  -3   38.70   20.00
   4   5  -3   12.60   14.80
   4   5  -3   17.30   20.30
  -4  -5   3   12.50   14.50
  -4  -5   3   -7.40   13.40
  -4  -5   3   -5.10   15.00
  -4  -5   3    9.50   20.30
   3   5  -3  264.77   40.70
   3   5  -3  273.17   39.00
  -3  -5   3  309.57   41.30
  -3  -5   3  347.77   27.20
  -3  -5   3  268.17   35.70
  -3  -5   3  211.28   34.20
   2   5  -3  237.78   35.70
   2   5  -3  228.68   37.00
   2   5  -3  214.48   15.40
   2   5  -3  176.08   32.00
  -2  -5   3  293.97   38.20
  -2  -5   3  232.58   20.60
  -2  -5   3  169.38   28.80
  -2  -5   3  177.38   30.60
   1   5  -3   30.90   10.80
   1   5  -3   14.60   10.80
   1   5  -3   50.19   19.30
  -1  -5   3   44.00   16.50
  -1  -5   3   80.29   18.90
  -1  -5   3  -15.50   13.20
   0   5  -3  348.37   34.70
   0   5  -3  289.57   36.00
   0   5  -3  328.87   31.30
   0   5  -3  301.07   27.80
   0  -5   3  303.27   40.10
   0  -5   3  323.57   32.80
  -1   5  -3  147.99   27.10
  -1   5  -3  108.19   21.30
  -1   5  -3  120.29   24.10
  -1   5  -3  123.29   22.90
   1  -5   3  146.39   33.20
   1  -5   3  110.79   21.60
  -2   5  -3  466.35   35.10
  -2   5  -3  513.75   42.10
  -2   5  -3  435.96   39.20
   2  -5   3  507.75   40.60
   2  -5   3  457.55   17.80
   2  -5   3  515.95   42.80
  -3   5  -3  231.28   33.10
  -3   5  -3  288.07   27.60
  -3   5  -3  235.88   34.20
   3  -5   3  274.07   21.00
   3  -5   3  215.78   34.40
   3  -5   3  285.37   35.70
  -4   5  -3  188.08   33.60
  -4   5  -3  182.88   25.80
  -4   5  -3  222.88   35.10
   4  -5   3  174.18   33.80
   4  -5   3  189.98   32.40
   4  -5   3  170.68   23.00
  -5   5  -3   71.59   22.70
  -5   5  -3  114.89   26.60
  -5   5  -3  102.49   26.40
  -5   5  -3   57.89   17.80
   5  -5   3   45.80   18.00
   5  -5   3   94.99   28.70
  -6   5  -3   24.10   29.00
  -6   5  -3    0.20   19.00
  -6   5  -3   27.80   24.30
  -6   5  -3   12.70   14.10
   6  -5   3   35.60   20.40
   6  -5   3   53.49   25.00
   6  -5   3  -42.60   23.10
   6   4  -3    2.00   16.70
   6   4  -3   -8.20   21.00
   6   4  -3    3.00   24.30
   6   4  -3    7.90   26.80
  -6  -4   3   -0.30   20.80
  -6  -4   3   -7.80   23.70
   5   4  -3  178.18   37.70
   5   4  -3  118.59   25.00
   5   4  -3  125.39   34.10
   5   4  -3   79.49   22.60
  -5  -4   3   93.69   27.40
   4   4  -3   69.59   19.70
   4   4  -3   51.99   16.60
   4   4  -3   34.10   21.00
   4   4  -3   22.70   20.00
  -4  -4   3   23.90   13.50
  -4  -4   3   20.90   14.40
  -4  -4   3   48.10   17.80
  -4  -4   3   44.20   19.50
   3   4  -3  459.25   43.20
   3   4  -3  455.65   42.70
   3   4  -3  434.26   32.00
  -3  -4   3  487.85   33.40
  -3  -4   3  541.55   44.30
  -3  -4   3  444.36   40.10
  -3  -4   3  441.06   34.70
   2   4  -3   27.60   14.10
   2   4  -3   22.70    5.40
   2   4  -3   23.30   14.70
   2   4  -3   19.00   13.60
  -2  -4   3    6.10   11.80
  -2  -4   3   33.90   10.40
  -2  -4   3    1.40   10.90
  -2  -4   3   36.30   13.90
   1   4  -3  511.15   37.80
   1   4  -3  530.15   40.30
   1   4  -3  468.15   24.80
  -1  -4   3  484.85   21.60
  -1  -4   3  480.95   37.30
  -1  -4   3  522.25   36.90
   0   4  -3   53.69   16.30
   0   4  -3   31.20   14.00
   0   4  -3   32.20   10.60
   0   4  -3   30.00   12.50
   0  -4   3   32.70    5.00
   0  -4   3   16.60    9.20
   0  -4   3   33.50   13.80
  -1   4  -3  873.11   47.60
  -1   4  -3  893.81   43.40
  -1   4  -3  829.82   48.30
  -1   4  -3  825.12   43.30
   1  -4   3  881.01   48.70
   1  -4   3  841.42   23.10
   1  -4   3  860.81   46.60
  -2   4  -3  400.16   33.80
  -2   4  -3  282.67   30.30
  -2   4  -3  336.17   26.30
   2  -4   3  318.77   18.80
   2  -4   3  293.87   28.00
   2  -4   3  241.68   30.50
  -3   4  -3  350.46   34.10
  -3   4  -3  257.07   23.90
  -3   4  -3  293.17   36.40
   3  -4   3  296.87   31.80
   3  -4   3  331.37   24.50
   3  -4   3  273.67   30.00
  -4   4  -3   57.79   18.70
  -4   4  -3   79.99   22.20
  -4   4  -3   76.19   16.20
   4  -4   3   41.20   18.20
   4  -4   3  100.59   19.50
   4  -4   3   79.69   21.50
  -5   4  -3    1.20   16.20
  -5   4  -3   20.00   11.00
   5  -4   3   -2.10   17.10
   5  -4   3    1.90   17.80
   5  -4   3   29.50   14.10
  -6   4  -3   52.69   17.90
  -6   4  -3   11.00   21.00
  -6   4  -3   32.00   19.70
   6  -4   3  -19.40   17.60
   6  -4   3   61.99   27.80
   6  -4   3   19.10   23.40
  -7   4  -3  405.66   57.29
  -7   4  -3  495.85   41.40
  -7   4  -3  380.06   54.19
   7  -4   3  433.56   59.39
   7  -4   3  316.17   45.40
   7  -4   3  397.26   64.69
   7   3  -3   73.29   18.70
   7   3  -3  105.49   35.60
   7   3  -3   91.49   34.20
  -7  -3   3  101.29   45.70
  -7  -3   3   76.39   31.80
   6   3  -3   83.49   28.90
   6   3  -3   56.19   25.70
   6   3  -3   56.19   17.50
  -6  -3   3   51.89   24.80
   5   3  -3   16.30   12.80
   5   3  -3   28.10   18.70
   5   3  -3   10.90   13.00
   5   3  -3  -11.20   15.40
  -5  -3   3   -5.50   14.80
  -5  -3   3   -9.90   10.40
   4   3  -3  150.48   22.90
   4   3  -3  140.09   24.10
   4   3  -3  143.59   29.20
  -4  -3   3  116.19   23.30
  -4  -3   3  144.29   19.50
  -4  -3   3  147.59   26.50
   3   3  -3  258.77   26.50
   3   3  -3  296.97   26.30
   3   3  -3  234.78   33.70
   3   3  -3  222.48   30.50
  -3  -3   3  230.58   24.40
  -3  -3   3  286.47   34.60
  -3  -3   3  272.77   29.50
  -3  -3   3  276.37   24.10
   2   3  -3  344.87   24.50
   2   3  -3  396.46   34.80
   2   3  -3  374.46   32.40
   2   3  -3  354.36    9.60
  -2  -3   3  336.57   24.20
  -2  -3   3  366.16   32.30
  -2  -3   3  343.07   29.40
   1   3  -3  723.83   41.40
   1   3  -3  751.02   43.30
   1   3  -3  717.23   26.80
  -1  -3   3  727.83   40.10
  -1  -3   3  694.83   41.10
  -1  -3   3  754.62   29.50
   0   3  -3 1429.06   56.99
   0   3  -3 1465.25   57.99
   0   3  -3 1440.76   46.60
   0  -3   3 1489.55   37.80
   0  -3   3 1454.75   56.79
   0  -3   3 1343.07   51.69
  -1   3  -3  332.77   27.40
  -1   3  -3  262.27   20.80
  -1   3  -3  283.87   26.00
  -1   3  -3  284.87   24.10
   1  -3   3  245.48   24.80
   1  -3   3  270.57   15.50
   1  -3   3  302.87   26.90
  -2   3  -3   48.20   14.00
  -2   3  -3   37.00    9.70
  -2   3  -3   28.10   12.80
   2  -3   3   48.10   14.10
   2  -3   3   55.69   10.70
   2  -3   3   42.60   12.90
   2  -3   3   46.00   12.70
  -3   3  -3   85.09   18.80
  -3   3  -3   85.09   12.90
  -3   3  -3   73.29   16.50
   3  -3   3   66.39   17.80
   3  -3   3   57.79   13.50
   3  -3   3   88.49   18.70
  -4   3  -3   60.99   11.40
  -4   3  -3   36.20   15.20
  -4   3  -3   72.69   20.20
   4  -3   3   60.29   17.20
   4  -3   3   65.79   16.50
   4  -3   3   59.29   17.10
  -5   3  -3    1.70   11.20
  -5   3  -3  -12.50   11.50
   5  -3   3    2.00   12.30
  -6   3  -3   32.90   19.20
  -6   3  -3   66.99   17.60
  -6   3  -3   31.20   22.50
   6  -3   3   65.39   22.40
   6  -3   3   71.29   24.00
  -7   3  -3    5.90   11.90
  -7   3  -3   24.50   23.80
   7  -3   3   26.30   23.10
   7  -3   3  -18.60   20.30
   7   2  -3   17.50   27.90
   7   2  -3    2.90   12.70
   7   2  -3  -15.10   17.10
  -7  -2   3  -23.90   18.50
  -7  -2   3    1.40   20.60
  -7  -2   3   14.30   20.10
   6   2  -3  421.66   44.90
   6   2  -3  383.46   31.60
   6   2  -3  360.76   46.80
  -6  -2   3  396.16   44.10
  -6  -2   3  461.35   44.10
   5   2  -3  498.05   44.20
   5   2  -3  534.05   47.50
   5   2  -3  517.45   34.70
  -5  -2   3  545.25   42.90
  -5  -2   3  514.25   45.70
   4   2  -3  659.93   37.00
   4   2  -3  636.94   44.50
   4   2  -3  731.53   47.40
   4   2  -3  630.54   43.50
  -4  -2   3  639.94   44.30
  -4  -2   3  626.44   42.60
  -4  -2   3  597.14   27.10
   3   2  -3  124.59   22.30
   3   2  -3   93.69   21.30
   3   2  -3   89.19   18.20
   3   2  -3   83.29   16.10
  -3  -2   3   97.79   20.30
  -3  -2   3   85.89   18.90
  -3  -2   3   94.09   13.90
  -3  -2   3  117.39   20.40
   2   2  -3 1675.23   63.39
   2   2  -3 1654.33   57.79
   2   2  -3 1807.72   64.19
   2   2  -3 1698.73   55.99
  -2  -2   3 1671.83   61.09
  -2  -2   3 1703.33   55.29
  -2  -2   3 1662.33   62.59
   1   2  -3   95.09    9.10
   1   2  -3  113.39   17.80
  -1  -2   3  112.79   17.90
  -1  -2   3  103.19    9.80
  -1  -2   3  113.99   17.00
  -1  -2   3  110.99   18.30
   0   2  -3    6.90    6.80
   0   2  -3   17.90    9.70
   0   2  -3   10.80    8.20
   0  -2   3    4.30    6.20
   0  -2   3    3.40    5.10
   0  -2   3    8.10    6.50
  -1   2  -3  208.18   17.20
  -1   2  -3  203.78   18.50
  -1   2  -3  242.08   20.00
  -1   2  -3  238.68   22.00
   1  -2   3  211.48   16.20
   1  -2   3  216.58   19.50
   1  -2   3  196.18   21.00
   1  -2   3  221.58   19.70
  -2   2  -3 1295.37   36.20
  -2   2  -3 1186.28   49.10
  -2   2  -3 1237.68   47.40
   2  -2   3 1242.38   47.30
   2  -2   3 1258.97   51.19
   2  -2   3 1274.47   50.19
  -3   2  -3   11.70    5.20
  -3   2  -3    5.50    9.30
  -3   2  -3   26.10    9.50
   3  -2   3   28.70   11.00
   3  -2   3   13.10    8.00
   3  -2   3   16.10    9.00
   3  -2   3    8.60   11.20
  -4   2  -3    9.70    9.80
  -4   2  -3   29.40   13.80
   4  -2   3   24.00   12.10
   4  -2   3   11.20    9.90
   4  -2   3   -8.70    7.80
  -5   2  -3   36.30   19.70
  -5   2  -3   17.40   12.00
   5  -2   3   12.30   11.90
   5  -2   3   -9.00   11.30
   5  -2   3  -15.70    9.50
  -6   2  -3  102.29   15.30
  -6   2  -3   90.59   24.90
  -6   2  -3  125.29   25.90
   6  -2   3  117.59   28.90
   6  -2   3  127.49   25.80
  -7   2  -3  267.37   21.00
  -7   2  -3  262.77   43.20
  -7   2  -3  239.98   39.20
   7  -2   3  233.28   39.30
   7  -2   3  220.68   42.00
  -8   2  -3   -7.50    5.70
  -8   2  -3   11.00   10.90
  -8   2  -3    5.10    5.00
   8  -2   3   22.10   27.10
   8  -2   3  -18.10   27.60
   7   1  -3   81.39   25.40
   7   1  -3  130.69   36.30
   7   1  -3   95.29   17.10
  -7  -1   3   54.89   25.60
  -7  -1   3  -16.40   29.00
  -7  -1   3   87.09   14.40
   6   1  -3    4.60   19.40
   6   1  -3   37.90   19.50
   6   1  -3    9.90   10.90
  -6  -1   3   27.80   17.90
  -6  -1   3    4.90    9.20
   5   1  -3  255.57   37.30
   5   1  -3  243.68   23.60
   5   1  -3  183.78   32.30
  -5  -1   3  263.47   16.40
  -5  -1   3  267.47   37.10
  -5  -1   3  261.17   38.80
   4   1  -3  140.59   24.70
   4   1  -3  136.19   24.80
   4   1  -3   82.89   16.00
  -4  -1   3  108.39    9.90
  -4  -1   3  101.39   20.80
  -4  -1   3  122.99   21.60
   3   1  -3 1729.63   63.29
   3   1  -3 1559.94   54.09
   3   1  -3 1678.43   63.09
   3   1  -3 1734.13   65.19
  -3  -1   3 1606.14   33.50
  -3  -1   3 1639.24   61.19
  -3  -1   3 1682.43   62.19
  -3  -1   3 1661.83   64.09
   2   1  -3  261.87   21.90
   2   1  -3  272.27   24.60
   2   1  -3  308.97   24.30
   2   1  -3  294.27   23.40
  -2  -1   3  273.67   22.90
  -2  -1   3  313.57   24.70
  -2  -1   3  277.87   12.00
   1   1  -3 2498.95   65.99
   1   1  -3 2429.76   49.10
   1   1  -3 2594.84   69.29
  -1  -1   3 2436.86   62.49
  -1  -1   3 2484.35   68.39
  -1  -1   3 2512.65   49.99
   0   1  -3 1887.41   55.39
   0   1  -3 1822.72   50.59
   0   1  -3 1773.02   45.30
   0  -1   3 1763.52   53.59
   0  -1   3 1843.42   46.20
  -1   1  -3  243.38   12.50
  -1   1  -3  285.67   18.40
  -1   1  -3  244.58   18.60
  -1   1  -3  230.98   20.10
   1  -1   3  239.18   21.00
   1  -1   3  266.17   14.20
   1  -1   3  234.18   20.60
  -2   1  -3  930.01   35.10
  -2   1  -3  875.31   27.70
  -2   1  -3  933.31   40.20
   2  -1   3  940.41   37.00
   2  -1   3  953.30   41.10
   2  -1   3  895.81   40.10
   2  -1   3  964.10   35.00
  -3   1  -3   17.80   11.20
  -3   1  -3   10.10    7.50
  -3   1  -3   16.90    2.70
   3  -1   3    9.80    8.60
   3  -1   3    6.70    7.30
   3  -1   3   11.50   10.30
  -4   1  -3 1143.49   53.09
  -4   1  -3 1016.70   45.20
   4  -1   3 1045.00   45.80
   4  -1   3 1129.99   52.49
   4  -1   3 1100.49   52.09
  -5   1  -3   25.60    7.20
  -5   1  -3   15.00   12.10
  -5   1  -3   21.50   11.70
   5  -1   3   53.19   16.90
   5  -1   3   22.10   14.40
   5  -1   3   25.80   11.30
  -6   1  -3  294.97   15.90
  -6   1  -3  318.57   40.50
  -6   1  -3  349.17   35.80
   6  -1   3  288.37   45.70
   6  -1   3  289.77   31.60
   6  -1   3  250.07   35.50
  -7   1  -3  -12.60   21.80
  -7   1  -3   35.80   10.70
   7  -1   3   33.00   20.00
   7  -1   3   54.19   20.90
  -8   1  -3   25.10   28.30
  -8   1  -3   14.10   12.10
  -8   1  -3  -31.10   25.90
   8  -1   3  -41.20   21.00
   8  -1   3   21.90   27.70
   7   0  -3   42.50   21.40
   7   0  -3   52.29   15.60
   7   0  -3   75.99   26.40
   7   0  -3   47.10   27.90
  -7   0   3   66.19   17.10
  -7   0   3  110.49   36.60
  -7   0   3   52.39   26.70
   6   0  -3  230.08   38.00
   6   0  -3  297.97   40.30
   6   0  -3  279.87   25.90
   6   0  -3  275.07   41.80
  -6   0   3  294.57   26.10
   5   0  -3  788.42   50.09
   5   0  -3  764.92   53.59
   5   0  -3  845.12   40.00
  -5   0   3  716.63   52.49
  -5   0   3  797.12   51.59
  -5   0   3  866.41   38.00
  -5   0   3  788.02   39.70
   4   0  -3  716.73   46.20
   4   0  -3  745.73   35.50
   4   0  -3  777.92   45.60
  -4   0   3  622.84   40.30
  -4   0   3  675.33   30.60
  -4   0   3  611.54   33.70
  -4   0   3  683.93   45.00
   3   0  -3  465.65   32.80
   3   0  -3  495.35   28.20
   3   0  -3  523.45   33.30
  -3   0   3  521.25   31.90
  -3   0   3  468.45   28.00
  -3   0   3  461.65   32.60
   2   0  -3  812.92   38.90
   2   0  -3  763.72   34.00
   2   0  -3  742.13   35.60
   2   0  -3  679.33   36.90
  -2   0   3  779.22   32.50
  -2   0   3  715.23   36.20
  -2   0   3  799.12   34.80
  -2   0   3  756.42   35.70
   1   0  -3  105.89   14.80
   1   0  -3  106.79   13.80
   1   0  -3  115.49   11.20
  -1   0   3  104.39   14.80
  -1   0   3  124.39   11.00
  -1   0   3  106.69   16.90
  -1   0   3  107.99   14.00
   0   0  -3  115.79   11.20
   0   0  -3   87.19   13.00
   0   0  -3  101.19   13.00
   0   0   3   97.39   13.00
   0   0   3  128.09   12.30
   0   0   3  120.69   12.70
  -1   0  -3  433.86   23.60
  -1   0  -3  445.66   22.10
  -1   0  -3  433.36   19.80
  -1   0  -3  460.55   17.20
   1   0   3  429.26   28.60
   1   0   3  484.65   24.80
   1   0   3  463.25   17.30
  -2   0  -3  254.37   14.50
  -2   0  -3  219.68   15.00
  -2   0  -3  257.37   17.20
  -2   0  -3  241.48   19.10
   2   0   3  233.48   13.90
   2   0   3  231.58   19.90
  -3   0  -3 1337.07   35.20
  -3   0  -3 1320.07   50.49
  -3   0  -3 1269.37   54.09
  -3   0  -3 1419.46   42.80
   3   0   3 1346.27   43.00
   3   0   3 1359.66   52.29
   3   0   3 1355.86   51.09
  -4   0  -3  335.17   13.60
  -4   0  -3  329.67   14.80
  -4   0  -3  342.27   27.20
   4   0   3  328.77   28.50
   4   0   3  317.07   23.60
   4   0   3  351.86   29.50
  -5   0  -3 1154.78   58.19
  -5   0  -3 1028.30   24.70
  -5   0  -3 1119.29   54.39
  -5   0  -3 1152.58   33.60
   5   0   3 1102.39   57.99
   5   0   3 1157.68   50.49
   5   0   3 1119.59   55.09
  -6   0  -3  469.75   28.20
  -6   0  -3  397.06   36.80
  -6   0  -3  408.26   40.80
   6   0   3  471.05   37.00
   6   0   3  520.45   42.20
   6   0   3  453.95   43.30
  -7   0  -3  386.56   39.90
  -7   0  -3  424.36   27.50
  -7   0  -3  577.94   52.89
  -7   0  -3  427.66   49.30
   7   0   3  392.16   43.40
   7   0   3  435.76   41.00
   7   0   3  502.35   45.30
  -8   0  -3  110.19   34.70
  -8   0  -3   61.19   16.50
  -8   0  -3   74.29   26.50
   8   0   3   51.49   32.30
   8   0   3   50.59   27.50
   7  -1  -3  133.79   31.40
   7  -1  -3  165.28   40.30
   7  -1  -3  151.28   36.10
   7  -1  -3   93.19   18.60
  -7   1   3   82.49   20.40
  -7   1   3  152.48   26.30
  -7   1   3  119.49   32.60
  -7   1   3  127.79   34.70
   6  -1  -3   42.00   20.10
   6  -1  -3   29.40   11.80
   6  -1  -3   43.30   19.50
  -6   1   3   39.30   14.80
  -6   1   3   78.39   22.40
  -6   1   3   57.79   16.30
   5  -1  -3  135.69   24.70
   5  -1  -3  134.89   27.70
   5  -1  -3  130.89   18.70
   5  -1  -3  107.99   27.00
  -5   1   3  163.18   22.10
  -5   1   3  145.59   22.70
  -5   1   3  180.68   28.50
  -5   1   3  167.08   29.10
   4  -1  -3   44.70   12.60
   4  -1  -3   67.79   18.90
   4  -1  -3   59.89   17.70
   4  -1  -3   35.90   10.60
  -4   1   3   42.90   15.90
  -4   1   3   55.69   12.60
  -4   1   3   60.69   15.70
   3  -1  -3  278.37   23.50
   3  -1  -3  306.57   22.60
   3  -1  -3  324.47   27.90
  -3   1   3  296.67   23.50
  -3   1   3  358.16   13.20
  -3   1   3  313.67   23.50
  -3   1   3  270.67   25.70
   2  -1  -3   50.19   13.50
   2  -1  -3   48.70   13.30
   2  -1  -3   31.80    9.60
  -2   1   3   59.69   11.40
  -2   1   3   29.90   11.90
  -2   1   3   61.49   11.40
  -2   1   3   56.29   10.10
   1  -1  -3 4321.27   88.29
   1  -1  -3 4390.76   81.69
  -1   1   3 4271.47   80.69
  -1   1   3 4395.06   93.49
  -1   1   3 4004.20  125.69
  -1   1   3 4461.35   68.99
   0  -1  -3 1649.13   39.70
   0   1   3 1609.24   44.90
   0   1   3 1627.14   39.70
   0   1   3 1560.94   44.10
  -1  -1  -3 1355.36   41.10
  -1  -1  -3 1337.77   41.40
  -1  -1  -3 1309.07   37.00
   1   1   3 1286.27   37.00
  -2  -1  -3  401.26   24.00
  -2  -1  -3  400.46   17.50
  -2  -1  -3  391.76   23.60
   2   1   3  404.56   24.70
   2   1   3  390.96   17.60
   2   1   3  395.06   14.90
   2   1   3  394.16   13.70
  -3  -1  -3   -2.50    4.90
  -3  -1  -3    6.70    8.10
  -3  -1  -3   15.30    3.90
   3   1   3    7.30    6.60
   3   1   3   -4.40    3.30
   3   1   3    5.50    8.20
  -4  -1  -3 1854.61   62.99
  -4  -1  -3 1707.73   64.49
  -4  -1  -3 1826.62   70.49
  -4  -1  -3 1755.72   43.90
   4   1   3 1801.02   68.19
   4   1   3 1874.01   63.99
   4   1   3 1672.53   52.99
  -5  -1  -3  432.76   38.10
  -5  -1  -3  433.26   33.10
   5   1   3  414.46   33.50
   5   1   3  406.76   35.30
   5   1   3  426.76   29.80
  -6  -1  -3 1042.70   66.99
  -6  -1  -3  999.30   40.90
  -6  -1  -3 1089.29   55.69
   6   1   3 1205.38   56.19
   6   1   3 1149.69   67.29
   6   1   3 1087.89   55.79
  -7  -1  -3  287.57   38.30
  -7  -1  -3  261.07   25.10
  -7  -1  -3  201.88   38.50
   7   1   3  187.48   37.50
   7   1   3  211.08   33.50
   7   1   3  287.47   36.60
  -8  -1  -3   20.40   27.70
  -8  -1  -3  104.79   20.30
   8   1   3   77.09   26.40
   8   1   3  136.49   35.60
   7  -2  -3  -25.50   22.90
   7  -2  -3    1.70   15.90
   7  -2  -3    7.70   21.30
  -7   2   3    4.20   18.40
  -7   2   3   -1.40   14.00
  -7   2   3    9.00   23.20
  -7   2   3   62.69   28.30
   6  -2  -3  227.18   39.30
   6  -2  -3  296.17   29.00
   6  -2  -3  300.27   42.90
  -6   2   3  318.97   44.20
  -6   2   3  326.67   41.90
  -6   2   3  354.26   31.50
  -6   2   3  318.87   34.10
   5  -2  -3   63.19   17.50
   5  -2  -3   54.39   17.80
   5  -2  -3   55.09   14.60
   5  -2  -3   52.19   20.10
  -5   2   3   73.59   18.10
  -5   2   3   60.59   16.10
  -5   2   3   31.50   18.10
  -5   2   3   66.39   18.90
   4  -2  -3  166.98   21.50
   4  -2  -3  153.98   25.80
   4  -2  -3  138.29   26.30
   4  -2  -3  163.48   22.70
  -4   2   3  139.79   19.80
  -4   2   3  144.29   23.60
   3  -2  -3   48.40   10.80
   3  -2  -3   49.99   14.80
   3  -2  -3   52.49   13.40
   3  -2  -3   49.80   11.80
  -3   2   3   54.99   13.40
  -3   2   3   53.59   14.80
  -3   2   3   62.99    9.80
   2  -2  -3 1652.53   57.79
   2  -2  -3 1606.34   52.09
   2  -2  -3 1581.44   44.00
   2  -2  -3 1617.24   54.59
  -2   2   3 1625.64   53.29
  -2   2   3 1635.54   57.89
  -2   2   3 1574.64   44.50
   1  -2  -3 1760.92   38.00
   1  -2  -3 1752.52   49.60
   1  -2  -3 1807.12   52.89
  -1   2   3 1791.92   52.79
  -1   2   3 1801.72   58.59
  -1   2   3 1697.73   53.89
   0  -2  -3  173.98   16.00
   0  -2  -3  162.38   11.60
   0   2   3  173.98   12.00
   0   2   3  162.98    9.40
   0   2   3  156.58    8.90
  -1  -2  -3  169.28   17.00
  -1  -2  -3  161.38    8.30
  -1  -2  -3  142.49   12.60
   1   2   3  159.98   14.00
   1   2   3  162.58    8.30
   1   2   3  183.98   16.80
   1   2   3  166.08   13.40
  -2  -2  -3  569.64   36.10
  -2  -2  -3  587.34   29.80
  -2  -2  -3  586.84   22.80
  -2  -2  -3  589.74   31.40
   2   2   3  564.74   29.30
   2   2   3  577.24   25.10
   2   2   3  562.84   22.80
  -3  -2  -3  421.96   26.70
  -3  -2  -3  442.36   31.30
  -3  -2  -3  420.16   30.10
   3   2   3  413.56   30.00
   3   2   3  437.36   22.50
   3   2   3  397.76   26.50
   3   2   3  411.96   16.80
  -4  -2  -3  417.86   23.90
  -4  -2  -3  413.36   32.50
  -4  -2  -3  351.66   31.30
  -4  -2  -3  396.06   27.90
   4   2   3  379.86   32.20
   4   2   3  347.17   27.00
  -5  -2  -3  423.16   31.80
  -5  -2  -3  467.75   28.60
  -5  -2  -3  499.85   43.30
   5   2   3  486.95   39.90
   5   2   3  453.45   33.10
   5   2   3  385.86   30.30
  -6  -2  -3   19.70   15.20
  -6  -2  -3   29.40   15.00
  -6  -2  -3   45.80   12.90
   6   2   3   57.99   16.90
   6   2   3   57.39   19.60
   6   2   3   34.30   14.90
  -7  -2  -3    5.00   17.60
  -7  -2  -3   -3.10   14.00
  -7  -2  -3    9.30   11.50
   7   2   3   23.20   18.50
   7   2   3   10.20   12.10
   7   2   3    0.10   13.90
   7   2   3    3.20   15.40
  -8  -2  -3   43.70   28.00
  -8  -2  -3   -3.70   18.60
  -8  -2  -3   -7.00   15.10
   8   2   3   -0.20   13.00
   8   2   3   11.40   28.10
   8   2   3   -1.40   20.90
   7  -3  -3  128.69   36.90
   7  -3  -3   55.89   27.00
   7  -3  -3   86.39   35.30
  -7   3   3   71.69   28.50
  -7   3   3   -2.50   29.50
  -7   3   3  127.39   25.60
   6  -3  -3   -4.40   17.60
   6  -3  -3   16.10   15.90
  -6   3   3   22.20   18.80
  -6   3   3   -2.10   13.90
  -6   3   3   11.80   13.90
   5  -3  -3  247.58   37.00
   5  -3  -3  308.67   30.80
   5  -3  -3  271.97   27.50
  -5   3   3  273.77   35.40
  -5   3   3  298.77   39.70
  -5   3   3  324.37   31.30
   4  -3  -3  466.15   38.50
   4  -3  -3  443.06   32.30
   4  -3  -3  461.35   31.30
   4  -3  -3  518.35   40.50
  -4   3   3  468.95   38.70
  -4   3   3  488.15   33.70
   3  -3  -3 1319.07   57.99
   3  -3  -3 1169.38   50.09
   3  -3  -3 1189.18   54.79
   3  -3  -3 1360.36   45.20
  -3   3   3 1224.58   50.69
  -3   3   3 1259.67   44.10
  -3   3   3 1219.28   55.19
   2  -3  -3  293.77   24.40
   2  -3  -3  319.47   25.10
   2  -3  -3  306.87   16.40
  -2   3   3  279.57   24.50
  -2   3   3  326.17   22.70
  -2   3   3  309.87   25.50
  -2   3   3  310.87   26.10
   1  -3  -3 3640.34   83.39
   1  -3  -3 3699.53   88.09
  -1   3   3 3712.63   84.29
  -1   3   3 3722.43   89.09
  -1   3   3 3666.33   86.59
  -1   3   3 3616.44   86.49
   0  -3  -3 1908.31   56.39
   0   3   3 1811.52   55.79
   0   3   3 1854.41   58.39
   0   3   3 1885.21   49.20
  -1  -3  -3 1544.85   48.00
  -1  -3  -3 1521.05   40.00
  -1  -3  -3 1584.64   54.09
   1   3   3 1613.04   55.89
   1   3   3 1548.45   50.09
   1   3   3 1572.94   40.60
   1   3   3 1510.95   47.70
   1   3   3 1527.15   50.99
  -2  -3  -3 1444.56   52.69
  -2  -3  -3 1474.45   55.69
   2   3   3 1545.75   51.09
   2   3   3 1484.85   40.40
   2   3   3 1465.25   55.09
   2   3   3 1508.95   53.79
   2   3   3 1553.44   50.39
  -3  -3  -3  998.00   42.10
  -3  -3  -3  972.70   48.50
  -3  -3  -3 1077.59   51.59
   3   3   3 1049.40   43.50
   3   3   3 1034.90   33.80
   3   3   3 1060.59   49.99
   3   3   3 1100.89   43.00
   3   3   3 1054.59   47.80
   3   3   3 1087.69   48.40
  -4  -3  -3  260.47   27.90
  -4  -3  -3  272.67   30.90
  -4  -3  -3  334.27   25.70
   4   3   3  304.27   28.60
   4   3   3  275.97   14.70
   4   3   3  328.77   27.80
   4   3   3  278.57   24.00
  -5  -3  -3  251.27   25.10
  -5  -3  -3  234.28   36.20
  -5  -3  -3  234.88   36.60
  -5  -3  -3  250.37   24.70
   5   3   3  226.38   32.30
   5   3   3  248.08   25.30
   5   3   3  249.97   25.80
  -6  -3  -3   32.60   19.20
  -6  -3  -3   14.40   11.90
  -6  -3  -3   -3.50   10.20
   6   3   3   -5.10   16.10
   6   3   3  -21.60   10.70
   6   3   3   13.50   13.00
  -7  -3  -3  248.58   42.50
  -7  -3  -3  213.98   29.10
  -7  -3  -3  263.07   32.00
   7   3   3  249.78   36.30
   7   3   3  168.88   32.70
   7   3   3  269.57   44.00
   7   3   3  232.08   31.60
   7   3   3  207.38   26.70
  -8  -3  -3   73.29   37.60
  -8  -3  -3    5.90   32.70
  -8  -3  -3   24.00   20.20
   8   3   3   47.90   27.20
   8   3   3   16.20   16.10
   8   3   3   45.80   21.00
   8   3   3   28.40   26.10
   7  -4  -3   -2.20   26.70
   7  -4  -3   45.80   22.50
   7  -4  -3  -11.50   23.30
  -7   4   3    7.30   18.90
  -7   4   3  -57.19   22.60
  -7   4   3    7.00   26.60
   6  -4  -3   32.60   18.00
   6  -4  -3    5.90   16.30
   6  -4  -3   70.49   24.40
  -6   4   3   69.89   19.20
  -6   4   3   32.90   23.80
   5  -4  -3  274.47   28.10
  -5   4   3  224.28   30.50
  -5   4   3  221.78   34.20
   4  -4  -3  224.68   31.60
   4  -4  -3  210.28   21.40
   4  -4  -3  169.58   48.80
  -4   4   3  213.38   28.40
  -4   4   3  202.68   30.40
   3  -4  -3  371.36   30.10
   3  -4  -3  424.06   33.00
   3  -4  -3  402.66   34.30
  -3   4   3  385.56   32.10
  -3   4   3  363.76   33.30
  -3   4   3  354.46   30.90
   2  -4  -3 1470.85   59.19
   2  -4  -3 1687.93   62.59
   2  -4  -3 1628.24   59.79
   2  -4  -3 1543.65   36.00
  -2   4   3 1535.45   59.99
  -2   4   3 1616.34   60.99
  -2   4   3 1550.94   57.79
  -2   4   3 1510.25   57.29
   1  -4  -3   56.99   13.40
   1  -4  -3   38.40   11.30
  -1   4   3   43.90   12.90
  -1   4   3   40.60   11.20
  -1   4   3   39.50   11.80
  -1   4   3   44.80   12.30
   0  -4  -3   -0.60    5.40
   0  -4  -3   -8.60    8.40
   0   4   3   -8.40    5.40
   0   4   3   -5.20    8.60
   0   4   3    3.00    7.90
  -1  -4  -3   18.20   11.40
  -1  -4  -3   11.10    7.10
   1   4   3   14.20    8.90
   1   4   3   17.80    9.30
   1   4   3   14.10    5.40
   1   4   3   12.70    7.00
   1   4   3    9.10   10.70
  -2  -4  -3   76.99   17.60
   2   4   3   71.09   16.50
   2   4   3   83.19   14.00
   2   4   3   70.99   14.40
   2   4   3   85.59   13.10
   2   4   3   95.69   14.30
   2   4   3   89.29   15.50
   2   4   3   71.09   15.50
   2   4   3   75.69   15.80
  -3  -4  -3  842.22   48.00
   3   4   3  830.62   42.70
   3   4   3  835.52   35.40
   3   4   3  812.92   47.70
   3   4   3  821.92   37.30
   3   4   3  844.72   39.80
   3   4   3  794.02   42.40
   3   4   3  888.11   42.80
   3   4   3  817.12   45.20
  -4  -4  -3   19.00   14.80
  -4  -4  -3   16.90   11.10
   4   4   3   19.90   12.50
   4   4   3   24.90   11.70
   4   4   3   -2.30    8.80
   4   4   3   28.00   13.80
   4   4   3   15.50    7.40
   4   4   3   18.80    9.30
   4   4   3   51.99   18.60
  -5  -4  -3  110.99   28.40
   5   4   3  134.09   12.10
   5   4   3  141.99   22.20
   5   4   3  150.18   24.80
   5   4   3   97.89   24.30
   5   4   3  130.89   25.60
  -6  -4  -3    3.30   12.70
   6   4   3    9.60   13.90
   6   4   3    8.30   16.80
   6   4   3  -17.20   10.90
   6   4   3    0.20   12.10
  -7  -4  -3   17.80   19.10
  -7  -4  -3   61.99   30.50
   7   4   3   55.49   19.70
   7   4   3   50.69   27.80
   7   4   3   56.19   25.30
   7   4   3   14.50   14.70
   6  -5  -3  193.58   40.80
   6  -5  -3  223.38   32.10
   6  -5  -3  155.88   32.90
  -6   5   3  181.88   39.50
  -6   5   3  250.27   36.50
  -6   5   3  261.77   42.40
   5  -5  -3   34.90   18.00
   5  -5  -3   25.50   20.00
  -5   5   3   26.30   16.80
  -5   5   3   27.00   19.30
   4  -5  -3  506.85   44.60
   4  -5  -3  540.55   38.80
   4  -5  -3  538.85   42.30
  -4   5   3  473.85   40.00
  -4   5   3  502.75   40.10
  -4   5   3  494.25   43.30
   3  -5  -3   79.29   20.00
   3  -5  -3  119.99   24.30
   3  -5  -3   92.39   18.20
  -3   5   3   95.29   19.00
  -3   5   3  107.09   21.90
  -3   5   3  122.19   25.30
   2  -5  -3  337.67   31.10
   2  -5  -3  326.27   31.30
   2  -5  -3  312.57   13.70
  -2   5   3  333.77   31.10
  -2   5   3  296.97   30.80
  -2   5   3  317.87   31.00
  -2   5   3  305.17   26.50
   1  -5  -3  206.78   28.10
   1  -5  -3  220.58   27.00
  -1   5   3  201.68   26.50
  -1   5   3  180.18   24.90
  -1   5   3  202.38   20.60
  -1   5   3  246.38   31.20
   0  -5  -3   23.00   11.50
   0  -5  -3   42.20   13.20
   0  -5  -3   20.90   10.80
   0   5   3   44.00   14.70
   0   5   3   53.09   15.40
   0   5   3   23.10   10.70
  -1  -5  -3  247.88   22.70
  -1  -5  -3  308.97   28.20
   1   5   3  269.97   23.70
   1   5   3  270.27   26.40
   1   5   3  256.57   26.70
   1   5   3  292.17   17.50
   1   5   3  241.08   25.90
   1   5   3  318.67   28.60
  -2  -5  -3  292.07   29.20
   2   5   3  268.77   22.60
   2   5   3  216.08   28.70
   2   5   3  285.67   29.90
   2   5   3  241.28   23.70
   2   5   3  241.78   26.70
   2   5   3  296.37   25.70
   2   5   3  253.57   21.20
   2   5   3  279.07   23.90
  -3  -5  -3  121.59   26.00
   3   5   3  116.89   24.90
   3   5   3  116.39   19.60
   3   5   3  120.19   18.40
   3   5   3  143.89   26.80
   3   5   3  128.19   19.90
   3   5   3  110.49   18.90
   3   5   3  128.49   21.40
   3   5   3  135.99   23.40
  -4  -5  -3  231.98   36.70
   4   5   3  167.98   26.50
   4   5   3  221.18   31.20
   4   5   3  189.78   22.20
   4   5   3  191.58   29.50
   4   5   3  173.98   26.40
   4   5   3  231.78   24.50
   4   5   3  194.28   26.90
   4   5   3  240.58   37.70
  -5  -5  -3   -9.70   15.80
   5   5   3    6.80   14.00
   5   5   3   23.70   14.90
   5   5   3   13.80    9.00
   5   5   3   20.60   13.00
   5   5   3  -13.60   14.50
   5   5   3    0.50   17.80
   5   5   3   12.80   11.30
   6   5   3   13.50   11.80
   6   5   3  -13.60   18.20
   6   5   3   -3.20   17.60
   6   5   3   -1.40    5.90
   7   5   3  106.99   20.60
   7   5   3   45.90   28.80
   7   5   3   50.09   24.80
   7   5   3  105.99   31.90
   6  -6  -3   19.00   17.00
   6  -6  -3    9.40   24.80
   6  -6  -3  -44.60   29.70
  -6   6   3   11.50   28.10
  -6   6   3  -34.30   20.80
  -6   6   3   -7.80   24.60
   5  -6  -3   64.89   26.90
   5  -6  -3   97.19   20.50
  -5   6   3  113.89   27.30
  -5   6   3   77.49   28.60
  -5   6   3  111.59   28.80
  -5   6   3   72.49   31.90
   4  -6  -3   23.30   23.70
   4  -6  -3   54.29   14.10
   4  -6  -3   16.90   16.90
  -4   6   3   66.59   21.20
  -4   6   3   84.29   23.50
  -4   6   3   94.09   22.60
   3  -6  -3  164.08   30.20
   3  -6  -3  226.28   32.10
  -3   6   3  218.38   28.70
  -3   6   3  163.48   27.80
  -3   6   3  221.08   34.10
   2  -6  -3   24.20   14.30
   2  -6  -3   10.50    3.80
   2  -6  -3    6.90    9.40
  -2   6   3    0.70    9.20
  -2   6   3   -9.20   14.00
  -2   6   3    9.80   12.90
   1  -6  -3   -2.20   12.20
   1  -6  -3    5.50   12.20
   1  -6  -3   -7.00    9.40
  -1   6   3    7.90   11.10
  -1   6   3    6.10    8.50
  -1   6   3   15.30   11.50
  -1   6   3    7.30   11.50
   0  -6  -3  404.46   33.60
   0  -6  -3  417.66   34.10
   0  -6  -3  397.06   38.60
   0   6   3  350.46   32.80
   0   6   3  359.56   34.70
   0   6   3  409.06   35.50
   0   6   3  404.26   26.00
  -1  -6  -3 1688.63   69.09
  -1  -6  -3 1622.74   64.79
   1   6   3 1753.62   81.39
   1   6   3 1594.34   71.59
   1   6   3 1705.63   49.99
   1   6   3 1607.24   67.29
   1   6   3 1642.64   65.59
  -2  -6  -3 1264.07   62.49
   2   6   3 1171.88   94.69
   2   6   3 1136.79   93.99
   2   6   3 1386.16   60.79
   2   6   3 1275.07   49.30
   2   6   3 1295.97   57.29
   2   6   3 1357.46   50.39
   2   6   3 1220.18   64.99
   2   6   3 1247.98   56.69
  -3  -6  -3 1506.65   73.79
   3   6   3 1414.06   57.89
   3   6   3 1445.46   60.59
   3   6   3 1411.96   58.49
   3   6   3 1377.76   73.89
   3   6   3 1469.95   59.69
   3   6   3 1437.26   72.49
   3   6   3 1432.56   69.69
   3   6   3 1402.06   61.39
  -4  -6  -3  243.58   40.30
   4   6   3  316.47   39.60
   4   6   3  277.57   42.30
   4   6   3  254.17   37.30
   4   6   3  283.47   34.80
   4   6   3  250.57   26.90
   4   6   3  274.27   28.20
   4   6   3  304.57   32.80
   4   6   3  285.27   31.30
  -5  -6  -3  365.36   51.79
   5   6   3  438.46   57.79
   5   6   3  378.36   32.10
   5   6   3  389.76   46.80
   5   6   3  408.16   42.50
   5   6   3  425.96   41.20
   5   6   3  390.06   30.60
   5   6   3  440.26   38.70
   6   6   3   23.20   22.90
   6   6   3   16.90   11.90
   6   6   3   31.60   20.60
   6   6   3    4.00   17.90
   6   6   3   29.90   23.70
   6   6   3   19.20   15.00
   5  -7  -3   72.99   17.10
   5  -7  -3   14.60   31.20
  -5   7   3  105.09   29.40
  -5   7   3   39.00   27.50
  -5   7   3   23.10   22.20
  -5   7   3   75.19   31.80
   4  -7  -3  252.97   43.40
   4  -7  -3  215.58   20.40
   4  -7  -3  221.28   37.60
  -4   7   3  171.08   38.60
  -4   7   3  207.98   31.20
  -4   7   3  282.87   42.10
   3  -7  -3   18.20   16.70
   3  -7  -3   14.90   20.00
   3  -7  -3    6.70    6.20
  -3   7   3    4.60   18.90
  -3   7   3    2.10   17.20
  -3   7   3  -11.50   10.70
   2  -7  -3  743.53   54.39
   2  -7  -3  762.62   48.50
   2  -7  -3  706.83   53.19
  -2   7   3  728.03   54.49
  -2   7   3  719.93   52.79
  -2   7   3  755.22   39.40
   1  -7  -3    8.70   13.30
   1  -7  -3    4.00   15.70
   1  -7  -3   12.30   18.90
  -1   7   3   -0.90   14.00
  -1   7   3   21.40   18.70
  -1   7   3    5.20    7.90
   0  -7  -3    7.20   13.20
   0  -7  -3   18.70   17.50
   0   7   3  -17.50    7.20
   0   7   3   -4.50   13.20
   0   7   3  -17.60   13.60
  -1  -7  -3  169.28   29.20
   1   7   3  180.28   18.00
   1   7   3  189.98   31.30
   1   7   3  193.48   33.20
   1   7   3  171.78   17.90
   1   7   3  157.18   28.20
  -2  -7  -3  101.89   24.70
   2   7   3  129.09   31.00
   2   7   3  103.59   18.50
   2   7   3   70.09   18.90
   2   7   3   88.89   27.10
   2   7   3  121.49   27.70
   2   7   3   71.69   22.90
   2   7   3  141.29   24.80
   2   7   3  112.59   17.60
  -3  -7  -3  191.88   38.00
   3   7   3  165.78   28.00
   3   7   3  166.18   23.90
   3   7   3  153.68   34.10
   3   7   3  185.58   27.50
   3   7   3  172.18   33.80
   3   7   3  156.88   26.50
   3   7   3  160.38   24.60
   3   7   3  231.78   38.10
  -4  -7  -3   29.10   19.80
   4   7   3   32.10   28.10
   4   7   3   44.70   18.70
   4   7   3    2.90   15.10
   4   7   3   19.50   15.40
   4   7   3   40.30   22.60
   4   7   3    9.30   13.40
   4   7   3   14.80   14.80
   5   7   3   46.20   21.80
   5   7   3  112.59   31.00
   5   7   3   44.10   21.90
   5   7   3   55.59   24.70
   5   7   3   56.19   16.60
   5   7   3   42.40   17.20
   4  -8  -3   52.99   27.10
   4  -8  -3   64.69   34.10
  -4   8   3   39.90   20.80
  -4   8   3  123.09   54.29
  -4   8   3  109.89   35.60
   3  -8  -3  -26.30   23.90
   3  -8  -3   39.90   24.30
   3  -8  -3  -24.50   14.30
  -3   8   3  -22.40   13.30
  -3   8   3   27.60   22.90
  -3   8   3    6.40   22.80
   2  -8  -3  242.38   43.20
   2  -8  -3  332.87   47.80
   2  -8  -3  263.67   35.80
  -2   8   3  289.87   26.20
  -2   8   3  272.27   42.10
  -2   8   3  295.37   42.90
   1  -8  -3  196.48   36.50
   1  -8  -3  214.68   34.20
   1  -8  -3  189.38   37.00
  -1   8   3  251.77   39.70
  -1   8   3  217.28   18.90
  -1   8   3  248.78   37.80
  -1   8   3  281.47   41.00
   0  -8  -3   91.09   23.00
   0  -8  -3   83.69   29.80
   0   8   3   88.49   26.40
   0   8   3   16.10   22.70
   0   8   3   84.29   25.00
   0   8   3   87.49   11.40
  -1  -8  -3  703.63   50.09
   1   8   3  620.24   56.59
   1   8   3  639.54   52.69
   1   8   3  548.35   49.80
   1   8   3  596.14   29.20
   1   8   3  614.44   33.10
   1   8   3  587.74   56.29
  -2  -8  -3  106.19   26.60
   2   8   3   52.39   20.80
   2   8   3   53.09   28.50
   2   8   3   54.19   21.00
   2   8   3   69.99   18.00
   2   8   3  106.09   16.40
   2   8   3   84.39   26.90
  -3  -8  -3   42.80   21.70
   3   8   3   41.50   17.80
   3   8   3   24.20   28.50
   3   8   3   60.09   20.20
   3   8   3   48.90   19.90
   3   8   3   30.30   20.60
   3   8   3   53.09   16.30
   3   8   3   -4.20   27.00
  -4  -8  -3   16.50   22.10
   4   8   3   19.80   25.20
   4   8   3   23.60   19.30
   4   8   3   48.50   28.40
   4   8   3   45.00   19.20
   4   8   3   68.69   23.10
   4   8   3   46.90   21.60
   4   8   3   43.90   23.10
   2  -9  -3   99.59   34.70
   2  -9  -3   -8.00   17.40
  -2   9   3   32.70   27.50
  -2   9   3  -23.20   32.60
  -2   9   3  -52.29   23.80
   1  -9  -3   62.49   36.10
   1  -9  -3   13.90   32.70
   1  -9  -3   28.20   20.90
  -1   9   3  111.49   53.29
  -1   9   3    2.50   31.40
  -1   9   3   60.19   26.90
   0  -9  -3  297.27   46.60
   0  -9  -3  266.07   44.70
   0   9   3  270.47   46.00
   0   9   3  325.97   48.50
   0   9   3  252.27   40.80
  -1  -9  -3   36.90   19.60
   1   9   3   22.50   32.50
   1   9   3  -15.10   30.30
   1   9   3    7.60   20.70
   1   9   3   15.00   12.90
   1   9   3   19.20   22.60
  -2  -9  -3  208.08   37.70
   2   9   3   32.20   38.50
   2   9   3  153.78   24.90
   2   9   3  131.99   33.30
   2   9   3  200.98   34.80
   2   9   3  130.69   33.90
   2   9   3  158.28   41.00
   2   7  -4  179.78   47.30
   2   7  -4  185.78   19.70
   2   7  -4  220.58   38.00
  -2  -7   4  208.38   43.50
  -2  -7   4  220.18   41.60
   1   7  -4   -8.90   14.80
   1   7  -4   -8.30   22.90
   1   7  -4  -54.19   22.90
  -1  -7   4  -32.30   24.50
  -1  -7   4    4.40   18.90
   0   7  -4   46.50   24.00
   0   7  -4   76.49   26.20
   0   7  -4   -1.00   26.20
   0  -7   4   58.09   27.20
   0  -7   4   47.50   27.80
  -1   7  -4    2.30   24.10
  -1   7  -4   61.59   23.40
  -1   7  -4    2.90   23.90
  -1   7  -4   48.40   29.00
   1  -7   4   18.40   21.60
   1  -7   4   45.20   25.60
  -2   7  -4   60.69   29.90
  -2   7  -4   98.69   29.10
  -2   7  -4   97.09   31.80
   2  -7   4   66.29   27.40
   2  -7   4  111.29   34.00
   2  -7   4   95.49   27.40
  -3   7  -4   77.79   32.20
  -3   7  -4   57.89   34.00
   3  -7   4   94.69   29.00
   3  -7   4   71.99   32.60
   3  -7   4  125.29   33.40
   4   6  -4   22.00   25.60
   4   6  -4    1.30   30.20
   4   6  -4   45.30   28.20
  -4  -6   4    8.80   30.80
  -4  -6   4   60.99   19.40
  -4  -6   4   14.80   23.50
  -4  -6   4   21.50   22.60
   3   6  -4   43.00   25.30
   3   6  -4   79.59   29.10
   3   6  -4   44.40   27.10
  -3  -6   4   57.19   23.50
  -3  -6   4   70.39   31.00
  -3  -6   4   61.89   15.10
  -3  -6   4   21.40   19.60
   2   6  -4   15.30   26.60
   2   6  -4    2.10   19.60
   2   6  -4   13.90   17.20
   2   6  -4    5.20   10.30
  -2  -6   4   -1.40   19.70
  -2  -6   4   -6.70   12.60
  -2  -6   4   24.50   20.60
   1   6  -4  179.68   34.60
   1   6  -4  175.28   23.60
   1   6  -4  122.09   28.20
  -1  -6   4  265.77   41.80
  -1  -6   4  159.08   31.80
   0   6  -4   82.59   26.80
   0   6  -4  123.19   22.80
   0   6  -4   59.59   24.20
   0  -6   4   73.79   25.40
   0  -6   4   66.59   27.20
  -1   6  -4  317.27   45.70
  -1   6  -4  259.57   36.60
  -1   6  -4  333.07   43.00
   1  -6   4  256.87   38.50
   1  -6   4  306.97   44.80
  -2   6  -4  232.78   35.20
  -2   6  -4  233.78   32.50
  -2   6  -4  226.68   38.10
   2  -6   4  181.48   37.40
   2  -6   4  189.98   32.80
  -3   6  -4  130.39   29.50
  -3   6  -4   91.49   29.70
  -3   6  -4   47.40   24.10
   3  -6   4   75.49   10.30
   3  -6   4   82.89   32.40
  -4   6  -4  314.27   37.10
  -4   6  -4  235.88   43.30
  -4   6  -4  291.47   45.90
   4  -6   4  278.77   43.00
   4  -6   4  304.07   26.60
   4  -6   4  312.47   47.30
  -5   6  -4   26.00   18.90
  -5   6  -4   63.09   31.80
  -5   6  -4   91.69   37.90
   5  -6   4   89.39   33.70
   5  -6   4   36.60   31.40
   5  -6   4   69.39   21.00
   5   5  -4  209.18   35.40
   5   5  -4   81.19   39.70
   5   5  -4  216.48   44.50
   5   5  -4  151.88   32.20
  -5  -5   4  124.29   61.99
  -5  -5   4  193.28   30.90
  -5  -5   4  162.98   32.70
   4   5  -4  185.58   33.60
   4   5  -4  154.88   35.50
   4   5  -4  148.59   32.70
   4   5  -4  158.38   40.70
  -4  -5   4  158.68   27.70
  -4  -5   4  129.39   28.00
  -4  -5   4  143.59   37.40
  -4  -5   4  124.49   28.90
   3   5  -4   35.10   24.80
   3   5  -4   -2.80   15.20
   3   5  -4   67.19   25.20
  -3  -5   4   88.49   23.90
  -3  -5   4   48.60   15.30
  -3  -5   4   50.19   21.00
  -3  -5   4   54.09   23.40
   2   5  -4  196.68   14.40
   2   5  -4  199.38   34.90
   2   5  -4  197.08   36.70
   2   5  -4  180.88   33.30
  -2  -5   4  188.38   32.50
  -2  -5   4  208.18   32.10
  -2  -5   4  184.58   33.10
  -2  -5   4  193.68   19.00
   1   5  -4  181.38   34.30
   1   5  -4  210.78   21.00
  -1  -5   4  127.69   24.60
  -1  -5   4  207.18   13.80
  -1  -5   4  263.87   36.80
   0   5  -4  149.88   27.80
   0   5  -4  131.69   20.60
   0   5  -4  151.18   30.20
   0  -5   4  141.39   27.70
   0  -5   4  122.39   25.00
  -1   5  -4  608.04   42.10
  -1   5  -4  589.84   46.20
  -1   5  -4  672.13   42.50
  -1   5  -4  594.94   56.69
   1  -5   4  523.55   80.29
  -2   5  -4  145.59   31.60
  -2   5  -4  124.39   26.60
  -2   5  -4  113.29   21.80
   2  -5   4  157.78   29.00
   2  -5   4  104.09   11.20
   2  -5   4  118.89   26.40
  -3   5  -4  186.68   25.50
  -3   5  -4  149.49   31.50
  -3   5  -4  134.39   29.90
   3  -5   4  139.49   31.10
   3  -5   4  163.58   32.10
   3  -5   4  153.68   19.30
  -4   5  -4    3.90   11.40
  -4   5  -4   12.30   17.90
  -4   5  -4    6.70   18.90
   4  -5   4    1.30   17.80
   4  -5   4   -5.40   18.40
   4  -5   4   12.30   12.10
  -5   5  -4   13.00   16.60
  -5   5  -4   64.99   27.00
  -5   5  -4  -11.90   11.90
   5  -5   4    6.70   20.90
   5  -5   4  -15.40   14.70
   5  -5   4   34.20   23.70
  -6   5  -4   84.49   24.40
  -6   5  -4   99.89   17.90
  -6   5  -4  132.39   38.00
  -6   5  -4   18.90   26.50
   6  -5   4   62.89   53.79
   6  -5   4   96.09   33.40
   6  -5   4   65.79   24.90
   6   4  -4  232.08   47.30
   6   4  -4  228.58   43.90
   6   4  -4  270.77   53.79
   6   4  -4  291.87   37.90
  -6  -4   4  221.58   43.50
  -6  -4   4  212.38   53.89
   5   4  -4   82.49   26.30
   5   4  -4   67.09   28.30
   5   4  -4   97.69   24.20
   5   4  -4   81.19   27.20
  -5  -4   4   44.40   21.20
  -5  -4   4   94.39   27.60
  -5  -4   4   28.80   16.30
   4   4  -4  209.68   39.00
   4   4  -4  219.98   31.40
   4   4  -4  292.37   37.20
  -4  -4   4  263.37   42.50
  -4  -4   4  237.58   32.00
  -4  -4   4  210.38   39.20
  -4  -4   4  259.87   32.10
   3   4  -4  272.17   37.00
   3   4  -4  188.48   32.80
  -3  -4   4  257.07   38.90
  -3  -4   4  252.07   31.80
  -3  -4   4  276.87   27.90
  -3  -4   4  286.57   38.60
   2   4  -4   36.90    6.40
   2   4  -4   19.20   16.20
   2   4  -4   22.60   17.50
   2   4  -4   63.19   24.90
  -2  -4   4   37.30   12.70
  -2  -4   4   32.80   15.70
  -2  -4   4   59.79   18.30
  -2  -4   4   34.70   17.50
   1   4  -4    8.30   13.80
   1   4  -4   27.10   17.20
   1   4  -4   16.70    7.80
  -1  -4   4   13.10    7.70
  -1  -4   4   -4.70   11.30
  -1  -4   4   14.90   14.00
   0   4  -4  395.96   34.50
   0   4  -4  379.26   27.90
   0   4  -4  348.37   34.90
   0  -4   4  433.16   36.80
   0  -4   4  413.06   33.50
   0  -4   4  392.16   20.00
  -1   4  -4  168.88   24.20
  -1   4  -4  149.99   25.50
  -1   4  -4  207.78   27.20
  -1   4  -4  152.58   26.90
   1  -4   4  152.28   13.00
   1  -4   4  150.78   25.90
  -2   4  -4  481.35   38.00
  -2   4  -4  503.35   40.10
  -2   4  -4  450.05   31.20
   2  -4   4  482.95   39.20
   2  -4   4  515.65   40.30
  -3   4  -4   -2.10   11.80
  -3   4  -4   13.90    9.40
   3  -4   4   -4.70    8.00
   3  -4   4    5.20    8.40
   3  -4   4  -11.50   12.50
  -4   4  -4   19.80   17.50
  -4   4  -4   -4.60    7.90
  -4   4  -4   -0.30   12.80
   4  -4   4  -10.70   15.90
   4  -4   4    5.20   10.70
   4  -4   4   -3.10   10.60
  -5   4  -4   27.40   11.50
  -5   4  -4   19.00   16.60
   5  -4   4   14.00   15.10
   5  -4   4   29.50   19.50
  -6   4  -4   11.30   24.40
  -6   4  -4   19.30   23.30
  -6   4  -4   15.70    9.70
  -6   4  -4   30.80   16.30
   6  -4   4   32.30   19.90
   6  -4   4   38.50   23.40
   6  -4   4   -0.40   24.60
  -7   4  -4   91.29   20.90
  -7   4  -4   80.39   33.50
  -7   4  -4   69.29   37.60
  -7   4  -4  113.99   26.40
   7  -4   4   46.40   27.80
   7  -4   4   96.29   37.90
   6   3  -4  586.24   58.09
   6   3  -4  436.76   53.89
  -6  -3   4  427.06   54.69
  -6  -3   4  492.75   49.30
   5   3  -4  568.74   43.10
   5   3  -4  555.34   51.09
   5   3  -4  530.75   49.30
  -5  -3   4  464.85   45.30
  -5  -3   4  479.55   29.40
  -5  -3   4  514.35   50.59
   4   3  -4  964.20   55.69
   4   3  -4  928.01   51.59
   4   3  -4 1003.30   64.09
   4   3  -4  896.81   59.49
  -4  -3   4  893.51   53.39
  -4  -3   4  976.70   44.70
  -4  -3   4  922.41   59.89
   3   3  -4  923.21   50.59
   3   3  -4  826.62   46.60
   3   3  -4  845.52   53.89
   3   3  -4  889.01   55.09
  -3  -3   4  858.21   44.10
  -3  -3   4  836.72   45.50
  -3  -3   4  920.51   55.19
  -3  -3   4  863.71   56.99
   2   3  -4  633.74   44.80
   2   3  -4  655.93   44.80
  -2  -3   4  670.43   45.50
  -2  -3   4  591.04   34.40
  -2  -3   4  601.14   40.90
   1   3  -4  166.58   24.70
   1   3  -4  175.38   16.70
   1   3  -4  187.08   27.10
  -1  -3   4  165.48   17.60
  -1  -3   4  174.38   24.50
  -1  -3   4  172.68   26.80
   0   3  -4  194.58   27.80
   0   3  -4  214.38   19.60
   0   3  -4  240.88   26.40
   0  -3   4  185.18   23.20
   0  -3   4  187.88   26.40
   0  -3   4  206.88   19.40
  -1   3  -4  514.75   34.60
  -1   3  -4  515.15   32.70
  -1   3  -4  576.24   37.90
   1  -3   4  523.55   33.20
   1  -3   4  481.25   29.50
   1  -3   4  456.35   34.50
   1  -3   4  521.45   36.10
  -2   3  -4  675.73   40.10
  -2   3  -4  737.83   33.50
  -2   3  -4  690.33   41.30
   2  -3   4  689.43   31.90
   2  -3   4  748.43   43.50
   2  -3   4  711.33   44.30
   2  -3   4  700.43   41.20
  -3   3  -4   26.00   12.00
  -3   3  -4   21.10   13.60
  -3   3  -4    9.90    7.60
   3  -3   4   17.50    9.80
   3  -3   4   42.60   14.90
   3  -3   4   15.80   13.40
   3  -3   4   10.20   13.20
  -4   3  -4  286.67   21.70
  -4   3  -4  286.07   30.60
  -4   3  -4  241.48   35.50
   4  -3   4  316.17   33.20
   4  -3   4  343.17   41.60
   4  -3   4  328.07   29.70
   4  -3   4  273.27   33.40
  -5   3  -4  115.99   23.90
  -5   3  -4   87.29   16.20
   5  -3   4   94.79   23.30
   5  -3   4  112.89   22.80
   5  -3   4  108.79   26.60
  -6   3  -4   75.59   11.00
  -6   3  -4   89.69   18.70
  -6   3  -4   33.30   20.10
  -6   3  -4   61.79   26.00
   6  -3   4   71.89   24.20
   6  -3   4   91.09   28.90
   6  -3   4   61.59   22.90
  -7   3  -4   34.70    6.90
  -7   3  -4   17.60   15.10
   7  -3   4   41.40   25.20
   7  -3   4   59.29   26.70
   7   2  -4   16.20   35.40
   7   2  -4   33.90   18.70
   7   2  -4   38.60   31.50
  -7  -2   4   89.59   31.50
  -7  -2   4   60.79   38.90
   6   2  -4   54.39   27.60
   6   2  -4   76.79   19.30
   6   2  -4   55.89   23.90
  -6  -2   4   67.39   24.50
  -6  -2   4   39.20   22.30
   5   2  -4  136.89   30.30
   5   2  -4  118.89   30.00
   5   2  -4  148.69   24.00
   5   2  -4   97.79   28.30
  -5  -2   4  106.59   27.20
  -5  -2   4   82.99   25.60
   4   2  -4   -5.80    9.80
   4   2  -4    4.10   13.10
   4   2  -4   17.80   12.40
   4   2  -4    0.10   10.50
  -4  -2   4   -3.00   11.30
  -4  -2   4   -2.60   10.10
  -4  -2   4    5.90    7.20
  -4  -2   4   16.10   15.20
   3   2  -4   21.90   12.70
   3   2  -4   31.20   13.20
   3   2  -4   31.60   16.50
   3   2  -4   26.20   13.60
  -3  -2   4   47.70   14.20
  -3  -2   4   44.40   14.90
  -3  -2   4    7.90   11.10
   2   2  -4    9.40   10.00
   2   2  -4    8.90    9.00
   2   2  -4   -4.70    7.80
  -2  -2   4   13.90   10.60
  -2  -2   4    9.90   11.90
  -2  -2   4    3.30    3.10
  -2  -2   4   -5.10    7.90
   1   2  -4  146.99   12.80
   1   2  -4  164.18   22.20
   1   2  -4  170.28   24.50
  -1  -2   4  177.48   24.00
  -1  -2   4  142.79   21.20
  -1  -2   4  193.38   18.50
  -1  -2   4  170.08   14.40
   0   2  -4  973.10   46.60
   0   2  -4  989.80   44.50
   0   2  -4  937.11   36.60
   0  -2   4 1047.30   48.40
   0  -2   4 1043.70   39.30
   0  -2   4  971.40   41.00
  -1   2  -4    5.00    7.20
  -1   2  -4   15.60    8.90
  -1   2  -4   12.20    5.10
  -1   2  -4   16.70   10.60
   1  -2   4   17.60    7.40
   1  -2   4   16.60    8.80
   1  -2   4    9.80    8.10
   1  -2   4   13.00    8.00
  -2   2  -4  201.08   11.00
  -2   2  -4  216.58   21.30
  -2   2  -4  210.98   22.70
   2  -2   4  210.18   18.80
   2  -2   4  178.78   24.00
   2  -2   4  199.38   20.50
   2  -2   4  257.57   26.20
  -3   2  -4  651.03   41.10
  -3   2  -4  674.13   37.20
   3  -2   4  618.94   40.10
   3  -2   4  604.34   40.30
   3  -2   4  690.83   37.40
   3  -2   4  663.43   37.40
  -4   2  -4   67.59   18.90
  -4   2  -4   68.79    6.90
  -4   2  -4   46.20   15.00
   4  -2   4   98.09   18.30
   4  -2   4   77.49   19.80
   4  -2   4   40.60   14.80
   4  -2   4   65.99   15.50
  -5   2  -4  417.26   40.90
  -5   2  -4  431.26   36.40
  -5   2  -4  432.36   12.90
   5  -2   4  475.55   42.40
   5  -2   4  418.66   38.10
   5  -2   4  414.96   35.20
  -6   2  -4   -2.80    8.60
  -6   2  -4    3.50    4.90
  -6   2  -4    2.20   12.90
   6  -2   4  -22.30   13.20
   6  -2   4  -12.60   15.20
   6  -2   4   -8.30   11.40
  -7   2  -4  279.57   44.20
  -7   2  -4  311.67   23.50
   7  -2   4  279.77   40.10
   7  -2   4  229.08   39.60
  -8   2  -4  151.88   38.70
  -8   2  -4  104.59   14.50
  -8   2  -4  110.79   11.60
   8  -2   4  202.68   45.60
   8  -2   4   42.00   28.80
   7   1  -4    7.20   24.80
   7   1  -4   25.10   22.30
   7   1  -4    6.00   15.40
  -7  -1   4   10.20    7.00
  -7  -1   4   15.20    5.70
  -7  -1   4   23.80   22.30
  -7  -1   4  -10.10   24.40
   6   1  -4  178.18   25.50
   6   1  -4  164.78   31.20
   6   1  -4  123.29   30.90
  -6  -1   4  186.38   13.70
  -6  -1   4  128.69   28.70
  -6  -1   4  194.38   37.70
   5   1  -4  -23.60   12.00
   5   1  -4   16.30   18.90
   5   1  -4  -16.40    9.90
  -5  -1   4  -19.60   15.20
  -5  -1   4   -4.10    4.60
  -5  -1   4    3.80   15.10
  -5  -1   4   -2.90    4.40
   4   1  -4  528.25   42.80
   4   1  -4  512.25   40.90
   4   1  -4  564.54   41.00
   4   1  -4  529.65   35.50
  -4  -1   4  535.75   19.60
  -4  -1   4  546.25   20.80
  -4  -1   4  572.44   42.20
  -4  -1   4  528.05   19.20
   3   1  -4   53.69   14.00
   3   1  -4   67.79   16.40
   3   1  -4   47.40   16.60
   3   1  -4   53.89   16.40
  -3  -1   4   51.89   16.00
  -3  -1   4  107.69   21.10
  -3  -1   4   71.49    8.50
   2   1  -4 2023.40   66.49
   2   1  -4 2188.38   73.29
   2   1  -4 2108.99   65.99
  -2  -1   4 2070.79   68.19
  -2  -1   4 2051.49   70.19
  -2  -1   4 2074.29   46.20
   1   1  -4  856.31   29.20
   1   1  -4  802.32   38.70
   1   1  -4  772.62   39.90
  -1  -1   4  787.82   36.80
  -1  -1   4  812.12   29.20
  -1  -1   4  817.72   40.80
   0   1  -4  936.21   42.00
   0   1  -4  887.71   34.20
   0   1  -4  918.91   40.50
   0   1  -4 1018.70   39.80
   0  -1   4  948.41   41.70
   0  -1   4  960.00   43.30
  -1   1  -4  410.36   29.00
  -1   1  -4  365.46   27.80
  -1   1  -4  443.36   26.50
   1  -1   4  381.96   25.50
   1  -1   4  399.96   20.00
   1  -1   4  433.16   28.40
  -2   1  -4 1361.96   38.20
  -2   1  -4 1505.45   46.80
  -2   1  -4 1397.26   52.89
   2  -1   4 1410.36   54.99
   2  -1   4 1383.16   45.10
   2  -1   4 1386.06   53.89
   2  -1   4 1410.26   31.90
  -3   1  -4   92.69   17.70
  -3   1  -4  111.09   15.40
  -3   1  -4  131.09   16.70
   3  -1   4  133.59   22.00
   3  -1   4   91.89   19.20
   3  -1   4  102.49   15.10
   3  -1   4  112.99   18.50
  -4   1  -4 1385.96   61.69
  -4   1  -4 1280.17   51.39
   4  -1   4 1428.96   53.19
   4  -1   4 1349.96   59.29
   4  -1   4 1287.87   60.19
  -5   1  -4   33.10   14.20
  -5   1  -4   28.70   13.80
   5  -1   4   10.00   10.10
   5  -1   4   20.30   14.20
   5  -1   4   19.00   13.10
  -6   1  -4  413.36   40.50
  -6   1  -4  346.17   19.70
   6  -1   4  338.77   33.00
   6  -1   4  381.16   40.40
   6  -1   4  382.06   41.10
  -7   1  -4   -0.80   21.30
   7  -1   4   12.30   20.10
   7  -1   4   10.60   16.90
   7  -1   4  -19.00   19.20
  -8   1  -4    6.50   21.70
   8  -1   4    3.90   29.00
   8  -1   4   26.90   24.80
   7   0  -4   68.99   28.00
   7   0  -4   45.70   31.50
   7   0  -4   62.29   18.10
   7   0  -4   42.90   22.90
  -7   0   4  -10.80   24.80
  -7   0   4   49.50   28.50
  -7   0   4   55.89   16.10
   6   0  -4   91.79   24.00
   6   0  -4  108.79   20.60
   6   0  -4   77.09   27.10
  -6   0   4   65.49   16.40
  -6   0   4   74.69   24.90
  -6   0   4   98.79   25.90
   5   0  -4   29.60   12.30
   5   0  -4   35.10   17.40
   5   0  -4   27.50   15.50
  -5   0   4   19.90   10.30
  -5   0   4   21.50   13.40
  -5   0   4   26.40   15.50
   4   0  -4    9.50   10.10
   4   0  -4   -1.90   11.50
   4   0  -4   11.20    8.20
  -4   0   4   14.00   11.10
  -4   0   4   12.50   11.40
  -4   0   4   -9.40    7.50
   3   0  -4  124.79   20.70
   3   0  -4   70.89   15.10
   3   0  -4   95.99   20.10
  -3   0   4   93.39   16.30
  -3   0   4  115.49   22.00
  -3   0   4  102.39   19.00
  -3   0   4  108.09   18.40
   2   0  -4  828.92   39.70
   2   0  -4  795.52   34.50
   2   0  -4  850.21   41.30
  -2   0   4  787.22   42.30
  -2   0   4  852.81   40.20
  -2   0   4  870.41   30.80
  -2   0   4  863.61   40.30
   1   0  -4  353.66   25.20
   1   0  -4  386.36   26.00
   1   0  -4  339.47   18.90
  -1   0   4  327.07   23.80
  -1   0   4  325.87   19.10
  -1   0   4  325.17   25.40
  -1   0   4  348.47   25.70
   0   0  -4  938.01   38.70
   0   0  -4  931.91   38.10
   0   0  -4  858.91   33.70
   0   0   4  913.21   38.30
   0   0   4  876.71   41.70
   0   0   4  935.01   38.30
  -1   0  -4  196.38   18.30
  -1   0  -4  191.38   18.10
  -1   0  -4  191.28   15.90
  -1   0  -4  182.88   18.80
  -1   0  -4  203.48   13.40
   1   0   4  182.18   17.50
   1   0   4  214.38   18.20
  -2   0  -4  313.37   16.80
  -2   0  -4  332.07   21.10
  -2   0  -4  312.17   20.40
  -2   0  -4  374.06   25.50
   2   0   4  332.27   17.10
   2   0   4  308.97   25.30
   2   0   4  375.66   26.20
  -3   0  -4  541.65   25.70
  -3   0  -4  571.04   30.70
  -3   0  -4  545.35   25.80
  -3   0  -4  609.34   36.20
   3   0   4  592.44   35.40
   3   0   4  545.35   30.40
   3   0   4  572.44   35.20
  -4   0  -4   21.40    6.70
  -4   0  -4   34.80   12.20
  -4   0  -4   20.20   11.50
   4   0   4   20.90   11.70
   4   0   4    6.10    7.30
   4   0   4   25.80   12.80
  -5   0  -4  342.17   31.70
  -5   0  -4  328.27   16.00
   5   0   4  297.37   31.30
   5   0   4  237.48   32.20
   5   0   4  298.37   25.70
  -6   0  -4  164.48   29.10
   6   0   4  168.28   33.00
   6   0   4  183.98   26.10
   6   0   4  155.08   28.70
  -7   0  -4    3.70    6.50
  -7   0  -4    3.60   22.90
   7   0   4  -14.30   14.80
   7   0   4   19.20   21.80
   7   0   4   39.00   19.70
  -8   0  -4  182.48   44.40
  -8   0  -4  223.18   40.30
   8   0   4  207.08   45.20
   8   0   4  196.38   35.10
   7  -1  -4  161.08   36.40
   7  -1  -4  165.48   37.90
   7  -1  -4  202.98   46.90
   7  -1  -4  120.99   21.50
  -7   1   4  164.88   34.10
  -7   1   4  158.08   27.00
  -7   1   4  128.39   37.70
   6  -1  -4   18.90   17.70
   6  -1  -4   32.00   13.90
   6  -1  -4   39.90   18.60
  -6   1   4  -17.20   15.20
  -6   1   4    6.20   13.00
  -6   1   4   15.00   13.30
   5  -1  -4   75.39   20.30
   5  -1  -4   86.09   18.30
   5  -1  -4   46.20   21.40
  -5   1   4   77.99   20.70
  -5   1   4   76.19   17.00
  -5   1   4   73.89   17.50
   4  -1  -4  452.35   34.60
   4  -1  -4  452.75   40.00
   4  -1  -4  394.06   30.40
  -4   1   4  482.85   38.20
  -4   1   4  472.05   33.60
  -4   1   4  484.45   33.40
   3  -1  -4 1055.49   45.80
   3  -1  -4 1048.70   46.60
   3  -1  -4 1026.00   53.19
  -3   1   4 1052.89   46.40
  -3   1   4  997.30   41.90
  -3   1   4 1074.09   53.39
   2  -1  -4  786.32   35.80
   2  -1  -4  766.72   36.80
  -2   1   4  778.82   29.60
  -2   1   4  798.32   39.00
  -2   1   4  718.33   40.60
  -2   1   4  730.13   34.60
   1  -1  -4 1178.68   40.50
   1  -1  -4 1131.89   43.20
  -1   1   4 1103.69   39.50
  -1   1   4 1181.78   47.60
  -1   1   4 1090.59   43.50
  -1   1   4 1148.49   39.30
   0  -1  -4  827.42   31.60
   0  -1  -4  822.42   34.40
   0   1   4  739.73   36.40
   0   1   4  763.52   32.30
   0   1   4  751.52   33.90
  -1  -1  -4  103.99   14.00
  -1  -1  -4  109.29    6.30
  -1  -1  -4  114.89   16.50
  -1  -1  -4   84.09   14.60
   1   1   4   99.39   14.50
   1   1   4   90.19   13.00
   1   1   4   86.49   15.90
  -2  -1  -4   83.19   15.30
  -2  -1  -4   81.09   14.10
  -2  -1  -4   95.59   16.20
   2   1   4   78.99   11.70
   2   1   4   81.19    5.60
   2   1   4  102.29   16.20
  -3  -1  -4   25.20   11.90
  -3  -1  -4   39.50   12.50
  -3  -1  -4   50.49    8.20
   3   1   4   33.20   12.10
   3   1   4    8.10    8.50
   3   1   4   39.70    6.80
  -4  -1  -4 1661.73   64.39
  -4  -1  -4 1609.04   62.79
  -4  -1  -4 1693.33   36.70
   4   1   4 1647.34   63.89
   4   1   4 1578.44   48.00
   4   1   4 1643.44   67.69
  -5  -1  -4  166.98   25.80
  -5  -1  -4  203.98   32.10
   5   1   4  194.18   20.60
   5   1   4  174.18   27.90
   5   1   4  160.68   26.10
  -6  -1  -4   12.30   15.10
  -6  -1  -4   -8.30   13.60
   6   1   4   -5.00   13.30
   6   1   4   11.60   10.70
   6   1   4   33.80   20.10
  -7  -1  -4    1.60   15.20
  -7  -1  -4   19.70   18.10
   7   1   4   11.90   16.90
   7   1   4  -27.40   14.90
   7   1   4   36.20   15.90
  -8  -1  -4   12.20   25.80
  -8  -1  -4   28.00   31.00
   8   1   4   42.40   26.20
   8   1   4   31.40   22.00
   8   1   4   54.09   33.70
   7  -2  -4  131.59   36.00
   7  -2  -4  149.99   24.60
   7  -2  -4  161.18   39.70
   7  -2  -4   98.69   30.30
  -7   2   4  206.68   43.90
  -7   2   4  183.08   28.30
  -7   2   4  168.98   37.10
  -7   2   4  206.68   34.00
   6  -2  -4  373.86   34.80
   6  -2  -4  400.26   41.40
   6  -2  -4  394.76   52.59
  -6   2   4  345.87   36.10
  -6   2   4  402.96   41.80
  -6   2   4  325.57   47.30
  -6   2   4  388.66   34.20
   5  -2  -4  318.67   29.60
   5  -2  -4  223.58   35.70
   5  -2  -4  352.76   44.60
   5  -2  -4  318.77   33.40
  -5   2   4  349.37   31.50
  -5   2   4  373.46   45.80
  -5   2   4  291.57   32.20
   4  -2  -4   28.90   12.10
   4  -2  -4   25.90   12.30
   4  -2  -4   24.50   16.80
   4  -2  -4   -4.40   10.80
  -4   2   4   23.20   14.10
  -4   2   4   19.90   11.00
  -4   2   4   30.50   12.40
   3  -2  -4   10.40   11.00
   3  -2  -4   26.60   11.60
   3  -2  -4   11.40    8.40
   3  -2  -4   31.60   11.60
  -3   2   4   17.20    9.60
  -3   2   4   22.50   10.20
  -3   2   4   27.90    9.70
  -3   2   4   20.30    7.50
   2  -2  -4  922.71   42.40
   2  -2  -4  947.61   42.90
   2  -2  -4  926.21   42.20
  -2   2   4  936.61   31.30
  -2   2   4  945.51   43.20
  -2   2   4 1002.20   47.80
  -2   2   4  918.71   35.50
   1  -2  -4  694.33   26.10
   1  -2  -4  710.73   35.00
   1  -2  -4  643.74   30.00
  -1   2   4  670.43   25.30
  -1   2   4  706.23   17.00
  -1   2   4  664.03   35.70
  -1   2   4  700.23   35.30
   0  -2  -4    0.70    4.90
   0  -2  -4   -2.00    3.70
   0  -2  -4    0.40    3.60
   0   2   4   -0.80    6.30
   0   2   4    1.80    4.20
   0   2   4    5.60    7.00
  -1  -2  -4   81.69   12.90
  -1  -2  -4   76.99   15.70
  -1  -2  -4   78.39   10.10
  -1  -2  -4   97.19    5.00
   1   2   4   97.19   14.20
   1   2   4   76.39   11.00
   1   2   4   77.99   13.80
  -2  -2  -4 2158.08   54.49
  -2  -2  -4 2247.98   68.29
  -2  -2  -4 2167.18   65.59
   2   2   4 2268.87   56.39
   2   2   4 2197.48   66.09
  -3  -2  -4  397.06   28.30
  -3  -2  -4  341.07   18.10
  -3  -2  -4  397.76   29.40
  -3  -2  -4  391.56   29.30
   3   2   4  423.96   17.10
   3   2   4  379.46   21.20
   3   2   4  395.16   19.80
   3   2   4  413.76   31.10
   3   2   4  410.76   29.40
  -4  -2  -4  153.28   22.50
  -4  -2  -4  163.88   26.20
  -4  -2  -4  162.88   25.70
   4   2   4  167.38   22.90
   4   2   4  161.48   14.80
   4   2   4  141.99   23.40
  -5  -2  -4    4.00    8.70
  -5  -2  -4   30.00   16.20
  -5  -2  -4    2.50   11.00
   5   2   4    7.40   10.30
   5   2   4   -5.80    7.10
   5   2   4   24.60   14.10
  -6  -2  -4  185.68   36.10
  -6  -2  -4  135.89   26.20
   6   2   4  150.38   26.00
   6   2   4  149.19   24.20
   6   2   4  130.79   29.60
  -7  -2  -4  213.08   41.00
  -7  -2  -4  209.78   31.60
   7   2   4  188.98   28.30
   7   2   4  197.58   38.60
  -8  -2  -4   57.79   31.10
   8   2   4   70.39   22.00
   8   2   4   93.79   43.70
   8   2   4  112.99   27.50
   8   2   4   37.60   22.10
   7  -3  -4   71.39   27.90
   7  -3  -4   56.99   32.00
   7  -3  -4   87.29   35.40
  -7   3   4  101.49   34.40
  -7   3   4   91.29   35.30
  -7   3   4   82.89   28.50
  -7   3   4  107.49   45.00
   6  -3  -4   56.59   32.90
   6  -3  -4  130.09   32.00
   6  -3  -4   89.29   30.30
   6  -3  -4  160.48   29.50
  -6   3   4  132.69   28.80
  -6   3   4  146.29   30.60
  -6   3   4  105.89   23.20
  -6   3   4  149.49   33.90
   5  -3  -4  108.89   20.50
   5  -3  -4  146.89   30.80
   5  -3  -4  147.79   29.70
   5  -3  -4  161.38   25.70
  -5   3   4  125.29   24.80
  -5   3   4  163.88   31.80
  -5   3   4  154.28   26.10
   4  -3  -4  107.09   20.50
   4  -3  -4  169.68   27.60
   4  -3  -4  134.29   20.70
   4  -3  -4  121.69   24.70
  -4   3   4  138.39   27.10
  -4   3   4  145.69   23.90
   3  -3  -4  537.35   37.80
   3  -3  -4  485.25   27.30
   3  -3  -4  449.95   36.10
   3  -3  -4  519.15   34.80
  -3   3   4  457.25   27.40
  -3   3   4  456.65   33.30
  -3   3   4  476.75   35.80
   2  -3  -4  852.11   29.70
   2  -3  -4  868.61   42.20
   2  -3  -4  832.42   42.10
  -2   3   4  820.22   43.60
  -2   3   4  847.92   43.20
  -2   3   4  851.31   38.00
   1  -3  -4    6.90    6.80
   1  -3  -4   13.40    3.60
   1  -3  -4   15.30    7.30
  -1   3   4   -3.10    7.20
  -1   3   4    2.20    7.20
  -1   3   4   -1.70    8.00
  -1   3   4    1.70    5.80
   0  -3  -4 1523.95   52.39
   0  -3  -4 1484.35   43.60
   0   3   4 1424.46   37.40
   0   3   4 1512.25   52.79
   0   3   4 1482.15   42.50
   0   3   4 1463.85   29.10
  -1  -3  -4   12.00    7.60
  -1  -3  -4   19.50    5.20
  -1  -3  -4   16.00   11.40
   1   3   4   28.80    5.90
   1   3   4   26.10    8.10
   1   3   4    8.60    8.20
   1   3   4   10.10    8.50
  -2  -3  -4 2333.07   74.79
  -2  -3  -4 2343.47   67.39
  -2  -3  -4 2414.96   61.79
   2   3   4 2294.07   46.60
   2   3   4 2280.37   69.39
   2   3   4 2440.06   62.59
   2   3   4 2397.06   67.29
  -3  -3  -4   15.80   11.90
  -3  -3  -4    4.30    9.00
  -3  -3  -4    4.00    5.50
  -3  -3  -4   13.40    8.60
   3   3   4   11.80    5.50
   3   3   4   18.60   10.00
   3   3   4    4.40    6.70
   3   3   4    3.60    8.10
   3   3   4   -2.10    6.00
  -4  -3  -4  899.41   52.29
  -4  -3  -4 1043.60   56.09
  -4  -3  -4  964.00   47.10
   4   3   4  979.00   40.70
   4   3   4 1038.20   31.70
   4   3   4  980.80   47.80
   4   3   4  983.80   53.49
  -5  -3  -4  411.46   33.20
  -5  -3  -4  455.15   42.70
  -5  -3  -4  336.57   38.10
   5   3   4  392.26   38.30
   5   3   4  389.56   33.30
  -6  -3  -4   45.60   16.70
  -6  -3  -4   30.10   18.50
   6   3   4   63.79   19.30
   6   3   4   82.69   27.20
   6   3   4   66.49   18.00
   6   3   4   59.29   17.30
  -7  -3  -4   35.50   20.60
  -7  -3  -4   59.09   27.20
   7   3   4    7.80   24.50
   7   3   4   39.20   17.80
   7   3   4   19.60   17.20
   7   3   4   84.19   22.00
  -8  -3  -4   43.60   25.00
  -8  -3  -4   31.30   32.40
   8   3   4   45.90   22.60
   8   3   4   26.40   22.40
   8   3   4   35.50   18.80
   7  -4  -4   42.90   29.00
   7  -4  -4   90.19   27.30
   7  -4  -4   64.69   34.60
  -7   4   4  112.99   28.50
  -7   4   4  205.38   42.00
  -7   4   4   51.19   32.50
  -7   4   4   77.89   28.00
   6  -4  -4  -13.00   20.60
   6  -4  -4   12.80   15.60
   6  -4  -4   24.90   25.30
  -6   4   4    0.90   27.00
  -6   4   4  -11.30   15.20
  -6   4   4  -25.00   21.50
   5  -4  -4  318.87   33.70
   5  -4  -4  355.96   31.40
   5  -4  -4  365.86   46.70
  -5   4   4  338.47   35.10
  -5   4   4  269.57   38.70
   4  -4  -4  158.68   29.10
   4  -4  -4  113.29   23.70
   4  -4  -4  118.49   22.20
   4  -4  -4  147.19   19.70
  -4   4   4  158.18   25.30
  -4   4   4  144.19   28.20
   3  -4  -4   76.49   19.30
   3  -4  -4   92.59   20.00
  -3   4   4   75.69   19.60
  -3   4   4   93.59   20.20
  -3   4   4   85.49   16.80
   2  -4  -4   13.70    9.70
   2  -4  -4   24.00    5.10
   2  -4  -4   10.70    9.40
  -2   4   4   11.40   11.60
  -2   4   4   11.80    8.60
  -2   4   4   18.10   11.50
  -2   4   4   27.50   11.80
   1  -4  -4  160.48   21.70
   1  -4  -4  205.78   20.70
  -1   4   4  158.48   20.90
  -1   4   4  212.38   23.40
  -1   4   4  181.08   23.50
  -1   4   4  191.48   24.10
   0  -4  -4  806.42   34.70
   0  -4  -4  715.63   41.00
   0  -4  -4  760.22   40.10
   0   4   4  733.83   41.70
   0   4   4  767.42   39.90
   0   4   4  749.62   33.50
  -1  -4  -4  791.32   43.30
  -1  -4  -4  773.72   31.20
  -1  -4  -4  823.62   40.00
   1   4   4  861.51   46.10
   1   4   4  814.82   33.40
   1   4   4  782.02   40.90
   1   4   4  834.12   40.50
   1   4   4  749.03   24.60
   1   4   4  788.82   36.90
  -2  -4  -4   -1.70    8.00
   2   4   4   13.80   10.10
   2   4   4    9.70    7.60
   2   4   4    4.20    6.70
   2   4   4    8.80    8.30
   2   4   4    7.70   10.20
   2   4   4    6.50    5.50
  -3  -4  -4  786.12   47.70
   3   4   4  707.03   41.70
   3   4   4  815.12   46.20
   3   4   4  748.33   40.90
   3   4   4  793.32   35.50
   3   4   4  764.72   40.30
   3   4   4  749.42   46.20
   3   4   4  794.22   37.20
  -4  -4  -4    2.40   11.30
  -4  -4  -4   17.10   14.60
   4   4   4  -11.30    8.30
   4   4   4   -4.00   10.20
   4   4   4    1.60    9.40
   4   4   4   -0.40    8.00
   4   4   4    4.30    7.50
   4   4   4   -0.10    6.00
  -5  -4  -4   22.50   16.20
   5   4   4   16.20   14.60
   5   4   4   22.80    6.10
   5   4   4   11.80   11.70
   5   4   4   29.60   15.50
  -6  -4  -4  -12.20   11.30
  -6  -4  -4   35.20   20.00
   6   4   4   15.10   14.10
   6   4   4   26.00   17.80
   6   4   4   18.90   21.30
  -7  -4  -4   86.29   41.30
  -7  -4  -4  198.18   43.20
   7   4   4  167.38   34.20
   7   4   4  115.69   29.30
   7   4   4  163.48   38.90
   7   4   4  180.98   28.70
   6  -5  -4   -8.30   15.60
   6  -5  -4  -26.20   23.50
   6  -5  -4   58.59   32.50
  -6   5   4  -44.80   20.80
  -6   5   4   -3.30   18.20
  -6   5   4   17.50   26.80
   5  -5  -4   25.10   22.30
   5  -5  -4   40.70   15.50
   5  -5  -4   49.50   22.30
  -5   5   4   28.50   19.10
  -5   5   4   35.20   19.70
   4  -5  -4    1.00    7.60
   4  -5  -4   14.40   15.20
   3  -5  -4  218.88   15.50
   3  -5  -4  237.78   32.50
   3  -5  -4  224.28   38.00
  -3   5   4  252.77   33.60
  -3   5   4  225.28   30.90
  -3   5   4  252.97   32.50
   2  -5  -4  120.29   21.80
   2  -5  -4  131.09   23.80
  -2   5   4  169.88   24.50
  -2   5   4  159.18   26.50
  -2   5   4  204.38   28.10
  -2   5   4  135.09   22.50
   1  -5  -4  204.78   27.70
   1  -5  -4  241.08   24.20
  -1   5   4  254.77   25.10
  -1   5   4  205.48   26.40
  -1   5   4  188.18   28.30
  -1   5   4  262.57   27.00
   0  -5  -4 1515.05   63.09
   0  -5  -4 1460.75   54.89
   0   5   4 1522.35   55.59
   0   5   4 1539.05   61.89
   0   5   4 1516.55   66.29
  -1  -5  -4   14.60   10.50
  -1  -5  -4   10.50    7.50
   1   5   4   -5.60    7.80
   1   5   4    2.00    4.00
   1   5   4   -5.50    5.70
   1   5   4   11.00   12.40
   1   5   4   -4.80    8.10
  -2  -5  -4  931.61   53.09
   2   5   4 1019.70   51.49
   2   5   4  976.90   40.90
   2   5   4  969.40   48.70
   2   5   4  970.90   54.49
   2   5   4  999.00   51.19
   2   5   4  902.41   44.60
   2   5   4  931.11   37.20
  -3  -5  -4  187.68   33.20
   3   5   4  175.68   25.30
   3   5   4  139.49   20.80
   3   5   4  193.58   26.70
   3   5   4  197.58   20.30
   3   5   4  186.98   27.30
   3   5   4  162.68   21.90
   3   5   4  203.48   30.90
   3   5   4  230.38   33.00
  -4  -5  -4   19.00   16.40
   4   5   4   19.20   10.50
   4   5   4   -0.50   16.10
   4   5   4   10.80   10.70
   4   5   4  -22.40    9.60
   4   5   4   -2.60    7.30
   4   5   4    6.80   11.50
   4   5   4   -1.50   12.80
   4   5   4   -2.20   12.10
  -5  -5  -4  261.57   42.00
   5   5   4  277.37   32.20
   5   5   4  263.47   36.70
   5   5   4  217.78   27.20
   5   5   4  281.57   39.70
   5   5   4  245.78   21.30
   5   5   4  312.87   47.00
   5   5   4  252.77   35.30
  -6  -5  -4   31.30   19.40
   6   5   4   78.09   23.10
   6   5   4   38.80    7.20
   6   5   4   81.19   24.30
   6   5   4   86.19   25.50
   6   5   4   50.69   18.70
  -7  -5  -4  132.39   40.60
   7   5   4  263.47   46.80
   7   5   4  192.78   31.70
   7   5   4  243.58   37.60
   7   5   4  174.28   41.50
   6  -6  -4  123.09   37.90
  -6   6   4  131.09   41.00
  -6   6   4  152.58   32.40
  -6   6   4  205.88   41.70
   5  -6  -4    4.50   11.50
   5  -6  -4  -15.50   24.40
  -5   6   4   17.70   23.60
  -5   6   4   -2.10   21.00
   4  -6  -4  238.18   38.20
   4  -6  -4  302.37   22.40
   4  -6  -4  315.57   21.80
  -4   6   4  248.78   36.00
  -4   6   4  299.57   38.70
  -4   6   4  307.97   43.40
   3  -6  -4    1.60    4.10
   3  -6  -4    3.50    3.40
   3  -6  -4   11.00   14.30
  -3   6   4   -6.40   11.90
  -3   6   4   51.09   20.90
  -3   6   4    8.70   15.40
   2  -6  -4  447.96   37.00
  -2   6   4  455.25   39.60
  -2   6   4  353.86   49.20
  -2   6   4  373.46   33.30
  -2   6   4  389.66   37.80
   1  -6  -4   84.89   21.80
   1  -6  -4   82.99   19.20
  -1   6   4   73.09   16.60
  -1   6   4   64.79   16.90
  -1   6   4   84.69   19.90
  -1   6   4   93.39   21.00
   0  -6  -4   90.29   18.70
   0  -6  -4   68.49   18.60
   0   6   4  119.59   23.00
   0   6   4   64.79   16.30
   0   6   4  102.79   24.40
   0   6   4   97.99   18.30
  -1  -6  -4  172.48   24.40
  -1  -6  -4  247.18   34.10
   1   6   4  122.49   39.60
   1   6   4  222.78   28.50
   1   6   4  205.08   29.90
   1   6   4  175.98   13.10
   1   6   4  190.38   25.10
   1   6   4  169.08   27.90
  -2  -6  -4   -4.20   12.00
   2   6   4  -19.00    6.20
   2   6   4  -14.20   14.00
   2   6   4   -0.10    9.30
   2   6   4   -6.70    9.30
   2   6   4  -10.60   10.00
   2   6   4    0.20   11.70
   2   6   4   -1.10    8.40
  -3  -6  -4  138.09   29.50
   3   6   4  126.79   25.00
   3   6   4  167.98   31.70
   3   6   4  142.09   29.50
   3   6   4  145.69   23.50
   3   6   4  156.48   21.80
   3   6   4  191.18   26.50
   3   6   4  131.99   23.60
   3   6   4  145.19   21.40
  -4  -6  -4   89.59   24.90
   4   6   4  124.39   24.40
   4   6   4  108.59   28.40
   4   6   4  120.69   22.20
   4   6   4   56.39   16.30
   4   6   4  123.19   25.10
   4   6   4   67.69   17.20
   4   6   4   99.19   21.10
   4   6   4  117.89   28.20
  -5  -6  -4  147.49   35.50
   5   6   4  215.28   28.90
   5   6   4  144.09   27.90
   5   6   4  147.39   24.40
   5   6   4  116.19   27.50
   5   6   4  174.08   35.70
   5   6   4  148.79   21.80
   5   6   4  175.68   33.40
   5   6   4  124.79   30.60
   6   6   4    5.70   15.60
   6   6   4  -10.40   20.30
   6   6   4   -1.50   22.70
   6   6   4  -13.90   20.60
   6   6   4   16.10   10.50
   6   6   4    2.30   17.00
   5  -7  -4   95.49   37.40
   5  -7  -4   65.09   15.50
   5  -7  -4   89.89   17.10
  -5   7   4   70.49   33.00
  -5   7   4   51.29   25.00
  -5   7   4   32.00   21.50
   4  -7  -4   15.20    6.40
   4  -7  -4   23.70   22.90
   4  -7  -4    9.70    6.90
  -4   7   4  -21.70   17.00
  -4   7   4    6.50   17.00
  -4   7   4  -37.20   19.30
   3  -7  -4   64.29   23.70
  -3   7   4  103.09   26.00
  -3   7   4   88.99   22.70
  -3   7   4   33.80   23.10
   2  -7  -4  155.68   30.00
   2  -7  -4  191.68   32.40
  -2   7   4  191.28   32.40
  -2   7   4  171.68   25.20
  -2   7   4  142.59   27.10
   1  -7  -4  308.67   39.70
   1  -7  -4  313.27   38.60
  -1   7   4  329.37   35.80
  -1   7   4  334.47   42.10
  -1   7   4  293.47   28.60
  -1   7   4  316.87   42.40
   0  -7  -4 1790.92   77.39
   0  -7  -4 1801.22   75.39
   0   7   4 1849.42   62.89
   0   7   4 1742.23   78.89
   0   7   4 1734.23   73.99
  -1  -7  -4    9.20   13.90
  -1  -7  -4   -9.60   12.10
   1   7   4  -23.30   15.80
   1   7   4   -7.20    4.90
   1   7   4   11.70   15.60
   1   7   4   15.60   16.00
   1   7   4    1.80   11.90
  -2  -7  -4  463.35   43.00
   2   7   4  480.15   29.50
   2   7   4  466.95   45.90
   2   7   4  452.75   44.40
   2   7   4  429.46   52.99
   2   7   4  454.05   44.10
   2   7   4  465.75   33.60
   2   7   4  422.56   38.20
   2   7   4  432.66   37.50
  -3  -7  -4    4.80   14.60
   3   7   4   -5.30   11.40
   3   7   4   -7.60   10.40
   3   7   4    2.40   13.40
   3   7   4  -27.40   18.00
   3   7   4    9.90   12.40
   3   7   4    5.00   12.70
   3   7   4    8.70   17.80
   3   7   4   50.99   21.80
  -4  -7  -4   13.70   14.90
   4   7   4   -2.40   16.70
   4   7   4   -3.90   14.30
   4   7   4   -3.70   11.70
   4   7   4  -13.10   11.60
   4   7   4    8.20   15.30
   4   7   4    7.80   21.50
   4   7   4    9.20   13.80
  -5  -7  -4   70.39   28.80
   5   7   4   18.20   18.60
   5   7   4   21.00   20.80
   5   7   4   15.10   25.60
   5   7   4   26.80   18.30
   5   7   4  -69.39   28.00
   5   7   4   38.40   29.10
   5   7   4    1.40   13.90
   4  -8  -4  138.59   40.20
  -4   8   4  102.89   56.19
  -4   8   4  111.29   29.50
   3  -8  -4   65.49   23.30
   3  -8  -4   70.29   29.60
  -3   8   4   44.90   24.00
  -3   8   4   -0.70   19.00
  -3   8   4   55.89   19.80
   2  -8  -4  209.08   37.00
   2  -8  -4  123.99   33.00
  -2   8   4  188.08   26.90
  -2   8   4  225.78   38.60
  -2   8   4  213.98   39.70
   1  -8  -4  133.89   29.90
  -1   8   4  121.79   30.40
  -1   8   4  119.79   20.20
  -1   8   4  116.89   27.50
   0  -8  -4   -3.60   15.40
   0  -8  -4   -1.90   15.50
   0   8   4    0.70   15.50
   0   8   4  -16.30   20.40
   0   8   4   11.20   19.00
   0   8   4    0.00   14.70
   0   8   4  -17.10   10.10
  -1  -8  -4    4.90   18.80
   1   8   4   24.70   19.50
   1   8   4   23.70   20.30
   1   8   4   -3.30   11.40
   1   8   4    0.20   10.80
   1   8   4  -12.90   21.60
   1   8   4   25.30   18.00
   1   8   4  -17.60   16.00
  -2  -8  -4  139.89   30.50
   2   8   4  162.58   29.60
   2   8   4  120.89   18.70
   2   8   4   85.09   27.50
   2   8   4   75.69   27.30
   2   8   4  162.58   32.70
   2   8   4  178.08   38.30
   2   8   4  114.79   20.20
   2   8   4  166.78   30.50
  -3  -8  -4  241.88   41.70
   3   8   4  322.67   39.40
   3   8   4  295.97   39.20
   3   8   4  295.37   30.60
   3   8   4  308.67   48.00
   3   8   4  239.98   34.40
   3   8   4  251.17   45.60
   3   8   4  290.77   47.70
   3   8   4  282.67   31.40
  -4  -8  -4   74.59   28.10
   4   8   4  115.69   39.50
   4   8   4   24.40   20.60
   4   8   4   91.59   31.30
   4   8   4   84.09   23.90
   4   8   4   84.79   23.20
   4   8   4  149.79   51.49
   4   8   4   94.19   25.00
   2  -9  -4  137.19   35.60
   2  -9  -4   81.29   26.80
  -2   9   4   65.89   28.60
  -2   9   4   70.89   17.60
  -2   9   4   78.39   31.70
   1  -9  -4   33.60   30.10
   1  -9  -4   -0.10   18.40
  -1   9   4   -9.40   29.00
  -1   9   4    6.30   24.90
  -1   9   4    6.50   12.40
   0  -9  -4  170.98   38.50
   0  -9  -4  221.98   38.30
   0   9   4  209.08   37.80
   0   9   4  144.09   17.60
   0   9   4  201.88   41.40
   0   9   4  257.17   43.00
  -1  -9  -4   32.00   22.70
   1   9   4   22.90   13.40
   1   9   4   11.40   29.00
   1   9   4   22.70   11.90
   1   9   4    6.60   25.10
   1   9   4   21.10   30.20
   1   9   4   54.59   24.90
  -2  -9  -4    1.90   17.90
   2   9   4  -17.00   11.70
   2   9   4   61.39   34.20
   2   9   4  -12.20   20.30
   2   9   4   37.80   25.90
   2   9   4   13.40   13.40
   2   9   4   16.00   13.80
   2   9   4   -5.00   31.90
   2   9   4    1.80   21.70
   1   7  -5   33.00   17.90
   1   7  -5   28.80   34.10
   1   7  -5   71.79   32.40
  -1  -7   5  -36.50   28.40
  -1  -7   5   19.40   25.30
   0   7  -5    7.90   19.20
   0   7  -5    2.50   22.10
   0  -7   5   31.50   26.50
   0  -7   5   54.79   31.00
  -1   7  -5   17.00   22.50
  -1   7  -5   44.50   27.20
   1  -7   5   68.19   28.60
   1  -7   5   44.40   39.50
  -2   7  -5  -18.60   24.10
   2  -7   5   27.30   30.30
   2  -7   5   25.20   28.40
   3   6  -5  111.89   41.20
   3   6  -5  144.69   40.30
  -3  -6   5   86.79   31.40
  -3  -6   5   97.89   42.80
  -3  -6   5  139.29   33.20
  -3  -6   5  124.99   21.30
   2   6  -5   -6.40   20.60
   2   6  -5    5.00   10.20
   2   6  -5    9.80   23.40
   2   6  -5  -45.00   22.80
  -2  -6   5    6.60   25.80
  -2  -6   5  -20.30   21.10
  -2  -6   5    3.10   17.80
   1   6  -5  119.19   32.60
   1   6  -5   76.69   16.90
   1   6  -5  141.99   35.20
  -1  -6   5  105.39   26.90
  -1  -6   5   89.89   30.20
  -1  -6   5   49.99   29.40
   0   6  -5   99.09   20.90
   0   6  -5   74.39   27.10
   0   6  -5   89.69   29.60
   0  -6   5   86.29   30.10
   0  -6   5   73.19   27.30
  -1   6  -5   -1.90   19.00
  -1   6  -5   20.50   21.50
  -1   6  -5    7.70   18.60
   1  -6   5   14.40   21.90
  -2   6  -5   33.00   21.80
  -2   6  -5   67.99   26.30
   2  -6   5   65.59   24.90
  -3   6  -5  112.29   30.30
  -3   6  -5  125.49   33.80
   3  -6   5   15.20   25.60
   3  -6   5  187.28   38.70
   3  -6   5   71.49   10.80
  -4   6  -5   43.40   26.20
  -4   6  -5   14.30   17.10
   4  -6   5    5.30   29.00
   4  -6   5   14.10   12.80
   4  -6   5    7.00   26.60
   4   5  -5   21.50   28.70
   4   5  -5   17.20   20.50
   4   5  -5  -15.00   23.00
   4   5  -5   31.90   23.80
  -4  -5   5   -5.80   21.80
  -4  -5   5  -17.70   18.00
  -4  -5   5   33.20   22.40
  -4  -5   5  -36.10   22.50
   3   5  -5    8.80   21.90
   3   5  -5   23.10   22.00
   3   5  -5    7.90   27.40
   3   5  -5   17.80   21.50
  -3  -5   5   44.90   23.80
  -3  -5   5   23.90   20.70
  -3  -5   5   -9.20   13.60
  -3  -5   5    2.60   17.70
   2   5  -5  195.48   38.20
   2   5  -5  156.08   35.80
   2   5  -5  185.88   14.80
  -2  -5   5  140.39   31.60
  -2  -5   5  149.49   34.40
  -2  -5   5  153.18   30.00
  -2  -5   5  190.58   22.50
   1   5  -5  200.68   36.20
   1   5  -5  199.48   21.70
   1   5  -5  200.68   36.20
  -1  -5   5  210.88   20.80
  -1  -5   5  193.58   34.80
   0   5  -5  168.38   31.90
   0   5  -5  165.88   24.80
   0   5  -5  150.98   30.70
   0  -5   5  167.88   13.00
   0  -5   5  165.58   32.70
   0  -5   5  113.39   29.40
  -1   5  -5  526.55   47.40
  -1   5  -5  417.16   43.00
  -1   5  -5  445.86   37.20
   1  -5   5  435.56   19.60
   1  -5   5  411.16   18.20
   1  -5   5  475.65   42.40
  -2   5  -5   58.09   20.10
  -2   5  -5   45.90   20.30
   2  -5   5   81.59   21.70
   2  -5   5   86.49   25.60
   2  -5   5   70.29   11.90
  -3   5  -5   18.40   19.10
  -3   5  -5   34.50   22.30
   3  -5   5   78.89   23.20
   3  -5   5   80.79   16.10
  -4   5  -5   44.90   27.00
  -4   5  -5   -0.90   18.80
  -4   5  -5   20.00   14.00
   4  -5   5   38.70   18.30
   4  -5   5   -2.60   22.10
   4  -5   5   21.50   13.90
  -5   5  -5   25.90   18.30
  -5   5  -5   -0.20   12.20
   5  -5   5   16.40   25.60
   5  -5   5   21.20   17.10
   5  -5   5   19.80   22.70
   6  -5   5   -8.90   32.50
   5   4  -5   15.30   21.60
   5   4  -5   14.70   22.80
   5   4  -5   36.40   28.70
  -5  -4   5   23.90   27.60
  -5  -4   5   28.80   17.50
   4   4  -5   32.40   19.20
   4   4  -5   -8.00   18.80
   4   4  -5   17.70   22.60
  -4  -4   5   -3.60   14.50
  -4  -4   5  -28.30   15.20
  -4  -4   5   44.70   24.70
  -4  -4   5   37.00   18.00
   3   4  -5   37.70   21.50
   3   4  -5   46.10   22.00
   3   4  -5   34.50   17.80
   3   4  -5   47.00   19.60
  -3  -4   5   68.69   19.90
  -3  -4   5   25.20   19.00
  -3  -4   5    4.90   20.30
  -3  -4   5   52.59   16.60
   2   4  -5  612.34   48.60
   2   4  -5  602.34   51.39
   2   4  -5  585.14   45.40
   2   4  -5  566.24   46.60
   2   4  -5  631.84   22.10
  -2  -4   5  575.34   50.29
  -2  -4   5  616.84   36.80
  -2  -4   5  582.54   47.40
   1   4  -5  484.85   53.39
   1   4  -5  528.85   29.50
   1   4  -5  658.73   57.39
  -1  -4   5  584.14   47.50
  -1  -4   5  591.74   44.80
  -1  -4   5  536.65   30.20
   0   4  -5 2286.27   88.49
   0   4  -5 2377.86   93.59
   0   4  -5 2243.08   71.59
   0  -4   5 2329.07   94.99
   0  -4   5 2358.86   61.69
   0  -4   5 2219.48   81.69
  -1   4  -5  146.19   28.60
  -1   4  -5  162.28   27.10
  -1   4  -5  137.29   22.80
   1  -4   5  204.48   50.49
   1  -4   5  152.78   23.50
  -2   4  -5  598.84   44.40
  -2   4  -5  636.14   46.30
   2  -4   5  656.53   89.79
   2  -4   5  606.04   31.40
   2  -4   5  643.64   47.60
  -3   4  -5   19.90   16.20
  -3   4  -5   17.80   16.20
   3  -4   5    9.90   10.10
   3  -4   5    2.50   15.10
   3  -4   5    1.30   12.20
  -4   4  -5  -14.90   12.20
  -4   4  -5  -15.30   17.70
   4  -4   5   10.00   15.00
   4  -4   5  -18.90   10.10
   4  -4   5    4.20   21.20
  -5   4  -5   38.40   21.60
  -5   4  -5    2.70   16.30
   5  -4   5   18.50   16.50
   5  -4   5   13.10   16.60
   5  -4   5   27.90   20.40
  -6   4  -5   28.20   28.70
  -6   4  -5   23.20   23.30
   6  -4   5   40.40   26.40
   6  -4   5   10.00   20.00
   6  -4   5    6.50   20.40
   6   3  -5   89.89   42.80
   6   3  -5    6.60   27.50
   6   3  -5   39.60   21.50
  -6  -3   5   19.10   31.20
   5   3  -5   11.90   21.10
   5   3  -5   -0.90   16.70
   5   3  -5   51.79   27.00
   5   3  -5   -3.80   20.30
  -5  -3   5  -18.20    9.40
  -5  -3   5   12.30   20.60
   4   3  -5  110.79   24.60
   4   3  -5  113.29   28.50
   4   3  -5  109.59   26.60
  -4  -3   5  111.89   25.90
  -4  -3   5   92.89   28.30
  -4  -3   5  103.39   21.20
   3   3  -5  203.18   35.10
   3   3  -5  247.48   37.00
  -3  -3   5  229.38   35.70
  -3  -3   5  211.28   29.80
   2   3  -5  514.85   41.80
   2   3  -5  509.45   42.10
   2   3  -5  539.35   45.40
  -2  -3   5  578.44   47.10
  -2  -3   5  609.24   37.30
  -2  -3   5  491.95   41.40
   1   3  -5 1490.35   68.39
   1   3  -5 1557.54   47.90
   1   3  -5 1555.94   72.19
  -1  -3   5 1533.35   55.39
  -1  -3   5 1537.15   70.59
  -1  -3   5 1608.34   49.50
  -1  -3   5 1553.84   65.99
   0   3  -5 1120.49   58.79
   0   3  -5  939.71   51.99
   0   3  -5 1057.69   44.10
   0  -3   5 1024.00   55.19
   0  -3   5  964.70   48.10
   0  -3   5 1017.70   44.10
   0  -3   5  962.30   40.60
  -1   3  -5 1732.13   63.89
  -1   3  -5 1669.53   32.10
  -1   3  -5 1742.13   69.09
  -1   3  -5 1993.20   78.39
   1  -3   5 1845.72   62.59
   1  -3   5 1791.02   65.89
   1  -3   5 1790.02   75.19
  -2   3  -5 1173.48   56.49
  -2   3  -5 1231.98   57.69
   2  -3   5 1218.48   46.90
   2  -3   5 1203.48   57.89
   2  -3   5 1126.09   58.79
   2  -3   5 1229.98   57.19
  -3   3  -5  194.18   28.40
  -3   3  -5  143.09   25.50
   3  -3   5  171.68   29.90
   3  -3   5  197.88   29.80
   3  -3   5  165.88   26.40
   3  -3   5  223.98   24.30
  -4   3  -5   39.10   18.00
  -4   3  -5   20.70   13.40
   4  -3   5  -11.30   10.90
   4  -3   5   19.70   15.70
   4  -3   5    6.90   12.40
   4  -3   5    6.60   12.30
  -5   3  -5   61.19   21.20
   5  -3   5   37.90   17.60
   5  -3   5   78.19   21.20
   5  -3   5   65.09   24.60
  -6   3  -5   29.00   21.10
  -6   3  -5  -12.40   23.50
   6  -3   5   44.90   22.20
   6  -3   5    9.70   18.80
   6  -3   5   -5.40   22.60
  -7   3  -5  187.68   43.00
  -7   3  -5  168.58   24.30
   7  -3   5   87.29   40.60
   7  -3   5  103.79   31.60
   7  -3   5  114.89   32.40
   6   2  -5  -50.89   24.80
   6   2  -5    5.50   16.50
   6   2  -5   10.70   29.20
  -6  -2   5   54.69   25.60
  -6  -2   5   37.80   29.70
   5   2  -5  -10.50   18.10
   5   2  -5   30.30   20.70
   5   2  -5   -4.80   20.40
  -5  -2   5    1.20   21.80
  -5  -2   5   -5.30   18.90
  -5  -2   5    6.20    6.70
   4   2  -5   56.29   20.90
   4   2  -5   68.29   19.80
   4   2  -5   19.00   14.30
   4   2  -5   64.69   20.60
  -4  -2   5   36.70   11.10
  -4  -2   5   21.30   14.80
  -4  -2   5   68.99   23.70
  -4  -2   5   39.90   19.50
   3   2  -5   68.49   22.60
   3   2  -5   43.10   15.90
   3   2  -5   71.49   19.00
  -3  -2   5   59.49   18.50
  -3  -2   5   86.99   25.60
   2   2  -5  481.55   35.80
   2   2  -5  432.96   36.90
   2   2  -5  439.46   35.40
  -2  -2   5  433.26   33.30
  -2  -2   5  487.65   21.10
  -2  -2   5  487.25   38.60
  -2  -2   5  471.85   36.90
   1   2  -5  783.52   47.90
   1   2  -5  888.81   48.50
   1   2  -5  856.51   33.20
  -1  -2   5  842.72   44.90
  -1  -2   5  811.22   47.60
  -1  -2   5  878.21   42.20
   0   2  -5 1262.57   54.29
   0   2  -5 1337.57   48.00
   0   2  -5 1234.28   57.69
   0   2  -5 1395.36   59.59
   0  -2   5 1371.46   52.19
   0  -2   5 1342.57   49.10
   0  -2   5 1370.96   60.39
  -1   2  -5  -21.40    6.30
  -1   2  -5    6.50    7.10
  -1   2  -5   19.00   11.90
   1  -2   5  -12.80    7.00
   1  -2   5   -0.90    6.40
   1  -2   5   11.10    7.20
  -2   2  -5   -2.10    5.40
  -2   2  -5   -1.80    8.60
  -2   2  -5   -4.80    8.60
   2  -2   5   -1.50    6.60
   2  -2   5    3.50    8.10
   2  -2   5   -5.00    7.00
   2  -2   5    6.20    5.50
  -3   2  -5  121.69   19.80
  -3   2  -5   98.29   19.60
   3  -2   5   77.69   16.00
   3  -2   5  123.89   24.70
   3  -2   5  153.08   26.10
   3  -2   5  112.29   19.80
  -4   2  -5   62.09   16.20
   4  -2   5   70.79   17.20
   4  -2   5   74.99   19.70
   4  -2   5   19.90   18.00
   4  -2   5  106.19   23.70
  -5   2  -5   14.50   13.70
   5  -2   5   31.20   15.50
   5  -2   5   23.10   18.30
   5  -2   5   18.00   18.40
   5  -2   5    3.00   12.50
  -6   2  -5   27.60   20.80
  -6   2  -5   76.99   22.30
   6  -2   5   29.90   21.20
   6  -2   5    9.00   15.00
   6  -2   5   61.19   22.70
  -7   2  -5   14.00   11.30
  -7   2  -5    8.10   27.50
  -7   2  -5    4.80   11.80
   7  -2   5   -4.50   19.10
   7  -2   5   19.50   24.80
   7   1  -5   52.19   39.20
   7   1  -5   10.90   19.80
  -7  -1   5   16.10   36.30
   6   1  -5   85.79   25.50
   6   1  -5   58.89   32.90
   6   1  -5  107.89   31.90
  -6  -1   5  129.99   34.60
   5   1  -5  131.39   32.20
   5   1  -5  157.68   31.40
   5   1  -5  116.99   23.90
  -5  -1   5  130.79   10.00
  -5  -1   5  138.69   31.30
  -5  -1   5  110.69    9.00
   4   1  -5  233.48   33.40
   4   1  -5  260.47   34.40
   4   1  -5  175.48   31.20
   4   1  -5  239.18   30.90
  -4  -1   5  221.88   13.50
  -4  -1   5  246.28   40.70
  -4  -1   5  187.88   31.40
   3   1  -5  726.43   43.30
   3   1  -5  742.63   48.70
   3   1  -5  797.72   45.50
  -3  -1   5  848.82   49.10
  -3  -1   5  765.42   48.60
  -3  -1   5  736.93   26.70
   2   1  -5  535.05   38.10
   2   1  -5  458.35   32.90
   2   1  -5  442.16   31.30
  -2  -1   5  467.45   34.70
  -2  -1   5  483.95   23.20
  -2  -1   5  486.45   34.30
   1   1  -5  236.38   23.50
   1   1  -5  235.88   18.00
   1   1  -5  268.27   27.50
  -1  -1   5  250.37   26.10
  -1  -1   5  226.48   22.70
  -1  -1   5  276.07   23.40
   0   1  -5    1.60    8.20
   0   1  -5    4.40    7.10
   0   1  -5   10.50    7.50
   0   1  -5    6.80    6.40
   0  -1   5   -4.10    5.70
   0  -1   5  -10.50    4.90
  -1   1  -5  648.84   37.20
  -1   1  -5  716.33   40.90
  -1   1  -5  690.23   32.90
  -1   1  -5  681.93   36.30
   1  -1   5  698.83   40.40
   1  -1   5  767.42   38.20
  -2   1  -5  616.24   35.60
  -2   1  -5  659.43   28.10
  -2   1  -5  648.24   37.10
  -2   1  -5  637.14   31.20
   2  -1   5  647.64   38.10
   2  -1   5  647.14   31.40
   2  -1   5  581.74   37.80
   2  -1   5  653.33   23.20
  -3   1  -5  807.92   39.70
  -3   1  -5  802.32   45.00
  -3   1  -5  772.92   36.10
  -3   1  -5  842.52   35.10
   3  -1   5  802.92   37.00
   3  -1   5  792.12   46.10
   3  -1   5  874.71   44.60
   3  -1   5  831.12   47.10
  -4   1  -5  418.46   28.20
  -4   1  -5  308.37   31.50
  -4   1  -5  371.06   27.60
   4  -1   5  388.66   27.90
   4  -1   5  360.46   36.00
   4  -1   5  356.56   32.70
   4  -1   5  395.56   37.10
  -5   1  -5  234.68   34.20
  -5   1  -5  171.88   24.60
  -5   1  -5  206.88   21.00
   5  -1   5  202.28   31.40
   5  -1   5  207.28   26.80
   5  -1   5  194.88   30.90
  -6   1  -5   10.60    7.80
   6  -1   5   31.70   18.40
   6  -1   5   13.40   19.50
   6  -1   5  -24.60   11.80
  -7   1  -5   94.09   14.20
  -7   1  -5   38.20   27.40
  -7   1  -5   64.09    9.10
   7  -1   5   75.39   23.40
   7  -1   5  120.39   29.10
   7  -1   5   51.09   26.80
  -8   1  -5   63.19   34.60
   8  -1   5   47.00   26.40
   7   0  -5   41.70   29.60
   7   0  -5   30.60   19.70
   7   0  -5   -7.10   28.90
  -7   0   5  118.49   36.20
  -7   0   5   37.40   15.00
  -7   0   5   84.69   28.70
   6   0  -5   11.20   14.90
   6   0  -5  -29.70   19.10
   6   0  -5   36.80   27.90
  -6   0   5   22.50   21.70
  -6   0   5   15.60   24.70
  -6   0   5    5.90   10.90
   5   0  -5   53.89   18.30
   5   0  -5   91.69   20.30
   5   0  -5   49.20   24.40
  -5   0   5   31.20   17.40
  -5   0   5   27.30   22.90
  -5   0   5   60.79   13.30
   4   0  -5  557.94   47.10
   4   0  -5  589.24   39.40
   4   0  -5  690.43   47.60
  -4   0   5  581.54   40.60
   3   0  -5  377.26   33.60
   3   0  -5  351.76   30.00
   3   0  -5  390.26   33.20
  -3   0   5  373.16   31.40
  -3   0   5  325.07   32.70
  -3   0   5  386.96   23.10
  -3   0   5  316.17   31.40
   2   0  -5 1316.37   55.19
   2   0  -5 1286.97   54.89
   2   0  -5 1345.07   46.60
  -2   0   5 1261.37   56.19
  -2   0   5 1325.97   56.29
  -2   0   5 1264.47   54.69
  -2   0   5 1413.96   44.30
   1   0  -5 1392.76   54.79
   1   0  -5 1426.16   43.10
   1   0  -5 1435.86   55.39
  -1   0   5 1338.07   55.19
  -1   0   5 1472.95   57.59
  -1   0   5 1497.05   55.59
  -1   0   5 1502.75   47.80
   0   0  -5   25.00   11.30
   0   0  -5   17.40    8.90
   0   0  -5   13.20    7.90
   0   0   5   14.80    8.10
   0   0   5   26.00   10.40
   0   0   5   23.10   10.40
  -1   0  -5 1741.13   60.99
  -1   0  -5 1813.02   59.19
  -1   0  -5 1864.31   59.49
  -1   0  -5 1814.72   47.50
   1   0   5 1821.42   60.89
   1   0   5 1870.51   60.49
  -2   0  -5   42.00   13.60
  -2   0  -5   66.99   13.70
  -2   0  -5   76.59   10.20
   2   0   5   79.79   15.60
   2   0   5   99.59   18.00
  -3   0  -5   -1.30    4.60
  -3   0  -5   -8.40    5.20
  -3   0  -5   -2.90    5.60
  -3   0  -5   12.70    8.40
   3   0   5   -6.30    9.50
   3   0   5    0.40    6.60
   3   0   5   10.00    8.50
   3   0   5   10.70    5.90
  -4   0  -5 1233.08   52.39
  -4   0  -5 1175.78   43.50
  -4   0  -5 1128.89   40.80
  -4   0  -5 1211.98   58.59
   4   0   5 1127.49   57.19
   4   0   5 1210.08   59.59
   4   0   5 1186.58   43.20
  -5   0  -5    1.40    5.70
  -5   0  -5   -4.00   13.50
   5   0   5   -4.00   13.70
   5   0   5  -14.30   11.60
   5   0   5   14.80    9.00
  -6   0  -5  809.22   23.80
  -6   0  -5  820.62   23.60
  -6   0  -5  817.02   55.19
   6   0   5  895.31   58.89
   6   0   5  834.12   46.90
   6   0   5  837.82   58.99
  -7   0  -5   32.60   19.80
   7   0   5   65.59   24.60
   7   0   5   44.90   26.40
   7   0   5   12.50   17.10
  -8   0  -5   50.79   30.40
   8   0   5   36.40   23.40
   8   0   5   24.80   26.80
   7  -1  -5   16.70   28.80
   7  -1  -5   32.20   20.70
   7  -1  -5   48.10   28.00
  -7   1   5   15.30   17.40
  -7   1   5  -13.50   31.00
  -7   1   5   28.70   25.30
   6  -1  -5   36.40   19.00
   6  -1  -5   -6.80   18.60
   6  -1  -5   23.40   20.60
   6  -1  -5   71.49   26.20
  -6   1   5   45.50   25.30
  -6   1   5    1.00   14.00
  -6   1   5   24.30   15.20
  -6   1   5   35.40   20.50
   5  -1  -5  161.08   25.50
   5  -1  -5  138.89   33.20
   5  -1  -5  212.98   32.80
   5  -1  -5  183.88   36.50
  -5   1   5  183.18   28.80
  -5   1   5  191.08   31.20
   4  -1  -5  185.28   26.80
   4  -1  -5  211.98   26.70
   4  -1  -5  165.18   28.80
  -4   1   5  195.98   11.70
  -4   1   5  144.79   23.00
  -4   1   5  159.58   25.40
   3  -1  -5 2270.47   75.39
   3  -1  -5 2281.07   75.89
  -3   1   5 2245.88   65.29
  -3   1   5 2269.47   77.19
  -3   1   5 2234.08   74.69
  -3   1   5 2441.56   87.19
   2  -1  -5   61.79   14.40
   2  -1  -5   40.30   11.50
  -2   1   5   43.60   14.90
  -2   1   5   68.59   13.60
  -2   1   5   58.49   14.60
  -2   1   5   59.59   14.30
   1  -1  -5   25.10   10.30
   1  -1  -5   16.50    8.50
  -1   1   5   14.60    9.80
  -1   1   5    8.60    7.30
  -1   1   5    7.30   10.30
  -1   1   5    8.00    7.00
   0  -1  -5   -4.10    5.60
   0  -1  -5    0.50    5.50
   0   1   5    7.50    8.00
   0   1   5    7.30    6.90
   0   1   5    4.20    8.20
  -1  -1  -5  418.96   27.40
  -1  -1  -5  461.05   16.70
  -1  -1  -5  405.06   28.20
  -1  -1  -5  432.86   27.60
   1   1   5  446.16   27.70
   1   1   5  433.76   28.50
   1   1   5  503.45   29.50
  -2  -1  -5  510.75   14.40
  -2  -1  -5  538.15   32.70
  -2  -1  -5  500.25   30.20
  -2  -1  -5  505.65   27.70
   2   1   5  516.55   32.20
   2   1   5  473.75   32.40
   2   1   5  535.55   29.30
  -3  -1  -5  406.46   29.80
  -3  -1  -5  389.96   30.00
  -3  -1  -5  390.46   22.50
   3   1   5  424.56   31.40
   3   1   5  361.06   15.90
   3   1   5  376.96   12.60
  -4  -1  -5  433.36   33.60
  -4  -1  -5  424.36   33.60
   4   1   5  420.46   32.30
   4   1   5  443.16   37.00
   4   1   5  459.75   35.70
  -5  -1  -5  709.13   46.90
  -5  -1  -5  776.72   23.70
  -5  -1  -5  862.51   51.09
   5   1   5  760.42   49.80
   5   1   5  797.12   53.29
   5   1   5  825.92   37.40
  -6  -1  -5   41.80   19.60
  -6  -1  -5   74.09   21.00
   6   1   5  131.39   30.60
   6   1   5   86.89   17.20
  -7  -1  -5   52.99   23.80
   7   1   5   53.09   28.20
   7   1   5   23.90   16.60
   7   1   5   56.99   21.10
  -8  -1  -5  -19.30   28.10
  -8  -1  -5   -6.80   23.80
   8   1   5   38.30   22.30
   8   1   5   30.10   25.60
   7  -2  -5   12.60   19.30
   7  -2  -5   58.59   32.30
   7  -2  -5   21.80   22.90
  -7   2   5   16.40   21.10
  -7   2   5   -2.60   19.80
  -7   2   5   -5.00   21.80
  -7   2   5  -22.60   33.30
   6  -2  -5   59.99   22.20
   6  -2  -5   57.19   27.20
   6  -2  -5   64.19   25.00
   6  -2  -5   84.99   21.80
  -6   2   5   49.99   20.40
  -6   2   5   43.70   18.70
  -6   2   5   24.40   18.90
  -6   2   5   53.09   27.60
   5  -2  -5   18.10   21.60
   5  -2  -5    6.10   14.20
   5  -2  -5    6.40   13.30
   5  -2  -5   40.60   15.90
  -5   2   5   28.70   14.60
  -5   2   5   25.50   13.90
   4  -2  -5  693.33   42.80
   4  -2  -5  722.73   50.89
   4  -2  -5  676.63   41.60
   4  -2  -5  689.63   51.19
  -4   2   5  691.53   43.10
  -4   2   5  713.83   27.00
  -4   2   5  693.03   40.00
  -4   2   5  728.23   53.69
   3  -2  -5  229.78   22.30
   3  -2  -5  199.58   27.00
   3  -2  -5  186.28   27.20
  -3   2   5  188.48   26.50
  -3   2   5  171.78   17.60
  -3   2   5  203.58   18.00
  -3   2   5  192.08   29.10
   2  -2  -5   24.30    8.60
   2  -2  -5   29.70   11.20
   2  -2  -5   30.60   11.80
  -2   2   5   24.60   12.70
  -2   2   5   36.80   10.00
  -2   2   5   19.90    6.00
  -2   2   5   21.90    9.70
   1  -2  -5  905.11   37.40
   1  -2  -5  838.02   33.60
   1  -2  -5  866.41   41.50
  -1   2   5  848.12   33.30
  -1   2   5  882.91   43.30
  -1   2   5  863.11   45.60
   0  -2  -5  295.87   19.30
   0  -2  -5  314.27   24.00
   0  -2  -5  316.87   17.70
   0   2   5  322.47   25.10
   0   2   5  305.87   25.30
  -1  -2  -5  483.65   20.00
  -1  -2  -5  504.45   13.10
  -1  -2  -5  513.25   32.40
  -1  -2  -5  528.25   29.90
   1   2   5  481.25   31.00
   1   2   5  522.95   27.00
   1   2   5  494.05   28.90
  -2  -2  -5  140.09   21.00
  -2  -2  -5  137.99   17.40
  -2  -2  -5  123.69   20.40
   2   2   5  121.19   16.50
   2   2   5   92.39   16.80
  -3  -2  -5 1162.48   39.60
  -3  -2  -5 1287.17   55.79
  -3  -2  -5 1080.79   50.89
  -3  -2  -5 1142.39   49.80
   3   2   5 1146.09   21.00
   3   2   5 1148.49   52.69
   3   2   5 1216.88   41.20
   3   2   5 1170.18   35.90
  -4  -2  -5  951.70   52.29
  -4  -2  -5 1012.30   51.09
  -4  -2  -5  941.41   31.70
  -4  -2  -5  884.41   49.40
   4   2   5  888.41   29.70
   4   2   5  926.71   49.99
   4   2   5  912.61   52.69
  -5  -2  -5  105.49   22.10
  -5  -2  -5   70.59   20.90
  -5  -2  -5   30.50   18.80
   5   2   5   82.69   20.50
   5   2   5   83.19   20.50
   5   2   5   75.49   13.50
  -6  -2  -5  579.84   52.59
  -6  -2  -5  520.65   43.00
   6   2   5  511.25   34.10
   6   2   5  471.05   44.80
   6   2   5  553.74   44.20
  -7  -2  -5  131.19   33.30
  -7  -2  -5  209.18   39.80
   7   2   5  122.39   24.50
   7   2   5   68.39   28.20
   7   2   5  150.78   30.00
  -8  -2  -5   76.59   28.90
   8   2   5   65.89   22.30
   8   2   5   -1.50   34.40
   8   2   5   60.09   28.00
   7  -3  -5   76.69   25.90
   7  -3  -5   86.89   33.60
   7  -3  -5  101.39   29.20
   7  -3  -5  117.29   40.00
  -7   3   5  185.48   50.09
  -7   3   5   76.59   26.20
  -7   3   5   58.59   29.00
  -7   3   5  117.49   31.70
   6  -3  -5   18.90   16.70
   6  -3  -5  -24.40   16.80
   6  -3  -5   35.60   25.20
   6  -3  -5   -1.10   24.00
  -6   3   5   36.30   18.90
  -6   3   5   -4.20   22.00
  -6   3   5  -14.60   20.20
  -6   3   5  -12.40   15.50
   5  -3  -5   43.80   17.80
   5  -3  -5   90.29   25.30
   5  -3  -5   81.59   19.40
  -5   3   5   39.10   16.90
  -5   3   5   50.09   17.30
  -5   3   5   91.49   27.10
   4  -3  -5   15.90   16.10
   4  -3  -5   -2.40   14.20
   4  -3  -5   19.60   13.40
   4  -3  -5    2.50   10.50
  -4   3   5   12.30    8.50
  -4   3   5    5.70    9.70
  -4   3   5   18.10   16.90
  -4   3   5   19.60   11.00
   3  -3  -5  610.54   32.70
   3  -3  -5  571.84   40.20
   3  -3  -5  644.54   41.20
  -3   3   5  598.94   39.40
  -3   3   5  577.34   32.10
  -3   3   5  607.94   43.50
   2  -3  -5  947.11   45.60
   2  -3  -5  994.20   48.40
   2  -3  -5  920.21   34.30
  -2   3   5  912.31   49.99
  -2   3   5  944.21   48.70
  -2   3   5 1059.79   44.90
   1  -3  -5    5.90    4.90
   1  -3  -5   13.10    7.50
   1  -3  -5   -4.50    7.30
  -1   3   5    7.30    9.10
  -1   3   5    5.40    4.20
  -1   3   5   12.80   10.60
   0  -3  -5  464.35   31.10
   0  -3  -5  470.55   28.10
   0   3   5  494.75   33.40
   0   3   5  451.25   30.70
   0   3   5  472.15   19.50
   0   3   5  475.15   15.60
  -1  -3  -5   40.10   12.10
  -1  -3  -5   25.20   12.60
  -1  -3  -5   36.80    5.80
   1   3   5   36.10   10.60
   1   3   5   23.30    9.50
   1   3   5   30.30    8.00
  -2  -3  -5  171.08   18.30
  -2  -3  -5  194.38   27.00
  -2  -3  -5  207.88   19.30
   2   3   5  188.58   18.60
   2   3   5  223.38   24.20
  -3  -3  -5   10.90    9.50
  -3  -3  -5   17.10    7.90
  -3  -3  -5   34.10   13.40
  -3  -3  -5   33.60   13.00
   3   3   5   25.30   11.30
   3   3   5    4.80    7.40
   3   3   5   32.80    9.40
   3   3   5   20.40    3.90
  -4  -3  -5  228.68   33.80
  -4  -3  -5  170.08   14.90
  -4  -3  -5  243.38   27.80
  -4  -3  -5  159.28   25.70
   4   3   5  165.28   27.90
   4   3   5  206.18   19.20
   4   3   5  209.48   14.40
   4   3   5  185.88   17.10
   4   3   5  187.08   27.20
  -5  -3  -5  123.59   25.80
  -5  -3  -5  102.69   27.00
  -5  -3  -5  129.99   24.40
   5   3   5  101.09   23.80
   5   3   5   99.79   15.40
   5   3   5  156.28   26.80
  -6  -3  -5  404.46   51.99
  -6  -3  -5  380.86   38.50
  -6  -3  -5  442.66   46.00
   6   3   5  482.75   45.10
   6   3   5  460.65   39.80
   6   3   5  390.16   30.40
  -7  -3  -5  -28.40   17.30
  -7  -3  -5  -12.70   20.00
   7   3   5    5.50   14.30
   7   3   5    1.80   26.00
   7   3   5   -5.10   13.70
  -8  -3  -5   84.49   31.70
  -8  -3  -5  -31.60   31.80
   8   3   5   67.69   26.00
   8   3   5   -1.70   22.90
   8   3   5   65.49   27.40
   8   3   5   82.39   39.50
   6  -4  -5  297.27   55.69
   6  -4  -5  250.97   36.90
   6  -4  -5  252.27   45.90
   6  -4  -5  168.28   30.10
  -6   4   5  215.18   44.10
  -6   4   5  253.17   42.60
  -6   4   5  216.48   35.80
   5  -4  -5  101.79   30.10
   5  -4  -5   56.69   24.60
   5  -4  -5   71.69   18.60
   5  -4  -5   98.39   22.30
  -5   4   5   25.60   19.90
  -5   4   5  157.58   33.30
   4  -4  -5  133.49   19.90
   4  -4  -5  146.19   29.00
   4  -4  -5   80.49   20.20
  -4   4   5  122.69   24.50
  -4   4   5  132.89   28.90
   3  -4  -5   24.60    8.90
   3  -4  -5   18.20   13.30
   3  -4  -5   20.80   13.00
  -3   4   5    7.80   10.40
  -3   4   5   -1.40   14.20
  -3   4   5   20.20   10.60
   2  -4  -5   72.49   16.80
   2  -4  -5   91.19    9.40
   2  -4  -5   90.69   19.50
  -2   4   5   65.89   18.70
  -2   4   5   73.69   17.30
  -2   4   5   68.29   17.70
   1  -4  -5 1183.48   54.09
   1  -4  -5 1208.28   48.10
  -1   4   5 1177.58   54.99
  -1   4   5 1153.08   54.49
  -1   4   5 1183.28   52.89
  -1   4   5 1228.18   49.10
   0  -4  -5   95.39   17.00
   0  -4  -5   87.29   13.50
   0   4   5   95.79   18.50
   0   4   5   82.49   17.90
   0   4   5   97.89   14.50
   0   4   5   79.19   11.60
  -1  -4  -5 2526.05   84.59
  -1  -4  -5 2589.34   60.89
  -1  -4  -5 2643.54   77.79
   1   4   5 2606.24   82.49
   1   4   5 2627.54   54.89
   1   4   5 2490.55   76.79
   1   4   5 2507.65   58.69
   1   4   5 2570.74   85.89
   1   4   5 2544.05   66.29
  -2  -4  -5   17.20    9.00
  -2  -4  -5   23.30   11.90
   2   4   5   21.50    6.00
   2   4   5   10.60    8.60
   2   4   5   22.00   10.10
   2   4   5   10.70   10.30
  -3  -4  -5  402.96   37.70
  -3  -4  -5  477.35   35.70
  -3  -4  -5  452.75   27.80
   3   4   5  452.65   31.50
   3   4   5  522.65   37.30
   3   4   5  401.16   27.50
   3   4   5  442.96   20.50
  -4  -4  -5    4.70   13.30
  -4  -4  -5    0.10   11.20
   4   4   5   -6.20   10.30
   4   4   5   12.10    7.50
   4   4   5  -14.30    8.10
   4   4   5   38.50   14.40
  -5  -4  -5   24.40   19.80
  -5  -4  -5   29.50   16.40
  -5  -4  -5   59.99   18.80
   5   4   5   26.50   13.50
   5   4   5   43.20    8.50
   5   4   5  -11.80   13.40
  -6  -4  -5   -7.40   17.70
  -6  -4  -5   22.60   20.70
  -6  -4  -5    7.00   14.20
   6   4   5  -23.60   17.70
   6   4   5  -10.40   13.60
   6   4   5   18.50   11.70
   6   4   5   11.20   17.00
  -7  -4  -5  137.09   37.70
  -7  -4  -5  140.09   30.60
   7   4   5  170.68   31.40
   7   4   5  129.59   36.20
   7   4   5  123.79   23.80
   7   4   5  172.98   32.70
   6  -5  -5   23.80   16.90
   6  -5  -5   36.90   30.60
  -6   5   5   23.40   19.70
   5  -5  -5  246.18   36.60
   5  -5  -5  237.68   41.70
   5  -5  -5  178.18   24.60
  -5   5   5  186.28   35.70
  -5   5   5  235.18   37.10
   4  -5  -5   25.30   17.40
   4  -5  -5   23.30   16.90
   4  -5  -5   -0.50    8.00
  -4   5   5   21.60   17.00
  -4   5   5    1.60   13.00
   3  -5  -5  181.68   13.50
   3  -5  -5  152.68   26.90
  -3   5   5  138.69   27.70
  -3   5   5  217.08   29.60
  -3   5   5  157.18   33.10
   2  -5  -5   76.99   17.90
  -2   5   5   67.79   18.80
  -2   5   5  113.09   23.80
  -2   5   5   56.99   16.50
  -2   5   5   59.39   16.90
   1  -5  -5   42.80   12.70
   1  -5  -5   33.00   13.30
  -1   5   5   32.10   14.10
  -1   5   5   46.90   15.10
  -1   5   5   26.20   13.00
  -1   5   5   19.10   14.70
   0  -5  -5  545.55   39.20
   0  -5  -5  561.84   32.20
   0  -5  -5  591.24   42.60
   0   5   5  570.94   33.50
   0   5   5  546.25   39.10
   0   5   5  466.65   39.10
  -1  -5  -5  306.87   23.10
  -1  -5  -5  343.77   30.10
  -1  -5  -5  337.77   32.20
   1   5   5  317.67   14.10
   1   5   5  327.37   30.30
   1   5   5  346.57   32.70
   1   5   5  325.37   26.50
   1   5   5  346.87   34.70
   1   5   5  297.47   22.50
  -2  -5  -5   84.99   24.10
   2   5   5   77.39   12.90
   2   5   5   61.89   16.20
   2   5   5   59.59   17.30
   2   5   5   59.89   16.30
   2   5   5   75.59   12.70
   2   5   5   58.09   19.40
   2   5   5   93.99   18.20
  -3  -5  -5   62.89   22.00
   3   5   5   70.89   16.30
   3   5   5   80.99   19.00
   3   5   5   84.19   19.10
   3   5   5   91.89   17.40
   3   5   5   87.59   13.50
   3   5   5   80.29   18.70
   3   5   5   97.09   24.30
   3   5   5  116.69   23.40
   4   5   5  183.18   19.70
   4   5   5  231.08   34.50
   4   5   5  218.38   32.00
   4   5   5  195.48   28.90
   4   5   5  187.28   22.30
   4   5   5  174.88   26.60
   4   5   5  205.08   28.80
  -5  -5  -5   10.20   13.70
  -5  -5  -5    7.80   13.30
   5   5   5    5.30   14.50
   5   5   5    0.90   16.30
   5   5   5   29.80   11.60
   5   5   5    8.00   16.20
   5   5   5    2.10   13.60
   5   5   5    5.20   12.70
   5   5   5    8.00    8.40
  -6  -5  -5   24.30   22.60
  -6  -5  -5   50.39   23.80
   6   5   5   46.90   15.30
   6   5   5   58.09   24.80
   6   5   5   26.20    6.40
   6   5   5   17.40   20.90
   6   5   5   59.19   20.10
   6   5   5   19.60   22.10
  -7  -5  -5   36.10   29.70
   7   5   5   43.10   21.40
   7   5   5   13.50   27.80
   7   5   5   26.80   19.70
   7   5   5    9.70   22.60
   7   5   5  -18.90   24.90
   5  -6  -5   28.40   13.40
   5  -6  -5   67.69   31.80
  -5   6   5   41.40   23.60
  -5   6   5   24.00   23.50
   4  -6  -5  138.59   16.60
   4  -6  -5  186.18   35.80
  -4   6   5  202.78   33.50
  -4   6   5  181.58   33.10
   3  -6  -5   61.99   21.50
  -3   6   5   45.30   23.20
  -3   6   5   57.39   21.30
  -3   6   5   44.60   19.10
  -3   6   5   19.40   16.00
   2  -6  -5   83.19   20.30
  -2   6   5   26.50   18.60
  -2   6   5   42.20   17.40
  -2   6   5   29.20   17.80
  -2   6   5   37.20   31.00
   1  -6  -5  106.19   21.30
   1  -6  -5  101.49   24.30
  -1   6   5   75.49   34.90
  -1   6   5  106.39   21.10
  -1   6   5  110.69   21.50
  -1   6   5   44.20   27.20
   0  -6  -5  412.06   32.30
   0  -6  -5  341.37   35.80
   0   6   5  393.56   37.60
   0   6   5  371.76   30.90
   0   6   5  313.47   40.30
  -1  -6  -5   29.80   11.70
  -1  -6  -5   10.80   12.30
   1   6   5    5.00   13.40
   1   6   5    2.30    9.80
   1   6   5   11.10    2.10
   1   6   5   -1.90   10.10
   1   6   5   10.20   11.10
  -2  -6  -5  805.02   53.09
   2   6   5  862.21   56.19
   2   6   5  798.82   48.00
   2   6   5  836.72   40.80
   2   6   5  724.23   47.70
   2   6   5  814.12   34.60
   2   6   5  780.22   48.50
   3   6   5   80.29   18.90
   3   6   5   38.70   16.90
   3   6   5   40.50   17.80
   3   6   5   27.00   21.40
   3   6   5   51.09   17.10
   3   6   5   43.10   12.60
   3   6   5   34.30   14.00
   3   6   5   33.00   12.10
  -4  -6  -5  298.17   45.20
   4   6   5  365.16   33.80
   4   6   5  347.57   28.00
   4   6   5  325.87   44.30
   4   6   5  354.56   41.50
   4   6   5  341.47   29.60
   4   6   5  369.66   47.20
   4   6   5  312.67   39.00
   4   6   5  309.17   33.40
  -5  -6  -5   38.40   25.70
   5   6   5   36.10   16.20
   5   6   5   23.50   20.00
   5   6   5   30.00   12.20
   5   6   5    8.70   12.40
   5   6   5   40.40   21.40
   5   6   5    1.30   22.10
  -6  -6  -5  244.98   45.90
   6   6   5  284.77   44.20
   6   6   5  271.77   41.90
   6   6   5  241.38   22.10
   6   6   5  244.38   32.10
   6   6   5  271.97   44.90
   5  -7  -5  -20.00   35.00
   5  -7  -5    9.80   10.40
  -5   7   5    5.90   27.00
  -5   7   5  -29.00   24.50
   4  -7  -5   87.19   30.60
  -4   7   5   51.09   24.80
  -4   7   5   56.69   26.40
  -4   7   5  123.09   34.30
   3  -7  -5   -1.30   21.80
  -3   7   5   36.90   20.90
  -3   7   5   24.10   20.80
  -3   7   5    4.60   20.10
   2  -7  -5  188.48   33.80
  -2   7   5  236.88   48.40
  -2   7   5  277.77   34.40
  -2   7   5  224.18   34.60
  -2   7   5  225.48   36.20
   1  -7  -5   19.60   16.10
   1  -7  -5   22.60   18.60
  -1   7   5   18.60   13.80
  -1   7   5   10.80   13.20
  -1   7   5   32.10   16.20
   0  -7  -5   71.19   20.70
   0  -7  -5   97.29   25.30
   0   7   5   85.39   20.00
   0   7   5   74.79   18.30
   0   7   5   46.50   20.60
  -1  -7  -5  194.58   33.90
  -1  -7  -5  143.59   23.70
   1   7   5  231.28   34.40
   1   7   5  180.68   27.20
   1   7   5  168.38   33.30
   1   7   5  136.19   27.00
  -2  -7  -5 1093.09   66.39
   2   7   5  975.70   51.59
   2   7   5 1017.40   70.89
   2   7   5 1018.40   51.49
   2   7   5 1014.60   74.69
   2   7   5 1019.60   63.79
   2   7   5  977.50   56.29
   2   7   5 1156.08   71.59
  -3  -7  -5  104.99   27.40
   3   7   5   83.29   22.50
   3   7   5   52.89   23.20
   3   7   5   61.99   19.00
   3   7   5   86.59   17.90
   3   7   5   87.09   19.30
   3   7   5   29.00   23.60
   3   7   5  116.49   31.50
  -4  -7  -5 1023.00   71.19
   4   7   5  924.31   51.39
   4   7   5  861.91   50.19
   4   7   5  923.11   69.29
   4   7   5  841.42   53.79
   4   7   5  994.30   65.99
   4   7   5  935.31   49.60
   4   7   5  868.31   67.09
  -5  -7  -5  101.39   32.20
   5   7   5  111.19   39.10
   5   7   5  110.39   29.90
   5   7   5  172.38   34.70
   5   7   5  124.49   32.80
   5   7   5  144.09   24.40
   5   7   5  132.99   27.30
   5   7   5   96.49   23.00
   5   7   5   96.69   27.10
   3  -8  -5   11.40   26.30
   3  -8  -5    1.00   18.50
  -3   8   5   14.80   25.10
  -3   8   5   -8.90   21.60
  -3   8   5   12.70   21.80
   2  -8  -5   46.20   22.30
   2  -8  -5   45.90   22.00
  -2   8   5    8.00   24.30
  -2   8   5   12.90   21.40
  -2   8   5   33.90   17.10
   1  -8  -5   34.40   23.10
  -1   8   5   21.00   25.80
  -1   8   5    9.00   16.50
  -1   8   5    9.70   18.70
  -1   8   5   16.30   17.90
   0  -8  -5  195.68   35.30
   0  -8  -5  135.59   27.70
   0   8   5  126.99   23.60
   0   8   5  157.98   36.10
   0   8   5  142.19   32.50
   0   8   5  151.68   30.10
  -1  -8  -5   18.80   15.80
   1   8   5   88.29   26.90
   1   8   5   34.10   29.50
   1   8   5   78.49   24.00
   1   8   5   91.09   21.90
   1   8   5   37.80   26.00
  -2  -8  -5  130.49   28.70
   2   8   5  121.79   28.80
   2   8   5  139.79   24.30
   2   8   5  169.28   35.90
   2   8   5  168.08   35.30
   2   8   5  151.88   28.00
   2   8   5  160.58   32.40
   2   8   5  113.99   28.50
  -3  -8  -5   55.29   23.50
   3   8   5   45.70   20.20
   3   8   5   34.90   15.30
   3   8   5   71.49   21.70
   3   8   5    9.60   28.90
   3   8   5   63.69   24.20
   3   8   5  -16.60   31.10
   3   8   5  109.59   33.20
   3   8   5   90.09   25.60
  -4  -8  -5   53.69   25.40
   4   8   5  123.49   25.90
   4   8   5   94.99   24.30
   4   8   5   86.49   25.70
   4   8   5   91.89   34.70
   4   8   5   61.39   36.70
   1  -9  -5  -14.30   26.00
   1  -9  -5   -6.50   17.70
  -1   9   5   19.50   15.70
  -1   9   5    1.10   22.60
  -1   9   5  -11.00   22.50
   0  -9  -5   43.70   26.30
   0  -9  -5   92.59   28.10
   0   9   5   88.79   31.90
   0   9   5   85.39   33.10
   0   9   5   63.89   26.10
   0   9   5   69.99   19.30
   0   9   5   79.69   30.70
  -1  -9  -5   29.80   21.10
   1   9   5  -10.80   14.40
   1   9   5    8.10   23.10
   1   9   5    6.20   22.40
   1   9   5   -9.30   26.50
   1   9   5   -3.40   14.70
   1   9   5  -45.10   31.70
   1   9   5  -17.10   18.60
  -2  -9  -5   62.89   27.80
   2   9   5   40.80   23.60
   2   9   5  -41.10   30.10
   2   9   5   35.60   17.30
   2   9   5   24.80   23.20
   2   9   5   20.50   35.10
   2   9   5   15.30    8.10
   2   9   5  -40.70   27.30
   2   9   5   47.60   25.20
   2   6  -6  519.15   67.19
   2   6  -6  450.65   61.69
   2   6  -6  410.16   55.99
   2   6  -6  407.76   66.69
  -2  -6   6  520.55   65.69
  -2  -6   6  404.56   27.50
  -2  -6   6  476.35   58.59
  -2  -6   6  355.86   53.19
   1   6  -6  -10.80   26.40
   1   6  -6   -3.30   14.10
   1   6  -6   57.29   30.20
  -1  -6   6  -19.10   30.20
  -1  -6   6   19.90   26.00
  -1  -6   6   17.60   25.20
   0   6  -6  202.88   40.60
   0   6  -6  257.97   34.00
   0   6  -6  300.47   45.80
   0  -6   6  315.87   50.49
  -1   6  -6   51.59   23.50
  -1   6  -6   49.40   20.10
  -1   6  -6   33.20   22.00
   1  -6   6  100.79   31.90
  -2   6  -6   46.50   23.60
  -2   6  -6   -2.60   21.50
   2  -6   6  -42.50   21.90
  -3   6  -6  236.18   42.90
  -3   6  -6  221.08   42.70
   3  -6   6  136.19   18.20
   3   5  -6   60.29   32.90
   3   5  -6   84.79   34.30
   3   5  -6   61.69   33.40
   3   5  -6   57.29   32.40
  -3  -5   6   83.29   21.10
  -3  -5   6   90.29   27.30
  -3  -5   6   35.30   22.80
  -3  -5   6   93.09   34.40
   2   5  -6   21.00   18.70
   2   5  -6  -29.30   16.70
   2   5  -6  -14.90   22.00
   2   5  -6  -11.80   24.40
  -2  -5   6   37.20   19.00
  -2  -5   6   -0.40   12.10
  -2  -5   6   -3.30   17.30
  -2  -5   6    1.70   17.20
   1   5  -6  333.87   46.30
   1   5  -6  287.37   44.20
   1   5  -6  238.78   25.10
  -1  -5   6  286.17   40.30
  -1  -5   6  330.77   47.60
  -1  -5   6  343.87   26.30
   0   5  -6   13.30   19.50
   0   5  -6   23.10   15.50
   0   5  -6    7.10   19.40
   0  -5   6   24.70   16.00
   0  -5   6   26.10   16.40
   0  -5   6   24.90    9.60
  -1   5  -6  198.58   36.00
  -1   5  -6  233.58   38.30
  -1   5  -6  194.18   38.30
   1  -5   6  266.17   20.90
   1  -5   6  197.88   36.20
  -2   5  -6   14.30   19.00
  -2   5  -6    8.20   17.40
   2  -5   6   24.60   18.60
   2  -5   6    0.00    8.20
  -3   5  -6   -2.10   18.50
  -3   5  -6  -20.70   20.00
   3  -5   6   -4.20   10.70
   3  -5   6   39.40   24.60
   3  -5   6  -14.00   14.10
  -4   5  -6   31.30   20.50
  -4   5  -6  -35.60   26.00
   4  -5   6   17.70   26.60
   4  -5   6  -30.90   20.60
   4  -5   6   21.20   15.30
  -5   5  -6  -44.50   23.10
  -5   5  -6   -3.90   30.50
   5  -5   6   36.20   19.60
   5  -5   6   26.10   23.50
   5  -5   6  -20.80   27.10
   4   4  -6   45.40   27.80
   4   4  -6   32.10   28.80
   4   4  -6   45.50   24.40
  -4  -4   6   53.99   25.80
  -4  -4   6   65.19   23.50
  -4  -4   6   13.80   17.30
  -4  -4   6   38.80   26.80
   3   4  -6   63.59   28.10
   3   4  -6   96.89   31.10
   3   4  -6   12.30   19.90
  -3  -4   6   35.10   19.90
  -3  -4   6   36.80   23.20
  -3  -4   6   58.49   20.90
  -3  -4   6   63.49   24.50
   2   4  -6   66.59   25.70
   2   4  -6   56.39   24.50
   2   4  -6    9.50   19.90
   2   4  -6   50.69   24.10
  -2  -4   6   45.50   16.40
  -2  -4   6    1.30   13.10
  -2  -4   6   20.80   18.30
   1   4  -6   22.60   15.40
   1   4  -6   26.20   14.90
   1   4  -6   18.20   19.30
   1   4  -6    0.40    9.60
  -1  -4   6    6.80   10.50
  -1  -4   6   25.00   15.50
   0   4  -6  -39.60   14.20
   0   4  -6  -12.20    8.90
   0   4  -6  -17.10    8.90
   0  -4   6    2.20    9.10
   0  -4   6    1.90   11.50
   0  -4   6    3.00   12.20
  -1   4  -6 1191.18   58.39
  -1   4  -6 1178.68   69.29
  -1   4  -6 1325.77  109.39
   1  -4   6 1222.28   58.39
   1  -4   6 1179.48   68.99
   1  -4   6 1322.17   49.40
  -2   4  -6  404.96   39.70
   2  -4   6  440.06   29.80
   2  -4   6  464.15   46.90
   2  -4   6  428.86   39.40
  -3   4  -6 1024.70   59.89
  -3   4  -6 1012.40   61.69
   3  -4   6  938.91   59.49
   3  -4   6  990.40   48.00
   3  -4   6  848.02   56.39
  -4   4  -6  268.87   38.00
  -4   4  -6  243.38   40.40
   4  -4   6  263.17   32.00
   4  -4   6  231.98   36.90
   4  -4   6  174.48   37.00
  -5   4  -6  174.68   37.40
  -5   4  -6  161.88   33.80
   5  -4   6  158.98   27.70
   5  -4   6  165.48   35.90
   5  -4   6  136.99   31.90
  -6   4  -6   68.69   29.70
  -6   4  -6   23.90   24.60
   6  -4   6   37.40   24.60
   6  -4   6   -0.70   27.00
   6  -4   6   23.00   27.20
   5   3  -6   14.00   21.00
   5   3  -6   48.10   23.10
   5   3  -6   51.89   28.20
  -5  -3   6   33.90   25.60
  -5  -3   6   25.10   25.80
  -5  -3   6   32.40   15.30
   4   3  -6   59.89   30.30
   4   3  -6  122.99   34.30
   4   3  -6  128.99   31.50
  -4  -3   6   65.99   22.30
  -4  -3   6   98.99   26.00
  -4  -3   6  120.39   27.10
  -4  -3   6   89.79   20.70
   3   3  -6    6.90   17.60
   3   3  -6    8.80   16.60
   3   3  -6  -10.50   20.40
  -3  -3   6  -16.00   14.60
  -3  -3   6   -7.60   13.40
   2   3  -6  216.78   35.70
   2   3  -6  161.18   30.50
   2   3  -6  187.88   33.20
   2   3  -6  231.88   35.40
  -2  -3   6  224.78   30.30
  -2  -3   6  195.98   31.70
   1   3  -6    8.10   10.90
   1   3  -6  -12.60    9.10
   1   3  -6   17.80   18.70
   1   3  -6   -3.10    6.90
  -1  -3   6   23.70   15.20
  -1  -3   6    3.60   10.50
  -1  -3   6  -14.10   11.30
  -1  -3   6  -16.70    6.40
   0   3  -6    4.00   10.20
   0   3  -6   -5.40    9.50
   0   3  -6    0.70   12.60
   0   3  -6    8.90    9.60
   0  -3   6   -4.90   14.50
   0  -3   6   -3.60   10.20
   0  -3   6   -0.20   10.50
   0  -3   6    7.60    9.10
  -1   3  -6  138.09   13.10
  -1   3  -6  137.99   22.70
  -1   3  -6  117.39   24.30
  -1   3  -6  135.59   23.70
   1  -3   6  162.08   25.40
   1  -3   6  186.78   35.70
   1  -3   6  151.48   22.40
  -2   3  -6   39.20   16.50
  -2   3  -6   44.40   15.70
   2  -3   6   32.40   15.80
   2  -3   6   53.19   15.90
  -3   3  -6  207.08   31.40
  -3   3  -6  172.28   27.80
   3  -3   6  169.68   24.60
   3  -3   6  226.48   30.90
   3  -3   6  149.88   27.40
   3  -3   6  151.88   27.60
  -4   3  -6   12.70   17.40
  -4   3  -6   28.80   17.10
   4  -3   6   84.29   22.90
   4  -3   6   67.49   18.00
   4  -3   6   39.70   18.80
  -5   3  -6    7.20   20.60
   5  -3   6   25.90   19.20
   5  -3   6   52.09   19.60
   5  -3   6   37.40   21.20
   5  -3   6    6.10   20.40
  -6   3  -6   36.60   44.10
  -6   3  -6   54.79   24.50
   6  -3   6   94.39   25.90
   6  -3   6   60.59   24.60
   6  -3   6  103.99   27.50
   6  -3   6   53.69   24.40
  -7   3  -6   78.99   21.20
  -7   3  -6   73.89   27.10
  -7   3  -6   90.09   26.20
   7  -3   6   62.29   36.50
   7  -3   6  178.48   34.90
   7  -3   6   93.79   34.00
   6   2  -6   55.39   36.60
   6   2  -6   28.30   23.00
   6   2  -6   -2.30   26.90
  -6  -2   6   11.00   31.20
   5   2  -6    6.30   17.60
   5   2  -6   10.60   21.50
   5   2  -6   39.10   28.00
  -5  -2   6   50.99   25.70
  -5  -2   6   54.29   26.20
   4   2  -6  146.99   32.60
   4   2  -6  266.47   45.10
   4   2  -6  242.38   34.90
  -4  -2   6  176.58   32.20
  -4  -2   6  197.38   24.10
  -4  -2   6  283.17   40.00
  -4  -2   6  189.28   36.60
   3   2  -6   19.80   13.30
   3   2  -6   59.49   21.60
   3   2  -6   43.50   18.00
  -3  -2   6   28.80   15.40
  -3  -2   6   31.10   14.80
  -3  -2   6   33.30   17.20
  -3  -2   6   30.80    5.60
   2   2  -6  412.56   35.60
   2   2  -6  403.46   41.30
   2   2  -6  401.86   38.60
  -2  -2   6  435.56   40.00
  -2  -2   6  440.66   35.70
  -2  -2   6  422.46   37.40
  -2  -2   6  358.36   24.60
   1   2  -6   27.40   13.20
   1   2  -6   35.40   10.30
   1   2  -6   21.60   13.40
   1   2  -6   50.59   17.70
  -1  -2   6   49.20   12.50
  -1  -2   6   31.20   14.90
  -1  -2   6   35.10   15.90
  -1  -2   6   47.10   14.50
   0   2  -6   13.60   11.40
   0   2  -6   28.70   11.60
   0   2  -6    4.00   13.70
   0   2  -6   29.10   12.80
   0  -2   6   15.60    9.60
   0  -2   6   14.20   10.80
   0  -2   6   25.90   11.10
  -1   2  -6 1082.29   56.09
  -1   2  -6 1129.69   51.29
  -1   2  -6 1145.29   58.79
  -1   2  -6 1086.09   50.89
   1  -2   6 1158.48   46.80
   1  -2   6 1118.59   59.29
   1  -2   6 1075.79   51.89
  -2   2  -6  342.67   32.00
  -2   2  -6  303.37   27.60
  -2   2  -6  347.47   19.50
  -2   2  -6  355.56   32.40
   2  -2   6  310.77   21.80
   2  -2   6  359.36   32.80
   2  -2   6  340.77   35.30
  -3   2  -6  515.55   25.30
  -3   2  -6  534.05   36.50
  -3   2  -6  575.24   41.80
   3  -2   6  548.65   37.60
   3  -2   6  577.84   37.60
   3  -2   6  569.04   44.00
  -4   2  -6  265.67   27.40
  -4   2  -6  209.48   32.70
   4  -2   6  261.37   28.00
   4  -2   6  194.78   29.30
   4  -2   6  206.68   39.50
  -5   2  -6   -3.70   12.00
  -5   2  -6    9.30   13.50
   5  -2   6  -23.60   15.60
   5  -2   6   17.90   15.70
   5  -2   6   -4.20   13.50
  -6   2  -6   73.59   18.10
  -6   2  -6  120.69   32.10
  -6   2  -6  123.99   26.50
   6  -2   6   67.79   23.80
   6  -2   6   60.79   24.90
   6  -2   6   31.20   18.40
   6  -2   6   51.99   23.90
  -7   2  -6    1.10   26.70
  -7   2  -6   54.49   14.70
  -7   2  -6   55.99   18.00
   7  -2   6   55.79   22.40
   7  -2   6   48.90   27.50
   7  -2   6   37.20   30.10
   7  -2   6   64.29   30.70
   6   1  -6    2.60   18.30
   6   1  -6   29.70   29.10
   6   1  -6   23.50   27.00
  -6  -1   6    5.40   28.50
   5   1  -6  414.46   51.49
   5   1  -6  453.15   49.00
   5   1  -6  505.95   43.30
  -5  -1   6  456.15   14.20
  -5  -1   6  455.15   49.10
  -5  -1   6  453.45   15.40
  -5  -1   6  428.06   13.70
   4   1  -6   -3.60   16.70
   4   1  -6   27.50   15.70
   4   1  -6   -1.40   13.50
  -4  -1   6   18.60   18.20
  -4  -1   6   21.50   18.30
  -4  -1   6    1.90    5.20
   3   1  -6  320.87   39.60
   3   1  -6  348.07   32.60
   3   1  -6  393.66   34.50
  -3  -1   6  387.26   37.60
  -3  -1   6  448.86   49.10
  -3  -1   6  345.57   20.70
   2   1  -6   62.59   18.00
   2   1  -6   28.70   14.40
   2   1  -6   34.80   13.00
  -2  -1   6   34.60   13.40
  -2  -1   6   50.19   17.30
  -2  -1   6   55.09   11.80
   1   1  -6   65.29   16.50
   1   1  -6   53.99   12.60
   1   1  -6   58.99   16.40
  -1  -1   6   90.09   15.60
  -1  -1   6   80.99   18.80
  -1  -1   6   72.99   18.90
   0   1  -6  301.37   23.80
   0   1  -6  313.67   31.20
   0   1  -6  308.97   29.90
   0   1  -6  277.77   24.40
   0  -1   6  325.17   29.10
   0  -1   6  310.57   25.10
  -1   1  -6  283.57   23.60
  -1   1  -6  247.88   24.10
  -1   1  -6  268.17   28.70
  -1   1  -6  277.47   26.10
   1  -1   6  254.17   31.20
   1  -1   6  273.47   24.80
   1  -1   6  267.27   20.70
  -2   1  -6  392.16   31.20
  -2   1  -6  380.36   24.30
  -2   1  -6  452.05   28.30
  -2   1  -6  483.05   34.30
   2  -1   6  411.36   21.30
   2  -1   6  414.86   35.30
   2  -1   6  436.36   34.50
  -3   1  -6    5.20    9.30
  -3   1  -6    6.80    9.40
  -3   1  -6    7.90    8.40
  -3   1  -6   25.00   11.00
   3  -1   6    5.60    9.60
   3  -1   6   22.10   11.70
   3  -1   6   -8.70    7.20
  -4   1  -6   32.50   18.20
  -4   1  -6   36.20   11.60
  -4   1  -6   17.30   11.00
  -4   1  -6   21.20   12.00
   4  -1   6   17.30   10.00
   4  -1   6   17.10   15.50
   4  -1   6   36.30   15.70
   4  -1   6   50.29   18.50
  -5   1  -6    2.40   10.10
  -5   1  -6   18.70   11.70
   5  -1   6   17.30   14.80
   5  -1   6   26.60   15.60
   5  -1   6    5.30   10.50
  -6   1  -6  167.28   34.80
  -6   1  -6  173.68   22.00
   6  -1   6  179.88   34.40
   6  -1   6  226.78   29.00
   6  -1   6  160.98   35.40
  -7   1  -6    6.20    9.40
  -7   1  -6    8.30    9.80
  -7   1  -6  -15.40   21.40
   7  -1   6   41.10   24.10
   7  -1   6   46.10   25.70
   7  -1   6   19.60   17.40
   6   0  -6   30.30   29.00
   6   0  -6  -45.00   22.50
   6   0  -6   13.40   19.00
  -6   0   6   -3.50    9.80
  -6   0   6  -44.30   25.40
  -6   0   6   -0.70   10.80
   5   0  -6   45.50   15.80
   5   0  -6   18.00   20.40
   5   0  -6   32.10   23.50
  -5   0   6   34.10   11.50
  -5   0   6   61.59   22.80
   4   0  -6  525.15   40.40
   4   0  -6  482.85   41.30
  -4   0   6  453.35   42.00
  -4   0   6  517.85   28.90
  -4   0   6  492.15   41.40
   3   0  -6  267.77   33.80
   3   0  -6  251.07   31.50
  -3   0   6  294.77   38.30
  -3   0   6  253.17   32.20
  -3   0   6  261.17   21.50
  -3   0   6  295.37   30.50
   2   0  -6  316.87   31.10
   2   0  -6  371.76   31.30
   2   0  -6  298.47   23.30
  -2   0   6  299.17   30.10
  -2   0   6  319.37   22.90
  -2   0   6  329.77   31.90
  -2   0   6  365.46   33.70
   1   0  -6  788.82   44.60
   1   0  -6  793.52   44.80
   1   0  -6  733.83   32.20
  -1   0   6  734.63   42.70
  -1   0   6  813.82   46.40
  -1   0   6  803.62   45.40
  -1   0   6  824.32   38.60
   0   0  -6    6.90    9.40
   0   0  -6   -7.40    6.00
   0   0  -6    9.70    7.90
   0   0   6    4.20    6.80
   0   0   6   -1.80    6.20
  -1   0  -6  658.63   37.00
  -1   0  -6  702.03   40.40
  -1   0  -6  763.62   40.20
  -1   0  -6  706.33   39.60
   1   0   6  737.73   40.30
   1   0   6  706.43   41.00
  -2   0  -6   36.40   11.70
  -2   0  -6   -8.30    5.30
  -2   0  -6   13.00    9.90
  -2   0  -6   21.30    6.70
   2   0   6   16.00    9.60
   2   0   6   12.40    9.50
  -3   0  -6  742.13   45.70
  -3   0  -6  732.33   38.00
  -3   0  -6  683.23   36.80
  -3   0  -6  718.83   31.30
   3   0   6  715.23   43.90
   3   0   6  681.83   29.40
   3   0   6  750.42   46.60
  -4   0  -6 1034.60   40.50
  -4   0  -6 1161.58   51.99
  -4   0  -6 1026.70   56.39
  -4   0  -6 1067.89   44.60
   4   0   6 1034.20   40.10
   4   0   6 1048.40   57.49
   4   0   6 1064.09   59.39
   4   0   6 1045.50   58.49
  -5   0  -6    4.10   13.70
  -5   0  -6   16.30    9.40
  -5   0  -6    5.90   15.70
   5   0   6   25.20   17.80
   5   0   6   36.30   11.10
   5   0   6   14.80   17.00
  -6   0  -6  154.48   15.70
   6   0   6  117.49   29.90
   6   0   6  110.69   28.60
   6   0   6  155.38   23.40
  -7   0  -6   51.29   24.80
   7   0   6  -42.60   23.00
   7   0   6   31.10   15.80
   7   0   6   57.89   26.70
  -8   0  -6   30.40   29.90
   8   0   6   19.20   29.30
   8   0   6   -5.40   27.70
   6  -1  -6   27.10   18.90
   6  -1  -6    9.30   20.20
   6  -1  -6    6.30   27.20
   6  -1  -6    3.10   20.90
  -6   1   6  -28.80   26.40
  -6   1   6    8.60   13.90
  -6   1   6    4.60   16.50
   5  -1  -6  784.02   61.49
   5  -1  -6  670.63   47.40
   5  -1  -6  555.94   53.09
   5  -1  -6  740.63   54.79
  -5   1   6  713.03   49.99
  -5   1   6  841.02   51.29
   4  -1  -6   53.59   18.40
   4  -1  -6   39.20   16.50
  -4   1   6   35.90   16.10
  -4   1   6   44.90   17.50
   3  -1  -6  774.02   46.10
   3  -1  -6  712.73   45.20
  -3   1   6  747.53   45.20
  -3   1   6  723.23   38.00
  -3   1   6  717.63   46.20
  -3   1   6  844.42   54.39
   2  -1  -6  594.74   39.80
   2  -1  -6  612.14   38.10
  -2   1   6  527.25   35.00
  -2   1   6  607.04   39.90
  -2   1   6  677.63   43.80
  -2   1   6  634.24   35.10
   1  -1  -6  337.57   15.10
   1  -1  -6  356.16   29.90
   1  -1  -6  339.17   27.10
  -1   1   6  333.57   26.90
  -1   1   6  385.66   32.50
  -1   1   6  322.67   28.10
  -1   1   6  382.06   26.80
   0  -1  -6    5.60    7.60
   0  -1  -6   20.80    9.90
   0   1   6    9.80    6.80
   0   1   6   -2.50    8.70
   0   1   6    7.00    9.10
  -1  -1  -6   10.30    7.70
  -1  -1  -6   -8.20    7.60
  -1  -1  -6    0.50    4.20
   1   1   6    7.20    9.30
   1   1   6    5.70    9.70
   1   1   6    4.70    7.70
  -2  -1  -6   15.90   10.60
  -2  -1  -6    8.10    9.50
  -2  -1  -6   11.90    3.60
  -2  -1  -6   -1.10    6.30
   2   1   6   -3.90    9.30
   2   1   6   16.90    9.10
   2   1   6   38.10   13.30
  -3  -1  -6  257.07   24.20
  -3  -1  -6  233.68   29.70
  -3  -1  -6  261.97   21.80
   3   1   6  287.57   29.30
   3   1   6  258.77   28.40
  -4  -1  -6  226.68   30.30
  -4  -1  -6  165.98   28.70
  -4  -1  -6  196.88   18.50
   4   1   6  182.78   29.80
   4   1   6  216.28   15.20
   4   1   6  197.98   29.10
  -5  -1  -6  371.46   21.30
  -5  -1  -6  408.26   38.50
  -5  -1  -6  318.87   33.90
   5   1   6  294.87   37.60
   5   1   6  345.57   23.70
  -6  -1  -6  433.16   45.70
  -6  -1  -6  312.57   63.89
  -6  -1  -6  387.76   13.20
   6   1   6  450.45   47.50
   6   1   6  336.07   44.10
   6   1   6  376.86   29.30
  -7  -1  -6  -19.20   21.10
  -7  -1  -6  -34.70   20.20
   7   1   6    7.10   14.50
   7   1   6   -6.10   16.20
   7   1   6  -32.60   13.40
  -8  -1  -6   34.00   29.40
   8   1   6   64.09   27.80
   8   1   6   44.70   20.00
   8   1   6   22.70   28.50
   6  -2  -6   -4.90   25.80
   6  -2  -6   -6.50   17.10
   6  -2  -6  -22.80   18.40
   6  -2  -6  -25.90   18.60
  -6   2   6    9.70   17.80
  -6   2   6   -5.00   21.00
  -6   2   6   -6.00   17.10
   5  -2  -6  180.88   29.60
   5  -2  -6  170.08   34.20
   5  -2  -6  180.58   31.10
  -5   2   6  223.88   30.80
   4  -2  -6   37.20   17.00
   4  -2  -6   53.99   19.40
   4  -2  -6   72.19   19.40
  -4   2   6   14.10   15.20
  -4   2   6   26.30    9.50
  -4   2   6   39.60   14.30
   3  -2  -6  118.09   21.50
   3  -2  -6   95.89   18.40
   3  -2  -6  119.99   22.90
  -3   2   6   73.59   20.50
  -3   2   6   47.30   15.70
   2  -2  -6  188.88   20.60
   2  -2  -6  208.98   26.90
   2  -2  -6  196.48   25.00
  -2   2   6  162.18   24.70
  -2   2   6  221.38   21.10
  -2   2   6  183.28   28.50
   1  -2  -6  401.86   27.20
   1  -2  -6  382.76   30.90
   1  -2  -6  401.36   26.40
  -1   2   6  397.96   29.70
  -1   2   6  456.15   27.00
  -1   2   6  339.27   28.70
  -1   2   6  335.37   30.40
   0  -2  -6   -8.60    7.70
   0  -2  -6    9.30    6.90
   0   2   6   12.70    9.30
   0   2   6   17.80   10.10
   0   2   6    2.00    7.00
  -1  -2  -6  156.38    9.00
  -1  -2  -6  153.98   21.40
  -1  -2  -6  159.58   11.70
  -1  -2  -6  153.68   23.40
   1   2   6  139.99   22.10
   1   2   6  167.68   22.10
   1   2   6  161.48   17.70
  -2  -2  -6  108.09   18.70
  -2  -2  -6  142.09   22.10
  -2  -2  -6  120.19   21.90
  -2  -2  -6  158.68   20.30
   2   2   6  159.68   24.20
   2   2   6  191.38   20.10
   2   2   6  135.39   20.00
  -3  -2  -6   76.49   18.60
  -3  -2  -6   98.29   20.30
  -3  -2  -6   95.29   17.50
  -3  -2  -6   99.09   15.40
   3   2   6   91.89   15.30
  -4  -2  -6  231.58   31.70
  -4  -2  -6  224.28   32.50
  -4  -2  -6  233.98   19.20
  -4  -2  -6  224.98   30.50
   4   2   6  220.68   30.70
   4   2   6  210.68   10.70
   4   2   6  246.08   14.70
   4   2   6  251.47   33.30
  -5  -2  -6  982.20   59.89
  -5  -2  -6 1000.40   42.10
  -5  -2  -6  943.61   58.59
  -5  -2  -6 1091.49   61.99
   5   2   6  949.80   62.49
   5   2   6 1073.49   40.20
   5   2   6  992.20   57.59
  -6  -2  -6   15.40   14.80
  -6  -2  -6  -23.20   15.20
  -6  -2  -6    4.90   14.80
   6   2   6   -4.20   12.00
   6   2   6   21.10   14.10
   6   2   6    1.20    8.40
  -7  -2  -6  121.79   32.20
  -7  -2  -6  141.19   32.60
   7   2   6  177.58   39.80
   7   2   6  110.59   20.90
   7   2   6  137.59   31.30
  -8  -2  -6   21.90   32.10
  -8  -2  -6   -3.60   26.30
   8   2   6   30.40   32.50
   8   2   6   39.00   27.90
   6  -3  -6   27.40   29.20
   6  -3  -6   42.20   22.30
   6  -3  -6   28.50   20.80
  -6   3   6   31.70   20.60
  -6   3   6   57.79   20.10
   5  -3  -6 1402.46   65.59
   5  -3  -6 1316.97   77.29
   5  -3  -6 1225.18   66.49
  -5   3   6 1315.37   60.59
  -5   3   6 1384.76   80.79
  -5   3   6 1329.47   69.99
   4  -3  -6   16.80   15.30
   4  -3  -6   11.60   11.80
   4  -3  -6   23.10   14.80
  -4   3   6   11.10   18.70
  -4   3   6    7.20    9.40
  -4   3   6   10.40   10.00
  -4   3   6    0.30    8.60
   3  -3  -6  344.57   32.70
   3  -3  -6  259.87   32.60
   3  -3  -6  313.47   25.80
  -3   3   6  312.57   21.20
  -3   3   6  312.77   33.20
  -3   3   6  312.37   26.00
   2  -3  -6   17.90   12.10
   2  -3  -6   31.00    9.90
   2  -3  -6   32.30   12.10
  -2   3   6   25.60    5.10
  -2   3   6   15.70   14.40
  -2   3   6   34.60   14.30
  -2   3   6   22.30   11.10
   1  -3  -6  284.37   27.80
   1  -3  -6  251.77   18.50
   1  -3  -6  263.57   22.60
  -1   3   6  263.47   28.50
  -1   3   6  286.07   19.80
  -1   3   6  285.37   29.10
   0  -3  -6    9.50    6.10
   0  -3  -6   13.20    8.80
   0   3   6   19.80   11.80
   0   3   6   10.40   11.10
  -1  -3  -6  382.26   28.90
  -1  -3  -6  460.55   15.70
  -1  -3  -6  425.06   34.60
   1   3   6  462.65   25.30
   1   3   6  443.46   32.20
   1   3   6  440.06   32.50
  -2  -3  -6   57.49   12.00
  -2  -3  -6   51.59   15.90
  -2  -3  -6   38.50   11.70
   2   3   6   43.90   11.40
   2   3   6   42.30   12.10
   2   3   6   44.20   14.10
  -3  -3  -6  579.84   39.50
  -3  -3  -6  537.35   30.40
  -3  -3  -6  549.95   35.70
  -3  -3  -6  568.34   40.70
   3   3   6  539.55   29.70
   3   3   6  508.05   38.20
   3   3   6  534.75   31.50
  -4  -3  -6   46.00   11.10
  -4  -3  -6   66.89   20.80
  -4  -3  -6   69.19   17.40
  -4  -3  -6   73.49   18.90
   4   3   6   73.29   13.20
   4   3   6   76.69    4.80
   4   3   6   59.79   17.10
   4   3   6   86.09   20.30
   4   3   6   65.89    4.40
   4   3   6   78.19   13.40
  -5  -3  -6  180.48   31.50
  -5  -3  -6   71.59   21.70
  -5  -3  -6  105.19   28.30
   5   3   6  102.79   26.50
   5   3   6  111.29   23.90
  -6  -3  -6  -46.60   15.10
  -6  -3  -6  -11.00   15.90
  -6  -3  -6  -15.10   17.80
   6   3   6   20.60   13.60
   6   3   6    5.30   15.80
   6   3   6  -13.80    8.30
  -7  -3  -6   13.50   20.60
  -7  -3  -6   29.30   22.40
   7   3   6    6.50   24.50
   7   3   6    0.30   12.40
   7   3   6    9.00   20.20
   6  -4  -6  127.29   33.90
   6  -4  -6  104.69   29.80
  -6   4   6   38.40   25.40
  -6   4   6   93.89   25.70
  -6   4   6   70.69   26.10
   5  -4  -6   34.90   23.10
   5  -4  -6    3.00   17.10
   5  -4  -6   -9.50   12.80
  -5   4   6   29.00   25.30
  -5   4   6   18.50   18.20
  -5   4   6  -12.40   13.00
   4  -4  -6   11.20   18.70
   4  -4  -6   49.20   14.70
   4  -4  -6   35.60   14.60
  -4   4   6   43.30   14.10
  -4   4   6    0.40   17.40
  -4   4   6   -4.30   15.00
  -4   4   6   36.00   13.70
   3  -4  -6   14.70    8.30
   3  -4  -6   -9.00   12.40
   3  -4  -6   -0.40   11.50
  -3   4   6   18.80   13.90
  -3   4   6   -1.60    9.40
  -3   4   6   14.40   16.20
   2  -4  -6  265.47   17.10
   2  -4  -6  227.58   32.00
   2  -4  -6  265.37   27.20
  -2   4   6  224.18   29.70
  -2   4   6  216.28   31.60
  -2   4   6  265.67   27.50
   1  -4  -6  445.26   34.70
   1  -4  -6  400.66   28.50
  -1   4   6  369.76   33.50
  -1   4   6  418.36   35.80
  -1   4   6  431.36   34.90
  -1   4   6  415.96   15.70
   0  -4  -6  620.44   39.20
   0  -4  -6  637.54   30.60
   0   4   6  615.74   20.60
   0   4   6  659.23   43.20
   0   4   6  632.74   22.30
   0   4   6  744.23   43.20
  -1  -4  -6   28.00    6.90
  -1  -4  -6   18.20   15.40
  -1  -4  -6   32.30   11.50
   1   4   6   39.10    8.30
   1   4   6    8.60   10.90
   1   4   6   41.80   13.90
  -2  -4  -6  353.16   28.10
  -2  -4  -6  357.26   33.50
   2   4   6  363.76   32.80
   2   4   6  378.66   29.90
  -3  -4  -6  455.05   34.20
  -3  -4  -6  432.86   29.10
  -3  -4  -6  381.66   38.10
   3   4   6  385.76    8.40
   3   4   6  445.06   37.40
   3   4   6  485.45   32.00
   3   4   6  491.25   31.40
  -4  -4  -6   29.10   18.40
  -4  -4  -6   25.60   15.20
   4   4   6   31.60    6.20
   4   4   6   33.10   11.40
   4   4   6   76.59   23.30
   4   4   6   56.89    7.30
   4   4   6   20.60    9.90
   4   4   6   30.40   15.80
  -5  -4  -6  362.66   45.40
  -5  -4  -6  274.07   37.40
  -5  -4  -6  248.58   39.60
   5   4   6  304.47   19.70
   5   4   6  287.87   19.70
   5   4   6  319.57   43.60
   5   4   6  260.57   25.60
   5   4   6  249.88   35.10
   5   4   6  300.47   21.70
  -6  -4  -6    4.50   15.90
  -6  -4  -6  -14.50   15.60
  -6  -4  -6    3.40   15.00
   6   4   6   -5.70   15.60
   6   4   6  -14.40    9.00
   6   4   6    4.00   20.90
  -7  -4  -6  153.68   39.70
  -7  -4  -6  262.37   50.69
   7   4   6  203.28   43.10
   7   4   6  160.28   33.10
   7   4   6  182.78   24.30
   7   4   6  199.28   37.70
   6  -5  -6   39.80   33.00
   6  -5  -6   74.89   28.90
   6  -5  -6   12.10   17.90
  -6   5   6   34.20   32.80
  -6   5   6   50.99   27.70
  -6   5   6   -3.30   24.30
   5  -5  -6   34.10   21.70
   5  -5  -6   50.89   26.50
   5  -5  -6   12.70   13.40
  -5   5   6  -27.90   23.80
  -5   5   6   42.80   24.40
   4  -5  -6   21.70   10.90
   4  -5  -6   19.80   15.60
  -4   5   6   33.20   20.10
  -4   5   6   -0.80   19.30
  -4   5   6   33.40   17.50
   3  -5  -6   16.30    6.70
   3  -5  -6   33.60   16.80
   3  -5  -6   60.09   19.10
  -3   5   6   10.40   14.50
  -3   5   6   31.70   16.90
  -3   5   6   45.10   20.40
   2  -5  -6  170.38   28.00
   2  -5  -6  229.38   30.80
  -2   5   6  183.28   30.10
  -2   5   6  219.28   38.30
  -2   5   6  195.98   29.30
   1  -5  -6  357.16   30.00
  -1   5   6  408.86   31.50
  -1   5   6  397.66   35.40
  -1   5   6  379.16   36.10
  -1   5   6  360.46   33.10
   0  -5  -6   64.89   21.90
   0  -5  -6   48.80   16.80
   0  -5  -6   56.49   13.50
   0   5   6   67.49   19.90
   0   5   6   31.10   16.10
   0   5   6   62.29   12.00
   0   5   6   73.19   14.40
  -1  -5  -6 1353.96   67.89
  -1  -5  -6 1439.36   46.30
  -1  -5  -6 1337.17   60.09
   1   5   6 1374.06   33.00
   1   5   6 1378.46   64.29
   1   5   6 1370.06   45.70
   1   5   6 1376.96   32.80
   1   5   6 1340.97   66.29
   1   5   6 1416.96   50.99
   1   5   6 1317.37   60.99
  -2  -5  -6  413.76   39.80
  -2  -5  -6  449.36   34.00
   2   5   6  460.65   32.60
   2   5   6  438.06   22.30
   2   5   6  461.35   39.30
   2   5   6  443.26   34.70
   2   5   6  455.85   75.49
  -3  -5  -6  109.49   26.00
   3   5   6  150.28   23.40
   3   5   6  148.29   26.10
   3   5   6  150.68   13.30
   3   5   6  128.29   23.60
   3   5   6  149.39   28.20
  -4  -5  -6   -1.30    9.70
   4   5   6   -6.10    9.20
   4   5   6   13.50   12.90
   4   5   6    8.00   11.10
   4   5   6   -7.00   10.60
   4   5   6   -4.40   13.80
   4   5   6   -3.50    5.20
  -5  -5  -6   44.40   23.20
  -5  -5  -6   24.10   21.40
   5   5   6   25.00   18.10
   5   5   6   33.30   10.50
   5   5   6    4.90   16.50
   5   5   6   26.40   11.60
   5   5   6   30.00   16.00
  -6  -5  -6  -45.10   20.50
  -6  -5  -6   -6.30   12.30
   6   5   6   25.40   12.00
   6   5   6   27.90   20.80
   6   5   6    3.80   11.00
   6   5   6   -6.70    5.50
   6   5   6   17.80   18.00
   6   5   6    4.10   18.80
  -7  -5  -6  -11.40   26.00
   7   5   6   14.70   20.30
   7   5   6   73.09   33.70
   7   5   6    5.00   15.20
   7   5   6   23.70   26.70
   7   5   6   52.29   18.50
   7   5   6   86.19   31.40
   5  -6  -6    7.00   31.20
   5  -6  -6    7.60   11.70
  -5   6   6  -18.70   21.40
  -5   6   6   22.30   29.70
   4  -6  -6  212.38   38.30
   4  -6  -6  207.38   39.10
  -4   6   6  214.98   36.70
  -4   6   6  237.58   39.50
   3  -6  -6   -7.80   16.00
   3  -6  -6  -23.20   14.70
  -3   6   6   21.50   17.40
  -3   6   6    4.40   19.00
  -3   6   6    1.80   12.20
   2  -6  -6  206.28   31.60
  -2   6   6  217.08   34.20
  -2   6   6  295.97   38.00
  -2   6   6  224.48   31.90
  -2   6   6  216.18   34.00
   1  -6  -6  277.77   30.20
  -1   6   6  276.67   38.00
  -1   6   6  321.27   33.20
  -1   6   6  208.68   29.30
  -1   6   6  282.67   35.50
   0  -6  -6 1076.49   59.39
   0  -6  -6 1084.09   50.19
   0  -6  -6 1027.00   60.69
   0   6   6 1058.29   62.39
   0   6   6  878.91   87.49
   0   6   6 1115.49   51.09
   0   6   6 1128.59   49.00
  -1  -6  -6   19.40   18.10
  -1  -6  -6   22.80   11.30
   1   6   6   21.00   12.00
   1   6   6  -10.20   13.70
   1   6   6   10.20    9.10
   1   6   6   33.20   14.20
   1   6   6   13.50   16.90
  -2  -6  -6  259.27   45.60
   2   6   6  261.47   28.70
   2   6   6  320.07   33.50
   2   6   6  308.17   23.80
   2   6   6  232.68   33.10
   2   6   6  268.67   35.50
  -3  -6  -6   13.30   18.30
   3   6   6   37.50   11.00
   3   6   6    6.30   12.90
   3   6   6   40.50   17.40
   3   6   6   29.40   14.00
   3   6   6   47.50   18.50
   3   6   6   26.30   12.30
   3   6   6    7.90   13.80
   3   6   6   15.80   17.80
  -4  -6  -6   -4.20   16.60
   4   6   6   -7.30   15.70
   4   6   6   12.10    9.10
   4   6   6   -3.90   14.40
   4   6   6  -13.30   15.10
   4   6   6   10.20   12.00
   4   6   6   14.70   19.30
   4   6   6  -16.70   10.90
  -5  -6  -6   24.50   23.50
   5   6   6    9.60   20.80
   5   6   6  -19.20   10.90
   5   6   6   -1.90   15.30
   5   6   6    2.20   17.50
   5   6   6    5.30   29.40
   5   6   6  -11.40   18.90
   5   6   6   13.30   10.40
  -6  -6  -6  155.98   39.60
   6   6   6  145.49   38.30
   6   6   6  132.49   30.20
   6   6   6  199.78   41.50
   6   6   6  170.38   24.30
   6   6   6  211.58   38.10
   6   6   6  143.39   18.10
   4  -7  -6  122.89   36.40
  -4   7   6  121.89   31.80
  -4   7   6  105.59   32.80
   3  -7  -6   33.90   24.10
  -3   7   6    5.60   21.90
  -3   7   6    6.00   20.80
  -3   7   6    8.70   18.40
   2  -7  -6  264.77   38.50
  -2   7   6  254.77   36.80
  -2   7   6  285.17   42.20
  -2   7   6  225.08   36.80
   1  -7  -6   66.29   24.80
  -1   7   6   14.70   15.00
  -1   7   6   54.59   20.80
  -1   7   6   72.39   21.00
   0  -7  -6   14.80   13.80
   0  -7  -6  -17.90   14.30
   0   7   6   -1.10   14.80
   0   7   6   16.40   13.70
   0   7   6   22.40   18.40
   0   7   6    8.00   14.30
  -1  -7  -6  149.88   24.30
  -1  -7  -6  165.38   32.90
   1   7   6  143.69   26.80
   1   7   6  134.19   23.00
   1   7   6  143.09   29.70
   1   7   6  174.28   33.10
  -2  -7  -6  252.57   38.80
   2   7   6  239.98   35.60
   2   7   6  278.97   37.50
   2   7   6  262.37   17.80
   2   7   6  303.87   42.50
   2   7   6  240.08   26.40
   2   7   6  251.27   37.30
  -3  -7  -6   15.90   14.90
   3   7   6    3.20   10.60
   3   7   6   28.80   19.40
   3   7   6   21.50   16.90
   3   7   6   13.00   20.40
   3   7   6    2.20   13.10
   3   7   6    9.40   10.30
   3   7   6   27.50   20.30
  -4  -7  -6   -0.90   13.20
   4   7   6    4.50   16.00
   4   7   6   24.40   22.10
   4   7   6   -1.70   11.70
   4   7   6    2.60   13.70
   4   7   6  -14.10   17.20
   4   7   6  -33.60   17.30
   4   7   6  -31.90   16.80
   4   7   6  -16.60   17.10
  -5  -7  -6  -36.10   16.80
   5   7   6   -1.80   13.70
   5   7   6   13.90   16.10
   5   7   6   27.00   31.10
   5   7   6   24.70   20.40
   5   7   6   22.80   22.80
   5   7   6   -6.30   16.80
   5   7   6  -11.20   22.10
   3  -8  -6  209.88   40.20
  -3   8   6  233.88   37.70
  -3   8   6  216.38   40.40
   2  -8  -6   41.80   24.00
   2  -8  -6   11.90   21.40
  -2   8   6   12.40   23.10
  -2   8   6    5.60   19.90
  -2   8   6   15.60   27.40
  -2   8   6   -9.70   21.40
   1  -8  -6   96.49   33.90
   1  -8  -6   97.79   29.00
  -1   8   6   56.89   26.70
  -1   8   6   65.19   21.80
  -1   8   6   87.49   25.90
  -1   8   6   53.39   30.30
   0  -8  -6   21.10   19.20
   0  -8  -6   25.20   21.80
   0   8   6    4.00   21.20
   0   8   6  -13.10   25.40
   0   8   6   10.90   18.90
   0   8   6   10.00   16.70
  -1  -8  -6   29.20   20.40
   1   8   6   -5.40   25.10
   1   8   6   21.00   20.40
   1   8   6   24.90   19.80
   1   8   6   21.50   15.40
   1   8   6    3.60   19.00
   1   8   6   -0.80   18.40
  -2  -8  -6   28.20   17.20
   2   8   6   -9.90   15.50
   2   8   6    7.50    3.70
   2   8   6    7.60   14.60
   2   8   6   -3.60   18.80
   2   8   6   42.00   28.40
   2   8   6    0.40   20.40
   2   8   6    6.20   20.60
   2   8   6  -23.30   23.40
  -3  -8  -6  -17.60   18.10
   3   8   6   26.40   16.30
   3   8   6   21.00   31.80
   3   8   6    2.50   13.30
   3   8   6   -4.20   20.10
   3   8   6   33.10   20.30
   3   8   6    7.60   17.50
   3   8   6   11.00   21.20
   3   8   6    4.80   24.80
  -4  -8  -6    3.60   19.40
   4   8   6   10.10   34.20
   4   8   6  -22.00   26.50
   4   8   6    9.40   43.90
   4   8   6   -4.10   16.70
   4   8   6  -17.80   20.00
   4   8   6   29.20   23.20
   4   8   6  -14.20   19.20
   4   8   6   14.40   17.90
   1  -9  -6  179.08   38.80
   1  -9  -6   90.19   34.50
  -1   9   6  131.09   37.40
  -1   9   6  151.48   35.20
  -1   9   6   88.29   27.90
   0  -9  -6   29.30   23.80
   0  -9  -6   28.90   24.80
   0   9   6   73.29   30.00
   0   9   6   87.09   22.70
   0   9   6   28.50   39.60
   0   9   6   36.30   24.40
   0   9   6   28.50   35.20
  -1  -9  -6   40.80   22.50
   1   9   6   69.79   25.20
   1   9   6   52.79   38.30
   1   9   6   -4.70   19.50
   1   9   6   42.90   33.30
   1   9   6   69.89   28.80
   1   9   6   49.00   29.20
   1   9   6   69.19   21.90
  -2  -9  -6  136.49   33.20
   2   9   6  136.29   34.40
   2   9   6  148.99   35.60
   2   9   6   79.49   34.20
   2   9   6   98.69   25.50
   0   6  -7    5.40   27.70
   0   6  -7  -14.60   27.00
   0  -6   7   16.00   34.20
  -1   6  -7  -14.90   34.60
  -1   6  -7   49.20   25.90
  -1   6  -7   12.40   22.50
   1  -6   7  -15.00   28.40
  -2   6  -7  222.08   39.00
  -2   6  -7  191.98   44.40
   2  -6   7  189.18   46.80
   2   5  -7  -28.50   26.70
   2   5  -7   17.60   26.90
   2   5  -7   -1.70   26.00
   2   5  -7   13.00   28.40
  -2  -5   7    2.40   17.90
  -2  -5   7    9.50   23.70
  -2  -5   7   -3.60   15.20
  -2  -5   7    6.80   22.50
   1   5  -7   39.50   27.80
   1   5  -7   72.19   17.60
   1   5  -7   57.49   31.50
  -1  -5   7   33.60   23.70
  -1  -5   7   89.99   18.60
   0   5  -7   49.20   20.30
   0   5  -7   54.19   27.90
   0   5  -7   36.30   27.00
   0  -5   7   68.29   15.60
   0  -5   7   91.39   27.80
   0  -5   7   52.19   30.10
  -1   5  -7    5.90   17.40
  -1   5  -7    7.90   21.90
  -1   5  -7   42.60   26.50
   1  -5   7   14.40   11.90
   1  -5   7   12.50   10.10
   1  -5   7  -33.80   24.00
  -2   5  -7   93.89   28.70
  -2   5  -7  179.28   37.50
   2  -5   7   76.09   30.50
   2  -5   7  106.89   17.60
  -3   5  -7  216.58   36.80
  -3   5  -7  272.57   44.30
   3  -5   7  276.37   56.49
   3  -5   7  248.58   27.30
  -4   5  -7   -4.20   24.40
  -4   5  -7   -8.20   26.70
   4  -5   7    5.00   16.10
   4  -5   7   29.20   25.30
   4  -5   7   -0.10   29.00
   4   4  -7   65.69   36.30
   4   4  -7   25.70   32.70
   4   4  -7  -27.70   28.20
  -4  -4   7   30.30   31.70
  -4  -4   7   40.20   43.00
   3   4  -7   -7.50   19.60
   3   4  -7   40.40   26.70
   3   4  -7   10.20   23.50
   3   4  -7   19.90   24.30
  -3  -4   7  -29.20   22.20
  -3  -4   7    5.10   20.00
  -3  -4   7   21.90   24.60
  -3  -4   7    2.10   18.90
   2   4  -7   27.70   22.40
   2   4  -7   22.90   22.00
   2   4  -7  -24.20   13.70
  -2  -4   7   27.10   20.20
  -2  -4   7   -3.30   13.80
  -2  -4   7  -17.60   16.50
   1   4  -7  160.28   33.70
   1   4  -7  105.99   30.30
   1   4  -7  114.99   27.60
   1   4  -7  121.89   19.30
  -1  -4   7  103.79   21.90
  -1  -4   7   54.39   20.90
  -1  -4   7  122.79   26.70
   0   4  -7   95.89   26.70
   0   4  -7   67.09   23.90
   0   4  -7   91.79   21.00
   0  -4   7   97.49   20.20
   0  -4   7   64.09   25.70
  -1   4  -7  469.05   44.50
  -1   4  -7  378.96   48.10
  -1   4  -7  341.67   34.90
   1  -4   7  461.45   35.00
   1  -4   7  315.67   33.30
   1  -4   7  350.56   47.30
   1  -4   7  402.96   37.20
  -2   4  -7  124.09   29.10
  -2   4  -7  154.28   29.10
   2  -4   7  142.59   22.20
   2  -4   7  156.68   29.40
   2  -4   7  149.59   33.80
  -3   4  -7    2.30   17.40
  -3   4  -7  -37.10   18.10
   3  -4   7  -15.70   17.40
   3  -4   7   13.10   14.50
   3  -4   7    0.90   23.10
  -4   4  -7   18.10   20.40
  -4   4  -7    9.40   17.10
   4  -4   7   52.49   23.00
   4  -4   7  -43.00   22.20
   4  -4   7  -13.30   13.20
   4  -4   7   18.90   17.80
  -5   4  -7  164.18   41.30
  -5   4  -7  158.48   32.70
   5  -4   7  170.58   36.80
   5  -4   7  183.58   34.50
   5  -4   7  203.68   35.80
   4   3  -7   20.40   18.60
   4   3  -7   -9.80   22.70
   4   3  -7  -18.20   35.10
  -4  -3   7   51.99   30.30
  -4  -3   7  -12.20   18.30
  -4  -3   7  -10.30   15.20
   3   3  -7   25.40   20.20
   3   3  -7   27.40   20.10
   3   3  -7   37.50   20.00
  -3  -3   7    6.70   20.30
  -3  -3   7   39.20   19.90
  -3  -3   7   15.60   21.80
   2   3  -7  122.09   28.80
   2   3  -7  157.58   32.90
   2   3  -7  143.49   33.50
   2   3  -7  117.69   27.80
  -2  -3   7  126.89   25.00
  -2  -3   7  116.69   25.00
   1   3  -7  111.09   18.00
   1   3  -7   84.59   23.50
   1   3  -7  114.29   27.30
   1   3  -7  133.49   29.00
  -1  -3   7  125.29   30.90
  -1  -3   7  123.49   23.60
  -1  -3   7  104.19   17.80
   0   3  -7 1672.23   81.59
   0   3  -7 1774.32   78.39
   0   3  -7 1639.24   62.59
   0  -3   7 1657.23   65.19
   0  -3   7 1588.94   63.99
   0  -3   7 1675.73   70.79
  -1   3  -7  146.19   26.30
  -1   3  -7  127.59   28.00
  -1   3  -7  128.89   24.90
  -1   3  -7  167.88   15.90
  -1   3  -7  177.68   32.60
   1  -3   7  161.18   24.00
   1  -3   7  167.78   26.90
  -2   3  -7 1757.42   92.19
  -2   3  -7 1679.33   73.49
  -2   3  -7 1641.84   78.39
   2  -3   7 1626.94   74.89
   2  -3   7 1650.73   60.09
  -3   3  -7   27.70   15.20
  -3   3  -7  -10.90    9.60
   3  -3   7   -8.20   15.40
   3  -3   7   -5.10   12.20
  -4   3  -7  328.37   45.20
  -4   3  -7  284.07   37.10
   4  -3   7  283.07   36.20
   4  -3   7  303.37   46.90
   4  -3   7  338.37   40.20
   4  -3   7  428.76   46.10
  -5   3  -7   23.70   20.20
  -5   3  -7  -22.80   17.50
  -5   3  -7   -1.90   17.50
   5  -3   7    2.30   18.60
   5  -3   7    0.80   22.10
   5  -3   7  -23.40   16.60
   5  -3   7  -21.00   21.40
  -6   3  -7  -22.10   20.20
  -6   3  -7  -18.60   22.00
  -6   3  -7   48.50   22.60
   6  -3   7   58.99   22.10
   6  -3   7   32.20   32.50
   6  -3   7   17.40   22.10
   6  -3   7  -46.00   28.40
   5   2  -7   20.50   21.90
   5   2  -7   -2.70   26.70
  -5  -2   7   -1.20   18.70
  -5  -2   7   -3.70   10.20
  -5  -2   7  -15.60   28.00
   4   2  -7  235.08   38.90
   4   2  -7  267.07   42.50
   4   2  -7  347.47   44.80
  -4  -2   7  323.57   46.50
  -4  -2   7  251.67   41.30
   3   2  -7   13.10   16.80
   3   2  -7   -3.00   18.10
   3   2  -7   -6.40   17.20
  -3  -2   7    6.40   19.00
  -3  -2   7   10.80   17.10
  -3  -2   7   15.10    6.80
  -3  -2   7    1.20   17.60
   2   2  -7  -10.80   15.20
   2   2  -7    6.90   12.80
   2   2  -7   14.60   13.20
  -2  -2   7   -0.70    7.90
  -2  -2   7  -23.00   12.20
  -2  -2   7   16.00   15.20
  -2  -2   7   16.30   13.50
   1   2  -7  300.67   24.70
   1   2  -7  272.97   34.60
   1   2  -7  331.47   69.49
   1   2  -7  243.98   34.50
  -1  -2   7  327.77   33.60
  -1  -2   7  262.17   24.60
  -1  -2   7  319.87   34.60
  -1  -2   7  269.57   29.20
   0   2  -7  754.62   40.80
   0   2  -7  717.93   52.99
   0   2  -7  699.43   45.40
   0   2  -7  764.82   49.80
   0  -2   7  738.03   43.20
   0  -2   7  698.43   44.30
   0  -2   7  728.93   43.60
   0  -2   7  734.93   50.69
  -1   2  -7  395.96   33.10
  -1   2  -7  351.36   38.00
  -1   2  -7  382.16   32.50
   1  -2   7  325.97   33.00
   1  -2   7  332.77   35.10
   1  -2   7  327.77   27.90
  -2   2  -7  706.63   31.40
  -2   2  -7  740.83   47.60
  -2   2  -7  835.42   46.50
  -2   2  -7  799.12   51.99
   2  -2   7  802.22   50.99
   2  -2   7  735.93   35.30
   2  -2   7  781.12   53.59
  -3   2  -7    5.90   11.40
  -3   2  -7   29.60   10.40
  -3   2  -7   36.00   15.40
  -3   2  -7    3.30   14.30
   3  -2   7   43.40   16.00
   3  -2   7   25.70   15.10
  -4   2  -7  185.38   29.40
  -4   2  -7  121.49   25.50
  -4   2  -7  166.08   26.60
   4  -2   7  102.99   24.60
   4  -2   7  179.98   33.30
   4  -2   7  168.48   26.00
  -5   2  -7   39.00   21.80
  -5   2  -7   56.99   20.40
  -5   2  -7   36.30   17.20
   5  -2   7   -6.90   25.60
   5  -2   7   13.40   16.50
   5  -2   7   48.90   21.00
   5  -2   7    8.90   21.90
  -6   2  -7   23.60   25.00
  -6   2  -7   26.40   16.80
  -6   2  -7   32.40   18.70
   6  -2   7   38.20   28.20
   6  -2   7    7.90   26.30
   6  -2   7   36.00   21.20
   6  -2   7   42.90   23.00
  -7   2  -7   35.50   29.80
  -7   2  -7   44.40   19.30
   7  -2   7   -3.60   30.30
   7  -2   7    9.60   23.20
   7  -2   7   69.59   30.30
   7  -2   7   24.10   43.00
   5   1  -7   16.70   24.60
   5   1  -7  -19.50   18.50
  -5  -1   7   26.60   29.70
  -5  -1   7   14.40    7.90
   4   1  -7    3.90   14.10
   4   1  -7    5.80   13.60
   4   1  -7    8.60   15.70
  -4  -1   7    4.10    6.30
  -4  -1   7   -6.50   18.20
   3   1  -7   24.40   20.40
   3   1  -7   48.40   17.80
   3   1  -7   31.40   15.20
  -3  -1   7   55.69   20.80
  -3  -1   7   87.79   24.90
  -3  -1   7   60.39   12.40
   2   1  -7  197.38   32.00
   2   1  -7  154.68   28.00
   2   1  -7  203.98   27.30
  -2  -1   7  209.98   32.30
  -2  -1   7  218.58   32.10
  -2  -1   7  202.68   20.30
   1   1  -7  575.44   44.40
   1   1  -7  620.94   45.50
  -1  -1   7  607.74   35.30
  -1  -1   7  556.34   40.70
  -1  -1   7  492.75   42.40
   0   1  -7  248.38   31.70
   0   1  -7  308.17   26.20
   0   1  -7  206.58   30.80
   0   1  -7  277.87   26.90
   0  -1   7  259.67   33.40
   0  -1   7  234.18   25.30
  -1   1  -7   48.70   14.00
  -1   1  -7   55.39   16.70
  -1   1  -7   46.70   13.30
  -1   1  -7   47.20   16.20
   1  -1   7   42.70   17.00
   1  -1   7   39.90   11.10
   1  -1   7   45.00   13.60
  -2   1  -7  268.97   33.40
  -2   1  -7  288.97   23.40
  -2   1  -7  325.67   32.60
  -2   1  -7  329.27   26.20
   2  -1   7  289.67   21.00
   2  -1   7  237.98   32.00
   2  -1   7  287.67   30.50
  -3   1  -7   45.30   13.00
  -3   1  -7   35.80   14.60
  -3   1  -7   71.29   15.10
   3  -1   7   45.40   19.30
   3  -1   7   42.70   17.60
  -4   1  -7   25.50   13.40
  -4   1  -7   30.60   14.80
  -4   1  -7   16.30   13.10
  -4   1  -7   36.20   12.40
   4  -1   7   12.70   14.10
   4  -1   7   14.50   20.10
   4  -1   7    6.10   10.60
   4  -1   7   19.10   16.40
  -5   1  -7   29.80   13.60
  -5   1  -7   51.19   16.90
   5  -1   7   38.30   15.50
   5  -1   7   11.60   14.80
   5  -1   7   43.50   18.40
  -6   1  -7  194.38   25.00
  -6   1  -7  177.88   39.50
   6  -1   7  155.48   25.40
   6  -1   7  193.88   37.60
   6  -1   7  232.28   41.50
   6  -1   7  142.99   35.10
  -7   1  -7   20.70   13.20
  -7   1  -7   68.39   30.70
   7  -1   7   17.40   30.00
   7  -1   7   32.50   21.30
   7  -1   7  -23.50   25.60
   7  -1   7   52.79   31.80
   6   0  -7  119.69   31.50
   6   0  -7  157.38   41.90
  -6   0   7  166.68   20.90
  -6   0   7  134.59   42.80
  -6   0   7  144.89   17.80
   5   0  -7   13.90   18.50
   5   0  -7   22.30   20.20
  -5   0   7   17.40   18.60
  -5   0   7  -13.40    8.80
   4   0  -7  434.96   41.90
   4   0  -7  461.15   43.10
  -4   0   7  527.75   45.40
  -4   0   7  470.15   29.50
   3   0  -7  388.66   37.40
   3   0  -7  354.26   35.80
  -3   0   7  402.46   40.30
  -3   0   7  310.87   39.90
  -3   0   7  344.37   26.60
   2   0  -7  -11.40   11.60
   2   0  -7   24.20   14.70
   2   0  -7   -8.80    8.20
  -2   0   7   -4.90   12.00
  -2   0   7   21.10   10.10
  -2   0   7    0.00   11.30
   1   0  -7  177.58   17.70
   1   0  -7  119.59   23.70
   1   0  -7  189.98   27.30
  -1   0   7  164.78   26.20
  -1   0   7  125.79   23.40
  -1   0   7  142.69   22.00
   0   0  -7   -0.40    8.40
   0   0  -7   -0.20    9.20
   0   0  -7   11.40   12.40
   0   0   7    1.50    7.70
   0   0   7    8.50    9.60
  -1   0  -7   72.99   18.10
  -1   0  -7   82.49   14.10
  -1   0  -7   82.89   18.20
  -1   0  -7   69.69   17.60
   1   0   7   56.39   18.20
   1   0   7   83.39   18.60
  -2   0  -7   13.00   10.40
  -2   0  -7   -4.90    6.40
  -2   0  -7   -4.20    5.50
  -2   0  -7  -19.20    6.90
   2   0   7    5.80    9.00
   2   0   7    2.40    7.10
  -3   0  -7  671.43   33.90
  -3   0  -7  540.55   36.30
  -3   0  -7  594.94   36.70
  -3   0  -7  519.05   41.10
   3   0   7  620.44   45.20
   3   0   7  558.74   16.00
   3   0   7  556.44   42.20
  -4   0  -7  217.18   29.00
  -4   0  -7  238.58   20.60
  -4   0  -7  239.98   27.90
  -4   0  -7  235.78   35.00
   4   0   7  235.28   34.00
   4   0   7  232.68   19.80
   4   0   7  166.08   33.90
   4   0   7  205.98   31.10
  -5   0  -7 1091.59   47.60
  -5   0  -7 1105.59   58.09
   5   0   7 1126.69   69.39
   5   0   7 1109.29   69.19
   5   0   7 1171.08   67.59
   5   0   7 1152.08   46.60
  -6   0  -7   48.60   20.80
  -6   0  -7   60.29   13.80
   6   0   7   74.99   16.40
   6   0   7   34.20   20.50
   6   0   7   44.30   24.30
  -7   0  -7   63.69   16.20
   7   0   7   88.19   28.80
   7   0   7  103.19   21.50
   7   0   7  101.09   31.60
   6  -1  -7  -12.30   21.00
   6  -1  -7   40.70   28.20
   6  -1  -7  -69.59   27.30
  -6   1   7    3.50   13.80
  -6   1   7   29.90   33.10
  -6   1   7   -8.40   16.00
   5  -1  -7   48.00   23.80
   5  -1  -7   51.19   23.30
  -5   1   7   10.40   17.80
  -5   1   7   21.90   20.00
  -5   1   7   24.30   15.40
   4  -1  -7  111.39   25.70
   4  -1  -7   81.19   22.60
  -4   1   7   89.99   24.70
  -4   1   7   66.19   16.80
   3  -1  -7  288.67   31.40
   3  -1  -7  231.48   33.60
  -3   1   7  249.88   31.30
  -3   1   7  242.88   34.40
  -3   1   7  217.68   26.70
  -3   1   7  234.08   38.60
   2  -1  -7  261.97   28.80
   2  -1  -7  199.38   29.40
  -2   1   7  281.27   25.70
  -2   1   7  213.58   30.70
  -2   1   7  272.27   29.50
  -2   1   7  263.67   36.00
   1  -1  -7  614.64   22.10
   1  -1  -7  608.94   39.20
   1  -1  -7  621.74   42.10
  -1   1   7  598.04   42.40
  -1   1   7  618.44   37.30
  -1   1   7  662.03   39.80
  -1   1   7  611.74   41.70
   0  -1  -7   -2.70    8.00
   0  -1  -7   14.40    9.50
   0   1   7    9.40    8.90
   0   1   7    2.50    7.90
   0   1   7   14.70   11.50
  -1  -1  -7   78.89   17.70
  -1  -1  -7   93.09   12.20
  -1  -1  -7   81.69   17.90
   1   1   7   75.39   17.40
   1   1   7   66.19   17.40
   1   1   7   81.29   17.50
  -2  -1  -7   23.70   11.50
  -2  -1  -7   23.10    9.80
  -2  -1  -7   -2.00    7.70
  -2  -1  -7    7.80    4.20
   2   1   7    3.70    8.20
   2   1   7   17.50   13.00
  -3  -1  -7   25.00   12.30
  -3  -1  -7   14.80   10.00
  -3  -1  -7    7.80   11.30
   3   1   7    6.50    8.70
   3   1   7   16.90   10.30
  -4  -1  -7  361.86   34.10
  -4  -1  -7  374.56   27.50
  -4  -1  -7  425.26   39.20
   4   1   7  404.66   18.60
   4   1   7  435.26   40.40
   4   1   7  423.06   41.70
   4   1   7  326.37   40.50
  -5  -1  -7   24.70   18.20
  -5  -1  -7   16.40    9.90
  -5  -1  -7   -0.90   13.80
   5   1   7    0.20   15.40
   5   1   7   29.70    9.10
   5   1   7   12.90   16.90
  -6  -1  -7  192.48   36.40
  -6  -1  -7  211.88   17.40
  -6  -1  -7  163.48   34.50
   6   1   7  176.48   34.70
   6   1   7  196.68   37.30
   6   1   7  167.88   20.80
  -7  -1  -7   93.79   27.30
  -7  -1  -7   53.99   29.80
   7   1   7  144.09   22.60
   7   1   7  129.19   29.40
   7   1   7  180.18   41.20
   6  -2  -7   16.50   22.70
   6  -2  -7   52.89   26.20
   6  -2  -7    0.00   22.50
  -6   2   7   34.70   22.90
  -6   2   7    9.50   18.60
  -6   2   7   36.50   25.80
   5  -2  -7  182.88   31.00
   5  -2  -7  119.89   33.90
   5  -2  -7  215.38   33.70
  -5   2   7  185.78   38.60
  -5   2   7  222.38   36.90
   4  -2  -7   -4.10   13.50
   4  -2  -7   -9.40   16.10
   4  -2  -7  -10.70   13.50
  -4   2   7    7.20    9.10
  -4   2   7    9.10   13.50
   3  -2  -7 1929.61   72.99
   3  -2  -7 1813.92   77.39
   3  -2  -7 1821.92   78.09
  -3   2   7 1855.51   70.89
  -3   2   7 1819.52   70.79
  -3   2   7 1775.92   78.39
   2  -2  -7   36.10   12.90
   2  -2  -7   50.79   15.70
   2  -2  -7   51.99   15.00
  -2   2   7   55.89   14.70
  -2   2   7   40.00   15.60
  -2   2   7   34.70   13.70
  -2   2   7   54.19   16.50
   1  -2  -7 1563.54   66.59
   1  -2  -7 1572.14   57.99
  -1   2   7 1486.05   66.19
  -1   2   7 1557.04   57.29
  -1   2   7 1549.24   70.69
  -1   2   7 1567.44   62.59
   0  -2  -7  137.29   20.20
   0  -2  -7  146.69   24.20
   0   2   7  128.59   21.60
   0   2   7  124.89   18.40
   0   2   7  132.99   22.40
  -1  -2  -7   46.90    7.40
  -1  -2  -7   53.79    7.70
  -1  -2  -7   62.89   16.90
  -1  -2  -7   63.49   18.40
   1   2   7   52.99   13.20
   1   2   7   62.29   16.40
   1   2   7   64.99   17.00
  -2  -2  -7   31.60    9.70
  -2  -2  -7    3.90    8.10
  -2  -2  -7   27.60   11.00
  -2  -2  -7   28.80   15.00
   2   2   7   14.10    9.60
   2   2   7   39.40   13.00
   2   2   7   23.40   11.20
  -3  -2  -7  750.42   39.60
  -3  -2  -7  766.12   47.40
  -3  -2  -7  794.62   49.10
  -3  -2  -7  750.52   41.10
   3   2   7  769.02   46.20
   3   2   7  827.42   50.19
   3   2   7  782.52   41.30
  -4  -2  -7    3.50   12.70
  -4  -2  -7   43.20   14.80
  -4  -2  -7   19.40   10.30
  -4  -2  -7   26.40   15.70
   4   2   7   14.20    5.30
   4   2   7   41.00   18.30
   4   2   7   34.60   15.60
  -5  -2  -7  792.92   52.29
  -5  -2  -7  600.54   48.20
  -5  -2  -7  710.13   32.00
  -5  -2  -7  730.43   52.69
   5   2   7  694.63   52.79
   5   2   7  644.54   21.90
   5   2   7  697.03   52.59
  -6  -2  -7  -14.90   17.80
  -6  -2  -7   20.20   18.30
  -6  -2  -7  -17.50   18.30
  -6  -2  -7    9.00    5.50
   6   2   7    5.70    8.30
   6   2   7  -12.60   16.90
   6   2   7    9.70   16.00
  -7  -2  -7   17.90   23.70
  -7  -2  -7   35.20   26.40
   7   2   7   52.19   27.00
   7   2   7   22.00   12.50
   7   2   7   12.40   26.90
   6  -3  -7   -7.40   31.70
   6  -3  -7  -35.80   21.10
   6  -3  -7   38.00   23.10
  -6   3   7   -4.00   22.30
  -6   3   7   13.80   20.00
  -6   3   7   25.40   29.60
   5  -3  -7  339.77   36.50
   5  -3  -7  317.17   43.30
   5  -3  -7  345.47   48.70
  -5   3   7  368.06   45.50
  -5   3   7  273.37   47.20
  -5   3   7  257.67   31.70
   4  -3  -7  113.69   25.10
   4  -3  -7   74.09   21.00
   4  -3  -7  151.18   25.30
  -4   3   7  111.09   18.50
  -4   3   7   97.09   29.30
  -4   3   7   76.39   25.00
  -4   3   7   99.09   17.50
   3  -3  -7 1764.82   77.39
   3  -3  -7 1583.04   62.09
   3  -3  -7 1768.92   75.49
  -3   3   7 1716.83   82.59
  -3   3   7 1562.74  121.09
  -3   3   7 1621.24   62.39
   2  -3  -7  274.27   29.00
   2  -3  -7  301.17   25.20
  -2   3   7  266.67   35.60
  -2   3   7  293.07   29.30
  -2   3   7  286.67   23.80
   1  -3  -7 1676.63   54.19
   1  -3  -7 1769.72   59.59
   1  -3  -7 1734.53   70.89
  -1   3   7 1773.32   55.09
  -1   3   7 1659.03   70.89
  -1   3   7 1639.44   67.79
  -1   3   7 1586.74   72.99
   0  -3  -7   64.49   17.30
   0  -3  -7   90.59   12.90
   0   3   7   71.79   13.30
   0   3   7   81.39   17.50
   0   3   7   56.59   16.80
  -1  -3  -7  598.54   39.10
  -1  -3  -7  623.54   19.10
  -1  -3  -7  652.23   43.30
   1   3   7  628.14   33.40
   1   3   7  659.93   42.00
   1   3   7  644.54   41.80
  -2  -3  -7   16.30   11.90
  -2  -3  -7   38.60   13.80
  -2  -3  -7   40.20   15.40
   2   3   7   47.70   13.00
   2   3   7   13.90   11.30
   2   3   7   42.10   16.60
  -3  -3  -7   13.10    9.30
  -3  -3  -7   -3.10   12.00
  -3  -3  -7    2.80   13.60
  -3  -3  -7   -3.60    9.90
   3   3   7    0.70   10.70
   3   3   7   10.20   11.40
   3   3   7    4.80    7.90
  -4  -3  -7   61.99   18.20
  -4  -3  -7   52.49   13.80
  -4  -3  -7   55.99   18.80
  -4  -3  -7   22.00   15.70
   4   3   7   48.80   18.50
   4   3   7   41.00   11.90
   4   3   7   39.60   10.10
  -5  -3  -7   81.19   14.10
  -5  -3  -7  134.39   27.40
  -5  -3  -7   81.89   23.40
  -5  -3  -7  130.59   26.20
   5   3   7   95.99   25.70
   5   3   7  126.49   27.60
  -6  -3  -7   95.89   28.00
  -6  -3  -7  131.59   33.30
   6   3   7  163.98   30.90
   6   3   7   67.29   23.40
  -7  -3  -7  172.38   37.10
  -7  -3  -7  211.68   45.30
   7   3   7  246.78   24.20
   7   3   7  198.68   43.50
   7   3   7  249.88   41.50
   5  -4  -7  -32.50   21.50
   5  -4  -7    7.90   15.40
   5  -4  -7   42.40   20.70
  -5   4   7   -1.10   14.40
  -5   4   7    5.30   19.90
  -5   4   7   11.30   26.30
   4  -4  -7   26.00   19.40
   4  -4  -7   39.40   14.20
  -4   4   7    3.10   12.10
  -4   4   7   21.20   14.90
  -4   4   7   20.10   11.00
  -4   4   7   32.00   24.70
   3  -4  -7   65.99   21.10
   3  -4  -7   91.69   16.10
  -3   4   7   43.40   20.00
  -3   4   7   37.50   16.30
  -3   4   7   63.19   10.40
  -3   4   7   76.39   26.20
   2  -4  -7   37.30   16.90
   2  -4  -7   39.90   15.00
  -2   4   7   43.50   20.60
  -2   4   7   11.40   13.80
  -2   4   7   28.60   20.60
   1  -4  -7  412.86   29.10
  -1   4   7  403.16   20.90
  -1   4   7  416.46   38.10
  -1   4   7  403.16   34.40
  -1   4   7  373.86   36.30
  -1   4   7  409.16   37.20
   0  -4  -7  412.66   25.10
   0  -4  -7  445.26   35.30
   0   4   7  457.85   38.30
   0   4   7  466.05   37.70
   0   4   7  428.16   21.60
  -1  -4  -7  155.08   24.20
  -1  -4  -7  140.49   11.50
  -1  -4  -7  113.69   25.40
   1   4   7   97.79   14.30
   1   4   7  109.39   22.20
   1   4   7  161.48   25.30
  -2  -4  -7   11.90   12.90
  -2  -4  -7    5.00    9.80
   2   4   7    5.50   10.60
   2   4   7    5.10   12.90
   2   4   7   14.50    8.70
  -3  -4  -7  149.99   21.10
  -3  -4  -7  141.29   27.30
  -3  -4  -7  114.89   21.30
   3   4   7  177.48   29.40
   3   4   7  197.68   26.10
  -4  -4  -7   53.29   18.10
  -4  -4  -7   64.59   14.50
  -4  -4  -7   72.09   27.20
   4   4   7   71.69   22.90
   4   4   7   79.49   16.10
   4   4   7   84.79   17.10
  -5  -4  -7  -10.60   14.70
  -5  -4  -7    8.50   15.50
  -5  -4  -7  -14.80   15.60
   5   4   7   16.50   17.70
   5   4   7  -20.40    9.70
   5   4   7   -9.60    8.00
   5   4   7  -17.90   16.50
  -6  -4  -7   43.30   24.90
  -6  -4  -7   -4.60   19.50
  -6  -4  -7   74.19   27.90
   6   4   7   39.10   13.70
   6   4   7   53.69    8.80
   6   4   7   64.29   30.40
   6   4   7   30.70   23.80
  -7  -4  -7  -12.70   19.30
  -7  -4  -7   26.90   31.30
  -7  -4  -7   23.80   24.80
   7   4   7   -2.70   20.70
   7   4   7   -8.80   10.70
   7   4   7    6.20   10.10
   7   4   7  -38.00   23.00
   5  -5  -7   57.89   18.60
   5  -5  -7   48.90   27.50
   5  -5  -7   34.90   28.60
  -5   5   7   20.90   21.40
  -5   5   7   63.79   19.40
   4  -5  -7   88.59   15.90
   4  -5  -7   76.59   26.70
   4  -5  -7   76.19   24.40
  -4   5   7   92.29   18.60
  -4   5   7   68.09   22.00
  -4   5   7   98.69   29.40
  -4   5   7   70.19   22.10
   3  -5  -7   -5.70    6.10
   3  -5  -7   -9.90   11.30
   3  -5  -7   24.80   15.80
  -3   5   7  -34.60   14.60
  -3   5   7   -8.10   13.40
  -3   5   7   -3.70   14.70
   2  -5  -7   64.09   18.10
  -2   5   7   76.59   22.40
  -2   5   7   29.80   17.90
  -2   5   7   40.00   19.60
   1  -5  -7   89.89   18.20
  -1   5   7   73.99   25.20
  -1   5   7   80.39   21.10
  -1   5   7   48.10   20.60
  -1   5   7   51.79    7.50
   0  -5  -7  365.86   34.20
   0  -5  -7  324.27   25.10
   0  -5  -7  291.67   41.30
   0   5   7  391.06   19.50
   0   5   7  338.17   70.19
   0   5   7  407.96   38.00
   0   5   7  364.16   37.00
  -1  -5  -7  110.59   21.70
  -1  -5  -7  118.59   14.40
  -1  -5  -7   99.89   27.20
   1   5   7  123.39   12.40
   1   5   7  153.28   26.70
   1   5   7  124.19   25.30
   1   5   7  147.89   27.30
  -2  -5  -7  761.82   55.19
  -2  -5  -7  730.53   45.10
   2   5   7  748.03   34.50
   2   5   7  765.92   49.50
   2   5   7  671.43   62.39
   2   5   7  785.92   48.40
  -3  -5  -7   16.80   12.30
  -3  -5  -7   21.20   13.80
   3   5   7   33.30   16.90
   3   5   7   -1.60   11.60
   3   5   7    5.50   11.90
  -4  -5  -7   -1.60   15.00
   4   5   7   -7.20   16.10
   4   5   7   -2.00   10.70
   4   5   7  -25.30   14.30
   4   5   7   -7.50   11.90
   4   5   7  -22.70   12.10
  -5  -5  -7   15.90   19.60
  -5  -5  -7  -11.40   17.10
   5   5   7    6.50   10.30
   5   5   7    9.20    4.20
   5   5   7    2.10    3.50
   5   5   7    1.20   16.20
   5   5   7  -21.40   16.50
   5   5   7  -13.70   19.90
   5   5   7   15.90   14.80
  -6  -5  -7    3.00   21.60
  -6  -5  -7  -11.10   17.90
   6   5   7    5.50    8.70
   6   5   7  -14.30   17.90
   6   5   7   28.40   23.70
   6   5   7   -0.70   20.80
   5  -6  -7   75.29   15.20
   5  -6  -7   84.49   29.70
  -5   6   7   88.59   35.00
  -5   6   7   87.99   35.10
   4  -6  -7   18.10   25.50
   4  -6  -7   -6.20    5.30
   4  -6  -7   43.60   24.70
  -4   6   7  -30.70   23.20
  -4   6   7    3.50   18.00
  -4   6   7  -20.20   21.60
   3  -6  -7   94.09   34.50
   3  -6  -7   91.49   26.80
  -3   6   7  188.88   34.10
  -3   6   7  108.29   25.90
  -3   6   7  171.38   33.00
  -2   6   7   39.90   18.20
  -2   6   7   72.69   21.30
  -2   6   7   28.10   20.20
   1  -6  -7   57.69   16.60
  -1   6   7   30.90   10.90
  -1   6   7   56.69   21.00
  -1   6   7   32.20   16.50
  -1   6   7   33.40   18.50
   0  -6  -7   27.10   17.60
   0  -6  -7    9.90   12.20
   0  -6  -7   34.20   18.70
   0   6   7   43.10   18.10
   0   6   7   28.30   11.10
   0   6   7   59.99   21.80
   0   6   7   20.10   11.80
   0   6   7   64.99   20.50
  -1  -6  -7  428.86   27.70
  -1  -6  -7  460.75   40.30
  -1  -6  -7  368.26   48.40
   1   6   7  428.16   41.50
   1   6   7  302.47   47.80
   1   6   7  435.46   28.90
   1   6   7  412.76   30.70
  -2  -6  -7   94.49   21.80
  -2  -6  -7   83.29   23.60
   2   6   7  106.49   15.00
   2   6   7   89.49   20.10
   2   6   7   90.59   21.80
   2   6   7   91.49   13.00
   2   6   7   82.59   23.60
  -3  -6  -7  100.59   27.60
   3   6   7   94.79   17.30
   3   6   7  126.29   30.00
   3   6   7   91.89   12.10
   3   6   7  115.29   28.00
   3   6   7  137.69   25.90
   3   6   7   94.59   21.50
  -4  -6  -7   86.99   29.60
   4   6   7   99.79   23.30
   4   6   7  129.69   21.50
   4   6   7  159.78   31.30
   4   6   7   64.09   25.90
   4   6   7   94.39   21.70
   4   6   7  130.89   28.00
   4   6   7   70.49   10.90
  -5  -6  -7   39.10   24.10
   5   6   7   11.50   12.90
   5   6   7   27.00   24.90
   5   6   7   29.80   20.60
   5   6   7   23.80   22.10
   5   6   7   30.40   19.80
  -6  -6  -7   88.99   32.20
   6   6   7   70.39   14.30
   6   6   7   25.00   27.10
   6   6   7   10.70   24.70
   6   6   7   70.39   33.00
   6   6   7   40.60   12.10
   6   6   7   98.29   27.90
   6   6   7   62.89   14.80
  -4   7   7  276.97   44.30
  -4   7   7  137.19   56.59
   3  -7  -7   47.60   26.10
  -3   7   7   -1.30   22.00
  -3   7   7   72.49   28.10
   2  -7  -7   -3.20   16.20
   2  -7  -7   28.90   19.90
  -2   7   7   -2.10   14.30
  -2   7   7    4.00   23.10
  -2   7   7    6.70   20.50
   1  -7  -7   30.90   18.70
   1  -7  -7   41.10   24.00
   1  -7  -7    9.40   15.30
  -1   7   7   33.30   24.40
  -1   7   7   13.70   12.60
  -1   7   7   11.40   15.10
  -1   7   7   20.20   19.70
  -1   7   7   26.60   20.60
   0  -7  -7  316.27   46.60
   0  -7  -7  287.67   31.30
   0   7   7  380.76   32.90
   0   7   7  271.07   41.80
   0   7   7  283.27   43.90
   0   7   7  351.06   39.00
   0   7   7  329.27   32.70
  -1  -7  -7   21.80   21.10
  -1  -7  -7   16.50   12.20
   1   7   7    4.00   20.50
   1   7   7  -11.50   12.40
   1   7   7   20.80   19.60
   1   7   7   -3.00   11.00
   1   7   7   10.70   18.10
  -2  -7  -7  282.57   45.20
   2   7   7  336.97   43.60
   2   7   7  316.47   44.00
   2   7   7  248.98   52.09
   2   7   7  344.77   27.90
   2   7   7  309.37   40.40
   2   7   7  319.37   35.40
   2   7   7  283.87   14.90
   2   7   7  314.07   15.20
  -3  -7  -7   50.49   25.90
   3   7   7   44.10   13.80
   3   7   7   44.20   23.10
   3   7   7   42.20   12.20
   3   7   7    8.10   18.80
   3   7   7   31.60   20.30
   3   7   7   66.89   23.40
   3   7   7   40.70   18.90
   3   7   7   37.40   21.90
  -4  -7  -7    7.40   20.30
   4   7   7   63.19   27.10
   4   7   7   95.69   38.30
   4   7   7   20.30   15.40
   4   7   7   20.70   23.50
   4   7   7   23.50   12.40
   4   7   7   59.49   24.00
   4   7   7   60.79   25.40
  -5  -7  -7   91.19   32.50
   5   7   7   53.39   23.20
   5   7   7   78.89   28.70
   5   7   7   86.99   20.90
   5   7   7   56.19   30.20
   5   7   7   83.59   16.20
   5   7   7   47.60   37.10
   5   7   7   68.79   24.70
   2  -8  -7   18.20   19.70
   2  -8  -7    5.70   22.50
  -2   8   7   48.00   26.40
  -2   8   7  -46.50   23.90
  -2   8   7   14.20   22.30
  -2   8   7   44.80   29.90
   1  -8  -7  210.18   43.20
   1  -8  -7  202.28   35.70
  -1   8   7  211.88   46.60
  -1   8   7  207.08   37.00
  -1   8   7  197.58   36.00
  -1   8   7  195.08   30.20
  -1   8   7  181.08   34.60
   0  -8  -7    7.00   19.90
   0  -8  -7   18.20   18.60
   0   8   7  -15.50   17.10
   0   8   7   44.40   23.90
   0   8   7   17.00   20.00
   0   8   7   25.10   20.10
   0   8   7  -33.50   13.80
  -1  -8  -7  330.77   48.30
   1   8   7  226.98   35.00
   1   8   7  260.17   41.80
   1   8   7  263.07   43.50
   1   8   7  321.07   34.30
  -2  -8  -7  -27.00   14.60
   2   8   7  -35.60   19.20
   2   8   7   26.50   15.90
   2   8   7   11.90   23.20
   2   8   7   19.80   19.60
   2   8   7   20.00   26.60
  -3  -8  -7  176.08   39.30
   3   8   7  222.68   27.80
   3   8   7  161.68   38.90
   3   8   7  191.58   34.40
   3   8   7  174.08   33.10
   3   8   7  159.38   19.50
   3   8   7  214.48   39.40
   3   8   7  171.98   37.20
   3   8   7  316.77   51.49
  -4  -8  -7  124.79   36.20
   4   8   7  175.68   34.80
   4   8   7  124.09   43.60
   1   5  -8   34.20   16.30
   1   5  -8   -4.90   30.50
   1   5  -8   79.49   41.70
  -1  -5   8   32.80   18.50
  -1  -5   8   26.70   28.60
  -1  -5   8   53.69   37.00
   0   5  -8  164.68   36.20
   0   5  -8  211.78   39.60
   0  -5   8  202.38   43.00
   0  -5   8  160.18   31.40
   0  -5   8  206.78   27.10
  -1   5  -8   -9.10   29.20
  -1   5  -8   40.60   23.00
  -1   5  -8   12.70   34.60
  -1   5  -8   42.20   27.30
   1  -5   8   98.39   36.60
   1  -5   8   12.50   14.30
   1  -5   8   20.90   16.10
  -2   5  -8  -13.70   25.80
  -2   5  -8    4.00   24.50
  -2   5  -8  -11.40   21.00
   2  -5   8   -2.60   14.20
   2  -5   8  -11.60   16.30
   2  -5   8  -57.19   27.50
  -3   5  -8   36.80   34.10
  -3   5  -8   39.20   24.60
   3  -5   8    3.40   17.20
   3  -5   8  -10.60   33.80
   3   4  -8    6.40   30.50
   3   4  -8   48.20   24.30
  -3  -4   8   25.30   34.30
  -3  -4   8   41.30   27.10
   2   4  -8   69.79   31.60
   2   4  -8   11.80   27.50
   2   4  -8   24.00   25.30
   2   4  -8  -41.60   26.10
  -2  -4   8    2.50   27.40
  -2  -4   8    5.20   22.40
   1   4  -8  143.19   22.50
   1   4  -8  139.89   37.10
   1   4  -8   41.00   26.70
   1   4  -8  213.38   46.80
  -1  -4   8  135.39   26.80
  -1  -4   8  181.18   36.00
   0   4  -8   53.09   24.10
   0   4  -8   50.59   25.80
   0   4  -8   27.10   16.10
   0   4  -8   77.39   27.00
   0  -4   8   57.09   19.90
   0  -4   8   54.89   28.40
   0  -4   8   25.20   20.20
  -1   4  -8   83.89   30.20
  -1   4  -8   44.50   20.60
  -1   4  -8   49.20   22.90
  -1   4  -8   47.70   22.30
   1  -4   8   46.80   27.60
   1  -4   8   35.70   17.50
   1  -4   8   48.70   19.70
  -2   4  -8   68.19   24.10
  -2   4  -8   29.50   20.20
  -2   4  -8   68.49   26.20
   2  -4   8   51.59   23.00
   2  -4   8   20.40   15.40
   2  -4   8   33.30   26.60
  -3   4  -8   16.80   24.80
  -3   4  -8   50.79   24.90
  -3   4  -8   60.79   29.60
   3  -4   8   55.29   26.90
   3  -4   8   56.19   20.40
  -4   4  -8   11.40   21.70
  -4   4  -8   -0.20   25.90
   4  -4   8    4.40   26.00
   4  -4   8  -16.60   26.90
   4  -4   8  -21.60   17.40
   4   3  -8   21.70   23.60
   4   3  -8   55.09   32.00
   4   3  -8   39.90   31.30
  -4  -3   8   74.19   34.50
  -4  -3   8   69.79   33.00
  -4  -3   8   58.69   22.60
   3   3  -8   -0.90   22.10
   3   3  -8   22.20   22.50
   3   3  -8   14.00   22.80
  -3  -3   8    9.40   22.10
  -3  -3   8   -7.90   25.70
  -3  -3   8   -0.90   23.00
   2   3  -8  187.38   36.00
   2   3  -8  183.48   36.50
   2   3  -8  162.58   37.40
   2   3  -8  233.68   42.60
  -2  -3   8  151.88   37.00
  -2  -3   8  156.88   19.10
  -2  -3   8  115.59   29.80
  -2  -3   8  183.78   34.30
   1   3  -8   13.20   20.20
   1   3  -8  -23.40   15.80
   1   3  -8   23.20   12.10
   1   3  -8  -47.20   17.50
  -1  -3   8   23.60   12.40
  -1  -3   8    9.40   16.80
  -1  -3   8   15.90   23.50
  -1  -3   8   19.50   19.50
   0   3  -8   70.09   18.00
   0   3  -8  136.89   31.80
   0   3  -8   78.89   24.00
   0  -3   8   66.69   20.30
   0  -3   8   62.29   20.50
   0  -3   8   73.49   20.10
  -1   3  -8   11.50   18.50
  -1   3  -8  -14.40   13.40
  -1   3  -8   26.40   11.20
  -1   3  -8   23.60   33.40
   1  -3   8   16.40   13.10
   1  -3   8   30.70   17.00
  -2   3  -8  137.39   38.00
  -2   3  -8  239.38   36.40
  -2   3  -8  242.38   35.10
   2  -3   8  216.18   26.30
   2  -3   8  190.78   34.60
  -3   3  -8   40.80   22.00
  -3   3  -8   34.20   20.90
   3  -3   8   22.70   15.80
   3  -3   8   68.09   23.20
   3  -3   8   -9.50   21.10
  -4   3  -8  823.22   66.69
  -4   3  -8  972.50   61.59
   4  -3   8  872.81   69.79
   4  -3   8  916.21   68.09
   4  -3   8  892.01   71.39
  -5   3  -8   73.29   30.30
  -5   3  -8   64.79   24.60
  -5   3  -8   -8.20   35.40
   5  -3   8  -30.00   21.80
   5  -3   8  -51.39   28.90
   5  -3   8   44.50   22.00
   5  -3   8   24.70   22.30
   4   2  -8   71.29   31.40
   4   2  -8   78.39   25.50
   4   2  -8   14.70   26.30
  -4  -2   8   47.50   30.20
  -4  -2   8   24.10   30.60
  -4  -2   8   88.79   33.60
   3   2  -8   26.20   17.90
   3   2  -8   -6.00   14.70
  -3  -2   8    2.20   23.00
  -3  -2   8  -30.70   20.30
  -3  -2   8  -11.80   19.60
   2   2  -8  203.08   36.40
   2   2  -8  210.68   37.10
   2   2  -8  173.18   30.50
  -2  -2   8  196.28   33.90
  -2  -2   8  200.38   23.60
  -2  -2   8  201.78   32.30
  -2  -2   8  228.38   39.30
   1   2  -8   19.70   17.10
   1   2  -8   35.70   31.80
   1   2  -8   45.70   14.80
  -1  -2   8    1.10   12.40
  -1  -2   8   10.10   16.70
  -1  -2   8  -19.90   25.90
  -1  -2   8   51.89   21.40
   0   2  -8  512.75   45.80
   0   2  -8  505.15   36.80
   0   2  -8  458.15   39.50
   0  -2   8  435.36   42.10
   0  -2   8  522.45   42.70
   0  -2   8  428.46   36.90
   0  -2   8  522.05   40.50
  -1   2  -8  138.59   21.20
  -1   2  -8  111.49   23.40
  -1   2  -8  151.28   27.50
  -1   2  -8  112.59   22.80
  -1   2  -8  144.59   27.90
   1  -2   8  163.08   28.40
   1  -2   8  130.09   22.20
   1  -2   8  203.68   33.50
  -2   2  -8  199.08   31.10
  -2   2  -8  198.88   25.30
  -2   2  -8  163.28   25.60
  -2   2  -8  220.78   34.20
   2  -2   8  147.89   20.10
   2  -2   8  168.88   30.60
  -3   2  -8   82.39   24.70
  -3   2  -8   81.29   23.40
  -3   2  -8   59.09   17.30
   3  -2   8   97.49   25.70
  -4   2  -8  -46.80   17.00
  -4   2  -8   19.10   16.60
  -4   2  -8    3.60   13.60
   4  -2   8    0.70   14.40
  -5   2  -8   28.20   19.30
  -5   2  -8   39.60   26.10
  -5   2  -8   52.39   19.60
   5  -2   8   38.30   22.70
   5  -2   8   39.60   17.90
   5  -2   8   36.20   27.50
   5  -2   8   29.00   23.70
  -6   2  -8   41.20   22.90
  -6   2  -8  129.69   38.10
  -6   2  -8  134.99   47.20
   6  -2   8   87.39   24.70
   6  -2   8  108.29   33.70
   6  -2   8  130.39   47.50
   6  -2   8  213.58   40.30
   5   1  -8   22.60   26.70
   5   1  -8   64.39   29.10
  -5  -1   8   33.10   42.90
  -5  -1   8   38.70   14.00
   4   1  -8  109.09   31.50
   4   1  -8  156.18   35.50
  -4  -1   8   24.50   27.90
  -4  -1   8   80.79   29.60
   3   1  -8    1.60   13.40
   3   1  -8    4.80   16.20
   3   1  -8  -17.10   13.00
  -3  -1   8   -6.40    8.70
  -3  -1   8   -3.10   13.20
  -3  -1   8   -3.70   28.40
   2   1  -8  142.19   30.70
   2   1  -8  163.58   24.30
   2   1  -8  166.98   29.20
  -2  -1   8  160.78   21.70
  -2  -1   8  154.18   33.00
  -2  -1   8  107.39   26.20
   1   1  -8   53.79   24.30
   1   1  -8   78.69   17.70
  -1  -1   8   63.49   16.00
  -1  -1   8   40.70   19.20
  -1  -1   8   40.60   17.90
   0   1  -8    9.30   11.70
   0   1  -8   -6.70    9.80
   0   1  -8   -5.80    9.70
   0   1  -8   -4.50    9.40
   0  -1   8   -9.20   11.00
   0  -1   8    1.90   10.50
  -1   1  -8   12.60   10.20
  -1   1  -8   15.40   15.40
  -1   1  -8    1.60   10.10
  -1   1  -8  -12.50   10.30
   1  -1   8    0.80    9.00
   1  -1   8   -2.70   10.10
   1  -1   8    6.00   11.10
  -2   1  -8   51.39   22.20
  -2   1  -8   55.89   14.40
  -2   1  -8   79.29   17.50
   2  -1   8   94.79   24.90
   2  -1   8   22.10   16.20
   2  -1   8   60.49   12.70
  -3   1  -8  185.78   33.30
  -3   1  -8  181.18   23.70
  -3   1  -8  213.78   26.60
  -3   1  -8  188.78   32.70
   3  -1   8  276.27   39.90
   3  -1   8  168.28   32.20
  -4   1  -8  451.85   34.60
  -4   1  -8  487.05   33.30
  -4   1  -8  395.86   43.20
  -4   1  -8  536.45   41.90
   4  -1   8  441.56   44.40
   4  -1   8  450.15   45.00
   4  -1   8  492.75   50.29
  -5   1  -8    4.90   14.20
  -5   1  -8   -2.80   21.60
  -5   1  -8   -9.00   11.70
   5  -1   8    1.10   21.00
   5  -1   8   10.20   22.90
   5  -1   8  -10.20   13.10
   5  -1   8    2.40   18.80
  -6   1  -8   69.19   35.10
  -6   1  -8   65.09   20.60
   6  -1   8   65.09   18.90
   6  -1   8   99.49   30.30
   6  -1   8   46.70   23.60
   6  -1   8   75.39   37.80
   5   0  -8  127.59   34.60
   5   0  -8  201.18   36.70
  -5   0   8  154.08   21.30
   4   0  -8   53.79   23.20
   4   0  -8  102.99   28.40
  -4   0   8   48.50   28.30
  -4   0   8  100.59   19.00
  -4   0   8   43.20   25.80
   3   0  -8  546.35   48.20
   3   0  -8  575.04   49.30
  -3   0   8  408.16   43.60
  -3   0   8  517.85   34.70
   2   0  -8  696.23   50.89
   2   0  -8  777.52   52.89
   2   0  -8  707.63   37.90
  -2   0   8  660.33   49.50
  -2   0   8  729.43   52.79
  -2   0   8  703.03   40.50
   1   0  -8    8.40    8.70
   1   0  -8  -18.20   12.80
   1   0  -8    7.00   12.80
  -1   0   8  -20.50    8.00
  -1   0   8  -11.70    9.70
  -1   0   8    5.50   15.00
   0   0  -8  238.58   29.60
   0   0  -8  200.08   30.30
   0   0  -8  203.38   25.20
   0   0  -8  234.88   39.80
   0   0   8  189.48   27.40
   0   0   8  282.17   35.40
  -1   0  -8  254.67   33.90
  -1   0  -8  260.67   22.90
  -1   0  -8  270.97   33.60
  -1   0  -8  263.97   33.40
   1   0   8  215.68   32.20
   1   0   8  262.27   27.90
  -2   0  -8  373.36   33.80
  -2   0  -8  374.86   24.80
  -2   0  -8  375.26   33.50
  -2   0  -8  444.76   33.00
   2   0   8  395.96   37.40
   2   0   8  364.76   37.30
  -3   0  -8  264.77   28.20
  -3   0  -8  273.77   36.80
  -3   0  -8  310.37   21.80
  -3   0  -8  235.58   31.10
   3   0   8  268.57   36.50
   3   0   8  274.67   14.80
  -4   0  -8  236.38   29.90
  -4   0  -8  242.88   31.20
  -4   0  -8  235.98   20.90
   4   0   8  187.28   34.40
   4   0   8  199.38   32.60
   4   0   8  265.57   39.30
  -5   0  -8   17.20   14.70
  -5   0  -8   16.10   17.30
   5   0   8   56.69   21.90
   5   0   8    8.10   16.40
   5   0   8    4.90    9.90
   5   0   8    9.20   19.30
  -6   0  -8   51.69   14.90
  -6   0  -8   58.99   28.20
   6   0   8   68.49   26.00
   6   0   8   -1.30   12.50
   6   0   8   28.70   20.80
   6   0   8   -4.80   23.80
  -7   0  -8  127.09   18.10
  -7   0  -8  166.38   44.80
   7   0   8  162.88   26.40
   7   0   8  143.39   38.60
   7   0   8  162.58   40.30
   5  -1  -8   44.00   24.30
   5  -1  -8   -7.30   21.40
   5  -1  -8   21.10   21.90
  -5   1   8   -8.50   14.70
  -5   1   8   51.69   36.60
  -5   1   8   19.30    7.70
   4  -1  -8  156.68   30.70
   4  -1  -8  148.19   30.40
  -4   1   8  249.28   38.90
  -4   1   8  131.49   34.90
  -4   1   8  164.48   23.90
   3  -1  -8  270.67   39.10
   3  -1  -8  379.76   39.30
  -3   1   8  396.36   39.20
  -3   1   8  381.46   32.10
  -3   1   8  399.66   39.90
   2  -1  -8  287.57   35.10
   2  -1  -8  310.97   39.70
  -2   1   8  233.98   37.80
  -2   1   8  190.98   38.00
  -2   1   8  241.18   29.80
  -2   1   8  255.47   34.40
   1  -1  -8   72.99   18.90
   1  -1  -8   74.19   21.70
   1  -1  -8   81.59    9.90
  -1   1   8   78.19   17.50
  -1   1   8  106.89   22.00
  -1   1   8   81.89   20.70
   0  -1  -8  110.79   23.00
   0  -1  -8   59.09   17.10
   0   1   8   76.19   21.10
   0   1   8  119.69   22.00
   0   1   8   98.89   21.00
  -1  -1  -8   10.00   11.40
  -1  -1  -8    9.10    7.40
  -1  -1  -8   33.30   16.60
   1   1   8   19.40   14.40
   1   1   8   -3.60    7.70
   1   1   8    2.80   10.80
  -2  -1  -8   12.10   11.40
  -2  -1  -8    4.70   10.90
  -2  -1  -8    3.00    4.60
  -2  -1  -8    4.90   12.30
   2   1   8   -9.10    8.90
   2   1   8    9.80   10.70
  -3  -1  -8    6.80    4.30
  -3  -1  -8    8.00   14.60
  -3  -1  -8   12.10   10.90
  -3  -1  -8   17.90   13.80
   3   1   8    0.60   12.60
   3   1   8   10.60   13.50
  -4  -1  -8  319.67   28.60
  -4  -1  -8  312.07   32.60
   4   1   8  308.67   40.80
   4   1   8  355.26   38.40
  -5  -1  -8    1.00   16.30
  -5  -1  -8   70.09   21.30
  -5  -1  -8   85.79   17.80
   5   1   8  102.69   25.00
   5   1   8   58.59   24.40
   5   1   8   60.49   24.20
  -6  -1  -8  114.79   28.00
  -6  -1  -8   39.40   12.50
  -6  -1  -8   67.49   26.90
   6   1   8   43.30   25.20
   6   1   8   40.30   11.60
   6   1   8   46.10   28.60
   6   1   8   49.60   27.00
  -7  -1  -8   27.60    7.30
  -7  -1  -8   26.40   28.30
  -7  -1  -8  123.49   38.10
   7   1   8   41.30   29.40
   7   1   8   58.09   15.40
   7   1   8   70.19   40.00
   5  -2  -8  217.48   44.00
   5  -2  -8  143.59   30.80
   5  -2  -8  242.08   40.20
  -5   2   8  279.47   49.99
  -5   2   8  175.18   36.60
  -5   2   8  133.29   22.00
  -5   2   8  185.48   30.60
   4  -2  -8  212.28   32.70
   4  -2  -8  230.88   37.30
  -4   2   8  223.98   36.40
  -4   2   8  224.38   25.90
  -4   2   8  180.68   28.70
   3  -2  -8  242.18   32.90
   3  -2  -8  316.07   40.60
   3  -2  -8  240.68   34.30
  -3   2   8  214.18   30.80
  -3   2   8  227.78   31.10
  -3   2   8  235.18   36.70
   2  -2  -8  369.96   37.10
   2  -2  -8  363.26   32.70
  -2   2   8  385.86   33.40
  -2   2   8  299.27   31.20
  -2   2   8  306.97   39.20
   1  -2  -8   26.40   14.40
   1  -2  -8   38.80   14.00
  -1   2   8   24.00   13.00
  -1   2   8   38.90   14.90
  -1   2   8   22.20   14.50
  -1   2   8   35.80   14.50
   0  -2  -8   96.99   22.10
   0  -2  -8  100.89   19.30
   0   2   8   84.69   21.60
   0   2   8   97.09   20.30
   0   2   8  103.59   18.40
  -1  -2  -8 1031.90   56.19
  -1  -2  -8  987.80   31.40
  -1  -2  -8 1021.90   31.40
  -1  -2  -8  912.91   50.79
  -1  -2  -8  984.80   28.10
   1   2   8 1116.39   57.19
   1   2   8  994.10   55.49
   1   2   8 1050.39   51.29
  -2  -2  -8   14.90    7.80
  -2  -2  -8   17.00   10.70
  -2  -2  -8    9.40    9.80
  -2  -2  -8   23.50   15.00
   2   2   8   13.20   12.10
   2   2   8   16.00   11.40
   2   2   8   26.80   13.50
  -3  -2  -8  814.82   53.39
  -3  -2  -8  824.72   52.59
  -3  -2  -8  779.52   41.80
  -3  -2  -8  801.12   44.30
   3   2   8  847.82   50.39
   3   2   8  789.42   45.70
   3   2   8  745.93   51.99
  -4  -2  -8   44.60   18.80
  -4  -2  -8   39.80   17.20
  -4  -2  -8    9.90   15.40
  -4  -2  -8   19.90   12.20
   4   2   8   14.40   10.60
   4   2   8   22.60    6.30
   4   2   8   -4.10   15.90
  -5  -2  -8   34.80   12.60
  -5  -2  -8   45.80   20.20
  -5  -2  -8   -0.10   19.00
   5   2   8   19.90   22.70
   5   2   8   62.59   24.30
   5   2   8   40.50   16.90
  -6  -2  -8   40.50   23.60
  -6  -2  -8   56.59   12.30
  -6  -2  -8   41.70   25.50
  -6  -2  -8   80.89   25.50
   6   2   8   87.79   30.80
   6   2   8   61.69   24.70
  -7  -2  -8   -4.80   25.30
  -7  -2  -8    3.30   28.80
   7   2   8  -26.90   20.70
   7   2   8    5.90   10.30
   5  -3  -8  -29.60   24.40
   5  -3  -8   35.80   24.20
   5  -3  -8  -20.00   16.90
  -5   3   8   10.30   11.00
  -5   3   8  -56.39   27.20
  -5   3   8   -2.90   22.90
   4  -3  -8   92.29   26.20
   4  -3  -8  110.39   24.00
  -4   3   8   60.09   29.50
  -4   3   8  108.29   25.70
  -4   3   8   54.09   18.00
   3  -3  -8  100.59   26.60
   3  -3  -8  109.09   25.90
   3  -3  -8  130.29   22.20
  -3   3   8  112.19   25.00
  -3   3   8  105.89   25.80
  -3   3   8  104.39   22.50
   2  -3  -8   62.09   18.30
   2  -3  -8  102.19   24.10
   2  -3  -8   67.19   16.20
  -2   3   8   64.39   20.40
  -2   3   8   69.49   16.40
  -2   3   8   76.59   20.00
   1  -3  -8  297.77   30.10
   1  -3  -8  267.67   24.60
   1  -3  -8  250.47   24.30
  -1   3   8  314.37   32.10
  -1   3   8  272.47   25.10
  -1   3   8  223.68   33.60
  -1   3   8  249.58   36.20
   0  -3  -8   33.50   16.30
   0  -3  -8   66.59   12.20
   0   3   8   38.50   15.30
   0   3   8   57.79   16.50
   0   3   8   38.00   13.10
  -1  -3  -8  377.06   37.40
  -1  -3  -8  359.76   33.00
  -1  -3  -8  350.16   14.90
   1   3   8  390.96   35.70
   1   3   8  328.87   28.20
   1   3   8  380.66   35.50
  -2  -3  -8  157.38   24.30
  -2  -3  -8  138.09   26.50
   2   3   8  156.18   27.50
   2   3   8  191.48   24.90
   2   3   8  183.38   27.80
  -3  -3  -8  732.83   40.70
  -3  -3  -8  744.83   52.59
  -3  -3  -8  509.05   42.30
  -3  -3  -8  745.73   42.80
   3   3   8  745.23   45.90
   3   3   8  681.83   42.90
  -4  -3  -8    1.10   11.70
  -4  -3  -8   -5.10    9.20
  -4  -3  -8  -18.30   11.70
  -4  -3  -8  -16.30   13.70
   4   3   8    5.50   11.20
   4   3   8    2.70    8.00
   4   3   8   -3.50   10.00
   4   3   8   -9.10   12.40
  -5  -3  -8  341.07   26.90
  -5  -3  -8  262.87   48.30
  -5  -3  -8  234.08   40.80
  -5  -3  -8  311.37   41.40
   5   3   8  312.57   44.80
   5   3   8  367.36   47.00
  -6  -3  -8   32.20   25.40
  -6  -3  -8   24.40   22.50
  -6  -3  -8   -5.80   11.50
  -6  -3  -8    8.30    7.90
   6   3   8   30.90   22.10
   6   3   8   -4.40   24.00
  -7  -3  -8  157.68   39.70
  -7  -3  -8  154.78   34.90
  -7  -3  -8  185.68   51.89
   7   3   8  204.28   44.70
   7   3   8  126.99   12.20
   7   3   8  158.88   36.30
   5  -4  -8   89.39   31.10
   5  -4  -8  112.99   25.90
  -5   4   8   57.69   37.20
  -5   4   8  122.59   21.10
  -5   4   8  118.79   33.10
   4  -4  -8  153.98   31.50
   4  -4  -8  116.29   28.80
   4  -4  -8  236.78   30.20
  -4   4   8  167.08   26.10
  -4   4   8   90.29   33.10
  -4   4   8  122.99   32.10
   3  -4  -8  134.09   30.10
   3  -4  -8  183.58   30.90
   3  -4  -8  135.19   21.00
  -3   4   8  185.18   35.80
  -3   4   8  166.28   27.60
  -3   4   8  200.78   37.90
   2  -4  -8  179.58   27.20
   2  -4  -8  143.69   19.00
  -2   4   8  179.98   34.30
  -2   4   8  133.29   27.60
  -2   4   8  181.58   32.10
  -2   4   8  185.18   31.70
   1  -4  -8    0.80    9.40
  -1   4   8   -7.90   10.00
  -1   4   8    8.90   13.80
  -1   4   8    1.10    6.80
  -1   4   8   -0.60    9.30
   0  -4  -8  331.47   23.00
   0  -4  -8  269.97   35.20
   0   4   8  315.27   33.60
   0   4   8  290.67   22.10
   0   4   8  337.37   33.40
  -1  -4  -8  869.81   56.19
  -1  -4  -8  850.71   24.80
  -1  -4  -8  912.81   51.69
   1   4   8  821.02   38.40
   1   4   8  755.02   49.70
   1   4   8  806.32   51.69
  -2  -4  -8  191.88   27.70
  -2  -4  -8  190.68   32.80
   2   4   8  161.18   27.70
   2   4   8  175.78   23.60
  -3  -4  -8   28.30   13.40
  -3  -4  -8   23.00   13.20
   3   4   8   28.90   14.10
   3   4   8   48.60   19.20
   3   4   8   44.00   15.10
  -4  -4  -8  207.28   36.20
  -4  -4  -8  170.98   29.30
  -4  -4  -8  160.78   23.40
   4   4   8  163.38   22.60
   4   4   8  110.69   27.70
   4   4   8  193.28   25.90
  -5  -4  -8   -8.00   10.10
  -5  -4  -8   10.90   16.50
  -5  -4  -8   26.30   21.90
  -5  -4  -8   -8.30   15.00
   5   4   8   -3.90   10.70
   5   4   8    7.60   20.60
   5   4   8   19.10   11.30
   5   4   8   -2.80   20.00
  -6  -4  -8   86.69   31.40
  -6  -4  -8  109.99   31.40
  -6  -4  -8   75.29   28.30
   6   4   8   73.59   25.70
   6   4   8   74.49   31.80
   5  -5  -8   19.00   30.70
   5  -5  -8   48.80   31.70
   5  -5  -8   26.70   17.10
  -5   5   8   28.80   31.10
  -5   5   8   19.90   27.10
  -5   5   8   40.60   16.80
   4  -5  -8    5.80   22.50
   4  -5  -8  -29.30   23.00
   4  -5  -8   -3.50   11.30
  -4   5   8    4.50   21.50
  -4   5   8   -6.70   16.90
  -4   5   8  -18.30   26.10
   3  -5  -8   81.19   28.50
   3  -5  -8   62.59   22.70
   3  -5  -8   52.69   16.30
  -3   5   8    6.30   22.40
  -3   5   8   90.79   24.30
  -3   5   8   49.50   26.00
   2  -5  -8  130.79   24.20
  -2   5   8  187.58   34.90
  -2   5   8  135.09   28.50
  -2   5   8  158.28   32.60
   1  -5  -8   13.20   11.70
  -1   5   8   44.80   18.10
  -1   5   8   31.60   16.40
  -1   5   8   17.40   17.20
  -1   5   8    2.90   13.70
   0  -5  -8 1166.98   64.99
   0  -5  -8 1036.70   43.50
   0  -5  -8 1123.69   69.29
   0   5   8 1191.38   29.90
   0   5   8 1137.79   64.19
   0   5   8 1150.08   65.09
   0   5   8 1101.69   63.99
  -1  -5  -8   12.90   12.10
  -1  -5  -8   13.30   13.70
   1   5   8    0.70   11.10
   1   5   8   26.00   15.80
  -2  -5  -8  269.07   41.60
   2   5   8  287.87   36.30
   2   5   8  233.78   22.60
   2   5   8  224.78   34.60
  -3  -5  -8   29.60   16.70
  -3  -5  -8   14.20   13.10
   3   5   8   34.30   14.80
   3   5   8   17.60   13.40
   3   5   8   -6.50   15.20
  -4  -5  -8   47.70   15.30
  -4  -5  -8   51.39   23.80
   4   5   8   82.99   23.90
   4   5   8   90.59   25.20
   4   5   8   80.39   18.60
   4   5   8   32.70   14.20
  -5  -5  -8   -1.00   19.80
  -5  -5  -8   16.40   22.30
   5   5   8   47.40   24.60
   5   5   8   17.30   14.30
   5   5   8   -0.60   12.30
   5   5   8    4.00   20.30
  -6  -5  -8    1.10   23.10
  -6  -5  -8    0.20   21.30
   6   5   8   41.70   31.40
   6   5   8   28.50   32.10
   6   5   8   26.20   23.10
   4  -6  -8   59.19   30.10
   4  -6  -8   90.39   30.60
   4  -6  -8   32.90    7.40
  -4   6   8   55.69   14.50
  -4   6   8   51.49   25.20
  -4   6   8   71.19   29.60
   3  -6  -8   15.80   22.50
  -3   6   8   22.40   28.10
  -3   6   8   38.70   20.50
  -3   6   8   33.50   23.50
  -3   6   8   29.40    8.80
   2  -6  -8  164.68   31.80
   2  -6  -8   84.69   23.70
  -2   6   8  134.29   31.40
  -2   6   8  133.19   31.90
  -2   6   8   99.29    7.80
  -2   6   8  127.79   30.00
   1  -6  -8  522.15   37.60
  -1   6   8  507.55   48.90
  -1   6   8  527.05   47.20
  -1   6   8  434.36   44.80
   0  -6  -8   96.39   18.50
   0  -6  -8  130.09   34.10
   0   6   8  138.19   31.30
   0   6   8  157.58   29.20
  -1  -6  -8  720.33   54.29
  -1  -6  -8  839.02   63.39
  -1  -6  -8  881.01   36.70
   1   6   8  828.72   55.69
   1   6   8  781.22   57.79
  -2  -6  -8    0.30   13.40
  -2  -6  -8   -3.30   12.70
   2   6   8    8.80    8.50
   2   6   8    9.70   15.20
   2   6   8   16.60   17.40
  -3  -6  -8   49.90   19.80
  -3  -6  -8   71.79   22.10
   3   6   8   78.99   17.40
   3   6   8  105.89   26.20
   3   6   8   69.19   21.10
   3   6   8   60.59   26.40
   3   6   8   58.49   26.30
  -4  -6  -8   -4.80   14.10
   4   6   8   10.20   21.30
   4   6   8    7.00   27.00
   4   6   8   18.70   17.20
   4   6   8    3.00   13.80
   4   6   8   37.80   22.80
  -5  -6  -8   19.20   19.00
   5   6   8   -0.60   18.00
   5   6   8  -12.20   15.20
   5   6   8    9.50   24.30
   5   6   8    5.10   20.00
   5   6   8  -18.00   20.30
   3  -7  -8  -18.40   28.00
   3  -7  -8   13.10   25.10
  -3   7   8    1.90   39.50
  -3   7   8  -12.30   24.90
  -3   7   8    5.40   30.00
   2  -7  -8  245.18   36.30
   2  -7  -8  187.98   39.10
  -2   7   8  274.17   43.80
  -2   7   8  220.78   37.20
  -2   7   8  214.08   42.70
  -2   7   8  231.28   22.20
   1  -7  -8   71.39   28.80
   1  -7  -8   45.50   25.10
   1  -7  -8   87.99   22.70
  -1   7   8   56.39   13.30
  -1   7   8   35.10   22.70
  -1   7   8   53.39   27.50
  -1   7   8   89.69   27.50
   0  -7  -8  369.76   48.10
   0  -7  -8  442.66   47.70
   0  -7  -8  312.97   32.60
   0   7   8  332.97   48.20
   0   7   8  351.76   47.00
   0   7   8  371.46   47.90
   0   7   8  324.77   46.90
   0   7   8  412.86   28.40
  -1  -7  -8   61.49   14.80
  -1  -7  -8   64.59   25.10
  -1  -7  -8   47.60   26.60
   1   7   8   47.90   20.10
   1   7   8   18.90   26.50
   1   7   8   57.09   16.30
   1   7   8   60.39   28.30
   1   7   8   63.09   15.80
  -2  -7  -8  111.69   33.50
   2   7   8   74.89   32.60
   2   7   8   93.69   15.80
   2   7   8  109.39    6.40
   2   7   8   96.09   30.10
   2   7   8  135.09   30.50
  -3  -7  -8   56.79   27.10
   3   7   8   16.10   22.40
   3   7   8   32.40   12.90
   3   7   8   13.70   23.50
   3   7   8   17.70   19.30
   3   7   8   25.30    8.80
   3   7   8   42.50   13.50
   3   7   8  -18.70   27.20
  -4  -7  -8   16.00   17.50
   4   7   8   32.00   31.90
   4   7   8   24.70   18.10
   4   7   8   -9.00   22.60
   4   7   8    5.50    4.30
   4   7   8    2.50   14.20
   4   7   8  -10.70   21.40
   4   7   8  -10.30   21.70
   2  -8  -8   51.09   28.60
  -2   8   8    9.20   28.50
  -2   8   8   -2.30   16.60
  -2   8   8    2.90   28.20
  -2   8   8   -3.10   36.50
   1  -8  -8   59.09   28.30
   1  -8  -8   70.29   25.50
  -1   8   8  103.19   44.00
  -1   8   8  163.58   33.30
  -1   8   8   97.59   21.60
  -1   8   8   64.49   30.20
   0  -8  -8    3.10   20.80
   0   8   8   14.90   24.10
   0   8   8  -16.50   23.00
   0   8   8  -23.50   23.00
   0   8   8   23.20   28.60
   0   8   8   12.50   15.60
   0   8   8   11.90   17.50
  -1  -8  -8    3.50   18.20
   1   8   8  -14.90   21.30
   1   8   8   -1.80   18.10
   1   8   8   18.60   15.30
   1   8   8  -12.80   17.20
   1   8   8   27.90   24.00
  -2  -8  -8    8.30   21.50
   2   8   8    5.60   30.70
   2   8   8   -0.80   15.70
   2   8   8   15.70   33.80
   2   8   8   11.90   25.10
   2   8   8   17.70   16.70
   2   8   8   30.90   15.40
  -3  -8  -8   17.70   21.10
   3   8   8   34.20   23.40
   3   8   8    1.80   12.80
   3   8   8    1.20   25.40
   3   8   8   16.90   13.00
   3   8   8  -56.59   29.30
   3   8   8   13.20   24.60
   1   4  -9   26.80   26.20
   1   4  -9  -28.80   30.00
   1   4  -9    4.60   17.10
   1   4  -9  -23.60   22.70
  -1  -4   9   -1.10   19.60
  -1  -4   9   47.40   31.90
  -1  -4   9   16.60   25.50
   0   4  -9  211.78   31.40
   0   4  -9  263.67   48.50
   0   4  -9  201.08   39.80
   0  -4   9  164.28   30.90
   0  -4   9  172.48   45.90
   0  -4   9  166.18   33.60
  -1   4  -9   -6.50   21.90
  -1   4  -9   67.59   36.50
  -1   4  -9  -40.00   20.10
  -1   4  -9  -22.50   24.30
   1  -4   9   35.00   18.10
   1  -4   9   -5.20   17.80
   1  -4   9   -9.70   18.80
   1  -4   9   18.20   25.10
  -2   4  -9   16.00   32.00
  -2   4  -9  -29.80   22.00
  -2   4  -9   13.60   25.00
   2  -4   9    1.00   20.20
   2  -4   9   54.89   20.40
   2  -4   9   26.00   32.70
  -3   4  -9  106.09   42.70
  -3   4  -9   60.39   25.70
  -3   4  -9   55.69   28.20
   3  -4   9   20.50   28.10
   3  -4   9   61.69   23.50
   3  -4   9   47.00   38.60
   2   3  -9    2.80   27.60
   2   3  -9   13.80   27.90
   2   3  -9   77.09   32.90
  -2  -3   9   25.00   12.60
  -2  -3   9   19.10   23.10
  -2  -3   9   48.20   24.10
  -2  -3   9   44.80   31.50
   1   3  -9   44.20   25.20
   1   3  -9   31.20   26.30
  -1  -3   9   29.90   22.10
  -1  -3   9   34.60   43.10
  -1  -3   9   58.99   24.90
  -1  -3   9   51.09   19.00
   0   3  -9   43.80   24.70
   0   3  -9   68.89   31.60
   0   3  -9   57.99   24.40
   0   3  -9   77.79   21.90
   0  -3   9   65.99   26.10
   0  -3   9   98.39   23.00
   0  -3   9   67.39   23.30
   0  -3   9   72.09   46.10
  -1   3  -9   83.39   16.50
  -1   3  -9   90.19   25.10
  -1   3  -9   32.90   24.80
  -1   3  -9   97.69   28.00
  -1   3  -9   83.29   24.10
   1  -3   9   79.09   30.70
   1  -3   9   91.89   29.70
   1  -3   9   87.19   25.70
   1  -3   9   50.09   18.80
  -2   3  -9  292.67   41.20
  -2   3  -9  212.48   35.30
  -2   3  -9  240.88   18.10
  -2   3  -9  328.17   44.30
   2  -3   9  287.57   29.70
   2  -3   9  294.77   42.30
   2  -3   9  255.57   46.40
  -3   3  -9  -23.20   24.10
  -3   3  -9  101.39   24.90
  -3   3  -9   55.19   28.00
   3  -3   9   81.69   29.60
  -4   3  -9  123.39   34.20
  -4   3  -9   63.29   25.20
  -4   3  -9   56.59   34.50
   4  -3   9   65.49   26.20
   4  -3   9   74.59   38.10
   4  -3   9   76.39   30.20
   3   2  -9   26.50   35.40
   3   2  -9   22.30   21.00
   3   2  -9   39.00   21.40
  -3  -2   9   37.00   32.00
  -3  -2   9   73.29   29.80
  -3  -2   9   39.70   12.50
  -3  -2   9   72.89   29.90
   2   2  -9  175.98   37.00
   2   2  -9  161.58   38.50
   2   2  -9  103.19   30.00
   2   2  -9  120.89   34.40
  -2  -2   9  187.38   40.60
  -2  -2   9  119.79   21.80
  -2  -2   9  161.78   32.70
   1   2  -9   27.00   22.00
   1   2  -9  -25.60   15.50
   1   2  -9   17.80   18.30
   1   2  -9   12.50   23.70
  -1  -2   9   47.90   25.40
  -1  -2   9   33.00   19.40
  -1  -2   9   41.70   15.30
  -1  -2   9   24.30   17.60
   0   2  -9   38.30   18.90
   0   2  -9   67.39   19.00
   0   2  -9   27.10   29.60
   0  -2   9   35.10   17.60
   0  -2   9   31.60   20.70
   0  -2   9   24.00   14.80
   0  -2   9   66.49   23.30
  -1   2  -9   42.40   18.20
  -1   2  -9   43.40   19.10
  -1   2  -9   39.30   19.20
  -1   2  -9  103.79   20.20
  -1   2  -9   79.89   21.50
   1  -2   9   87.39   23.90
   1  -2   9   51.49   23.30
   1  -2   9   47.70   17.00
  -2   2  -9   48.90   15.50
  -2   2  -9   35.20   24.40
  -2   2  -9   62.89   20.20
  -2   2  -9   20.90   19.20
   2  -2   9   27.50   21.40
   2  -2   9   17.90   17.90
   2  -2   9   35.20   13.60
  -3   2  -9   18.30   20.50
  -3   2  -9   -1.00   17.50
  -3   2  -9   42.50   16.90
  -3   2  -9   38.90   14.20
   3  -2   9   22.00   22.90
   3  -2   9   28.80   24.50
  -4   2  -9   -7.10   15.60
  -4   2  -9  -10.20   24.00
   4  -2   9   20.70   20.00
   4  -2   9   16.30   21.60
   4  -2   9  -33.60   24.80
  -5   2  -9   23.70   25.00
  -5   2  -9   -7.50   16.70
   5  -2   9   -9.10   27.90
   5  -2   9   22.50   25.20
   5  -2   9   20.60   23.60
   4   1  -9  136.89   42.90
   4   1  -9  153.58   40.50
  -4  -1   9  122.29   16.60
  -4  -1   9  104.69   30.50
  -4  -1   9  135.99   33.70
   3   1  -9   48.80   20.60
   3   1  -9   61.49   25.50
   3   1  -9  148.79   36.00
  -3  -1   9   52.49   15.60
  -3  -1   9  117.19   32.10
  -3  -1   9   78.39   28.20
   2   1  -9   12.30   17.50
   2   1  -9  -18.80   13.00
   2   1  -9    1.00   14.10
  -2  -1   9   -8.00   19.30
  -2  -1   9    7.50   12.50
   1   1  -9   33.40   21.30
   1   1  -9   48.50   21.50
   1   1  -9   71.49   19.60
  -1  -1   9   67.19   25.50
  -1  -1   9   76.49   18.90
  -1  -1   9   52.19   23.10
   0   1  -9  399.36   35.50
   0   1  -9  358.66   34.60
   0   1  -9  402.16   42.90
   0  -1   9  321.67   42.70
   0  -1   9  338.77   34.80
   0  -1   9  412.26   40.60
  -1   1  -9   84.49   21.90
  -1   1  -9   18.30   17.30
  -1   1  -9   83.59   20.80
  -1   1  -9   43.00   15.70
   1  -1   9   70.19   17.60
   1  -1   9   26.40   15.60
   1  -1   9   43.90   22.50
  -2   1  -9  539.65   36.70
  -2   1  -9  453.65   43.20
  -2   1  -9  577.44   47.50
  -2   1  -9  523.05   36.50
   2  -1   9  536.65   51.79
   2  -1   9  568.54   33.70
   2  -1   9  540.45   46.80
  -3   1  -9  172.48   26.50
  -3   1  -9  129.19   21.30
  -3   1  -9  195.38   33.30
  -3   1  -9  150.48   27.70
   3  -1   9  172.08   34.30
   3  -1   9  156.58   14.90
   3  -1   9  168.78   35.40
  -4   1  -9  369.46   32.80
  -4   1  -9  406.16   52.09
  -4   1  -9  368.56   31.30
  -4   1  -9  290.47   37.30
   4  -1   9  368.66   50.09
   4  -1   9  396.76   51.29
   4  -1   9  329.87   44.00
  -5   1  -9   44.70   15.90
  -5   1  -9  -22.10   28.00
  -5   1  -9    5.20   17.10
  -5   1  -9   21.60   16.00
   5  -1   9    1.60   21.70
   5  -1   9   10.40   22.60
   5  -1   9   46.60   29.70
  -6   1  -9   71.39   23.20
  -6   1  -9   63.59   35.80
   6  -1   9   10.10   27.70
   6  -1   9   68.19   35.20
   6  -1   9  -12.10   24.70
   6  -1   9   28.30   18.70
   4   0  -9  -23.50   22.50
   4   0  -9  -39.80   24.10
  -4   0   9  -12.90   28.20
  -4   0   9    6.40   13.00
  -4   0   9    4.70   19.10
   3   0  -9    0.00   18.30
   3   0  -9    6.40   16.30
  -3   0   9   57.09   28.10
  -3   0   9   19.10   15.80
  -3   0   9    6.10   22.40
   2   0  -9   34.80   18.30
   2   0  -9  -12.10   13.30
   2   0  -9   12.90   12.00
  -2   0   9   39.00   19.10
  -2   0   9    2.30   12.10
   1   0  -9  572.94   32.90
   1   0  -9  520.35   46.10
  -1   0   9  536.55   46.30
  -1   0   9  472.05   46.60
  -1   0   9  559.04   40.60
   0   0  -9  297.07   29.10
   0   0   9  180.28   32.70
   0   0   9  284.17   35.20
  -1   0  -9  533.15   44.90
  -1   0  -9  607.24   42.70
  -1   0  -9  565.64   52.79
  -1   0  -9  655.23   37.10
   1   0   9  566.44   43.90
   1   0   9  580.14   48.00
  -2   0  -9   -1.20   12.10
  -2   0  -9    9.10   14.50
  -2   0  -9   14.20    9.60
  -2   0  -9    8.20   15.30
   2   0   9   30.10   17.30
   2   0   9    3.60   16.10
  -3   0  -9  238.28   21.10
  -3   0  -9  188.88   35.20
  -3   0  -9  260.07   34.10
  -3   0  -9  165.78   29.10
   3   0   9  218.48   16.10
   3   0   9  229.98   36.50
   3   0   9  162.98   32.60
  -4   0  -9   58.69   13.00
  -4   0  -9  104.99   27.60
  -4   0  -9   23.60   17.00
   4   0   9   46.20   19.20
   4   0   9   54.19   24.20
  -5   0  -9    8.00   15.00
  -5   0  -9  -10.10   21.70
  -5   0  -9    9.80   16.30
   5   0   9   12.00   22.30
   5   0   9   -7.80   17.50
   5   0   9   27.20   24.20
  -6   0  -9  124.29   23.80
  -6   0  -9  113.09   37.30
   6   0   9  117.19   35.60
   6   0   9  148.19   38.10
   6   0   9  129.79   19.80
   6   0   9  151.48   35.90
   5  -1  -9   68.19   30.60
  -5   1   9   29.60   27.60
   4  -1  -9   76.99   26.20
   4  -1  -9   28.60   26.20
  -4   1   9   27.20   30.00
  -4   1   9   64.09   28.00
  -4   1   9   55.29   19.10
   3  -1  -9   98.69   31.10
   3  -1  -9  145.19   29.90
  -3   1   9  146.79   31.20
  -3   1   9  183.48   31.20
  -3   1   9  225.08   41.20
  -3   1   9  185.88   27.80
   2  -1  -9    4.30   15.00
   2  -1  -9   -9.60   17.10
  -2   1   9   29.10   19.70
  -2   1   9   -4.00   11.80
  -2   1   9   -5.20   15.10
   1  -1  -9    7.70   14.80
  -1   1   9   -1.50   14.40
  -1   1   9   18.20   13.20
  -1   1   9    6.30   16.60
  -1   1   9  -34.00   15.10
   0  -1  -9  232.88   33.40
   0  -1  -9  204.98   14.90
   0  -1  -9  187.08   28.40
   0   1   9  177.08   29.30
   0   1   9  210.98   30.20
   0   1   9  235.88   34.60
  -1  -1  -9   -3.60   10.20
  -1  -1  -9    0.80   13.80
  -1  -1  -9  -19.30    6.10
  -1  -1  -9  -14.90   13.20
   1   1   9  -23.80   13.10
   1   1   9    0.90   13.10
  -2  -1  -9  427.66   37.30
  -2  -1  -9  441.56   42.80
  -2  -1  -9  370.16   20.70
  -2  -1  -9  458.85   41.20
   2   1   9  379.46   51.79
  -3  -1  -9   55.89   21.50
  -3  -1  -9   67.59    8.00
  -3  -1  -9   43.90   17.90
  -3  -1  -9   41.90   18.00
   3   1   9   32.20   16.70
   3   1   9   92.29   25.20
  -4  -1  -9  115.89   23.40
  -4  -1  -9  138.99   27.50
   4   1   9   36.40   24.00
   4   1   9  170.28   34.80
  -5  -1  -9  186.98   33.60
  -5  -1  -9  212.98   40.80
  -5  -1  -9  230.08   28.80
   5   1   9  258.87   40.50
   5   1   9  197.88   38.60
   5   1   9  200.88   36.00
  -6  -1  -9  -19.50   26.20
  -6  -1  -9    5.90   12.20
  -6  -1  -9  -38.80   15.40
   6   1   9    6.30   21.00
   6   1   9   37.70   22.30
   5  -2  -9   14.90   27.40
   5  -2  -9  -18.70   24.80
   5  -2  -9   42.30   33.80
  -5   2   9   15.20   11.30
  -5   2   9  -26.10   40.40
  -5   2   9   35.60   19.50
  -5   2   9  -23.70   23.00
   4  -2  -9   66.19   31.10
   4  -2  -9   72.39   24.40
   4  -2  -9  107.59   28.60
  -4   2   9   97.19   24.40
  -4   2   9   57.09   38.30
  -4   2   9   70.99   25.90
   3  -2  -9   35.20   17.40
   3  -2  -9   35.90   19.70
   3  -2  -9   24.00   19.60
  -3   2   9   48.30   26.50
  -3   2   9    1.80   17.60
  -3   2   9   64.29   19.70
  -3   2   9   12.80   19.30
   2  -2  -9   11.80   16.50
   2  -2  -9   17.10   15.20
  -2   2   9   28.90   15.60
  -2   2   9   20.30   15.80
  -2   2   9   49.40   21.00
   1  -2  -9  258.77   32.20
  -1   2   9  241.88   31.20
  -1   2   9  247.18   34.80
  -1   2   9  249.78   37.20
   0  -2  -9   11.80   15.80
   0  -2  -9    7.10   12.70
   0   2   9   15.40   12.60
   0   2   9   -0.10   13.20
   0   2   9   24.30   12.90
  -1  -2  -9  169.68   10.30
  -1  -2  -9  188.78   15.60
  -1  -2  -9  156.08   26.20
  -1  -2  -9  223.08   34.30
   1   2   9  180.78   30.20
   1   2   9  171.58   31.40
   1   2   9  143.79   25.60
  -2  -2  -9  217.28   19.80
  -2  -2  -9  187.98   32.00
  -2  -2  -9  237.58   34.60
  -2  -2  -9  247.38   38.30
   2   2   9  223.78   34.40
   2   2   9  150.08   27.20
   2   2   9  190.88   29.50
  -3  -2  -9  172.78   30.00
  -3  -2  -9  147.49   26.20
  -3  -2  -9  140.69   22.00
   3   2   9  160.68   30.50
   3   2   9   99.99   41.30
  -4  -2  -9  246.28   38.90
  -4  -2  -9  240.88   30.10
  -4  -2  -9  201.38   30.40
   4   2   9  215.38   36.30
   4   2   9  179.78   12.60
   4   2   9  192.48   32.60
  -5  -2  -9  257.97   40.70
  -5  -2  -9  328.87   45.90
  -5  -2  -9  341.17   30.50
  -5  -2  -9  313.67   41.30
   5   2   9  284.27   42.70
   5   2   9  275.07   44.50
   5   2   9  391.66   50.19
  -6  -2  -9  144.09   35.50
  -6  -2  -9  123.09   29.30
  -6  -2  -9   95.79   18.40
   6   2   9  127.49   34.20
   6   2   9   88.79   31.50
   6   2   9   79.59   36.90
   4  -3  -9  233.68   41.60
   4  -3  -9  262.37   45.10
   4  -3  -9  188.78   33.10
  -4   3   9  181.38   49.20
  -4   3   9  209.58   28.60
  -4   3   9  192.18   33.10
  -4   3   9  164.38   37.40
   3  -3  -9  130.89   29.00
   3  -3  -9   84.99   20.30
   3  -3  -9  153.38   33.90
  -3   3   9  116.59   29.00
  -3   3   9   86.99   31.30
  -3   3   9  144.69   28.30
   2  -3  -9  413.56   49.80
   2  -3  -9  376.26   38.00
   2  -3  -9  441.76   36.00
  -2   3   9  432.46   36.10
  -2   3   9  328.97   45.30
  -2   3   9  386.06   39.80
   1  -3  -9 1284.07   56.49
   1  -3  -9 1308.37   55.59
  -1   3   9 1359.96   73.69
  -1   3   9 1276.87   56.29
   0  -3  -9  938.21   38.90
   0  -3  -9  873.41   54.39
   0   3   9  890.11   46.90
   0   3   9  925.01   58.29
  -1  -3  -9  818.32   24.60
  -1  -3  -9  793.22   24.30
  -1  -3  -9  731.43   49.40
  -1  -3  -9  729.63   53.49
   1   3   9  846.32   57.29
   1   3   9  867.61   46.70
   1   3   9  807.02   52.89
  -2  -3  -9   42.30   10.00
  -2  -3  -9   40.70   20.00
   2   3   9   50.69   18.80
   2   3   9   56.69   16.80
   2   3   9   40.90   17.40
  -3  -3  -9   55.19   17.60
  -3  -3  -9   80.79   17.10
   3   3   9   75.29   20.90
   3   3   9   51.09   23.50
   3   3   9   26.80   15.50
  -4  -3  -9   99.39   20.70
  -4  -3  -9  141.19   25.90
  -4  -3  -9   33.50   20.90
  -4  -3  -9   95.89   25.50
   4   3   9  128.39   16.90
   4   3   9  141.89   28.20
   4   3   9  115.19   29.50
  -5  -3  -9    6.30   17.60
  -5  -3  -9    8.80   22.60
  -5  -3  -9   14.10   12.20
  -5  -3  -9   12.40   17.80
   5   3   9  -46.30   20.10
   5   3   9   -8.20   13.50
   5   3   9   -4.20   20.20
  -6  -3  -9  -13.50   10.60
  -6  -3  -9   17.10   24.30
  -6  -3  -9   46.00   22.10
   6   3   9   36.10   27.90
   6   3   9   22.20   26.10
   4  -4  -9   50.49   27.50
   4  -4  -9   11.40   16.50
  -4   4   9   69.69   31.20
  -4   4   9   44.10   19.20
  -4   4   9   36.90   20.60
  -4   4   9   35.20   22.10
   3  -4  -9  113.89   31.60
   3  -4  -9  116.29   26.30
   3  -4  -9  120.19   22.10
  -3   4   9  108.69   24.80
  -3   4   9  100.89   26.00
  -3   4   9  106.39   32.50
  -3   4   9  130.09   32.30
   2  -4  -9    1.60   21.30
   2  -4  -9   17.30   16.30
   2  -4  -9   18.90   12.90
  -2   4   9   -5.10   16.00
  -2   4   9   10.60   16.50
  -2   4   9    0.40   15.50
  -2   4   9   23.80   21.10
   1  -4  -9  623.74   38.60
  -1   4   9  641.34   36.00
  -1   4   9  774.52   59.19
  -1   4   9  718.63   55.19
  -1   4   9  608.74   48.60
   0  -4  -9   17.40    9.30
   0  -4  -9  -14.20   14.50
   0   4   9   39.90   18.00
   0   4   9    3.00    9.80
   0   4   9   10.10   17.70
  -1  -4  -9  484.75   16.40
  -1  -4  -9  486.65   44.90
  -1  -4  -9  606.14   46.10
   1   4   9  526.05   33.90
   1   4   9  469.15   42.90
   1   4   9  573.84   46.30
  -2  -4  -9  396.76   37.40
  -2  -4  -9  473.25   46.00
   2   4   9  444.56   34.60
   2   4   9  492.25   45.60
   2   4   9  529.35   42.80
  -3  -4  -9   88.79   18.00
  -3  -4  -9   69.89   25.30
  -3  -4  -9   86.99   22.40
   3   4   9  103.99   21.80
   3   4   9  118.39   26.10
   3   4   9   98.89   22.30
  -4  -4  -9   30.20   14.80
  -4  -4  -9   49.60   17.30
  -4  -4  -9   47.00   21.60
   4   4   9   36.80   20.00
   4   4   9   18.50   16.80
   4   4   9   21.50   15.10
   4   4   9   47.50   15.20
  -5  -4  -9   11.80   20.80
  -5  -4  -9   45.90   22.40
  -5  -4  -9   16.40   20.50
  -5  -4  -9   16.10   12.90
   5   4   9   22.90   25.00
   5   4   9   50.89   24.70
   5   4   9   31.50   24.20
   5   4   9   40.10   13.70
  -6  -4  -9   21.80   25.30
  -6  -4  -9   15.70   24.60
  -6  -4  -9    8.20   23.70
   6   4   9   -1.90   25.30
   6   4   9   42.70   37.70
   4  -5  -9  171.48   36.40
   4  -5  -9  153.28   22.90
   4  -5  -9   65.09   34.80
  -4   5   9  147.99   39.10
  -4   5   9  169.68   36.90
  -4   5   9  116.29   41.20
   3  -5  -9   55.29   26.80
   3  -5  -9    6.10   10.60
  -3   5   9  -10.30   19.10
  -3   5   9  -19.40   18.40
  -3   5   9   -8.90   18.80
  -3   5   9   34.40   26.90
   2  -5  -9  220.28   31.00
   2  -5  -9  215.58   39.50
  -2   5   9  213.48   37.40
  -2   5   9  191.78   39.30
  -2   5   9  168.08   33.20
  -2   5   9  186.78   34.60
   1  -5  -9  187.38   26.30
  -1   5   9  161.18   36.30
  -1   5   9  176.48   33.50
  -1   5   9  177.78   34.60
  -1   5   9  231.58   38.50
   0  -5  -9  267.77   44.10
   0  -5  -9  267.87   22.80
   0   5   9  327.57   44.70
   0   5   9  266.17   38.40
  -1  -5  -9    5.70   18.20
  -1  -5  -9    4.60    5.40
  -1  -5  -9    0.80   17.20
   1   5   9   -1.50    8.30
   1   5   9    1.80   11.10
   1   5   9  -11.50   12.00
  -2  -5  -9   84.59   22.40
  -2  -5  -9   56.69   24.10
   2   5   9   68.79   22.30
   2   5   9   86.19   16.70
   2   5   9   57.99   19.20
  -3  -5  -9  -10.60   12.60
  -3  -5  -9   17.10   16.90
   3   5   9  -21.20   19.20
   3   5   9   25.20   15.80
   3   5   9   30.40   13.30
  -4  -5  -9  127.89   24.80
  -4  -5  -9  115.99   32.90
   4   5   9  171.98   32.60
   4   5   9  115.89   21.90
   4   5   9  109.29   24.20
   4   5   9  185.48   27.90
  -5  -5  -9   38.30   16.00
  -5  -5  -9   43.00   24.50
  -5  -5  -9   64.79   24.50
   5   5   9   30.70   24.70
   5   5   9   45.00   26.40
   5   5   9   39.10   17.70
   5   5   9   69.29   19.20
  -6  -5  -9   18.80   23.40
   3  -6  -9   21.20   22.10
   3  -6  -9  -18.30   18.60
  -3   6   9   45.30   30.00
   2  -6  -9    8.50   16.90
  -2   6   9  -37.20   20.50
  -2   6   9   23.00   26.30
  -2   6   9  -56.09   21.90
   1  -6  -9   24.90   16.20
   1  -6  -9   35.60   18.70
  -1   6   9   -3.00   20.00
  -1   6   9   18.10   23.70
  -1   6   9   29.90   17.50
  -1   6   9   40.50   22.80
   0  -6  -9  165.08   38.30
   0  -6  -9  157.08   21.50
   0  -6  -9  186.98   34.40
   0   6   9  164.28   31.60
   0   6   9  152.08   37.20
   0   6   9  169.28   34.20
  -1  -6  -9   31.50   20.30
  -1  -6  -9   36.00    9.80
  -1  -6  -9  -12.90   15.90
   1   6   9   19.50   19.90
   1   6   9   37.00    5.10
   1   6   9   27.50   27.30
   1   6   9   52.69   24.60
  -2  -6  -9  387.86   53.29
   2   6   9  435.96   43.40
   2   6   9  369.06   25.30
   2   6   9  477.85   49.80
   2   6   9  323.37   51.19
  -3  -6  -9  174.38   37.80
  -3  -6  -9  202.98   32.00
   3   6   9  196.38   24.60
   3   6   9  159.08   33.30
   3   6   9  218.38   35.50
   3   6   9  205.28   34.40
   3   6   9  140.79   36.80
  -4  -6  -9  181.58   39.10
   4   6   9  120.19   30.80
   4   6   9  210.78   30.00
   4   6   9  135.29   36.30
   4   6   9  141.59   30.20
   4   6   9  163.38   37.10
  -5  -6  -9  137.59   36.10
   5   6   9  114.79   24.60
   5   6   9  181.88   45.40
   5   6   9  180.68   38.00
   5   6   9  226.18   43.00
   5   6   9  150.28   28.90
   2  -7  -9   64.89   26.80
  -2   7   9  115.19   36.60
  -2   7   9   51.19   30.70
   1  -7  -9   46.50   29.60
   1  -7  -9   50.89   28.20
   1  -7  -9   55.89   23.80
  -1   7   9   57.99   29.60
  -1   7   9   39.30   20.80
  -1   7   9   39.90   29.00
  -1   7   9   60.09   33.00
   0  -7  -9  -27.40   15.70
   0  -7  -9   -9.10   13.70
   0  -7  -9    2.60   20.40
   0   7   9    9.70   23.80
   0   7   9   60.09   26.20
   0   7   9   43.30   23.60
   0   7   9    2.30   30.10
  -1  -7  -9  -20.40   19.20
  -1  -7  -9   17.60   18.10
   1   7   9    5.90   14.20
   1   7   9   -2.40   27.40
   1   7   9   -8.70   19.70
  -2  -7  -9   13.00   20.50
  -2  -7  -9   25.20   20.80
   2   7   9    1.90   32.50
   2   7   9   -5.90   18.70
   2   7   9   35.80   25.40
  -3  -7  -9   69.19   30.10
   3   7   9   43.60   13.50
   3   7   9   44.40   13.80
   3   7   9   12.70   20.00
   3   7   9   65.19   27.80
   3   7   9   35.50   25.50
   3   7   9   -4.90   22.90
  -4  -7  -9  109.09   32.70
   4   7   9  113.59   35.60
   4   7   9   65.19   21.70
   4   7   9   77.49   29.00
   4   7   9  109.49   35.70
   4   7   9  125.49   23.50
   4   7   9  134.59   29.70
   4   7   9   67.39   30.20
   0  -8  -9   14.50   18.90
   0  -8  -9    3.30   16.90
   0   8   9   10.80   32.30
   0   8   9   18.40   31.50
   0   8   9   38.10   30.50
   0   8   9   18.80   22.20
   0   8   9   18.50   14.50
  -1  -8  -9   64.39   27.00
   1   8   9   46.60   41.00
   1   8   9   46.70   26.40
   1   8   9   78.89   37.50
  -2  -8  -9  145.19   39.60
   2   8   9  235.08   47.00
   2   8   9  172.78   48.50
   2   8   9  241.08   42.00
   1   3 -10  101.59   39.10
  -1  -3  10   76.49   31.20
  -1  -3  10  130.49   26.80
   0   3 -10  107.99   31.40
   0   3 -10   69.89   44.10
   0   3 -10   82.39   33.90
   0   3 -10   42.20   23.40
   0  -3  10   53.19   26.70
   0  -3  10   52.69   25.90
   0  -3  10  129.49   33.40
   0  -3  10   70.09   23.20
  -1   3 -10   56.79   22.30
  -1   3 -10   12.90   16.20
  -1   3 -10   39.50   46.00
  -1   3 -10    4.60   29.20
  -1   3 -10   19.70   21.90
   1  -3  10   14.20   19.00
   1  -3  10   48.20   36.20
   1  -3  10    1.20   24.10
   1  -3  10   26.20   22.10
  -2   3 -10    2.10   23.30
  -2   3 -10   -8.60   23.90
  -2   3 -10   86.19   30.00
  -2   3 -10   -0.90   12.20
   2  -3  10   -6.50   22.50
   2  -3  10    1.20   15.40
   2  -3  10   16.50   30.10
  -3   3 -10  -36.30   26.80
  -3   3 -10   72.89   43.90
  -3   3 -10    7.60   21.30
   3  -3  10   -0.50   27.80
   3  -3  10    8.20   24.10
   2   2 -10   72.69   38.70
   2   2 -10   16.10   31.80
   2   2 -10   49.99   28.50
   2   2 -10   46.20   23.50
  -2  -2  10  -12.70   24.50
  -2  -2  10   36.20   17.20
  -2  -2  10   52.49   31.00
  -2  -2  10   18.30   25.40
   1   2 -10  198.18   42.40
   1   2 -10  167.38   34.60
   1   2 -10  181.88   41.20
   1   2 -10  150.48   33.30
  -1  -2  10  162.68   28.10
  -1  -2  10  192.08   36.00
  -1  -2  10  206.68   41.20
   0   2 -10   28.60   20.80
   0   2 -10   32.00   26.90
   0   2 -10  -17.10   17.40
   0  -2  10  -12.40   19.80
   0  -2  10  -20.00   15.90
  -1   2 -10  108.19   24.80
  -1   2 -10   86.69   25.90
  -1   2 -10   68.19   28.10
  -1   2 -10   79.09   30.30
  -1   2 -10  105.09   21.80
   1  -2  10  132.59   34.00
   1  -2  10   94.19   27.60
   1  -2  10  107.29   22.90
  -2   2 -10   -3.50   24.00
  -2   2 -10   15.00   15.40
  -2   2 -10   19.30   22.80
  -2   2 -10   -2.10   16.30
   2  -2  10  -36.60   28.80
   2  -2  10   42.20   22.50
   2  -2  10    7.60   12.50
  -3   2 -10   43.70   27.60
  -3   2 -10   32.00   22.50
  -3   2 -10   33.30   16.60
  -3   2 -10   22.80   18.90
   3  -2  10   51.59   31.70
   3  -2  10  -25.60   22.50
  -4   2 -10  111.49   21.90
  -4   2 -10  101.19   33.80
  -4   2 -10   89.59   26.30
  -4   2 -10   93.29   32.30
   4  -2  10  102.69   31.70
   4  -2  10  149.29   31.90
   4  -2  10  116.79   37.50
   3   1 -10   68.69   29.90
   3   1 -10   82.99   24.20
   3   1 -10   55.29   33.20
  -3  -1  10   62.09   34.90
  -3  -1  10   80.89   30.10
  -3  -1  10   82.99   19.10
   2   1 -10   17.50   19.40
   2   1 -10   63.99   26.40
   2   1 -10   49.60   18.90
  -2  -1  10   63.59   28.50
  -2  -1  10   76.39   23.80
  -2  -1  10   43.20   19.30
   1   1 -10   53.39   23.30
   1   1 -10   26.50   15.90
   1   1 -10   71.49   25.70
   1   1 -10   22.30   25.10
  -1  -1  10   77.19   31.00
  -1  -1  10   52.79   18.00
  -1  -1  10   65.89   32.90
   0   1 -10  224.38   33.30
   0   1 -10  196.68   38.40
   0   1 -10  201.38   36.30
   0   1 -10  221.08   33.30
   0  -1  10  187.98   36.80
   0  -1  10  212.68   38.40
   0  -1  10  227.28   40.60
  -1   1 -10  180.08   35.40
  -1   1 -10  151.38   33.20
  -1   1 -10  179.18   30.60
  -1   1 -10  168.98   26.40
  -1   1 -10  151.18   30.20
   1  -1  10  190.38   32.40
   1  -1  10   95.19   27.60
   1  -1  10  131.99   23.20
  -2   1 -10  149.29   25.70
  -2   1 -10   77.99   26.70
  -2   1 -10  117.89   29.90
  -2   1 -10  134.99   24.60
   2  -1  10   62.49   29.70
   2  -1  10  120.39   27.50
   2  -1  10  125.99   20.70
  -3   1 -10  167.48   25.60
  -3   1 -10  229.18   38.20
  -3   1 -10  207.58   37.60
  -3   1 -10  261.67   32.70
   3  -1  10  218.88   19.90
   3  -1  10  256.27   45.60
   3  -1  10  178.48   38.30
  -4   1 -10   22.60   30.30
  -4   1 -10   14.90   14.00
  -4   1 -10  -24.90   19.30
  -4   1 -10   14.20   16.20
   4  -1  10    6.50   22.90
   4  -1  10  -28.30   19.80
  -5   1 -10  210.78   45.90
  -5   1 -10  175.78   30.40
  -5   1 -10  181.58   26.60
   5  -1  10  210.28   39.90
   5  -1  10  155.78   42.20
   3   0 -10   85.79   34.50
   3   0 -10  133.89   35.40
  -3   0  10  141.79   43.30
  -3   0  10   57.09   31.10
  -3   0  10  103.79   23.00
   2   0 -10   12.30   12.10
   2   0 -10   11.20   16.30
   2   0 -10  -10.20   14.10
  -2   0  10  -31.20   24.70
  -2   0  10    4.80   14.50
  -2   0  10  -23.90   20.60
   1   0 -10  376.76   27.70
   1   0 -10  418.86   50.89
   1   0 -10  304.07   44.20
  -1   0  10  359.86   37.90
  -1   0  10  329.07   45.20
  -1   0  10  221.08   37.40
   0   0 -10   12.20   13.40
   0   0 -10   15.70   19.20
   0   0 -10   15.00   14.20
   0   0  10  -13.90   17.80
  -1   0 -10  112.19   27.60
  -1   0 -10   97.59   26.00
  -1   0 -10  145.49   28.00
  -1   0 -10   69.89   24.80
   1   0  10  117.79   27.30
   1   0  10  128.19   28.80
  -2   0 -10    8.90   16.00
  -2   0 -10   14.50   11.60
  -2   0 -10   15.10   20.00
   2   0  10   16.90   17.40
   2   0  10   27.20   16.00
  -3   0 -10   19.20   10.80
  -3   0 -10   -1.90   19.90
  -3   0 -10  -14.00   14.90
   3   0  10    5.40   17.00
   3   0  10    9.80   16.30
  -4   0 -10    8.70    9.70
  -4   0 -10    8.10   16.40
  -4   0 -10   15.20   19.10
  -4   0 -10   68.49   28.70
   4   0  10   10.10   20.20
   4   0  10   -6.30   20.10
  -5   0 -10   54.59   22.40
  -5   0 -10   90.99   25.60
  -5   0 -10   32.10   29.00
   5   0  10  -11.60   30.40
   5   0  10  -18.20   27.80
   5   0  10   52.99   31.30
   4  -1 -10   29.40   27.40
   4  -1 -10   -4.20   24.50
  -4   1  10  -31.70   25.30
  -4   1  10    1.70   33.20
  -4   1  10   23.70   18.80
   3  -1 -10   33.10   24.90
  -3   1  10   75.09   33.90
  -3   1  10   62.99   25.10
  -3   1  10   47.20   20.50
   2  -1 -10   51.09   20.90
   2  -1 -10  108.89   26.70
  -2   1  10   97.59   26.60
  -2   1  10   82.89   32.40
  -2   1  10   96.49   22.10
   1  -1 -10  -35.30   12.70
  -1   1  10  -27.50   18.90
  -1   1  10   13.20   14.90
  -1   1  10   10.40   14.90
   0  -1 -10  231.48   34.80
   0  -1 -10  153.68   33.10
   0  -1 -10  213.58   27.70
   0  -1 -10  199.38   14.70
   0   1  10  222.98   34.70
   0   1  10  190.58   32.10
  -1  -1 -10  156.78   20.00
  -1  -1 -10  167.58   31.30
   1   1  10  157.28   31.10
   1   1  10  150.18   28.60
  -2  -1 -10   30.30   18.30
  -2  -1 -10    5.40   16.10
  -2  -1 -10   11.30   15.60
   2   1  10   15.50   18.60
   2   1  10   13.50   15.10
  -3  -1 -10  363.96   48.10
  -3  -1 -10  377.26   43.40
  -3  -1 -10  363.56   15.70
  -3  -1 -10  373.96   38.20
   3   1  10  376.26   47.60
   3   1  10  422.66   44.50
  -4  -1 -10   -2.90   14.80
  -4  -1 -10   30.40   18.40
  -4  -1 -10    3.80   16.10
   4   1  10   22.80   23.30
   4   1  10   33.70   20.10
  -5  -1 -10   21.80   19.00
  -5  -1 -10   56.69   29.70
  -5  -1 -10   83.89   22.90
   5   1  10   50.99   28.10
   5   1  10   69.09   33.90
   5   1  10   40.30   28.40
  -6  -1 -10   33.40   17.20
  -6  -1 -10   34.80   45.70
  -6  -1 -10   25.60   22.70
   6   1  10  -10.00   31.60
   6   1  10   27.80   24.10
   6   1  10   -1.40   28.60
   4  -2 -10  -22.20   26.20
   4  -2 -10  -23.20   28.00
   4  -2 -10    5.00   27.00
  -4   2  10   17.30   35.80
  -4   2  10   68.49   22.70
  -4   2  10   36.40   30.70
   3  -2 -10   21.30   23.10
   3  -2 -10   75.89   28.80
  -3   2  10   90.39   27.60
  -3   2  10   74.79   30.30
  -3   2  10   41.10   20.70
   2  -2 -10   80.99   35.70
   2  -2 -10    1.40   21.20
   2  -2 -10   33.20   17.90
  -2   2  10   -6.90   14.80
  -2   2  10   53.19   24.20
  -2   2  10   59.79   27.00
  -2   2  10    6.80   18.90
   1  -2 -10  103.09   23.60
  -1   2  10  248.58   43.10
  -1   2  10  106.79   27.80
  -1   2  10  162.78   30.70
  -1   2  10  172.38   43.70
   0  -2 -10   -6.20   12.90
   0   2  10  -10.50   14.30
   0   2  10   17.20   14.30
   0   2  10    6.30   17.00
  -1  -2 -10   25.30   10.20
   1   2  10    1.60   11.00
   1   2  10   48.70   21.20
  -2  -2 -10   83.19   24.70
  -2  -2 -10   71.79   24.50
  -2  -2 -10   65.69   20.80
  -2  -2 -10   56.49   14.50
   2   2  10   86.59   26.30
   2   2  10   67.39   22.90
  -3  -2 -10   66.69   25.30
  -3  -2 -10   44.00   18.50
  -3  -2 -10   59.59   16.20
   3   2  10   26.70   20.30
   3   2  10   37.40   22.70
  -4  -2 -10  -10.70   13.60
  -4  -2 -10   22.80   14.60
  -4  -2 -10  -10.00   20.20
   4   2  10   -1.90    5.50
   4   2  10    4.30   18.90
   4   2  10  -20.20   12.80
  -5  -2 -10   -9.20   15.90
  -5  -2 -10   12.90   20.80
  -5  -2 -10   22.90   15.80
   5   2  10  -55.59   20.90
   5   2  10  -35.10   23.50
   5   2  10   15.30   21.60
  -6  -2 -10  -66.89   28.80
  -6  -2 -10   23.80   21.30
  -6  -2 -10  -26.70   21.80
  -6  -2 -10  -10.20   14.20
   6   2  10  -29.60   26.70
   6   2  10  -33.80   27.30
   6   2  10   60.49   33.30
   4  -3 -10   81.59   28.30
   4  -3 -10    0.60   29.30
   4  -3 -10  125.39   36.60
  -4   3  10  103.89   24.20
  -4   3  10   36.30   25.20
  -4   3  10    0.40   54.89
   3  -3 -10   29.80   18.70
   3  -3 -10   50.99   56.09
  -3   3  10   68.29   32.90
  -3   3  10   77.89   24.30
  -3   3  10   89.89   28.10
   2  -3 -10   43.70   23.90
   2  -3 -10   40.50   17.80
  -2   3  10   27.40   21.70
  -2   3  10   31.80   16.60
  -2   3  10   48.30   26.80
  -2   3  10   36.20   18.20
   1  -3 -10   98.59   22.50
   1  -3 -10  121.49   22.50
  -1   3  10   66.49   20.80
  -1   3  10   84.79   27.70
  -1   3  10  105.49   23.10
   0  -3 -10    4.60    9.60
   0  -3 -10  -12.00   19.10
   0   3  10   11.60   19.30
   0   3  10   -5.80   16.10
   0   3  10   -4.40   12.60
  -1  -3 -10  500.25   20.10
  -1  -3 -10  593.14   49.50
  -1  -3 -10  503.15   20.20
   1   3  10  559.44   49.99
   1   3  10  495.95   40.00
   1   3  10  514.35   46.70
  -2  -3 -10  710.23   55.89
  -2  -3 -10  653.53   49.99
   2   3  10  764.62   58.29
   2   3  10  689.23   50.79
   2   3  10  738.43   49.50
  -3  -3 -10  997.80   57.49
  -3  -3 -10  987.30   46.00
  -3  -3 -10  892.21   63.29
   3   3  10  920.21   58.99
   3   3  10  928.31   68.89
   3   3  10  918.51   66.69
  -4  -3 -10  541.35   51.79
  -4  -3 -10  480.35   41.10
  -4  -3 -10  485.45   40.60
  -4  -3 -10  526.45   53.59
   4   3  10  438.86   47.00
   4   3  10  454.75   57.49
   4   3  10  453.95   27.60
  -5  -3 -10  364.76   50.79
  -5  -3 -10  489.35   72.99
  -5  -3 -10  365.06   34.10
  -5  -3 -10  460.35   58.69
   5   3  10  355.26   48.90
   5   3  10  447.76   62.19
   5   3  10  507.35   60.19
  -6  -3 -10   55.89   33.40
  -6  -3 -10    7.40   26.80
  -6  -3 -10   61.79   18.00
  -6  -3 -10   60.19   26.40
   6   3  10   92.49   36.10
   6   3  10   68.09   33.70
   6   3  10   91.49   40.60
   3  -4 -10  104.69   29.60
   3  -4 -10   98.29   23.20
  -3   4  10   94.29   25.70
  -3   4  10   76.69   31.70
  -3   4  10   22.40   32.80
  -3   4  10  108.19   27.70
   2  -4 -10   19.50   17.20
   2  -4 -10    4.90   13.20
  -2   4  10   12.10   13.50
  -2   4  10   60.29   23.40
  -2   4  10   26.10   24.60
  -2   4  10   -9.00   20.80
   1  -4 -10   77.09   19.90
   1  -4 -10  122.09   29.10
  -1   4  10  116.49   20.80
  -1   4  10  116.59   28.90
  -1   4  10   63.99   25.10
  -1   4  10  120.29   28.30
   0  -4 -10   23.00   16.90
   0  -4 -10   45.80   12.10
   0   4  10   33.30   23.00
   0   4  10   30.50   14.00
   0   4  10   36.60   20.60
  -1  -4 -10   54.39   23.90
   1   4  10   57.49   16.90
   1   4  10  112.79   24.80
   1   4  10   54.99   20.90
  -2  -4 -10   12.90   19.90
  -2  -4 -10   40.20   22.40
   2   4  10   36.70   17.30
   2   4  10   14.70   17.20
   2   4  10   51.49   23.00
  -3  -4 -10  419.86   39.90
  -3  -4 -10  354.16   49.10
   3   4  10  439.86   42.70
   3   4  10  381.56   50.69
   3   4  10  467.75   43.10
  -4  -4 -10   93.29   32.10
  -4  -4 -10   63.69   21.00
  -4  -4 -10   59.49   19.60
   4   4  10   61.49   20.10
   4   4  10   29.40   21.80
   4   4  10   45.50   16.20
   4   4  10   62.99   24.40
  -5  -4 -10   83.89   21.40
  -5  -4 -10  120.39   34.30
   5   4  10  114.39   17.10
   5   4  10   99.29   36.20
   5   4  10  143.89   36.00
   5   4  10   70.59   25.00
   3  -5 -10   49.99   33.50
   3  -5 -10   -5.40   13.10
   3  -5 -10  -32.20   21.20
  -3   5  10  -11.70   20.70
  -3   5  10  -95.09   30.80
   2  -5 -10   25.00   29.10
   2  -5 -10   32.90   19.70
  -2   5  10   13.10   34.50
  -2   5  10   43.70   26.30
  -2   5  10   56.39   26.70
   1  -5 -10  -27.40   15.00
   1  -5 -10    0.00   12.70
  -1   5  10  -19.00   24.60
  -1   5  10   14.30   16.90
  -1   5  10   25.30   22.80
  -1   5  10  -16.40   24.20
   0  -5 -10  -20.40   15.40
   0  -5 -10    8.00    9.70
   0  -5 -10    9.90   16.10
   0   5  10    5.20    9.50
   0   5  10   15.10   21.80
   0   5  10   31.50   21.90
  -1  -5 -10  181.58   35.10
  -1  -5 -10  226.58   41.50
   1   5  10  223.78   24.00
   1   5  10  221.28   37.60
   1   5  10  179.48   35.40
  -2  -5 -10  167.38   36.20
   2   5  10  108.49   28.70
   2   5  10  166.98   31.30
   2   5  10  111.99   20.40
  -3  -5 -10  114.59   32.20
  -3  -5 -10  144.69   35.80
   3   5  10  180.28   37.40
   3   5  10  136.99   27.70
   3   5  10  139.59   26.10
  -4  -5 -10   60.59   23.80
  -4  -5 -10  124.29   33.00
   4   5  10  121.19   28.10
   4   5  10  117.79   30.40
   4   5  10   92.69   24.40
   4   5  10  121.19   23.50
  -5  -5 -10  -21.30   17.00
  -5  -5 -10  -18.10   20.70
  -5  -5 -10  -25.50   18.70
   5   5  10  -16.90   15.40
   5   5  10   -9.30   23.60
   5   5  10   37.00   18.40
   5   5  10   39.30   32.10
   2  -6 -10   88.89   32.60
   2  -6 -10  151.58   29.80
  -2   6  10  103.49   33.80
  -2   6  10  104.19   29.40
  -2   6  10  123.39   38.50
   1  -6 -10   11.50   15.50
   1  -6 -10   -5.50   19.50
  -1   6  10   10.40   24.20
  -1   6  10   51.49   29.00
  -1   6  10   26.40   23.70
  -1   6  10   -4.10   27.10
   0  -6 -10  191.88   35.00
   0  -6 -10  205.58   44.20
   0  -6 -10  263.67   25.20
   0   6  10  231.18   43.20
   0   6  10  181.68   38.80
   0   6  10  224.78   43.50
   0   6  10  172.78   38.80
  -1  -6 -10    5.20   12.80
  -1  -6 -10  -11.10   21.00
   1   6  10   -0.10   19.50
   1   6  10   -9.40   15.00
   1   6  10   10.00    8.90
   1   6  10   42.80   31.20
  -2  -6 -10   47.70   26.60
  -2  -6 -10  124.59   35.70
   2   6  10  121.79   29.20
   2   6  10   78.69   16.80
   2   6  10  151.88   32.50
   2   6  10   60.09   42.90
  -3  -6 -10    2.10   18.20
  -3  -6 -10  -16.20   18.20
   3   6  10  -10.00   13.70
   3   6  10   29.30   20.90
   3   6  10   -1.10   21.00
   3   6  10    6.70   28.30
  -4  -6 -10    2.10   19.10
   4   6  10   18.20   22.40
   4   6  10   40.70   33.20
   4   6  10   -2.90   19.90
   4   6  10  -35.00   24.50
   1  -7 -10   19.10   27.30
   1  -7 -10   45.40   28.20
   1  -7 -10   81.89   37.30
  -1   7  10    6.40   32.50
  -1   7  10   48.20   30.00
  -1   7  10   37.60   35.00
  -1   7  10   68.59   41.80
   0  -7 -10    3.70   24.90
   0  -7 -10   -5.30   25.50
   0  -7 -10   17.50   15.70
   0   7  10   34.70   28.40
   0   7  10    5.30   27.80
   0   7  10  -38.10   30.20
  -1  -7 -10   75.79   30.80
  -1  -7 -10   46.40   33.80
   1   7  10    8.80   25.80
   1   7  10   -1.20   26.00
   1   7  10   23.40   26.90
  -2  -7 -10  -19.20   16.20
  -2  -7 -10    5.50   23.70
   2   7  10  -23.60   23.70
   2   7  10   41.70   35.20
  -3  -7 -10   43.70   27.50
  -3  -7 -10  144.79   36.20
   3   7  10  154.58   46.40
   3   7  10  186.88   35.30
   3   7  10  144.09   34.10
   3   7  10  107.09   18.70
   0   2 -11    4.80   31.10
   0  -2  11    1.70   29.40
   0  -2  11   14.10   22.10
   0  -2  11    8.50   32.30
   0  -2  11   -4.00   20.90
  -1   2 -11  -15.60   31.00
  -1   2 -11   -0.50   17.60
  -1   2 -11   -4.20   24.50
  -1   2 -11    6.10   22.00
  -1   2 -11   29.50   25.90
   1  -2  11   -0.30   25.70
   1  -2  11    6.30   22.80
   1  -2  11   17.50   19.30
   1  -2  11    5.00   33.90
  -2   2 -11    3.20   22.30
  -2   2 -11  -19.60   20.10
  -2   2 -11   -3.30   17.00
  -2   2 -11   22.80   25.40
   2  -2  11  -16.50   14.80
   2  -2  11   20.60   22.60
   2  -2  11   -2.40   35.90
   1   1 -11  -20.90   26.90
   1   1 -11   70.89   28.90
   1   1 -11  112.99   28.80
   1   1 -11  122.19   24.60
  -1  -1  11  101.49   35.40
  -1  -1  11   13.20   29.90
  -1  -1  11  106.09   28.60
  -1  -1  11   84.19   24.20
   0   1 -11   49.70   31.20
   0   1 -11   18.90   20.40
   0   1 -11   57.99   30.50
   0  -1  11   24.00   36.60
   0  -1  11   17.30   29.10
   0  -1  11   18.20   20.00
   0  -1  11   58.69   23.10
  -1   1 -11   79.79   25.70
  -1   1 -11   53.09   23.70
  -1   1 -11   58.39   28.50
  -1   1 -11   55.99   21.10
   1  -1  11   48.20   24.10
   1  -1  11   38.50   20.00
  -2   1 -11   -2.60   16.90
  -2   1 -11    4.80   17.00
  -2   1 -11   -5.70   26.00
   2  -1  11   -4.50   14.10
   2  -1  11  -19.60   21.30
   2  -1  11   26.00   22.70
  -3   1 -11   23.60   17.80
  -3   1 -11   83.99   35.80
  -3   1 -11   44.30   17.20
  -3   1 -11   29.70   28.00
   3  -1  11    8.20   10.70
   3  -1  11   50.29   30.60
   3  -1  11   20.20   31.80
  -4   1 -11   24.70   27.00
  -4   1 -11   -7.00   18.10
  -4   1 -11   47.50   35.00
   4  -1  11  -44.80   31.30
   4  -1  11  -29.10   21.50
   4  -1  11   49.10   29.50
   2   0 -11  -15.30   21.60
   2   0 -11    0.20   22.80
  -2   0  11   -4.10   26.30
   1   0 -11    7.00   28.00
   1   0 -11    6.60   12.30
   1   0 -11  -30.30   18.90
   1   0 -11   43.10   19.50
  -1   0  11  -24.60   22.40
  -1   0  11   33.10   20.30
  -1   0  11   30.70   26.40
   0   0 -11   35.10   20.00
   0   0 -11   61.89   17.10
   0   0 -11   60.39   27.30
   0   0  11   70.79   28.80
   0   0  11   79.59   30.80
   0   0  11   51.19   24.70
  -1   0 -11   31.00   19.80
  -1   0 -11   79.49   28.40
  -1   0 -11   39.80   18.10
  -1   0 -11    7.10   25.20
   1   0  11   43.20   25.10
   1   0  11  103.59   26.80
  -2   0 -11  390.26   50.69
  -2   0 -11  267.57   44.00
  -2   0 -11  319.07   29.50
  -2   0 -11  309.57   41.90
   2   0  11  329.27   30.50
   2   0  11  265.67   44.60
   2   0  11  384.56   49.70
  -3   0 -11   81.49   24.50
  -3   0 -11  132.59   30.30
  -3   0 -11   62.19   26.90
  -3   0 -11   60.49   15.40
   3   0  11   70.39   13.40
   3   0  11  174.18   39.50
   3   0  11  116.29   35.70
  -4   0 -11  275.57   39.40
  -4   0 -11  237.58   39.50
  -4   0 -11  287.17   48.50
   4   0  11  377.66   55.89
   4   0  11  351.06   53.29
   2  -1 -11   24.60   26.70
   2  -1 -11   -1.40   25.50
  -2   1  11   28.50   34.20
  -2   1  11  -70.79   24.30
  -2   1  11   -8.10   19.30
   1  -1 -11   76.49   26.40
  -1   1  11    5.70   22.50
  -1   1  11   97.19   34.40
  -1   1  11   59.79   23.10
   0  -1 -11   22.30   25.10
   0  -1 -11   15.40    5.00
   0  -1 -11   39.40   22.00
   0  -1 -11   24.80   14.70
   0   1  11   12.80   18.00
   0   1  11    9.50   19.60
   0   1  11  -39.40   25.40
  -1  -1 -11  343.97   46.10
  -1  -1 -11  413.86   41.40
  -1  -1 -11  448.06   32.00
   1   1  11  505.95   48.10
   1   1  11  348.07   47.60
  -2  -1 -11  238.88   40.80
  -2  -1 -11  158.18   37.70
  -2  -1 -11  220.58   41.30
  -2  -1 -11  211.08   20.10
   2   1  11  214.98   38.70
   2   1  11  156.18   34.90
  -3  -1 -11  127.99    8.90
  -3  -1 -11  136.09   30.50
  -3  -1 -11  208.18   40.30
  -3  -1 -11  176.68   34.50
   3   1  11  149.29   34.60
   3   1  11  104.99   32.80
  -4  -1 -11   23.30   25.70
  -4  -1 -11   53.39   22.70
  -4  -1 -11    4.20   29.50
   4   1  11   64.89   27.20
   4   1  11   82.39   33.90
  -5  -1 -11   22.00   21.60
   5   1  11   37.70   31.90
   5   1  11   23.20   23.70
   3  -2 -11   -1.60   34.80
   3  -2 -11   84.69   32.10
   3  -2 -11   80.99   30.60
  -3   2  11   86.99   26.90
  -3   2  11   41.60   31.10
  -3   2  11   72.69   31.70
  -3   2  11   24.90   26.40
   2  -2 -11   69.89   27.50
   2  -2 -11   45.60   23.60
   2  -2 -11   56.39   29.50
  -2   2  11   85.59   25.80
  -2   2  11   83.69   23.00
  -2   2  11   56.59   27.40
  -2   2  11   85.59   31.80
   1  -2 -11   55.19   20.00
   1  -2 -11   78.19   24.10
   1  -2 -11   58.89   27.40
  -1   2  11   62.19   21.50
  -1   2  11   41.20   21.70
  -1   2  11   43.00   24.10
  -1   2  11   49.30   22.00
   0  -2 -11  116.69   22.20
   0  -2 -11  170.58   34.90
   0   2  11  155.68   31.00
   0   2  11  161.38   36.30
   0   2  11  133.89   32.20
   0   2  11  144.89   32.10
  -1  -2 -11   44.30   11.60
  -1  -2 -11   23.50   18.10
  -1  -2 -11   44.30   10.60
  -1  -2 -11   50.89   23.80
   1   2  11    8.60   21.00
   1   2  11   39.30   21.30
  -2  -2 -11  146.59   32.10
  -2  -2 -11  234.48   38.10
   2   2  11  186.28   35.80
   2   2  11  215.48   38.00
  -3  -2 -11  163.88   34.00
  -3  -2 -11  248.18   44.60
  -3  -2 -11  240.28   27.40
  -3  -2 -11  216.28   41.80
   3   2  11  197.78   39.30
   3   2  11  215.08   39.80
  -4  -2 -11   -5.40   19.20
  -4  -2 -11    0.50   16.50
  -4  -2 -11   24.80   20.80
   4   2  11    3.00   25.20
   4   2  11    7.90   10.00
   4   2  11   -9.40   23.40
  -5  -2 -11   50.79   22.00
  -5  -2 -11   56.69   25.40
  -5  -2 -11   59.89   26.00
  -5  -2 -11   33.00   31.60
   5   2  11   54.69   32.70
   5   2  11   69.49   38.80
   5   2  11   76.89   32.60
   3  -3 -11  105.49   45.60
   3  -3 -11  -20.20   22.30
  -3   3  11   -6.90   22.10
  -3   3  11   60.69   33.50
  -3   3  11   27.20   24.60
   2  -3 -11   20.90   24.60
   2  -3 -11   39.30   21.40
  -2   3  11   -3.30   32.30
  -2   3  11   46.80   22.20
  -2   3  11   36.00   21.00
  -2   3  11  -12.20   22.60
   1  -3 -11  123.59   40.00
   1  -3 -11   75.29   22.40
   1  -3 -11  155.98   28.00
  -1   3  11   27.30   32.90
  -1   3  11  108.89   31.80
  -1   3  11  115.99   31.20
  -1   3  11   67.79   22.90
   0  -3 -11   -2.00   22.20
   0  -3 -11    1.90   10.90
   0   3  11    1.60   14.80
   0   3  11   39.10   20.00
  -1  -3 -11  477.45   19.40
  -1  -3 -11  457.25   49.30
  -1  -3 -11  443.36   52.29
  -1  -3 -11  481.05   20.10
   1   3  11  453.25   45.40
   1   3  11  500.35   49.50
   1   3  11  568.14   52.99
  -2  -3 -11  122.59   28.80
  -2  -3 -11  132.69   31.00
   2   3  11   92.69   26.30
   2   3  11  138.79   30.30
   2   3  11   95.29   27.00
  -3  -3 -11    2.70   11.40
  -3  -3 -11   -0.70   17.20
   3   3  11  -10.80   19.50
   3   3  11   -6.00   21.80
  -4  -3 -11   17.50   16.10
  -4  -3 -11   -8.40   27.70
  -4  -3 -11   15.90   17.20
   4   3  11   18.40   25.80
   4   3  11  -33.40   17.50
   4   3  11    7.60   11.50
  -5  -3 -11  186.08   32.00
  -5  -3 -11   87.49   31.40
  -5  -3 -11  176.88   50.09
  -5  -3 -11  190.38   51.39
   5   3  11  167.18   38.70
   5   3  11  116.79   35.60
   5   3  11  194.48   40.80
   2  -4 -11   11.70   17.00
   2  -4 -11   30.10   29.30
   2  -4 -11   27.80   20.90
  -2   4  11   53.89   34.20
  -2   4  11  115.09   38.20
  -2   4  11   12.80   22.80
  -2   4  11   17.70   18.80
   1  -4 -11    1.40   15.40
   1  -4 -11    1.20   36.10
  -1   4  11  -20.90   20.90
  -1   4  11   27.00   25.50
  -1   4  11   12.50   14.90
   0  -4 -11   97.99   15.80
   0  -4 -11  141.59   34.00
   0   4  11  121.29   32.30
   0   4  11   91.09   28.80
   0   4  11  116.99   23.80
  -1  -4 -11   38.90   23.60
  -1  -4 -11   19.80   22.00
   1   4  11   -7.50   20.90
   1   4  11  -20.50   14.40
   1   4  11   14.00   20.20
  -2  -4 -11   12.10   22.90
  -2  -4 -11    4.30   19.20
   2   4  11   42.40   24.00
   2   4  11   24.80   25.40
   2   4  11   -6.00   16.50
  -3  -4 -11    2.00   19.20
  -3  -4 -11   13.00   21.80
   3   4  11    7.10   18.20
   3   4  11    7.90   18.80
   3   4  11   -6.50   18.10
  -4  -4 -11   10.70   17.00
  -4  -4 -11   20.40   17.90
   4   4  11    2.10   13.50
   4   4  11   17.40   26.20
   4   4  11  -23.20   18.80
   4   4  11   14.10   21.20
   2  -5 -11   56.29   24.40
   2  -5 -11   54.79   34.60
  -2   5  11   97.59   36.80
  -2   5  11   63.99   35.10
  -2   5  11   11.60   21.60
  -2   5  11   39.60   25.90
   1  -5 -11  200.28   28.00
   1  -5 -11  245.38   45.20
  -1   5  11  192.18   40.00
  -1   5  11  206.08   43.60
  -1   5  11  196.98   45.80
  -1   5  11  174.58   23.00
  -1   5  11  279.97   48.50
   0  -5 -11  -24.90   16.70
   0  -5 -11   -9.60   10.10
   0   5  11   -0.50   33.50
   0   5  11   15.30   22.80
   0   5  11    2.30   12.20
   0   5  11  -45.00   22.00
  -1  -5 -11  124.59   36.10
  -1  -5 -11  145.79   38.30
   1   5  11  123.49   23.00
   1   5  11  106.39   34.60
   1   5  11  148.49   33.90
  -2  -5 -11   37.20   25.10
  -2  -5 -11  -10.10   18.90
   2   5  11   39.90   23.30
   2   5  11   21.80   15.50
   2   5  11   53.89   27.00
  -3  -5 -11   -2.80   20.80
  -3  -5 -11   25.20   23.30
   3   5  11  -13.50   19.20
   3   5  11   31.30   22.20
   3   5  11   -6.80   19.10
  -4  -5 -11   23.00   24.70
  -4  -5 -11   22.50   23.90
   4   5  11   18.80   23.00
   4   5  11  -20.20   17.50
   4   5  11   -5.60   23.10
   4   5  11   13.70   20.00
   1  -6 -11  430.36   68.49
   1  -6 -11  374.66   37.80
   1  -6 -11  438.86   63.49
  -1   6  11  325.67   51.69
  -1   6  11  433.86   64.19
  -1   6  11  365.56   57.09
   0  -6 -11   32.10   25.30
   0  -6 -11   16.80   13.20
   0  -6 -11   24.20   19.80
   0   6  11    7.00   27.60
   0   6  11   20.10   33.00
   0   6  11   76.39   32.30
  -1  -6 -11   47.60   29.50
  -1  -6 -11  113.69   32.50
   1   6  11   80.79   13.70
   1   6  11   67.29   36.60
   1   6  11   27.20   26.70
  -2  -6 -11   14.90   19.80
  -2  -6 -11  -12.40   23.00
   2   6  11   -2.70   23.40
   2   6  11    6.60   14.00
   2   6  11   -0.70   26.80
  -3  -6 -11   18.70   23.30
  -3  -6 -11   24.30   24.60
   3   6  11    0.40   17.60
   3   6  11   44.10   24.60
   3   6  11   56.89   30.70
   0   0 -12  146.59   40.30
   0   0  12   77.89   29.00
   0   0  12   99.59   35.80
   0   0  12   42.20   35.90
  -1   0 -12   26.80   19.70
  -1   0 -12   62.89   26.20
  -1   0 -12   59.29   26.80
   1   0  12   83.69   29.60
   1   0  12   68.99   38.60
  -2   0 -12  116.09   37.30
  -2   0 -12   68.79   33.60
  -2   0 -12   63.99   18.60
  -2   0 -12   99.89   29.00
   2   0  12   79.89   29.10
   2   0  12  112.19   39.80
   2   0  12   89.19   21.00
   1  -1 -12  112.59   32.20
  -1   1  12   50.29   26.10
  -1   1  12   81.69   30.10
  -1   1  12    9.10   35.60
   0  -1 -12   15.30   30.10
   0  -1 -12   79.69   22.00
   0  -1 -12  106.49   35.00
   0   1  12    5.40   24.00
   0   1  12   73.89   35.80
   0   1  12  -18.50   28.00
  -1  -1 -12  123.19   21.90
  -1  -1 -12  213.58   39.20
  -1  -1 -12  188.38   41.70
   1   1  12  196.88   39.80
   1   1  12  152.58   37.10
  -2  -1 -12  100.09   40.10
  -2  -1 -12  110.89   31.50
  -2  -1 -12   96.89   15.90
   2   1  12  125.29   36.40
   2   1  12  190.08   38.20
  -3  -1 -12  -31.80   28.10
  -3  -1 -12   15.90   22.70
  -3  -1 -12  -17.20   19.80
   3   1  12   60.79   39.40
   3   1  12   -4.10   11.10
   1  -2 -12  -22.40   19.30
   1  -2 -12    0.10   31.40
   1  -2 -12  -19.10   21.30
  -1   2  12    4.30   19.00
  -1   2  12   -0.60   23.40
   0  -2 -12  -42.30   25.80
   0  -2 -12   20.70   15.60
   0  -2 -12   13.70   15.20
   0   2  12   -4.70   25.40
   0   2  12   -8.50   23.00
   0   2  12  -52.19   26.60
  -1  -2 -12  230.38   23.10
  -1  -2 -12  253.37   43.10
  -1  -2 -12  155.98   18.80
  -1  -2 -12   94.59   30.50
   1   2  12  216.88   41.30
   1   2  12  203.38   36.50
  -2  -2 -12   17.40    7.40
  -2  -2 -12   16.90   24.30
  -2  -2 -12   18.70   20.20
   2   2  12   61.79   26.30
   2   2  12   15.00   26.20
  -3  -2 -12  168.48   39.50
  -3  -2 -12  241.38   41.50
  -3  -2 -12  121.69   21.70
  -3  -2 -12  174.08   36.60
   3   2  12  101.49   36.60
   1  -3 -12   15.00   18.30
   1  -3 -12   51.09   35.90
  -1   3  12  -15.90   24.40
  -1   3  12  -20.10   26.30
  -1   3  12   42.50   24.00
  -1   3  12   32.20   40.50
   0  -3 -12   46.00   15.50
   0  -3 -12   27.40   14.70
   0  -3 -12   49.00   28.00
   0   3  12   21.60   30.40
   0   3  12   19.30   22.50
   0   3  12   49.00   28.30
   0   3  12   24.80   22.40
  -1  -3 -12   11.80   20.90
  -1  -3 -12   -5.90    5.90
  -1  -3 -12   45.80   30.80
  -1  -3 -12    1.30    5.00
   1   3  12    7.60   21.70
   1   3  12    0.70   22.40
   1   3  12   43.90   24.40
  -2  -3 -12  113.69   33.50
  -2  -3 -12  100.19   31.70
   2   3  12  149.19   35.40
   2   3  12  119.99   29.70
   2   3  12  159.18   32.80
  -3  -3 -12  201.68   37.50
  -3  -3 -12  245.98   44.20
  -3  -3 -12  190.58   23.50
   3   3  12  100.49   30.90
  -1   4  12   -7.30   28.10
  -1   4  12   46.70   27.20
  -1   4  12   19.20   25.20
   0  -4 -12   15.30   23.10
   0  -4 -12  -25.50   26.10
   0  -4 -12   -1.40   12.30
   0   4  12   20.00   27.00
   0   4  12    4.50   31.50
  -1  -4 -12   13.10   17.90
  -1  -4 -12   17.60   26.60
   1   4  12   31.10   21.70
   1   4  12    2.50   26.90
   1   4  12   25.60   27.90
  -2  -4 -12    4.00   20.30
  -2  -4 -12  -12.40   25.60
   2   4  12   78.29   23.90
   2   4  12   45.90   28.30
  -3  -4 -12   54.89   26.90
  -3  -4 -12   -4.50   20.00
   3   4  12   38.70   31.00
   3   4  12   39.40   26.00
   3   4  12   38.80   26.20
   0  -5 -12  283.27   50.39
  -1  -5 -12   37.10   23.80
  -1  -5 -12  101.19   30.30
   1   5  12   19.00   31.90
   1   5  12  -10.60   25.60
   1   5  12   52.19   20.20
  -2  -5 -12  138.69   38.30
  -2  -5 -12   62.09   31.30
   2   5  12  100.29   38.00
   2   5  12   81.89   32.90
   2   5  12   64.09   23.30
   0   0   0    0.00    0.00

_computing_structure_solution     'SHELXT 2018/2 (Sheldrick, 2018)'
;
loop_
_space_group_symop_operation_xyz
'x, y, z'
'-x, -y, -z'
loop_
_atom_site_label
_atom_site_type_symbol
_atom_site_fract_x
_atom_site_fract_y
_atom_site_fract_z
_atom_site_U_iso_or_equiv
_atom_site_adp_type
_atom_site_occupancy
_atom_site_site_symmetry_order
_atom_site_calc_flag
_atom_site_refinement_flags_posn
_atom_site_refinement_flags_adp
_atom_site_refinement_flags_occupancy
_atom_site_disorder_assembly
_atom_site_disorder_group
C1 C 0.1938(3) -0.2739(3) 0.6848(2) 0.0201(5) Uani 1 1 d . . . . .
C2 C 0.2139(3) -0.0704(3) 0.6168(2) 0.0171(5) Uani 1 1 d . . . . .
C3 C 0.2667(3) -0.0091(3) 0.4740(2) 0.0181(5) Uani 1 1 d . . . . .
H3 H 0.286515 -0.096305 0.420772 0.022 Uiso 1 1 calc R U . . .
C4 C 0.2912(3) 0.1804(3) 0.4068(2) 0.0195(5) Uani 1 1 d . . . . .
C5 C 0.2590(3) 0.3016(3) 0.4909(2) 0.0206(5) Uani 1 1 d . . . . .
H5 H 0.272691 0.431174 0.450083 0.025 Uiso 1 1 calc R U . . .
C6 C 0.1855(3) 0.0557(3) 0.6956(2) 0.0200(5) Uani 1 1 d . . . . .
H6 H 0.150678 0.015737 0.793892 0.024 Uiso 1 1 calc R U . . .
Cl1 Cl 0.68697(8) 0.21373(7) 0.87046(6) 0.01990(16) Uani 1 1 d . . . . .
N1 N 0.2089(3) 0.2353(2) 0.62844(19) 0.0213(4) Uani 1 1 d . . . . .
H1 H 0.190000 0.315350 0.678280 0.026 Uiso 1 1 calc R U . . .
N2 N 0.3484(3) 0.2445(3) 0.2676(2) 0.0301(5) Uani 1 1 d . . . . .
H2A H 0.365850 0.364063 0.228915 0.036 Uiso 1 1 calc R U . . .
H2B H 0.368185 0.166698 0.216015 0.036 Uiso 1 1 calc R U . . .
O1 O 0.2351(3) -0.3857(2) 0.61864(17) 0.0323(4) Uani 1 1 d . . . . .
O2 O 0.1300(3) -0.3156(2) 0.81855(16) 0.0258(4) Uani 1 1 d . . . . .
H2 H 0.137636 -0.430011 0.853099 0.039 Uiso 1 1 calc R U . . .
O3 O 0.5590(3) 0.1041(2) 0.82217(19) 0.0332(4) Uani 1 1 d . . . . .
O4 O 0.7986(3) 0.3422(3) 0.7533(2) 0.0443(5) Uani 1 1 d . . . . .
O5 O 0.5694(3) 0.3152(3) 0.9539(2) 0.0366(5) Uani 1 1 d . . . . .
O6 O 0.8201(2) 0.0957(2) 0.95093(17) 0.0243(4) Uani 1 1 d . . . . .
O1W O 0.1691(2) 0.3292(2) 0.90705(17) 0.0237(4) Uani 1 1 d G . . . .
H1WA H 0.276046 0.300689 0.944213 0.036 Uiso 1 1 d G U . . .
H1WB H 0.083147 0.244687 0.956493 0.036 Uiso 1 1 d G U . . .
loop_
_atom_site_aniso_label
_atom_site_aniso_U_11
_atom_site_aniso_U_22
_atom_site_aniso_U_33
_atom_site_aniso_U_23
_atom_site_aniso_U_13
_atom_site_aniso_U_12
C1 0.0213(12) 0.0182(11) 0.0204(12) -0.0050(9) -0.0022(9) -0.0011(9)
C2 0.0184(11) 0.0147(10) 0.0193(11) -0.0063(9) -0.0033(9) 0.0011(8)
C3 0.0207(11) 0.0155(10) 0.0198(11) -0.0068(9) -0.0043(9) 0.0020(9)
C4 0.0196(11) 0.0206(11) 0.0199(12) -0.0070(9) -0.0058(9) 0.0032(9)
C5 0.0247(12) 0.0135(10) 0.0230(12) -0.0036(9) -0.0046(10) 0.0021(9)
C6 0.0234(12) 0.0180(11) 0.0182(11) -0.0048(9) -0.0023(9) 0.0016(9)
Cl1 0.0210(3) 0.0176(3) 0.0205(3) -0.0043(2) -0.0031(2) 0.0019(2)
N1 0.0288(11) 0.0149(9) 0.0224(10) -0.0095(8) -0.0028(8) 0.0024(8)
N2 0.0526(14) 0.0179(10) 0.0178(10) -0.0036(8) -0.0019(10) 0.0028(9)
O1 0.0605(13) 0.0149(8) 0.0214(9) -0.0080(7) 0.0010(8) -0.0016(8)
O2 0.0400(10) 0.0156(8) 0.0192(9) -0.0043(7) 0.0037(7) 0.0001(7)
O3 0.0309(10) 0.0381(10) 0.0401(11) -0.0247(9) -0.0091(8) -0.0003(8)
O4 0.0332(11) 0.0377(11) 0.0419(12) 0.0209(9) -0.0012(9) -0.0020(8)
O5 0.0356(10) 0.0417(11) 0.0462(12) -0.0325(9) -0.0131(9) 0.0177(8)
O6 0.0256(9) 0.0197(8) 0.0238(9) 0.0010(7) -0.0056(7) 0.0055(7)
O1W 0.0220(9) 0.0193(8) 0.0263(9) -0.0007(7) -0.0024(7) -0.0006(7)
loop_
_atom_type_symbol
_atom_type_description
_atom_type_scat_dispersion_real
_atom_type_scat_dispersion_imag
_atom_type_scat_source
C C 0.0033 0.0016 'International Tables Vol C Tables 4.2.6.8 and 6.1.1.4'
H H 0.0000 0.0000 'International Tables Vol C Tables 4.2.6.8 and 6.1.1.4'
Cl Cl 0.1484 0.1585 'International Tables Vol C Tables 4.2.6.8 and 6.1.1.4'
O O 0.0106 0.0060 'International Tables Vol C Tables 4.2.6.8 and 6.1.1.4'
N N 0.0061 0.0033 'International Tables Vol C Tables 4.2.6.8 and 6.1.1.4'
loop_
_geom_angle_atom_site_label_1
_geom_angle_atom_site_label_2
_geom_angle_atom_site_label_3
_geom_angle
_geom_angle_site_symmetry_1
_geom_angle_site_symmetry_3
O1 C1 C2 121.4(2) . .
O1 C1 O2 124.9(2) . .
O2 C1 C2 113.71(18) . .
C3 C2 C1 119.02(19) . .
C3 C2 C6 120.1(2) . .
C6 C2 C1 120.8(2) . .
C2 C3 H3 119.6 . .
C2 C3 C4 120.7(2) . .
C4 C3 H3 119.6 . .
C5 C4 C3 116.8(2) . .
N2 C4 C3 122.2(2) . .
N2 C4 C5 121.0(2) . .
C4 C5 H5 119.9 . .
N1 C5 C4 120.1(2) . .
N1 C5 H5 119.9 . .
C2 C6 H6 121.1 . .
N1 C6 C2 117.7(2) . .
N1 C6 H6 121.1 . .
O3 Cl1 O4 109.51(12) . .
O3 Cl1 O5 108.93(11) . .
O3 Cl1 O6 109.79(10) . .
O4 Cl1 O5 108.98(12) . .
O4 Cl1 O6 109.24(10) . .
O5 Cl1 O6 110.37(10) . .
C5 N1 C6 124.49(19) . .
C5 N1 H1 117.8 . .
C6 N1 H1 117.8 . .
C4 N2 H2A 120.0 . .
C4 N2 H2B 120.0 . .
H2A N2 H2B 120.0 . .
C1 O2 H2 109.5 . .
H1WA O1W H1WB 104.5 . .
loop_
_geom_bond_atom_site_label_1
_geom_bond_atom_site_label_2
_geom_bond_distance
_geom_bond_site_symmetry_2
C1 C2 1.498(3) .
C1 O1 1.214(3) .
C1 O2 1.310(3) .
C2 C3 1.384(3) .
C2 C6 1.388(3) .
C3 H3 0.9500 .
C3 C4 1.403(3) .
C4 C5 1.399(3) .
C4 N2 1.355(3) .
C5 H5 0.9500 .
C5 N1 1.336(3) .
C6 H6 0.9500 .
C6 N1 1.338(3) .
Cl1 O3 1.4358(17) .
Cl1 O4 1.4363(18) .
Cl1 O5 1.4387(17) .
Cl1 O6 1.4408(16) .
N1 H1 0.8800 .
N2 H2A 0.8800 .
N2 H2B 0.8800 .
O2 H2 0.8400 .
O1W H1WA 0.8698 .
O1W H1WB 0.8702 .
loop_
_geom_torsion_atom_site_label_1
_geom_torsion_atom_site_label_2
_geom_torsion_atom_site_label_3
_geom_torsion_atom_site_label_4
_geom_torsion
_geom_torsion_site_symmetry_1
_geom_torsion_site_symmetry_2
_geom_torsion_site_symmetry_3
_geom_torsion_site_symmetry_4
C1 C2 C3 C4 -178.6(2) . . . .
C1 C2 C6 N1 179.0(2) . . . .
C2 C3 C4 C5 -0.3(3) . . . .
C2 C3 C4 N2 178.0(2) . . . .
C2 C6 N1 C5 -0.5(3) . . . .
C3 C2 C6 N1 0.7(3) . . . .
C3 C4 C5 N1 0.5(3) . . . .
C4 C5 N1 C6 -0.2(3) . . . .
C6 C2 C3 C4 -0.3(3) . . . .
N2 C4 C5 N1 -177.8(2) . . . .
O1 C1 C2 C3 4.9(3) . . . .
O1 C1 C2 C6 -173.4(2) . . . .
O2 C1 C2 C3 -175.5(2) . . . .
O2 C1 C2 C6 6.3(3) . . . .
