#------------------------------------------------------------------------------
#$Date: 2022-03-18 09:48:06 +0200 (Fri, 18 Mar 2022) $
#$Revision: 273781 $
#$URL: file:///home/coder/svn-repositories/cod/cif/8/10/47/8104781.cif $
#------------------------------------------------------------------------------
#
# This file is available in the Crystallography Open Database (COD),
# http://www.crystallography.net/
#
# All data on this site have been placed in the public domain by the
# contributors.
#
data_8104781
loop_
_publ_author_name
'Ha, Kwang'
_publ_section_title
;
 Crystal structure of poly[tetra(\m 2-cyanido-\k2
 N:O)-bis(N,N-dimethylformamide-\kO)-manganese(II)-platinum(II)],
 C10H14MnN6O2Pt
;
_journal_issue                   3
_journal_name_full
'Zeitschrift f\"ur Kristallographie - New Crystal Structures'
_journal_page_first              613
_journal_page_last               614
_journal_paper_doi               10.1515/ncrs-2021-0028
_journal_volume                  236
_journal_year                    2021
_chemical_formula_moiety         'C10 H14 Mn N6 O2 Pt'
_chemical_formula_sum            'C10 H14 Mn N6 O2 Pt'
_chemical_formula_weight         500.30
_chemical_name_systematic
;
<i>catena</i>-[tetra(\m~2~-cyanido)-bis(<i>N,N</i>-dimethylformamide-
\k-<i>O</i>)-manganese(II)-platinum(II)]
;
_space_group_crystal_system      monoclinic
_space_group_IT_number           12
_space_group_name_Hall           '-C 2y'
_space_group_name_H-M_alt        'C 1 2/m 1'
_atom_sites_solution_hydrogens   difmap
_atom_sites_solution_primary     direct
_atom_sites_solution_secondary   difmap
_cell_angle_alpha                90
_cell_angle_beta                 110.8462(17)
_cell_angle_gamma                90
_cell_formula_units_Z            2
_cell_length_a                   15.8030(7)
_cell_length_b                   7.6794(3)
_cell_length_c                   7.0970(3)
_cell_measurement_reflns_used    9985
_cell_measurement_temperature    223(2)
_cell_measurement_theta_max      26.10
_cell_measurement_theta_min      2.76
_cell_volume                     804.89(6)
_computing_cell_refinement       'Bruker SAINT [1]'
_computing_data_collection       'Bruker APEX2 [1]'
_computing_data_reduction        'Bruker SAINT [1]'
_computing_molecular_graphics    'ORTEP-III [3]'
_computing_publication_material  'SHELXL-2014/7 [2]'
_computing_structure_refinement  'SHELXL-2014/7 [2]'
_computing_structure_solution    'SHELXL-2014/7 [2]'
_diffrn_ambient_temperature      223(2)
_diffrn_measured_fraction_theta_full 0.995
_diffrn_measured_fraction_theta_max 0.995
_diffrn_measurement_device_type  'PHOTON 100 CMOS detector'
_diffrn_measurement_method       '\f and \w scans'
_diffrn_radiation_type           MoK\a
_diffrn_radiation_wavelength     0.71073
_diffrn_reflns_av_R_equivalents  0.0538
_diffrn_reflns_av_unetI/netI     0.0178
_diffrn_reflns_Laue_measured_fraction_full 0.995
_diffrn_reflns_Laue_measured_fraction_max 0.995
_diffrn_reflns_limit_h_max       19
_diffrn_reflns_limit_h_min       -19
_diffrn_reflns_limit_k_max       9
_diffrn_reflns_limit_k_min       -9
_diffrn_reflns_limit_l_max       8
_diffrn_reflns_limit_l_min       -8
_diffrn_reflns_number            13288
_diffrn_reflns_point_group_measured_fraction_full 0.995
_diffrn_reflns_point_group_measured_fraction_max 0.995
_diffrn_reflns_theta_full        25.242
_diffrn_reflns_theta_max         26.113
_diffrn_reflns_theta_min         2.990
_diffrn_source                   'sealed tube'
_exptl_absorpt_coefficient_mu    9.474
_exptl_absorpt_correction_T_max  0.7453
_exptl_absorpt_correction_T_min  0.5127
_exptl_absorpt_correction_type   multi-scan
_exptl_absorpt_process_details   'SADABS (Bruker, 2016) [1]'
_exptl_crystal_colour            colorless
_exptl_crystal_density_diffrn    2.064
_exptl_crystal_description       Block
_exptl_crystal_F_000             470
_exptl_crystal_size_max          0.19
_exptl_crystal_size_mid          0.18
_exptl_crystal_size_min          0.10
_refine_diff_density_max         0.480
_refine_diff_density_min         -0.634
_refine_diff_density_rms         0.086
_refine_ls_extinction_coef       .
_refine_ls_extinction_method     none
_refine_ls_goodness_of_fit_ref   1.099
_refine_ls_hydrogen_treatment    refall
_refine_ls_matrix_type           full
_refine_ls_number_parameters     74
_refine_ls_number_reflns         857
_refine_ls_number_restraints     0
_refine_ls_restrained_S_all      1.099
_refine_ls_R_factor_all          0.0108
_refine_ls_R_factor_gt           0.0108
_refine_ls_shift/su_max          0.000
_refine_ls_shift/su_mean         0.000
_refine_ls_structure_factor_coef Fsqd
_refine_ls_weighting_details
'w=1/[\s^2^(Fo^2^)+(0.0155P)^2^] where P=(Fo^2^+2Fc^2^)/3'
_refine_ls_weighting_scheme      calc
_refine_ls_wR_factor_gt          0.0266
_refine_ls_wR_factor_ref         0.0266
_reflns_Friedel_coverage         0.000
_reflns_Friedel_fraction_full    .
_reflns_Friedel_fraction_max     .
_reflns_number_gt                857
_reflns_number_total             857
_reflns_threshold_expression     'I > 2\s(I)'
_cod_data_source_file            suppl_j_ncrs-2021-0028_suppl.cif
_cod_data_source_block           '[Mn(DMF)2Pt(CN)4]'
_cod_depositor_comments
;
The following automatic conversions were performed:

data item '_exptl_absorpt_correction_type' value 'Multi-scan' was
changed to 'multi-scan' in accordance with the built-in table derived
from the CIF Core dictionary named 'cif_core.dic' version 2.4.5 last
updated on 2014-11-21.

Automatic conversion script
Id: cif_fix_values 8738 2021-04-28 16:35:53Z antanas 
;
_cod_original_sg_symbol_H-M      'C 2/m'
_cod_database_code               8104781
_shelx_space_group_comment
;
The symmetry employed for this shelxl refinement is uniquely defined
by the following loop, which should always be used as a source of
symmetry information in preference to the above space-group names.
They are only intended as comments.
;
_shelx_estimated_absorpt_t_min   0.266
_shelx_estimated_absorpt_t_max   0.451
_shelx_res_file
;

    [Mn(DMF)2Pt(CN)4].res created by SHELXL-2014/7


TITL [Mn(DMF)2Pt(CN)4]n
CELL 0.71073  15.80300   7.67940   7.09700  90.0000 110.8462  90.0000
ZERR    2.00   0.00070   0.00030   0.00030   0.0000   0.0017   0.0000
LATT  7
SYMM -X, Y, -Z
SFAC C  H  MN N O PT
UNIT 20 28 2 12 4 2
MERG 2
L.S. 18
LIST 4
OMIT 0   2   0
OMIT 1   1   1
OMIT -3   1   1
OMIT 2   0   0
ACTA
BOND $H
CONF
FMAP 2
PLAN -5
TEMP -50
SIZE 0.10 0.18 0.19
WGHT    0.015500
FVAR       0.13154
PT1   6    0.000000    0.500000    1.000000    10.25000    0.02083    0.00904 =
         0.01030    0.00000    0.00723    0.00000
MN1   3    0.000000    0.000000    0.500000    10.25000    0.02297    0.01091 =
         0.01411    0.00000    0.01100    0.00000
O1    5    0.135263    0.000000    0.482607    10.50000    0.02500    0.04173 =
         0.02958    0.00000    0.01414    0.00000
N1    4    0.037215    0.205629    0.734619    11.00000    0.03443    0.01816 =
         0.02292   -0.00563    0.01460   -0.00084
N2    4    0.232495    0.000000    0.312656    10.50000    0.01965    0.04253 =
         0.03295    0.00000    0.01312    0.00000
C1    1    0.025845    0.315671    0.832502    11.00000    0.02285    0.01639 =
         0.01718    0.00258    0.00903   -0.00196
C2    1    0.151284    0.000000    0.324068    10.50000    0.02155    0.03129 =
         0.02993    0.00000    0.01048    0.00000
H2    2    0.100288    0.000000    0.189704    10.50000    0.02908
C3    1    0.245006    0.000000    0.118592    10.50000    0.03678    0.08652 =
         0.04294    0.00000    0.02338    0.00000
H3A   2    0.300207    0.000000    0.598927    10.50000    0.07403
H3B   2    0.284475    0.100207    0.121587    11.00000    0.07480
C4    1    0.313352    0.000000    0.493152    10.50000    0.02400    0.10005 =
         0.04842    0.00000    0.00667    0.00000
H4A   2    0.184522    0.000000    0.010561    10.50000    0.06941
H4B   2    0.354117    0.088693    0.484132    11.00000    0.10750
HKLF 4

REM  [Mn(DMF)2Pt(CN)4]n
REM R1 =  0.0108 for     857 Fo > 4sig(Fo)  and  0.0108 for all     857 data
REM     74 parameters refined using      0 restraints

END

WGHT      0.0155      0.0000

REM Highest difference peak  0.480,  deepest hole -0.634,  1-sigma level  0.086
Q1    1   0.0000  0.6146  1.0000  10.50000  0.05    0.48
Q2    1   0.2526  0.1195  0.1626  11.00000  0.05    0.29
Q3    1  -0.1249  0.5000  0.9027  10.50000  0.05    0.28
Q4    1   0.0766  0.0918  0.7400  11.00000  0.05    0.26
Q5    1  -0.0432  0.6542  1.0653  11.00000  0.05    0.26
;
_shelx_hkl_file
;
   2   0   0  552.57   25.88
   2   0   0  570.22   25.89
   2   0   0  554.19   25.88
  -2   0   0  591.21   25.96
  -2   0   0  557.09   25.88
  -2   0   0  586.38   25.91
  -2   0   0  543.97   25.83
  -2   0   0  576.92   25.90
  -4   0   0  798.17   36.91
   4   0   0  762.48   36.88
  -4   0   0  816.09   37.05
   4   0   0  794.39   36.90
   4   0   0  798.18   37.02
   4   0   0  787.98   36.77
  -4   0   0  811.68   36.71
  -4   0   0  855.08   36.99
  -4   0   0  798.89   36.81
  -4   0   0  816.87   36.95
   4   0   0  819.18   36.93
   6   0   0  542.70   26.14
   6   0   0  572.55   25.98
   6   0   0  564.19   26.19
   6   0   0  582.83   26.20
  -6   0   0  566.53   26.37
  -6   0   0  545.42   26.20
  -6   0   0  561.19   26.19
  -6   0   0  541.52   26.03
   6   0   0  550.27   26.32
  -6   0   0  587.35   26.29
   8   0   0  437.31   20.19
   8   0   0  435.91   20.48
  -8   0   0  442.24   20.61
   8   0   0  414.65   20.69
   8   0   0  423.26   20.44
  -8   0   0  426.77   20.73
  -8   0   0  416.70   20.31
  -8   0   0  424.51   20.47
   8   0   0  435.82   20.49
  10   0   0  131.83    7.17
  10   0   0  125.08    7.64
 -10   0   0  133.14    7.31
 -10   0   0  120.12    7.00
 -10   0   0  127.92    7.42
  10   0   0  122.94    7.18
  10   0   0  127.51    6.76
  10   0   0  134.32    7.12
 -10   0   0  123.03    7.26
  12   0   0  130.90    7.36
  12   0   0  125.24    7.24
 -12   0   0  124.43    7.42
  12   0   0  124.66    7.42
 -12   0   0  119.92    7.74
 -12   0   0  108.31    7.98
  12   0   0  118.53    8.10
  12   0   0  131.48    6.87
 -12   0   0  124.36    7.52
 -12   0   0  129.11    7.50
 -14   0   0   72.44    5.99
  14   0   0   85.24    5.05
 -14   0   0   78.13    6.14
  14   0   0   65.66    5.80
 -14   0   0   88.43    5.99
 -14   0   0   78.56    6.43
 -14   0   0   68.25    6.74
  14   0   0   91.05    5.83
  16   0   0   57.23    4.67
 -16   0   0   72.72    5.82
 -16   0   0   56.49    6.06
 -16   0   0   66.60    6.75
  16   0   0   63.99    5.66
 -16   0   0   58.44    7.81
  16   0   0   56.87    4.99
  16   0   0   66.44    6.32
 -16   0   0   59.74    6.15
 -18   0   0   21.72    4.55
  18   0   0   31.42    3.72
  18   0   0    2.27    6.46
  18   0   0   21.52    5.69
 -18   0   0   15.62    4.79
  18   0   0   23.70    3.62
 -18   0   0   24.88    5.15
 -18   0   0   19.61    5.54
 -18   0   0   26.10    6.66
  18   0   0   31.67    4.63
  18   0   0   26.90    5.06
  -1  -1   0  101.05    4.93
  -1  -1   0  101.98    5.07
  -1  -1   0   99.15    5.15
   1  -1   0   99.46    5.06
   1  -1   0  101.22    4.91
   1  -1   0  102.70    4.93
  -1  -1   0  102.92    5.07
  -1  -1   0  103.18    4.94
   1   1   0  115.35    5.00
  -1   1   0  105.93    4.94
   1   1   0  103.92    4.93
   1   1   0  102.34    5.05
   1   1   0   98.81    4.92
  -1   1   0  106.62    4.97
  -1   1   0   97.67    4.98
   1   1   0   99.45    5.07
   1   1   0   97.19    5.16
  -1   1   0  106.27    5.11
   3  -1   0  281.84   13.04
   3  -1   0  254.70   12.89
   3  -1   0  293.51   12.88
  -3  -1   0  276.63   13.21
  -3  -1   0  268.55   12.99
  -3  -1   0  267.73   12.92
  -3  -1   0  281.33   13.12
   3  -1   0  273.88   13.02
   3  -1   0  287.02   12.85
  -3  -1   0  262.21   13.05
  -3   1   0  274.84   12.85
   3   1   0  310.82   13.06
   3   1   0  266.80   13.09
  -3   1   0  277.73   13.02
   3   1   0  270.02   13.20
   3   1   0  270.79   12.99
   3   1   0  279.86   12.91
  -3   1   0  281.02   12.90
  -3   1   0  275.59   13.06
  -3   1   0  272.06   12.93
   3   1   0  266.06   13.03
  -5  -1   0  205.34   10.17
   5  -1   0  213.27   10.05
   5  -1   0  217.71   10.13
  -5  -1   0  213.50   10.40
  -5  -1   0  196.78   10.30
   5  -1   0  210.23   10.34
  -5  -1   0  209.54   10.29
   5  -1   0  210.54   10.18
  -5  -1   0  212.31   10.53
   5   1   0  211.85   10.28
  -5   1   0  211.36   10.32
   5   1   0  197.92   10.31
   5   1   0  208.44   10.09
   5   1   0  207.01   10.27
  -5   1   0  208.98   10.13
  -5   1   0  199.88   10.31
   5   1   0  243.87   10.44
   5   1   0  197.18   10.47
  -5   1   0  221.97   10.25
  -5   1   0  202.24   10.10
  -7  -1   0   71.70    4.56
   7  -1   0   77.31    4.39
   7  -1   0   75.83    4.21
  -7  -1   0   74.49    4.36
   7  -1   0   75.65    4.67
  -7  -1   0   70.09    4.57
  -7  -1   0   76.56    4.44
   7  -1   0   74.20    4.35
  -7  -1   0   76.86    4.54
   7  -1   0   73.97    4.08
   7   1   0   76.70    4.38
  -7   1   0   73.32    4.27
  -7   1   0   75.18    4.32
   7   1   0   76.92    4.36
   7   1   0   73.73    4.54
  -7   1   0   69.55    4.55
  -7   1   0   77.57    4.38
  -7   1   0   73.74    4.48
   7   1   0   73.76    4.83
   7   1   0   74.67    4.15
   9  -1   0   67.00    4.83
  -9  -1   0   69.42    4.81
   9  -1   0   71.50    4.41
  -9  -1   0   70.57    3.61
  -9  -1   0   70.20    4.47
  -9  -1   0   62.00    4.67
  -9  -1   0   75.50    4.67
   9  -1   0   72.76    4.27
   9  -1   0   69.28    4.42
   9  -1   0   69.36    4.03
  -9  -1   0   72.97    4.62
   9   1   0   70.17    4.06
  -9   1   0   71.25    4.62
  -9   1   0   67.47    4.37
  -9   1   0   68.63    4.41
   9   1   0   68.98    4.67
   9   1   0   65.83    4.37
  -9   1   0   68.84    4.82
   9   1   0   73.48    4.38
  -9   1   0   62.42    4.30
   9   1   0   69.20    4.98
  11  -1   0  149.88    7.97
 -11  -1   0  134.40    8.43
  11  -1   0  137.48    8.61
  11  -1   0  144.71    7.63
 -11  -1   0  138.59    8.06
  11  -1   0  142.13    8.09
 -11  -1   0  145.24    8.30
 -11  -1   0  141.98    6.88
  11  -1   0  145.84    8.09
 -11  -1   0  149.54    8.66
 -11  -1   0  149.26    8.34
 -11   1   0  148.99    8.17
 -11   1   0  140.15    8.12
  11   1   0  142.30    8.88
 -11   1   0  136.46    8.03
  11   1   0  153.95    8.15
  11   1   0  153.29    8.20
  11   1   0  140.80    8.25
  11   1   0  143.19    7.64
 -11   1   0  137.61    8.55
 -11   1   0  141.31    8.39
 -13  -1   0   23.45    3.21
 -13  -1   0   23.33    3.37
  13  -1   0   23.72    2.61
  13  -1   0   26.12    2.53
  13  -1   0   28.76    3.76
 -13  -1   0   19.42    3.39
  13  -1   0   23.98    3.01
 -13   1   0   25.32    3.39
 -13   1   0   23.36    3.84
  13   1   0   18.98    3.09
 -13   1   0   24.99    3.24
 -13   1   0   23.99    3.17
 -13   1   0   23.98    3.32
  13   1   0   27.06    2.53
  15  -1   0   47.05    5.82
  15  -1   0   37.80    4.68
 -15  -1   0   42.17    4.46
 -15  -1   0   45.04    4.81
  15  -1   0   32.23    3.68
  15  -1   0   51.23    4.36
 -15  -1   0   33.51    4.49
 -15  -1   0   39.15    5.19
 -15   1   0   37.77    4.79
  15   1   0   39.49    4.28
 -15   1   0   39.09    5.43
 -15   1   0   35.96    4.60
  15   1   0   40.53    3.70
 -15   1   0   45.64    4.55
 -15   1   0   35.29    4.82
  17  -1   0   27.47    3.55
 -17  -1   0   24.14    4.04
  17  -1   0   22.17    5.25
  17  -1   0   27.02    3.97
 -17  -1   0   24.14    6.15
  17  -1   0   24.40    4.49
 -17  -1   0   23.70    5.33
 -17  -1   0   22.57    4.53
 -17  -1   0   16.49    4.60
  17   1   0    4.08    5.45
  17   1   0   17.15    3.32
 -17   1   0   29.37    5.04
  17   1   0   27.08    4.81
 -17   1   0   23.13    4.71
  17   1   0   21.00    4.04
 -17   1   0   26.47    6.00
  17   1   0   20.72    2.88
 -17   1   0   22.19    4.25
   0  -2   0  661.23   31.63
   0  -2   0  753.24   31.63
   0  -2   0  628.77   31.39
   0  -2   0  716.92   31.84
   0   2   0  716.26   31.64
   0   2   0  672.72   31.42
   0   2   0  675.02   31.24
   0   2   0  651.60   31.61
   0   2   0  674.53   31.83
  -2  -2   0   70.11    4.24
   2  -2   0   81.18    4.14
  -2  -2   0   72.20    3.97
  -2  -2   0   73.25    4.16
  -2  -2   0   73.07    3.94
   2  -2   0   70.47    3.89
   2  -2   0   69.59    4.10
   2  -2   0   75.17    4.16
  -2  -2   0   75.11    4.39
   2  -2   0   68.97    3.90
   2  -2   0   75.57    3.92
  -2   2   0   71.13    4.29
   2   2   0   71.04    4.14
   2   2   0   71.97    4.25
  -2   2   0   72.29    3.85
   2   2   0   72.46    3.91
   2   2   0   82.01    4.03
   2   2   0   68.90    4.50
   2   2   0   73.74    3.90
  -2   2   0   74.87    3.92
  -2   2   0   73.90    4.02
  -2   2   0   72.38    4.02
   4  -2   0  247.78   12.83
  -4  -2   0  252.06   13.08
  -4  -2   0  260.48   12.86
   4  -2   0  261.77   12.97
   4  -2   0  257.98   12.77
  -4  -2   0  271.02   13.15
  -4  -2   0  259.30   12.83
   4  -2   0  287.93   12.76
  -4  -2   0  265.11   13.29
   4  -2   0  278.23   12.59
   4  -2   0  277.20   13.05
   4   2   0  275.30   12.92
   4   2   0  264.81   13.03
  -4   2   0  276.55   12.85
   4   2   0  276.34   12.80
  -4   2   0  261.06   12.80
  -4   2   0  263.75   13.10
   4   2   0  281.05   12.95
   4   2   0  269.45   13.40
   4   2   0  253.35   13.11
  -4   2   0  267.35   12.95
   6  -2   0  307.69   15.48
   6  -2   0  317.17   15.51
  -6  -2   0  309.51   15.57
   6  -2   0  323.29   15.52
  -6  -2   0  320.02   15.68
   6  -2   0  328.27   15.13
  -6  -2   0  324.51   15.47
  -6  -2   0  307.83   15.32
   6  -2   0  304.96   15.24
  -6  -2   0  310.44   15.82
   6  -2   0  343.35   15.19
   6   2   0  331.53   15.27
  -6   2   0  322.12   15.49
   6   2   0  326.80   15.96
  -6   2   0  326.94   15.37
  -6   2   0  310.90   15.25
   6   2   0  310.25   15.50
   6   2   0  326.41   15.47
  -6   2   0  300.71   15.56
   6   2   0  310.94   15.61
  -8  -2   0  386.39   19.36
   8  -2   0  383.51   18.99
   8  -2   0  399.85   18.46
  -8  -2   0  379.14   18.88
  -8  -2   0  369.64   19.04
   8  -2   0  379.41   18.95
  -8  -2   0  395.73   19.16
  -8  -2   0  382.87   18.76
   8  -2   0  370.70   18.62
   8  -2   0  395.56   18.55
   8   2   0  387.20   18.88
   8   2   0  449.18   19.08
   8   2   0  375.20   18.98
  -8   2   0  373.24   18.62
  -8   2   0  364.90   18.94
  -8   2   0  394.49   18.98
   8   2   0  399.49   18.59
   8   2   0  395.57   18.95
   8   2   0  381.69   19.37
  -8   2   0  401.15   18.82
  10  -2   0  176.76    9.72
  10  -2   0  177.02   10.20
 -10  -2   0  183.43   10.32
 -10  -2   0  178.58    9.86
  10  -2   0  194.31    9.93
  10  -2   0  189.62    9.57
 -10  -2   0  182.87   10.48
 -10  -2   0  186.28   10.22
  10  -2   0  198.03    9.45
  10  -2   0  185.84   10.32
 -10  -2   0  187.01    9.09
 -10  -2   0  187.21    9.99
  10   2   0  185.24    9.51
  10   2   0  181.56    9.93
  10   2   0  175.05   10.64
  10   2   0  179.68   10.13
 -10   2   0  172.98   10.21
 -10   2   0  193.28    9.91
  10   2   0  182.32    9.84
 -10   2   0  185.76   10.06
 -10   2   0  174.63    9.72
  12  -2   0  203.68   10.11
  12  -2   0  196.43   10.83
 -12  -2   0  200.03   11.03
 -12  -2   0  212.81   11.66
  12  -2   0  190.41   10.60
  12  -2   0  197.52   11.32
 -12  -2   0  193.86   11.36
 -12  -2   0  191.54    9.63
  12  -2   0  201.17   10.43
 -12  -2   0  188.04   10.80
  12   2   0  206.03   10.89
 -12   2   0  194.53   10.99
  12   2   0  209.83   10.35
 -12   2   0  175.56   11.21
 -12   2   0  176.89   10.56
 -12   2   0  208.64   10.87
  12   2   0  184.28   10.93
  12   2   0  185.80   11.41
  12   2   0  198.70   11.81
  14  -2   0  151.92    8.73
 -14  -2   0  142.17    9.15
 -14  -2   0  132.70    9.58
  14  -2   0  145.01    9.74
 -14  -2   0  133.41    8.90
 -14  -2   0  149.54    9.81
  14  -2   0  151.18    7.97
  14  -2   0  132.03    8.52
 -14  -2   0  139.62    7.19
 -14  -2   0  140.29    9.08
 -14   2   0  147.17    8.78
 -14   2   0  128.43    9.68
  14   2   0  140.66    9.36
  14   2   0  148.46    8.15
 -14   2   0  134.31    8.78
  14   2   0  148.26    8.79
 -14   2   0  146.55    9.21
 -16  -2   0  102.37    8.02
  16  -2   0   91.64    6.59
  16  -2   0   87.42    7.26
  16  -2   0  106.93    7.33
  16  -2   0  107.81    6.34
  16  -2   0   91.47    8.94
 -16  -2   0   99.42    8.67
 -16  -2   0  103.45    7.93
 -16  -2   0   96.12    8.11
 -16   2   0   87.11    7.75
 -16   2   0   89.62    8.28
 -16   2   0   85.14    9.21
  16   2   0  100.80    6.76
  16   2   0  103.19    8.36
  16   2   0  108.16    7.53
 -16   2   0  100.78    7.54
   1  -3   0   83.49    4.93
  -1  -3   0   81.26    4.96
   1  -3   0   77.99    4.82
   1  -3   0   77.97    4.28
  -1  -3   0   77.96    4.61
  -1  -3   0   79.18    4.52
  -1  -3   0   84.89    5.09
   1  -3   0   82.33    4.54
  -1  -3   0   72.78    4.32
   1   3   0   75.14    4.78
  -1   3   0   86.72    4.51
  -1   3   0   79.62    4.22
  -1   3   0   78.38    4.67
  -1   3   0   78.93    5.00
   1   3   0   81.64    5.35
   1   3   0   83.73    4.16
  -1   3   0   81.45    4.68
   1   3   0   81.70    4.44
   1   3   0   77.09    4.73
  -3  -3   0  208.72   10.73
  -3  -3   0  191.91   10.03
   3  -3   0  195.04    9.96
   3  -3   0  188.83    9.91
   3  -3   0  201.58   10.29
   3  -3   0  215.16   10.02
  -3  -3   0  205.46   10.47
  -3  -3   0  198.37   10.00
  -3  -3   0  201.81   10.39
   3  -3   0  216.61   10.46
  -3   3   0  201.89   10.17
   3   3   0  214.88   10.16
  -3   3   0  208.61   10.04
  -3   3   0  205.66    9.91
   3   3   0  192.27   10.42
   3   3   0  197.60   10.33
   3   3   0  188.10   10.67
   3   3   0  192.22    9.97
  -3   3   0  197.70   10.18
  -3   3   0  198.73   10.56
   3   3   0  206.61   10.01
  -5  -3   0  119.15    6.86
   5  -3   0  117.23    5.75
  -5  -3   0  117.56    6.76
  -5  -3   0  110.05    6.47
   5  -3   0  118.07    6.47
   5  -3   0  105.07    6.19
   5  -3   0  107.74    6.08
   5  -3   0  112.63    6.36
  -5  -3   0  115.97    6.23
   5  -3   0  116.77    5.97
  -5  -3   0  108.80    6.19
   5   3   0  117.50    6.08
  -5   3   0  118.56    6.16
   5   3   0  100.15    6.34
  -5   3   0  112.39    6.73
   5   3   0  108.65    6.62
  -5   3   0  113.56    6.22
   5   3   0  111.60    7.11
  -5   3   0  105.95    6.19
   5   3   0  108.49    6.10
   5   3   0  115.03    6.38
  -7  -3   0   48.59    4.11
   7  -3   0   44.60    3.76
   7  -3   0   43.54    3.45
  -7  -3   0   47.99    3.65
   7  -3   0   52.87    3.67
   7  -3   0   45.97    3.90
   7  -3   0   46.98    3.09
  -7  -3   0   47.26    3.61
  -7  -3   0   50.17    3.79
  -7  -3   0   47.54    3.85
   7  -3   0   47.72    2.97
  -7   3   0   46.02    3.51
   7   3   0   49.45    4.08
  -7   3   0   52.81    2.97
  -7   3   0   47.25    3.53
  -7   3   0   42.90    4.05
   7   3   0   54.61    4.76
   7   3   0   53.01    3.51
   7   3   0   47.50    3.62
  -7   3   0   47.12    3.33
   7   3   0   47.08    3.39
   7   3   0   48.04    3.24
   9  -3   0   38.57    4.11
   9  -3   0   44.04    3.03
   9  -3   0   47.70    3.11
   9  -3   0   41.97    4.28
  -9  -3   0   45.10    3.87
  -9  -3   0   39.24    4.41
   9  -3   0   50.60    3.84
  -9  -3   0   41.87    3.79
   9  -3   0   40.49    3.61
  -9  -3   0   44.17    3.75
  -9  -3   0   50.70    4.13
  -9   3   0   49.19    3.78
   9   3   0   52.03    3.65
   9   3   0   43.33    3.46
  -9   3   0   42.57    3.65
  -9   3   0   42.83    4.45
   9   3   0   41.32    4.10
  -9   3   0   42.48    3.39
   9   3   0   44.27    3.23
  -9   3   0   46.67    3.67
   9   3   0   47.84    3.73
   9   3   0   44.22    5.06
 -11  -3   0   92.80    6.34
 -11  -3   0   88.06    6.35
 -11  -3   0   95.78    7.02
  11  -3   0   98.50    5.60
  11  -3   0   98.28    5.57
  11  -3   0   91.94    6.74
 -11  -3   0   98.95    7.18
 -11  -3   0   90.02    7.21
  11  -3   0   95.05    6.13
  11   3   0   92.92    7.71
 -11   3   0   84.61    6.95
  11   3   0   95.37    6.25
  11   3   0   93.18    6.09
  11   3   0   97.55    5.72
 -11   3   0   90.72    6.20
 -11   3   0   98.30    6.05
  11   3   0   95.94    6.83
 -11   3   0   93.90    6.35
 -13  -3   0   20.01    2.72
  13  -3   0   16.16    3.90
 -13  -3   0   19.75    3.19
  13  -3   0   23.44    2.59
  13  -3   0   21.59    3.30
 -13  -3   0   19.84    3.51
  13  -3   0   18.09    2.96
 -13  -3   0   19.05    3.64
 -13  -3   0   18.31    3.48
  13  -3   0   19.09    2.57
  13   3   0   20.28    4.48
  13   3   0   16.53    2.69
 -13   3   0   16.90    4.26
 -13   3   0   15.54    3.05
  13   3   0   22.21    3.07
 -13   3   0   22.65    3.46
 -13   3   0   19.28    2.73
  13   3   0   26.43    2.92
 -15  -3   0   40.54    5.63
  15  -3   0   43.71    4.67
 -15  -3   0   33.43    4.91
 -15  -3   0   38.53    4.64
 -15  -3   0   34.47    5.99
 -15  -3   0   45.18    5.27
  15  -3   0   29.57    4.83
 -15  -3   0   36.24    3.62
  15  -3   0   38.55    3.84
  15   3   0   41.07    4.80
  15   3   0   38.72    5.45
 -15   3   0   34.89    4.64
 -15   3   0   34.62    6.00
 -15   3   0   40.34    4.86
 -15   3   0   42.23    4.69
  15   3   0   35.33    3.82
  17  -3   0   26.76    3.54
  17  -3   0   26.83    6.16
  17  -3   0   22.27    4.66
 -17  -3   0   25.13    4.63
 -17  -3   0   29.36    4.83
 -17  -3   0   19.12    5.24
 -17  -3   0   37.30    6.43
 -17  -3   0   27.26    6.45
  17  -3   0   29.17    4.68
  17  -3   0   17.17    3.95
 -17  -3   0   25.31    3.30
  17   3   0   20.81    3.67
  17   3   0   39.54    4.44
  17   3   0    7.51    7.41
  17   3   0   31.04    4.82
 -17   3   0   22.89    6.95
 -17   3   0   31.77    4.41
  17   3   0   29.80    5.73
 -17   3   0   21.09    5.33
 -17   3   0   21.78    5.00
 -17   3   0   27.97    7.15
   0  -4   0  666.06   32.39
   0  -4   0  739.27   32.27
   0  -4   0  634.96   31.88
   0  -4   0  742.03   32.81
   0  -4   0  627.51   31.63
   0   4   0  715.51   32.45
   0   4   0  661.29   32.30
   0   4   0  694.69   31.95
   0   4   0  664.28   32.75
   0   4   0  684.36   31.53
  -2  -4   0  286.73   14.09
   2  -4   0  271.56   14.08
   2  -4   0  294.70   14.35
  -2  -4   0  261.24   13.70
   2  -4   0  268.08   13.43
   2  -4   0  282.94   13.76
  -2  -4   0  269.65   14.25
  -2  -4   0  266.04   13.53
  -2  -4   0  286.21   14.54
  -2   4   0  276.73   13.97
  -2   4   0  280.03   13.40
  -2   4   0  266.69   14.48
   2   4   0  262.05   14.56
   2   4   0  288.06   13.68
   2   4   0  260.48   14.08
  -2   4   0  289.09   13.75
   2   4   0  292.00   14.24
  -2   4   0  283.93   14.05
   2   4   0  286.17   13.21
   4  -4   0  341.43   16.07
   4  -4   0  290.87   15.31
  -4  -4   0  315.60   16.37
   4  -4   0  301.47   15.80
   4  -4   0  327.99   15.40
  -4  -4   0  325.50   15.47
  -4  -4   0  309.23   16.11
  -4  -4   0  312.99   15.94
   4  -4   0  303.11   15.35
  -4  -4   0  306.65   15.53
  -4   4   0  306.15   16.20
  -4   4   0  324.59   15.52
  -4   4   0  330.98   15.80
   4   4   0  307.45   15.55
   4   4   0  316.47   15.94
   4   4   0  294.17   15.38
   4   4   0  331.99   15.48
   4   4   0  339.17   16.76
   4   4   0  295.11   15.98
  -4   4   0  320.23   15.72
  -6  -4   0  279.62   14.04
  -6  -4   0  266.28   14.08
  -6  -4   0  275.90   14.71
   6  -4   0  260.48   13.99
  -6  -4   0  290.82   15.07
   6  -4   0  281.80   13.42
   6  -4   0  266.15   13.86
   6  -4   0  303.46   14.53
   6  -4   0  283.41   14.41
   6  -4   0  295.34   13.83
  -6  -4   0  285.68   14.60
   6   4   0  262.41   13.94
  -6   4   0  275.57   14.19
   6   4   0  292.55   13.94
  -6   4   0  258.05   14.07
  -6   4   0  294.84   14.08
   6   4   0  277.79   15.27
   6   4   0  290.38   14.49
  -6   4   0  272.66   14.70
   6   4   0  269.09   14.59
   6   4   0  283.85   14.13
   8  -4   0  287.27   13.94
  -8  -4   0  256.56   14.22
   8  -4   0  238.12   13.55
  -8  -4   0  256.10   13.52
   8  -4   0  277.12   13.12
   8  -4   0  257.70   13.35
  -8  -4   0  270.25   14.46
   8  -4   0  262.03   13.78
   8  -4   0  265.59   12.86
  -8  -4   0  265.64   14.04
  -8  -4   0  245.99   13.52
   8   4   0  246.09   13.95
  -8   4   0  248.53   14.17
   8   4   0  245.53   14.64
   8   4   0  275.67   13.89
   8   4   0  281.72   13.56
  -8   4   0  241.25   13.44
   8   4   0  263.16   13.25
  -8   4   0  258.36   13.64
   8   4   0  260.98   13.52
  -8   4   0  293.12   13.61
 -10  -4   0  122.99    7.56
 -10  -4   0  118.46    8.30
  10  -4   0  132.72    7.59
 -10  -4   0   93.99    9.22
  10  -4   0  105.47    6.99
 -10  -4   0  113.26    7.18
  10  -4   0  102.85    7.60
  10  -4   0  112.41    6.46
  10  -4   0  120.74    6.60
 -10  -4   0  116.58    8.34
  10   4   0  114.13    7.33
  10   4   0  129.60    6.91
  10   4   0  114.90    7.07
 -10   4   0  120.80    7.44
 -10   4   0  103.28    8.12
 -10   4   0  105.79    7.27
 -10   4   0  122.78    7.15
  10   4   0  112.72    9.04
  10   4   0  119.19    7.95
  10   4   0  123.24    7.19
 -12  -4   0  120.72    9.01
  12  -4   0  130.00    6.87
 -12  -4   0  102.74    7.77
  12  -4   0  115.01    6.73
 -12  -4   0  107.69    7.90
 -12  -4   0  126.26    8.84
  12  -4   0  108.95    7.77
 -12   4   0  118.34    7.71
  12   4   0  124.22    7.74
 -12   4   0  115.28    6.21
  12   4   0  123.53    7.02
  12   4   0  106.15    7.19
 -12   4   0  108.88    7.73
 -12   4   0  116.43    7.38
  12   4   0  101.70    8.53
 -12   4   0  103.32    8.66
 -14  -4   0   80.79    7.17
 -14  -4   0   79.94    5.93
 -14  -4   0   80.33    7.12
  14  -4   0   86.24    5.69
 -14  -4   0   82.44    8.88
 -14  -4   0   84.46    8.04
  14  -4   0   74.23    7.74
 -14  -4   0   73.65    7.33
  14  -4   0   90.88    6.57
  14   4   0   81.69    8.09
 -14   4   0   85.31    6.54
 -14   4   0   88.34    6.10
 -14   4   0   73.56    8.66
  14   4   0   87.98    6.26
 -14   4   0   85.62    7.08
 -14   4   0   73.43    6.90
  14   4   0   79.85    5.79
  14   4   0   78.90    6.22
 -16  -4   0   66.93    7.36
 -16  -4   0   55.85    8.42
 -16  -4   0   63.33    6.43
 -16  -4   0   54.37    7.30
  16  -4   0   59.00    6.81
 -16  -4   0   47.73    6.79
  16  -4   0   67.68    5.34
  16  -4   0   47.13    7.09
  16  -4   0   54.04    7.12
  16   4   0   58.72    6.02
 -16   4   0   44.54    6.11
  16   4   0   71.67    5.94
  16   4   0   54.98    6.26
 -16   4   0   58.50    6.65
 -16   4   0   49.88    7.96
  16   4   0   61.76    8.32
 -16   4   0   65.35    7.53
  -1  -5   0   53.08    4.23
   1  -5   0   69.69    4.83
  -1  -5   0   54.52    3.94
  -1  -5   0   66.44    4.44
   1  -5   0   61.00    4.16
   1  -5   0   61.84    5.08
  -1  -5   0   58.06    5.13
   1  -5   0   57.55    4.31
  -1  -5   0   62.96    5.10
   1   5   0   64.70    6.00
   1   5   0   61.49    4.46
   1   5   0   64.94    4.02
  -1   5   0   59.09    3.62
  -1   5   0   51.84    4.66
  -1   5   0   65.24    4.61
   1   5   0   60.14    3.56
  -1   5   0   61.97    5.80
  -1   5   0   64.99    4.11
   1   5   0   55.52    4.90
  -3  -5   0  128.38    7.35
  -3  -5   0  125.94    7.60
  -3  -5   0  137.18    7.95
  -3  -5   0  140.74    8.57
   3  -5   0  136.83    8.05
   3  -5   0  134.74    7.35
  -3  -5   0  131.66    8.16
   3  -5   0  133.73    7.42
   3  -5   0  128.90    8.16
   3   5   0  119.95    8.10
  -3   5   0  134.12    7.87
   3   5   0  136.74    7.93
   3   5   0  132.27    6.78
   3   5   0  137.86    7.37
  -3   5   0  130.39    7.07
   3   5   0  124.27    9.03
   3   5   0  135.85    7.64
  -3   5   0  123.28    7.91
  -3   5   0  132.55    8.81
  -3   5   0  134.91    7.45
   5  -5   0  104.04    6.76
  -5  -5   0   98.60    5.96
   5  -5   0   98.61    5.67
   5  -5   0   95.46    6.36
  -5  -5   0   90.45    6.13
   5  -5   0   90.71    5.89
  -5  -5   0   98.87    6.79
  -5  -5   0   97.79    6.43
  -5  -5   0   99.20    6.73
   5  -5   0   92.09    5.91
  -5   5   0   99.82    5.90
  -5   5   0   93.54    6.84
  -5   5   0   88.44    6.30
   5   5   0   93.61    6.83
  -5   5   0   93.33    6.15
   5   5   0   90.19    7.20
   5   5   0   92.66    6.33
   5   5   0   87.91    5.84
   7  -5   0   61.34    5.08
   7  -5   0   68.17    5.78
   7  -5   0   60.61    4.69
   7  -5   0   69.48    4.37
  -7  -5   0   65.58    5.19
   7  -5   0   71.84    5.23
  -7  -5   0   60.00    4.80
  -7  -5   0   68.79    6.23
   7  -5   0   63.30    3.84
  -7  -5   0   63.80    5.15
  -7  -5   0   60.60    5.72
  -7   5   0   68.83    4.58
   7   5   0   64.31    4.76
   7   5   0   59.28    5.65
   7   5   0   68.74    5.18
   7   5   0   72.98    4.64
   7   5   0   63.52    4.52
  -7   5   0   57.17    6.14
   7   5   0   61.51    6.89
  -7   5   0   58.98    5.06
  -7   5   0   66.29    4.95
   9  -5   0   67.33    5.50
   9  -5   0   62.61    4.94
   9  -5   0   56.95    5.38
  -9  -5   0   57.85    6.19
   9  -5   0   62.43    4.31
  -9  -5   0   63.57    6.60
   9  -5   0   61.15    3.98
  -9  -5   0   61.81    5.07
   9   5   0   62.32    4.68
   9   5   0   55.97    5.85
  -9   5   0   62.97    6.53
   9   5   0   64.80    4.69
   9   5   0   61.67    7.63
  -9   5   0   64.26    4.71
  -9   5   0   64.92    5.12
   9   5   0   62.77    4.96
  -9   5   0   52.90    5.31
   9   5   0   63.51    4.75
  11  -5   0   90.81    5.40
  11  -5   0   78.03    6.61
 -11  -5   0   84.89    7.07
 -11  -5   0   92.75    6.84
 -11  -5   0   97.92    8.10
  11  -5   0   87.43    5.62
  11  -5   0   91.89    6.79
 -11  -5   0   83.43    8.13
  11  -5   0   89.22    6.60
  11   5   0   86.92    6.09
 -11   5   0   82.49    6.81
  11   5   0   81.81    6.51
  11   5   0  100.87    6.34
  11   5   0   76.29    7.41
 -11   5   0   81.44    7.99
 -11   5   0   80.34    6.61
 -11   5   0  102.33    6.36
 -13  -5   0   21.02    5.04
 -13  -5   0   23.85    3.98
 -13  -5   0   24.24    6.05
 -13  -5   0   21.25    4.44
 -13  -5   0   25.91    4.23
 -13  -5   0   26.76    3.81
  13  -5   0   28.81    3.16
  13  -5   0   21.54    4.01
  13  -5   0   25.08    5.14
  13  -5   0   27.96    3.30
 -13   5   0   33.37    5.96
  13   5   0   24.49    3.31
  13   5   0   36.19    4.08
 -13   5   0   27.17    5.69
 -13   5   0   19.91    4.28
 -13   5   0   33.84    4.22
  13   5   0   18.96    5.15
  13   5   0   26.44    4.16
 -15  -5   0   30.25    4.51
 -15  -5   0   29.89    6.62
  15  -5   0   28.28    6.33
  15  -5   0   26.08    4.80
  15  -5   0   25.91    3.40
 -15  -5   0   19.85    4.73
  15  -5   0   39.17    5.05
 -15  -5   0   27.32    5.63
 -15  -5   0   20.68    5.10
 -15  -5   0   30.59    7.11
  15   5   0   23.79    3.52
  15   5   0   40.14    5.06
 -15   5   0   24.63    4.09
 -15   5   0   28.50    5.58
 -15   5   0   28.17    7.44
  15   5   0   19.52    5.70
 -15   5   0   26.94    5.38
  15   5   0   35.05    5.18
   0  -6   0  394.33   20.78
   0  -6   0  387.44   19.43
   0  -6   0  368.50   19.84
   0  -6   0  428.27   20.25
   0  -6   0  420.89   21.09
   0   6   0  420.04   19.95
   0   6   0  373.25   20.52
   0   6   0  398.10   21.59
   0   6   0  422.34   20.62
   0   6   0  406.55   19.17
  -2  -6   0  221.21   11.58
  -2  -6   0  227.10   12.95
   2  -6   0  236.75   12.00
  -2  -6   0  213.62   11.96
  -2  -6   0  225.33   13.10
  -2  -6   0  230.61   12.32
   2  -6   0  221.16   11.92
   2  -6   0  212.27   12.48
   2  -6   0  231.76   12.83
   2   6   0  200.67   12.60
   2   6   0  229.55   11.79
   2   6   0  232.55   12.60
  -2   6   0  220.81   12.41
  -2   6   0  215.06   13.57
   2   6   0  227.72   11.03
  -2   6   0  211.25   12.53
  -2   6   0  224.77   11.25
   2   6   0  206.66   13.70
  -2   6   0  238.90   11.95
  -4  -6   0  246.89   13.03
   4  -6   0  219.37   12.08
   4  -6   0  252.81   13.24
  -4  -6   0  239.14   13.72
  -4  -6   0  210.91   12.42
   4  -6   0  225.23   13.16
  -4  -6   0  225.15   13.45
   4  -6   0  254.23   12.31
  -4  -6   0  231.53   12.17
   4   6   0  204.32   13.13
   4   6   0  229.39   12.47
  -4   6   0  212.05   13.82
  -4   6   0  210.51   12.82
   4   6   0  237.38   11.41
   4   6   0  244.95   13.13
  -4   6   0  238.42   12.86
  -4   6   0  235.71   12.35
   4   6   0  250.52   12.29
   4   6   0  219.58   14.16
  -6  -6   0  205.81   12.68
  -6  -6   0  212.94   11.36
   6  -6   0  221.09   11.08
  -6  -6   0  179.43   12.16
   6  -6   0  210.27   10.34
  -6  -6   0  216.84   12.09
   6  -6   0  204.75   11.34
   6  -6   0  228.53   12.38
  -6  -6   0  199.26   12.69
   6   6   0  190.13   12.17
  -6   6   0  191.75   12.92
  -6   6   0  217.94   11.44
   6   6   0  194.61   13.56
  -6   6   0  214.43   11.76
   6   6   0  223.10   12.11
  -6   6   0  182.46   11.77
   8  -6   0  168.21   10.48
   8  -6   0  180.38   10.39
  -8  -6   0  167.54   10.72
   8  -6   0  201.44   11.10
  -8  -6   0  193.28   11.70
  -8  -6   0  179.06   10.48
   8  -6   0  183.68    9.95
  -8  -6   0  185.11   12.07
   8  -6   0  177.51    9.29
   8   6   0  181.62   13.22
  -8   6   0  189.32   10.42
   8   6   0  183.72   11.62
  -8   6   0  183.61   10.82
   8   6   0  175.69   10.30
  -8   6   0  153.87   10.78
   8   6   0  198.61   11.23
   8   6   0  179.72   10.21
  10  -6   0   92.10    7.08
 -10  -6   0   87.81    6.83
  10  -6   0   87.89    5.89
 -10  -6   0   79.25    7.10
  10  -6   0   91.39    5.28
 -10  -6   0   91.39    7.57
  10  -6   0   78.26    7.42
  10   6   0   86.02    8.12
  10   6   0   82.21    6.19
  10   6   0   94.66    7.14
 -10   6   0   87.54    6.99
 -10   6   0   94.56    6.53
 -10   6   0   82.04    7.24
  10   6   0   77.29    5.96
  10   6   0   93.78    6.35
 -10   6   0   68.99    8.86
 -12  -6   0   86.03    7.38
 -12  -6   0   74.69    8.01
  12  -6   0   81.59    6.97
 -12  -6   0   75.80    7.44
 -12  -6   0   72.39    9.77
 -12  -6   0   76.26    8.97
  12  -6   0   88.91    7.41
  12  -6   0   65.10    8.13
  12  -6   0   86.10    5.68
 -12   6   0   78.11    8.03
  12   6   0   87.55    7.51
  12   6   0   82.38    6.54
 -12   6   0   85.38    7.59
  12   6   0   89.10    6.41
  12   6   0   67.67    8.52
 -12   6   0   85.04    6.58
 -12   6   0   69.01    8.78
  12   6   0   95.53    6.59
 -14  -6   0   53.55    7.08
 -14  -6   0   64.00    7.69
  14  -6   0   46.33    6.09
 -14  -6   0   63.95    8.68
  14  -6   0   60.73    5.50
  14  -6   0   70.53    5.41
 -14  -6   0   57.66    6.81
 -14  -6   0   51.05    8.82
 -14  -6   0   65.55    8.19
  14  -6   0   49.07    7.38
 -14   6   0   79.82    8.10
  14   6   0   57.32    6.05
  14   6   0   50.10    7.61
 -14   6   0   77.79    6.91
 -14   6   0   42.94    6.86
 -14   6   0   44.75    8.45
  14   6   0   55.66    6.17
  14   6   0   56.76    7.29
   1  -7   0   78.08    5.54
   1  -7   0   67.59    5.10
  -1  -7   0   73.81    5.25
   1  -7   0   64.77    7.15
  -1  -7   0   67.71    7.37
   1  -7   0   67.87    5.91
  -1  -7   0   85.37    7.03
  -1  -7   0   80.78    5.79
   1  -7   0   70.40    6.16
   1   7   0   66.46    8.86
   1   7   0   78.03    4.53
   1   7   0   68.22    6.96
  -1   7   0   64.06    6.59
  -1   7   0   73.27    8.64
  -1   7   0   70.88    6.15
   1   7   0   75.30    6.17
  -1   7   0   72.11    4.62
   3  -7   0   98.68    7.01
   3  -7   0   96.75    6.48
   3  -7   0  113.09    9.32
  -3  -7   0  107.03    8.86
  -3  -7   0  103.87    7.16
  -3  -7   0  105.77    7.86
  -3  -7   0   88.37    7.07
  -3  -7   0   95.01    6.46
   3   7   0   95.83    6.69
  -3   7   0   98.31    9.56
   3   7   0   91.04    8.19
  -3   7   0  105.81    7.49
   3   7   0   94.68   10.16
  -3   7   0   89.87    7.84
   3   7   0   95.11    7.38
  -5  -7   0   63.59    7.64
  -5  -7   0   62.83    6.12
   5  -7   0   62.04    5.46
   5  -7   0   73.94    5.02
   5  -7   0   71.34    6.24
  -5  -7   0   66.06    6.97
  -5  -7   0   67.89    5.51
   5   7   0   63.69    7.14
   5   7   0   58.84    5.19
   5   7   0   58.54    8.29
  -5   7   0   51.28    9.01
   5   7   0   71.19    6.10
  -5   7   0   63.17    5.82
  -5   7   0   70.79    5.26
  -5   7   0   59.75    6.63
  -7  -7   0   40.53    5.98
  -7  -7   0   42.92    5.98
   7  -7   0   42.98    3.89
  -7  -7   0   41.33    5.09
  -7  -7   0   44.36    5.50
  -7  -7   0   47.13    5.42
   7  -7   0   44.02    5.31
   7   7   0   36.14    5.77
   7   7   0   47.09    4.09
  -7   7   0   43.16    5.25
  -7   7   0   29.90    6.58
   7   7   0   39.97    4.52
  -7   7   0   35.20    4.24
  -7   7   0   34.11    5.34
   7   7   0   35.21    7.65
  -9  -7   0   29.34    4.44
  -9  -7   0   25.44    6.38
  -9  -7   0   45.10    6.88
  -9  -7   0   28.54    4.83
  -9  -7   0   32.96    4.88
   9  -7   0   30.71    4.86
   9  -7   0   35.18    5.10
   9   7   0   33.96    4.99
  -9   7   0   23.10    6.18
  -9   7   0   33.40    4.95
  -9   7   0   31.79    5.17
   9   7   0   29.64    5.51
   9   7   0   34.10    4.37
  -9   7   0   38.26    4.35
   9   7   0   32.34    4.01
 -11  -7   0   29.07    4.84
  11  -7   0   34.81    5.06
  11  -7   0   38.14    5.94
 -11  -7   0   29.32    5.54
  11  -7   0   42.64    4.60
 -11  -7   0   46.60    7.08
  11  -7   0   34.50    5.06
 -11  -7   0   39.51    6.82
 -11  -7   0   43.66    5.41
  11   7   0   29.51    6.43
 -11   7   0   38.59    7.98
  11   7   0   37.00    5.30
 -11   7   0   30.04    5.83
 -11   7   0   38.25    5.50
  11   7   0    6.02    8.13
 -11   7   0   40.55    4.87
   0  -8   0  121.89    9.06
   0  -8   0  147.24   10.56
   0   8   0  141.95   12.70
   0   8   0  124.00   10.24
   0   8   0  136.42    9.62
  -2  -8   0   80.71    8.33
   2  -8   0   95.44    8.26
  -2  -8   0   81.07    6.55
  -2  -8   0   72.08    6.99
   2  -8   0   67.33    7.08
  -2   8   0   94.69   11.19
   2   8   0   81.04    7.36
  -2   8   0   87.12    7.59
   2   8   0   79.82    8.12
   2   8   0   67.85    5.71
   2   8   0   86.27    6.57
  -2   8   0   83.06    8.24
   4  -8   0   97.01    8.39
  -4  -8   0   86.88    8.08
  -4  -8   0  100.09    9.89
   4  -8   0   89.70    7.66
  -4  -8   0  103.89    7.92
  -4  -8   0  110.79    9.51
   4   8   0   89.83    6.75
  -4   8   0   84.48    8.98
  -4   8   0   88.21   10.42
   4   8   0   97.56    7.12
   4   8   0  108.45    8.40
  -4   8   0   98.26    8.26
   4   8   0   89.75    9.50
  -4   8   0   98.44    6.98
  -6  -8   0   86.15   11.67
   6  -8   0  100.85    7.19
  -6  -8   0   93.96    8.15
   6  -8   0   89.07    8.43
  -6  -8   0   96.57    8.63
  -6  -8   0  117.09    8.97
   6  -8   0  114.24    8.80
   6   8   0   88.65    9.89
   6   8   0   91.94    7.32
   6   8   0  105.84    7.15
  -6   8   0   91.85    9.42
  -6   8   0  109.06    8.52
  -6   8   0  104.79    7.36
  -6   8   0  104.85   12.19
   6   8   0  102.88    7.91
   6   8   0   98.47   13.45
  -8  -8   0  117.02   12.31
   8  -8   0   97.59    8.90
  -8  -8   0  109.31    9.36
  -8  -8   0  125.84    9.49
   8  -8   0  109.87    9.04
  -8  -8   0  119.97   10.89
  -8  -8   0  110.82    8.46
   8  -8   0  120.73    7.77
   8  -8   0  104.12    9.05
   8   8   0  106.84   10.95
  -8   8   0  109.45    9.28
  -8   8   0   93.38   10.14
  -8   8   0   87.05   10.98
   8   8   0  104.15    7.55
   8   8   0  109.30    7.96
  -8   8   0  113.37    8.05
   8   8   0   99.20    9.10
   1  -9   0   20.65    4.02
  -1  -9   0    2.38    5.84
  -1  -9   0   26.36    6.10
  -1  -9   0   27.13    4.51
   1  -9   0    1.62    6.27
   1  -9   0   17.62    5.72
   1  -9   0   21.78    5.22
  -1  -9   0   19.83    4.90
  -1   9   0   19.48    6.14
   1   9   0   20.79    3.42
   1   9   0   24.42    5.74
  -1   9   0   22.71    3.78
   1   9   0   17.30    9.00
   1   9   0   21.65    6.09
   1   9   0   21.75    4.18
  -1   9   0   38.67    9.62
  -1   9   0   30.93    5.61
  -3  -9   0   33.94    5.75
   3  -9   0   31.41    6.00
   3  -9   0   33.19    4.53
   3  -9   0    8.29    7.06
  -3  -9   0   41.47    5.24
   3  -9   0   28.22    5.71
  -3  -9   0   57.46    7.74
  -3   9   0   37.68    6.05
   3   9   0   33.39    4.21
  -3   9   0   39.01    9.69
   3   9   0   39.15    5.53
  -3   9   0   27.51    6.82
   3   9   0   33.19    7.26
   3   9   0   36.25    5.12
   3   9   0   27.69    9.37
  -3   9   0   36.75    4.36
  -5  -9   0    4.99    7.13
  -5  -9   0   26.75    5.36
   5  -9   0   24.92    5.87
   5  -9   0   31.31    4.17
  -5  -9   0   37.72    6.23
  -5  -9   0   33.74    7.15
   5  -9   0   24.41    5.65
  -5   9   0   21.92    6.69
  -5   9   0   34.22    4.25
  -5   9   0   25.16    5.97
   5   9   0   28.74    4.44
  -5   9   0   34.89    9.66
   5   9   0   28.67    5.56
   5   9   0   32.59    4.11
   5   9   0   28.04    7.32
   5   9   0   34.72    9.61
 -18   0   1   27.97    4.88
  18   0  -1   23.08    3.37
  18   0  -1   30.96    4.36
 -18   0   1   26.70    6.19
 -18   0   1   35.48    5.64
 -18   0   1   35.41    4.52
  18   0  -1   32.55    4.53
  18   0  -1   28.50    5.03
 -16   0   1   19.41    4.91
  16   0  -1   24.37    3.49
  16   0  -1   20.46    4.01
 -16   0   1   22.89    3.91
 -16   0   1   23.03    3.93
 -16   0   1   25.49    4.38
  16   0  -1   20.03    2.87
 -16   0   1   29.47    3.97
 -14   0   1   41.62    4.69
 -14   0   1   37.03    4.17
  14   0  -1   39.34    5.03
 -14   0   1   31.36    4.67
 -14   0   1   35.66    4.52
 -14   0   1   35.30    4.60
  14   0  -1   35.73    4.36
  14   0  -1   46.17    4.02
  12   0  -1   31.12    2.55
 -12   0   1   23.64    3.56
  12   0  -1   28.14    3.87
 -12   0   1   27.86    3.12
  12   0  -1   31.21    3.09
 -12   0   1   24.89    3.07
 -12   0   1   30.31    2.95
 -12   0   1   28.18    3.16
  12   0  -1   26.57    2.60
  12   0  -1   25.80    3.33
  10   0  -1   60.47    3.68
 -10   0   1   57.88    4.01
 -10   0   1   53.59    4.53
 -10   0   1   61.24    4.15
  10   0  -1   58.90    3.76
  10   0  -1   54.00    4.32
  10   0  -1   64.68    4.01
 -10   0   1   62.45    4.42
 -10   0   1   55.84    4.04
  10   0  -1   57.99    4.21
   8   0  -1   22.15    1.82
   8   0  -1   22.67    2.63
  -8   0   1   23.63    2.26
   8   0  -1   21.28    1.29
  -8   0   1   22.01    2.05
  -8   0   1   21.08    2.06
   8   0  -1   18.71    1.93
  -8   0   1   23.14    2.07
   8   0  -1   21.29    2.28
   8   0  -1   20.69    1.73
  -6   0   1    4.51    0.89
  -6   0   1    6.30    0.89
   6   0  -1    3.65    1.18
   6   0  -1    4.80    0.52
   6   0  -1    4.18    0.72
  -6   0   1    4.56    0.90
  -6   0   1    3.94    0.90
   6   0  -1    4.75    0.81
   6   0  -1    4.32    1.01
   6   0  -1    4.46    0.88
  -4   0   1  104.11    5.46
  -4   0   1  106.82    5.41
   4   0  -1  104.52    5.24
   4   0  -1  106.51    5.38
   4   0  -1  106.40    5.13
   4   0  -1  107.45    5.29
  -4   0   1  105.58    5.27
   4   0  -1  106.57    5.50
   4   0  -1  105.88    5.42
   2   0  -1  249.98   11.61
  -2   0   1  253.85   11.64
   2   0  -1  239.95   11.59
  -2   0   1  260.91   11.54
   2   0  -1  238.07   11.62
   2   0  -1  256.60   11.54
   0   0   1   75.30    3.94
   0   0   1   76.33    5.06
   2   0   1  319.24   14.07
  -2   0  -1  301.83   13.46
   2   0   1  275.66   13.73
   2   0   1  295.19   13.56
   2   0   1  287.36   13.51
  -2   0  -1  287.77   13.66
  -2   0  -1  297.43   13.60
  -2   0  -1  294.14   13.53
  -2   0  -1  287.56   13.76
  -2   0  -1  298.87   13.47
   2   0   1  278.32   13.65
   2   0   1  294.89   13.37
  -4   0  -1  621.36   29.73
  -4   0  -1  637.10   29.44
  -4   0  -1  674.91   29.56
   4   0   1  582.49   29.60
   4   0   1  637.11   29.74
   4   0   1  732.02   30.24
  -4   0  -1  602.05   29.53
   4   0   1  638.49   29.41
   4   0   1  656.08   29.34
   4   0   1  639.60   29.52
   6   0   1  200.50    9.49
  -6   0  -1  197.10    9.98
  -6   0  -1  195.41    9.79
  -6   0  -1  192.29    9.84
  -6   0  -1  191.90    9.93
   6   0   1  186.93    9.60
   6   0   1  232.48   10.60
   6   0   1  200.52    9.76
   6   0   1  195.88    9.93
  -6   0  -1  192.48    9.65
   6   0   1  192.27    9.94
   6   0   1  198.19    9.96
  -8   0  -1  205.71   10.38
   8   0   1  212.29    9.94
  -8   0  -1  184.85    9.25
   8   0   1  209.90   10.28
   8   0   1  201.84   10.51
  -8   0  -1  209.17   10.60
  -8   0  -1  203.94   10.53
   8   0   1  204.45   10.43
  -8   0  -1  203.02   10.21
   8   0   1  198.03   10.57
   8   0   1  201.41   10.14
  10   0   1  111.86    6.64
  10   0   1  116.90    7.27
 -10   0  -1  102.78    6.50
 -10   0  -1  119.15    6.99
 -10   0  -1  124.56    6.76
  10   0   1  113.36    6.45
  10   0   1  114.75    7.03
 -10   0  -1  108.30    6.81
  10   0   1  115.74    6.09
  10   0   1  113.44    6.48
 -12   0  -1  106.74    7.82
  12   0   1  102.35    7.51
 -12   0  -1  115.83    7.50
  12   0   1  124.56    6.50
 -12   0  -1  119.83    7.64
 -12   0  -1  128.26    7.32
  12   0   1  126.69    7.74
  12   0   1  112.22    6.98
  12   0   1  124.03    7.13
 -12   0  -1  112.86    7.14
  14   0   1   24.80    4.09
 -14   0  -1   23.35    3.77
 -14   0  -1   21.16    3.61
  14   0   1   24.75    2.62
  14   0   1   25.12    3.13
 -14   0  -1   33.62    3.79
  14   0   1   26.36    3.45
 -14   0  -1   21.10    4.44
  14   0   1   15.99    2.56
 -14   0  -1   24.56    3.94
  16   0   1   23.41    3.58
 -16   0  -1   28.22    3.94
  16   0   1   19.26    4.18
 -16   0  -1   19.56    4.40
 -16   0  -1   18.91    5.37
 -16   0  -1   19.71    4.39
 -16   0  -1   25.40    4.75
  16   0   1   24.39    3.31
 -17  -1   1   52.09    7.27
 -17  -1   1   49.94    6.56
  17  -1  -1   73.76    5.98
 -17  -1   1   48.64    6.21
  17  -1  -1   63.12    5.02
  17  -1  -1   60.89    6.74
 -17  -1   1   56.21    6.10
 -17  -1   1   54.74    6.27
  17  -1  -1   64.84    4.75
 -17   1   1   62.16    7.46
 -17   1   1   54.93    6.73
  17   1  -1   62.34    5.96
  17   1  -1   62.90    5.24
 -17   1   1   49.27    6.33
 -17   1   1   61.46    5.75
  17   1  -1   51.32    4.65
  17   1  -1   49.06    6.07
 -15  -1   1   89.47    6.97
  15  -1  -1   94.39    7.07
 -15  -1   1   96.10    6.97
  15  -1  -1   97.19    6.02
 -15  -1   1   98.92    7.65
  15  -1  -1   98.99    6.75
 -15   1   1   93.08    7.23
 -15   1   1   91.48    6.95
 -15   1   1   80.02    8.94
  15   1  -1  101.28    6.83
  15   1  -1   99.62    6.05
  15   1  -1   89.06    7.12
 -15   1   1  103.86    6.90
 -13  -1   1  154.27    9.11
  13  -1  -1  153.63    9.17
  13  -1  -1  167.94    8.69
  13  -1  -1  171.79    9.28
  13  -1  -1  164.85    9.94
 -13  -1   1  160.50    9.80
 -13  -1   1  150.63    9.16
  13  -1  -1  156.74    9.46
 -13   1   1  154.35    9.53
  13   1  -1  160.87    9.08
 -13   1   1  153.04    9.02
  13   1  -1  164.31    8.66
  13   1  -1  157.44   10.11
 -13   1   1  157.81    9.53
  13   1  -1  157.13    9.49
 -11  -1   1  162.44    8.25
 -11  -1   1  160.07    9.11
 -11  -1   1  162.04    9.50
  11  -1  -1  169.49    9.74
  11  -1  -1  175.51    8.91
  11  -1  -1  154.75    9.20
 -11  -1   1  178.86    9.87
 -11  -1   1  179.87    9.58
 -11  -1   1  165.59    9.23
  11  -1  -1  170.66    9.01
  11  -1  -1  172.40    9.32
 -11   1   1  176.08    9.37
  11   1  -1  178.74    9.16
 -11   1   1  160.98    9.11
  11   1  -1  166.25    9.45
 -11   1   1  172.83    9.52
  11   1  -1  159.41    9.87
 -11   1   1  169.51    9.74
  11   1  -1  180.33    9.32
  11   1  -1  175.19    8.89
  -9  -1   1  241.70   12.11
   9  -1  -1  243.51   11.88
  -9  -1   1  233.76   11.43
  -9  -1   1  236.71   12.02
   9  -1  -1  238.16   12.15
   9  -1  -1  233.11   12.35
  -9  -1   1  247.31   12.40
  -9  -1   1  255.85   12.47
   9  -1  -1  249.02   12.00
   9  -1  -1  240.75   12.19
  -9  -1   1  241.66   12.52
   9  -1  -1  246.57   11.16
  -9   1   1  234.70   11.96
  -9   1   1  247.78   12.43
  -9   1   1  224.92   12.34
   9   1  -1  225.77   12.42
   9   1  -1  248.14   12.08
  -9   1   1  251.47   12.28
   9   1  -1  243.67   11.89
   9   1  -1  232.37   12.14
   9   1  -1  230.62   12.23
   7  -1  -1  648.76   28.48
   7  -1  -1  590.82   28.75
   7  -1  -1  620.61   28.48
  -7  -1   1  646.79   28.89
  -7  -1   1  590.59   28.45
  -7  -1   1  617.90   28.52
  -7  -1   1  634.80   28.99
  -7  -1   1  601.69   28.12
  -7  -1   1  590.16   28.66
   7  -1  -1  572.91   28.55
   7   1  -1  644.02   28.56
  -7   1   1  589.01   28.73
  -7   1   1  644.57   28.73
  -7   1   1  587.27   28.45
   7   1  -1  595.03   28.74
   7   1  -1  588.36   28.87
   7   1  -1  630.95   28.44
  -7   1   1  618.25   28.80
   7   1  -1  603.51   28.64
  -5  -1   1  333.66   16.26
   5  -1  -1  329.95   16.49
  -5  -1   1  363.59   16.31
  -5  -1   1  342.33   16.63
  -5  -1   1  339.34   16.12
  -5  -1   1  358.64   16.58
   5  -1  -1  332.71   16.38
  -5  -1   1  344.58   16.46
   5  -1  -1  358.69   16.56
   5  -1  -1  357.68   16.31
   5  -1  -1  366.88   16.34
   5   1  -1  341.73   16.42
   5   1  -1  331.32   16.60
   5   1  -1  353.49   16.29
  -5   1   1  340.32   16.51
  -5   1   1  360.83   16.46
   5   1  -1  362.18   16.29
   5   1  -1  337.71   16.53
  -5   1   1  340.73   16.31
  -5   1   1  332.48   16.50
  -3  -1   1  625.65   28.87
   3  -1  -1  585.59   29.02
   3  -1  -1  592.05   28.96
  -3  -1   1  632.40   28.90
   3  -1  -1  642.65   29.14
  -3  -1   1  681.24   28.86
  -3  -1   1  622.62   29.01
   3  -1  -1  677.34   29.01
  -3  -1   1  622.42   29.16
  -3  -1   1  595.26   29.07
   3   1  -1  653.49   28.89
  -3   1   1  619.71   28.99
   3   1  -1  582.81   29.08
  -3   1   1  622.66   29.07
   3   1  -1  583.65   29.11
  -3   1   1  605.58   29.10
   3   1  -1  621.62   29.00
   3   1  -1  709.64   28.88
  -3   1   1  653.49   29.00
   3   1  -1  671.44   28.91
   1  -1  -1  348.10   17.08
  -1  -1   1  360.53   17.21
  -1  -1   1  396.95   16.95
  -1  -1   1  386.06   17.15
  -1  -1   1  356.90   17.02
   1  -1  -1  346.29   17.16
   1  -1  -1  371.48   17.30
   1  -1  -1  379.84   17.20
  -1   1   1  349.36   17.07
  -1   1   1  365.58   17.29
  -1   1   1  387.96   19.05
   1   1  -1  357.68   17.21
   1   1  -1  360.48   17.11
  -1   1   1  355.09   17.18
  -1   1   1  375.19   17.18
   1   1  -1  399.34   16.99
   1   1  -1  400.40   17.16
   1  -1   1  996.60   41.57
   1  -1   1  816.02   40.28
   1  -1   1  916.18   40.13
  -1  -1  -1  760.37   40.42
   1  -1   1  883.94   40.36
   1  -1   1  982.22   40.26
  -1  -1  -1  882.03   40.28
   1  -1   1  963.50   40.44
   1  -1   1  841.62   40.09
  -1  -1  -1  767.10   40.11
   1  -1   1  935.91   40.15
  -1   1  -1  962.12   40.48
   1   1   1  876.85   40.21
   1   1   1  813.19   40.08
  -1   1  -1  884.92   40.32
   1   1   1  884.35   40.65
  -1   1  -1 1000.00   40.60
  -1   1  -1  870.54   40.09
   1   1   1  793.09   40.21
   1   1   1  766.04   40.24
  -1   1  -1  943.19   40.16
  -1   1  -1  847.67   40.16
   3  -1   1  342.13   17.19
  -3  -1  -1  352.04   17.29
   3  -1   1  372.83   16.83
  -3  -1  -1  361.37   17.04
   3  -1   1  385.94   17.03
  -3  -1  -1  345.61   17.15
  -3  -1  -1  338.07   17.32
   3  -1   1  355.11   16.81
  -3  -1  -1  377.27   17.18
   3  -1   1  391.67   17.05
   3  -1   1  386.30   16.78
   3   1   1  374.48   17.17
   3   1   1  369.19   16.95
   3   1   1  383.52   17.62
  -3   1  -1  385.36   16.95
  -3   1  -1  382.54   16.83
   3   1   1  355.32   17.32
  -3   1  -1  379.29   17.02
  -3   1  -1  352.05   17.05
  -3   1  -1  366.75   16.88
  -3   1  -1  364.88   17.23
  -3   1  -1  382.65   17.06
   3   1   1  350.57   17.04
   3   1   1  314.84   17.53
   5  -1   1  386.63   17.44
   5  -1   1  376.39   17.34
  -5  -1  -1  354.55   17.66
  -5  -1  -1  361.14   17.70
   5  -1   1  374.80   17.07
  -5  -1  -1  353.87   17.50
   5  -1   1  344.75   17.14
  -5  -1  -1  393.42   17.60
   5  -1   1  339.06   17.55
  -5  -1  -1  355.34   17.35
   5   1   1  365.07   17.66
   5   1   1  370.81   17.21
  -5   1  -1  371.62   17.47
   5   1   1  371.50   17.39
   5   1   1  378.83   17.50
   5   1   1  373.53   17.69
  -5   1  -1  369.79   17.41
   5   1   1  403.11   18.07
  -5   1  -1  358.09   17.45
  -5   1  -1  364.75   17.21
  -5   1  -1  370.00   17.31
  -7  -1  -1  322.63   16.63
  -7  -1  -1  342.54   16.92
   7  -1   1  343.72   16.47
   7  -1   1  338.93   16.30
   7  -1   1  334.03   16.75
   7  -1   1  354.43   16.13
   7  -1   1  341.99   16.65
  -7  -1  -1  319.24   16.44
  -7  -1  -1  362.33   16.78
   7  -1   1  364.30   16.62
  -7  -1  -1  328.27   16.80
   7   1   1  345.17   16.60
  -7   1  -1  328.65   16.63
  -7   1  -1  330.88   16.61
   7   1   1  376.50   17.29
   7   1   1  347.51   16.51
  -7   1  -1  339.36   16.36
  -7   1  -1  356.36   16.52
   7   1   1  334.48   16.77
  -7   1  -1  342.18   16.57
   7   1   1  356.09   16.28
   7   1   1  343.23   16.88
   9  -1   1  330.16   15.80
   9  -1   1  326.39   16.09
  -9  -1  -1  330.93   16.37
  -9  -1  -1  305.69   15.75
   9  -1   1  332.38   15.32
   9  -1   1  317.69   16.20
   9  -1   1  335.99   15.89
  -9  -1  -1  333.97   16.12
   9  -1   1  308.99   15.53
  -9  -1  -1  298.61   15.97
  -9  -1  -1  313.42   16.14
  -9   1  -1  300.14   15.99
   9   1   1  329.19   15.89
   9   1   1  325.08   15.44
  -9   1  -1  325.58   16.05
   9   1   1  308.51   15.70
  -9   1  -1  324.62   15.92
   9   1   1  315.68   16.24
  -9   1  -1  315.75   15.65
  -9   1  -1  329.04   15.87
   9   1   1  337.51   16.16
 -11  -1  -1   91.19    4.53
 -11  -1  -1   93.96    6.44
  11  -1   1   92.06    5.15
  11  -1   1   89.88    5.62
  11  -1   1   96.67    5.73
 -11  -1  -1   91.63    6.01
 -11  -1  -1   85.32    6.31
 -11  -1  -1  100.46    6.10
  11  -1   1   97.34    5.74
  11  -1   1   96.04    6.66
 -11  -1  -1   94.49    6.31
  11   1   1   85.77    5.84
  11   1   1   92.96    5.25
  11   1   1   88.37    5.76
 -11   1  -1   82.08    5.83
  11   1   1   97.91    5.83
 -11   1  -1   99.01    6.28
 -11   1  -1   97.19    5.87
 -11   1  -1   87.60    6.42
 -11   1  -1   88.62    5.83
 -13  -1  -1  154.02    8.92
 -13  -1  -1  140.55    9.18
  13  -1   1  141.78    9.45
  13  -1   1  141.54    8.40
 -13  -1  -1  162.18    9.77
  13  -1   1  152.55    7.82
  13  -1   1  149.85    8.43
  13  -1   1  145.96    8.54
  13   1   1  145.96    9.01
 -13   1  -1  140.07    9.45
 -13   1  -1  123.56    9.57
 -13   1  -1  144.13    9.03
 -13   1  -1  154.72    8.85
 -13   1  -1  132.93    8.61
  13   1   1  150.09    8.71
  13   1   1  149.50    7.93
  15  -1   1   86.77    7.21
 -15  -1  -1   90.07    6.91
 -15  -1  -1   89.61    7.70
 -15  -1  -1   87.54    7.38
  15  -1   1   93.45    6.20
 -15  -1  -1   82.21    8.61
  15  -1   1   87.54    6.22
 -15  -1  -1   76.44    7.09
  15   1   1   85.85    5.50
  15   1   1   97.02    7.52
 -15   1  -1   83.02    7.07
 -15   1  -1   79.42    6.88
  15   1   1   87.23    6.90
 -15   1  -1   88.72    6.56
  15   1   1   82.59    6.41
  15   1   1   82.81    6.41
 -15   1  -1   95.85    7.48
 -15   1  -1   81.70    8.20
 -17  -1  -1   37.46    7.49
 -17  -1  -1   52.85    7.19
 -17  -1  -1   43.72    6.15
 -17  -1  -1   47.40    6.76
 -17  -1  -1   51.40    5.93
  17  -1   1   44.43    5.45
  17  -1   1   47.19    5.29
  17  -1   1   51.39    6.88
 -17   1  -1   43.04    5.90
  17   1   1   40.41    5.02
 -17   1  -1   45.54    7.09
 -17   1  -1   45.81    6.26
  17   1   1   37.75    4.73
  17   1   1   39.57    6.28
 -17   1  -1   39.77    5.68
  18  -2  -1   36.02    4.46
 -18  -2   1   18.90    5.78
 -18  -2   1   22.15    4.96
 -18  -2   1   26.69    4.64
  18  -2  -1   18.02    4.58
  18  -2  -1    3.80    5.95
  18  -2  -1   30.61    6.07
  18  -2  -1   30.25    4.55
 -18  -2   1   20.00    5.20
  18  -2  -1   26.69    3.37
 -18   2   1   28.99    5.45
 -18   2   1   26.37    4.11
  18   2  -1   21.57    3.15
 -18   2   1   28.30    6.68
 -18   2   1   26.30    5.14
  18   2  -1   23.22    3.36
  18   2  -1   20.82    5.52
 -18   2   1   35.77    7.73
  18   2  -1   26.26    4.52
 -16  -2   1   21.40    3.78
  16  -2  -1   31.11    3.95
  16  -2  -1   24.03    4.10
 -16  -2   1   21.54    4.29
 -16  -2   1   24.17    4.22
  16  -2  -1   25.53    3.33
 -16  -2   1   28.59    4.78
 -16   2   1   33.72    4.43
 -16   2   1   19.00    4.22
  16   2  -1   19.38    3.77
 -16   2   1   21.83    5.20
 -16   2   1   21.55    4.08
  16   2  -1   27.62    3.55
  16   2  -1   25.00    4.65
  16   2  -1    6.23    5.14
  16   2  -1   28.76    3.50
 -14  -2   1   48.25    5.06
  14  -2  -1   58.12    5.02
  14  -2  -1   53.51    4.13
 -14  -2   1   51.31    6.09
  14  -2  -1   52.46    4.25
 -14  -2   1   60.77    5.46
 -14  -2   1   54.65    5.09
 -14  -2   1   53.37    3.69
  14  -2  -1   57.14    5.12
  14   2  -1   54.09    6.53
  14   2  -1   65.10    4.47
  14   2  -1   53.93    6.68
 -14   2   1   48.82    4.99
 -14   2   1   61.76    5.45
  14   2  -1   55.85    4.19
 -14   2   1   59.85    4.81
 -14   2   1   48.85    6.20
  12  -2  -1   58.46    4.96
  12  -2  -1   78.36    5.27
  12  -2  -1   67.21    4.51
 -12  -2   1   66.48    5.04
 -12  -2   1   65.25    5.19
 -12  -2   1   66.14    4.81
  12  -2  -1   73.80    4.56
  12  -2  -1   73.58    6.13
 -12  -2   1   71.42    5.79
 -12  -2   1   69.60    5.85
 -12  -2   1   69.82    4.20
  12   2  -1   75.00    5.12
 -12   2   1   68.12    5.08
 -12   2   1   75.43    5.11
  12   2  -1   68.74    6.35
  12   2  -1   72.00    4.77
 -12   2   1   70.62    5.30
  12   2  -1   75.56    5.81
  12   2  -1   67.18    4.51
 -12   2   1   65.24    5.95
 -10  -2   1  164.99    8.48
  10  -2  -1  172.46    8.83
 -10  -2   1  167.52    9.65
 -10  -2   1  171.74    9.48
 -10  -2   1  171.08    9.13
  10  -2  -1  162.30    9.10
  10  -2  -1  158.68    9.37
 -10  -2   1  165.52    9.09
 -10  -2   1  161.19    9.35
  10  -2  -1  168.84    8.84
  10   2  -1  183.04    8.91
  10   2  -1  165.20    9.93
 -10   2   1  169.12    9.39
 -10   2   1  152.88    8.99
 -10   2   1  195.77   11.19
  10   2  -1  160.83    9.46
 -10   2   1  170.42    9.16
  10   2  -1  172.91    9.26
  10   2  -1  173.81    9.04
 -10   2   1  153.91    9.48
  -8  -2   1  166.09    8.47
   8  -2  -1  157.65    8.52
   8  -2  -1  160.51    8.29
  -8  -2   1  157.56    8.48
  -8  -2   1  160.29    8.86
  -8  -2   1  154.41    9.00
  -8  -2   1  161.27    8.81
  -8  -2   1  157.06    8.12
   8  -2  -1  164.11    8.82
   8  -2  -1  170.50    8.39
   8  -2  -1  161.06    8.88
  -8   2   1  174.60    8.65
  -8   2   1  183.72   10.05
   8   2  -1  163.70    8.35
  -8   2   1  148.12    8.83
  -8   2   1  166.95    8.79
  -8   2   1  150.10    8.43
   8   2  -1  169.97    9.27
   8   2  -1  160.65    8.41
   8   2  -1  153.67    8.84
   8   2  -1  158.46    8.60
   6  -2  -1  167.77    8.36
   6  -2  -1  161.92    8.00
   6  -2  -1  151.40    8.06
  -6  -2   1  157.03    7.82
  -6  -2   1  157.71    7.94
  -6  -2   1  154.03    8.44
   6  -2  -1  155.17    8.29
  -6  -2   1  154.35    8.30
  -6  -2   1  153.69    7.98
   6  -2  -1  161.88    7.91
  -6  -2   1  161.58    8.36
   6   2  -1  158.32    8.64
   6   2  -1  160.91    7.95
  -6   2   1  152.36    8.21
   6   2  -1  157.78    7.94
   6   2  -1  158.00    8.20
  -6   2   1  154.00    8.05
  -6   2   1  165.23    8.14
   6   2  -1  148.11    8.36
  -6   2   1  143.77    8.33
  -4  -2   1  313.59   14.62
  -4  -2   1  302.85   15.10
  -4  -2   1  314.27   14.64
   4  -2  -1  324.57   14.77
   4  -2  -1  291.24   14.69
  -4  -2   1  320.97   14.53
  -4  -2   1  308.54   14.89
  -4  -2   1  303.20   14.96
   4  -2  -1  321.48   15.05
   4  -2  -1  294.00   14.86
   4   2  -1  290.47   15.00
   4   2  -1  315.89   14.64
   4   2  -1  325.32   14.57
   4   2  -1  298.94   14.83
  -4   2   1  308.94   14.75
  -4   2   1  303.66   14.77
  -4   2   1  295.34   15.01
  -4   2   1  299.23   14.86
  -4   2   1  347.93   16.12
   4   2  -1  288.68   15.12
  -2  -2   1  343.67   15.73
  -2  -2   1  350.73   15.99
   2  -2  -1  314.76   15.97
  -2  -2   1  363.74   15.51
  -2  -2   1  325.74   15.99
   2  -2  -1  335.01   16.20
  -2  -2   1  356.91   15.85
   2  -2  -1  354.72   16.00
  -2  -2   1  353.39   16.27
   2  -2  -1  299.43   15.80
   2   2  -1  352.34   15.55
  -2   2   1  325.11   16.00
  -2   2   1  343.99   16.00
  -2   2   1  327.97   15.84
   2   2  -1  360.43   15.79
  -2   2   1  335.04   17.80
  -2   2   1  325.13   16.20
   2   2  -1  322.59   16.04
   2   2  -1  315.23   16.19
   2   2  -1  324.76   15.98
   0  -2  -1   37.66    2.66
   0  -2  -1   35.59    2.41
   0  -2   1   38.45    2.16
   0  -2  -1   33.49    2.30
   0  -2   1   43.93    3.08
   0  -2   1   36.63    2.42
   0  -2   1   37.98    2.14
   0  -2  -1   34.62    2.55
   0  -2   1   36.98    2.25
   0  -2   1   33.30    2.84
   0   2   1   32.31    2.46
   0   2   1   41.70    2.62
   0   2  -1   34.59    2.64
   0   2   1   38.15    2.84
   0   2   1   36.35    2.46
   0   2  -1   34.47    2.29
   0   2  -1   37.29    2.37
   0   2  -1   38.31    2.18
   0   2   1   39.05    2.26
   0   2  -1   36.76    2.37
  -2  -2  -1   55.01    3.44
  -2  -2  -1   52.22    3.14
   2  -2   1   51.87    2.89
   2  -2   1   54.70    2.67
   2  -2   1   60.16    3.74
  -2  -2  -1   52.50    3.25
   2  -2   1   51.86    2.76
  -2  -2  -1   47.28    3.33
   2  -2   1   50.19    3.22
  -2  -2  -1   49.31    3.43
   2  -2   1   53.69    3.10
  -2   2  -1   50.35    3.30
   2   2   1   46.56    3.64
   2   2   1   50.23    3.19
   2   2   1   55.36    3.29
  -2   2  -1   51.43    2.95
  -2   2  -1   53.11    2.93
   2   2   1   53.89    3.70
  -2   2  -1   50.16    3.05
  -2   2  -1   56.29    3.17
   2   2   1   52.40    3.29
   2   2   1   56.04    2.99
  -4  -2  -1  130.42    7.38
  -4  -2  -1  135.56    7.29
  -4  -2  -1  137.90    7.54
   4  -2   1  139.48    7.08
   4  -2   1  146.56    6.82
  -4  -2  -1  133.38    7.36
   4  -2   1  138.81    6.82
  -4  -2  -1  129.87    7.09
   4  -2   1  139.03    6.69
   4  -2   1  137.23    6.70
   4  -2   1  123.89    7.17
  -4   2  -1  133.53    7.23
   4   2   1  143.53    6.96
   4   2   1  136.55    7.23
   4   2   1  128.83    7.20
  -4   2  -1  139.31    6.92
   4   2   1  131.59    7.25
  -4   2  -1  160.52    9.16
  -4   2  -1  138.94    6.92
  -4   2  -1  143.82    6.80
   4   2   1  143.23    7.60
  -4   2  -1  139.09    7.21
  -4   2  -1  139.07    7.06
   4   2   1  136.22    7.66
   6  -2   1   13.45    1.87
   6  -2   1   11.96    1.08
  -6  -2  -1   12.48    1.99
   6  -2   1   14.11    1.34
  -6  -2  -1   12.74    1.95
   6  -2   1   13.21    1.18
   6  -2   1   13.27    1.61
  -6  -2  -1   15.06    2.13
  -6  -2  -1   11.73    1.69
   6  -2   1   14.24    1.55
  -6  -2  -1   14.01    1.64
   6  -2   1   13.96    1.86
  -6   2  -1   15.61    1.48
   6   2   1   12.20    1.72
   6   2   1   12.51    1.81
  -6   2  -1   13.76    1.51
   6   2   1   14.73    1.69
  -6   2  -1   11.57    1.55
  -6   2  -1   10.45    1.81
  -6   2  -1   12.35    1.54
   6   2   1   14.54    1.67
   6   2   1   12.14    2.26
   6   2   1   12.90    1.34
  -8  -2  -1   35.54    3.32
   8  -2   1   32.14    3.22
  -8  -2  -1   32.94    2.93
   8  -2   1   33.61    2.43
  -8  -2  -1   33.04    3.23
  -8  -2  -1   32.16    3.38
   8  -2   1   34.83    2.25
  -8  -2  -1   30.16    3.02
   8  -2   1   31.65    2.66
   8  -2   1   30.65    3.45
   8  -2   1   33.28    2.65
   8   2   1   31.26    2.65
  -8   2  -1   34.95    2.64
   8   2   1   33.01    2.84
  -8   2  -1   36.19    2.78
   8   2   1   35.92    2.52
  -8   2  -1   30.33    3.32
  -8   2  -1   31.73    2.79
   8   2   1   30.73    3.01
   8   2   1   39.64    3.44
   8   2   1   30.53    3.77
  -8   2  -1   33.69    2.81
 -10  -2  -1   27.72    3.48
 -10  -2  -1   26.92    3.05
 -10  -2  -1   28.12    3.38
  10  -2   1   28.43    2.90
  10  -2   1   31.54    3.74
 -10  -2  -1   29.60    3.50
  10  -2   1   32.95    2.31
  10  -2   1   31.77    2.96
  10  -2   1   30.42    2.61
  10  -2   1   29.31    3.38
 -10  -2  -1   27.79    3.57
 -10   2  -1   25.18    3.39
 -10   2  -1   32.21    3.08
  10   2   1   28.68    2.90
 -10   2  -1   27.07    2.98
  10   2   1   32.73    2.50
  10   2   1   26.71    2.85
  10   2   1   30.69    3.30
  10   2   1   29.29    3.28
 -10   2  -1   26.59    3.08
  10   2   1   31.13    4.05
 -10   2  -1   26.83    2.66
  12  -2   1   68.75    4.06
  12  -2   1   69.34    4.55
  12  -2   1   62.83    4.68
 -12  -2  -1   58.19    5.49
 -12  -2  -1   66.77    5.76
 -12  -2  -1   66.43    5.22
  12  -2   1   61.97    5.41
 -12  -2  -1   63.68    5.48
  12  -2   1   58.22    6.31
 -12   2  -1   65.96    5.19
 -12   2  -1   70.53    5.54
  12   2   1   64.83    4.83
  12   2   1   71.52    4.37
  12   2   1   63.80    5.39
 -12   2  -1   60.05    4.99
 -12   2  -1   56.24    5.66
 -12   2  -1   60.11    5.04
 -14  -2  -1   17.11    3.39
  14  -2   1   17.54    4.44
 -14  -2  -1   25.06    4.12
  14  -2   1   20.29    2.85
  14  -2   1    9.57    2.81
 -14  -2  -1   18.40    1.90
  14  -2   1   16.24    2.17
 -14  -2  -1   16.83    4.35
 -14  -2  -1   17.39    3.19
 -14  -2  -1   16.70    3.70
 -14   2  -1   22.98    3.11
  14   2   1   22.09    3.56
  14   2   1   21.20    4.43
 -14   2  -1   15.62    3.49
  14   2   1   13.68    2.83
  14   2   1   26.76    3.05
 -14   2  -1   21.85    4.55
 -14   2  -1   17.07    3.39
 -14   2  -1   19.65    3.49
 -16  -2  -1   33.69    5.80
  16  -2   1   26.79    5.05
 -16  -2  -1   24.46    4.44
 -16  -2  -1   23.22    4.94
  16  -2   1   41.78    4.54
  16  -2   1   24.91    3.50
 -16  -2  -1   20.25    4.89
  16   2   1   30.36    3.64
  16   2   1   23.88    3.75
 -16   2  -1   19.13    4.67
  16   2   1   18.34    4.25
 -16   2  -1   24.47    4.76
 -16   2  -1   30.00    4.23
 -16   2  -1   25.70    5.99
  16   2   1   33.97    4.03
 -16   2  -1   25.82    4.60
  16   2   1   29.53    4.84
  17  -3  -1   67.58    7.30
  17  -3  -1   75.59    5.64
 -17  -3   1   76.97    8.74
  17  -3  -1   69.36    8.69
  17  -3  -1   69.34    5.65
  17  -3  -1   79.98    6.81
 -17  -3   1   68.39    7.42
 -17  -3   1   74.95    7.64
 -17  -3   1   73.49    9.22
 -17  -3   1   72.01    6.99
  17   3  -1   68.25    6.06
 -17   3   1   76.16    8.64
 -17   3   1   87.39    8.17
 -17   3   1   79.46    7.04
 -17   3   1   55.09    7.37
 -17   3   1   58.61    8.25
  17   3  -1   61.05    6.84
  17   3  -1   66.49    8.56
  17   3  -1   73.87    5.85
  15  -3  -1  115.99    9.07
 -15  -3   1  129.57    9.15
 -15  -3   1  107.72    8.20
 -15  -3   1  115.22    8.15
 -15  -3   1  113.58    9.62
  15  -3  -1  133.33    8.27
 -15  -3   1  117.97    6.80
  15  -3  -1  101.02    7.94
 -15   3   1  119.24    8.43
  15   3  -1   89.05    6.81
 -15   3   1  102.36    8.04
 -15   3   1  131.60    8.09
  15   3  -1  110.50    8.91
  15   3  -1  104.59    7.82
 -15   3   1  101.78    9.24
  15   3  -1  119.49    7.64
 -15   3   1  130.34   10.03
  13  -3  -1  172.08   10.02
  13  -3  -1  181.65    9.69
  13  -3  -1  187.69   10.95
 -13  -3   1  179.22   10.26
 -13  -3   1  150.80   10.51
  13  -3  -1  149.13   11.03
 -13  -3   1  183.83   11.10
 -13  -3   1  172.42   11.07
  13  -3  -1  174.22   10.68
 -13  -3   1  177.17    9.23
  13   3  -1  179.80   10.27
 -13   3   1  192.05   11.84
  13   3  -1  141.71   12.93
 -13   3   1  191.57   10.24
  13   3  -1  171.96    9.77
  13   3  -1  166.75   11.63
 -13   3   1  159.35    9.98
 -13   3   1  160.38   10.94
 -13   3   1  178.71   10.56
  13   3  -1  187.68    9.71
 -11  -3   1  190.93   10.58
  11  -3  -1  195.19    9.76
 -11  -3   1  190.33   10.89
 -11  -3   1  173.35   10.08
  11  -3  -1  187.97    9.64
  11  -3  -1  174.60   10.60
  11  -3  -1  175.25   10.35
 -11  -3   1  183.10    9.51
  11  -3  -1  172.80    9.95
 -11  -3   1  175.80   10.01
 -11  -3   1  177.67   10.71
  11   3  -1  175.95   10.09
 -11   3   1  197.00   10.21
  11   3  -1  174.40    9.65
 -11   3   1  170.91    9.97
  11   3  -1  167.34   10.48
  11   3  -1  184.84    9.91
 -11   3   1  208.39   11.55
 -11   3   1  185.97   10.39
 -11   3   1  176.40   10.57
  11   3  -1  186.30   11.38
  -9  -3   1  192.72   10.66
  -9  -3   1  205.17   11.44
  -9  -3   1  207.13   11.20
   9  -3  -1  202.52   10.37
   9  -3  -1  203.14   11.17
  -9  -3   1  203.02   10.32
  -9  -3   1  202.57   10.65
   9  -3  -1  217.84   11.17
   9  -3  -1  218.59   10.56
  -9  -3   1  199.55   11.27
   9  -3  -1  191.06   10.66
  -9   3   1  185.32   10.65
  -9   3   1  205.03   10.99
  -9   3   1  212.31   10.79
   9   3  -1  209.05   10.53
   9   3  -1  200.20   11.75
   9   3  -1  194.99   11.24
   9   3  -1  210.52   10.66
   9   3  -1  205.02   10.90
  -9   3   1  222.52   11.79
  -9   3   1  192.49   11.25
   7  -3  -1  388.86   19.94
  -7  -3   1  412.57   19.74
   7  -3  -1  446.31   20.52
  -7  -3   1  405.06   19.81
  -7  -3   1  410.65   20.63
   7  -3  -1  418.91   19.73
  -7  -3   1  395.55   19.90
   7  -3  -1  393.23   20.24
   7  -3  -1  433.37   19.94
  -7  -3   1  419.90   20.48
   7  -3  -1  384.91   19.96
  -7  -3   1  442.85   20.50
  -7   3   1  394.23   20.42
   7   3  -1  434.47   20.91
   7   3  -1  412.96   20.24
  -7   3   1  438.77   20.14
   7   3  -1  394.69   20.45
   7   3  -1  418.01   19.87
  -7   3   1  449.71   21.01
   7   3  -1  427.46   19.92
  -7   3   1  418.69   20.28
  -7   3   1  391.05   19.99
  -5  -3   1  224.51   11.28
   5  -3  -1  211.56   11.20
  -5  -3   1  218.72   11.94
  -5  -3   1  232.06   11.10
   5  -3  -1  237.91   11.81
  -5  -3   1  227.32   11.70
   5  -3  -1  216.92   11.34
   5  -3  -1  211.05   11.58
   5  -3  -1  230.46   11.35
  -5  -3   1  229.74   11.76
  -5   3   1  240.54   12.64
  -5   3   1  225.06   11.57
  -5   3   1  240.26   11.43
   5   3  -1  223.34   12.16
   5   3  -1  229.13   11.60
   5   3  -1  231.16   11.26
   5   3  -1  255.01   10.95
  -5   3   1  216.30   11.44
  -5   3   1  215.51   11.85
   5   3  -1  242.69   11.21
   5   3  -1  213.98   11.81
  -3  -3   1  333.50   16.07
  -3  -3   1  338.51   16.19
  -3  -3   1  338.26   15.74
   3  -3  -1  303.73   16.04
   3  -3  -1  307.83   15.79
   3  -3  -1  355.41   16.02
  -3  -3   1  356.43   15.46
  -3  -3   1  347.12   16.51
   3  -3  -1  328.72   16.32
   3  -3  -1  309.42   15.51
  -3   3   1  335.02   16.11
   3   3  -1  336.38   16.15
  -3   3   1  343.34   16.07
   3   3  -1  318.75   15.49
   3   3  -1  338.73   15.76
   3   3  -1  315.10   16.47
  -3   3   1  304.77   16.31
  -3   3   1  336.97   15.87
   3   3  -1  314.90   16.19
   1  -3  -1  250.74   13.00
   1  -3  -1  269.63   12.97
  -1  -3   1  270.26   12.76
  -1  -3   1  262.70   12.12
   1  -3  -1  266.07   12.22
   1  -3  -1  267.86   13.29
  -1  -3   1  285.29   13.28
  -1  -3   1  260.41   13.00
   1  -3  -1  254.58   12.72
  -1  -3   1  259.77   12.54
  -1   3   1  273.42   13.06
   1   3  -1  248.04   12.92
  -1   3   1  257.74   12.96
  -1   3   1  264.00   12.71
   1   3  -1  256.77   13.34
   1   3  -1  259.89   12.62
   1   3  -1  260.80   12.96
   1   3  -1  257.92   12.61
  -1   3   1  249.61   13.29
  -1  -3  -1  498.20   26.64
   1  -3   1  564.49   26.53
   1  -3   1  577.07   26.34
  -1  -3  -1  585.18   26.95
   1  -3   1  606.88   26.42
  -1  -3  -1  533.55   26.57
   1  -3   1  563.40   26.73
  -1  -3  -1  527.13   26.87
   1  -3   1  612.36   26.91
  -1  -3  -1  556.07   27.19
   1   3   1  565.22   26.49
   1   3   1  554.47   26.83
   1   3   1  558.10   27.25
  -1   3  -1  531.09   26.95
  -1   3  -1  589.63   26.59
   1   3   1  561.45   25.81
   1   3   1  570.13   26.91
  -1   3  -1  573.57   26.64
  -1   3  -1  572.76   26.68
  -1   3  -1  608.80   26.51
   1   3   1  614.92   27.11
   3  -3   1  282.03   12.57
  -3  -3  -1  242.53   12.91
   3  -3   1  238.10   12.51
   3  -3   1  264.92   11.87
  -3  -3  -1  225.89   12.67
   3  -3   1  271.06   12.68
  -3  -3  -1  266.01   12.94
  -3  -3  -1  241.47   12.50
   3  -3   1  249.38   12.59
  -3  -3  -1  254.54   13.17
   3  -3   1  264.02   12.14
   3   3   1  247.76   12.77
   3   3   1  241.20   12.75
   3   3   1  241.75   12.88
  -3   3  -1  251.49   12.48
  -3   3  -1  261.81   12.58
   3   3   1  249.55   13.25
  -3   3  -1  266.18   12.38
   3   3   1  263.25   12.37
  -3   3  -1  242.62   12.84
  -3   3  -1  256.69   12.47
  -5  -3  -1  272.56   14.20
  -5  -3  -1  279.19   13.90
   5  -3   1  268.45   13.12
  -5  -3  -1  258.57   13.76
   5  -3   1  281.06   12.97
   5  -3   1  295.64   13.61
   5  -3   1  275.17   12.99
  -5  -3  -1  253.61   13.49
   5  -3   1  245.35   13.54
  -5  -3  -1  261.00   13.90
   5  -3   1  275.10   13.60
   5  -3   1  289.80   12.98
  -5   3  -1  273.11   13.36
   5   3   1  267.98   14.00
   5   3   1  277.16   13.76
  -5   3  -1  281.68   13.50
  -5   3  -1  273.42   13.88
   5   3   1  270.72   14.30
   5   3   1  254.11   13.63
   5   3   1  270.88   13.27
  -5   3  -1  273.58   13.31
   5   3   1  272.86   13.76
  -5   3  -1  290.97   13.68
  -7  -3  -1  262.61   13.97
  -7  -3  -1  262.38   14.03
   7  -3   1  247.72   13.77
  -7  -3  -1  267.44   14.42
  -7  -3  -1  268.84   14.17
   7  -3   1  282.59   13.25
   7  -3   1  270.01   13.31
   7  -3   1  270.41   13.85
  -7  -3  -1  262.10   13.73
   7  -3   1  288.47   13.14
   7  -3   1  290.80   13.78
   7  -3   1  277.76   12.91
   7   3   1  277.21   13.95
   7   3   1  273.64   13.95
   7   3   1  274.06   13.93
  -7   3  -1  277.20   13.70
  -7   3  -1  260.52   13.50
   7   3   1  274.45   14.24
   7   3   1  287.59   14.66
  -7   3  -1  279.60   13.56
  -7   3  -1  262.41   14.07
   7   3   1  276.40   13.44
  -9  -3  -1  215.41   12.45
  -9  -3  -1  258.31   13.33
   9  -3   1  240.71   11.98
   9  -3   1  237.11   12.03
  -9  -3  -1  243.92   12.84
   9  -3   1  220.62   12.76
  -9  -3  -1  218.89   12.74
   9  -3   1  241.10   12.78
   9  -3   1  246.00   11.28
  -9  -3  -1  218.84   12.88
   9  -3   1  246.17   11.71
  -9   3  -1  228.68   12.83
  -9   3  -1  224.96   12.25
   9   3   1  248.00   12.69
  -9   3  -1  258.72   12.39
   9   3   1  244.15   12.05
   9   3   1  248.71   13.02
   9   3   1  238.95   12.66
   9   3   1  249.52   13.48
   9   3   1  239.74   12.68
  -9   3  -1  242.34   12.51
  11  -3   1   81.20    4.98
  11  -3   1   73.09    5.65
 -11  -3  -1   88.95    6.56
  11  -3   1   84.16    5.37
 -11  -3  -1   72.09    5.94
  11  -3   1   63.86    7.20
 -11  -3  -1   81.51    5.92
  11  -3   1   80.63    4.59
 -11  -3  -1   70.71    6.55
  11   3   1   80.75    4.93
  11   3   1   80.43    5.57
  11   3   1   72.39    5.90
 -11   3  -1   81.74    5.34
 -11   3  -1   71.04    5.69
 -11   3  -1   80.71    5.76
  11   3   1   62.18    6.11
  11   3   1   82.98    5.93
  13  -3   1  114.25    6.27
  13  -3   1  107.67    8.46
 -13  -3  -1   96.28    7.75
  13  -3   1  108.45    6.84
 -13  -3  -1  118.33    8.59
 -13  -3  -1  105.69    8.07
 -13  -3  -1  104.23    8.71
  13  -3   1  112.88    7.11
 -13  -3  -1  109.79    7.78
  13   3   1  109.62    7.85
 -13   3  -1  107.27    7.70
 -13   3  -1  109.05    7.26
 -13   3  -1  109.76    8.99
 -13   3  -1  106.33    7.47
  13   3   1  118.69    7.48
  15  -3   1   69.06    5.82
 -15  -3  -1   56.69    7.18
  15  -3   1   78.61    8.75
 -15  -3  -1   63.90    8.58
 -15  -3  -1   62.43    7.00
 -15  -3  -1   65.88    7.31
  15  -3   1   77.20    5.58
 -15  -3  -1   89.54    8.35
 -15   3  -1   68.60    6.96
  15   3   1   68.02    6.18
 -15   3  -1   79.57    7.05
 -15   3  -1   72.47    6.08
  15   3   1   68.61    6.19
  15   3   1   68.44    7.44
 -15   3  -1   56.37    7.57
 -16  -4   1   31.06    4.91
  16  -4  -1   23.44    3.26
 -16  -4   1   25.64    6.87
 -16  -4   1   26.63    4.57
  16  -4  -1   26.07    3.70
  16  -4  -1   23.84    4.40
 -16  -4   1   32.08    6.95
  16  -4  -1   30.47    4.49
 -16  -4   1   25.79    3.63
  16  -4  -1   14.35    5.23
 -16  -4   1   22.79    4.89
  16   4  -1   31.09    4.09
 -16   4   1   23.95    6.68
 -16   4   1   23.60    5.46
 -16   4   1   24.95    4.05
  16   4  -1   23.52    4.29
  16   4  -1   20.69    5.63
  16   4  -1   16.59    3.29
 -16   4   1   29.25    4.93
 -16   4   1   20.41    4.73
  14  -4  -1   37.24    4.90
 -14  -4   1   44.67    5.16
 -14  -4   1   54.13    6.13
 -14  -4   1   43.73    4.35
  14  -4  -1   44.19    5.44
 -14  -4   1   40.97    5.56
 -14   4   1   46.84    4.60
  14   4  -1   37.65    4.32
 -14   4   1   40.31    6.05
  14   4  -1   43.34    5.68
 -14   4   1   41.95    5.51
  14   4  -1   48.83    4.09
 -14   4   1   40.75    5.46
  14   4  -1   42.94    5.04
  12  -4  -1   39.92    4.46
  12  -4  -1   32.04    4.63
 -12  -4   1   35.74    5.07
  12  -4  -1   38.41    3.21
 -12  -4   1   34.91    4.53
 -12  -4   1   44.90    5.42
 -12  -4   1   39.72    4.12
 -12  -4   1   37.62    3.81
  12  -4  -1   45.50    4.66
 -12   4   1   37.71    4.62
 -12   4   1   40.33    4.49
 -12   4   1   37.57    5.07
 -12   4   1   40.72    4.43
 -12   4   1   41.17    3.94
  12   4  -1   42.14    3.50
  12   4  -1   30.16    3.52
  12   4  -1   41.07    4.24
  12   4  -1   40.51    5.17
  12   4  -1   40.94    6.02
 -10  -4   1   79.25    5.69
  10  -4  -1   83.89    5.99
 -10  -4   1   77.12    6.50
  10  -4  -1   71.96    6.31
  10  -4  -1   81.49    4.87
 -10  -4   1   83.43    5.42
 -10  -4   1   84.14    6.57
 -10  -4   1   76.81    5.18
 -10  -4   1   76.26    5.77
  10  -4  -1   85.02    5.14
  10  -4  -1   73.87    5.48
  10  -4  -1   77.91    5.96
  10   4  -1   72.87    7.43
  10   4  -1   76.61    5.08
  10   4  -1   82.49    5.74
 -10   4   1   79.97    5.58
 -10   4   1   82.98    5.85
  10   4  -1   79.07    5.07
 -10   4   1   74.25    6.69
  10   4  -1   75.31    6.35
 -10   4   1   77.46    5.35
 -10   4   1   73.06    5.66
  -8  -4   1   59.70    5.23
   8  -4  -1   54.64    4.93
  -8  -4   1   51.95    3.88
   8  -4  -1   62.82    3.67
  -8  -4   1   47.92    4.23
  -8  -4   1   60.11    5.04
   8  -4  -1   62.65    4.63
   8  -4  -1   55.65    4.28
   8  -4  -1   49.97    4.32
   8  -4  -1   55.04    3.81
  -8  -4   1   49.21    4.24
   8   4  -1   57.55    3.91
   8   4  -1   53.00    5.01
  -8   4   1   59.23    5.32
  -8   4   1   51.52    4.21
  -8   4   1   50.21    4.36
   8   4  -1   53.83    3.74
   8   4  -1   54.60    5.92
  -8   4   1   55.38    4.16
   8   4  -1   63.76    3.60
  -8   4   1   57.90    4.06
   8   4  -1   56.00    4.32
  -6  -4   1   55.31    3.87
  -6  -4   1   59.24    4.71
   6  -4  -1   46.14    3.70
  -6  -4   1   53.03    3.99
  -6  -4   1   52.40    3.48
   6  -4  -1   49.85    4.41
   6  -4  -1   55.10    3.64
  -6  -4   1   51.18    4.24
   6  -4  -1   55.86    3.90
   6  -4  -1   55.46    4.26
   6   4  -1   56.01    5.42
  -6   4   1   55.52    3.74
  -6   4   1   52.54    4.46
  -6   4   1   44.97    3.99
   6   4  -1   47.97    4.30
  -6   4   1   58.04    4.08
   6   4  -1   53.82    3.58
   6   4  -1   53.79    3.36
   6   4  -1   49.75    3.99
   6   4  -1   52.29    3.43
  -4  -4   1   96.43    6.28
   4  -4  -1   97.78    5.66
  -4  -4   1   98.76    6.40
  -4  -4   1   94.62    5.88
  -4  -4   1  100.91    5.23
   4  -4  -1   97.11    6.01
   4  -4  -1   98.05    6.19
   4  -4  -1   91.67    5.65
   4  -4  -1   95.93    5.36
  -4  -4   1   96.55    5.58
  -4   4   1   92.71    5.95
  -4   4   1  104.80    5.67
   4   4  -1   99.73    5.33
   4   4  -1   91.43    6.28
   4   4  -1  101.21    5.56
   4   4  -1   89.90    6.49
   4   4  -1  100.09    5.98
   4   4  -1   91.37    5.23
  -4   4   1   98.70    6.65
  -4   4   1   92.26    5.78
   2  -4  -1  148.38    8.59
  -2  -4   1  155.46    8.23
   2  -4  -1  154.25    8.28
  -2  -4   1  148.97    7.96
   2  -4  -1  151.08    8.11
  -2  -4   1  160.17    8.83
   2  -4  -1  163.18    8.86
   2  -4  -1  151.60    7.59
  -2  -4   1  159.54    7.51
  -2  -4   1  150.40    8.56
  -2   4   1  165.47    8.17
   2   4  -1  141.84    9.06
   2   4  -1  135.90    8.46
   2   4  -1  152.58    8.00
   2   4  -1  155.77    8.48
   2   4  -1  154.93    7.88
  -2   4   1  149.07    9.02
  -2   4   1  145.70    8.45
  -2   4   1  155.88    8.50
   0  -4   1   50.57    2.90
   0  -4   1   57.50    4.07
   0  -4  -1   58.18    4.31
   0  -4  -1   50.14    3.99
   0  -4   1   52.33    4.14
   0  -4   1   50.65    3.48
   0  -4   1   54.28    3.45
   0  -4  -1   54.59    3.82
   0   4  -1   50.66    4.61
   0   4   1   51.96    4.78
   0   4   1   54.20    3.93
   0   4  -1   53.27    4.00
   0   4   1   53.16    2.82
   0   4  -1   51.42    3.39
   0   4  -1   54.48    3.79
   0   4   1   56.22    3.51
   0   4  -1   58.67    3.51
   0   4   1   49.28    4.05
  -2  -4  -1   98.15    5.97
   2  -4   1  103.08    6.25
  -2  -4  -1  103.88    6.28
   2  -4   1  120.36    6.34
  -2  -4  -1  102.72    6.59
  -2  -4  -1  104.26    6.72
   2  -4   1  103.87    5.61
   2  -4   1  106.11    6.21
   2  -4   1   97.35    5.64
  -2  -4  -1   92.40    5.99
   2  -4   1   98.68    5.78
  -2   4  -1   96.49    6.08
  -2   4  -1   99.31    5.95
   2   4   1  103.57    6.40
   2   4   1   97.74    7.07
   2   4   1  103.21    6.30
   2   4   1  105.37    5.74
   2   4   1  104.21    4.97
  -2   4  -1  107.64    5.81
  -2   4  -1   92.99    6.59
   2   4   1  104.51    6.25
  -2   4  -1  104.25    5.81
  -4  -4  -1  171.95    9.70
   4  -4   1  185.15    8.62
  -4  -4  -1  176.23   10.10
  -4  -4  -1  174.91   10.28
   4  -4   1  185.18    9.80
   4  -4   1  180.61    8.99
   4  -4   1  184.74    9.67
   4  -4   1  171.67    9.43
  -4  -4  -1  187.85    9.93
  -4  -4  -1  167.80    9.53
   4   4   1  178.52    9.23
   4   4   1  176.66    9.91
  -4   4  -1  197.83    9.42
   4   4   1  172.11    9.82
   4   4   1  180.07   10.58
  -4   4  -1  159.88   10.07
   4   4   1  184.45    9.83
  -4   4  -1  188.05    9.51
  -4   4  -1  178.27    9.47
  -4   4  -1  180.56    9.56
   6  -4   1   62.47    4.78
   6  -4   1   75.78    4.23
  -6  -4  -1   70.59    5.80
  -6  -4  -1   69.42    5.03
   6  -4   1   73.76    3.99
  -6  -4  -1   70.98    5.16
   6  -4   1   69.08    4.47
  -6  -4  -1   72.97    5.64
   6  -4   1   79.49    4.98
  -6  -4  -1   79.16    5.20
   6  -4   1   74.64    5.27
   6  -4   1   77.17    4.23
  -6   4  -1   70.69    4.81
  -6   4  -1   66.61    5.61
  -6   4  -1   73.45    4.56
   6   4   1   68.26    5.17
   6   4   1   65.43    6.30
   6   4   1   66.70    4.77
   6   4   1   73.08    5.13
  -6   4  -1   72.37    4.96
   6   4   1   72.12    5.40
  -8  -4  -1   83.29    5.88
  -8  -4  -1   77.27    5.65
   8  -4   1   74.86    4.33
   8  -4   1   67.31    5.24
   8  -4   1   81.43    5.18
   8  -4   1   70.29    4.21
  -8  -4  -1   72.42    6.14
  -8  -4  -1   78.67    5.51
  -8  -4  -1   68.46    5.39
   8  -4   1   70.90    4.28
   8  -4   1   74.68    4.85
  -8   4  -1   73.76    6.09
  -8   4  -1   73.41    4.90
  -8   4  -1   74.54    5.10
   8   4   1   75.49    5.52
   8   4   1   75.11    5.88
   8   4   1   75.13    6.91
  -8   4  -1   70.95    5.18
   8   4   1   78.22    4.78
   8   4   1   79.15    5.41
   8   4   1   62.49    4.85
  10  -4   1   57.25    4.33
 -10  -4  -1   49.37    4.83
  10  -4   1   63.24    4.62
  10  -4   1   62.88    3.84
 -10  -4  -1   41.49    5.59
  10  -4   1   49.46    3.44
 -10  -4  -1   46.78    5.84
  10  -4   1   48.58    6.09
 -10  -4  -1   53.24    5.64
  10   4   1   51.38    4.08
 -10   4  -1   52.10    4.28
  10   4   1   51.86    4.61
  10   4   1   57.30    4.47
 -10   4  -1   45.46    4.76
 -10   4  -1   38.43    7.61
  10   4   1   49.13    4.61
 -10   4  -1   53.93    4.48
  10   4   1   55.53    5.20
 -12  -4  -1   55.13    7.27
  12  -4   1   67.37    5.24
 -12  -4  -1   63.64    6.87
  12  -4   1   64.98    4.27
 -12  -4  -1   58.14    5.57
  12  -4   1   63.99    5.40
  12  -4   1   61.38    6.93
 -12  -4  -1   66.03    6.07
 -12  -4  -1   61.93    6.22
  12  -4   1   62.38    4.61
  12   4   1   68.16    5.30
  12   4   1   67.85    5.62
  12   4   1   70.38    5.78
 -12   4  -1   65.93    7.03
 -12   4  -1   64.24    5.57
 -12   4  -1   74.42    5.28
 -12   4  -1   62.46    5.78
  12   4   1   69.97    4.81
 -14  -4  -1   17.00    4.66
 -14  -4  -1   21.75    4.14
 -14  -4  -1   16.92    4.61
 -14  -4  -1   11.89    5.44
  14  -4   1   16.66    3.20
  14  -4   1   -0.37    4.54
 -14  -4  -1   26.11    5.32
  14  -4   1   18.55    5.21
 -14   4  -1   15.58    4.12
  14   4   1   19.32    3.71
 -14   4  -1   12.48    3.13
  14   4   1   19.93    4.66
  14   4   1   -3.63    5.78
 -14   4  -1   18.64    3.96
  14   4   1   15.58    3.01
 -14   4  -1   17.53    5.35
 -15  -5   1   52.75    5.92
 -15  -5   1   48.22    6.65
 -15  -5   1   50.17    6.27
  15  -5  -1   43.69    6.41
 -15  -5   1   53.87    7.45
 -15  -5   1   57.87    7.80
  15  -5  -1   51.42    6.93
 -15  -5   1   48.20    6.22
  15  -5  -1   55.00    4.85
  15  -5  -1   53.67    4.70
 -15   5   1   51.01    5.75
  15   5  -1   53.43    7.22
  15   5  -1   51.00    6.47
  15   5  -1   50.72    5.39
 -15   5   1   49.25    6.42
  15   5  -1   63.75    5.19
 -15   5   1   38.82    7.81
 -15   5   1   56.10    6.46
  13  -5  -1   92.52    5.85
 -13  -5   1   92.30    7.00
  13  -5  -1  110.13    7.92
 -13  -5   1   76.83   12.56
  13  -5  -1   81.93    7.78
 -13  -5   1   86.72    6.60
  13  -5  -1   88.45    7.20
 -13  -5   1   90.33    7.51
 -13  -5   1   97.27    7.60
 -13  -5   1   99.74    8.71
 -13   5   1   92.59    7.42
  13   5  -1   72.50    9.41
  13   5  -1   93.76    6.51
  13   5  -1  103.58    7.34
 -13   5   1   79.20    9.28
  13   5  -1   96.29    6.46
 -13   5   1   84.88    7.51
 -13   5   1   84.71    6.58
  13   5  -1   75.66    8.35
  11  -5  -1  124.07    7.00
  11  -5  -1   86.92   10.01
 -11  -5   1  118.33    7.32
 -11  -5   1  117.84    8.35
 -11  -5   1  104.05    8.97
  11  -5  -1  120.30    7.93
 -11  -5   1  105.30    7.12
 -11  -5   1  104.53    7.65
  11  -5  -1  110.62    6.52
 -11   5   1  110.71    7.40
  11   5  -1  104.02    9.13
  11   5  -1  108.08    8.56
 -11   5   1   99.67    7.70
 -11   5   1  117.02    7.28
  11   5  -1  116.70    7.45
  11   5  -1   98.38    7.60
 -11   5   1  113.03    9.20
   9  -5  -1  166.28    8.76
  -9  -5   1  157.64   10.19
  -9  -5   1  156.07   10.22
  -9  -5   1  154.22    9.64
   9  -5  -1  144.13    9.06
   9  -5  -1  146.08    8.96
   9  -5  -1  158.28    9.64
  -9  -5   1  153.31    8.77
   9  -5  -1  160.65    8.29
  -9  -5   1  145.58    9.09
   9  -5  -1  147.53    9.75
  -9   5   1  156.07    9.20
   9   5  -1  154.35    8.65
   9   5  -1  163.12   11.26
   9   5  -1  151.22    9.31
   9   5  -1  165.33    8.54
   9   5  -1  142.78    9.84
  -9   5   1  139.10   10.12
   9   5  -1  154.31    8.61
  -9   5   1  166.08    9.08
  -9   5   1  144.43    9.21
  -7  -5   1  322.93   16.99
  -7  -5   1  333.18   16.47
  -7  -5   1  312.77   16.65
   7  -5  -1  301.04   15.71
   7  -5  -1  328.76   16.46
   7  -5  -1  347.94   15.83
  -7  -5   1  303.66   15.76
  -7  -5   1  308.79   15.36
   7  -5  -1  290.30   15.54
   7  -5  -1  297.95   16.17
  -7   5   1  298.41   16.07
   7   5  -1  303.82   15.45
   7   5  -1  302.75   17.06
  -7   5   1  335.50   15.94
   7   5  -1  308.60   16.16
   7   5  -1  285.86   16.47
  -7   5   1  288.84   16.01
   7   5  -1  316.59   15.62
  -7   5   1  302.01   16.89
   5  -5  -1  260.09   13.67
  -5  -5   1  287.45   14.90
  -5  -5   1  284.00   14.21
  -5  -5   1  266.92   14.31
   5  -5  -1  247.08   13.26
   5  -5  -1  256.29   14.23
  -5  -5   1  260.71   13.60
   5  -5  -1  275.00   14.45
  -5  -5   1  278.81   13.20
   5  -5  -1  287.09   13.78
   5   5  -1  276.81   14.25
  -5   5   1  267.11   14.08
  -5   5   1  286.92   13.81
   5   5  -1  247.41   14.41
   5   5  -1  254.35   15.06
   5   5  -1  251.68   13.24
   5   5  -1  275.17   13.59
  -5   5   1  264.11   14.79
  -5   5   1  255.59   14.05
   5   5  -1  259.80   14.19
   3  -5  -1  319.11   17.10
  -3  -5   1  345.52   17.58
   3  -5  -1  316.76   16.52
  -3  -5   1  352.92   16.91
   3  -5  -1  339.42   16.01
   3  -5  -1  336.77   16.71
  -3  -5   1  339.33   17.26
   3  -5  -1  350.22   17.49
  -3  -5   1  317.52   16.37
  -3  -5   1  341.33   15.87
   3   5  -1  303.93   17.77
   3   5  -1  340.57   17.11
  -3   5   1  349.45   16.63
  -3   5   1  311.89   17.61
  -3   5   1  315.89   16.94
   3   5  -1  320.44   17.17
  -3   5   1  344.93   17.08
   3   5  -1  337.30   16.16
  -1  -5   1  294.77   15.01
  -1  -5   1  330.36   16.12
  -1  -5   1  309.29   15.23
  -1  -5   1  306.48   14.36
   1  -5  -1  319.13   15.57
  -1  -5   1  289.78   15.68
   1  -5  -1  320.44   16.23
   1  -5  -1  297.07   15.84
  -1   5   1  277.37   15.58
  -1   5   1  313.63   15.18
   1   5  -1  270.45   15.60
   1   5  -1  313.40   14.91
   1   5  -1  314.22   15.13
  -1   5   1  303.45   16.42
   1   5  -1  310.35   15.68
   1   5  -1  286.55   16.35
  -1   5   1  300.16   15.64
   1  -5   1  412.77   20.13
   1  -5   1  400.16   19.46
   1  -5   1  447.99   21.09
  -1  -5  -1  389.81   20.41
  -1  -5  -1  410.26   20.96
  -1  -5  -1  430.62   20.90
   1  -5   1  409.48   20.85
   1  -5   1  450.16   20.32
  -1  -5  -1  416.44   21.40
  -1  -5  -1  386.97   20.36
   1   5   1  439.79   21.01
   1   5   1  404.09   20.89
  -1   5  -1  399.04   20.72
   1   5   1  414.63   21.67
   1   5   1  430.28   20.30
   1   5   1  409.61   19.31
  -1   5  -1  391.63   21.39
   1   5   1  430.28   20.93
  -1   5  -1  435.92   20.20
  -1   5  -1  427.75   20.75
  -1   5  -1  440.95   20.38
  -3  -5  -1  224.43   11.64
   3  -5   1  210.47   11.57
   3  -5   1  216.57   11.45
  -3  -5  -1  192.43   11.14
   3  -5   1  212.91   10.65
   3  -5   1  215.63    9.90
  -3  -5  -1  202.19   11.85
  -3  -5  -1  195.74   11.15
   3  -5   1  203.46   10.96
   3  -5   1  209.32   10.78
  -3  -5  -1  220.90   12.24
  -3   5  -1  223.87   11.01
  -3   5  -1  197.97   12.00
  -3   5  -1  205.82   11.21
   3   5   1  214.96   12.38
   3   5   1  215.43   10.86
   3   5   1  219.35   11.63
  -3   5  -1  213.28   10.91
  -3   5  -1  194.07   11.29
   3   5   1  198.88   11.40
   3   5   1  199.37   11.61
   3   5   1  211.99    9.88
  -5  -5  -1  192.08   11.63
   5  -5   1  186.38   10.78
  -5  -5  -1  181.76   10.91
  -5  -5  -1  192.28   10.80
   5  -5   1  216.25   11.07
   5  -5   1  205.53   11.28
  -5  -5  -1  205.39   11.24
   5  -5   1  207.15   10.18
  -5  -5  -1  199.95   11.68
   5  -5   1  202.06    9.64
   5   5   1  199.42   12.39
   5   5   1  210.21   10.50
  -5   5  -1  183.15   10.87
   5   5   1  183.23   11.08
  -5   5  -1  211.51   10.72
  -5   5  -1  195.25   10.75
   5   5   1  195.20   11.34
  -5   5  -1  185.85   11.65
   5   5   1  215.22   11.34
  -5   5  -1  211.19   10.65
  -7  -5  -1  184.59   10.82
   7  -5   1  201.53    9.85
   7  -5   1  178.68   10.75
  -7  -5  -1  195.37   10.99
   7  -5   1  187.91    9.76
  -7  -5  -1  191.72   11.71
   7  -5   1  196.87    9.52
  -7  -5  -1  201.28   11.61
  -7   5  -1  197.18   10.38
  -7   5  -1  193.58   10.63
  -7   5  -1  173.61   10.64
   7   5   1  188.38   10.64
   7   5   1  188.58   11.18
   7   5   1  193.37   11.06
   7   5   1  194.39   12.40
   7   5   1  197.69   11.01
  -7   5  -1  174.75   11.42
  -9  -5  -1  158.80   10.07
  -9  -5  -1  159.72   10.93
   9  -5   1  174.30    9.37
   9  -5   1  173.84    9.77
  -9  -5  -1  170.45   11.14
  -9  -5  -1  175.46   10.26
   9  -5   1  146.92    9.73
   9  -5   1  170.54    8.74
   9  -5   1  179.09    8.78
  -9   5  -1  169.87    9.45
   9   5   1  167.36   10.40
   9   5   1  170.57   10.15
   9   5   1  157.90    9.71
  -9   5  -1  153.79   10.85
  -9   5  -1  158.23    9.85
  -9   5  -1  167.72    9.69
   9   5   1  162.28    9.99
 -11  -5  -1   64.95    6.66
 -11  -5  -1   56.00    7.09
  11  -5   1   73.23    6.52
  11  -5   1   80.08    4.83
  11  -5   1   75.16    4.72
 -11  -5  -1   61.98    7.43
  11  -5   1   80.63    6.23
 -11  -5  -1   69.69    6.70
 -11  -5  -1   71.91    6.32
  11  -5   1   76.55    5.81
 -11   5  -1   73.91    5.74
  11   5   1   76.23    6.29
  11   5   1   74.00    6.29
 -11   5  -1   62.50    6.64
  11   5   1   73.48    5.84
  11   5   1   70.78    7.29
 -11   5  -1   76.43    6.14
 -11   5  -1   69.03    7.81
 -13  -5  -1   73.57    8.43
 -13  -5  -1  107.59    9.63
  13  -5   1   88.54    6.05
 -13  -5  -1   84.68    8.00
 -13  -5  -1   75.02    9.32
 -13  -5  -1   81.53    7.69
  13  -5   1   76.80    8.79
  13   5   1   75.02    6.17
  13   5   1   91.83    7.61
  13   5   1  102.83    7.38
 -13   5  -1   87.60    8.25
 -13   5  -1   88.17    9.71
 -13   5  -1   96.72    7.54
 -13   5  -1  101.85    7.13
  13   5   1   80.40    8.34
 -14  -6   1   26.55    4.71
  14  -6  -1   29.52    5.11
 -14  -6   1   23.70    4.40
 -14  -6   1   23.25    5.23
 -14  -6   1   21.92    4.54
  14  -6  -1   23.37    3.61
  14  -6  -1   21.39    3.21
  14  -6  -1   21.64    4.98
  14  -6  -1   21.77    5.81
 -14  -6   1   20.12    6.07
 -14  -6   1   28.91    6.60
 -14   6   1   28.54    4.85
  14   6  -1    4.79    8.32
 -14   6   1   18.66    5.27
 -14   6   1   15.88    3.61
  14   6  -1   26.88    4.69
  14   6  -1   18.08    5.91
  14   6  -1   32.61    4.47
  14   6  -1   26.56    3.76
 -14   6   1   24.23    7.33
 -12  -6   1   23.94    4.00
  12  -6  -1   18.38    3.93
 -12  -6   1   16.61    4.80
 -12  -6   1   26.46    4.01
  12  -6  -1   22.84    3.14
  12  -6  -1   22.02    4.47
 -12  -6   1   18.23    3.74
  12  -6  -1   23.28    4.27
 -12  -6   1   22.67    4.36
  12  -6  -1   18.17    2.65
  12   6  -1   27.52    4.02
  12   6  -1   27.03    3.71
 -12   6   1   20.22    4.47
 -12   6   1   17.30    5.91
 -12   6   1   26.46    4.34
  12   6  -1   25.37    7.24
 -12   6   1   23.43    3.35
  12   6  -1   22.20    5.05
  12   6  -1   27.37    3.48
 -10  -6   1   49.67    6.48
  10  -6  -1   49.35    5.24
  10  -6  -1   43.33    5.89
 -10  -6   1   50.90    5.30
 -10  -6   1   47.09    4.86
 -10  -6   1   51.52    4.77
 -10  -6   1   43.36    6.49
  10  -6  -1   51.81    3.88
 -10  -6   1   45.26    5.63
  10  -6  -1   49.25    5.66
  10   6  -1   47.67    5.32
 -10   6   1   46.84    5.34
 -10   6   1   37.70    6.46
  10   6  -1   45.56    7.40
  10   6  -1   54.62    4.05
  10   6  -1   38.07    5.55
 -10   6   1   42.40    5.48
  10   6  -1   40.65    4.20
  -8  -6   1   39.32    3.87
   8  -6  -1   38.50    4.88
   8  -6  -1   42.57    5.45
  -8  -6   1   38.70    4.52
   8  -6  -1   47.44    3.91
  -8  -6   1   44.67    5.36
   8  -6  -1   46.38    3.25
   8  -6  -1   34.48    4.47
  -8  -6   1   44.63    5.69
  -8  -6   1   35.94    4.25
   8  -6  -1   45.36    5.13
   8   6  -1   35.65    5.22
  -8   6   1   38.74    4.78
  -8   6   1   33.37    5.57
   8   6  -1   44.43    4.81
   8   6  -1   45.51    3.61
   8   6  -1   34.79    3.56
  -8   6   1   34.14    4.67
   8   6  -1   37.31    6.42
   6  -6  -1   50.53    5.04
  -6  -6   1   46.45    4.46
  -6  -6   1   42.41    5.53
  -6  -6   1   51.92    5.47
   6  -6  -1   47.85    5.79
   6  -6  -1   47.33    3.99
   6  -6  -1   42.46    4.30
   6  -6  -1   50.60    4.42
  -6  -6   1   47.93    5.10
  -6  -6   1   47.89    3.84
   6   6  -1   45.70    6.50
  -6   6   1   50.75    4.37
  -6   6   1   45.42    5.12
   6   6  -1   46.49    4.72
  -6   6   1   48.76    6.21
   6   6  -1   48.29    5.70
  -4  -6   1   82.84    5.81
  -4  -6   1   72.25    5.54
   4  -6  -1   73.46    4.93
  -4  -6   1   79.66    6.77
  -4  -6   1   77.88    4.77
   4  -6  -1   74.57    5.59
   4  -6  -1   82.67    5.43
   4  -6  -1   76.58    6.77
  -4  -6   1   76.21    6.53
   4  -6  -1   81.96    6.48
   4   6  -1   78.27    5.15
   4   6  -1   75.15    4.69
  -4   6   1   84.88    5.25
  -4   6   1   76.87    5.86
   4   6  -1   66.33    7.69
   4   6  -1   74.64    6.56
  -4   6   1   70.81    6.11
  -4   6   1   70.86    7.45
   4   6  -1   78.59    5.95
  -2  -6   1  114.25    7.05
   2  -6  -1  103.65    8.02
   2  -6  -1  115.84    7.76
  -2  -6   1  113.62    8.03
  -2  -6   1  115.38    6.09
   2  -6  -1  120.43    7.20
  -2  -6   1  105.15    6.89
  -2  -6   1  128.99    8.20
   2   6  -1  108.19    6.42
   2   6  -1  106.29    8.43
  -2   6   1  111.26    7.33
  -2   6   1   98.81    7.65
  -2   6   1  122.70    6.94
   2   6  -1  107.07    7.90
  -2   6   1  113.58    8.97
   2   6  -1  112.23    7.51
   2   6  -1  121.03    6.83
   0  -6  -1   62.79    6.10
   0  -6  -1   60.48    4.81
   0  -6   1   73.78    5.81
   0  -6   1   66.24    4.70
   0  -6  -1   60.31    5.22
   0  -6  -1   70.56    5.18
   0  -6  -1   76.42    6.15
   0  -6   1   71.76    3.96
   0  -6   1   63.46    4.94
   0  -6   1   69.70    6.16
   0   6   1   71.75    5.50
   0   6   1   71.81    6.55
   0   6   1   70.08    4.64
   0   6   1   60.45    5.67
   0   6  -1   59.28    5.59
   0   6  -1   66.17    4.59
   0   6  -1   67.84    4.42
   0   6  -1   64.95    4.93
   0   6  -1   61.75    7.00
   2  -6   1   94.15    7.27
  -2  -6  -1   82.05    6.33
   2  -6   1   98.73    6.75
  -2  -6  -1   93.61    7.32
  -2  -6  -1   90.86    6.37
   2  -6   1  104.78    6.86
   2  -6   1   94.92    5.72
   2  -6   1   90.94    5.08
  -2  -6  -1   99.35    6.59
  -2  -6  -1   96.44    7.48
   2  -6   1   87.55    6.00
  -2   6  -1   87.00    6.29
   2   6   1   92.19    5.80
  -2   6  -1   87.85    7.89
   2   6   1   85.98    7.00
  -2   6  -1   96.80    5.91
  -2   6  -1   86.14    6.78
   2   6   1   88.30    6.47
  -2   6  -1   88.05    5.74
   2   6   1   89.07    6.40
   2   6   1   96.42    8.54
  -4  -6  -1  117.29    7.97
   4  -6   1  133.89    7.22
   4  -6   1  121.33    6.27
   4  -6   1  122.01    7.59
  -4  -6  -1  126.48    8.97
   4  -6   1  125.56    7.83
  -4  -6  -1  124.76    9.01
   4  -6   1  127.33   10.12
  -4  -6  -1  132.34    8.06
  -4   6  -1  117.62    7.81
   4   6   1  129.93    8.06
  -4   6  -1  134.16    7.55
  -4   6  -1  127.00    8.38
  -4   6  -1  127.87    9.59
   4   6   1  121.03    8.59
  -4   6  -1  138.13    7.68
   4   6   1  112.81    7.79
   4   6   1  132.43    7.38
   4   6   1  125.48   10.04
  -6  -6  -1   70.88    5.75
   6  -6   1   64.33    5.87
  -6  -6  -1   72.34    6.90
   6  -6   1   70.26    4.60
  -6  -6  -1   73.25    7.16
   6  -6   1   69.29    5.29
  -6  -6  -1   63.72    5.88
   6  -6   1   73.42    5.79
   6   6   1   71.69    6.74
   6   6   1   61.67    5.53
  -6   6  -1   62.52    6.08
   6   6   1   67.47    7.22
  -6   6  -1   66.94    5.43
  -6   6  -1   72.56    5.04
   6   6   1   69.28    4.83
   6   6   1   71.31    5.87
   8  -6   1   58.28    6.22
  -8  -6  -1   58.73    5.99
  -8  -6  -1   65.36    6.26
   8  -6   1   61.92    4.59
   8  -6   1   62.48    4.28
   8  -6   1   64.57    5.52
  -8  -6  -1   59.05    5.76
   8   6   1   59.75    5.20
   8   6   1   58.85    6.48
  -8   6  -1   56.67    7.57
  -8   6  -1   56.65    5.37
   8   6   1   56.06    5.29
   8   6   1   60.79    5.66
  -8   6  -1   62.58    5.01
  -8   6  -1   51.24    5.97
  10  -6   1   49.27    3.90
 -10  -6  -1   46.43    6.38
  10  -6   1   52.41    5.71
 -10  -6  -1   49.97    6.44
  10  -6   1   49.75    5.46
 -10  -6  -1   43.60    6.66
 -10  -6  -1   45.49    6.27
 -10  -6  -1   52.99    5.94
  10   6   1   49.23    4.95
  10   6   1   41.96    4.12
 -10   6  -1   58.62    4.82
  10   6   1   51.19    5.67
 -10   6  -1   54.47    5.43
 -10   6  -1   36.15    6.58
  10   6   1   44.72    5.94
 -10   6  -1   45.10    5.76
 -12  -6  -1   43.75    6.24
 -12  -6  -1   64.03    6.73
 -12  -6  -1   38.50    6.21
  12  -6   1   46.04    6.57
 -12  -6  -1   48.82    7.10
 -12  -6  -1   49.60    7.82
  12  -6   1   62.48    6.42
  12   6   1   43.80    5.20
 -12   6  -1   47.07    5.73
  12   6   1   54.34    6.20
  12   6   1   44.80    6.51
 -12   6  -1   39.96    5.86
 -12   6  -1   44.85    7.64
 -12   6  -1   48.39    5.36
  12   6   1   45.41    5.73
 -13  -7   1   71.23   10.37
  13   7  -1   65.14    8.29
 -11  -7   1   77.89    9.25
 -11  -7   1   81.95    8.07
  11  -7  -1   56.10    7.54
  11  -7  -1   91.13    6.31
 -11  -7   1   87.49    7.55
  11  -7  -1   83.80    8.10
 -11  -7   1   83.63    7.77
  11  -7  -1   83.38    5.61
 -11  -7   1   77.52    7.25
  11  -7  -1   79.39    7.49
 -11  -7   1   78.91    9.57
  11   7  -1   82.81    6.49
 -11   7   1   70.22    8.06
  11   7  -1   68.36    9.42
 -11   7   1   85.78    7.07
  11   7  -1   82.63   10.96
 -11   7   1   69.06    9.30
  11   7  -1   88.35    7.97
  11   7  -1   83.44    6.63
  11   7  -1   93.08    5.73
 -11   7   1   89.83    8.12
  -9  -7   1   94.83    9.69
  -9  -7   1   87.79    7.54
   9  -7  -1   94.57    6.67
   9  -7  -1   82.38    7.35
   9  -7  -1   99.04    5.91
  -9  -7   1  110.12    9.13
   9  -7  -1   94.09    7.31
  -9  -7   1   81.94    7.46
  -9  -7   1   92.68    6.95
   9  -7  -1  100.13    8.15
  -9   7   1   85.03    7.87
   9   7  -1  104.04    9.53
  -9   7   1   84.15    8.31
  -9   7   1   75.19    9.16
   9   7  -1   89.36    8.72
  -9   7   1   93.19    6.96
   9   7  -1   80.90   15.31
  -7  -7   1  126.32   10.19
   7  -7  -1  153.38   10.01
  -7  -7   1  145.22   11.23
   7  -7  -1  139.72    9.03
  -7  -7   1  141.86    8.29
  -7  -7   1  145.28    9.23
   7  -7  -1  133.11    8.58
   7   7  -1  137.81    8.20
  -7   7   1  148.86    9.68
   7   7  -1  129.27   10.35
  -7   7   1  123.04    9.65
   7   7  -1  130.13   12.38
   7   7  -1  137.68    9.38
   5  -7  -1  128.44    7.52
   5  -7  -1  132.85    9.82
  -5  -7   1  124.49    8.11
  -5  -7   1  121.26    9.56
  -5  -7   1  127.55    8.43
  -5  -7   1   98.28    6.87
  -5  -7   1  112.23   10.20
  -5   7   1  128.70    8.63
   5   7  -1  121.64    7.00
   5   7  -1  109.69    9.45
   5   7  -1  106.07   10.93
  -5   7   1  123.53    9.07
   5   7  -1  124.57    8.50
  -5   7   1  116.64   10.57
   5   7  -1  125.60    7.51
  -3  -7   1  156.29    9.11
   3  -7  -1  135.46    8.96
   3  -7  -1  142.63    8.82
  -3  -7   1  134.24    8.88
   3  -7  -1  145.83    9.97
  -3  -7   1  146.35   11.37
   3  -7  -1  145.43   10.36
   3   7  -1  147.38    7.99
  -3   7   1  125.84   11.24
  -3   7   1  154.35    9.66
   3   7  -1  138.09    9.95
  -3   7   1  129.27    9.77
   3   7  -1  131.39   11.55
   3   7  -1  152.36    9.52
   1  -7  -1  137.75    9.22
   1  -7  -1  143.28   10.66
   1  -7  -1  167.68   10.56
   1  -7  -1  167.47    9.46
  -1  -7   1  172.86   10.43
  -1  -7   1  161.53    9.35
  -1  -7   1  140.49    8.99
   1  -7  -1  137.66    8.92
   1   7  -1  137.03   11.75
   1   7  -1  161.18    8.40
  -1   7   1  145.67   11.91
   1   7  -1  152.63    9.71
   1   7  -1  162.26    8.95
  -1   7   1  130.92    9.84
   1   7  -1  146.39   10.29
  -1   7   1  136.28   10.12
  -1   7   1  163.12    9.90
  -1  -7  -1  208.56   12.38
  -1  -7  -1  225.44   13.78
  -1  -7  -1  230.21   13.47
  -1  -7  -1  219.83   12.32
   1  -7   1  239.84   12.13
   1  -7   1  245.19   13.39
   1  -7   1  212.16   12.04
  -1   7  -1  232.32   11.72
   1   7   1  218.81   12.68
   1   7   1  233.96   12.88
  -1   7  -1  208.74   14.79
   1   7   1  211.06   14.97
   1   7   1  199.81   13.12
  -1   7  -1  239.97   12.29
   1   7   1  208.55   12.58
  -1   7  -1  194.92   13.19
  -1   7  -1  234.43   12.87
   3  -7   1  146.34    9.07
   3  -7   1  151.93    9.94
  -3  -7  -1  165.29   11.02
  -3  -7  -1  137.15    9.55
  -3  -7  -1  153.38    9.56
   3  -7   1  168.57    8.91
  -3  -7  -1  162.03   11.05
  -3   7  -1  152.60    8.74
   3   7   1  138.38   12.31
  -3   7  -1  166.69    9.89
  -3   7  -1  165.48    9.24
  -3   7  -1  137.99   10.32
   3   7   1  161.15    9.99
   3   7   1  146.17    9.45
   3   7   1  141.06   10.50
  -3   7  -1  142.72   11.58
   5  -7   1  160.94    8.56
   5  -7   1  149.32    9.31
  -5  -7  -1  148.13    9.55
   5  -7   1  163.99   10.10
  -5  -7  -1  145.33    9.84
   5  -7   1  150.47   10.40
  -5  -7  -1  159.87   11.01
  -5  -7  -1  155.03   10.60
   5   7   1  143.00    9.59
  -5   7  -1  153.99    9.71
  -5   7  -1  140.02   10.29
  -5   7  -1  171.11    9.34
  -5   7  -1  141.14   11.71
   5   7   1  116.15   12.27
   5   7   1  159.58   10.03
   5   7   1  140.82   10.51
   7  -7   1  148.26    9.83
  -7  -7  -1  132.09   11.16
   7  -7   1  154.63    9.38
  -7  -7  -1  154.69   11.00
   7  -7   1  152.78    8.56
   7  -7   1  131.27    9.57
  -7  -7  -1  152.74    9.80
  -7  -7  -1  140.35    9.98
   7  -7   1  144.12    8.59
   7   7   1  132.88   10.48
   7   7   1  144.70    9.39
  -7   7  -1  150.66    9.06
  -7   7  -1  117.41   11.41
   7   7   1  148.64    9.89
   7   7   1  150.04    8.71
  -7   7  -1  141.04    9.54
  -7   7  -1  134.20   10.21
  -9  -7  -1  130.08   10.57
  -9  -7  -1  117.75    9.22
   9  -7   1  120.60    8.84
   9  -7   1  123.37    7.86
  -9  -7  -1  110.50   11.31
   9  -7   1  109.45    9.45
  -9  -7  -1  111.80    9.32
  -9  -7  -1  114.77    9.47
  -9   7  -1  122.31    8.87
  -9   7  -1  134.93    8.36
  -9   7  -1  112.55    9.93
  -9   7  -1  106.93   11.42
   9   7   1  111.17   10.08
   9   7   1  119.84    8.39
   9   7   1  134.24    9.40
 -11  -7  -1   55.92    7.03
  11  -7   1   55.85    7.24
 -11  -7  -1   71.46    7.78
 -11  -7  -1   55.01    8.63
 -11  -7  -1   68.61    8.67
 -11  -7  -1   61.96    8.46
  11  -7   1   56.45    6.70
 -11   7  -1   54.99    6.23
  11   7   1   81.62    7.79
  11   7   1   52.16    7.52
 -11   7  -1   51.10    7.33
  11   7   1   68.28    6.44
  11   7   1   65.98    5.64
 -11   7  -1   58.07    7.36
 -11   7  -1   48.53    9.00
 -10  -8   1   53.09    6.84
  10  -8  -1   55.84    6.78
 -10  -8   1   56.57    8.19
 -10  -8   1   48.82    6.81
  10  -8  -1   49.98    6.14
  10  -8  -1   56.10    7.08
 -10  -8   1   58.75    7.02
  10   8  -1   55.29    8.48
 -10   8   1   47.48    9.70
 -10   8   1   48.30    6.20
  10   8  -1   63.53    8.14
 -10   8   1   50.70    7.56
 -10   8   1   62.06    7.40
  10   8  -1   47.52   10.74
  -8  -8   1   52.80    7.27
  -8  -8   1   54.68    7.18
  -8  -8   1   52.08    7.00
   8  -8  -1   53.11    5.47
   8  -8  -1   57.80    6.52
   8  -8  -1   51.43    5.82
   8   8  -1   55.05    5.04
  -8   8   1   48.15    5.53
   8   8  -1   49.43    7.24
  -8   8   1   47.46    8.87
   8   8  -1   52.25    6.97
  -8   8   1   46.05    7.12
   8   8  -1   54.12    9.89
   8   8  -1   58.38    5.30
  -8   8   1   55.91    6.91
   6  -8  -1   59.08    6.97
   6  -8  -1   62.22    5.51
  -6  -8   1   55.39    6.35
   6  -8  -1   53.02    5.89
  -6  -8   1   64.62    7.72
   6  -8  -1   66.22    7.63
  -6  -8   1   55.71    6.44
   6   8  -1   51.24    7.27
  -6   8   1   51.88    5.66
  -6   8   1   70.27    7.07
   6   8  -1   55.80    6.74
   6   8  -1   42.17    8.93
   6   8  -1   55.77    5.24
  -6   8   1   59.98    8.86
   6   8  -1   60.28    5.18
  -6   8   1   48.94    6.81
   4  -8  -1   63.79    5.70
  -4  -8   1   66.93    7.83
  -4  -8   1   59.42    6.66
  -4  -8   1   68.96    6.20
   4  -8  -1   61.90    6.67
   4  -8  -1   73.39    7.81
   4   8  -1   54.85    5.12
   4   8  -1   60.74    6.87
  -4   8   1   54.72    8.61
  -4   8   1   62.75    7.77
  -4   8   1   69.29    5.63
   4   8  -1   69.02    8.52
   4   8  -1   62.27    7.57
   4   8  -1   70.93    5.56
  -4   8   1   67.85    7.02
   2  -8  -1   62.09    7.98
   2  -8  -1   75.79    6.08
   2  -8  -1   59.71    6.69
  -2  -8   1   66.73    6.64
   2  -8  -1   67.51    7.92
  -2  -8   1   91.18    7.95
   2   8  -1   59.48    9.27
   2   8  -1   72.90    6.85
   2   8  -1   66.36    5.47
  -2   8   1   51.97    6.92
   2   8  -1   70.78    5.05
   2   8  -1   60.89    8.02
  -2   8   1   66.47    9.64
  -2   8   1   69.13    5.54
  -2   8   1   56.97    6.78
   0  -8  -1   44.74    6.07
   0  -8  -1   40.65    6.61
   0  -8  -1   32.49    4.96
   0  -8   1   40.04    5.31
   0  -8  -1   33.38    4.35
   0  -8   1   55.46    6.37
   0  -8  -1   31.77    4.36
   0   8   1   40.25    4.30
   0   8   1   39.55    7.77
   0   8  -1   38.95    5.07
   0   8   1   24.58    5.49
   0   8   1   30.97    4.36
   0   8  -1   44.32    4.34
   0   8  -1   38.41    7.75
   0   8  -1   24.41    5.62
   0   8   1   43.47    6.28
   0   8  -1   40.91    4.06
   2  -8   1   31.33    4.49
  -2  -8  -1   31.82    4.90
   2  -8   1   29.68    4.83
  -2  -8  -1   31.61    4.45
   2  -8   1   34.43    4.62
  -2  -8  -1   44.51    5.15
  -2  -8  -1   38.12    6.53
   2   8   1   33.94    6.01
   2   8   1   34.50    4.57
  -2   8  -1   31.12    5.74
  -2   8  -1   34.05    7.54
   2   8   1   36.49    4.90
   2   8   1   34.38    4.15
   2   8   1   29.07    7.90
  -2   8  -1   32.48    3.94
  -2   8  -1   33.58    4.91
  -2   8  -1   30.79    4.19
   4  -8   1   35.25    4.92
  -4  -8  -1   45.36    5.72
   4  -8   1   42.06    5.71
  -4  -8  -1   38.55    7.14
   4  -8   1   41.28    4.40
  -4  -8  -1   37.58    5.29
   4   8   1   44.89    6.26
   4   8   1   31.53    5.03
  -4   8  -1   35.58    4.75
  -4   8  -1   40.07    5.32
   4   8   1   41.12    4.39
   4   8   1   32.58    4.29
  -4   8  -1   39.01    7.89
  -4   8  -1   42.91    6.49
  -6  -8  -1   19.34    4.35
  -6  -8  -1   30.14    7.04
   6  -8   1   16.05    3.72
   6  -8   1   19.11    4.24
   6  -8   1   -2.00    5.49
  -6  -8  -1   23.27    4.41
  -6  -8  -1   13.04    4.62
  -6  -8  -1   23.70    6.36
   6  -8   1   24.49    4.57
   6   8   1   18.52    3.66
  -6   8  -1   22.76    4.36
   6   8   1   18.31    3.83
  -6   8  -1   18.32    7.14
  -6   8  -1   22.10    3.63
   6   8   1   14.60    5.54
   6   8   1   18.77    3.31
  -6   8  -1   21.35    5.80
   6   8   1   -1.44    7.47
  -8  -8  -1   15.71    4.91
   8  -8   1   14.91    4.59
   8  -8   1    5.55    6.34
  -8  -8  -1   20.03    7.46
  -8  -8  -1   10.49    5.80
  -8  -8  -1   16.72    4.84
  -8  -8  -1   17.32    5.19
   8  -8   1   17.79    5.06
   8  -8   1   17.55    4.01
  -8   8  -1   14.49    5.64
   8   8   1   16.95    3.22
   8   8   1   -0.77    8.27
   8   8   1   19.37    6.09
  -8   8  -1    6.53    4.34
   8   8   1   20.56    4.10
  -8   8  -1   22.18    3.95
   8   8   1   19.50    4.58
  -8   8  -1   13.10    7.51
  -5  -9   1  114.02    9.41
  -5  -9   1  114.62   11.35
  -5  -9   1  102.17    9.54
   5  -9  -1  112.78    9.87
   5  -9  -1  113.71    8.39
   5  -9  -1  105.08   10.70
  -5   9   1  104.45   11.30
   5   9  -1   97.26   13.38
  -5   9   1   96.34   12.46
   5   9  -1  114.86    9.73
  -5   9   1  112.47   10.37
  -5   9   1  122.39    8.44
   5   9  -1   95.81    7.69
   5   9  -1  104.69   12.11
   3  -9  -1  117.41    8.53
   3  -9  -1  106.30    9.61
  -3  -9   1  108.73    9.47
  -3  -9   1  146.78   11.60
   3  -9  -1  119.82   11.23
  -3  -9   1  114.76    8.81
  -3   9   1  122.72    8.17
  -3   9   1  139.76   10.45
   3   9  -1  103.05    7.94
  -3   9   1  132.48   15.67
   3   9  -1  107.23    8.15
   3   9  -1  103.09   12.78
   3   9  -1  101.19   11.55
  -3   9   1   83.14   10.95
   3   9  -1  103.21    9.79
   1  -9  -1   82.40    8.93
  -1  -9   1   98.13    8.02
  -1  -9   1   95.32    9.06
   1  -9  -1  109.87   10.99
   1  -9  -1  114.59    8.88
  -1  -9   1  121.90   10.78
   1   9  -1  108.49    7.79
  -1   9   1  108.69    7.60
   1   9  -1  100.53   12.13
   1   9  -1   96.95   11.00
  -1   9   1  113.45    9.44
  -1   9   1  102.23    8.18
  -1   9   1   87.06   10.60
   1   9  -1  110.62    9.38
  -1   9   1   89.09   12.37
   1  -9   1  114.10    9.60
  -1  -9  -1  105.90    9.69
  -1  -9  -1  142.32   11.99
  -1  -9  -1  114.12    9.19
   1  -9   1  111.91    8.17
   1  -9   1  106.57   10.47
   1   9   1  113.74    8.81
   1   9   1  133.47   10.10
   1   9   1  117.84    8.11
  -1   9  -1  113.97    9.82
  -1   9  -1  121.60    8.38
  -1   9  -1  111.08   14.76
  -1   9  -1  106.53    8.25
   1   9   1  107.38   11.31
   1   9   1   96.86   12.77
  -1   9  -1   97.74   11.49
  -3  -9  -1   62.42    8.23
   3  -9   1   68.11    8.67
  -3  -9  -1  110.55   10.85
   3  -9   1   76.02    6.58
   3  -9   1   72.89    8.44
  -3  -9  -1   77.26    7.84
  -3  -9  -1   80.37   10.11
  -3   9  -1   59.48    8.69
  -3   9  -1   71.79    8.54
   3   9   1   68.87    6.63
  -3   9  -1   75.73    6.73
   3   9   1   72.32    6.64
   3   9   1   68.77    8.21
   3   9   1   63.88    8.74
  -3   9  -1   66.51   11.28
 -18   0   2   52.41    7.53
  18   0  -2   59.70    7.35
 -18   0   2   66.92    7.61
 -18   0   2   67.06    6.69
  18   0  -2   66.99    6.58
 -18   0   2   58.33    7.14
  18   0  -2   65.71    5.69
  18   0  -2   67.57    5.32
 -16   0   2  150.28    9.40
  16   0  -2  101.06    9.75
 -16   0   2  122.87    8.57
  16   0  -2  141.73    8.62
  16   0  -2  124.58    8.78
 -16   0   2  122.44    9.67
  14   0  -2  146.99    8.23
  14   0  -2  141.36    8.97
  14   0  -2  140.39    9.59
 -14   0   2  137.19    9.55
  14   0  -2  160.70    8.93
 -14   0   2  148.56    9.31
  12   0  -2  217.44   12.17
 -12   0   2  212.86   11.87
 -12   0   2  218.65   12.50
 -12   0   2  238.50   12.54
  12   0  -2  240.33   11.79
  12   0  -2  236.31   11.92
  12   0  -2  235.16   12.16
 -12   0   2  243.29   12.40
  12   0  -2  221.37   12.65
 -10   0   2  251.37   13.41
  10   0  -2  262.97   13.24
  10   0  -2  270.87   12.93
 -10   0   2  269.85   13.37
  10   0  -2  246.39   13.21
  10   0  -2  266.60   13.01
 -10   0   2  241.02   12.90
  10   0  -2  270.48   12.39
 -10   0   2  256.83   13.47
   8   0  -2  278.22   14.29
  -8   0   2  270.40   13.82
  -8   0   2  266.29   14.16
   8   0  -2  292.95   14.12
   8   0  -2  296.58   13.87
   8   0  -2  266.61   14.08
  -8   0   2  298.57   14.34
   8   0  -2  298.28   13.57
   8   0  -2  288.23   13.91
  -8   0   2  300.80   14.23
   6   0  -2  436.28   19.90
   6   0  -2  402.24   20.09
  -6   0   2  489.14   22.94
   6   0  -2  397.16   19.98
   6   0  -2  425.19   20.01
  -6   0   2  398.53   20.00
   6   0  -2  426.89   19.74
  -6   0   2  400.85   19.76
  -6   0   2  430.82   20.05
  -6   0   2  421.17   20.14
   6   0  -2  424.10   19.81
   4   0  -2  223.55   10.84
  -4   0   2  219.92   10.84
   4   0  -2  236.58   10.74
  -4   0   2  235.38   10.94
   4   0  -2  223.36   10.91
   4   0  -2  220.00   10.84
  -4   0   2  235.23   10.84
   4   0  -2  224.48   10.82
  -4   0   2  215.68   10.67
  -2   0   2  156.94    7.55
  -2   0   2  162.40    8.02
  -2   0   2  153.86    7.53
  -2   0   2  145.33    7.44
   2   0  -2  157.17    7.50
   2   0  -2  155.06    7.55
  -2   0   2  156.83    7.31
  -2   0   2  173.60   10.13
   2   0  -2  170.82    7.49
   0   0  -2  351.84   15.86
   0   0   2  353.69   19.32
   0   0  -2  337.92   16.21
   0   0   2  360.65   16.74
   0   0  -2  332.57   15.83
  -2   0  -2  333.84   15.27
   2   0   2  316.26   15.62
   2   0   2  335.81   15.26
  -2   0  -2  312.52   15.83
   2   0   2  358.76   16.31
  -2   0  -2  340.86   15.39
  -2   0  -2  347.58   15.15
   2   0   2  312.35   15.79
  -2   0  -2  333.09   15.64
   2   0   2  313.68   19.24
   2   0   2  338.10   15.27
   4   0   2  178.61    9.01
  -4   0  -2  156.54    8.01
   4   0   2  165.69    7.98
   4   0   2  167.09    8.04
   4   0   2  149.36    8.23
  -4   0  -2  166.87    8.29
   4   0   2  167.01    8.44
  -4   0  -2  162.77    7.91
  -4   0  -2  162.86    7.94
  -4   0  -2  161.90    8.50
  -4   0  -2  168.51    8.21
   6   0   2  371.23   17.32
   6   0   2  370.50   17.38
  -6   0  -2  382.92   17.77
  -6   0  -2  376.54   18.14
   6   0   2  350.58   18.05
   6   0   2  386.88   17.84
   6   0   2  376.79   18.29
  -6   0  -2  388.69   17.90
   6   0   2  381.77   17.95
  -6   0  -2  362.21   17.87
   6   0   2  404.99   19.04
  -6   0  -2  366.51   18.29
  -8   0  -2  262.15   13.56
   8   0   2  254.62   12.99
   8   0   2  287.51   14.42
  -8   0  -2  269.77   13.18
  -8   0  -2  256.24   12.98
   8   0   2  259.40   12.61
   8   0   2  252.35   13.38
   8   0   2  262.23   13.21
  -8   0  -2  265.44   12.38
   8   0   2  272.45   12.50
   8   0   2  266.98   13.48
 -10   0  -2  241.74   13.13
 -10   0  -2  252.52   11.35
  10   0   2  251.27   13.02
 -10   0  -2  232.48   12.57
 -10   0  -2  257.35   13.17
 -10   0  -2  236.83   13.11
  10   0   2  250.44   13.09
 -10   0  -2  255.27   12.79
  10   0   2  245.56   12.96
 -12   0  -2  123.81    8.04
  12   0   2  118.01    7.88
 -12   0  -2  121.12    8.07
 -12   0  -2  113.73    8.17
 -12   0  -2  110.24    7.40
 -12   0  -2  137.73    8.31
 -14   0  -2  106.88    8.94
 -14   0  -2  124.36    7.91
 -14   0  -2  115.58    8.46
  14   0   2  118.29    7.75
 -14   0  -2  108.48    8.27
 -14   0  -2  117.01    8.74
  14   0   2  120.70    8.93
  14   0   2  120.77    7.65
  16   0   2   83.24    8.94
  16   0   2   68.19    6.59
 -16   0  -2   70.70    7.96
 -16   0  -2   83.56    7.51
  16   0   2   82.19    6.71
 -16   0  -2   77.49    9.26
 -16   0  -2   82.48    8.37
 -16   0  -2   85.03    8.42
  19  -1  -2   21.11    5.10
 -19  -1   2   18.95    5.02
 -19  -1   2   17.84    7.11
 -19  -1   2   16.30    5.97
  19  -1  -2   19.51    3.42
  19  -1  -2    3.78    6.86
  19  -1  -2   22.87    4.55
  19  -1  -2   22.38    3.38
 -19  -1   2   22.47    4.33
 -19   1   2   25.65    7.43
  19   1  -2   14.66    5.31
  19   1  -2   19.73    4.67
 -19   1   2   35.80    4.82
 -19   1   2   19.61    5.64
 -19   1   2   25.51    6.86
 -19   1   2   19.85    4.75
  19   1  -2   18.39    3.52
  19   1  -2   18.15    3.23
  19   1  -2    2.60    6.54
 -17  -1   2   30.75    4.49
  17  -1  -2   30.83    4.09
 -17  -1   2   26.20    5.74
  17  -1  -2   31.17    3.74
  17  -1  -2   27.53    4.59
 -17  -1   2   22.46    4.80
  17  -1  -2   32.49    3.96
 -17  -1   2   35.35    4.45
 -17   1   2   22.61    4.24
  17   1  -2   27.40    4.77
  17   1  -2   30.78    4.24
 -17   1   2   30.54    5.19
 -17   1   2   39.80    5.03
 -17   1   2   29.40    7.03
 -17   1   2   25.62    4.72
  17   1  -2   33.26    3.64
  17   1  -2   33.15    3.81
  15  -1  -2   37.69    4.67
 -15  -1   2   31.12    4.07
 -15  -1   2   33.60    5.30
  15  -1  -2   34.05    5.18
 -15  -1   2   31.80    4.82
  15  -1  -2   31.75    3.52
  15   1  -2   31.92    5.29
 -15   1   2   37.66    4.87
 -15   1   2   35.94    5.07
 -15   1   2   35.01    5.98
  15   1  -2   29.11    4.17
 -15   1   2   31.46    3.99
  15   1  -2   36.98    4.17
 -13  -1   2   38.73    4.60
  13  -1  -2   36.82    3.23
  13  -1  -2   37.81    4.13
  13  -1  -2   46.96    3.44
  13  -1  -2   41.59    2.38
 -13  -1   2   37.83    3.95
 -13  -1   2   36.93    3.89
  13  -1  -2   38.80    4.97
 -13  -1   2   38.90    3.97
  13  -1  -2   45.99    3.99
 -13   1   2   41.62    5.69
 -13   1   2   38.12    4.01
  13   1  -2   43.73    5.27
 -13   1   2   33.24    4.45
  13   1  -2   43.70    3.44
 -13   1   2   42.74    4.40
 -13   1   2   42.63    4.31
  13   1  -2   37.07    4.40
  13   1  -2   41.51    3.81
  13   1  -2   39.62    3.25
  11  -1  -2   69.34    3.72
  11  -1  -2   63.26    4.82
 -11  -1   2   65.58    4.62
 -11  -1   2   65.48    4.84
 -11  -1   2   67.61    4.81
  11  -1  -2   67.63    4.31
  11  -1  -2   73.58    4.39
 -11  -1   2   65.53    4.66
 -11  -1   2   70.70    5.18
  11  -1  -2   66.36    4.75
  11  -1  -2   68.70    5.44
  11   1  -2   66.19    5.11
 -11   1   2   60.92    5.26
  11   1  -2   68.05    4.67
 -11   1   2   71.84    4.86
  11   1  -2   69.04    4.32
 -11   1   2   74.37    6.96
  11   1  -2   69.69    4.32
 -11   1   2   71.81    4.82
 -11   1   2   66.39    4.49
  11   1  -2   71.37    5.28
   9  -1  -2   84.76    4.76
  -9  -1   2   72.69    4.68
  -9  -1   2   81.97    5.08
   9  -1  -2   80.18    5.01
  -9  -1   2   77.91    4.50
  -9  -1   2   78.26    5.21
   9  -1  -2   82.77    4.75
  -9  -1   2   84.31    5.37
  -9  -1   2   79.63    4.85
   9  -1  -2   75.47    5.03
   9  -1  -2   81.30    4.34
   9  -1  -2   89.94    5.56
   9   1  -2   82.20    5.36
  -9   1   2   74.28    4.82
  -9   1   2   85.78    5.24
  -9   1   2   90.90    7.13
   9   1  -2   76.47    5.17
  -9   1   2   76.12    5.13
   9   1  -2   78.56    4.33
   9   1  -2   82.10    4.69
   9   1  -2   86.64    5.03
   9   1  -2   84.54    4.75
  -9   1   2   84.49    5.03
  -7  -1   2   55.07    3.43
  -7  -1   2   55.56    3.73
   7  -1  -2   55.65    3.67
   7  -1  -2   59.77    3.94
  -7  -1   2   54.01    3.31
   7  -1  -2   56.05    3.39
  -7  -1   2   56.83    3.81
  -7  -1   2   58.44    3.70
  -7   1   2   61.81    5.38
   7   1  -2   57.23    3.99
  -7   1   2   57.29    3.90
   7   1  -2   52.16    3.51
   7   1  -2   54.03    3.31
   7   1  -2   57.80    3.35
  -7   1   2   53.25    3.47
   7   1  -2   55.60    3.81
  -7   1   2   57.31    3.75
  -7   1   2   58.15    3.59
   7   1  -2   52.36    3.16
   5  -1  -2  117.72    6.63
  -5  -1   2  137.91    8.88
  -5  -1   2  117.79    6.42
  -5  -1   2  126.19    6.55
   5  -1  -2  134.28    6.51
   5  -1  -2  120.63    6.53
   5  -1  -2  132.01    6.71
  -5  -1   2  123.28    6.56
  -5  -1   2  121.25    6.31
  -5  -1   2  131.55    6.75
   5   1  -2  122.92    6.50
  -5   1   2  122.74    6.46
   5   1  -2  138.34    6.39
  -5   1   2  140.99    9.65
  -5   1   2  123.89    6.68
   5   1  -2  119.34    6.68
   5   1  -2  119.00    6.64
   5   1  -2  128.17    6.40
  -5   1   2  128.22    6.55
  -5   1   2  132.30    6.68
   5   1  -2  127.06    6.34
  -3  -1   2  150.65    7.29
  -3  -1   2  143.43    6.91
   3  -1  -2  148.67    7.35
   3  -1  -2  141.19    7.15
  -3  -1   2  142.67    7.26
  -3  -1   2  155.82    7.11
   3  -1  -2  139.67    7.23
   3  -1  -2  148.94    7.21
  -3  -1   2  143.24    7.08
  -3   1   2  158.35    9.95
  -3   1   2  141.80    7.33
  -3   1   2  144.55    7.12
  -3   1   2  143.88    7.24
   3   1  -2  135.72    7.21
  -3   1   2  143.37    7.16
   3   1  -2  149.91    6.99
   3   1  -2  147.78    7.23
   3   1  -2  143.67    7.25
   1  -1  -2  194.38    9.18
  -1  -1   2  214.05   11.42
   1  -1  -2  171.00    8.95
  -1  -1   2  207.78    9.24
  -1  -1   2  175.84    9.07
   1  -1  -2  185.56    8.85
   1  -1  -2  185.56    8.99
  -1  -1   2  187.33    8.70
  -1  -1   2  190.23    8.85
   1   1  -2  183.84    9.06
   1   1  -2  183.60    8.67
  -1   1   2  183.16    8.84
   1   1  -2  188.53    8.81
  -1   1   2  168.47    9.03
   1   1  -2  196.88    8.61
  -1   1   2  183.26    8.75
  -1   1   2  186.38    8.96
   1   1  -2  187.30    8.85
  -1  -1  -2  138.72    6.79
   1  -1   2  157.08    7.88
   1  -1   2  141.49    7.03
  -1  -1  -2  141.20    6.81
  -1  -1  -2  139.68    7.01
  -1  -1  -2  134.65    7.16
  -1  -1  -2  122.74    7.31
   1  -1   2  153.11    9.61
   1  -1   2  132.43    7.19
   1  -1   2  148.44    6.61
  -1  -1  -2  138.31    6.91
  -1   1  -2  137.02    6.97
  -1   1  -2  143.62    6.74
   1   1   2  147.87    6.57
   1   1   2  131.27   10.43
   1   1   2  144.87    6.96
   1   1   2  143.51    7.73
   1   1   2  144.57    6.56
  -1   1  -2  141.35    6.63
   1   1   2  141.42    7.06
  -1   1  -2  144.97    7.00
  -1   1  -2  148.01    7.21
   3  -1   2  107.14    5.22
  -3  -1  -2  102.91    5.37
  -3  -1  -2   99.35    5.91
   3  -1   2   97.71    5.73
  -3  -1  -2  104.45    5.42
   3  -1   2  123.24    6.25
  -3  -1  -2  100.32    5.75
   3  -1   2  106.18    5.53
   3  -1   2  106.58    5.15
  -3  -1  -2  101.94    5.51
   3  -1   2   84.49    8.94
   3   1   2  108.07    6.28
  -3   1  -2  107.50    5.12
   3   1   2  107.20    5.48
  -3   1  -2  112.39    5.73
  -3   1  -2  107.82    5.31
   3   1   2  103.76    5.38
   3   1   2  108.81    5.05
  -3   1  -2  110.00    5.57
   3   1   2  108.81    5.10
   3   1   2  100.89    5.83
  -3   1  -2  108.39    5.33
  -3   1  -2  104.10    5.09
  -3   1  -2  104.25    5.32
   3   1   2  111.04    5.58
  -5  -1  -2  236.28   11.35
   5  -1   2  234.05   11.40
  -5  -1  -2  226.31   11.21
  -5  -1  -2  223.37   11.82
   5  -1   2  229.42   11.02
   5  -1   2  216.86   11.54
   5  -1   2  235.02   11.15
  -5  -1  -2  235.69   11.68
  -5  -1  -2  217.50   11.29
  -5   1  -2  226.36   11.23
  -5   1  -2  226.30   10.97
   5   1   2  232.55   11.40
  -5   1  -2  245.18   11.07
  -5   1  -2  225.06   11.25
  -5   1  -2  228.82   11.39
   5   1   2  215.34   11.18
  -5   1  -2  235.99   10.90
   5   1   2  237.09   12.22
   5   1   2  225.96   11.67
   5   1   2  232.28   11.28
  -5   1  -2  239.45   11.59
   5   1   2  234.65   10.93
   7  -1   2   56.98    3.67
   7  -1   2   59.95    3.80
  -7  -1  -2   57.50    3.83
   7  -1   2   57.73    3.52
   7  -1   2   58.37    3.13
  -7  -1  -2   59.35    4.21
  -7  -1  -2   52.93    4.51
  -7  -1  -2   56.27    3.86
   7  -1   2   59.68    4.11
  -7  -1  -2   54.15    3.93
  -7   1  -2   57.60    3.63
  -7   1  -2   57.07    3.05
   7   1   2   59.04    3.70
   7   1   2   57.70    3.24
   7   1   2   62.88    4.60
   7   1   2   61.26    4.07
   7   1   2   59.27    3.52
  -7   1  -2   59.20    4.03
  -7   1  -2   63.45    4.03
  -7   1  -2   56.03    3.53
  -7   1  -2   57.45    4.06
   7   1   2   58.89    3.93
  -9  -1  -2   59.53    4.84
   9  -1   2   59.07    4.84
   9  -1   2   63.36    3.60
  -9  -1  -2   55.60    4.47
   9  -1   2   61.44    3.28
   9  -1   2   63.75    4.19
  -9  -1  -2   54.63    4.52
   9  -1   2   58.28    3.80
  -9  -1  -2   57.65    4.12
  -9  -1  -2   57.83    4.34
   9  -1   2   60.33    4.15
  -9   1  -2   59.74    4.16
  -9   1  -2   60.68    4.03
   9   1   2   55.75    4.29
   9   1   2   58.23    4.44
   9   1   2   58.44    4.90
  -9   1  -2   55.88    4.34
   9   1   2   62.10    3.51
   9   1   2   58.67    4.01
  -9   1  -2   56.38    4.63
   9   1   2   60.95    3.90
 -11  -1  -2   73.07    5.13
 -11  -1  -2   72.12    5.49
  11  -1   2   69.17    6.10
 -11  -1  -2   66.09    5.17
  11  -1   2   64.72    4.79
 -11  -1  -2   62.67    5.55
 -11   1  -2   76.80    4.98
  11   1   2   72.00    5.53
 -11   1  -2   67.58    5.31
 -11   1  -2   70.60    5.30
  11   1   2   72.91    4.71
  11   1   2   72.64    5.10
 -11   1  -2   61.57    5.51
 -11   1  -2   66.45    4.95
  11   1   2   65.77    4.08
  13  -1   2   44.38    5.56
 -13  -1  -2   49.27    5.75
 -13  -1  -2   51.85    4.93
 -13  -1  -2   46.59    5.45
 -13  -1  -2   57.15    5.57
 -13   1  -2   55.80    5.34
 -13   1  -2   52.07    4.76
  13   1   2   53.19    4.67
 -13   1  -2   48.52    5.39
 -13   1  -2   49.55    5.97
  13   1   2   45.98    5.29
  15  -1   2   16.61    3.17
  15  -1   2   -2.10    4.54
 -15  -1  -2   16.78    3.42
 -15  -1  -2   13.43    5.32
 -15  -1  -2   16.26    3.71
 -15  -1  -2   15.78    4.17
  15  -1   2   12.43    2.97
 -15  -1  -2   17.51    4.46
  15  -1   2   15.51    4.25
 -15   1  -2   17.14    3.20
  15   1   2   11.48    3.00
 -15   1  -2   15.72    4.23
 -15   1  -2   16.21    3.98
  15   1   2   15.78    4.13
 -15   1  -2   14.21    4.71
 -15   1  -2   21.19    4.01
  15   1   2    1.52    5.21
  15   1   2   15.79    2.58
  18  -2  -2   40.47    5.70
 -18  -2   2   38.80    6.93
 -18  -2   2   36.21    5.27
  18  -2  -2   54.83    4.91
 -18  -2   2   36.77    5.65
  18  -2  -2   40.53    5.50
  18  -2  -2   50.72    5.07
 -18  -2   2   43.43    6.79
 -18  -2   2   47.45    6.11
  18   2  -2   40.94    4.21
 -18   2   2   45.87    7.22
  18   2  -2   41.00    6.17
 -18   2   2   46.67    5.96
 -18   2   2   48.54    8.30
 -18   2   2   40.85    5.47
 -18   2   2   49.77    6.52
  18   2  -2   45.88    4.70
  18   2  -2   46.02    5.48
 -16  -2   2  111.72    7.88
  16  -2  -2  110.96    7.52
 -16  -2   2  106.64    8.69
  16  -2  -2   92.65    7.59
 -16  -2   2   89.99    7.50
  16  -2  -2  102.38    6.55
  16  -2  -2  100.69    6.54
 -16  -2   2   93.20    7.29
 -16   2   2   85.67    7.36
  16   2  -2  105.28    7.37
  16   2  -2   91.51    8.32
  16   2  -2   97.79    6.46
  16   2  -2   97.12    6.61
 -16   2   2   99.35    8.05
 -16   2   2   85.87    8.76
  16   2  -2  103.11    9.92
 -16   2   2  100.48    9.97
  14  -2  -2  103.05    6.30
  14  -2  -2  112.21    7.26
 -14  -2   2  105.36    7.44
 -14  -2   2  106.90    9.21
  14  -2  -2  113.82    6.47
  14  -2  -2  102.19    8.23
 -14  -2   2   94.03    6.71
 -14  -2   2  100.27    6.99
 -14  -2   2   97.96    6.01
  14  -2  -2   84.17    7.81
 -14  -2   2  106.35    7.47
 -14   2   2  103.31    9.38
  14   2  -2   99.61    7.89
 -14   2   2  111.69    7.50
  14   2  -2  100.02    6.31
  14   2  -2  105.80    6.93
  14   2  -2  111.35    6.56
  14   2  -2  101.61    7.71
 -14   2   2   99.57    6.99
 -14   2   2   97.64    7.96
 -12  -2   2  161.33    8.66
 -12  -2   2  172.62   10.13
 -12  -2   2  154.76    9.79
  12  -2  -2  167.37    9.54
  12  -2  -2  152.10    9.35
  12  -2  -2  174.79    9.11
  12  -2  -2  168.58   10.11
 -12  -2   2  170.86    9.72
  12  -2  -2  179.17    8.26
  12  -2  -2  175.79    9.10
 -12  -2   2  160.76    9.21
 -12  -2   2  163.19    9.24
 -12   2   2  182.00    9.60
 -12   2   2  178.68   12.05
 -12   2   2  158.57    9.96
 -12   2   2  164.51    9.60
 -12   2   2  139.39    9.12
  12   2  -2  177.74    9.56
  12   2  -2  153.51   10.21
  12   2  -2  155.71    9.79
  12   2  -2  164.15    9.03
  12   2  -2  170.58    8.94
 -10  -2   2  218.50   11.80
  10  -2  -2  213.09   11.49
 -10  -2   2  211.56   11.30
  10  -2  -2  231.83   11.31
  10  -2  -2  210.14   11.84
 -10  -2   2  216.47   11.22
 -10  -2   2  222.79   11.79
 -10  -2   2  231.42   12.14
 -10  -2   2  213.55   10.97
  10  -2  -2  228.35   11.30
 -10   2   2  240.48   14.04
 -10   2   2  231.46   11.64
 -10   2   2  207.81   11.85
  10   2  -2  223.56   11.18
  10   2  -2  223.33   11.59
  10   2  -2  225.02   11.24
  10   2  -2  207.35   11.93
 -10   2   2  207.12   11.34
  10   2  -2  207.66   11.81
 -10   2   2  225.43   11.81
   8  -2  -2  279.33   14.76
  -8  -2   2  306.92   15.11
   8  -2  -2  318.00   14.76
   8  -2  -2  303.15   15.10
  -8  -2   2  295.55   14.51
  -8  -2   2  289.59   14.60
  -8  -2   2  304.29   15.01
   8  -2  -2  317.33   15.20
  -8  -2   2  305.63   15.33
  -8  -2   2  307.81   14.59
  -8   2   2  288.02   15.03
   8   2  -2  293.00   14.86
  -8   2   2  306.28   15.09
   8   2  -2  280.33   15.15
  -8   2   2  297.59   14.86
   8   2  -2  315.27   14.61
  -8   2   2  322.29   17.17
   8   2  -2  284.25   15.09
   8   2  -2  303.45   14.58
  -8   2   2  277.00   14.68
  -6  -2   2  521.37   26.15
  -6  -2   2  563.85   25.80
   6  -2  -2  599.13   26.09
  -6  -2   2  563.78   25.70
   6  -2  -2  588.45   26.42
   6  -2  -2  521.68   25.95
  -6  -2   2  550.68   25.87
  -6  -2   2  559.82   26.41
  -6  -2   2  554.18   26.11
   6  -2  -2  542.10   26.17
  -6   2   2  523.18   26.25
  -6   2   2  585.40   28.55
   6   2  -2  514.45   26.24
  -6   2   2  539.33   26.19
   6   2  -2  581.00   25.85
  -6   2   2  578.08   26.10
  -6   2   2  538.25   25.99
   6   2  -2  543.99   26.06
   6   2  -2  524.20   26.30
   6   2  -2  571.25   25.74
  -4  -2   2  520.25   24.59
  -4  -2   2  531.24   24.03
   4  -2  -2  548.20   24.43
  -4  -2   2  554.34   24.41
   4  -2  -2  518.51   24.63
  -4  -2   2  521.96   24.28
   4  -2  -2  477.73   24.23
  -4  -2   2  527.09   24.32
   4  -2  -2  503.64   24.44
   4   2  -2  482.53   24.49
  -4   2   2  494.01   24.57
  -4   2   2  503.30   24.44
   4   2  -2  542.22   24.11
  -4   2   2  509.73   24.27
   4   2  -2  500.28   24.31
   4   2  -2  568.98   23.97
   4   2  -2  546.53   24.27
   4   2  -2  495.30   24.54
  -4   2   2  518.30   24.35
   2  -2  -2  565.01   27.34
  -2  -2   2  608.60   26.75
   2  -2  -2  562.60   26.93
   2  -2  -2  584.64   27.15
  -2  -2   2  620.92   26.61
  -2  -2   2  576.06   27.18
   2  -2  -2  528.05   27.07
  -2  -2   2  623.10   30.44
  -2  -2   2  587.62   27.04
   2   2  -2  626.47   26.50
  -2   2   2  560.33   26.90
   2   2  -2  550.62   27.14
  -2   2   2  560.01   27.11
   2   2  -2  605.49   27.03
   2   2  -2  541.51   27.01
   2   2  -2  609.50   26.75
  -2   2   2  543.21   27.02
  -2   2   2  549.89   27.29
  -2   2   2  673.87   27.87
  -2   2   2  552.04   30.43
   0  -2   2  734.26   33.52
   0  -2  -2  696.54   33.42
   0  -2   2  749.32   33.37
   0  -2  -2  653.71   33.61
   0  -2  -2  730.82   33.73
   0  -2   2  767.22   33.45
   0  -2  -2  693.67   33.89
   0  -2  -2  724.87   32.93
   0   2  -2  692.81   33.59
   0   2  -2  760.58   33.53
   0   2  -2  755.94   33.32
   0   2   2  644.69   33.86
   0   2   2  735.75   33.35
   0   2   2  677.22   38.01
   0   2   2  699.58   33.52
   0   2   2  740.04   34.30
   0   2  -2  723.52   33.40
   0   2   2  710.92   33.65
   0   2  -2  803.18   33.28
   0   2  -2  777.59   33.21
   0   2  -2  767.64   33.77
   2  -2   2  595.10   29.48
  -2  -2  -2  622.48   29.75
   2  -2   2  619.71   29.09
  -2  -2  -2  636.09   29.52
  -2  -2  -2  559.85   29.42
   2  -2   2  647.20   31.77
  -2  -2  -2  579.70   29.20
   2  -2   2  678.80   29.09
   2  -2   2  650.42   29.19
  -2  -2  -2  539.89   29.67
   2  -2   2  638.20   28.98
  -2   2  -2  662.36   28.98
   2   2   2  616.22   30.15
  -2   2  -2  678.84   28.92
  -2   2  -2  627.24   29.31
  -2   2  -2  643.24   29.07
  -2   2  -2  657.65   29.60
   2   2   2  646.27   29.26
   2   2   2  655.04   29.05
  -2   2  -2  656.82   28.95
  -2   2  -2  676.72   29.21
   2   2   2  613.45   29.44
   2   2   2  602.05   28.75
   4  -2   2  296.29   13.59
   4  -2   2  287.57   13.49
  -4  -2  -2  263.42   14.31
   4  -2   2  295.49   13.54
  -4  -2  -2  271.92   13.99
  -4  -2  -2  292.91   14.00
   4  -2   2  266.43   13.97
   4  -2   2  284.35   13.58
  -4  -2  -2  278.65   14.25
  -4  -2  -2  269.51   13.75
   4   2   2  296.82   13.45
   4   2   2  263.02   14.14
  -4   2  -2  298.31   13.53
  -4   2  -2  284.89   13.42
   4   2   2  284.66   13.92
  -4   2  -2  297.36   14.11
   4   2   2  273.79   13.33
   4   2   2  273.77   14.64
   4   2   2  288.10   13.65
  -4   2  -2  280.15   13.80
  -4   2  -2  297.05   13.48
  -4   2  -2  290.85   13.62
  -6  -2  -2  311.29   15.66
   6  -2   2  334.63   15.55
  -6  -2  -2  303.62   16.25
  -6  -2  -2  340.40   16.27
   6  -2   2  338.99   14.79
  -6  -2  -2  324.01   15.88
   6  -2   2  334.87   15.56
   6  -2   2  300.12   15.88
  -6  -2  -2  301.37   15.81
   6  -2   2  330.41   15.38
   6   2   2  316.55   15.31
   6   2   2  329.45   15.78
  -6   2  -2  317.63   15.33
  -6   2  -2  329.96   15.49
   6   2   2  317.07   16.08
  -6   2  -2  309.53   15.72
   6   2   2  321.37   16.64
   6   2   2  328.14   15.49
  -6   2  -2  328.33   15.41
  -6   2  -2  308.65   15.57
   6   2   2  310.12   16.06
   8  -2   2  180.70    9.20
   8  -2   2  187.70    9.45
  -8  -2  -2  165.88    9.51
   8  -2   2  183.08    9.40
   8  -2   2  166.12    9.90
  -8  -2  -2  170.37    9.83
  -8  -2  -2  185.24    9.74
   8  -2   2  186.27    8.69
  -8  -2  -2  170.67    9.94
   8  -2   2  181.02    8.52
  -8  -2  -2  175.53   10.04
   8   2   2  184.78    9.91
  -8   2  -2  168.78    9.21
   8   2   2  174.47    9.25
   8   2   2  171.86    9.23
   8   2   2  179.03   10.42
  -8   2  -2  166.82    9.61
   8   2   2  192.29    9.67
  -8   2  -2  187.51    9.29
   8   2   2  185.00   10.12
  -8   2  -2  180.42    9.38
  -8   2  -2  179.49    9.71
 -10  -2  -2  146.87    8.34
  10  -2   2  135.19    8.73
 -10  -2  -2  131.63    8.53
 -10  -2  -2  126.59    8.16
  10  -2   2  139.38    7.77
 -10  -2  -2  142.74    8.55
 -10  -2  -2  126.68    8.60
 -10   2  -2  136.73    7.95
  10   2   2  130.67    7.78
 -10   2  -2  139.72    7.78
  10   2   2  149.80    8.41
 -10   2  -2  130.89    7.81
  10   2   2  135.29    7.21
  10   2   2  138.24    7.71
 -10   2  -2  131.00   10.04
 -10   2  -2  131.06    8.32
  10   2   2  146.87    8.95
 -12  -2  -2   40.74    5.31
 -12  -2  -2   51.89    5.69
 -12  -2  -2   54.82    4.93
  12  -2   2   50.65    4.14
 -12  -2  -2   45.53    5.18
  12  -2   2   43.70    5.10
 -12   2  -2   54.02    4.65
 -12   2  -2   44.94    4.67
  12   2   2   39.16    4.33
 -12   2  -2   45.72    5.52
  12   2   2   35.93    4.32
 -12   2  -2   47.48    4.81
  12   2   2   46.67    5.04
 -12   2  -2   54.96    4.90
  12   2   2   49.05    3.57
  14  -2   2   50.38    4.87
 -14  -2  -2   52.29    6.61
 -14  -2  -2   56.86    5.78
  14  -2   2   55.32    4.88
 -14  -2  -2   50.95    6.38
 -14  -2  -2   70.55    7.20
 -14  -2  -2   56.41    3.38
  14  -2   2   65.59    7.66
 -14  -2  -2   55.86    6.50
 -14   2  -2   52.85    6.28
 -14   2  -2   47.72    5.68
  14   2   2   60.85    5.50
 -14   2  -2   46.76    5.67
 -14   2  -2   68.54    5.53
  14   2   2   55.26    6.07
 -14   2  -2   53.09    6.47
  14   2   2   55.14    5.08
 -17  -3   2   24.47    4.57
 -17  -3   2   25.58    4.81
  17  -3  -2   27.38    3.78
  17  -3  -2   28.21    3.72
 -17  -3   2   33.59    6.67
 -17  -3   2   28.36    3.71
 -17  -3   2   26.23    4.46
  17  -3  -2   30.19    4.92
 -17  -3   2   35.13    5.86
  17  -3  -2   20.54    4.62
 -17   3   2   29.64    6.68
 -17   3   2   32.24    5.26
 -17   3   2   31.70    4.32
  17   3  -2   28.48    3.57
 -17   3   2   31.14    6.69
  17   3  -2    3.62    6.44
 -17   3   2   25.80    4.64
  17   3  -2   33.91    4.25
  17   3  -2   20.61    5.30
  17   3  -2   31.06    4.53
 -15  -3   2   47.94    6.18
 -15  -3   2   40.15    5.15
  15  -3  -2   41.07    5.21
 -15  -3   2   43.53    4.39
  15  -3  -2   30.23    3.58
 -15  -3   2   38.69    5.09
  15  -3  -2   48.56    5.37
 -15  -3   2   36.52    5.35
 -15  -3   2   44.51    4.21
 -15   3   2   45.85    4.87
 -15   3   2   38.86    6.94
  15   3  -2   53.42    4.17
  15   3  -2   42.65    6.76
  15   3  -2   37.70    5.35
  15   3  -2   48.89    4.00
 -15   3   2   39.88    5.14
  13  -3  -2   70.04    6.06
 -13  -3   2   71.45    6.86
 -13  -3   2   75.96    4.98
 -13  -3   2   73.59    6.26
  13  -3  -2   74.68    4.97
 -13  -3   2   71.76    5.13
  13  -3  -2   75.75    4.94
 -13  -3   2   70.92    5.82
 -13  -3   2   61.64    5.54
 -13   3   2   59.56    5.47
  13   3  -2   74.67    5.06
 -13   3   2   65.54    6.93
 -13   3   2   74.42    7.24
  13   3  -2   60.33    7.34
 -13   3   2   72.04    5.58
  13   3  -2   74.27    4.94
  13   3  -2   66.00    5.48
  13   3  -2   72.55    6.45
  11  -3  -2  111.18    7.86
 -11  -3   2  118.17    7.06
  11  -3  -2  132.82    7.71
 -11  -3   2  111.39    7.47
  11  -3  -2  129.60    6.98
  11  -3  -2  128.34    7.04
 -11  -3   2  117.22    7.75
  11  -3  -2  121.66    7.42
 -11  -3   2  121.83    6.91
 -11  -3   2  121.18    7.67
 -11  -3   2  112.37    7.15
  11   3  -2  123.41    7.42
  11   3  -2  115.02    6.84
 -11   3   2  112.87    7.32
 -11   3   2  113.17    8.08
 -11   3   2  130.15    9.28
 -11   3   2  120.99    7.66
 -11   3   2  126.53    7.34
  11   3  -2  113.33    7.92
  11   3  -2  121.53    6.89
  11   3  -2  108.23    8.39
  -9  -3   2  154.55    8.24
   9  -3  -2  158.99    8.63
  -9  -3   2  153.13    8.40
  -9  -3   2  155.73    8.91
   9  -3  -2  165.12    9.08
  -9  -3   2  149.85    8.23
  -9  -3   2  153.73    8.96
  -9  -3   2  155.30    9.17
   9  -3  -2  156.45    8.29
   9  -3  -2  161.51    8.42
   9  -3  -2  146.23    8.97
  -9   3   2  159.69   10.48
   9   3  -2  148.11    9.45
   9   3  -2  161.17    8.29
   9   3  -2  149.15    9.09
   9   3  -2  161.84    8.74
  -9   3   2  155.83    8.78
  -9   3   2  159.70    8.60
  -9   3   2  145.84    8.50
   9   3  -2  155.76    8.20
  -9   3   2  134.56    9.02
  -7  -3   2  122.46    7.36
   7  -3  -2  133.58    7.23
  -7  -3   2  118.92    7.12
  -7  -3   2  118.18    6.65
   7  -3  -2  132.23    7.29
   7  -3  -2  123.28    6.78
   7  -3  -2  115.48    6.79
  -7  -3   2  121.09    7.01
  -7  -3   2  120.55    6.65
  -7  -3   2  119.00    6.40
  -7   3   2  125.94    7.11
   7   3  -2  123.54    6.45
   7   3  -2  126.30    7.00
  -7   3   2  125.63    6.85
   7   3  -2  123.66    6.59
  -7   3   2  129.34    8.91
  -7   3   2  118.60    6.93
  -7   3   2  108.75    7.33
   7   3  -2  111.51    7.56
   7   3  -2  113.48    7.33
   5  -3  -2  183.38    9.19
  -5  -3   2  187.09    8.89
  -5  -3   2  178.58    9.61
  -5  -3   2  174.52    9.29
  -5  -3   2  171.96    9.01
  -5  -3   2  179.88    9.25
   5  -3  -2  182.42    9.61
   5  -3  -2  169.70    9.06
   5  -3  -2  168.76    9.29
  -5  -3   2  182.14    8.58
   5   3  -2  165.80    9.49
   5   3  -2  177.77    8.87
  -5   3   2  171.82   11.58
  -5   3   2  170.40    9.62
   5   3  -2  170.91    9.19
   5   3  -2  161.11    9.67
  -5   3   2  164.97    9.18
  -5   3   2  181.78    9.09
   5   3  -2  191.98    8.68
  -5   3   2  175.19    9.28
   3  -3  -2  136.78    7.14
  -3  -3   2  142.33    7.34
   3  -3  -2  132.60    7.61
  -3  -3   2  141.63    7.61
  -3  -3   2  130.93    7.13
   3  -3  -2  135.01    7.41
  -3  -3   2  138.45    6.85
   3  -3  -2  138.88    7.35
  -3  -3   2  141.07    7.12
  -3   3   2  135.74    7.10
   3   3  -2  138.25    6.95
   3   3  -2  143.47    6.54
   3   3  -2  130.74    7.49
   3   3  -2  126.03    7.63
  -3   3   2  136.17    7.37
  -3   3   2  122.69    9.84
  -3   3   2  131.37    7.36
   3   3  -2  139.47    7.33
  -3   3   2  134.85    7.77
  -1  -3   2  123.61    6.76
   1  -3  -2  132.66    7.39
  -1  -3   2  132.19    6.45
  -1  -3   2  131.98    7.02
  -1  -3   2  145.16    8.78
   1  -3  -2  130.90    7.08
   1  -3  -2  119.93    7.09
  -1  -3   2  129.78    6.35
   1  -3  -2  132.69    6.02
   1  -3  -2  125.75    6.78
   1   3  -2  125.05    6.95
   1   3  -2  132.07    6.58
  -1   3   2  130.93    7.06
  -1   3   2  138.47    7.54
  -1   3   2  128.71    7.50
  -1   3   2  134.36    6.73
   1   3  -2  118.76    7.24
  -1   3   2  116.00   10.27
   1   3  -2  120.65    6.91
  -1   3   2  122.33    6.99
   1   3  -2  128.33    6.88
   1  -3   2   63.96    5.06
   1  -3   2   58.39    3.60
  -1  -3  -2   60.07    3.92
  -1  -3  -2   54.41    4.08
   1  -3   2   57.43    3.56
   1  -3   2   55.48    3.48
  -1  -3  -2   50.83    3.98
  -1  -3  -2   58.95    4.18
   1  -3   2   57.92    3.04
   1  -3   2   55.51    2.98
   1   3   2   58.94    4.51
   1   3   2   59.22    3.83
   1   3   2   60.68    4.25
  -1   3  -2   62.53    3.80
   1   3   2   57.77    3.41
  -1   3  -2   55.13    4.17
  -1   3  -2   55.99    3.28
  -1   3  -2   57.51    3.64
  -1   3  -2   53.69    3.58
   1   3   2   54.73    3.84
  -3  -3  -2   62.62    4.49
  -3  -3  -2   65.01    4.25
   3  -3   2   62.28    5.42
  -3  -3  -2   58.87    4.06
   3  -3   2   64.99    3.73
   3  -3   2   62.93    3.31
  -3  -3  -2   57.69    4.50
  -3  -3  -2   61.38    4.49
   3  -3   2   64.96    3.17
   3  -3   2   63.74    3.26
   3  -3   2   56.14    4.07
   3  -3   2   64.95    3.85
   3  -3   2   65.36    3.81
  -3   3  -2   64.49    4.45
  -3   3  -2   60.31    3.79
   3   3   2   62.94    4.13
   3   3   2   61.65    3.63
   3   3   2   56.41    4.76
  -3   3  -2   66.03    4.18
   3   3   2   64.85    4.27
   3   3   2   61.39    3.05
   3   3   2   58.07    4.52
  -3   3  -2   63.55    3.91
  -3   3  -2   62.02    3.62
  -5  -3  -2  109.78    6.63
  -5  -3  -2  110.74    7.00
   5  -3   2  120.46    6.32
   5  -3   2  117.26    5.97
   5  -3   2  119.24    6.35
   5  -3   2  109.83    6.85
  -5  -3  -2  117.26    6.79
  -5  -3  -2  115.75    7.06
  -5  -3  -2  108.91    6.97
   5  -3   2  121.14    5.72
   5  -3   2  115.68    6.04
  -5   3  -2  121.35    6.74
   5   3   2  105.52    6.66
   5   3   2  117.09    6.08
  -5   3  -2  116.97    5.94
   5   3   2  112.11    5.76
   5   3   2  115.09    7.37
  -5   3  -2  107.93    6.19
  -5   3  -2  123.27    6.21
  -5   3  -2  105.82    6.69
   5   3   2  117.46    6.68
  -5   3  -2  115.59    6.46
   5   3   2  112.67    7.26
   5   3   2  118.19    6.64
   7  -3   2   42.70    2.75
   7  -3   2   35.25    2.12
  -7  -3  -2   37.55    3.37
   7  -3   2   40.51    3.13
   7  -3   2   29.05    3.35
  -7  -3  -2   38.58    3.92
   7  -3   2   35.01    2.56
  -7  -3  -2   37.06    4.01
  -7  -3  -2   32.42    3.63
  -7  -3  -2   34.05    3.71
   7   3   2   38.99    3.21
  -7   3  -2   37.97    2.84
  -7   3  -2   35.99    2.86
  -7   3  -2   33.33    3.11
   7   3   2   37.27    4.54
   7   3   2   36.65    3.66
   7   3   2   34.28    3.50
   7   3   2   34.50    3.05
  -7   3  -2   35.60    3.69
  -7   3  -2   32.04    3.65
   7   3   2   35.87    2.75
   7   3   2   36.78    2.62
  -9  -3  -2   44.19    4.64
   9  -3   2   34.27    4.38
  -9  -3  -2   35.80    4.30
  -9  -3  -2   42.98    3.91
   9  -3   2   43.50    3.28
  -9  -3  -2   38.80    4.65
  -9  -3  -2   35.94    4.33
   9   3   2   39.28    4.24
  -9   3  -2   40.40    4.84
   9   3   2   42.47    3.58
  -9   3  -2   35.07    3.59
  -9   3  -2   38.54    3.35
   9   3   2   41.35    3.70
   9   3   2   42.48    4.10
  -9   3  -2   45.62    3.37
 -11  -3  -2   60.11    4.90
  11  -3   2   45.57    5.12
  11  -3   2   52.18    3.81
 -11  -3  -2   50.84    5.88
 -11  -3  -2   43.16    5.30
 -11  -3  -2   41.79    5.45
 -11   3  -2   56.63    4.78
  11   3   2   45.98    4.55
  11   3   2   57.54    5.35
 -11   3  -2   46.42    4.31
 -11   3  -2   42.70    4.71
  11   3   2   49.26    4.92
 -11   3  -2   47.24    5.35
  11   3   2   56.14    4.56
 -11   3  -2   43.11    5.28
  13  -3   2   31.99    5.54
 -13  -3  -2   33.98    4.95
 -13  -3  -2   31.45    4.32
 -13  -3  -2   37.98    5.48
  13  -3   2   34.39    4.04
 -13  -3  -2   30.70    5.14
 -13  -3  -2   31.22    5.36
 -13   3  -2   34.60    4.60
  13   3   2   44.32    4.70
  13   3   2   24.37    3.86
  13   3   2   34.28    4.32
  13   3   2   34.21    4.73
 -13   3  -2   35.97    4.46
 -13   3  -2   31.79    4.36
 -13   3  -2   30.21    5.21
 -13   3  -2   33.81    4.30
 -15  -3  -2    9.32    4.84
 -15  -3  -2   11.05    2.41
 -15  -3  -2   15.07    4.14
 -15  -3  -2   17.06    5.25
  15  -3   2    9.93    2.87
  15  -3   2   17.55    3.14
 -15  -3  -2   16.85    5.12
 -15  -3  -2    3.14    5.40
  15  -3   2    6.58    5.15
  15   3   2   16.17    3.64
 -15   3  -2   16.21    3.27
  15   3   2    0.99    4.16
  15   3   2   10.03    3.48
 -15   3  -2   12.22    4.30
 -15   3  -2   17.73    5.76
  15   3   2    8.58    6.79
  15   3   2    0.00    3.79
 -15   3  -2   10.03    3.73
 -16  -4   2   88.70   10.18
 -16  -4   2   90.00    6.88
  16  -4  -2   87.73    8.06
 -16  -4   2   84.58    8.04
  16  -4  -2   83.76    8.85
 -16  -4   2   80.75    7.50
 -16  -4   2  110.68    8.64
  16  -4  -2   91.53    6.59
 -16  -4   2   85.69    8.24
  16  -4  -2  105.29    8.21
  16  -4  -2   93.24    6.71
  16   4  -2   94.58    7.67
 -16   4   2   92.22   10.23
  16   4  -2   91.94    6.76
 -16   4   2  101.27    7.66
  16   4  -2   81.34    9.17
  16   4  -2   93.09    6.53
 -16   4   2   91.64    8.20
 -16   4   2   88.47    8.06
 -14  -4   2  114.98    9.91
 -14  -4   2   85.48    7.58
 -14  -4   2  102.20    9.14
 -14  -4   2  104.72    6.87
 -14  -4   2   99.50    7.22
 -14  -4   2   97.45    7.47
  14  -4  -2  101.22    7.51
  14  -4  -2   94.68    7.89
  14   4  -2  106.20   10.39
 -14   4   2  108.97    8.99
  14   4  -2   86.53    8.45
  14   4  -2  108.92    6.67
  14   4  -2   95.49    6.64
 -14   4   2   91.49    7.55
  14   4  -2  111.43    7.62
 -14   4   2  106.14    7.81
 -12  -4   2  149.57    9.36
 -12  -4   2  168.70    9.24
 -12  -4   2  178.87   10.50
 -12  -4   2  156.26   10.46
  12  -4  -2  128.76    9.20
 -12  -4   2  154.58    9.02
  12  -4  -2  177.90    9.22
  12  -4  -2  148.86    9.62
  12  -4  -2  160.69   10.43
  12  -4  -2  183.61   10.23
 -12  -4   2  160.31    9.83
  12  -4  -2  136.13   11.69
  12   4  -2  147.46   10.26
  12   4  -2  162.71    9.00
  12   4  -2  163.78    9.64
  12   4  -2  163.86   11.36
 -12   4   2  165.22   11.18
 -12   4   2  164.41    9.84
 -12   4   2  159.05   10.71
 -12   4   2  144.07    9.42
  10  -4  -2  194.38   11.79
 -10  -4   2  215.12   10.92
  10  -4  -2  219.71   11.79
 -10  -4   2  206.04   11.60
  10  -4  -2  220.47   10.93
  10  -4  -2  195.98   11.20
 -10  -4   2  215.89   12.17
 -10  -4   2  205.08   11.12
 -10  -4   2  197.93   10.90
 -10  -4   2  202.38   11.91
  10  -4  -2  221.39   11.15
  10   4  -2  203.81   10.82
  10   4  -2  197.62   12.24
  10   4  -2  204.46   11.46
 -10   4   2  209.82   11.67
 -10   4   2  223.43   11.41
  10   4  -2  216.08   10.97
 -10   4   2  186.87   11.28
 -10   4   2  200.92   11.91
  10   4  -2  198.73   11.97
  -8  -4   2  236.36   12.54
  -8  -4   2  240.06   13.06
   8  -4  -2  262.84   12.27
  -8  -4   2  225.12   11.92
   8  -4  -2  220.28   11.97
  -8  -4   2  232.77   12.64
  -8  -4   2  224.93   11.94
   8  -4  -2  224.63   12.65
   8  -4  -2  249.05   12.90
  -8  -4   2  242.47   11.71
   8  -4  -2  221.08   12.13
  -8   4   2  254.81   12.32
   8   4  -2  240.50   11.91
  -8   4   2  218.06   12.28
  -8   4   2  240.70   12.59
   8   4  -2  224.11   12.32
   8   4  -2  231.40   13.29
   8   4  -2  206.17   12.76
   8   4  -2  236.06   11.73
  -8   4   2  226.87   14.36
  -8   4   2  228.41   13.00
   6  -4  -2  304.02   16.46
   6  -4  -2  320.69   16.18
  -6  -4   2  334.45   16.30
  -6  -4   2  356.47   15.97
  -6  -4   2  335.67   16.81
   6  -4  -2  375.00   16.82
  -6  -4   2  329.44   16.45
   6  -4  -2  325.35   16.94
  -6  -4   2  340.79   16.96
   6  -4  -2  350.06   17.29
  -6  -4   2  354.33   17.46
   6   4  -2  314.37   17.46
  -6   4   2  318.73   16.79
  -6   4   2  317.48   19.20
  -6   4   2  347.30   16.64
   6   4  -2  340.68   16.05
   6   4  -2  337.27   16.86
   6   4  -2  305.70   17.11
  -6   4   2  330.68   16.78
   6   4  -2  359.66   16.43
  -6   4   2  323.51   17.19
  -4  -4   2  269.66   13.39
   4  -4  -2  284.04   14.21
   4  -4  -2  257.75   12.89
   4  -4  -2  259.16   13.85
  -4  -4   2  282.41   14.20
   4  -4  -2  270.37   13.64
  -4  -4   2  284.61   12.65
  -4  -4   2  286.87   13.62
  -4  -4   2  265.65   13.13
  -4  -4   2  280.75   13.83
   4  -4  -2  261.19   13.44
   4   4  -2  271.36   12.78
   4   4  -2  279.74   13.29
  -4   4   2  253.67   13.67
   4   4  -2  253.12   13.94
   4   4  -2  255.31   14.28
  -4   4   2  275.65   13.46
   4   4  -2  268.80   13.75
  -4   4   2  267.27   14.28
  -4   4   2  265.32   13.77
  -4   4   2  242.97   16.58
   2  -4  -2  270.01   14.06
  -2  -4   2  261.59   12.83
   2  -4  -2  283.26   13.68
   2  -4  -2  256.20   13.69
   2  -4  -2  255.39   13.27
  -2  -4   2  258.34   13.17
  -2  -4   2  278.11   13.13
  -2  -4   2  266.10   13.55
  -2  -4   2  285.65   13.87
   2   4  -2  272.64   13.11
   2   4  -2  249.23   14.05
  -2   4   2  236.40   13.46
  -2   4   2  266.90   13.20
   2   4  -2  273.58   13.58
   2   4  -2  247.48   13.56
  -2   4   2  265.48   14.16
   2   4  -2  280.60   13.32
  -2   4   2  278.87   13.72
   0  -4  -2  304.80   15.98
   0  -4  -2  311.49   15.60
   0  -4   2  299.18   15.01
   0  -4   2  356.05   17.38
   0  -4   2  319.15   14.72
   0  -4   2  304.59   14.61
   0  -4  -2  293.95   15.15
   0  -4  -2  290.98   15.60
   0  -4   2  321.26   15.44
   0  -4   2  323.64   15.47
   0   4  -2  308.76   15.27
   0   4   2  316.09   15.03
   0   4  -2  318.89   15.27
   0   4   2  290.58   15.43
   0   4   2  281.33   15.96
   0   4  -2  283.57   15.26
   0   4  -2  285.58   15.79
   0   4   2  301.11   15.90
   0   4   2  320.12   15.58
   2  -4   2  307.51   14.20
   2  -4   2  310.25   14.26
   2  -4   2  311.80   14.99
  -2  -4  -2  314.07   15.46
  -2  -4  -2  289.72   14.96
  -2  -4  -2  291.49   15.41
   2  -4   2  290.54   14.60
   2  -4   2  336.29   16.43
  -2  -4  -2  271.20   15.24
  -2  -4  -2  300.92   15.70
  -2   4  -2  273.53   15.37
   2   4   2  286.27   15.60
  -2   4  -2  291.07   14.90
   2   4   2  309.01   14.67
   2   4   2  283.77   15.13
  -2   4  -2  309.87   15.06
  -2   4  -2  318.52   14.72
   2   4   2  307.88   15.27
   2   4   2  290.60   15.86
  -2   4  -2  296.69   14.81
   4  -4   2  186.73    9.18
  -4  -4  -2  175.15    9.61
   4  -4   2  167.28    8.75
  -4  -4  -2  165.39   10.00
   4  -4   2  157.42    9.38
   4  -4   2  179.11    8.31
  -4  -4  -2  157.15    9.64
   4  -4   2  172.46    8.44
  -4  -4  -2  168.48    9.36
  -4  -4  -2  169.95    9.85
   4  -4   2  182.38    8.27
   4   4   2  163.32    9.44
  -4   4  -2  175.32    8.91
  -4   4  -2  161.76    9.42
   4   4   2  178.78   10.37
  -4   4  -2  174.22    9.37
  -4   4  -2  165.74    9.16
   4   4   2  167.15    7.84
   4   4   2  162.70    9.84
  -4   4  -2  156.94    9.64
   4   4   2  170.91    8.80
   4   4   2  185.29    9.65
  -6  -4  -2  211.89   11.48
   6  -4   2  222.55   11.00
  -6  -4  -2  197.16   11.71
   6  -4   2  223.13   10.36
   6  -4   2  214.52   10.27
  -6  -4  -2  204.16   11.96
   6  -4   2  208.20   10.46
  -6  -4  -2  202.25   11.76
   6  -4   2  190.79   11.41
  -6  -4  -2  205.99   11.37
  -6   4  -2  205.44   11.01
   6   4   2  226.48   12.46
  -6   4  -2  220.24   10.83
  -6   4  -2  191.65   11.64
   6   4   2  208.89   11.34
   6   4   2  195.87   11.82
   6   4   2  215.03   11.36
  -6   4  -2  228.41   11.41
  -6   4  -2  197.53   10.89
   6   4   2  198.45    9.98
   6   4   2  221.53   10.69
  -8  -4  -2  166.73   10.32
   8  -4   2  165.36    8.42
  -8  -4  -2  169.66    9.81
   8  -4   2  155.68    9.98
  -8  -4  -2  155.45   10.08
  -8  -4  -2  156.91    9.57
   8  -4   2  178.53    8.68
  -8  -4  -2  156.60   10.00
  -8   4  -2  157.48   10.67
  -8   4  -2  157.16    9.13
  -8   4  -2  164.16    9.16
   8   4   2  166.25    8.68
   8   4   2  168.61    9.59
   8   4   2  163.32   10.11
   8   4   2  172.18    9.67
  -8   4  -2  176.03    9.06
   8   4   2  145.37    9.38
  10  -4   2  149.84    7.87
 -10  -4  -2  128.68    8.97
 -10  -4  -2  125.02    9.39
  10  -4   2  129.94    9.38
 -10  -4  -2  127.85    9.40
 -10  -4  -2  136.91    9.07
 -10  -4  -2  138.55    9.73
  10   4   2  131.78    8.65
  10   4   2  136.91    8.73
 -10   4  -2  142.59    8.49
 -10   4  -2  131.27    9.40
  10   4   2  147.54    7.68
  10   4   2  136.00    9.11
 -10   4  -2  135.34    8.50
  10   4   2  159.68    8.89
 -12  -4  -2   57.95    7.17
 -12  -4  -2   51.93    6.80
 -12  -4  -2   73.21    7.52
 -12  -4  -2   58.05    7.81
  12  -4   2   69.07    5.50
 -12  -4  -2   67.46    6.65
  12  -4   2   55.78    7.48
 -12   4  -2   63.38    6.02
 -12   4  -2   66.23    6.35
 -12   4  -2   67.09    7.89
  12   4   2   64.43    5.79
  12   4   2   72.04    5.94
  12   4   2   73.71    6.78
  12   4   2   68.74    6.43
 -12   4  -2   70.20    5.49
 -14  -4  -2   85.46    9.06
  14  -4   2   75.09    5.78
  14  -4   2   57.60    8.00
 -14  -4  -2   55.68    7.22
 -14  -4  -2   58.21    7.71
 -14  -4  -2   62.77    8.15
  14  -4   2   70.16    6.01
 -14  -4  -2   65.89    8.01
  14   4   2   59.76    6.44
 -14   4  -2   69.76    6.42
 -14   4  -2   56.45    7.72
 -14   4  -2   76.29    6.83
  14   4   2   69.90    6.68
 -14   4  -2   66.51    7.76
  14   4   2   71.07    6.87
 -15  -5   2   25.20    5.89
  15  -5  -2   14.67    4.27
 -15  -5   2   20.49    4.13
  15  -5  -2   12.45    4.85
  15  -5  -2   -0.35    5.16
 -15  -5   2   15.86    6.40
  15  -5  -2   20.56    3.22
  15  -5  -2   15.92    2.87
 -15  -5   2   17.94    4.44
 -15  -5   2   19.44    4.03
  15   5  -2   16.23    3.95
 -15   5   2   19.68    6.51
  15   5  -2   21.32    7.84
 -15   5   2   25.04    4.96
  15   5  -2   13.87    2.82
 -15   5   2   27.20    4.87
  15   5  -2   22.93    3.17
 -15   5   2   17.82    3.44
  15   5  -2   20.20    5.65
 -13  -5   2   19.68    3.50
 -13  -5   2   25.60    3.80
  13  -5  -2   17.37    4.13
 -13  -5   2   18.93    4.69
 -13  -5   2   18.48    3.88
  13  -5  -2   22.32    3.99
  13  -5  -2   23.21    4.34
 -13  -5   2   26.30    3.68
  13  -5  -2   22.86    3.13
 -13  -5   2   27.88    5.64
 -13   5   2   20.26    3.52
  13   5  -2   19.99    3.00
  13   5  -2   21.53    3.49
  13   5  -2   16.91    4.43
 -13   5   2   20.83    4.45
  13   5  -2   30.75    6.61
 -13   5   2   18.85    4.10
  13   5  -2   28.22    3.41
 -13   5   2   19.56    5.49
  11  -5  -2   33.00    4.33
  11  -5  -2   26.14    3.85
 -11  -5   2   27.88    4.95
 -11  -5   2   37.65    4.70
 -11  -5   2   23.86    4.07
  11  -5  -2   22.17    4.60
 -11  -5   2   31.43    3.77
 -11  -5   2   30.15    3.92
  11  -5  -2   27.04    3.76
 -11  -5   2   26.90    3.73
  11   5  -2   22.90    5.77
  11   5  -2   25.28    3.68
  11   5  -2   31.33    4.71
 -11   5   2   28.11    4.06
 -11   5   2   27.99    3.93
 -11   5   2   25.25    4.50
  11   5  -2   26.52    2.99
 -11   5   2   25.79    4.61
  -9  -5   2   40.71    4.03
  -9  -5   2   36.98    3.82
   9  -5  -2   36.42    3.98
   9  -5  -2   34.12    4.63
  -9  -5   2   35.89    3.98
  -9  -5   2   43.89    5.00
  -9  -5   2   40.37    5.25
   9  -5  -2   38.11    4.54
   9  -5  -2   31.59    3.96
   9  -5  -2   42.00    3.57
  -9  -5   2   41.38    3.52
  -9   5   2   30.66    3.97
  -9   5   2   37.01    4.66
  -9   5   2   36.31    5.16
   9   5  -2   38.30    5.65
  -9   5   2   42.74    4.36
   9   5  -2   35.80    5.00
   9   5  -2   36.31    2.99
   9   5  -2   35.32    3.98
  -9   5   2   26.37    7.37
  -7  -5   2   32.53    4.35
   7  -5  -2   33.55    3.55
  -7  -5   2   37.49    2.95
  -7  -5   2   32.62    3.55
  -7  -5   2   33.99    3.48
  -7  -5   2   35.15    3.35
   7  -5  -2   38.00    3.25
  -7  -5   2   32.27    4.31
   7  -5  -2   43.02    4.32
   7  -5  -2   34.91    3.71
   7  -5  -2   31.34    3.88
   7   5  -2   28.75    4.29
  -7   5   2   29.92    4.32
  -7   5   2   35.96    3.25
   7   5  -2   30.49    3.67
   7   5  -2   38.72    2.01
   7   5  -2   37.64    3.13
  -7   5   2   33.38    3.97
   7   5  -2   31.93    2.70
  -7   5   2   27.11    3.69
   7   5  -2   33.20    5.00
   5  -5  -2   70.72    4.93
  -5  -5   2   76.83    5.71
   5  -5  -2   70.66    4.49
   5  -5  -2   74.91    5.75
  -5  -5   2   66.06    4.69
  -5  -5   2   78.56    5.11
  -5  -5   2   75.42    4.09
  -5  -5   2   67.34    4.72
  -5  -5   2   71.87    5.78
   5  -5  -2   70.36    5.81
   5  -5  -2   68.93    5.06
   5   5  -2   73.75    4.18
   5   5  -2   66.49    6.51
  -5   5   2   75.99    4.86
   5   5  -2   64.68    4.10
   5   5  -2   72.23    5.28
   5   5  -2   67.49    5.84
  -5   5   2   79.62    5.43
   5   5  -2   74.30    4.64
  -5   5   2   77.08    6.46
  -5   5   2   62.29    5.37
  -3  -5   2   86.12    5.65
   3  -5  -2   86.40    5.72
   3  -5  -2   93.28    4.93
  -3  -5   2   93.16    5.62
  -3  -5   2   96.43    4.57
   3  -5  -2   89.56    6.46
  -3  -5   2   94.63    5.41
  -3  -5   2  104.59    6.57
  -3  -5   2   96.17    6.44
   3  -5  -2   98.14    6.76
   3  -5  -2   89.46    5.88
  -3   5   2   94.70    6.06
   3   5  -2   98.43    5.59
  -3   5   2   86.88    7.22
   3   5  -2   86.06    5.42
  -3   5   2   84.84    6.24
   3   5  -2   71.08    6.21
   3   5  -2   83.00    7.11
  -3   5   2   93.23    5.57
   3   5  -2   87.19    6.01
  -1  -5   2  125.69    7.32
   1  -5  -2  131.47    8.20
  -1  -5   2  134.80    7.09
   1  -5  -2  134.17    7.80
  -1  -5   2  138.44    7.98
  -1  -5   2  121.56    7.88
   1  -5  -2  136.20    8.49
  -1  -5   2  146.45    9.54
  -1  -5   2  124.96    6.98
  -1   5   2  126.88    8.81
   1   5  -2  115.94    8.64
  -1   5   2  126.11    7.99
  -1   5   2  130.52    7.21
   1   5  -2  130.51    7.35
  -1   5   2  119.97    7.90
   1   5  -2  124.04    7.57
   1   5  -2  114.00    7.84
  -1   5   2  139.43    7.94
   1  -5   2   93.56    6.62
  -1  -5  -2  100.76    6.38
   1  -5   2   86.56    5.64
   1  -5   2   92.70    5.34
  -1  -5  -2   90.06    6.80
  -1  -5  -2   86.69    6.03
   1  -5   2   98.29    5.30
  -1  -5  -2   85.59    6.19
  -1  -5  -2  103.74    7.01
   1  -5   2   97.54    6.22
   1   5   2   99.43    6.28
  -1   5  -2  102.40    5.73
  -1   5  -2   98.98    5.97
   1   5   2  100.24    7.69
   1   5   2   99.16    5.65
  -1   5  -2   95.91    5.88
  -1   5  -2   85.90    6.25
  -1   5  -2   90.27    7.16
   1   5   2   93.57    6.50
   1   5   2   88.76    6.36
   3  -5   2  113.06    5.14
  -3  -5  -2  102.50    6.86
  -3  -5  -2  104.26    6.93
   3  -5   2  105.97    6.27
   3  -5   2  111.10    7.21
   3  -5   2  107.12    7.07
  -3  -5  -2  112.93    7.61
  -3  -5  -2  100.02    7.54
   3  -5   2  109.07    6.05
  -3  -5  -2  113.36    7.17
   3  -5   2  109.26    5.78
   3  -5   2  117.78    6.87
  -3   5  -2  115.70    6.42
  -3   5  -2  108.32    7.08
   3   5   2  104.93    6.21
   3   5   2  100.61    7.12
   3   5   2  102.93    8.15
   3   5   2  115.74    7.09
  -3   5  -2  101.40    7.78
  -3   5  -2  107.51    6.55
  -3   5  -2  120.25    6.80
   3   5   2  105.81    7.13
   5  -5   2  118.69    6.94
   5  -5   2  115.32    7.85
  -5  -5  -2  115.10    7.80
  -5  -5  -2  128.66    7.95
  -5  -5  -2  132.81    8.63
   5  -5   2  130.88    6.27
   5  -5   2  127.02    6.77
  -5  -5  -2  120.31    8.19
  -5  -5  -2  124.86    8.60
   5  -5   2  125.13    6.43
   5   5   2  115.21    9.09
   5   5   2  118.14    8.05
   5   5   2  120.90    6.95
   5   5   2  125.65    8.06
  -5   5  -2  128.25    7.62
   5   5   2  137.33    7.96
  -5   5  -2  131.88    7.17
  -5   5  -2  118.68    8.70
  -5   5  -2  126.13    7.41
  -5   5  -2  115.67    7.74
   7  -5   2   49.49    5.66
   7  -5   2   57.40    3.98
   7  -5   2   44.43    3.33
  -7  -5  -2   60.96    5.15
  -7  -5  -2   54.06    5.34
  -7  -5  -2   61.24    6.42
   7  -5   2   49.81    3.29
  -7  -5  -2   55.86    5.89
   7   5   2   65.90    5.16
   7   5   2   59.59    4.01
  -7   5  -2   59.38    4.44
   7   5   2   53.88    5.68
  -7   5  -2   61.00    6.22
  -7   5  -2   52.60    5.02
  -7   5  -2   61.48    4.31
   7   5   2   55.74    5.16
  -9  -5  -2   48.32    6.18
   9  -5   2   38.95    5.05
  -9  -5  -2   44.28    5.80
  -9  -5  -2   47.17    5.39
  -9  -5  -2   49.01    4.93
  -9  -5  -2   41.83    5.65
  -9   5  -2   45.65    5.33
   9   5   2   40.96    4.72
  -9   5  -2   34.35    5.55
   9   5   2   47.06    3.69
  -9   5  -2   46.77    4.09
   9   5   2   43.35    5.11
   9   5   2   52.39    5.04
  -9   5  -2   49.41    4.60
 -11  -5  -2   34.18    5.45
 -11  -5  -2   46.16    5.59
 -11  -5  -2   40.65    5.81
  11  -5   2   38.22    5.26
 -11  -5  -2   41.74    5.81
 -11  -5  -2   33.78    5.85
 -11   5  -2   43.54    4.35
 -11   5  -2   42.25    4.82
  11   5   2   37.68    4.97
 -11   5  -2   41.88    5.14
  11   5   2   40.30    5.20
  11   5   2   41.31    5.64
 -11   5  -2   40.68    6.39
  11   5   2   46.15    5.44
 -13  -5  -2   25.07    5.93
  13  -5   2   30.75    6.47
 -13  -5  -2   20.29    5.74
 -13  -5  -2   26.38    6.49
 -13  -5  -2   22.85    5.67
  13  -5   2   25.19    4.00
 -13  -5  -2   24.81    4.90
  13   5   2   33.26    4.93
 -13   5  -2   28.29    4.41
 -13   5  -2   36.77    7.22
 -13   5  -2   27.90    3.67
  13   5   2   10.12    4.98
  13   5   2   31.56    4.25
 -13   5  -2   28.40    5.24
  13   5   2   32.49    5.03
  13   5   2    0.35    7.07
  14  -6  -2   59.47    7.04
 -14  -6   2   61.05    7.74
  14  -6  -2   62.77    5.46
  14  -6  -2   55.77    7.41
 -14  -6   2   78.67    9.44
 -14  -6   2   74.38    6.82
 -14  -6   2   65.72    7.65
 -14  -6   2   61.82    6.56
  14  -6  -2   64.97    7.99
  14  -6  -2   79.98    6.06
  14   6  -2   55.38    7.98
  14   6  -2   71.35    5.87
  14   6  -2   72.36    7.25
 -14   6   2   55.33    8.55
  14   6  -2   57.51   10.34
  14   6  -2   78.11    6.01
 -14   6   2   59.44    7.97
 -14   6   2   53.61    6.27
  12  -6  -2  106.54    8.22
 -12  -6   2   86.86    9.00
  12  -6  -2   95.90    6.67
 -12  -6   2   86.24    7.73
 -12  -6   2   93.84    7.34
 -12  -6   2   92.67    7.55
  12  -6  -2   80.83    7.58
 -12  -6   2  109.19    7.88
  12  -6  -2   82.42    7.39
  12   6  -2  104.27    7.68
  12   6  -2   83.85   10.15
  12   6  -2   84.71    6.33
 -12   6   2   74.11    9.64
  12   6  -2   87.53    9.17
 -12   6   2  105.21    7.34
  12   6  -2  101.40    6.69
 -12   6   2  101.89    8.07
 -12   6   2   80.37    8.16
 -10  -6   2  108.41    8.74
  10  -6  -2  111.23    8.66
 -10  -6   2  115.63    7.12
  10  -6  -2  121.81    7.05
  10  -6  -2  105.28    7.58
  10  -6  -2  102.88    7.73
 -10  -6   2  110.86    7.71
  10  -6  -2  105.64    8.37
 -10  -6   2  108.86    7.49
 -10   6   2  101.57    8.18
  10   6  -2  101.91    9.17
  10   6  -2  103.43    7.81
 -10   6   2  100.34    9.82
  10   6  -2  114.71    6.70
  10   6  -2   98.55   11.27
 -10   6   2  116.40    8.12
   8  -6  -2  124.72    7.86
  -8  -6   2  116.51    8.55
   8  -6  -2  118.17    8.10
   8  -6  -2  133.98    9.02
  -8  -6   2  135.45    8.48
  -8  -6   2  108.34   12.00
   8  -6  -2  123.25    9.28
   8  -6  -2  112.94    8.33
  -8  -6   2  137.20    7.30
  -8  -6   2  113.02    8.75
   8   6  -2  145.74    6.20
   8   6  -2  123.23   10.80
  -8   6   2  122.40    9.31
  -8   6   2  131.37    8.68
  -8   6   2  111.96    8.60
   8   6  -2  135.41    8.61
   8   6  -2  118.19    9.34
   8   6  -2  119.23    7.15
  -6  -6   2  148.60   10.72
  -6  -6   2  167.60    9.86
   6  -6  -2  156.69   10.01
   6  -6  -2  162.35    9.28
  -6  -6   2  188.77   11.12
  -6  -6   2  181.36   10.28
  -6  -6   2  168.44    9.71
   6  -6  -2  167.27   10.58
  -6  -6   2  191.06    9.01
   6  -6  -2  185.55   11.05
   6  -6  -2  188.79   10.09
   6   6  -2  168.79   12.10
  -6   6   2  180.77   10.51
  -6   6   2  185.93    9.94
   6   6  -2  172.23    9.60
  -6   6   2  148.90   10.53
   6   6  -2  179.55    8.97
  -6   6   2  179.17   11.80
   6   6  -2  185.78   10.49
   6   6  -2  147.18   10.90
   4  -6  -2  172.22   10.45
  -4  -6   2  177.23    9.42
  -4  -6   2  164.18    9.03
  -4  -6   2  182.27   10.39
  -4  -6   2  159.12    9.26
   4  -6  -2  150.11    9.28
  -4  -6   2  141.78    7.89
  -4  -6   2  143.10    9.93
   4  -6  -2  163.18   10.44
   4  -6  -2  156.36    8.37
  -4   6   2  157.82   11.11
   4   6  -2  148.55   10.16
   4   6  -2  172.03    9.84
   4   6  -2  169.75    8.96
  -4   6   2  166.54    9.26
  -4   6   2  151.20    9.85
  -4   6   2  178.33    9.88
   4   6  -2  148.23   11.07
   2  -6  -2  175.96   11.08
   2  -6  -2  179.35   10.38
  -2  -6   2  185.88    9.65
   2  -6  -2  156.19   10.71
  -2  -6   2  179.34   10.61
  -2  -6   2  174.14    9.78
  -2  -6   2  180.45    9.50
   2   6  -2  174.53    9.55
  -2   6   2  170.80   11.16
  -2   6   2  145.64   10.31
   2   6  -2  158.08   11.44
  -2   6   2  177.29   10.41
  -2   6   2  185.69    9.70
   2   6  -2  160.60   10.61
   2   6  -2  188.37   10.32
   2   6  -2  186.66    9.66
   0  -6  -2  191.13   11.83
   0  -6  -2  189.20   11.14
   0  -6  -2  211.33   12.12
   0  -6   2  192.53   10.38
   0  -6   2  213.35   11.60
   0  -6  -2  187.71   12.25
   0  -6   2  190.42   10.74
   0  -6   2  211.76   10.51
   0  -6  -2  178.33   10.99
   0  -6   2  229.76   13.13
   0   6   2  201.77   10.70
   0   6   2  192.91   11.41
   0   6  -2  197.83   12.64
   0   6   2  199.14   12.82
   0   6  -2  200.42   11.18
   0   6   2  181.12   11.47
   0   6  -2  211.82   10.82
   0   6   2  179.49   11.43
   0   6  -2  188.37   11.63
   0   6  -2  213.65   10.79
  -2  -6  -2  213.31   12.61
   2  -6   2  212.91   10.96
   2  -6   2  224.00   11.95
   2  -6   2  225.91   10.87
  -2  -6  -2  206.03   12.72
  -2  -6  -2  194.49   11.84
   2  -6   2  207.93   11.29
  -2  -6  -2  220.96   12.42
  -2  -6  -2  198.73   11.75
   2   6   2  195.48   12.17
  -2   6  -2  232.30   11.52
  -2   6  -2  230.38   11.60
   2   6   2  205.70   12.27
  -2   6  -2  194.12   12.17
  -2   6  -2  202.78   13.06
   2   6   2  200.04   13.42
  -2   6  -2  211.76   11.67
   2   6   2  209.94   11.20
   2   6   2  223.00   12.05
  -4  -6  -2  143.82   10.01
  -4  -6  -2  144.79    9.96
   4  -6   2  148.48    7.68
   4  -6   2  128.95    8.08
  -4  -6  -2  154.85    9.36
   4  -6   2  150.94    8.05
  -4  -6  -2  142.38    9.22
  -4   6  -2  159.28    8.80
  -4   6  -2  128.96    9.09
  -4   6  -2  142.75    8.66
   4   6   2  154.32    8.25
  -4   6  -2  158.67    8.52
   4   6   2  138.83    9.61
   4   6   2  130.43    9.11
  -4   6  -2  140.62   10.31
  -6  -6  -2  151.04    9.93
  -6  -6  -2  137.23   10.49
  -6  -6  -2  150.26    9.75
  -6  -6  -2  163.25   10.04
   6  -6   2  158.98    9.91
  -6  -6  -2  157.05   10.85
   6  -6   2  147.86    8.59
  -6   6  -2  153.65    9.17
   6   6   2  150.79    9.99
  -6   6  -2  138.89    9.64
  -6   6  -2  169.32    9.09
   6   6   2  165.66    9.76
  -6   6  -2  139.52   10.74
   6   6   2  152.59    9.99
   6   6   2  158.43    8.80
  -8  -6  -2  134.46    9.30
  -8  -6  -2  122.17    9.30
  -8  -6  -2  122.39    9.40
   8  -6   2  122.41    9.38
  -8  -6  -2  133.90   10.16
  -8  -6  -2  129.36   10.36
  -8   6  -2  133.27   10.93
   8   6   2  141.07    9.10
   8   6   2  127.52    7.74
  -8   6  -2  121.82    9.04
  -8   6  -2  131.01    8.32
  -8   6  -2  144.56    8.25
   8   6   2  130.52    9.33
   8   6   2  128.35    8.91
 -10  -6  -2  125.76    8.71
  10  -6   2  123.23    8.03
 -10  -6  -2  100.51    9.30
 -10  -6  -2  109.55   10.47
 -10  -6  -2  102.94    9.26
 -10  -6  -2  103.53   10.00
  10  -6   2  105.70    9.78
 -10   6  -2  109.77    8.08
 -10   6  -2  106.73    7.44
 -10   6  -2   91.37   10.76
  10   6   2  114.64    8.46
 -10   6  -2   99.11    8.74
  10   6   2  100.21    9.37
  10   6   2  112.43    8.19
 -13  -7   2   38.80    5.79
  13  -7  -2   38.83    4.83
  13  -7  -2   49.72    6.70
  13  -7  -2   31.59    4.06
 -13  -7   2   40.11    5.99
  13  -7  -2   33.10    5.91
 -13  -7   2   48.75    6.65
 -13  -7   2   38.03    5.74
 -13  -7   2   28.44    6.45
  13  -7  -2   34.95    5.82
 -13   7   2   33.47    6.25
  13   7  -2   42.21    6.00
  13   7  -2   32.12    7.25
 -13   7   2   44.98    6.61
 -13   7   2   28.86    8.95
  13   7  -2   38.35    4.48
  13   7  -2   30.21    4.17
 -13   7   2   40.89    4.99
  13   7  -2   38.99   10.45
  11  -7  -2   49.01    6.46
 -11  -7   2   51.26    6.90
  11  -7  -2   45.88    5.53
  11  -7  -2   51.36    5.26
  11  -7  -2   53.62    6.46
 -11  -7   2   43.67    5.86
 -11  -7   2   50.24    6.45
 -11  -7   2   42.24    5.65
  11   7  -2   41.74    5.11
 -11   7   2   44.47    6.27
  11   7  -2   48.41    9.21
 -11   7   2   58.52    5.74
  11   7  -2   46.94    7.11
 -11   7   2   49.89    7.51
  11   7  -2   40.64    4.32
  -9  -7   2   57.46    5.90
   9  -7  -2   58.27    6.27
  -9  -7   2   62.06    6.19
   9  -7  -2   55.44    5.68
   9  -7  -2   60.68    5.35
  -9  -7   2   62.14    6.23
  -9  -7   2   57.86    6.90
   9  -7  -2   71.64    7.27
   9   7  -2   45.54    4.88
  -9   7   2   59.22    7.16
   9   7  -2   58.61    9.10
  -9   7   2   59.53    6.86
   9   7  -2   67.96    6.54
   9   7  -2   58.93    7.44
  -9   7   2   64.17    5.64
  -9   7   2   53.65    7.35
   7  -7  -2   51.84    5.04
   7  -7  -2   53.82    5.54
  -7  -7   2   54.29    5.51
   7  -7  -2   57.86    4.95
  -7  -7   2   65.68    6.23
   7  -7  -2   50.75    6.86
  -7  -7   2   53.70    5.44
   7   7  -2   61.89    6.05
   7   7  -2   50.41    7.35
  -7   7   2   50.27    7.82
   7   7  -2   49.15    6.71
  -7   7   2   52.21    6.64
   7   7  -2   56.02    4.75
  -7   7   2   55.18    4.90
  -7   7   2   61.02    6.28
  -5  -7   2   63.13    6.35
  -5  -7   2   57.67    5.54
  -5  -7   2   73.81    6.67
  -5  -7   2   65.91    5.44
   5  -7  -2   58.75    5.75
   5  -7  -2   62.34    4.75
   5  -7  -2   62.23    7.60
   5  -7  -2   62.00    6.59
   5   7  -2   68.99    4.75
  -5   7   2   59.56    7.77
   5   7  -2   55.30    7.89
  -5   7   2   65.67    5.66
  -5   7   2   48.18    6.52
   5   7  -2   65.24    4.69
   5   7  -2   64.84    5.99
   5   7  -2   59.58    7.51
   3  -7  -2   43.67    5.51
   3  -7  -2   53.26    6.43
  -3  -7   2   59.01    5.24
  -3  -7   2   56.32    4.93
  -3  -7   2   56.11    4.81
  -3  -7   2   59.70    5.86
  -3   7   2   47.71    6.07
   3   7  -2   54.00    4.46
   3   7  -2   51.40    6.26
  -3   7   2   58.06    5.65
   3   7  -2   59.55    4.50
  -3   7   2   56.60    7.14
   3   7  -2   59.76    5.62
   3   7  -2   44.70    7.09
  -1  -7   2   53.67    4.30
   1  -7  -2   53.54    5.39
   1  -7  -2   46.61    6.16
  -1  -7   2   68.21    5.95
  -1  -7   2   50.38    4.92
   1  -7  -2   60.66    6.48
  -1  -7   2   57.88    5.10
   1  -7  -2   52.36    5.21
   1   7  -2   52.76    5.23
  -1   7   2   54.57    5.32
  -1   7   2   49.64    7.18
  -1   7   2   43.93    5.79
   1   7  -2   57.97    4.43
  -1   7   2   50.20    5.12
   1   7  -2   51.15    7.32
  -1   7   2   57.04    4.96
   1   7  -2   45.67    6.16
   1   7  -2   49.50    4.38
   1  -7   2   37.88    3.34
  -1  -7  -2   31.35    4.39
  -1  -7  -2   26.20    4.31
  -1  -7  -2   38.08    5.79
   1  -7   2   37.57    4.10
  -1  -7  -2   54.92    6.08
   1  -7   2   40.41    4.33
   1  -7   2   36.46    4.69
   1   7   2   34.73    4.96
   1   7   2   40.31    4.70
   1   7   2   23.67    5.38
   1   7   2   33.05    4.05
  -1   7  -2   37.47    4.50
  -1   7  -2   39.43    3.98
  -1   7  -2   33.17    4.60
   1   7   2   31.39    3.93
  -1   7  -2   30.47    6.02
  -1   7  -2   33.74    5.98
   3  -7   2   37.02    4.85
  -3  -7  -2   37.79    6.94
   3  -7   2   35.89    4.40
   3  -7   2   42.99    4.34
  -3  -7  -2   36.79    7.33
  -3  -7  -2   34.81    4.67
   3  -7   2   38.23    3.40
  -3  -7  -2   43.37    5.88
  -3   7  -2   45.50    4.80
  -3   7  -2   43.63    4.22
   3   7   2   42.44    5.58
  -3   7  -2   41.25    4.13
  -3   7  -2   34.32    5.26
  -3   7  -2   33.40    6.42
   3   7   2   45.06    5.05
   3   7   2   34.84    4.41
   5  -7   2   55.88    5.28
  -5  -7  -2   49.21    6.92
  -5  -7  -2   44.88    5.68
   5  -7   2   47.92    5.47
  -5  -7  -2   44.37    6.16
  -5  -7  -2   55.18    7.09
  -5  -7  -2   49.97    5.93
  -5   7  -2   52.11    4.84
  -5   7  -2   45.74    6.03
  -5   7  -2   54.49    7.67
   5   7   2   52.68    5.27
   5   7   2   49.89    6.20
   5   7   2   51.78    5.80
  -5   7  -2   56.21    5.17
   7  -7   2   35.99    5.10
  -7  -7  -2   29.09    4.46
  -7  -7  -2   34.76    6.51
  -7  -7  -2   35.98    6.06
   7  -7   2   32.29    4.45
  -7  -7  -2   30.49    5.29
  -7  -7  -2   28.53    4.99
  -7   7  -2   29.87    4.52
   7   7   2   34.31    3.89
  -7   7  -2   35.67    4.65
   7   7   2   32.85    5.07
   7   7   2    5.61    6.84
   7   7   2   42.33    5.51
  -7   7  -2   37.95    5.69
   7   7   2   23.43    5.19
  -7   7  -2   27.45    6.84
   9  -7   2   33.84    4.56
   9  -7   2   26.59    5.88
  -9  -7  -2   23.13    6.45
  -9  -7  -2   27.35    5.66
  -9  -7  -2   19.92    5.38
  -9  -7  -2   22.71    4.65
  -9  -7  -2   28.92    6.58
   9   7   2   32.82    4.98
   9   7   2    6.26    7.67
   9   7   2   30.01    3.72
   9   7   2   33.43    6.08
  -9   7  -2   33.99    4.52
  -9   7  -2   24.65    7.19
  -9   7  -2   33.36    3.87
  -9   7  -2   23.18    5.50
   9   7   2   35.10    5.30
  10  -8  -2   94.78    7.47
 -10  -8   2   83.46    8.85
  10  -8  -2   96.43    9.60
 -10  -8   2   96.49    8.80
  10  -8  -2   71.66    8.72
  10  -8  -2   87.82    6.68
 -10  -8   2   88.04   10.72
  10  -8  -2   95.47    8.06
 -10  -8   2   75.98    8.34
  10   8  -2   93.83   12.84
 -10   8   2   79.55    9.93
 -10   8   2   94.76    9.60
  10   8  -2  101.27   11.13
  10   8  -2  103.36    9.21
 -10   8   2   93.73    7.93
 -10   8   2   75.75   11.01
  -8  -8   2  108.20    8.81
   8  -8  -2  113.42    8.35
  -8  -8   2   97.34    8.55
   8  -8  -2  103.67    8.98
   8  -8  -2  115.90   10.13
   8  -8  -2  123.53    8.20
  -8  -8   2  110.87    8.98
  -8  -8   2  129.17   10.85
   8   8  -2  112.05   14.21
  -8   8   2  115.64   11.43
   8   8  -2  117.47    7.53
   8   8  -2   94.96   10.80
  -8   8   2  111.40    8.19
   8   8  -2  117.95    9.42
  -8   8   2  102.56   10.44
  -8   8   2  120.02    9.93
  -6  -8   2  168.63   11.87
  -6  -8   2  148.97   10.20
  -6  -8   2  144.02    9.73
   6  -8  -2  159.80    9.89
   6  -8  -2  153.75   12.71
   6  -8  -2  157.05   11.66
   6  -8  -2  162.10    9.14
  -6  -8   2  160.45   10.29
   6   8  -2  152.12    8.85
  -6   8   2  154.97    9.69
   6   8  -2  139.53   14.20
  -6   8   2  132.19   11.39
   6   8  -2  141.62    9.14
   6   8  -2  166.03   10.87
  -6   8   2  145.02   14.17
  -6   8   2  169.03   11.30
   6   8  -2  149.45    9.13
   6   8  -2  123.56   11.70
  -4  -8   2  160.51   10.27
  -4  -8   2  148.49   10.36
   4  -8  -2  146.82   12.66
   4  -8  -2  153.97   12.00
   4  -8  -2  149.87   10.76
   4  -8  -2  178.22   10.55
  -4  -8   2  180.54   11.81
   4   8  -2  161.85    9.50
   4   8  -2  164.06    9.59
  -4   8   2  156.66   14.42
   4   8  -2  147.59   14.08
  -4   8   2  135.99   11.36
  -4   8   2  175.63   10.07
   4   8  -2  151.26   12.52
   4   8  -2  169.22    9.77
  -4   8   2  181.94   11.35
   4   8  -2  161.44   10.97
  -2  -8   2  167.85   10.67
   2  -8  -2  177.60   12.69
  -2  -8   2  173.07   10.31
  -2  -8   2  162.20    9.88
  -2  -8   2  193.21   11.96
   2  -8  -2  182.23   10.85
   2  -8  -2  157.80   10.77
   2  -8  -2  154.06   10.63
   2   8  -2  176.39    9.79
   2   8  -2  175.45   10.01
   2   8  -2  149.51   12.03
   2   8  -2  146.92   14.28
  -2   8   2  172.11   10.05
  -2   8   2  140.32   11.68
  -2   8   2  148.42   14.24
   2   8  -2  168.07   11.09
  -2   8   2  172.06   11.38
  -2   8   2  163.86   10.95
   0  -8   2  175.51   11.52
   0  -8  -2  175.67   12.82
   0  -8   2  173.45    9.86
   0  -8  -2  147.67   10.83
   0  -8   2  163.93   10.56
   0  -8  -2  199.74   12.84
   0  -8  -2  184.00   11.24
   0   8   2  151.77   11.71
   0   8   2  182.12   11.04
   0   8  -2  173.96   10.33
   0   8   2  173.88   10.02
   0   8  -2  146.85   13.83
   0   8  -2  169.39   10.82
   0   8  -2  183.52   10.70
   0   8   2  153.37   10.85
   0   8  -2  132.96   11.73
   2  -8   2  159.61   10.22
  -2  -8  -2  162.22   10.98
  -2  -8  -2  153.30   10.46
  -2  -8  -2  187.43   12.48
  -2  -8  -2  139.69   10.66
   2  -8   2  157.44   10.73
  -2  -8  -2  160.43   12.50
   2   8   2  138.41   10.22
  -2   8  -2  171.50   10.67
  -2   8  -2  149.52   14.19
  -2   8  -2  169.60    9.93
   2   8   2  158.79   12.13
   2   8   2  163.19   10.95
   2   8   2  158.98    9.53
  -2   8  -2  153.77   11.79
  -4  -8  -2  114.48   10.15
   4  -8   2   82.19    7.40
  -4  -8  -2  103.52    8.79
  -4  -8  -2  100.41    8.48
  -4  -8  -2  100.77   10.76
  -4  -8  -2   92.64    8.73
   4  -8   2  100.59    8.40
  -4   8  -2  107.34    7.44
  -4   8  -2   90.38   11.00
   4   8   2  113.14    8.78
  -4   8  -2  112.21    8.57
  -4   8  -2  104.56    7.46
   4   8   2   90.51    9.74
   4   8   2  101.09    7.04
  -4   8  -2   95.84    9.80
   4   8   2  105.67    8.23
   6  -8   2   91.59    7.75
  -6  -8  -2   92.32   11.37
  -6  -8  -2   81.44    8.73
  -6  -8  -2   93.35   10.50
   6  -8   2   77.39    7.08
  -6  -8  -2   82.30    8.63
  -6  -8  -2   79.05    9.04
  -6   8  -2   99.79    7.14
  -6   8  -2   80.23   10.52
  -6   8  -2   79.92    9.81
  -6   8  -2  104.22    8.17
   6   8   2   84.12    7.76
   6   8   2   99.31    6.82
   6   8   2   72.15    9.62
   6   8   2   83.74    8.46
   5  -9  -2   50.29    6.65
  -5  -9   2   47.63    6.77
   5  -9  -2   45.41    7.66
  -5  -9   2   57.10    7.63
  -5  -9   2   37.74    5.89
  -5  -9   2   56.57    6.61
   5  -9  -2   42.95    6.64
   5   9  -2   44.76    6.42
   5   9  -2   50.16    5.78
  -5   9   2   35.59    7.61
   5   9  -2   33.44    9.64
  -5   9   2   49.61    6.97
  -5   9   2   38.23   10.27
  -5   9   2   45.68    6.02
   5   9  -2   36.82    8.23
  -3  -9   2   51.88    6.97
  -3  -9   2   61.04    6.61
   3  -9  -2   53.62    6.70
  -3  -9   2   74.78    9.34
   3  -9  -2   49.66    6.83
  -3  -9   2   57.02    7.24
   3  -9  -2   59.58    8.29
   3  -9  -2   54.02    9.12
  -3   9   2   56.00    5.80
   3   9  -2   47.17    5.65
  -3   9   2   46.76    6.72
  -3   9   2   70.62    8.41
   3   9  -2   54.00    6.64
   3   9  -2   35.52    9.66
   3   9  -2   56.37    8.18
  -3   9   2   42.75    7.70
   1  -9  -2   37.01    5.91
   1  -9  -2   50.77    8.98
  -1  -9   2   65.37    7.41
  -1  -9   2   63.43    5.83
  -1  -9   2   62.32    7.32
   1  -9  -2   60.48    8.35
   1  -9  -2   60.44    7.18
   1  -9  -2   51.81    7.08
  -1  -9   2   72.72    8.49
  -1   9   2   57.81    5.90
   1   9  -2   50.78    8.38
   1   9  -2   54.82    5.97
  -1   9   2   46.09    6.21
  -1   9   2   56.55    7.16
   1   9  -2   62.92    7.59
  -1   9   2   53.19    7.90
   1   9  -2   58.31    6.06
   1   9  -2   51.50   10.28
  -1  -9  -2   63.05    7.21
  -1  -9  -2   42.18    6.25
  -1  -9  -2   55.47    8.68
  -1  -9  -2   51.63    8.02
   1  -9   2   46.09    6.64
  -1  -9  -2   43.79    6.60
   1  -9   2   27.75    5.42
   1  -9   2   44.61    6.15
   1   9   2   49.07    6.28
  -1   9  -2   45.40    6.58
  -1   9  -2   43.70   10.24
  -1   9  -2   42.23    7.93
  -1   9  -2   49.17    5.90
  -1   9  -2   52.69    5.85
   1   9   2   43.80    5.44
   1   9   2   51.14    6.09
   1   9   2   49.36    8.10
 -18   0   3   35.46    6.86
  18   0  -3   55.32    6.03
  18   0  -3   49.19    4.78
  18   0  -3   39.85    4.51
  18   0  -3   36.42    5.67
 -18   0   3   41.13    5.75
 -18   0   3   47.19    8.77
 -18   0   3   55.05    6.09
 -18   0   3   32.22    5.27
 -16   0   3   29.62    6.67
 -16   0   3   26.04    3.76
  16   0  -3   25.98    3.76
  16   0  -3   24.95    5.21
  16   0  -3   20.14    4.20
  16   0  -3   27.53    3.08
 -16   0   3   22.21    3.60
 -16   0   3   27.76    4.19
 -16   0   3   20.27    4.90
 -14   0   3   58.92    7.84
 -14   0   3   53.16    4.88
 -14   0   3   57.66    4.93
  14   0  -3   58.68    3.49
 -14   0   3   56.38    4.88
  14   0  -3   56.10    6.28
  14   0  -3   65.03    4.96
  14   0  -3   50.23    4.36
 -14   0   3   48.49    5.75
  12   0  -3   94.00    6.44
 -12   0   3  105.81    9.62
  12   0  -3   97.52    5.82
  12   0  -3   98.22    7.01
  12   0  -3   98.47    5.34
 -12   0   3   95.14    6.55
 -12   0   3   88.00    5.93
 -12   0   3   93.02    6.78
 -12   0   3  104.46    6.38
  12   0  -3   96.95    6.20
  12   0  -3   96.81    5.85
  10   0  -3  107.20    5.58
  10   0  -3  103.28    6.15
 -10   0   3   94.58    6.19
 -10   0   3  104.94    6.24
  10   0  -3  103.06    5.86
  10   0  -3   99.32    6.36
  10   0  -3   99.55    6.29
 -10   0   3   93.91    5.82
 -10   0   3  110.22    9.21
 -10   0   3  103.05    6.41
  10   0  -3  103.72    5.80
   8   0  -3  151.97    7.63
  -8   0   3  152.83    8.09
  -8   0   3  139.89    7.57
   8   0  -3  147.84    7.57
  -8   0   3  141.53    7.98
  -8   0   3  161.42   11.22
   8   0  -3  143.09    7.83
   8   0  -3  141.03    8.07
   8   0  -3  149.96    7.72
   8   0  -3  134.12    7.87
  -8   0   3  150.02    7.87
  -6   0   3  129.40    6.81
   6   0  -3  126.23    6.47
  -6   0   3  120.24    6.40
  -6   0   3  122.93    6.69
   6   0  -3  124.66    6.62
   6   0  -3  130.74    6.67
  -6   0   3  140.50    9.85
  -6   0   3  121.39    6.57
   6   0  -3  120.82    6.76
   6   0  -3  124.21    6.68
  -4   0   3  241.96   11.43
   4   0  -3  246.85   11.26
   4   0  -3  237.92   11.37
  -4   0   3  228.93   11.32
  -4   0   3  224.70   12.20
   4   0  -3  228.92   11.32
   4   0  -3  235.84   11.40
  -4   0   3  256.43   15.05
   4   0  -3  243.15   11.65
  -4   0   3  227.09   11.06
  -4   0   3  227.80   11.14
   2   0  -3  134.64    6.41
  -2   0   3  126.66    7.30
   2   0  -3  132.98    6.48
  -2   0   3  142.34   10.27
  -2   0   3  130.20    6.47
   2   0  -3  133.91    6.40
   2   0  -3  135.52    7.02
  -2   0   3  138.32    6.47
   0   0   3   51.65    3.84
   0   0  -3   57.31    2.75
   0   0  -3   56.92    3.32
   0   0  -3   56.81    2.74
   0   0   3   52.41    6.16
   2   0   3   51.27    6.61
   2   0   3   54.95    2.59
   2   0   3   54.06    3.97
  -2   0  -3   51.49    2.75
  -2   0  -3   56.26    3.32
  -2   0  -3   52.99    2.61
  -2   0  -3   54.26    2.59
  -2   0  -3   51.98    2.99
  -2   0  -3   50.44    3.69
   2   0   3   54.75    2.58
  -4   0  -3   59.39    3.81
  -4   0  -3   62.92    3.80
  -4   0  -3   59.77    3.45
   4   0   3   62.58    3.35
  -4   0  -3   63.62    3.68
  -4   0  -3   57.89    4.25
   4   0   3   65.76    4.64
   4   0   3   61.35    4.04
  -4   0  -3   61.73    3.32
   4   0   3   58.71    3.99
  -4   0  -3   59.84    3.38
   4   0   3   63.80    3.34
   6   0   3   38.56    3.23
  -6   0  -3   37.28    3.33
   6   0   3   31.67    2.86
   6   0   3   35.28    3.67
  -6   0  -3   35.93    2.43
  -6   0  -3   36.72    2.66
   6   0   3   37.08    2.47
   6   0   3   32.14    2.47
  -6   0  -3   37.00    2.55
  -6   0  -3   35.13    3.46
   8   0   3   24.88    2.70
  -8   0  -3   34.77    2.80
  -8   0  -3   30.84    3.47
   8   0   3   32.76    3.89
  -8   0  -3   35.19    3.72
  -8   0  -3   33.73    2.28
   8   0   3   26.48    3.54
   8   0   3   33.50    3.09
  -8   0  -3   34.88    3.04
  -8   0  -3   33.21    3.90
   8   0   3   35.72    2.70
 -10   0  -3   24.15    3.49
 -10   0  -3   30.44    3.64
  10   0   3   31.72    3.31
 -10   0  -3   31.75    3.62
 -10   0  -3   33.66    3.21
 -10   0  -3   28.60    4.24
  10   0   3   28.37    3.80
 -10   0  -3   28.37    2.03
  12   0   3   34.00    4.68
 -12   0  -3   43.09    4.41
 -12   0  -3   40.93    5.16
 -12   0  -3   38.76    5.51
  12   0   3   36.44    3.76
 -12   0  -3   32.75    4.61
 -12   0  -3   32.48    4.06
  12   0   3   38.23    4.11
  14   0   3   48.65    5.06
  14   0   3   29.55    5.55
 -14   0  -3   41.95    5.24
 -14   0  -3   38.57    5.57
  14   0   3   30.24    3.72
 -14   0  -3   29.30    5.47
 -14   0  -3   41.42    4.88
 -14   0  -3   34.88    6.76
  19  -1  -3   72.19    8.31
 -19  -1   3   72.60    7.82
 -19  -1   3   67.49    9.17
 -19  -1   3   57.56    7.69
 -19  -1   3   68.37   10.73
  19  -1  -3   63.56    5.52
  19  -1  -3   74.44    6.40
 -19  -1   3   71.54    8.29
 -19   1   3   80.11    8.44
 -19   1   3   74.22    7.58
  19   1  -3   59.28    8.24
  19   1  -3   65.88    7.37
 -19   1   3   61.73    8.18
 -19   1   3   70.38    9.38
 -19   1   3   74.76   10.52
  19   1  -3   67.76    5.93
  19   1  -3   78.94    6.28
  17  -1  -3   88.61    5.95
 -17  -1   3   68.05    8.56
  17  -1  -3   77.52    5.81
  17  -1  -3   87.68    6.44
 -17  -1   3   76.40    7.50
 -17  -1   3   69.44    6.77
  17  -1  -3   85.38    9.06
  17  -1  -3   67.35    7.05
 -17  -1   3   71.02    6.93
  17   1  -3   90.70    5.85
 -17   1   3   61.16    6.78
 -17   1   3   82.44    6.81
 -17   1   3   89.24    9.05
 -17   1   3   70.14    6.62
  17   1  -3   86.93    6.05
  17   1  -3   67.29    7.30
  17   1  -3   76.08    9.02
  17   1  -3   81.74    6.77
 -17   1   3   82.22   10.10
 -15  -1   3  148.39   11.00
  15  -1  -3  164.74   10.24
 -15  -1   3  186.89   10.92
  15  -1  -3  183.63   10.17
  15  -1  -3  152.22   10.52
 -15  -1   3  163.51    9.93
  15   1  -3  162.27   10.49
 -15   1   3  173.83   10.41
 -15   1   3  185.46   14.47
  15   1  -3  186.91   10.31
  15   1  -3  156.74   11.18
  15   1  -3  176.76    9.69
 -15   1   3  148.15    9.86
 -15   1   3  161.87   10.97
  13  -1  -3  142.20    9.09
 -13  -1   3  143.17    8.71
  13  -1  -3  156.49    7.91
  13  -1  -3  159.30    9.16
 -13  -1   3  165.69    9.28
  13  -1  -3  149.50    9.74
 -13  -1   3  164.08    9.48
 -13  -1   3  146.30    9.59
 -13   1   3  145.45    9.52
 -13   1   3  144.34    8.75
 -13   1   3  165.69    9.22
  13   1  -3  148.57    9.80
  13   1  -3  159.83    8.67
 -13   1   3  160.73   12.61
  13   1  -3  156.64    9.32
 -13   1   3  149.01    9.19
  13   1  -3  159.66    9.06
  11  -1  -3  207.21   11.46
 -11  -1   3  220.25   11.65
  11  -1  -3  219.74   11.59
  11  -1  -3  230.27   11.23
  11  -1  -3  223.36   11.25
 -11  -1   3  221.01   11.91
 -11  -1   3  200.01   11.08
  11  -1  -3  223.74   10.77
  11  -1  -3  204.31   11.79
 -11  -1   3  226.62   15.68
 -11   1   3  226.61   11.56
  11   1  -3  216.32   11.46
  11   1  -3  223.80   11.20
  11   1  -3  192.19   11.51
 -11   1   3  220.88   11.79
  11   1  -3  209.18   11.92
 -11   1   3  214.63   14.76
 -11   1   3  201.10   11.15
 -11   1   3  203.37   11.70
  11   1  -3  222.36   11.09
  11   1  -3  220.95   10.77
   9  -1  -3  272.05   12.97
   9  -1  -3  265.33   12.86
   9  -1  -3  241.49   12.99
  -9  -1   3  259.61   13.38
  -9  -1   3  286.08   17.31
  -9  -1   3  254.18   13.11
   9  -1  -3  267.08   12.70
   9  -1  -3  250.20   13.18
   9  -1  -3  265.16   13.14
  -9  -1   3  238.59   12.64
  -9   1   3  269.03   13.13
   9   1  -3  265.71   12.76
   9   1  -3  262.86   13.04
   9   1  -3  238.68   13.10
   9   1  -3  266.40   12.81
  -9   1   3  239.39   13.15
  -9   1   3  245.59   12.79
   9   1  -3  260.63   12.61
   9   1  -3  241.33   13.27
  -9   1   3  272.74   16.58
  -9   1   3  244.31   13.17
   7  -1  -3  372.27   19.36
  -7  -1   3  406.00   19.66
   7  -1  -3  396.53   19.56
  -7  -1   3  451.45   19.24
   7  -1  -3  420.78   19.37
  -7  -1   3  396.91   19.09
  -7  -1   3  383.00   19.32
  -7  -1   3  389.82   19.42
  -7  -1   3  432.34   23.38
   7   1  -3  396.14   19.60
   7   1  -3  400.30   19.41
   7   1  -3  405.53   19.28
   7   1  -3  375.40   19.47
  -7   1   3  398.54   19.58
  -7   1   3  415.58   19.47
  -7   1   3  386.23   19.24
  -7   1   3  383.17   19.52
   7   1  -3  434.83   19.30
  -7   1   3  439.07   23.26
   7   1  -3  425.80   19.22
  -5  -1   3  209.07   10.28
  -5  -1   3  213.29   10.56
   5  -1  -3  221.20   10.42
  -5  -1   3  241.51   14.13
  -5  -1   3  203.37   10.35
   5  -1  -3  204.72   10.50
   5  -1  -3  201.24   10.37
   5  -1  -3  210.72   10.56
  -5  -1   3  212.30   10.06
  -5  -1   3  202.19   10.53
   5   1  -3  207.13   10.15
  -5   1   3  205.22   10.56
  -5   1   3  218.81   13.90
   5   1  -3  207.01   10.51
  -5   1   3  215.58   10.54
   5   1  -3  183.96   10.58
   5   1  -3  204.78   10.48
  -5   1   3  197.85   10.26
  -5   1   3  226.19   10.40
   5   1  -3  212.85   10.49
  -5   1   3  246.29   11.21
  -3  -1   3  427.05   19.66
  -3  -1   3  433.01   19.99
   3  -1  -3  440.69   19.88
   3  -1  -3  402.23   19.57
   3  -1  -3  398.03   19.68
  -3  -1   3  392.77   19.90
   3  -1  -3  436.86   19.73
  -3  -1   3  483.74   23.81
   3   1  -3  407.30   19.51
  -3   1   3  394.61   19.76
  -3   1   3  423.43   23.89
  -3   1   3  428.79   19.44
   3   1  -3  397.48   19.57
   3   1  -3  424.95   19.37
   3   1  -3  404.68   19.59
  -3   1   3  413.21   19.47
  -3   1   3  435.99   20.57
  -3   1   3  426.77   19.72
   3   1  -3  425.46   19.93
  -1  -1   3  338.97   18.85
   1  -1  -3  296.19   14.81
   1  -1  -3  321.86   14.66
  -1  -1   3  332.35   15.47
   1  -1  -3  321.80   15.00
   1  -1  -3  292.85   14.81
   1   1  -3  320.02   15.14
  -1   1   3  304.05   14.90
  -1   1   3  304.78   15.82
   1   1  -3  318.37   14.52
  -1   1   3  320.88   14.77
   1   1  -3  326.19   14.50
  -1   1   3  299.32   19.37
  -1  -1  -3  372.09   16.95
   1  -1   3  396.70   17.88
  -1  -1  -3  354.85   16.85
  -1  -1  -3  370.75   16.71
  -1  -1  -3  312.76   17.54
  -1  -1  -3  351.79   16.92
  -1  -1  -3  355.34   17.12
   1  -1   3  360.70   21.27
  -1   1  -3  333.95   17.17
   1   1   3  370.20   16.83
   1   1   3  343.57   18.07
  -1   1  -3  379.51   17.39
  -1   1  -3  378.23   17.19
   1   1   3  375.01   16.94
   1   1   3  351.84   22.65
  -3  -1  -3  331.36   17.42
  -3  -1  -3  329.89   16.46
  -3  -1  -3  344.15   16.56
  -3  -1  -3  366.74   16.69
   3  -1   3  309.65   21.10
  -3  -1  -3  339.61   16.59
   3  -1   3  379.68   17.79
  -3  -1  -3  348.29   16.91
   3  -1   3  369.12   16.13
   3  -1   3  375.34   16.10
   3  -1   3  319.49   16.98
   3   1   3  351.42   16.68
  -3   1  -3  354.43   16.32
  -3   1  -3  354.37   16.14
   3   1   3  365.78   16.59
  -3   1  -3  357.66   17.07
   3   1   3  361.48   16.60
  -3   1  -3  359.18   16.71
  -3   1  -3  354.92   16.35
  -3   1  -3  354.56   16.12
   3   1   3  344.77   17.91
  -3   1  -3  346.04   16.94
  -5  -1  -3  185.18    9.48
  -5  -1  -3  184.35    9.92
  -5  -1  -3  179.68    9.37
  -5  -1  -3  192.00    9.47
  -5  -1  -3  170.06   10.22
   5  -1   3  177.48    9.90
   5  -1   3  187.56    9.77
   5  -1   3  196.78   10.68
   5  -1   3  190.04    9.04
   5  -1   3  197.28    9.14
   5   1   3  179.48    9.99
  -5   1  -3  191.26    9.88
  -5   1  -3  197.35    9.13
   5   1   3  196.76    9.43
   5   1   3  180.57    9.48
  -5   1  -3  189.82    9.85
   5   1   3  190.80    9.44
  -5   1  -3  191.14    9.28
  -5   1  -3  184.03    9.33
   5   1   3  186.99   10.72
  -5   1  -3  191.10    9.39
  -5   1  -3  183.08    9.06
  -7  -1  -3  224.75   11.93
  -7  -1  -3  215.84   11.38
   7  -1   3  239.24   10.96
   7  -1   3  216.08   11.73
  -7  -1  -3  214.49   11.24
   7  -1   3  226.22   11.57
  -7  -1  -3  236.69   11.44
  -7  -1  -3  219.56   12.18
   7   1   3  220.50   12.68
   7   1   3  215.23   11.81
   7   1   3  223.75   11.19
  -7   1  -3  224.49   10.76
  -7   1  -3  230.95   11.72
   7   1   3  219.20   11.28
  -7   1  -3  211.28   11.27
   7   1   3  202.67   11.27
  -7   1  -3  218.81   10.96
  -7   1  -3  232.90   11.08
  -7   1  -3  230.31   11.45
   9  -1   3  159.07    9.79
  -9  -1  -3  180.50    9.44
  -9  -1  -3  173.59   10.16
  -9  -1  -3  169.87    9.97
   9  -1   3  162.32    9.31
   9  -1   3  171.71    8.76
  -9  -1  -3  161.51    9.23
   9   1   3  175.89    9.05
  -9   1  -3  176.66    9.00
  -9   1  -3  160.74    8.91
  -9   1  -3  160.70    9.48
  -9   1  -3  173.93    9.66
  -9   1  -3  166.14    9.56
   9   1   3  160.59    9.73
   9   1   3  160.58    9.39
  -9   1  -3  170.10    8.18
   9   1   3  163.33   10.55
 -11  -1  -3  100.44    7.03
 -11  -1  -3  105.48    5.20
  11  -1   3   75.77    5.68
 -11  -1  -3   94.91    6.79
  11  -1   3   95.71    6.96
  11  -1   3   95.16    6.59
 -11  -1  -3   99.52    8.34
 -11  -1  -3   95.53    7.53
  11   1   3   93.10    6.07
 -11   1  -3   94.18    7.12
  11   1   3  103.53    7.76
 -11   1  -3   92.91    6.44
 -11   1  -3  100.22    6.27
 -11   1  -3  106.53    7.85
  11   1   3   90.60    6.81
 -13  -1  -3   57.60    7.10
  13  -1   3   59.42    5.15
 -13  -1  -3   72.32    7.37
  13  -1   3   67.24    7.55
  13  -1   3   68.38    5.83
 -13  -1  -3   68.72    6.47
 -13  -1  -3   71.25    6.27
 -13   1  -3   85.35    8.82
 -13   1  -3   70.88    6.67
  13   1   3   66.33    6.76
 -13   1  -3   64.75    6.87
  13   1   3   70.38    5.91
 -13   1  -3   76.59    5.60
 -13   1  -3   60.03    6.27
  13   1   3   61.78    5.26
  18  -2  -3   30.47    5.20
 -18  -2   3   48.98    6.57
  18  -2  -3   41.20    4.55
 -18  -2   3   41.16    5.66
 -18  -2   3   21.75    6.92
  18  -2  -3   38.69    5.30
 -18  -2   3   40.48    5.27
  18  -2  -3   35.73    4.76
 -18   2   3   34.89    5.15
 -18   2   3   41.72    8.00
 -18   2   3   49.13    5.80
  18   2  -3   39.74    6.12
  18   2  -3   40.03    5.19
  18   2  -3   36.78    7.88
 -18   2   3   33.27    5.17
 -18   2   3   30.82    7.12
  18   2  -3   34.69    4.45
  18   2  -3   26.02    3.84
  16  -2  -3   22.94    4.55
  16  -2  -3   23.21    4.65
  16  -2  -3   20.29    2.96
 -16  -2   3   21.49    3.65
  16  -2  -3   21.16    2.91
 -16  -2   3   20.14    4.33
  16  -2  -3   22.26    4.17
 -16  -2   3   20.40    3.74
 -16   2   3   16.79    3.45
  16   2  -3   25.43    3.53
 -16   2   3   25.27    4.50
  16   2  -3   21.83    5.46
  16   2  -3   26.53    3.36
  16   2  -3   22.27    2.93
 -16   2   3   26.42    4.74
 -16   2   3   25.75    3.75
 -16   2   3   23.85    6.17
  16   2  -3   25.92    4.72
  14  -2  -3   47.00    4.99
 -14  -2   3   54.13    4.75
  14  -2  -3   49.66    5.43
  14  -2  -3   47.99    4.91
 -14  -2   3   44.38    5.40
 -14  -2   3   44.11    4.73
 -14   2   3   46.81    4.80
  14   2  -3   49.58    3.97
  14   2  -3   49.83    6.53
 -14   2   3   52.24    6.94
  14   2  -3   44.35    5.56
  14   2  -3   55.71    4.84
 -14   2   3   53.07    6.14
 -14   2   3   39.64    4.36
 -14   2   3   54.27    5.10
  12  -2  -3   65.40    5.95
  12  -2  -3   62.10    5.10
 -12  -2   3   67.49    4.95
  12  -2  -3   67.39    4.61
  12  -2  -3   72.03    4.24
 -12  -2   3   65.16    4.69
 -12  -2   3   67.11    5.15
 -12  -2   3   69.52    5.71
  12  -2  -3   75.93    4.79
  12  -2  -3   72.12    5.28
 -12  -2   3   68.01    5.68
  12   2  -3   67.46    4.86
 -12   2   3   68.78    6.07
  12   2  -3   69.96    4.46
 -12   2   3   68.99    7.22
 -12   2   3   71.75    5.04
  12   2  -3   68.13    6.31
  12   2  -3   72.02    4.57
  12   2  -3   66.87    5.66
 -12   2   3   65.78    5.38
 -12   2   3   62.24    4.99
 -10  -2   3   55.19    4.65
  10  -2  -3   54.37    3.80
  10  -2  -3   59.77    3.87
  10  -2  -3   53.12    4.25
 -10  -2   3   60.69    4.68
 -10  -2   3   58.63    4.05
  10  -2  -3   55.12    4.74
 -10  -2   3   54.68    4.15
 -10  -2   3   50.58    3.83
 -10   2   3   48.21    4.67
  10   2  -3   51.28    5.02
 -10   2   3   55.55    4.09
  10   2  -3   57.26    3.71
 -10   2   3   57.78    6.48
  10   2  -3   56.48    3.71
 -10   2   3   52.73    4.10
  10   2  -3   55.67    4.68
 -10   2   3   63.88    4.50
  10   2  -3   60.13    4.16
  -8  -2   3   66.25    4.42
   8  -2  -3   67.80    4.66
  -8  -2   3   68.63    7.16
   8  -2  -3   61.71    4.53
  -8  -2   3   68.65    4.17
  -8  -2   3   67.55    4.62
   8  -2  -3   69.16    4.28
  -8  -2   3   68.79    3.36
  -8  -2   3   68.04    4.33
   8  -2  -3   62.02    4.40
  -8  -2   3   67.73    4.74
  -8   2   3   70.06    4.36
   8   2  -3   66.49    4.33
   8   2  -3   70.98    4.01
  -8   2   3   68.60    6.88
   8   2  -3   68.86    4.05
   8   2  -3   64.92    4.90
  -8   2   3   64.34    4.86
  -8   2   3   65.51    4.41
  -8   2   3   67.42    4.56
   8   2  -3   62.29    4.74
   8   2  -3   70.48    4.07
   6  -2  -3   51.14    3.84
  -6  -2   3   51.35    3.42
  -6  -2   3   56.79    3.25
  -6  -2   3   56.61    5.94
  -6  -2   3   51.99    3.58
  -6  -2   3   59.85    2.75
  -6  -2   3   50.24    3.54
   6  -2  -3   53.12    3.78
   6  -2  -3   49.84    3.53
   6  -2  -3   57.01    3.53
  -6  -2   3   55.68    3.80
   6   2  -3   52.49    3.19
   6   2  -3   52.96    3.13
  -6   2   3   54.28    3.44
  -6   2   3   52.47    5.92
   6   2  -3   52.79    3.35
   6   2  -3   50.30    3.84
  -6   2   3   48.42    3.73
  -6   2   3   49.44    3.57
  -6   2   3   53.14    3.65
   6   2  -3   54.85    3.96
   6   2  -3   51.22    3.45
   4  -2  -3  144.43    7.21
  -4  -2   3  158.20    6.82
  -4  -2   3  130.17    7.19
   4  -2  -3  131.09    7.34
  -4  -2   3  151.83   10.25
   4  -2  -3  128.19    7.21
  -4  -2   3  143.08    7.29
  -4  -2   3  129.15    6.85
   4  -2  -3  129.41    7.00
  -4  -2   3  132.97    6.54
  -4  -2   3  135.74    6.72
  -4   2   3  125.96    7.03
   4   2  -3  137.70    6.67
  -4   2   3  133.97   10.57
   4   2  -3  140.57    7.14
   4   2  -3  133.87    7.06
  -4   2   3  131.62    7.20
   4   2  -3  129.72    7.25
  -4   2   3  137.37    6.98
   4   2  -3  137.29    6.74
  -4   2   3  130.44    7.43
  -4   2   3  141.32    7.83
   4   2  -3  123.89    7.17
  -2  -2   3  120.33    8.77
  -2  -2   3  116.00    5.89
   2  -2  -3  107.36    6.06
  -2  -2   3  106.77    6.09
  -2  -2   3  118.68    6.38
   2  -2  -3  109.07    6.03
   2  -2  -3  111.18    5.85
   2  -2  -3  114.15    6.80
  -2  -2   3  116.57    5.62
   2   2  -3  117.68    5.52
  -2   2   3  103.30    9.65
  -2   2   3  112.78    6.81
  -2   2   3  118.03    6.06
   2   2  -3  108.16    5.94
  -2   2   3  118.24    5.72
   2   2  -3  100.62    5.81
   2   2  -3  111.95    6.01
  -2   2   3  111.39    5.90
   2   2  -3  114.00    5.89
   0  -2  -3  114.31    6.40
   0  -2   3  122.62    5.77
   0  -2  -3  112.01    6.34
   0  -2  -3  113.06    6.06
   0  -2   3  129.87    9.38
   0  -2  -3  116.83    6.77
   0  -2   3  125.43    5.72
   0  -2   3  108.26    6.27
   0  -2   3  137.16    6.73
   0  -2  -3  121.60    5.77
   0   2  -3  111.26    6.07
   0   2  -3  119.39    5.66
   0   2   3  118.03    5.91
   0   2  -3  115.10    6.22
   0   2  -3  122.68    6.57
   0   2  -3  115.15    5.87
   0   2   3  114.95    6.46
   0   2  -3  115.13    5.78
   0   2   3  106.91   10.48
   0   2  -3  111.33    5.93
   0   2   3  125.38    5.80
   0   2   3  121.28    6.27
   0   2   3  116.96    7.13
  -2  -2  -3  134.66    7.48
  -2  -2  -3  142.45    7.93
   2  -2   3  151.24    6.79
  -2  -2  -3  136.92    7.39
   2  -2   3  135.93    7.30
  -2  -2  -3  130.33    7.99
   2  -2   3  133.57   10.44
  -2   2  -3  141.72    6.73
  -2   2  -3  145.93    7.67
  -2   2  -3  131.02    7.12
   2   2   3  135.20    6.74
  -2   2  -3  139.34    7.06
   2   2   3  144.66    7.53
   2   2   3  143.16    7.33
  -2   2  -3  147.00    6.76
   2   2   3  141.44    8.38
  -2   2  -3  144.03    7.25
  -2   2  -3  142.49    6.86
  -4  -2  -3  170.01    9.83
   4  -2   3  177.32    8.35
  -4  -2  -3  168.93    9.04
  -4  -2  -3  167.45    9.12
  -4  -2  -3  171.40    8.94
   4  -2   3  156.89    9.33
   4  -2   3  185.53    8.53
   4  -2   3  163.61   12.84
   4  -2   3  171.69    8.85
  -4  -2  -3  172.67    9.64
  -4   2  -3  173.45    8.43
   4   2   3  177.01    9.12
   4   2   3  172.58    8.27
  -4   2  -3  176.35    8.80
  -4   2  -3  186.08    9.42
  -4   2  -3  179.53    8.65
  -4   2  -3  167.43    8.84
   4   2   3  169.16    8.56
   4   2   3  162.56   10.05
   4   2   3  177.55    8.21
  -4   2  -3  177.79    8.70
  -4   2  -3  178.73    8.45
   4   2   3  180.65    8.98
   6  -2   3  116.73    5.96
  -6  -2  -3  111.54    6.77
  -6  -2  -3  113.36    6.60
   6  -2   3  117.08    6.40
   6  -2   3  109.35    7.12
  -6  -2  -3  100.40    7.35
  -6  -2  -3  112.27    6.64
  -6  -2  -3  112.71    7.47
   6   2   3  126.86    5.69
  -6   2  -3  117.52    6.48
   6   2   3  110.12    7.60
   6   2   3  112.46    6.91
   6   2   3  118.95    6.50
   6   2   3  122.03    6.77
  -6   2  -3  111.64    6.09
  -6   2  -3  117.98    6.91
  -6   2  -3  115.78    6.00
  -6   2  -3  117.43    6.46
  -6   2  -3  117.34    6.09
   6   2   3  111.36    6.20
  -6   2  -3  111.00    6.62
   8  -2   3   85.52    5.26
  -8  -2  -3   78.28    5.41
  -8  -2  -3   79.18    7.95
  -8  -2  -3   74.57    6.20
   8  -2   3   79.93    5.05
   8  -2   3   82.50    6.19
  -8  -2  -3   83.05    5.45
  -8  -2  -3   79.72    5.66
  -8   2  -3   82.11    5.62
  -8   2  -3   79.19    4.96
  -8   2  -3   85.53    5.71
   8   2   3   60.96    6.02
   8   2   3   75.79    6.23
   8   2   3   80.64    5.25
  -8   2  -3   82.13    4.82
  -8   2  -3   84.36    5.31
   8   2   3   76.91    5.13
  10  -2   3   46.32    4.12
 -10  -2  -3   41.45    4.68
  10  -2   3   37.84    4.97
 -10  -2  -3   48.57    4.99
 -10  -2  -3   55.39    5.76
 -10  -2  -3   46.88    4.97
 -10  -2  -3   51.72    4.52
  10   2   3   46.84    5.02
 -10   2  -3   51.86    3.82
 -10   2  -3   41.78    5.08
 -10   2  -3   51.11    4.26
 -10   2  -3   54.16    5.49
 -10   2  -3   47.82    4.43
  10   2   3   53.55    4.67
 -12  -2  -3   41.25    5.49
  12  -2   3   36.14    4.93
  12  -2   3   43.24    3.84
 -12  -2  -3   40.06    4.85
 -12  -2  -3   33.85    5.16
 -12  -2  -3   54.21    6.03
 -12  -2  -3   44.08    5.61
 -12   2  -3   37.02    5.41
  12   2   3   42.35    4.04
 -12   2  -3   48.05    4.16
 -12   2  -3   36.80    5.00
 -12   2  -3   42.07    5.40
 -12   2  -3   41.98    4.79
  12   2   3   36.98    4.54
  12   2   3   42.13    4.44
  12   2   3   41.77    5.31
 -14  -2  -3   34.71    4.43
 -14  -2  -3   30.06    5.36
  14  -2   3   29.43    4.08
 -14  -2  -3   29.56    2.32
 -14  -2  -3   31.44    5.32
  14  -2   3   26.65    3.62
 -14  -2  -3   22.66    5.30
  14  -2   3   23.78    5.11
 -14   2  -3   23.57    3.83
 -14   2  -3   30.97    5.02
 -14   2  -3   22.10    4.70
 -14   2  -3   17.50    5.44
  14   2   3   14.78    4.67
  14   2   3   25.24    4.03
  14   2   3   28.96    3.92
 -14   2  -3   27.58    6.77
  17  -3  -3   42.24    5.63
  17  -3  -3   36.62    4.48
  17  -3  -3   46.39    4.65
 -17  -3   3   45.85    6.22
  17  -3  -3   45.76    6.23
 -17  -3   3   35.62    5.29
 -17  -3   3   53.88    6.32
 -17   3   3   40.98    5.04
 -17   3   3   33.30    5.28
  17   3  -3   44.62    6.98
 -17   3   3   32.14    7.03
 -17   3   3   44.03    5.83
  17   3  -3   48.09    4.52
  17   3  -3   42.64    6.41
  17   3  -3   41.34    5.45
  17   3  -3   41.18    4.58
 -15  -3   3   96.56    6.79
 -15  -3   3  102.01    7.56
  15  -3  -3  111.00    6.91
 -15  -3   3   83.34    7.88
 -15  -3   3  104.23    8.55
 -15  -3   3   94.81    7.70
  15  -3  -3   96.84    7.64
  15  -3  -3   95.67    8.92
  15  -3  -3  110.10    6.86
  15  -3  -3  105.50    8.98
 -15   3   3  105.79   10.06
 -15   3   3  115.56    8.27
 -15   3   3   98.58    9.09
  15   3  -3   96.04    8.47
 -15   3   3  124.14    7.70
  15   3  -3  109.59    6.74
 -15   3   3   98.08    7.59
  15   3  -3  107.86    7.47
  15   3  -3   97.58    9.65
 -13  -3   3  101.56    6.55
 -13  -3   3  115.78    8.06
 -13  -3   3  113.04    7.52
 -13  -3   3  109.89    7.53
 -13  -3   3   97.86    7.51
  13  -3  -3   98.30    7.07
  13  -3  -3  118.01    6.72
  13  -3  -3   99.31    8.08
 -13   3   3  109.08    9.60
  13   3  -3   97.51    8.58
  13   3  -3  101.73    7.11
 -13   3   3  103.99    6.97
 -13   3   3   97.71    7.00
 -13   3   3   96.37    8.34
  13   3  -3  107.06    7.13
  13   3  -3  102.95    8.00
 -13   3   3  104.34    7.46
 -11  -3   3  192.12   10.91
  11  -3  -3  174.68   10.13
  11  -3  -3  199.38   10.85
 -11  -3   3  181.44    9.85
 -11  -3   3  182.98    9.94
  11  -3  -3  192.26    9.98
 -11  -3   3  183.15   10.42
  11  -3  -3  171.84   10.70
  11  -3  -3  198.28   10.08
 -11  -3   3  175.79   10.57
  11   3  -3  189.27    9.68
  11   3  -3  172.24   11.14
 -11   3   3  183.10   13.14
 -11   3   3  195.80   10.26
  11   3  -3  175.40   10.10
 -11   3   3  164.21   10.77
 -11   3   3  168.82   10.07
 -11   3   3  190.99   10.64
  11   3  -3  158.56   10.61
  11   3  -3  190.91    9.76
  -9  -3   3  275.96   14.38
  -9  -3   3  271.97   13.99
  -9  -3   3  285.87   13.85
   9  -3  -3  254.01   14.08
   9  -3  -3  302.06   14.82
   9  -3  -3  267.10   14.50
  -9  -3   3  278.07   14.74
   9  -3  -3  302.38   14.25
  -9  -3   3  287.26   14.43
   9   3  -3  296.55   13.91
   9   3  -3  274.11   14.26
  -9   3   3  276.08   17.36
   9   3  -3  292.39   13.75
  -9   3   3  258.80   14.16
  -9   3   3  252.85   14.46
   9   3  -3  265.63   14.65
  -9   3   3  286.63   14.51
  -9   3   3  293.51   14.29
   9   3  -3  254.69   14.74
   7  -3  -3  473.80   22.01
  -7  -3   3  464.45   21.94
  -7  -3   3  404.21   20.86
  -7  -3   3  501.09   26.26
  -7  -3   3  453.50   21.47
   7  -3  -3  478.19   21.54
   7  -3  -3  395.55   21.22
  -7  -3   3  463.65   21.51
   7  -3  -3  433.06   21.63
  -7  -3   3  433.00   21.30
   7   3  -3  406.67   21.71
   7   3  -3  473.57   20.88
  -7   3   3  436.80   25.15
  -7   3   3  416.08   21.35
   7   3  -3  458.77   21.09
   7   3  -3  400.52   21.73
  -7   3   3  434.17   21.61
  -7   3   3  413.45   21.79
   7   3  -3  438.74   21.44
  -7   3   3  467.17   21.44
   5  -3  -3  393.76   18.87
  -5  -3   3  392.13   18.12
  -5  -3   3  348.37   17.69
  -5  -3   3  392.16   18.27
   5  -3  -3  367.55   18.22
   5  -3  -3  351.00   18.46
  -5  -3   3  429.18   22.37
  -5  -3   3  390.73   18.76
   5  -3  -3  396.99   18.51
  -5  -3   3  363.62   18.26
  -5   3   3  388.12   18.56
  -5   3   3  361.57   18.33
  -5   3   3  363.07   18.75
   5   3  -3  342.81   18.57
  -5   3   3  387.87   18.24
   5   3  -3  399.17   17.65
   5   3  -3  365.77   18.31
   5   3  -3  351.17   18.60
  -5   3   3  355.45   22.38
   5   3  -3  400.50   17.44
   5   3  -3  381.99   17.96
   3  -3  -3  471.01   25.13
  -3  -3   3  549.19   25.29
  -3  -3   3  551.45   24.87
  -3  -3   3  512.21   25.06
   3  -3  -3  525.25   25.58
   3  -3  -3  489.77   24.90
  -3  -3   3  553.83   24.47
  -3  -3   3  549.37   24.32
  -3  -3   3  598.35   28.80
   3  -3  -3  553.29   25.33
   3   3  -3  517.83   25.09
  -3   3   3  490.13   25.02
   3   3  -3  497.27   25.22
  -3   3   3  555.85   26.12
   3   3  -3  494.98   25.14
   3   3  -3  559.05   24.21
  -3   3   3  501.28   30.21
   3   3  -3  548.74   24.68
  -3   3   3  518.98   25.20
  -3   3   3  492.33   25.46
  -3   3   3  542.69   24.90
   3   3  -3  558.35   25.07
   1  -3  -3  411.72   21.75
   1  -3  -3  432.87   22.10
  -1  -3   3  502.83   25.06
  -1  -3   3  449.52   21.59
   1  -3  -3  455.98   21.91
  -1  -3   3  463.75   21.50
   1  -3  -3  441.41   21.48
   1   3  -3  471.77   21.60
  -1   3   3  399.41   27.03
   1   3  -3  411.88   21.66
   1   3  -3  490.69   20.56
  -1   3   3  438.08   22.59
   1   3  -3  482.68   21.92
   1   3  -3  468.72   21.18
  -1   3   3  474.78   21.35
  -1   3   3  439.56   22.10
   1   3  -3  449.22   21.48
  -1   3   3  456.84   21.61
  -1   3   3  478.46   21.86
   1   3  -3  418.57   21.44
   1   3  -3  468.50   20.59
   1  -3   3  417.89   18.98
   1  -3   3  440.47   22.84
  -1  -3  -3  384.49   19.87
  -1  -3  -3  348.40   19.80
   1  -3   3  424.47   18.98
  -1  -3  -3  397.54   19.25
  -1  -3  -3  370.29   19.54
   1  -3   3  396.82   19.25
  -1  -3  -3  406.41   19.68
   1   3   3  421.79   18.96
   1   3   3  386.42   20.39
  -1   3  -3  424.52   19.70
  -1   3  -3  452.37   18.46
  -1   3  -3  404.86   19.01
   1   3   3  400.03   19.20
   1   3   3  395.34   19.46
   1   3   3  375.31   19.98
  -1   3  -3  379.01   19.41
  -1   3  -3  401.86   19.03
  -3  -3  -3  307.80   16.43
  -3  -3  -3  312.46   15.85
   3  -3   3  326.89   15.72
   3  -3   3  338.92   15.41
  -3  -3  -3  289.62   16.49
   3  -3   3  321.51   19.28
   3  -3   3  297.42   16.21
  -3  -3  -3  304.24   16.15
  -3  -3  -3  335.43   16.26
   3  -3   3  341.57   15.55
  -3   3  -3  331.34   15.49
   3   3   3  333.11   15.66
   3   3   3  297.42   16.93
  -3   3  -3  327.32   15.52
  -3   3  -3  337.17   15.18
  -3   3  -3  317.30   16.00
  -3   3  -3  331.17   15.41
   3   3   3  327.42   16.02
   3   3   3  338.88   15.37
  -3   3  -3  345.09   16.36
  -5  -3  -3  168.50    9.72
  -5  -3  -3  168.36    9.36
  -5  -3  -3  158.63    9.86
   5  -3   3  169.23    8.80
  -5  -3  -3  162.26    9.23
  -5  -3  -3  170.87    9.55
   5  -3   3  155.81    9.42
   5  -3   3  177.94    8.79
   5  -3   3  170.68    8.69
  -5   3  -3  184.30    9.63
  -5   3  -3  178.50    8.60
   5   3   3  180.25    9.31
  -5   3  -3  174.03    8.64
   5   3   3  163.17   10.25
   5   3   3  170.69    8.45
  -5   3  -3  169.18    8.72
  -5   3  -3  173.82    8.91
   5   3   3  168.19    8.36
  -5   3  -3  166.67    9.36
   7  -3   3  176.39    8.94
  -7  -3  -3  161.32    9.59
  -7  -3  -3  166.29    9.51
   7  -3   3  179.14    8.98
  -7  -3  -3  158.22    9.86
   7  -3   3  167.47    9.73
  -7  -3  -3  167.58    9.57
  -7  -3  -3  157.04   10.24
  -7   3  -3  175.77    8.81
  -7   3  -3  168.39    8.91
  -7   3  -3  176.64    8.87
  -7   3  -3  168.53    9.19
   7   3   3  165.76    8.53
  -7   3  -3  159.01   10.23
  -7   3  -3  160.71    9.54
   7   3   3  162.43   10.39
  -9  -3  -3  115.26    8.62
   9  -3   3  127.13    7.24
   9  -3   3  127.22    8.68
  -9  -3  -3  120.99    8.39
  -9  -3  -3  116.62    8.14
  -9  -3  -3  107.93    7.90
  -9  -3  -3  121.54    8.38
  -9   3  -3  129.92    7.22
  -9   3  -3  110.59    7.97
  -9   3  -3  128.03    7.97
  -9   3  -3  121.07    7.34
  -9   3  -3  128.65    7.06
   9   3   3  122.86    8.73
 -11  -3  -3   61.42    7.19
  11  -3   3   80.93    7.68
 -11  -3  -3   71.39    6.53
 -11  -3  -3   65.04    6.15
  11  -3   3   75.29    4.96
 -11  -3  -3   72.04    7.06
 -11  -3  -3   64.58    6.68
 -11   3  -3   72.70    5.81
  11   3   3   65.59    5.37
  11   3   3   69.78    6.54
 -11   3  -3   70.57    7.13
 -11   3  -3   74.31    7.02
  11   3   3   55.61    5.50
 -11   3  -3   66.92    5.60
 -11   3  -3   73.04    5.94
 -13  -3  -3   41.13    6.48
 -13  -3  -3   47.31    6.10
  13  -3   3   46.53    6.91
  13  -3   3   54.33    4.80
  13  -3   3   48.47    5.23
 -13  -3  -3   62.85    7.27
 -13  -3  -3   45.37    6.58
 -13  -3  -3   44.35    6.05
 -13   3  -3   44.82    5.39
 -13   3  -3   53.76    7.00
 -13   3  -3   37.11    5.99
 -13   3  -3   37.48    5.48
 -13   3  -3   44.78    5.03
  13   3   3   45.48    5.53
  13   3   3   50.19    6.17
  13   3   3   47.76    5.74
  16  -4  -3   19.75    3.04
  16  -4  -3    5.33    5.56
  16  -4  -3    7.75    3.71
 -16  -4   3   17.94    4.86
  16  -4  -3   15.80    4.09
 -16  -4   3   -2.54    5.12
 -16  -4   3   18.29    3.89
 -16  -4   3   17.29    4.09
  16  -4  -3   17.90    2.53
 -16  -4   3   13.06    4.11
 -16   4   3   19.05    3.66
  16   4  -3   14.99    2.72
  16   4  -3   16.65    5.15
  16   4  -3   14.40    3.98
 -16   4   3   18.45    4.52
  16   4  -3   15.83    7.00
 -16   4   3   16.95    5.61
 -16   4   3   17.45    6.29
 -16   4   3    8.55    3.96
  16   4  -3   22.98    3.01
 -14  -4   3   32.86    4.34
  14  -4  -3   40.67    5.44
  14  -4  -3   35.74    4.55
  14  -4  -3   33.63    3.55
 -14  -4   3   34.55    4.57
 -14  -4   3   47.68    5.27
 -14  -4   3   33.74    4.34
  14  -4  -3   38.41    4.00
 -14  -4   3   22.36    4.09
  14   4  -3   32.50    4.34
  14   4  -3   30.56    5.37
 -14   4   3   34.24    6.50
 -14   4   3   34.96    4.43
  14   4  -3   35.91    3.56
 -14   4   3   32.80    4.55
 -14   4   3   34.75    5.30
 -14   4   3   49.22    5.52
  12  -4  -3   62.06    4.52
  12  -4  -3   58.95    5.64
 -12  -4   3   50.49    4.54
 -12  -4   3   46.06    5.85
 -12  -4   3   54.04    5.46
  12  -4  -3   64.34    5.73
  12  -4  -3   52.26    5.10
 -12  -4   3   54.39    5.07
 -12  -4   3   56.49    4.86
  12   4  -3   58.18    4.17
  12   4  -3   51.91    6.29
  12   4  -3   56.82    7.09
 -12   4   3   54.54    7.06
 -12   4   3   64.75    6.88
 -12   4   3   53.26    5.29
 -12   4   3   57.13    5.52
  12   4  -3   59.68    4.82
 -12   4   3   57.39    5.50
 -10  -4   3   68.50    5.76
  10  -4  -3   71.43    5.67
  10  -4  -3   60.27    5.11
 -10  -4   3   67.27    5.85
 -10  -4   3   65.29    4.88
 -10  -4   3   66.33    4.85
 -10  -4   3   70.93    5.25
  10  -4  -3   58.69    5.93
 -10   4   3   72.47    4.93
 -10   4   3   59.36    6.21
  10   4  -3   64.12    6.47
  10   4  -3   63.30    4.89
 -10   4   3   69.07    5.15
  10   4  -3   63.92    5.05
  10   4  -3   69.47    4.38
 -10   4   3   63.66    5.39
  10   4  -3   56.12    6.03
 -10   4   3   64.52    7.32
   8  -4  -3   94.97    6.75
  -8  -4   3   93.62    6.48
  -8  -4   3   92.35    5.65
  -8  -4   3   97.49    6.15
   8  -4  -3  102.75    6.79
  -8  -4   3   92.90    5.80
   8  -4  -3   87.26    5.98
   8  -4  -3  102.50    6.03
  -8  -4   3  102.95    6.86
  -8   4   3   90.01    6.95
   8   4  -3   80.46    6.78
  -8   4   3   98.87    5.95
  -8   4   3   87.83    6.18
   8   4  -3   83.69    7.09
  -8   4   3   90.33    8.92
   8   4  -3   92.34    5.29
  -8   4   3   93.54    6.15
   8   4  -3  103.09    5.68
   8   4  -3   95.90    6.12
  -6  -4   3   93.32    5.35
   6  -4  -3   91.77    5.81
  -6  -4   3   92.85    6.04
  -6  -4   3   95.77    6.34
  -6  -4   3   91.20    5.74
   6  -4  -3   99.18    5.85
   6  -4  -3  100.79    6.48
  -6  -4   3   98.14    5.74
   6  -4  -3   87.07    6.31
  -6   4   3   85.46    5.97
   6   4  -3   95.12    6.83
  -6   4   3  100.34    6.15
  -6   4   3   80.28    6.69
  -6   4   3   97.54    5.71
   6   4  -3   83.26    6.40
  -6   4   3   84.22    8.82
   6   4  -3   97.01    4.97
   6   4  -3   93.07    5.37
   6   4  -3   91.00    5.83
  -4  -4   3  161.46    8.72
   4  -4  -3  138.24    8.11
  -4  -4   3  162.07   11.18
  -4  -4   3  153.26    8.28
   4  -4  -3  155.24    8.44
  -4  -4   3  157.57    7.85
   4  -4  -3  148.95    8.85
  -4  -4   3  149.31    7.55
   4  -4  -3  142.90    8.58
  -4  -4   3  138.47    8.03
  -4   4   3  142.36    8.43
   4   4  -3  150.18    7.14
  -4   4   3  143.56    9.07
  -4   4   3  132.76   11.96
  -4   4   3  158.63    8.54
   4   4  -3  140.07    8.68
   4   4  -3  146.77    7.77
  -4   4   3  156.41    8.06
   4   4  -3  138.96    8.79
   4   4  -3  150.78    8.29
   2  -4  -3  110.22    5.25
   2  -4  -3  105.10    6.83
   2  -4  -3  118.27    6.78
  -2  -4   3  101.89    6.17
   2  -4  -3  119.26    7.21
  -2  -4   3  117.63    8.90
  -2  -4   3  113.59    5.65
  -2  -4   3  112.49    5.59
   2  -4  -3  112.74    6.46
  -2  -4   3  116.56    6.61
  -2  -4   3  110.12    6.39
   2   4  -3  106.12    7.14
   2   4  -3  111.68    6.42
   2   4  -3  101.65    6.68
  -2   4   3  100.45    6.53
  -2   4   3  106.41    7.14
  -2   4   3   93.86   10.48
   2   4  -3  110.62    6.01
  -2   4   3  108.58    7.36
  -2   4   3  115.19    6.70
  -2   4   3  114.26    6.14
   0  -4  -3  101.28    6.22
   0  -4  -3   90.11    6.34
   0  -4   3  103.57    5.79
   0  -4   3   92.61    4.67
   0  -4  -3  105.05    6.70
   0  -4  -3   91.78    5.80
   0  -4   3   98.77    4.72
   0  -4   3   92.45    5.69
   0  -4   3  106.54    8.13
   0  -4  -3   88.11    6.17
   0  -4   3  100.57    5.59
   0   4  -3   99.53    5.95
   0   4   3  101.63    7.00
   0   4  -3   90.07    5.91
   0   4   3  102.53    5.46
   0   4   3   96.02    6.64
   0   4  -3  104.84    6.10
   0   4   3   90.93    6.00
   0   4  -3   86.91    6.35
   0   4   3  101.69    6.06
   2  -4   3   78.88    4.66
  -2  -4  -3   75.68    5.27
  -2  -4  -3   78.12    5.66
  -2  -4  -3   82.80    5.69
   2  -4   3   80.26    7.21
  -2  -4  -3   70.53    5.06
   2  -4   3   75.55    4.65
   2  -4   3   70.28    4.72
  -2  -4  -3   70.20    5.68
  -2   4  -3   69.23    4.81
   2   4   3   78.45    5.04
   2   4   3   67.17    5.67
  -2   4  -3   71.36    5.67
   2   4   3   78.58    4.46
   2   4   3   82.15    6.39
  -2   4  -3   86.46    5.29
  -2   4  -3   74.14    4.94
   2   4   3   71.02    5.12
  -2   4  -3   77.45    4.50
  -4  -4  -3   81.77    5.65
  -4  -4  -3   79.61    6.09
  -4  -4  -3   75.36    5.57
   4  -4   3   78.27    5.64
   4  -4   3   82.30    4.91
  -4  -4  -3   74.08    6.19
  -4  -4  -3   82.79    6.16
   4  -4   3   84.71    5.04
   4  -4   3   83.89    5.09
  -4   4  -3   86.33    4.90
   4   4   3   86.06    5.57
  -4   4  -3   82.03    5.33
   4   4   3   88.36    5.55
  -4   4  -3   80.89    6.09
  -4   4  -3   88.03    5.77
   4   4   3   78.85    6.17
   4   4   3   84.99    4.78
  -4   4  -3   76.25    5.27
  -6  -4  -3   62.78    5.77
   6  -4   3   52.85    3.98
  -6  -4  -3   55.89    4.66
   6  -4   3   58.40    3.56
  -6  -4  -3   48.80    4.96
   6  -4   3   52.15    5.95
  -6  -4  -3   57.33    5.18
  -6  -4  -3   52.92    5.54
   6  -4   3   57.07    3.94
   6   4   3   53.05    4.52
  -6   4  -3   54.20    4.60
  -6   4  -3   55.15    4.38
   6   4   3   52.55    5.10
   6   4   3   59.73    3.66
  -6   4  -3   55.02    3.77
  -6   4  -3   45.33    5.35
  -8  -4  -3   41.56    5.56
  -8  -4  -3   35.66    4.86
  -8  -4  -3   42.48    5.26
   8  -4   3   44.71    5.74
   8  -4   3   45.49    3.41
  -8  -4  -3   39.92    4.27
  -8  -4  -3   46.51    5.69
  -8   4  -3   37.00    4.81
  -8   4  -3   39.04    4.27
   8   4   3   38.63    4.33
  -8   4  -3   46.60    3.66
   8   4   3   40.14    4.70
  -8   4  -3   38.67    4.94
   8   4   3   43.77    3.13
  10  -4   3   27.85    5.14
 -10  -4  -3   24.77    4.80
 -10  -4  -3   24.02    4.86
  10  -4   3   34.76    3.48
 -10  -4  -3   24.53    4.26
  10  -4   3   22.16    2.82
 -10  -4  -3   29.58    4.23
 -10  -4  -3   26.98    4.79
 -10   4  -3   27.26    4.37
  10   4   3   29.24    4.39
 -10   4  -3   24.64    3.72
 -10   4  -3   31.66    3.29
  10   4   3   16.75    3.22
 -10   4  -3   23.90    4.65
 -12  -4  -3   26.09    5.54
 -12  -4  -3   27.60    5.67
 -12  -4  -3   28.07    5.52
 -12  -4  -3   30.38    4.90
  12  -4   3   34.05    4.05
  12  -4   3   33.54    6.14
 -12  -4  -3   29.03    5.42
 -12   4  -3   29.66    5.68
  12   4   3   26.86    4.04
 -12   4  -3   22.14    4.46
 -12   4  -3   26.57    5.61
 -12   4  -3   26.63    3.78
  12   4   3   30.66    4.09
  12   4   3   25.90    4.66
 -15  -5   3  109.81    9.11
 -15  -5   3  111.99    8.57
 -15  -5   3  140.62    9.68
 -15  -5   3  130.70   11.04
  15  -5  -3  138.87    8.55
 -15  -5   3  121.83    8.81
  15  -5  -3  115.23    9.71
  15  -5  -3  134.12    8.20
  15  -5  -3  117.74    9.22
 -15   5   3  123.55    8.91
  15   5  -3  125.09    8.15
  15   5  -3  107.42   10.61
 -15   5   3  100.19    9.47
 -15   5   3  135.27    9.77
  15   5  -3  125.64    8.01
 -15   5   3   95.68   11.63
  15   5  -3  126.95   12.84
 -13  -5   3  115.46    9.27
  13  -5  -3   91.56    6.62
  13  -5  -3   97.76    7.88
 -13  -5   3   96.41    7.21
  13  -5  -3  101.91    9.43
 -13  -5   3   99.52    7.67
  13  -5  -3  106.96    9.63
 -13  -5   3  112.03    7.81
 -13  -5   3   97.72    9.33
  13  -5  -3  116.96    7.30
  13  -5  -3  105.55    7.89
 -13   5   3  104.90    8.34
  13   5  -3  105.81    7.81
  13   5  -3  111.74    6.80
 -13   5   3  102.13    9.99
  13   5  -3   92.98    8.99
 -13   5   3  113.84    7.59
  13   5  -3   95.10   10.71
 -11  -5   3  123.30   10.28
  11  -5  -3  139.53    9.25
  11  -5  -3  125.91    9.54
 -11  -5   3  127.61    7.62
  11  -5  -3  125.07    8.40
 -11  -5   3  141.82    9.62
 -11  -5   3  134.92    8.51
  11  -5  -3  116.73    8.29
 -11   5   3  112.89    8.60
 -11   5   3  121.37    9.76
  11   5  -3  131.43    7.73
  11   5  -3  137.36    8.55
  11   5  -3  134.39    7.44
  11   5  -3  116.79    9.52
 -11   5   3  141.74    8.87
 -11   5   3  121.19   10.69
   9  -5  -3  149.07    9.56
  -9  -5   3  130.21    8.33
  -9  -5   3  139.92    7.67
  -9  -5   3  135.48    8.19
   9  -5  -3  133.42    8.16
  -9  -5   3  145.99    8.79
   9  -5  -3  154.10    9.52
   9   5  -3  144.86    9.83
  -9   5   3  132.04    9.02
   9   5  -3  141.17    7.66
  -9   5   3  126.56    9.86
  -9   5   3  151.16    8.48
   9   5  -3  131.49   10.00
   9   5  -3  149.16    8.10
   9   5  -3  145.45    8.77
  -9   5   3  151.35    9.06
  -9   5   3  130.95   11.39
   7  -5  -3  173.64   10.47
   7  -5  -3  166.45   10.30
   7  -5  -3  158.75    8.87
   7  -5  -3  149.97    9.41
   7  -5  -3  178.80   10.45
  -7  -5   3  164.79    9.48
  -7  -5   3  180.92    9.56
  -7  -5   3  170.80   10.33
  -7  -5   3  174.20    9.11
   7   5  -3  169.34    8.58
  -7   5   3  174.19    9.85
   7   5  -3  150.92   10.47
  -7   5   3  152.95    9.82
   7   5  -3  166.88    9.74
   7   5  -3  176.59    9.15
  -7   5   3  151.59   12.99
   7   5  -3  160.33   10.91
  -7   5   3  171.67   10.91
  -7   5   3  190.70    9.61
  -5  -5   3  126.81   10.48
  -5  -5   3  119.65    6.80
  -5  -5   3  133.50    8.13
  -5  -5   3  119.84    7.73
   5  -5  -3  120.04    6.54
   5  -5  -3  123.41    8.17
   5  -5  -3  130.59    8.40
   5  -5  -3  113.74    7.35
  -5  -5   3  131.12    7.15
  -5  -5   3  120.04    7.34
   5  -5  -3  126.59    7.53
  -5   5   3  126.93    7.20
   5   5  -3  124.88    7.61
  -5   5   3  118.05    8.77
  -5   5   3  132.71    7.86
   5   5  -3  120.51    6.20
   5   5  -3  135.86    7.09
  -5   5   3  114.71   11.32
  -5   5   3  118.49    7.81
   5   5  -3  116.01    8.67
   5   5  -3  107.35    8.25
   3  -5  -3  159.42    7.90
   3  -5  -3  155.88    9.81
   3  -5  -3  183.67    9.63
  -3  -5   3  163.48    8.58
  -3  -5   3  177.21    9.65
  -3  -5   3  152.82    9.06
   3  -5  -3  161.42    9.21
  -3  -5   3  164.21   11.88
   3  -5  -3  167.64   10.17
  -3  -5   3  176.87    9.57
  -3  -5   3  164.04    8.44
   3   5  -3  143.78   10.04
  -3   5   3  168.90    9.58
  -3   5   3  151.72    9.54
   3   5  -3  164.91    9.33
   3   5  -3  147.34    9.66
   3   5  -3  177.73    9.17
  -3   5   3  155.32    9.86
  -3   5   3  175.86    9.00
   3   5  -3  169.07    8.82
  -3   5   3  173.66   10.58
  -1  -5   3  164.10    8.16
   1  -5  -3  160.08    9.11
  -1  -5   3  166.28    9.19
   1  -5  -3  173.37    9.63
  -1  -5   3  158.94    8.11
  -1  -5   3  155.91    8.94
   1  -5  -3  156.73    9.76
  -1  -5   3  176.38   11.76
   1  -5  -3  158.10    9.96
  -1   5   3  168.96    9.49
  -1   5   3  158.43    9.96
   1   5  -3  147.22    9.39
   1   5  -3  148.26   10.00
   1   5  -3  175.05    9.27
   1   5  -3  155.96    8.99
  -1   5   3  167.68   10.58
  -1   5   3  156.90    9.44
  -1   5   3  171.73    8.79
   1  -5   3  188.99    9.77
  -1  -5  -3  168.55    9.87
  -1  -5  -3  177.19   10.75
  -1  -5  -3  166.38   10.45
   1  -5   3  167.11    9.47
  -1  -5  -3  184.46   10.41
   1  -5   3  197.00   12.31
  -1  -5  -3  171.65   10.35
   1   5   3  175.30   10.17
  -1   5  -3  168.21   10.79
   1   5   3  158.64   10.48
   1   5   3  176.41   11.21
  -1   5  -3  182.77    9.40
  -1   5  -3  163.75   10.02
   1   5   3  187.62    9.33
   1   5   3  194.15   10.21
  -1   5  -3  192.39   10.01
  -1   5  -3  142.93   10.28
  -3  -5  -3  202.66   10.88
   3  -5   3  178.65    9.84
  -3  -5  -3  172.43   10.98
  -3  -5  -3  175.57   10.40
   3  -5   3  164.28   10.61
  -3  -5  -3  189.06   11.13
  -3  -5  -3  208.30   11.52
   3   5   3  187.02    9.68
  -3   5  -3  182.30   10.40
  -3   5  -3  175.99   11.24
   3   5   3  174.62   11.16
   3   5   3  192.34   10.53
  -3   5  -3  201.70    9.94
  -3   5  -3  186.91   10.30
   5  -5   3  140.44    7.99
  -5  -5  -3  135.79    9.38
  -5  -5  -3  133.93    8.71
  -5  -5  -3  141.64    9.04
   5  -5   3  142.11    9.19
  -5  -5  -3  133.04    9.31
   5  -5   3  137.95    7.91
  -5  -5  -3  138.78    9.54
   5   5   3  139.24    8.70
   5   5   3  147.47    7.71
  -5   5  -3  148.32    7.84
  -5   5  -3  132.55    9.28
  -5   5  -3  141.73    8.55
  -5   5  -3  135.54    8.53
   5   5   3  132.92    9.31
  -5   5  -3  137.03    8.41
   5   5   3  147.20    8.58
  -7  -5  -3  153.88    9.53
  -7  -5  -3  147.45   10.03
  -7  -5  -3  155.86   10.26
  -7  -5  -3  134.77   10.01
   7  -5   3  136.79    9.69
  -7  -5  -3  140.10    9.38
   7  -5   3  136.81    8.15
   7   5   3  159.03    9.33
   7   5   3  154.08    9.20
   7   5   3  139.69    9.70
  -7   5  -3  155.39    9.33
  -7   5  -3  157.47    8.44
  -7   5  -3  139.21    9.11
  -7   5  -3  134.24   10.15
   9  -5   3  107.65    9.26
  -9  -5  -3  121.25    9.35
  -9  -5  -3  111.10    9.46
  -9  -5  -3  113.91    9.31
  -9  -5  -3  127.92    8.47
  -9  -5  -3  114.73    8.80
   9   5   3  115.25    8.87
  -9   5  -3  100.15    9.54
  -9   5  -3  123.55    7.25
  -9   5  -3  115.50    8.81
   9   5   3  121.53    8.38
 -11  -5  -3   77.18    8.42
 -11  -5  -3   79.10    7.21
  11  -5   3   69.40    5.94
 -11  -5  -3   68.04    8.93
  11  -5   3   80.61    9.18
 -11  -5  -3   88.79    9.11
 -11  -5  -3   64.17    7.97
 -11   5  -3   81.75    6.07
 -11   5  -3   54.72    7.20
  11   5   3   87.47    7.75
  11   5   3   89.51    6.99
 -11   5  -3   61.19    7.78
 -11   5  -3   90.97    8.89
  14  -6  -3   34.64    5.59
  14  -6  -3   25.22    5.49
 -14  -6   3   38.09    6.42
  14  -6  -3   32.13    5.52
 -14  -6   3   32.68    4.73
 -14  -6   3   31.83    5.24
 -14  -6   3   35.16    5.16
 -14  -6   3   42.19    5.22
  14  -6  -3   33.91    4.33
  14  -6  -3   33.14    4.28
 -14   6   3   37.49    5.78
 -14   6   3   31.59    6.69
  14   6  -3   32.48    4.33
 -14   6   3   24.64    5.79
  14   6  -3   42.15    4.84
  14   6  -3   39.80    8.63
  14   6  -3   27.81    7.03
 -14   6   3   34.61    4.82
 -12  -6   3   41.68    5.41
  12  -6  -3   50.06    6.57
  12  -6  -3   55.96    4.62
 -12  -6   3   46.60    6.64
 -12  -6   3   59.70    5.92
 -12  -6   3   50.04    4.90
  12  -6  -3   42.32    4.91
  12  -6  -3   47.97    7.08
  12  -6  -3   40.22    5.27
 -12  -6   3   47.41    5.79
  12  -6  -3   43.64    6.03
  12   6  -3   42.29    5.38
  12   6  -3   47.18    8.24
 -12   6   3   34.45    5.48
 -12   6   3   36.25    7.47
 -12   6   3   50.15    5.19
 -12   6   3   48.09    6.40
  12   6  -3   39.24    6.65
  12   6  -3   61.50    4.81
  10  -6  -3   41.29    5.25
 -10  -6   3   52.38    5.77
  10  -6  -3   48.88    6.21
 -10  -6   3   42.38    5.83
  10  -6  -3   48.45    4.55
 -10  -6   3   37.32    4.66
  10  -6  -3   49.52    5.43
  10  -6  -3   44.25    5.18
 -10  -6   3   44.26    4.95
  10   6  -3   41.13    3.59
 -10   6   3   46.79    5.93
  10   6  -3   44.63    6.97
  10   6  -3   49.38    4.19
 -10   6   3   40.92    6.13
 -10   6   3   47.78    4.68
 -10   6   3   33.71    6.46
  10   6  -3   50.10    5.38
  10   6  -3   41.64    6.28
  -8  -6   3   48.20    5.13
  -8  -6   3   60.76    5.84
   8  -6  -3   50.51    5.32
  -8  -6   3   52.31    4.62
   8  -6  -3   61.29    6.34
   8  -6  -3   58.39    6.88
  -8  -6   3   56.98    4.81
   8  -6  -3   53.84    4.49
   8   6  -3   56.86    3.78
   8   6  -3   60.65    7.39
   8   6  -3   47.24    6.27
   8   6  -3   54.22    5.41
  -8   6   3   47.45    5.98
  -8   6   3   53.09    6.51
   8   6  -3   59.46    4.45
  -8   6   3   53.72    5.66
  -6  -6   3   55.58    5.50
  -6  -6   3   47.50    4.18
   6  -6  -3   55.01    6.31
   6  -6  -3   49.71    4.85
   6  -6  -3   46.10    3.81
  -6  -6   3   46.44    4.32
  -6  -6   3   48.74    4.72
   6  -6  -3   51.79    5.73
   6   6  -3   49.64    4.03
   6   6  -3   50.62    4.89
  -6   6   3   53.12    4.29
   6   6  -3   49.92    6.38
   6   6  -3   47.98    3.01
  -6   6   3   50.77    6.30
  -6   6   3   52.06    5.09
  -4  -6   3   49.16    6.68
   4  -6  -3   65.36    6.60
  -4  -6   3   65.93    7.74
  -4  -6   3   72.23    4.79
   4  -6  -3   69.91    6.02
   4  -6  -3   69.81    4.05
  -4  -6   3   63.16    4.64
  -4  -6   3   75.00    5.87
   4  -6  -3   66.49    6.43
   4   6  -3   69.52    4.96
   4   6  -3   60.61    6.42
  -4   6   3   71.07    5.04
   4   6  -3   68.17    4.83
  -4   6   3   74.00    5.50
  -4   6   3   60.58    5.98
   4   6  -3   75.35    5.59
  -4   6   3   66.63    7.47
  -2  -6   3   55.20    6.40
   2  -6  -3   54.38    4.83
  -2  -6   3   50.65    3.61
  -2  -6   3   49.52    4.48
   2  -6  -3   52.12    4.75
   2  -6  -3   48.67    5.85
   2  -6  -3   45.73    5.00
   2   6  -3   39.05    8.32
   2   6  -3   43.00    5.33
  -2   6   3   36.49    5.85
  -2   6   3   47.96    3.91
  -2   6   3   50.92    4.86
  -2   6   3   49.21    4.75
   2   6  -3   44.38    4.19
  -2   6   3   46.25    5.61
   2   6  -3   53.18    4.33
   0  -6  -3   49.46    6.05
   0  -6  -3   48.28    5.13
   0  -6   3   51.30    3.64
   0  -6  -3   52.93    4.98
   0  -6  -3   47.81    5.13
   0  -6   3   45.75    5.94
   0  -6  -3   63.57    5.94
   0  -6   3   52.65    4.45
   0  -6   3   51.69    3.27
   0   6   3   49.08    3.84
   0   6  -3   33.33    5.63
   0   6   3   51.40    5.47
   0   6  -3   43.86    4.57
   0   6  -3   47.74    4.40
   0   6  -3   56.71    4.11
   0   6   3   49.48    4.90
   0   6  -3   44.86    5.44
   0   6   3   49.91    4.93
   2  -6   3   36.87    3.80
  -2  -6  -3   30.53    4.81
  -2  -6  -3   44.99    5.59
  -2  -6  -3   42.98    4.72
  -2   6  -3   41.94    5.77
  -2   6  -3   45.89    4.13
  -2   6  -3   43.47    3.80
   2   6   3   40.86    5.44
  -2   6  -3   49.90    4.07
   2   6   3   39.70    4.35
   2   6   3   43.94    3.64
   2   6   3   37.88    4.50
  -2   6  -3   33.80    4.75
  -4  -6  -3   56.30    6.22
   4  -6   3   41.32    4.27
  -4  -6  -3   43.66    5.37
  -4  -6  -3   54.59    5.29
  -4  -6  -3   56.21    5.88
  -4  -6  -3   50.53    6.38
   4   6   3   50.55    3.97
  -4   6  -3   40.88    5.70
  -4   6  -3   51.42    4.07
   4   6   3   44.01    4.73
   4   6   3   44.78    4.95
   4   6   3   46.90    5.86
  -4   6  -3   38.06    5.73
  -6  -6  -3   38.30    4.99
  -6  -6  -3   37.14    5.80
  -6  -6  -3   39.98    5.11
  -6  -6  -3   34.80    5.32
  -6  -6  -3   44.33    5.63
   6  -6   3   28.87    3.85
   6  -6   3   36.23    4.85
   6  -6   3   38.23    3.90
  -6   6  -3   27.84    5.78
  -6   6  -3   30.44    5.98
   6   6   3   33.52    4.92
  -6   6  -3   49.21    4.12
   6   6   3   40.05    3.81
  -6   6  -3   35.58    4.86
  -6   6  -3   44.23    4.79
   6   6   3   42.54    5.00
   6   6   3   40.11    5.02
  -8  -6  -3   29.89    5.91
   8  -6   3   34.69    4.31
  -8  -6  -3   45.23    5.71
   8  -6   3   19.89    5.22
  -8  -6  -3   27.57    5.32
  -8  -6  -3   31.49    5.28
  -8  -6  -3   29.86    5.67
  -8   6  -3   25.57    4.77
   8   6   3   28.95    4.48
   8   6   3   38.95    3.97
  -8   6  -3   35.32    3.96
   8   6   3   31.72    4.62
  -8   6  -3   31.53    6.32
  -8   6  -3   31.35    5.13
 -10  -6  -3   30.18    6.24
 -10  -6  -3   32.70    5.03
  10  -6   3   22.28    5.19
 -10  -6  -3   26.53    5.59
 -10  -6  -3   23.35    6.30
 -10  -6  -3   25.06    5.87
 -10   6  -3   16.93    6.68
  10   6   3   21.37    4.73
 -10   6  -3   20.07    3.53
 -10   6  -3   21.87    5.03
  10   6   3   22.05    4.26
 -10   6  -3   21.00    5.73
 -13  -7   3   56.65    7.51
 -13  -7   3   64.67    7.78
  13  -7  -3   66.80    6.47
  13  -7  -3   69.41    5.91
  13  -7  -3   48.59    6.71
  13  -7  -3   78.08    8.97
 -13  -7   3   64.25    8.30
  13  -7  -3   55.31    7.03
 -13  -7   3   66.52    8.12
  13   7  -3   61.49    8.99
 -13   7   3   60.14    7.24
 -13   7   3   68.02    6.84
  13   7  -3   62.81    5.35
  13   7  -3   58.73    5.92
 -13   7   3   54.00    9.71
  13   7  -3   57.75   11.22
 -13   7   3   49.94    7.40
  13   7  -3   71.62    8.25
 -11  -7   3  104.31    9.70
  11  -7  -3   94.24    8.04
 -11  -7   3  102.48    8.16
 -11  -7   3   91.96    7.86
  11  -7  -3   99.01    7.38
  11  -7  -3  101.66   10.93
  11  -7  -3   90.01    8.31
  11  -7  -3  100.85    9.34
 -11  -7   3   83.57    7.53
 -11   7   3   77.47    9.02
  11   7  -3   94.33    7.00
 -11   7   3   97.08    7.71
 -11   7   3   94.17   12.11
 -11   7   3   95.79    8.56
  11   7  -3   96.35    8.42
  11   7  -3   78.94   10.85
  11   7  -3   94.93   10.58
  11   7  -3   89.26    6.34
   9  -7  -3  142.62   10.60
   9  -7  -3  119.46    8.23
   9  -7  -3  124.26   11.20
   9  -7  -3  132.62    9.11
  -9  -7   3  132.56    8.65
  -9  -7   3  141.03   10.45
  -9  -7   3  123.40    8.90
   9  -7  -3  139.55    8.80
   9   7  -3  115.35   10.95
  -9   7   3  116.94   10.02
   9   7  -3  127.02   13.13
   9   7  -3  132.32    8.27
   9   7  -3  131.38    9.48
  -9   7   3  133.87    8.78
  -9   7   3   94.16   11.71
  -9   7   3  136.73   10.02
   7  -7  -3  169.21   10.66
   7  -7  -3  195.86   12.23
  -7  -7   3  145.60   10.77
  -7  -7   3  170.75   10.30
  -7  -7   3  179.41   10.47
   7  -7  -3  172.90   10.34
  -7  -7   3  178.36   11.68
   7  -7  -3  173.82    9.42
  -7   7   3  152.62   11.35
  -7   7   3  178.43   10.30
  -7   7   3  179.31   11.36
   7   7  -3  162.48   13.36
   7   7  -3  177.55   11.13
   7   7  -3  144.61   12.05
   7   7  -3  169.73    9.94
   5  -7  -3  161.43   10.31
  -5  -7   3  179.54   11.37
  -5  -7   3  193.29   14.84
  -5  -7   3  182.14   10.08
  -5  -7   3  155.16   10.28
  -5  -7   3  169.96    9.66
   5  -7  -3  175.40   11.73
   5  -7  -3  166.97    8.88
   5   7  -3  186.37   10.01
   5   7  -3  157.43   11.84
   5   7  -3  171.92   10.67
   5   7  -3  145.73   12.60
  -5   7   3  175.92   11.17
  -5   7   3  151.05   11.14
   3  -7  -3  167.93   13.81
  -3  -7   3  179.74   11.21
  -3  -7   3  194.51   10.52
   3  -7  -3  207.55   13.03
  -3  -7   3  209.51   12.05
  -3  -7   3  212.01   15.03
   3   7  -3  181.81   12.59
   3   7  -3  203.03   10.91
   3   7  -3  174.85   13.72
  -3   7   3  214.96   12.11
   3   7  -3  182.48   11.45
  -3   7   3  180.28   12.07
  -3   7   3  179.64   11.80
   3   7  -3  210.26   11.20
  -1  -7   3  166.76   10.12
   1  -7  -3  159.99   10.64
   1  -7  -3  190.53   11.99
   1  -7  -3  177.12   11.77
  -1  -7   3  166.46    9.12
   1  -7  -3  201.63   11.17
   1  -7  -3  164.47   10.69
  -1   7   3  190.81   11.08
   1   7  -3  179.64   10.55
  -1   7   3  154.85   10.82
   1   7  -3  156.75   12.59
   1   7  -3  144.02   11.48
  -1   7   3  159.07   10.27
   1   7  -3  176.18    9.80
  -1   7   3  165.14   11.05
   1   7  -3  173.42   12.09
  -1  -7  -3  134.43    9.92
  -1  -7  -3  153.26   10.03
  -1  -7  -3  176.51   11.28
  -1  -7  -3  152.11   11.01
  -1  -7  -3  144.66    9.89
   1  -7   3  142.02    9.16
  -1   7  -3  132.12   10.49
  -1   7  -3  154.01    9.56
  -1   7  -3  162.70    9.12
   1   7   3  145.62   10.18
   1   7   3  140.65   10.37
   1   7   3  165.66   10.10
  -1   7  -3  151.31   11.85
   1   7   3  158.93    8.94
  -3  -7  -3  113.02    9.17
  -3  -7  -3  126.06    9.55
  -3  -7  -3  127.53   10.17
  -3  -7  -3  140.91    9.49
   3  -7   3  117.09    8.20
  -3  -7  -3  137.85   10.50
  -3   7  -3  127.30   11.15
  -3   7  -3  136.90    8.73
  -3   7  -3  145.32    8.40
   3   7   3  118.27    9.08
  -3   7  -3  121.56    9.75
   3   7   3  130.49    8.53
   3   7   3  112.44    9.42
  -3   7  -3  127.27    8.50
   3   7   3  137.26    9.02
  -5  -7  -3   76.21    7.83
  -5  -7  -3   76.99    8.08
  -5  -7  -3   92.64    9.27
   5  -7   3   95.33    6.55
  -5  -7  -3   89.64    8.91
   5  -7   3   82.89    6.59
  -5  -7  -3   95.62    7.90
  -5   7  -3   87.66    6.71
  -5   7  -3   97.89    6.59
  -5   7  -3   86.49    8.82
   5   7   3   83.08    7.34
  -5   7  -3   76.36   10.30
   5   7   3   80.04    7.47
   5   7   3   83.75    8.50
  -5   7  -3   81.92    7.21
  -7  -7  -3   82.91    7.89
  -7  -7  -3   86.47    9.22
  -7  -7  -3   74.41    8.94
   7  -7   3   73.18    6.36
  -7  -7  -3   67.10    8.61
  -7  -7  -3   69.09    8.37
   7   7   3   70.04    6.80
   7   7   3   78.16    7.48
  -7   7  -3   71.73    6.87
  -7   7  -3   77.31    6.21
   7   7   3   76.32    8.76
  -7   7  -3   74.55    9.05
  -7   7  -3   81.38   10.29
 -10  -8   3   30.49    5.40
  10  -8  -3   23.59    5.25
  10  -8  -3    9.20    7.45
 -10  -8   3   24.76    6.69
 -10  -8   3   25.50    5.28
 -10  -8   3   28.31    5.49
  10  -8  -3   20.80    6.39
  10  -8  -3   25.35    4.33
  10   8  -3   26.45    4.20
  10   8  -3   30.53    9.74
  10   8  -3   26.42    7.61
 -10   8   3   35.23    6.35
  10   8  -3   27.03    5.43
 -10   8   3   22.35    6.29
 -10   8   3   -0.52    8.23
 -10   8   3   28.28    4.52
  -8  -8   3   36.24    6.34
   8  -8  -3   36.06    4.44
   8  -8  -3   32.62    5.40
   8  -8  -3   29.12    7.54
  -8  -8   3   50.62    6.42
  -8  -8   3   43.11    5.79
   8  -8  -3   33.81    4.46
  -8  -8   3   36.82    5.12
   8  -8  -3   43.05    6.75
  -8   8   3   28.56    6.50
   8   8  -3   38.60    9.76
  -8   8   3   37.53    4.78
   8   8  -3   23.05    6.78
   8   8  -3   33.69    4.39
  -8   8   3   36.96    5.75
   8   8  -3   33.17    5.41
   6  -8  -3   40.14    5.16
  -6  -8   3   32.61    4.75
  -6  -8   3   40.40    5.60
   6  -8  -3   38.15    7.26
  -6  -8   3   46.70    6.25
   6  -8  -3   34.07    5.25
   6  -8  -3   49.98    6.49
  -6   8   3   34.14    6.27
   6   8  -3   37.17    7.23
   6   8  -3   34.37    8.65
   6   8  -3   37.20    4.52
  -6   8   3   42.47    4.99
  -6   8   3   63.36    7.14
   6   8  -3   41.42    5.37
   4  -8  -3   52.08    5.87
  -4  -8   3   56.24    5.41
   4  -8  -3   50.97    7.71
  -4  -8   3   53.70    6.42
  -4  -8   3   61.97    7.22
   4  -8  -3   49.47    7.30
  -4   8   3   50.47    5.67
   4   8  -3   48.31    6.33
  -4   8   3   66.11    5.67
   4   8  -3   61.04    5.34
  -4   8   3   63.63    7.01
   4   8  -3   42.38    8.25
  -4   8   3   49.90    6.92
   4   8  -3   52.51    7.57
   2  -8  -3   57.43    7.91
  -2  -8   3   52.19    6.18
   2  -8  -3   47.66    5.98
   2  -8  -3   50.41    6.67
  -2  -8   3   70.15    6.97
   2  -8  -3   51.20    6.54
   2  -8  -3   57.51    7.57
  -2   8   3   46.61    5.54
   2   8  -3   49.74    8.45
   2   8  -3   45.25    7.22
   2   8  -3   59.88    5.42
  -2   8   3   55.73    5.07
   2   8  -3   57.03    6.16
   2   8  -3   57.11    5.49
  -2   8   3   50.15    6.73
  -2   8   3   47.36    6.74
   0  -8  -3   64.95    8.28
   0  -8   3   57.15    6.27
   0  -8  -3   61.59    7.19
   0  -8  -3   67.28    6.83
   0  -8  -3   46.07    6.11
   0  -8   3   66.17    7.19
   0  -8  -3   70.50    8.73
   0   8  -3   42.12    7.26
   0   8   3   64.34    8.46
   0   8  -3   52.31    8.95
   0   8   3   56.46    6.05
   0   8   3   67.94    5.18
   0   8   3   67.53    7.23
   0   8  -3   62.64    5.80
   0   8  -3   57.98    6.33
   0   8  -3   57.08    5.61
   2  -8   3   48.34    5.85
  -2  -8  -3   49.87    6.44
  -2  -8  -3   57.40    7.02
  -2  -8  -3   61.60    8.00
  -2  -8  -3   52.59    6.79
   2  -8   3   56.28    6.19
   2   8   3   56.62    5.14
   2   8   3   60.85    6.93
  -2   8  -3   58.14    5.99
  -2   8  -3   47.97    7.44
  -2   8  -3   59.76    6.52
  -2   8  -3   62.15    5.64
   2   8   3   46.84    5.72
   2   8   3   59.13    7.34
  -2   8  -3   59.59    8.80
  -4  -8  -3   60.89    8.78
  -4  -8  -3   53.18    7.48
   4  -8   3   60.19    6.19
  -4  -8  -3   58.44    8.16
  -4  -8  -3   64.01    7.52
  -4  -8  -3   61.84    7.22
   4  -8   3   43.18    6.08
  -4   8  -3   69.39    6.81
   4   8   3   56.51    5.62
  -4   8  -3   52.78    7.83
   4   8   3   56.77    6.08
  -4   8  -3   61.81    5.79
   4   8   3   56.05    7.38
  -4   8  -3   60.09    9.48
  -4   8  -3   51.07    6.39
   4   8   3   58.68    7.19
  18   0  -4   78.29    6.27
 -18   0   4   62.93    7.34
 -18   0   4   85.03   10.99
 -18   0   4   93.20    8.32
  18   0  -4   85.22    6.26
  18   0  -4   94.95    7.59
  18   0  -4   66.92    7.94
  18   0  -4   75.38    9.96
 -18   0   4   75.29    7.32
  16   0  -4  105.93    7.32
 -16   0   4   95.32    7.42
 -16   0   4  107.90   11.69
  16   0  -4  102.23    9.20
  16   0  -4   98.77    7.98
 -16   0   4  106.98    8.16
  16   0  -4  110.11    6.74
  14   0  -4  204.28   11.31
  14   0  -4  211.90   10.29
  14   0  -4  191.46   11.93
  14   0  -4  178.18   11.30
 -14   0   4  195.36   11.55
  14   0  -4  208.52   10.86
 -14   0   4  209.67   16.10
 -14   0   4  172.69   10.75
  12   0  -4  119.69    7.54
  12   0  -4  126.55    7.04
  12   0  -4  127.86    6.98
  12   0  -4  111.80    7.88
  12   0  -4  124.24    7.42
 -12   0   4  122.21   11.24
 -12   0   4  124.81    7.71
 -12   0   4  122.58    7.47
  12   0  -4  124.43    6.72
 -12   0   4  106.57    7.72
 -12   0   4  108.36    7.00
 -10   0   4  249.22   13.54
 -10   0   4  273.97   18.15
  10   0  -4  275.90   13.36
 -10   0   4  266.02   13.76
 -10   0   4  272.37   13.47
  10   0  -4  275.75   13.22
 -10   0   4  241.35   13.00
  10   0  -4  275.71   13.22
  10   0  -4  271.13   13.52
  10   0  -4  254.35   13.67
  10   0  -4  232.63   13.39
  -8   0   4  257.89   12.85
   8   0  -4  251.42   12.93
  -8   0   4  240.68   12.55
   8   0  -4  241.54   12.94
  -8   0   4  262.99   13.18
  -8   0   4  251.42   13.03
   8   0  -4  248.37   13.09
   8   0  -4  268.12   12.77
  -8   0   4  271.16   17.56
  -8   0   4  284.78   13.41
   8   0  -4  264.85   12.98
   6   0  -4  526.71   22.47
   6   0  -4  508.81   22.91
  -6   0   4  503.04   22.31
  -6   0   4  405.54   22.36
  -6   0   4  480.12   23.12
   6   0  -4  412.01   23.56
   6   0  -4  461.12   22.56
  -6   0   4  474.21   22.10
  -6   0   4  505.35   27.71
   6   0  -4  463.08   22.50
  -6   0   4  500.64   22.70
   4   0  -4  246.15   11.37
   4   0  -4  226.34   11.38
   4   0  -4  238.48   11.46
  -4   0   4  230.66   12.31
   4   0  -4  238.57   11.99
  -4   0   4  234.80   11.41
  -4   0   4  244.01   16.31
  -4   0   4  242.88   11.48
   4   0  -4  232.86   11.45
   2   0  -4  463.80   21.24
  -2   0   4  480.37   21.13
   2   0  -4  459.51   22.10
  -2   0   4  471.41   21.16
  -2   0   4  441.93   22.60
   2   0  -4  456.00   21.16
  -2   0   4  450.38   27.21
   2   0  -4  460.56   21.22
   0   0  -4  381.67   20.29
   0   0   4  413.95   26.00
   0   0   4  415.07   20.97
   0   0  -4  435.62   20.04
   0   0  -4  445.54   20.29
   0   0  -4  420.74   19.01
  -2   0  -4  297.79   13.91
   2   0   4  278.92   20.70
  -2   0  -4  317.26   13.80
  -2   0  -4  269.30   15.12
   2   0   4  303.23   15.85
  -2   0  -4  319.07   14.89
  -2   0  -4  305.59   14.73
  -2   0  -4  304.21   13.78
   4   0   4  218.45    9.68
  -4   0  -4  210.07   10.02
  -4   0  -4  194.84   11.24
   4   0   4  202.12   10.81
  -4   0  -4  214.57   10.76
  -4   0  -4  201.32   10.28
   4   0   4  219.28   12.04
  -4   0  -4  205.35   10.02
  -4   0  -4  219.13   10.69
   4   0   4  222.66    9.70
   4   0   4  173.21   16.46
   6   0   4  170.94   10.60
  -6   0  -4  165.24    9.26
  -6   0  -4  174.11    9.03
  -6   0  -4  164.96    8.95
   6   0   4  162.27    9.48
   6   0   4  184.95    8.63
   6   0   4  183.80    8.59
  -6   0  -4  173.33    8.83
  -6   0  -4  169.83   10.05
  -6   0  -4  183.49    8.90
  -8   0  -4   94.63    6.37
  -8   0  -4  106.74    6.97
   8   0   4   96.75    7.59
   8   0   4   97.12    6.84
  -8   0  -4   97.83    6.02
  -8   0  -4   93.07    7.27
  -8   0  -4  101.72    5.68
  -8   0  -4  114.85    6.13
  10   0   4   74.47    6.51
  10   0   4   82.78    5.08
 -10   0  -4   69.22    6.22
 -10   0  -4   77.24    5.81
 -10   0  -4   75.31    6.67
 -10   0  -4   82.37    5.55
 -10   0  -4   76.50    7.18
 -10   0  -4   76.89    4.54
 -12   0  -4   40.44    5.31
 -12   0  -4   39.92    5.95
  12   0   4   49.13    4.35
  12   0   4   55.93    7.05
 -12   0  -4   50.86    5.15
 -12   0  -4   44.02    5.95
 -12   0  -4   49.93    6.59
  12   0   4   46.83    5.36
  19  -1  -4   18.92    3.40
 -19  -1   4   15.95    4.90
 -19  -1   4   24.75    4.76
  19  -1  -4   32.10    5.30
 -19  -1   4   17.42    5.71
  19  -1  -4   22.30    3.34
  19  -1  -4   23.35    6.25
  19  -1  -4   25.66    5.55
  19   1  -4   26.21    3.45
 -19   1   4   22.27    5.08
  19   1  -4   26.30    5.67
 -19   1   4   30.67    4.93
  19   1  -4   22.62    7.13
  19   1  -4   23.35    3.38
 -19   1   4   24.16    5.78
 -19   1   4   22.41    7.07
 -19   1   4   -1.04    6.55
  19   1  -4   27.70    4.88
 -17  -1   4   43.90    5.36
  17  -1  -4   37.24    5.48
 -17  -1   4   47.47    8.63
  17  -1  -4   54.22    5.90
 -17  -1   4   52.86    6.53
  17  -1  -4   40.82    4.45
  17  -1  -4   52.37    7.11
 -17  -1   4   42.44    5.81
  17  -1  -4   54.45    5.01
 -17   1   4   40.90    5.20
  17   1  -4   55.33    4.66
  17   1  -4   45.16    6.90
  17   1  -4   50.33    5.87
  17   1  -4   47.98    4.70
 -17   1   4   54.15    6.38
 -17   1   4   50.57    5.63
 -17   1   4   55.15    8.50
  17   1  -4   48.14    6.28
 -15  -1   4   34.36    4.79
  15  -1  -4   42.30    4.60
  15  -1  -4   33.33    2.95
  15  -1  -4   35.56    5.09
  15  -1  -4   37.11    4.87
 -15  -1   4   37.73    7.11
 -15  -1   4   26.02    3.80
 -15  -1   4   24.03    4.21
 -15   1   4   33.65    4.42
  15   1  -4   26.77    4.49
 -15   1   4   35.25    4.14
  15   1  -4   34.67    3.43
  15   1  -4   37.08    4.26
 -15   1   4   34.07    6.47
  15   1  -4   33.50    2.99
  13  -1  -4   65.62    4.58
  13  -1  -4   61.25    5.38
 -13  -1   4   67.69    5.67
 -13  -1   4   49.05    5.78
 -13  -1   4   63.82    8.37
  13  -1  -4   63.65    4.67
  13  -1  -4   66.67    5.33
 -13  -1   4   67.71    5.13
  13  -1  -4   68.26    4.23
  13  -1  -4   60.55    6.13
 -13  -1   4   56.66    4.97
 -13   1   4   66.18    7.91
 -13   1   4   53.52    5.96
  13   1  -4   71.67    4.57
  13   1  -4   62.40    5.60
  13   1  -4   67.89    5.11
  13   1  -4   64.60    5.77
  13   1  -4   66.86    4.18
 -13   1   4   71.75    5.11
 -13   1   4   63.61    4.99
 -13   1   4   62.36    5.39
  11  -1  -4  156.87    8.18
  11  -1  -4  135.40    8.63
 -11  -1   4  134.09    7.86
 -11  -1   4  144.51    8.29
 -11  -1   4  151.62   12.53
  11  -1  -4  152.35    8.44
 -11  -1   4  146.09    8.67
  11  -1  -4  153.54    8.04
 -11  -1   4  133.49    8.55
  11  -1  -4  135.85    8.27
  11  -1  -4  149.27    7.84
  11   1  -4  147.12    7.94
  11   1  -4  144.74    8.23
  11   1  -4  149.29    7.88
 -11   1   4  136.95   11.75
 -11   1   4  143.71    8.19
  11   1  -4  147.47    7.76
 -11   1   4  131.94    8.58
 -11   1   4  129.76    7.95
 -11   1   4  150.59    8.62
  11   1  -4  131.15    8.41
  11   1  -4  135.10    8.41
  -9  -1   4   83.03    4.89
  -9  -1   4   70.70    5.17
   9  -1  -4   76.13    4.97
   9  -1  -4   80.98    4.84
  -9  -1   4   84.52    8.40
  -9  -1   4   83.63    5.12
  -9  -1   4   78.72    5.27
  -9  -1   4   78.23    4.62
   9  -1  -4   72.26    5.08
   9  -1  -4   74.48    5.34
   9  -1  -4   82.98    4.83
   9   1  -4   72.47    4.51
   9   1  -4   76.87    5.40
  -9   1   4   74.55    5.43
   9   1  -4   70.08    5.23
   9   1  -4   77.68    4.67
   9   1  -4   78.05    4.67
   9   1  -4   73.46    4.88
  -9   1   4   73.66    5.08
  -9   1   4   78.89    4.85
  -9   1   4   72.75    4.75
  -9   1   4   80.01    8.21
   7  -1  -4   90.04    5.48
  -7  -1   4   87.50    4.92
  -7  -1   4   87.02    5.72
   7  -1  -4  100.63    5.38
  -7  -1   4   97.43    5.66
  -7  -1   4   99.43    9.04
  -7  -1   4   93.53    5.22
   7  -1  -4   87.52    5.61
  -7   1   4   99.14    5.30
  -7   1   4   95.01    9.00
  -7   1   4  102.00    6.08
   7   1  -4   95.03    5.44
   7   1  -4   87.17    5.49
   7   1  -4   98.09    5.13
   7   1  -4   96.03    5.38
   7   1  -4   88.20    5.57
  -7   1   4   86.77    5.70
  -7   1   4  102.40    5.72
  -7   1   4   88.72    5.22
  -5  -1   4  122.45    6.59
   5  -1  -4  117.52    6.48
  -5  -1   4  115.43    6.01
  -5  -1   4  112.81    6.24
   5  -1  -4  123.58    6.25
  -5  -1   4  126.35   10.22
   5  -1  -4  113.75    6.20
   5  -1  -4  113.77    6.35
   5   1  -4  113.64    6.16
  -5   1   4  110.51    6.28
  -5   1   4  117.42    6.27
   5   1  -4  116.04    6.46
  -5   1   4  108.91    5.92
   5   1  -4  119.52    5.93
   5   1  -4  117.65    6.29
  -5   1   4  113.86    5.88
  -5   1   4  121.36    7.14
  -5   1   4  119.22   10.40
   5   1  -4  110.12    6.23
   3  -1  -4  143.79    7.60
   3  -1  -4  154.28    7.77
   3  -1  -4  148.28    7.45
   3  -1  -4  148.41    7.58
  -3  -1   4  150.87    8.18
  -3  -1   4  153.50    7.21
  -3  -1   4  159.58    7.40
  -3  -1   4  149.82   11.69
   3   1  -4  153.40    7.37
  -3   1   4  154.96    7.55
  -3   1   4  149.47   12.43
   3   1  -4  144.53    7.40
   3   1  -4  149.80    7.36
  -3   1   4  142.37    8.62
   3   1  -4  149.59    7.97
   3   1  -4  149.52    7.17
  -3   1   4  144.54    7.62
   1  -1  -4   51.79    2.87
   1  -1  -4   52.05    3.08
   1  -1  -4   49.44    3.14
  -1  -1   4   50.32    3.86
  -1  -1   4   51.17    6.71
   1  -1  -4   52.18    3.18
   1  -1  -4   52.04    3.31
  -1   1   4   48.81    4.12
  -1   1   4   47.02    6.87
   1   1  -4   51.54    3.44
  -1   1   4   52.38    2.87
  -1   1   4   50.30    3.03
   1   1  -4   56.08    3.57
   1  -1   4   90.26    9.48
  -1  -1  -4   90.99    4.84
  -1  -1  -4   92.05    4.92
   1  -1   4   96.83    6.02
  -1  -1  -4   82.60    5.90
  -1  -1  -4   96.83    5.11
  -1  -1  -4   92.61    4.69
  -1  -1  -4   91.48    5.18
  -1   1  -4   96.07    5.48
   1   1   4   79.48    9.77
   1   1   4   97.42    4.73
  -1   1  -4   92.97    5.28
   1   1   4   94.68    6.38
   1   1   4   97.41    4.65
  -1   1  -4   85.08    5.48
   3  -1   4   47.82    7.29
  -3  -1  -4   48.09    3.17
   3  -1   4   47.92    4.18
  -3  -1  -4   45.95    3.02
  -3  -1  -4   40.54    4.16
  -3  -1  -4   45.01    3.04
  -3  -1  -4   50.44    3.00
  -3  -1  -4   46.20    3.66
  -3   1  -4   49.03    2.44
   3   1   4   48.95    2.84
   3   1   4   47.58    4.17
  -3   1  -4   47.02    3.17
  -3   1  -4   44.72    2.55
  -3   1  -4   47.83    3.57
  -3   1  -4   49.53    3.90
  -3   1  -4   48.60    2.49
   3   1   4   48.57    8.29
  -3   1  -4   48.88    2.59
   3   1   4   50.47    2.84
  -5  -1  -4   77.55    6.04
  -5  -1  -4   80.25    4.85
   5  -1   4   87.25    4.02
  -5  -1  -4   82.02    4.79
   5  -1   4   85.40    6.20
   5  -1   4   72.46    5.27
  -5  -1  -4   81.17    5.50
  -5  -1  -4   74.11    4.80
   5  -1   4   84.57    3.99
  -5   1  -4   81.96    4.35
  -5   1  -4   89.67    5.41
   5   1   4   75.97    5.04
  -5   1  -4   81.79    4.40
  -5   1  -4   82.81    4.76
   5   1   4   86.83    4.62
  -5   1  -4   82.35    4.71
   5   1   4   77.91    4.57
  -5   1  -4   81.39    4.78
  -5   1  -4   78.43    5.43
   5   1   4   81.07    6.06
  -7  -1  -4   38.47    3.47
  -7  -1  -4   33.85    3.45
   7  -1   4   36.29    2.47
  -7  -1  -4   38.53    3.20
   7  -1   4   32.73    3.43
  -7  -1  -4   35.36    4.13
  -7  -1  -4   34.09    4.56
   7  -1   4   37.55    4.38
   7  -1   4   42.28    4.45
  -7   1  -4   40.87    2.80
   7   1   4   31.26    3.63
  -7   1  -4   38.04    3.83
  -7   1  -4   33.11    3.50
   7   1   4   35.58    2.93
  -7   1  -4   37.09    3.01
   7   1   4   34.37    4.38
  -7   1  -4   41.25    4.11
  -7   1  -4   34.56    2.76
  -9  -1  -4   42.75    5.13
  -9  -1  -4   47.66    3.33
   9  -1   4   38.39    4.72
  -9  -1  -4   40.44    4.31
   9  -1   4   39.26    3.96
  -9  -1  -4   38.71    5.34
  -9  -1  -4   43.71    3.85
  -9   1  -4   42.70    3.92
   9   1   4   36.95    4.72
   9   1   4   42.76    4.58
  -9   1  -4   45.28    5.19
  -9   1  -4   42.54    2.97
  -9   1  -4   42.37    3.53
  -9   1  -4   36.19    4.51
  -9   1  -4   38.02    4.90
 -11  -1  -4   29.07    5.57
 -11  -1  -4   29.37    3.99
  11  -1   4   33.41    5.09
  11  -1   4   32.04    3.29
  11  -1   4   28.73    3.76
 -11  -1  -4   34.87    2.95
 -11  -1  -4   32.03    4.25
 -11  -1  -4   31.07    5.19
 -11   1  -4   26.52    4.26
  11   1   4   32.19    3.77
 -11   1  -4   35.80    4.73
 -11   1  -4   32.96    5.05
  11   1   4   28.91    4.81
  11   1   4   33.19    4.53
  11   1   4   33.29    4.57
 -11   1  -4   30.58    3.86
  13  -1   4   18.18    3.00
  13   1   4   23.09    3.41
  18  -2  -4   69.85    7.29
 -18  -2   4   49.79    6.26
 -18  -2   4   59.05    7.69
  18  -2  -4   45.86    6.27
  18  -2  -4   54.85    5.55
 -18  -2   4   66.48    7.27
  18  -2  -4   54.14    7.33
  18  -2  -4   57.38    5.48
 -18   2   4   71.97    8.02
  18   2  -4   70.66    6.96
 -18   2   4   62.88    9.31
  18   2  -4   65.80    8.48
  18   2  -4   40.77    8.13
  18   2  -4   59.18    5.41
 -18   2   4   75.56    6.86
 -18   2   4   50.05    7.01
  18   2  -4   44.51    5.36
  16  -2  -4   79.09    7.34
  16  -2  -4   82.27    8.65
 -16  -2   4   78.62    6.94
  16  -2  -4   87.34    6.28
  16  -2  -4   82.11    6.24
 -16  -2   4   96.60   11.72
  16  -2  -4   93.22    7.57
 -16  -2   4   89.41    7.18
 -16  -2   4   94.51    8.04
 -16   2   4   85.01   10.17
  16   2  -4  102.86    6.40
 -16   2   4   97.94    7.19
  16   2  -4   74.40    8.96
  16   2  -4   78.99    7.98
 -16   2   4   75.94    6.96
 -16   2   4   89.72    7.82
  16   2  -4   88.46    7.14
  14  -2  -4  197.50    9.88
 -14  -2   4  172.56   13.04
  14  -2  -4  185.98   11.65
  14  -2  -4  193.57   11.13
 -14  -2   4  186.55   11.52
 -14  -2   4  188.65   16.17
 -14  -2   4  193.50   11.03
  14  -2  -4  177.36   10.87
  14   2  -4  195.40   10.87
 -14   2   4  185.59   11.37
 -14   2   4  170.70   10.51
  14   2  -4  191.68   10.23
  14   2  -4  158.74   12.14
  14   2  -4  168.28   11.18
  14   2  -4  190.65   10.23
 -14   2   4  184.76   10.77
 -14   2   4  184.76   14.84
 -12  -2   4  130.39    8.24
 -12  -2   4  128.60    7.68
 -12  -2   4  121.36    7.27
  12  -2  -4  131.01    7.19
  12  -2  -4  139.93    8.11
  12  -2  -4  110.42    7.79
 -12  -2   4  115.60    7.38
  12  -2  -4  119.47    8.38
 -12  -2   4  125.48   12.00
  12  -2  -4  114.65    7.66
 -12   2   4  112.43    7.47
 -12   2   4  129.27    7.72
 -12   2   4  127.47    8.01
  12   2  -4  119.15    8.17
  12   2  -4  124.87    7.68
 -12   2   4  134.91   11.41
 -12   2   4  116.02    8.32
  12   2  -4  125.63    6.98
  12   2  -4  132.47    7.20
  12   2  -4  118.15    8.56
 -10  -2   4  262.57   13.65
 -10  -2   4  261.92   13.64
  10  -2  -4  288.11   13.61
 -10  -2   4  247.80   13.43
 -10  -2   4  256.49   13.09
 -10  -2   4  262.59   12.50
 -10  -2   4  259.39   18.24
 -10  -2   4  281.38   14.15
  10  -2  -4  257.98   13.92
  10  -2  -4  258.92   13.59
  10   2  -4  275.76   13.29
  10   2  -4  274.14   13.20
  10   2  -4  246.96   13.95
 -10   2   4  260.84   17.93
 -10   2   4  286.64   13.74
 -10   2   4  253.08   13.96
  10   2  -4  272.36   13.22
 -10   2   4  242.31   13.34
  10   2  -4  263.44   13.61
  10   2  -4  240.01   13.79
 -10   2   4  269.43   13.92
  -8  -2   4  253.05   12.73
   8  -2  -4  239.35   12.73
   8  -2  -4  260.41   13.18
  -8  -2   4  240.43   13.01
   8  -2  -4  236.24   12.93
  -8  -2   4  267.98   12.01
  -8  -2   4  248.47   12.22
  -8  -2   4  262.68   17.44
   8  -2  -4  262.66   12.83
  -8  -2   4  231.42   12.78
  -8  -2   4  258.60   12.67
   8   2  -4  246.65   12.73
   8   2  -4  266.85   12.44
  -8   2   4  257.40   17.26
  -8   2   4  256.96   13.02
   8   2  -4  222.89   12.90
   8   2  -4  235.71   12.98
  -8   2   4  238.38   12.60
  -8   2   4  267.75   12.80
   8   2  -4  258.84   12.70
   8   2  -4  267.48   12.47
  -8   2   4  239.06   13.09
   6  -2  -4  398.16   19.27
  -6  -2   4  402.82   18.43
   6  -2  -4  412.36   19.06
  -6  -2   4  400.41   18.70
   6  -2  -4  361.58   18.79
   6  -2  -4  376.52   19.04
  -6  -2   4  422.94   18.56
  -6  -2   4  399.63   19.14
  -6  -2   4  415.96   23.79
  -6  -2   4  366.78   19.06
   6   2  -4  374.19   19.04
  -6   2   4  398.98   19.12
  -6   2   4  412.24   20.01
  -6   2   4  361.28   18.70
   6   2  -4  373.56   18.86
   6   2  -4  404.85   19.05
   6   2  -4  410.95   18.58
   6   2  -4  412.31   18.59
  -6   2   4  402.53   18.79
  -6   2   4  369.82   19.20
  -6   2   4  378.84   23.88
   6   2  -4  368.30   18.97
  -4  -2   4  167.61    9.43
  -4  -2   4  180.81    8.78
   4  -2  -4  171.23    9.30
  -4  -2   4  199.88    9.28
   4  -2  -4  177.65    9.08
  -4  -2   4  177.73   13.09
  -4  -2   4  189.02    9.21
   4  -2  -4  193.63    9.36
   4   2  -4  178.39    9.12
  -4   2   4  186.96    8.86
   4   2  -4  183.96    9.37
   4   2  -4  186.78    8.73
   4   2  -4  169.94    9.18
  -4   2   4  169.69   13.91
  -4   2   4  178.41    8.97
  -4   2   4  183.19    9.24
   4   2  -4  179.71    9.07
  -4   2   4  151.42    9.70
  -4   2   4  176.29   10.25
  -2  -2   4  306.12   13.88
   2  -2  -4  305.98   14.56
  -2  -2   4  324.58   14.85
  -2  -2   4  270.45   14.60
   2  -2  -4  284.36   14.17
   2  -2  -4  305.27   14.81
   2  -2  -4  282.45   14.42
  -2  -2   4  310.11   19.05
  -2   2   4  287.98   20.47
  -2   2   4  308.49   14.36
  -2   2   4  290.97   14.55
   2   2  -4  298.26   13.75
  -2   2   4  268.64   15.47
   2   2  -4  281.41   14.06
  -2   2   4  303.78   13.68
   2   2  -4  292.57   14.03
   2   2  -4  306.14   14.63
  -2   2   4  302.69   13.63
   2   2  -4  289.98   14.00
   0  -2  -4  300.62   13.41
   0  -2  -4  246.39   14.38
   0  -2  -4  279.06   13.87
   0  -2   4  285.48   18.64
   0  -2  -4  255.58   13.75
   0  -2  -4  281.07   13.52
   0  -2  -4  276.01   14.12
   0  -2   4  312.86   14.57
   0   2   4  263.20   15.03
   0   2  -4  296.41   12.96
   0   2  -4  266.83   13.64
   0   2  -4  285.68   13.09
   0   2  -4  282.98   13.01
   0   2  -4  287.90   13.94
   0   2   4  293.89   13.93
   0   2   4  237.93   19.67
   0   2   4  290.19   13.65
   0   2  -4  295.22   13.07
   0   2  -4  302.00   14.28
  -2  -2  -4  210.08   11.23
   2  -2   4  201.62   15.47
   2  -2   4  226.09   11.75
  -2  -2  -4  193.27   11.53
  -2  -2  -4  204.79   10.79
  -2  -2  -4  217.77   10.38
  -2  -2  -4  215.22   10.84
   2   2   4  177.91   17.13
  -2   2  -4  217.18    9.95
  -2   2  -4  216.30   10.79
  -2   2  -4  212.85   10.70
  -2   2  -4  220.70    9.96
  -2   2  -4  232.41   11.34
   2   2   4  201.01   12.13
   2   2   4  228.79   10.64
  -2   2  -4  210.90   10.11
   2   2   4  223.90   10.79
   4  -2   4  175.22    9.94
  -4  -2  -4  187.69   10.13
  -4  -2  -4  167.03    9.43
  -4  -2  -4  172.30    9.38
   4  -2   4  162.11   14.15
  -4  -2  -4  169.54   10.54
  -4  -2  -4  179.16    9.53
  -4   2  -4  194.91    8.78
  -4   2  -4  182.94    9.48
  -4   2  -4  188.95    8.89
  -4   2  -4  199.71   10.09
   4   2   4  193.47    9.48
  -4   2  -4  180.47    8.76
  -4   2  -4  166.68    9.06
   4   2   4  172.20   10.92
  -4   2  -4  184.32    9.32
   4   2   4  195.39    9.33
  -6  -2  -4  159.50   10.67
   6  -2   4  168.97   10.23
  -6  -2  -4  179.43    9.60
   6  -2   4  183.57    8.64
  -6  -2  -4  172.79    9.62
   6  -2   4  191.58    8.56
  -6  -2  -4  174.27    9.54
  -6  -2  -4  176.83   10.43
   6   2   4  168.74    9.19
  -6   2  -4  184.83    9.65
  -6   2  -4  184.06    9.11
  -6   2  -4  167.53    9.32
  -6   2  -4  189.81    9.26
  -6   2  -4  175.88    8.93
   6   2   4  149.39    9.69
  -6   2  -4  184.57    8.89
   6   2   4  175.87   11.11
  -8  -2  -4  118.61    7.92
  -8  -2  -4  121.57    9.03
  -8  -2  -4  134.01    9.28
  -8  -2  -4  134.77    7.92
  -8  -2  -4  135.22    8.00
   8  -2   4  127.71    8.72
   8  -2   4  129.41    7.64
  -8   2  -4  128.65    7.90
  -8   2  -4  140.82    7.21
   8   2   4  124.31    7.61
  -8   2  -4  125.96    7.30
  -8   2  -4  125.78    7.82
  -8   2  -4  132.91    7.88
   8   2   4  129.93    9.18
 -10  -2  -4  101.08    7.64
  10  -2   4  114.51    7.17
 -10  -2  -4  109.33    9.54
  10  -2   4  102.56    6.11
  10  -2   4  115.24    8.75
 -10  -2  -4   95.90    8.82
 -10  -2  -4  101.96    7.70
 -10  -2  -4  107.81    7.46
 -10   2  -4   94.48    8.39
 -10   2  -4  102.88    6.95
  10   2   4  104.89    8.55
 -10   2  -4  109.65    8.07
 -10   2  -4  104.08    7.84
  10   2   4  107.15    7.30
 -10   2  -4  114.94    6.70
  10   2   4  109.52    6.84
  12  -2   4   69.68    5.19
 -12  -2  -4   80.51    7.10
 -12  -2  -4   63.79    8.52
 -12  -2  -4   72.82    7.26
  12  -2   4   71.06    6.67
 -12  -2  -4   70.73    8.81
  12  -2   4   70.96    8.73
 -12  -2  -4   81.21    5.12
 -12   2  -4   71.19    6.91
  12   2   4   52.20    9.80
 -12   2  -4   73.65    5.93
 -12   2  -4   74.43    6.96
  12   2   4   80.66    6.22
 -12   2  -4   66.20    8.00
 -12   2  -4   82.35    8.89
  12   2   4   70.32    6.82
 -17  -3   4   26.22    4.76
  17  -3  -4   28.86    3.67
  17  -3  -4   22.33    6.60
 -17  -3   4   28.05    4.87
 -17  -3   4   30.13    4.88
  17  -3  -4   22.64    3.45
  17  -3  -4   29.46    5.08
  17  -3  -4   29.87    5.03
 -17   3   4   29.34    4.65
  17   3  -4   24.61    3.43
  17   3  -4   27.13    6.87
  17   3  -4   22.23    4.46
  17   3  -4   28.16    5.44
  17   3  -4   32.27    4.18
 -17   3   4   28.41    4.37
 -17   3   4   26.51    4.82
 -17   3   4   30.93    7.55
  15  -3  -4   15.73    3.50
 -15  -3   4   11.09    2.94
 -15  -3   4   13.19    5.43
 -15  -3   4   -0.80    3.93
  15  -3  -4   16.07    3.59
  15  -3  -4    5.36    1.84
 -15  -3   4   13.03    3.29
  15  -3  -4    9.02    2.21
  15  -3  -4    9.22    4.67
  15  -3  -4    6.55    2.37
 -15  -3   4    9.62    3.13
 -15   3   4    5.97    3.53
 -15   3   4    4.99    3.59
 -15   3   4    9.03    3.42
 -15   3   4   11.41    2.81
 -15   3   4   10.69    4.95
  15   3  -4    9.65    3.14
  15   3  -4   12.74    5.17
  15   3  -4   13.97    2.36
  15   3  -4    9.29    4.10
  15   3  -4   13.51    2.23
  13  -3  -4   18.46    3.19
  13  -3  -4   20.44    4.30
 -13  -3   4   20.47    3.12
 -13  -3   4   18.91    3.20
 -13  -3   4   22.49    6.11
 -13  -3   4   24.17    3.99
  13   3  -4   22.53    2.87
 -13   3   4   15.80    3.29
  13   3  -4   23.84    3.49
  13   3  -4   22.05    4.14
 -13   3   4   18.91    5.42
 -13   3   4   21.26    3.36
 -13   3   4   20.52    3.08
 -13   3   4   15.88    3.76
  13   3  -4   21.50    2.62
  11  -3  -4   57.36    5.04
  11  -3  -4   51.80    4.23
 -11  -3   4   54.03    4.59
  11  -3  -4   52.14    4.64
  11  -3  -4   48.71    5.53
 -11  -3   4   49.68    4.26
 -11  -3   4   50.08    4.37
 -11  -3   4   54.62    7.64
 -11   3   4   53.82    5.75
  11   3  -4   47.89    5.77
  11   3  -4   49.91    3.92
  11   3  -4   54.32    4.36
 -11   3   4   48.75    4.82
 -11   3   4   49.24    7.24
  11   3  -4   55.01    3.70
 -11   3   4   56.71    4.46
  11   3  -4   45.13    5.22
 -11   3   4   62.96    4.89
  -9  -3   4   26.20    3.15
   9  -3  -4   28.09    3.18
  -9  -3   4   32.90    3.52
  -9  -3   4   26.80    3.48
   9  -3  -4   25.27    3.56
  -9  -3   4   23.62    2.70
  -9  -3   4   25.79    5.22
   9  -3  -4   27.42    3.45
  -9  -3   4   29.29    2.86
   9  -3  -4   29.78    2.79
   9   3  -4   26.84    3.80
  -9   3   4   22.70    3.54
   9   3  -4   21.94    2.82
  -9   3   4   24.16    3.13
  -9   3   4   28.46    2.87
   9   3  -4   24.60    3.58
   9   3  -4   25.13    2.44
  -9   3   4   26.52    5.55
   9   3  -4   24.40    2.14
   9   3  -4   24.26    2.42
  -9   3   4   25.69    3.30
  -7  -3   4   42.75    3.11
   7  -3  -4   49.37    3.49
  -7  -3   4   40.49    3.63
  -7  -3   4   44.00    3.81
   7  -3  -4   43.13    3.91
   7  -3  -4   46.59    3.61
  -7  -3   4   44.80    2.93
   7  -3  -4   39.98    3.98
  -7  -3   4   41.83    5.96
  -7  -3   4   42.45    3.75
   7   3  -4   43.85    3.21
   7   3  -4   44.66    4.22
  -7   3   4   48.56    3.76
   7   3  -4   42.88    2.75
  -7   3   4   37.62    3.75
  -7   3   4   40.42    4.37
  -7   3   4   34.86    5.99
  -7   3   4   45.68    3.28
   7   3  -4   48.39    3.51
   7   3  -4   38.58    4.22
   7   3  -4   42.86    2.99
  -5  -3   4   90.48    5.07
   5  -3  -4   90.30    5.83
   5  -3  -4   91.42    5.83
  -5  -3   4   86.12    4.46
  -5  -3   4   93.16    5.72
  -5  -3   4   94.77    8.77
   5  -3  -4   89.99    5.53
   5  -3  -4   87.68    5.36
  -5  -3   4   83.62    5.44
  -5  -3   4   83.57    4.52
  -5   3   4   87.26    5.46
   5   3  -4   87.95    4.87
   5   3  -4   90.75    5.34
  -5   3   4   99.97    5.75
  -5   3   4   82.65    9.34
   5   3  -4   85.95    5.81
  -5   3   4   91.90    5.17
   5   3  -4   95.64    4.68
   5   3  -4   80.90    5.71
  -5   3   4   90.35    6.21
   5   3  -4   92.48    5.58
  -5   3   4   89.43    6.11
   3  -3  -4  145.98    7.95
   3  -3  -4  147.30    8.29
   3  -3  -4  163.45    8.72
   3  -3  -4  152.17    8.24
  -3  -3   4  160.24    7.97
  -3  -3   4  156.46    7.57
  -3  -3   4  152.04   11.66
  -3  -3   4  143.80    8.23
   3   3  -4  149.59    8.01
   3   3  -4  133.19    8.06
  -3   3   4  147.32    7.64
  -3   3   4  145.41    9.11
  -3   3   4  142.00   13.22
   3   3  -4  144.34    8.09
  -3   3   4  145.13    7.94
   3   3  -4  152.81    7.50
  -3   3   4  143.80    8.71
  -3   3   4  159.78    8.22
   3   3  -4  153.11    8.08
  -1  -3   4   89.74    5.81
   1  -3  -4  104.50    4.89
   1  -3  -4   91.17    5.97
  -1  -3   4   97.97    5.16
   1  -3  -4   97.45    5.92
  -1  -3   4  104.15    9.36
  -1  -3   4  102.90    5.02
   1  -3  -4   93.32    5.61
   1   3  -4   91.32    5.54
   1   3  -4   93.96    4.99
   1   3  -4  102.69    5.09
  -1   3   4   90.35    6.76
  -1   3   4   95.74    5.41
   1   3  -4   91.73    5.62
   1   3  -4   97.89    5.67
  -1   3   4   99.63    6.16
  -1   3   4  106.52    5.80
  -1   3   4   88.42   10.72
   1   3  -4  103.17    6.10
   1   3  -4   97.93    5.41
  -1   3   4  104.94    5.16
  -1  -3  -4  150.27    8.31
  -1  -3  -4  154.45    8.83
   1  -3   4  155.92   12.45
   1  -3   4  165.40    7.62
  -1  -3  -4  141.72    9.13
  -1  -3  -4  155.87    9.38
   1  -3   4  169.56    7.63
   1  -3   4  151.40    8.56
  -1  -3  -4  161.17    8.82
   1   3   4  157.01    7.78
   1   3   4  167.30    8.89
  -1   3  -4  150.44    8.28
  -1   3  -4  177.32    9.07
   1   3   4  167.38    8.54
   1   3   4  141.24    9.62
  -1   3  -4  160.97    8.45
  -1   3  -4  153.27    7.88
  -1   3  -4  157.25    8.07
  -1   3  -4  166.37    7.80
   3  -3   4  113.26    5.36
  -3  -3  -4  107.33    6.74
   3  -3   4  107.11    6.39
  -3  -3  -4  102.16    7.34
  -3  -3  -4  106.93    6.52
  -3  -3  -4  103.28    7.42
  -3  -3  -4  103.61    6.35
   3  -3   4   98.25   10.02
   3   3   4   96.14    5.10
  -3   3  -4  105.79    5.69
  -3   3  -4  113.06    6.10
  -3   3  -4  102.60    6.31
  -3   3  -4  108.52    5.78
  -3   3  -4  107.47    5.74
  -3   3  -4  112.21    5.61
   3   3   4  116.70    6.34
  -3   3  -4  116.27    6.87
   3   3   4  106.12    7.47
   5  -3   4  123.86    8.19
  -5  -3  -4  127.80    8.47
  -5  -3  -4  116.26    7.36
   5  -3   4  131.59    6.48
  -5  -3  -4  120.56    8.71
   5  -3   4  127.81    6.27
  -5  -3  -4  126.30    7.61
  -5  -3  -4  119.26    8.11
  -5   3  -4  116.77    6.74
  -5   3  -4  131.02    6.89
   5   3   4  131.02    7.24
  -5   3  -4  113.44    7.31
   5   3   4  120.98    8.73
  -5   3  -4  132.49    6.63
  -5   3  -4  129.89    6.96
  -5   3  -4  133.11    7.83
   7  -3   4   57.23    5.98
  -7  -3  -4   52.60    5.26
  -7  -3  -4   51.79    6.11
   7  -3   4   63.23    3.62
  -7  -3  -4   62.37    7.09
   7  -3   4   60.62    4.38
  -7  -3  -4   56.34    4.92
  -7  -3  -4   57.58    5.17
  -7   3  -4   58.35    5.13
  -7   3  -4   48.31    5.20
  -7   3  -4   64.31    3.98
   7   3   4   57.70    5.77
  -7   3  -4   58.03    4.37
  -7   3  -4   62.76    4.46
  -7   3  -4   62.46    4.89
   9  -3   4   45.67    5.67
  -9  -3  -4   51.22    5.88
   9  -3   4   49.47    4.55
  -9  -3  -4   54.99    5.15
  -9  -3  -4   52.10    6.70
  -9  -3  -4   54.82    6.99
  -9  -3  -4   51.49    5.84
  -9   3  -4   48.54    5.88
  -9   3  -4   54.84    5.81
  -9   3  -4   50.97    4.68
  -9   3  -4   57.48    4.08
  -9   3  -4   49.86    4.75
   9   3   4   47.93    5.63
   9   3   4   53.09    4.70
 -11  -3  -4   32.34    5.27
 -11  -3  -4   27.49    6.44
 -11  -3  -4   27.45    4.44
  11  -3   4   28.14    5.63
  11  -3   4   29.82    3.58
  11  -3   4   36.93    4.64
 -11  -3  -4   34.59    5.33
 -11  -3  -4   29.12    5.68
  11   3   4   35.24    4.44
 -11   3  -4   36.94    4.09
 -11   3  -4   25.77    4.20
 -11   3  -4   38.67    4.82
 -11   3  -4   37.60    5.44
 -11   3  -4   27.77    5.18
 -16  -4   4   89.99    8.66
  16  -4  -4   62.50    7.29
  16  -4  -4   78.94    8.08
  16  -4  -4   73.86    6.19
  16  -4  -4   69.90    9.17
  16  -4  -4   74.88    5.79
 -16  -4   4   59.96    7.04
 -16  -4   4   68.17    6.58
 -16  -4   4   66.59    7.25
  16   4  -4   64.88    9.11
 -16   4   4   71.28    9.73
  16   4  -4   74.87    5.73
 -16   4   4   70.91    7.83
 -16   4   4   78.22    6.83
  16   4  -4   73.02    5.64
  16   4  -4   64.46    6.88
 -16   4   4   59.83    7.64
  16   4  -4   71.53    8.72
 -14  -4   4  150.56    9.95
  14  -4  -4  140.01    8.17
  14  -4  -4  110.73    8.65
  14  -4  -4  120.93   10.03
 -14  -4   4  125.30    8.40
 -14  -4   4  126.83    8.50
 -14  -4   4  133.99   14.19
 -14   4   4  126.27    8.50
 -14   4   4  136.80    9.44
  14   4  -4  122.48    9.81
  14   4  -4  129.40    7.75
 -14   4   4  108.29    8.77
  14   4  -4  119.94    9.88
  14   4  -4  128.49    8.77
  14   4  -4  121.46    7.62
 -14   4   4  120.72   11.74
 -12  -4   4   91.74   10.89
 -12  -4   4   80.80    6.30
 -12  -4   4   95.52    6.76
  12  -4  -4   76.53    6.37
 -12  -4   4   89.72    6.16
  12  -4  -4   77.05    7.39
 -12  -4   4   86.77    7.06
  12  -4  -4   95.33    6.91
  12   4  -4   81.60    5.55
 -12   4   4   85.28    6.69
  12   4  -4   65.26    7.26
  12   4  -4   83.37    5.30
  12   4  -4   70.05    8.00
  12   4  -4   87.38    6.41
 -12   4   4   85.08    9.44
 -12   4   4   85.96    6.80
 -12   4   4   82.81    6.85
  10  -4  -4  164.96   10.53
 -10  -4   4  168.71    9.65
 -10  -4   4  182.59   10.70
 -10  -4   4  168.18    9.19
  10  -4  -4  189.29    9.87
 -10  -4   4  160.49    9.67
  10  -4  -4  181.68   10.62
 -10  -4   4  183.31   15.01
  10   4  -4  170.16    8.95
 -10   4   4  185.66    9.79
  10   4  -4  167.17   10.84
 -10   4   4  166.09   13.76
  10   4  -4  174.55    9.89
 -10   4   4  142.45   10.62
  10   4  -4  150.03   10.49
 -10   4   4  173.15   10.25
 -10   4   4  158.05    9.98
   8  -4  -4  182.16   10.67
   8  -4  -4  165.09    9.85
  -8  -4   4  177.00    9.23
   8  -4  -4  175.89   10.50
   8  -4  -4  189.66   10.08
  -8  -4   4  196.38   10.97
  -8  -4   4  171.15    9.94
  -8  -4   4  181.01    9.70
  -8  -4   4  181.56   14.25
   8   4  -4  155.53   10.51
   8   4  -4  187.67    9.53
  -8   4   4  166.32   14.07
   8   4  -4  189.22    9.08
  -8   4   4  169.02   10.86
  -8   4   4  193.52    9.88
  -8   4   4  160.98    9.99
   8   4  -4  169.79   10.85
   8   4  -4  186.06   10.02
  -8   4   4  190.06   10.34
   6  -4  -4  261.42   13.87
  -6  -4   4  273.76   13.33
  -6  -4   4  289.56   14.45
  -6  -4   4  259.61   13.91
   6  -4  -4  253.54   14.25
  -6  -4   4  271.17   18.14
   6  -4  -4  284.10   14.76
   6  -4  -4  288.34   14.26
  -6  -4   4  281.37   13.07
  -6   4   4  291.61   14.39
   6   4  -4  247.24   14.44
  -6   4   4  269.28   14.92
  -6   4   4  255.49   19.23
  -6   4   4  295.05   13.86
   6   4  -4  272.11   13.99
   6   4  -4  280.53   12.94
   6   4  -4  277.90   13.49
  -6   4   4  264.34   14.74
   6   4  -4  242.86   14.28
  -6   4   4  260.84   13.99
  -4  -4   4  183.32    8.81
   4  -4  -4  200.40   10.37
   4  -4  -4  180.20   10.36
  -4  -4   4  191.02    9.60
  -4  -4   4  179.64   10.06
  -4  -4   4  181.42    8.76
  -4  -4   4  194.41   10.22
   4  -4  -4  180.60    9.95
  -4  -4   4  192.84   13.79
   4  -4  -4  204.78   10.89
   4   4  -4  194.41   10.37
  -4   4   4  174.90   10.96
  -4   4   4  174.91   10.00
   4   4  -4  192.07    9.48
  -4   4   4  180.51   10.79
   4   4  -4  168.98   10.25
  -4   4   4  199.61   10.28
  -4   4   4  202.26    9.78
   4   4  -4  170.17   10.34
   4   4  -4  192.92    8.73
  -4   4   4  153.42   14.73
   2  -4  -4  262.39   14.26
  -2  -4   4  286.14   13.75
  -2  -4   4  287.38   17.95
   2  -4  -4  283.54   14.76
  -2  -4   4  269.15   13.97
   2  -4  -4  265.20   13.81
   2  -4  -4  273.42   14.28
  -2  -4   4  287.69   13.44
   2   4  -4  255.59   14.02
  -2   4   4  295.64   14.23
  -2   4   4  287.69   13.52
   2   4  -4  289.42   14.26
   2   4  -4  282.70   13.41
   2   4  -4  280.31   13.88
  -2   4   4  265.00   13.85
  -2   4   4  252.97   15.03
  -2   4   4  290.82   14.99
   2   4  -4  251.06   13.97
  -2   4   4  228.96   19.86
   0  -4  -4  246.48   14.20
   0  -4   4  287.99   13.33
   0  -4   4  279.27   13.16
   0  -4  -4  244.39   14.38
   0  -4  -4  259.87   13.70
   0  -4  -4  278.05   14.28
   0  -4   4  283.27   17.88
   0  -4  -4  281.74   14.61
   0  -4   4  257.53   13.74
   0   4   4  275.20   13.67
   0   4  -4  253.74   13.92
   0   4   4  242.63   14.99
   0   4  -4  297.13   14.31
   0   4   4  287.64   13.26
   0   4  -4  268.60   13.46
   0   4   4  287.62   14.04
   0   4  -4  263.59   13.76
  -2  -4  -4  216.38   11.75
  -2  -4  -4  190.19   11.85
   2  -4   4  221.76   10.44
  -2  -4  -4  201.05   11.23
   2  -4   4  204.91   15.01
   2  -4   4  207.02   11.08
  -2  -4  -4  205.26   11.64
   2  -4   4  216.95   10.44
  -2  -4  -4  217.06   12.05
   2   4   4  186.82   12.36
   2   4   4  231.60   10.49
  -2   4  -4  204.23   10.69
   2   4   4  222.59   10.85
  -2   4  -4  211.00   11.00
  -2   4  -4  220.13   10.61
  -2   4  -4  201.47   11.45
   4  -4   4  169.49    9.36
  -4  -4  -4  186.65   10.42
  -4  -4  -4  161.48    9.73
  -4  -4  -4  168.28   10.78
  -4  -4  -4  172.71   10.32
  -4  -4  -4  185.97   10.05
  -4   4  -4  158.12    9.88
  -4   4  -4  178.51    8.44
  -4   4  -4  166.36    9.10
  -4   4  -4  162.96    9.30
  -4   4  -4  178.49    8.92
   4   4   4  171.06   11.02
  -6  -4  -4  148.20    9.06
  -6  -4  -4  138.88    9.94
  -6  -4  -4  134.85    8.98
   6  -4   4  138.52    9.58
  -6  -4  -4  143.50    9.30
  -6   4  -4  146.07    7.79
  -6   4  -4  147.58    7.56
  -6   4  -4  140.58    8.25
  -6   4  -4  140.94    9.14
   6   4   4  136.30    9.82
  -8  -4  -4  101.84    8.38
  -8  -4  -4  104.36    7.46
  -8  -4  -4   90.70    8.47
  -8  -4  -4   91.24    7.90
  -8  -4  -4   99.89    7.93
   8  -4   4  101.44    8.65
  -8   4  -4  107.41    6.28
  -8   4  -4   98.47    6.25
  -8   4  -4  107.67    7.49
   8   4   4  116.42    7.16
  -8   4  -4   90.11    8.03
   8   4   4   97.12    7.99
  -8   4  -4   96.57    6.92
 -10  -4  -4   65.10    8.46
 -10  -4  -4   72.91    7.97
 -10  -4  -4   71.48    6.65
  10  -4   4   56.46    7.51
 -10  -4  -4   68.98    7.94
 -10  -4  -4   72.61    8.21
 -10   4  -4   70.62    5.85
 -10   4  -4   83.03    7.87
 -10   4  -4   86.59    5.60
 -10   4  -4   60.75    6.50
 -10   4  -4   48.89    6.64
  10   4   4   80.89    6.11
  10   4   4   75.19    7.31
  15  -5  -4   35.51    4.59
 -15  -5   4   37.91    5.25
  15  -5  -4   33.58    5.16
 -15  -5   4   42.24    5.34
  15  -5  -4   38.76    5.02
  15  -5  -4   51.80    6.55
 -15  -5   4   43.05    6.58
  15  -5  -4   34.50    7.26
 -15  -5   4   36.82    5.43
 -15   5   4   35.88    5.09
  15   5  -4   32.15    4.20
 -15   5   4   28.24    5.61
 -15   5   4   38.12    4.91
 -15   5   4    1.70    8.88
  15   5  -4   28.56    5.33
  15   5  -4   37.53    4.54
  15   5  -4   35.99    6.92
  15   5  -4   37.16    7.74
 -15   5   4   36.04    8.61
  13  -5  -4   56.08    6.20
 -13  -5   4   76.52    7.67
  13  -5  -4   69.73    7.23
  13  -5  -4   72.45    8.15
  13  -5  -4   68.02    5.72
 -13  -5   4   55.52    5.75
 -13  -5   4   64.17    6.03
  13   5  -4   58.29    8.05
  13   5  -4   67.28    5.18
  13   5  -4   58.30    6.14
 -13   5   4   61.22    9.01
 -13   5   4   66.79    6.61
  13   5  -4   54.74    7.18
 -13   5   4   45.18    6.49
 -13   5   4   62.91    5.83
 -11  -5   4  103.73    7.04
 -11  -5   4  116.99   12.34
 -11  -5   4  122.15    8.94
  11  -5  -4  103.36    7.74
 -11  -5   4  111.74    7.65
 -11  -5   4  122.60    8.84
  11  -5  -4  119.61    8.64
  11   5  -4  111.05    7.70
 -11   5   4  107.96    8.21
 -11   5   4  109.86    7.71
  11   5  -4  106.90    9.29
  11   5  -4  111.24    6.46
  11   5  -4  106.06    9.63
  11   5  -4  114.19    6.93
 -11   5   4   94.90   10.74
   9  -5  -4   80.13    6.83
   9  -5  -4   76.59    6.03
  -9  -5   4   75.19    9.54
   9  -5  -4   77.67    7.08
  -9  -5   4   78.99    5.26
  -9  -5   4   76.92    5.88
  -9  -5   4   76.21    5.70
   9  -5  -4   73.06    5.54
  -9  -5   4   71.99    6.54
   9   5  -4   77.82    7.58
  -9   5   4   92.56    5.74
  -9   5   4   69.08    9.18
   9   5  -4   79.39    5.13
   9   5  -4   76.01    4.63
  -9   5   4   72.96    6.17
  -9   5   4   67.39    7.12
   9   5  -4   71.57    8.44
   9   5  -4   73.35    5.86
  -7  -5   4   76.92    4.98
   7  -5  -4   86.58    6.78
  -7  -5   4   83.74    9.16
  -7  -5   4   86.97    5.32
   7  -5  -4   94.38    6.01
   7  -5  -4   74.05    6.69
   7  -5  -4   74.19    5.91
   7   5  -4   80.37    4.39
  -7   5   4   67.67    6.12
   7   5  -4   86.77    5.24
   7   5  -4   79.94    5.85
  -7   5   4   72.40    6.93
  -7   5   4   85.96    5.43
   7   5  -4   64.14    6.93
  -7   5   4   63.35    8.68
  -5  -5   4   84.96    4.74
   5  -5  -4   85.89    6.75
   5  -5  -4   82.12    5.86
   5  -5  -4   86.58    4.71
   5  -5  -4   88.62    6.72
  -5  -5   4   78.79    5.54
  -5  -5   4   85.40    4.84
  -5  -5   4   84.25    8.82
  -5   5   4   75.49    6.12
   5   5  -4   73.81    6.63
   5   5  -4   73.42    5.62
   5   5  -4   79.25    7.18
  -5   5   4   88.69    5.34
  -5   5   4   70.10    9.58
   5   5  -4   78.77    4.03
   5   5  -4   86.08    5.10
  -5   5   4   78.04    6.14
   3  -5  -4   73.88    5.48
   3  -5  -4   72.93    6.37
  -3  -5   4   75.21    5.52
   3  -5  -4   75.80    3.65
  -3  -5   4   74.50    5.41
   3  -5  -4   79.92    6.59
  -3  -5   4   74.40    7.86
   3  -5  -4   81.26    5.80
   3   5  -4   64.73    6.31
  -3   5   4   73.44    5.76
   3   5  -4   69.37    6.03
  -3   5   4   81.87    4.98
  -3   5   4   76.52    6.18
   3   5  -4   74.91    6.11
   3   5  -4   80.70    4.91
  -1  -5   4   30.39    5.43
   1  -5  -4   27.13    3.48
   1  -5  -4   29.92    4.13
  -1  -5   4   31.28    3.29
  -1  -5   4   27.17    3.06
   1  -5  -4   27.09    3.70
   1  -5  -4   32.26    4.36
  -1   5   4   33.74    4.21
   1   5  -4   29.02    3.83
  -1   5   4   28.91    4.00
   1   5  -4   29.59    3.59
   1   5  -4   31.36    4.08
  -1   5   4   33.70    2.82
  -1   5   4   33.30    3.63
   1   5  -4   27.02    4.23
  -1  -5  -4   28.91    5.24
  -1  -5  -4   37.79    4.33
  -1  -5  -4   48.04    5.25
   1  -5   4   47.55    3.53
  -1  -5  -4   40.08    4.40
   1  -5   4   41.08    3.93
   1  -5   4   40.99    6.67
  -1   5  -4   39.64    4.19
   1   5   4   44.50    4.58
  -1   5  -4   42.12    3.33
   1   5   4   38.56    3.11
  -1   5  -4   46.70    4.30
  -1   5  -4   38.35    4.53
   1   5   4   36.19    4.57
  -3  -5  -4   30.72    4.22
  -3  -5  -4   25.06    4.14
   3  -5   4   23.31    3.22
  -3  -5  -4   21.09    3.82
  -3  -5  -4   24.53    4.27
  -3  -5  -4   23.89    3.67
   3  -5   4   26.04    3.42
  -3   5  -4   24.48    3.45
  -3   5  -4   22.44    3.08
   3   5   4   22.18    3.95
   3   5   4   25.89    2.52
  -3   5  -4   27.95    2.71
  -3   5  -4   20.49    4.11
   3   5   4   23.80    3.30
   5  -5   4   30.86    4.05
  -5  -5  -4   32.91    5.03
  -5  -5  -4   27.96    4.04
  -5  -5  -4   32.02    5.85
  -5  -5  -4   34.07    4.78
  -5  -5  -4   29.13    4.70
  -5   5  -4   32.95    4.36
  -5   5  -4   36.57    4.75
  -5   5  -4   34.90    4.86
  -5   5  -4   38.16    3.17
   5   5   4   32.93    5.10
  -7  -5  -4   24.98    4.46
  -7  -5  -4   31.88    4.12
   7  -5   4   19.52    4.15
  -7  -5  -4   18.86    4.83
  -7  -5  -4   22.65    4.78
  -7  -5  -4   18.18    4.21
  -7   5  -4   21.33    3.79
   7   5   4   24.30    3.41
  -7   5  -4   20.35    3.77
  -7   5  -4   22.65    2.93
  -7   5  -4   20.49    3.83
   7   5   4   21.89    4.08
  -7   5  -4   20.05    4.65
  -9  -5  -4   18.71    5.72
   9  -5   4   24.98    2.92
  -9  -5  -4   25.27    5.24
  -9  -5  -4   21.44    5.26
   9  -5   4   20.63    5.89
  -9  -5  -4   16.53    5.06
  -9  -5  -4   30.41    4.84
   9   5   4   25.40    4.97
  -9   5  -4   18.35    5.44
  -9   5  -4   31.38    4.96
  -9   5  -4   29.51    5.11
  -9   5  -4   29.74    3.50
   9   5   4   25.48    3.76
  14  -6  -4  109.58   11.73
 -14  -6   4  118.02   10.99
 -14  -6   4  100.10    8.50
 -14  -6   4   96.87    8.44
  14  -6  -4  124.01   10.64
 -14  -6   4  111.82    9.02
  14  -6  -4   97.00    7.89
  14  -6  -4   97.76    8.89
  14  -6  -4  116.51    7.78
  14  -6  -4   95.66    9.36
  14   6  -4  103.79    9.18
 -14   6   4  108.28    8.65
  14   6  -4   79.26   10.59
 -14   6   4  107.23    8.69
  14   6  -4  116.14    7.73
  14   6  -4  117.80   13.22
 -14   6   4   99.10    9.71
  14   6  -4   95.89    7.16
 -14   6   4   90.48   11.47
 -12  -6   4   87.70    7.21
  12  -6  -4   80.75    7.66
  12  -6  -4   89.45    9.67
 -12  -6   4   82.36    7.15
 -12  -6   4  100.57   12.67
  12  -6  -4   92.03    6.78
 -12  -6   4   75.36    8.38
  12  -6  -4   83.52    8.39
  12  -6  -4   83.35    7.57
  12   6  -4   85.76    6.32
  12   6  -4   80.43    5.81
 -12   6   4   88.85    7.31
  12   6  -4   94.09    7.74
  12   6  -4   90.97   11.09
 -12   6   4   83.59    8.50
 -12   6   4   69.28    9.99
  12   6  -4   83.29    9.77
  10  -6  -4  143.18   10.73
  10  -6  -4  143.21   10.46
 -10  -6   4  131.16    9.22
 -10  -6   4  144.68    9.28
 -10  -6   4  138.89    9.37
 -10  -6   4  164.83   10.65
  10  -6  -4  131.38    8.57
 -10  -6   4  157.84   14.97
  10  -6  -4  133.07    9.39
 -10   6   4  125.68   12.93
  10   6  -4  137.84    9.57
  10   6  -4  126.18   11.14
 -10   6   4  167.57    9.35
  10   6  -4  135.79   11.79
 -10   6   4  153.07   10.00
 -10   6   4  127.37   10.07
  10   6  -4  161.66    8.81
  -8  -6   4  161.42   14.07
   8  -6  -4  160.43   10.82
  -8  -6   4  162.58    8.89
   8  -6  -4  152.12    9.77
  -8  -6   4  145.43    9.26
  -8  -6   4  155.12   10.45
   8  -6  -4  147.60   10.76
  -8  -6   4  165.27    9.23
   8  -6  -4  151.13    8.66
   8   6  -4  147.74   11.45
   8   6  -4  138.91   10.99
   8   6  -4  150.18    7.98
  -8   6   4  148.92   10.24
  -8   6   4  159.24   10.25
   8   6  -4  157.37    8.92
   8   6  -4  155.03    9.83
   6  -6  -4  195.86   12.23
   6  -6  -4  191.20    9.69
   6  -6  -4  188.91   11.08
   6  -6  -4  207.10   11.35
  -6  -6   4  197.15   10.23
  -6  -6   4  184.49    9.95
  -6  -6   4  192.02   15.31
   6  -6  -4  182.72   12.08
  -6  -6   4  174.61   10.94
   6   6  -4  197.01   11.27
   6   6  -4  170.30   12.39
   6   6  -4  165.24   12.40
  -6   6   4  204.31   10.81
  -6   6   4  182.02   11.72
   6   6  -4  190.65   10.42
  -6   6   4  207.52   11.68
  -4  -6   4  146.66   12.23
   4  -6  -4  154.87    9.10
  -4  -6   4  128.48    8.61
   4  -6  -4  132.96    8.73
   4  -6  -4  142.34    6.71
   4  -6  -4  162.17   10.18
   4  -6  -4  148.20    9.89
  -4   6   4  128.12    9.34
   4   6  -4  145.81    8.83
   4   6  -4  130.33    9.19
  -4   6   4  126.37    9.05
  -4   6   4  150.15    9.14
  -4   6   4  138.98    8.13
   4   6  -4  133.54    9.75
   4   6  -4  128.05    9.99
  -2  -6   4  166.73    9.88
  -2  -6   4  185.08   13.78
   2  -6  -4  161.43   11.22
   2  -6  -4  173.50   10.21
   2  -6  -4  190.82   11.60
   2  -6  -4  202.73   11.02
  -2   6   4  192.73   10.76
   2   6  -4  147.91   11.00
  -2   6   4  182.16    9.64
  -2   6   4  164.37   10.66
   2   6  -4  155.16   10.94
  -2   6   4  157.49   10.98
   0  -6  -4  148.52    9.54
   0  -6  -4  153.32   10.43
   0  -6  -4  165.95   10.69
   0  -6  -4  165.46    9.95
   0  -6   4  145.76    9.04
   0  -6  -4  154.53   10.20
   0   6  -4  139.83   10.69
   0   6   4  153.90    8.51
   0   6  -4  158.40    8.66
   0   6   4  157.19    9.95
   0   6  -4  160.80    9.52
   0   6   4  160.38    9.58
   0   6  -4  145.07   10.17
   0   6   4  135.49   10.08
  -2  -6  -4  113.54    8.14
  -2  -6  -4  130.66    9.20
  -2  -6  -4  109.43    9.01
  -2  -6  -4  128.44    8.57
  -2  -6  -4  101.62    8.69
   2  -6   4  119.88    7.19
   2  -6   4  108.69    7.43
  -2   6  -4  106.38    8.70
   2   6   4  115.81    7.79
   2   6   4  109.74    8.68
  -2   6  -4  119.75    8.05
  -2   6  -4  104.34    9.55
  -2   6  -4  109.54    8.02
  -2   6  -4  131.91    7.30
   2   6   4  122.76    6.90
   2   6   4  114.29    8.31
  -4  -6  -4   98.79    8.74
  -4  -6  -4   86.56    7.71
  -4  -6  -4  103.83    8.57
  -4  -6  -4  110.04    7.80
  -4  -6  -4   92.72    8.27
   4  -6   4   93.81    6.73
  -4   6  -4   86.29    9.04
   4   6   4  101.10    7.11
   4   6   4   93.22    7.79
  -4   6  -4  100.28    7.50
  -4   6  -4   94.78    7.80
  -4   6  -4   93.80    7.32
  -6  -6  -4   80.33    8.67
  -6  -6  -4   86.98    7.55
   6  -6   4   83.52    5.81
  -6  -6  -4   75.19    8.16
  -6  -6  -4   80.64    8.26
  -6  -6  -4   81.00    8.66
  -6   6  -4   89.91    6.07
  -6   6  -4   83.43    7.38
  -6   6  -4   78.64    9.35
   6   6   4   71.74    6.66
   6   6   4   77.23    7.34
  -6   6  -4   85.31    7.16
  -8  -6  -4   60.50    7.72
  -8  -6  -4   56.64    7.58
  -8  -6  -4   62.00    7.30
  -8  -6  -4   61.42    7.38
  -8  -6  -4   55.34    7.22
  -8   6  -4   62.91    5.51
  -8   6  -4   48.47    6.62
  -8   6  -4   61.25    7.96
   8   6   4   56.34    6.45
  -8   6  -4   50.94    7.59
  11  -7  -4   31.47    5.37
 -11  -7   4   26.38    4.88
 -11  -7   4   29.67    4.53
  11  -7  -4   34.78    4.99
  11  -7  -4   30.65    6.27
  11  -7  -4   30.75    4.24
 -11  -7   4   36.09    6.07
  11  -7  -4   34.72    6.26
 -11  -7   4   30.85    5.27
  11   7  -4   39.42    5.06
  11   7  -4   27.94    8.28
  11   7  -4   37.43    4.79
 -11   7   4   27.57    5.71
 -11   7   4   45.36    5.61
  11   7  -4   21.46    6.74
 -11   7   4   24.01    6.12
  11   7  -4   35.77    3.75
  -9  -7   4   33.46    4.18
   9  -7  -4   24.94    3.94
  -9  -7   4   26.72    7.67
   9  -7  -4   23.41    5.35
  -9  -7   4   25.24    4.03
   9  -7  -4   19.46    4.45
   9  -7  -4   23.77    3.64
  -9  -7   4   31.50    5.25
   9  -7  -4   27.19    5.24
  -9  -7   4   24.23    4.49
  -9   7   4   22.77    3.51
   9   7  -4   16.40    5.80
  -9   7   4   22.13    5.45
   9   7  -4   27.82    7.14
   9   7  -4   26.73    3.55
  -9   7   4   27.39    5.07
   9   7  -4   28.25    4.54
   7  -7  -4   30.67    3.75
  -7  -7   4   21.95    3.40
  -7  -7   4   30.01    4.62
   7  -7  -4   31.25    4.72
  -7  -7   4   31.09    5.30
   7  -7  -4   25.85    6.10
   7  -7  -4   40.13    4.97
   7  -7  -4   42.48    6.10
  -7  -7   4   36.90    7.44
  -7   7   4   37.23    4.99
  -7   7   4   29.31    5.49
  -7   7   4   33.46    4.46
   7   7  -4   35.85    4.11
   7   7  -4   26.42    6.02
   7   7  -4   31.75    4.69
   7   7  -4   35.62    7.16
   7   7  -4   39.48    4.44
   5  -7  -4   49.54    6.75
  -5  -7   4   37.82    5.29
   5  -7  -4   46.97    5.80
  -5  -7   4   51.67    6.54
  -5  -7   4   44.98    7.91
   5  -7  -4   52.65    5.59
   5  -7  -4   51.13    6.76
   5   7  -4   43.90    7.24
  -5   7   4   42.59    5.09
   5   7  -4   48.55    4.63
   5   7  -4   49.25    5.33
  -5   7   4   65.09    6.07
   5   7  -4   45.59    6.88
  -5   7   4   40.23    5.72
   5   7  -4   61.75    5.20
   3  -7  -4   66.45    8.21
   3  -7  -4   75.27    6.48
  -3  -7   4   62.73    5.96
  -3  -7   4   49.72    5.99
   3  -7  -4   67.87    7.74
   3   7  -4   64.10    5.86
  -3   7   4   60.20    6.08
   3   7  -4   58.20    7.63
   3   7  -4   63.35    5.98
  -3   7   4   67.80    7.43
   3   7  -4   60.50    8.17
  -3   7   4   68.95    6.54
   1  -7  -4   54.08    6.76
   1  -7  -4   63.77    6.21
  -1  -7   4   54.04    5.70
   1  -7  -4   43.28    5.67
   1  -7  -4   49.45    6.60
  -1  -7   4   52.41    5.46
   1  -7  -4   52.79    6.41
  -1   7   4   50.20    5.63
  -1   7   4   56.20    7.29
  -1   7   4   58.88    6.04
  -1   7   4   53.37    4.75
   1   7  -4   49.44    7.26
   1   7  -4   54.87    5.32
   1   7  -4   42.96    6.37
   1   7  -4   60.56    5.02
   1   7  -4   49.39    4.80
   1  -7   4   72.46    6.21
  -1  -7  -4   85.60    8.32
  -1  -7  -4   71.29    7.65
   1  -7   4   69.31    6.23
  -1  -7  -4   72.37    9.04
  -1  -7  -4   72.49    7.13
  -1  -7  -4   73.77    7.41
  -1   7  -4   72.65    5.63
  -1   7  -4   78.15    6.54
   1   7   4   74.24    6.72
  -1   7  -4   68.88    7.71
  -1   7  -4   73.53    8.61
   1   7   4   67.66    7.88
   1   7   4   67.42    6.80
   1   7   4   73.11    5.55
  -1   7  -4   67.09    8.13
  -3  -7  -4   52.60    6.73
  -3  -7  -4   58.72    7.29
  -3  -7  -4   64.41    7.90
   3  -7   4   57.98    5.48
   3  -7   4   47.12    5.71
  -3  -7  -4   56.09    7.49
  -3  -7  -4   43.03    5.99
   3   7   4   55.96    5.97
  -3   7  -4   57.56    5.28
  -3   7  -4   56.65    7.72
   3   7   4   47.59    6.01
  -3   7  -4   65.74    6.21
  -3   7  -4   51.76    6.12
  -3   7  -4   50.24    7.06
   3   7   4   60.45    4.75
   3   7   4   62.79    7.37
  -5  -7  -4   54.00    7.52
  -5  -7  -4   56.77    7.25
   5  -7   4   47.86    5.40
  -5  -7  -4   46.09    6.48
   5  -7   4   53.53    6.20
  -5  -7  -4   55.38    7.25
  -5  -7  -4   55.52    7.40
  -5   7  -4   50.56    4.99
  -5   7  -4   60.60    7.74
   5   7   4   49.84    7.43
  -5   7  -4   54.16    6.30
  -5   7  -4   43.91    7.96
   5   7   4   57.19    6.78
  -5   7  -4   48.17    6.78
  -8  -8   4   92.99   11.77
  -8  -8   4  115.65    9.63
   8  -8  -4   76.97    8.32
  -8  -8   4   83.28    8.32
   8  -8  -4   85.40    7.90
   8  -8  -4   87.69    6.60
   8  -8  -4  112.60   11.01
   8  -8  -4   87.76   11.69
   8   8  -4   88.17    7.43
  -8   8   4   73.96    9.46
   8   8  -4   80.09    8.81
   8   8  -4   81.87   11.18
   8   8  -4   87.08    7.23
  -8   8   4   84.83    7.47
   8   8  -4   72.32    9.83
  -8   8   4   74.50   10.43
   6  -8  -4   98.57    8.57
  -6  -8   4   86.62    8.46
  -6  -8   4  116.70    9.39
   6  -8  -4   92.09   11.72
   6  -8  -4  121.15   10.78
   6  -8  -4   89.40    8.50
  -6  -8   4  104.99   11.93
  -6   8   4   85.06    8.88
   6   8  -4   94.51   11.46
  -6   8   4   97.07    7.49
   6   8  -4  100.41    7.85
  -6   8   4  113.91    9.81
   6   8  -4   95.63    8.47
  -6   8   4   86.29    9.97
   6   8  -4   94.18   11.59
  -4  -8   4   98.47    8.07
   4  -8  -4   95.55   10.07
   4  -8  -4   78.73    8.05
  -4  -8   4   78.57    7.70
   4  -8  -4   90.72   11.09
   4   8  -4   82.20    7.26
   4   8  -4   79.32    6.47
  -4   8   4   90.17    8.71
  -4   8   4   87.16    6.79
   4   8  -4   83.93   10.80
   4   8  -4   85.61   10.68
  -4   8   4   65.57    9.45
   4   8  -4   77.14    7.88
  -4   8   4   77.14    9.25
  -2  -8   4   91.15    8.31
   2  -8  -4   98.54    9.19
   2  -8  -4   99.38   11.32
   2  -8  -4  109.74   10.86
   2  -8  -4  104.56    9.76
  -2  -8   4  109.51    8.90
   2  -8  -4  109.86    8.95
  -2   8   4   99.56    9.97
  -2   8   4  119.14    9.24
  -2   8   4  107.51    7.56
   2   8  -4   99.50    8.29
   2   8  -4  111.47    7.56
   2   8  -4   81.64   10.04
   2   8  -4   99.67    7.99
   2   8  -4   92.26   10.87
   0  -8   4   87.19    8.00
   0  -8  -4   98.04   10.81
   0  -8   4   99.80    8.31
   0  -8  -4  107.47    9.05
   0  -8  -4   84.20    9.36
   0  -8  -4  108.24   11.31
   0  -8  -4  101.75    9.13
   0   8  -4   91.15    7.57
   0   8   4   90.89    7.22
   0   8  -4   97.17    7.36
   0   8  -4  109.65    8.26
   0   8   4  105.81   10.55
   0   8  -4   97.80   11.31
   0   8  -4   82.35   11.19
   0   8   4  105.84    9.34
   2  -8   4   76.66    7.61
  -2  -8  -4   70.36    8.90
   2  -8   4   86.75    7.56
  -2  -8  -4   79.56    9.29
  -2  -8  -4   95.65   11.29
  -2  -8  -4   69.53    8.72
   2   8   4   89.15    9.59
   2   8   4   89.91    6.40
  -2   8  -4  100.00    7.16
  -2   8  -4   76.95    7.75
  -2   8  -4   87.47   10.51
   2   8   4   83.20    8.25
  -2   8  -4   72.43   10.40
   2   8   4   62.69   12.32
 -18   0   5   45.91    6.27
 -18   0   5   37.33    5.33
 -18   0   5   46.76    9.06
  18   0  -5   34.27    5.85
  18   0  -5   40.16    4.91
 -18   0   5   47.41    5.92
  18   0  -5   60.41    6.63
  18   0  -5   36.93    5.00
  18   0  -5   43.06    7.57
  16   0  -5   55.29    5.59
  16   0  -5   45.71    6.16
 -16   0   5   46.35    8.08
  16   0  -5   45.25    6.45
  16   0  -5   46.72    4.46
 -16   0   5   41.67    5.65
  16   0  -5   42.53    4.34
  16   0  -5   55.02    4.12
 -16   0   5   55.36    6.07
  14   0  -5   49.98    5.36
  14   0  -5   46.46    4.06
 -14   0   5   49.52    5.02
  14   0  -5   54.79    3.84
 -14   0   5   43.51    5.07
 -14   0   5   50.03    7.98
  14   0  -5   45.21    5.65
  14   0  -5   46.59    4.72
 -14   0   5   44.84    4.72
  14   0  -5   46.51    4.09
 -12   0   5   88.34    5.80
 -12   0   5   76.31    9.09
  12   0  -5   81.47    5.97
  12   0  -5   74.27    6.33
 -12   0   5   83.46    6.04
 -12   0   5   73.05    5.34
 -12   0   5   78.37    5.54
  12   0  -5   77.44    5.14
  12   0  -5   82.60    5.66
 -10   0   5  123.38   11.73
  10   0  -5  124.46    7.64
  10   0  -5  120.61    7.76
 -10   0   5  132.66    7.73
 -10   0   5  127.32    7.77
  10   0  -5  133.35    7.21
  10   0  -5  127.34    7.45
 -10   0   5  125.70    7.24
  10   0  -5  137.21    7.49
 -10   0   5  128.69    7.07
  -8   0   5   55.65    3.51
  -8   0   5   48.15    3.76
  -8   0   5   54.18    4.23
   8   0  -5   58.34    3.67
   8   0  -5   52.80    4.31
   8   0  -5   60.47    4.09
  -8   0   5   63.46    4.23
  -8   0   5   58.83    3.53
   8   0  -5   55.21    4.13
  -8   0   5   55.06    7.46
  -6   0   5   68.48    4.18
   6   0  -5   71.79    4.63
   6   0  -5   72.44    4.40
   6   0  -5   68.75    4.46
  -6   0   5   67.31    8.22
   6   0  -5   67.85    4.45
   6   0  -5   72.38    4.13
  -6   0   5   66.31    5.11
  -6   0   5   72.64    4.34
  -4   0   5   96.77    5.05
  -4   0   5   93.16   10.10
  -4   0   5   91.34    6.23
   4   0  -5  100.80    5.89
   4   0  -5   90.71    5.13
   4   0  -5   91.58    5.10
   4   0  -5   98.57    5.04
   4   0  -5   97.99    5.17
  -2   0   5  124.33    8.12
   2   0  -5  128.54    6.42
   2   0  -5  138.07    6.51
  -2   0   5  124.21   12.49
   2   0  -5  135.74    7.26
   2   0  -5  137.99    7.56
   2   0  -5  129.68    6.37
   2   0  -5  135.27    6.43
   0   0  -5   32.89    2.84
   0   0  -5   35.09    1.76
   0   0  -5   31.19    1.80
   0   0  -5   37.11    2.88
   0   0  -5   31.87    3.51
   0   0   5   27.76    6.39
   0   0   5   34.02    3.59
  -2   0  -5  131.13    6.93
  -2   0  -5  120.16    5.71
  -2   0  -5  115.36    7.53
   2   0   5   94.84   11.89
   2   0   5  115.77    7.88
  -2   0  -5  123.91    6.91
  -4   0  -5   66.27    3.55
  -4   0  -5   66.79    4.62
   4   0   5   64.69    5.74
  -4   0  -5   69.26    3.77
  -4   0  -5   64.71    3.83
  -4   0  -5   62.25    3.74
   4   0   5   58.34    9.94
  -4   0  -5   74.62    4.65
  -4   0  -5   62.65    5.58
  -6   0  -5   62.99    4.67
   6   0   5   63.72    5.88
  -6   0  -5   58.09    4.18
  -6   0  -5   59.17    4.09
  -6   0  -5   58.87    4.28
  -6   0  -5   54.62    5.65
  -6   0  -5   65.30    3.96
  -8   0  -5   37.60    3.92
  -8   0  -5   34.33    4.08
   8   0   5   36.39    4.99
  -8   0  -5   33.70    3.22
  -8   0  -5   39.15    3.54
  -8   0  -5   28.41    4.75
  -8   0  -5   32.50    4.14
   8   0   5   30.83    4.44
 -10   0  -5   27.50    4.17
 -10   0  -5   33.83    5.50
 -10   0  -5   33.56    4.43
 -10   0  -5   36.53    5.30
 -10   0  -5   38.07    4.92
  10   0   5   32.30    3.15
  10   0   5   26.43    4.83
 -10   0  -5   38.29    3.41
  17  -1  -5   82.94    7.22
 -17  -1   5   71.80   10.75
  17  -1  -5   72.27    5.94
 -17  -1   5   74.55    7.69
 -17  -1   5   70.01    7.05
 -17  -1   5   78.57    6.93
  17  -1  -5   69.43    7.37
  17  -1  -5   68.12    5.81
  17  -1  -5   69.54    9.30
  17   1  -5   65.09    5.69
  17   1  -5   78.77    6.98
 -17   1   5   62.95    6.75
 -17   1   5   75.71    7.68
  17   1  -5   72.88    9.14
  17   1  -5   70.94    5.81
 -17   1   5   87.72    7.11
 -17   1   5   68.73   10.03
  17   1  -5   77.61    7.85
  15  -1  -5  100.67    8.91
 -15  -1   5  108.58   12.20
  15  -1  -5  110.41    6.99
  15  -1  -5  112.55    7.78
 -15  -1   5  105.59    7.71
  15  -1  -5  108.58    7.10
  15  -1  -5  115.17    6.81
 -15  -1   5  105.81    7.35
  15  -1  -5   93.18    7.87
 -15  -1   5  116.61    8.41
  15   1  -5  104.79    8.19
  15   1  -5  111.60    7.62
 -15   1   5   92.62    7.32
 -15   1   5  107.87    8.18
  15   1  -5  117.24    7.08
 -15   1   5  102.40   11.42
 -15   1   5  109.89    7.83
  15   1  -5  106.37    8.97
  15   1  -5   99.28    6.80
  15   1  -5  111.46    6.67
  13  -1  -5  228.48   11.85
  13  -1  -5  241.89   12.09
  13  -1  -5  238.54   11.78
  13  -1  -5  188.13   12.28
 -13  -1   5  201.14   11.55
 -13  -1   5  218.68   17.75
 -13  -1   5  222.60   12.19
  13  -1  -5  226.02   12.41
  13  -1  -5  202.14   12.88
 -13  -1   5  233.14   12.87
 -13   1   5  190.60   11.67
  13   1  -5  210.35   12.88
 -13   1   5  225.15   12.70
  13   1  -5  229.91   12.26
 -13   1   5  229.87   12.23
  13   1  -5  231.61   11.67
  13   1  -5  225.94   11.80
  13   1  -5  222.33   11.64
 -13   1   5  207.66   17.04
 -11  -1   5  109.07    6.49
  11  -1  -5  103.20    7.09
  11  -1  -5  104.65    7.51
 -11  -1   5  113.48   11.33
  11  -1  -5  125.78    6.88
  11  -1  -5  121.58    7.22
 -11  -1   5  102.98    6.69
 -11  -1   5  109.73    8.00
  11  -1  -5  123.59    6.93
 -11  -1   5  115.26    6.78
  11   1  -5  119.09    6.62
  11   1  -5  118.66    7.03
 -11   1   5  116.50    6.88
 -11   1   5  111.96    7.43
  11   1  -5  120.39    6.74
  11   1  -5  107.98    7.29
  11   1  -5  119.48    6.76
 -11   1   5  106.29   11.06
  11   1  -5  108.96    7.50
 -11   1   5  105.16    6.72
  -9  -1   5  302.06   14.57
   9  -1  -5  320.34   15.27
  -9  -1   5  285.65   14.19
   9  -1  -5  312.03   14.85
   9  -1  -5  293.31   15.18
   9  -1  -5  286.44   14.89
   9  -1  -5  294.56   14.99
  -9  -1   5  295.04   20.44
  -9  -1   5  284.73   14.86
  -9  -1   5  308.66   15.22
   9   1  -5  270.92   14.89
  -9   1   5  285.99   20.39
  -9   1   5  314.51   15.25
  -9   1   5  273.51   14.43
  -9   1   5  297.94   14.68
   9   1  -5  281.64   15.03
   9   1  -5  305.88   14.61
   9   1  -5  303.99   14.98
  -9   1   5  291.26   15.63
   9   1  -5  302.95   14.88
  -7  -1   5  292.96   15.49
  -7  -1   5  296.87   14.11
   7  -1  -5  333.08   15.85
  -7  -1   5  274.99   14.88
  -7  -1   5  322.83   15.37
   7  -1  -5  300.17   15.34
   7  -1  -5  301.19   15.19
   7  -1  -5  341.30   15.29
  -7  -1   5  308.67   20.88
   7   1  -5  322.91   14.93
  -7   1   5  295.03   16.18
   7   1  -5  306.61   15.19
   7   1  -5  299.08   15.22
  -7   1   5  318.83   14.75
  -7   1   5  301.02   20.98
   7   1  -5  319.07   15.56
  -7   1   5  334.48   15.45
   7   1  -5  301.00   15.24
  -7   1   5  290.87   15.22
   5  -1  -5  362.66   16.24
   5  -1  -5  330.52   16.05
  -5  -1   5  320.68   15.76
  -5  -1   5  339.87   22.27
   5  -1  -5  337.21   16.34
   5  -1  -5  312.33   16.13
  -5  -1   5  355.33   16.09
  -5  -1   5  322.25   16.76
  -5   1   5  310.81   22.22
   5   1  -5  324.19   16.03
  -5   1   5  353.86   16.20
   5   1  -5  325.17   15.97
   5   1  -5  345.05   15.80
   5   1  -5  331.14   15.96
  -5   1   5  315.93   17.36
   5   1  -5  351.88   16.74
   3  -1  -5  231.23   11.49
   3  -1  -5  239.81   11.49
  -3  -1   5  221.82   17.12
   3  -1  -5  222.95   11.40
   3  -1  -5  241.02   11.30
  -3  -1   5  229.27   12.39
  -3   1   5  213.47   12.81
   3   1  -5  242.36   10.98
  -3   1   5  212.16   17.67
   3   1  -5  234.41   11.16
  -3   1   5  238.28   11.42
   3   1  -5  234.06   11.06
   3   1  -5  236.72   11.02
   3   1  -5  240.52   12.10
  -3   1   5  247.53   11.31
  -1  -1   5  298.79   21.72
   1  -1  -5  327.80   15.25
   1  -1  -5  327.28   15.06
   1  -1  -5  331.00   15.61
  -1  -1   5  327.69   16.69
   1  -1  -5  313.05   15.20
   1  -1  -5  318.62   15.35
   1   1  -5  342.75   16.11
   1   1  -5  278.23   15.86
  -1   1   5  351.93   14.90
  -1   1   5  285.25   22.45
   1   1  -5  324.83   16.01
  -1   1   5  343.49   14.97
  -1   1   5  302.91   17.05
   1  -1   5  217.17   17.98
  -1  -1  -5  233.04   10.96
   1  -1   5  231.00   12.79
  -1  -1  -5  234.64   11.17
  -1  -1  -5  232.34   10.99
  -1  -1  -5  235.68   11.22
  -1  -1  -5  210.20   12.36
  -1  -1  -5  241.88   11.57
   1   1   5  214.76   13.08
   1   1   5  207.51   18.45
  -1   1  -5  239.23   11.91
  -1   1  -5  254.60   12.10
  -1   1  -5  217.31   12.04
   3  -1   5  177.21   10.60
  -3  -1  -5  171.93    8.97
  -3  -1  -5  156.25   10.23
  -3  -1  -5  174.24    8.70
   3  -1   5  148.14   14.86
  -3  -1  -5  167.81    8.52
  -3  -1  -5  174.58    8.79
  -3  -1  -5  183.92    9.17
   3   1   5  170.96   10.78
  -3   1  -5  177.92    8.15
  -3   1  -5  182.28    9.61
  -3   1  -5  167.81    9.73
   3   1   5  153.64   16.41
  -3   1  -5  183.41    8.12
  -3   1  -5  186.42    9.40
  -5  -1  -5  118.31    7.11
  -5  -1  -5  115.24    6.42
  -5  -1  -5  108.25    7.88
  -5  -1  -5  116.91    6.62
   5  -1   5  116.39    8.30
  -5  -1  -5  111.48    6.54
   5   1   5  105.14    8.29
  -5   1  -5  123.14    6.08
  -5   1  -5  121.85    6.83
  -5   1  -5  113.80    7.56
  -5   1  -5  108.16    5.77
  -5   1  -5  127.97    8.10
   5   1   5  124.89    5.86
  -5   1  -5  117.46    5.83
   5   1   5  123.73    5.88
  -5   1  -5  118.65    6.08
  -7  -1  -5  108.64    8.51
  -7  -1  -5  112.31    6.96
  -7  -1  -5  120.76    7.85
   7  -1   5  109.77    8.03
  -7  -1  -5  120.55    6.94
   7  -1   5  115.15    8.62
  -7  -1  -5  118.91    6.93
  -7   1  -5  118.83    6.61
  -7   1  -5  114.46    8.14
   7   1   5  102.26    8.44
  -7   1  -5  111.93    6.46
  -7   1  -5  115.39    6.83
  -7   1  -5  117.65    6.41
  -7   1  -5  108.08    6.58
  -9  -1  -5   78.73    7.63
  -9  -1  -5   69.10    7.66
   9  -1   5   69.48    7.17
  -9  -1  -5   58.82    6.23
  -9  -1  -5   78.78    5.20
  -9  -1  -5   75.74    5.71
  -9  -1  -5   73.21    6.12
  -9   1  -5   73.72    6.93
   9   1   5   57.43    9.01
  -9   1  -5   66.86    6.08
  -9   1  -5   70.69    6.54
  -9   1  -5   76.21    5.59
  -9   1  -5   81.13    4.86
  -9   1  -5   81.31    5.21
  18  -2  -5   28.26    3.98
  18  -2  -5   28.39    6.75
 -18  -2   5   38.81    5.92
  18  -2  -5   26.93    5.34
 -18  -2   5   26.81   10.24
  18  -2  -5   26.29    3.84
 -18  -2   5   34.68    4.98
  18  -2  -5   33.53    6.36
 -18  -2   5   26.63    5.04
  18   2  -5   34.34    4.34
  18   2  -5   25.15    7.26
 -18   2   5   22.48    5.10
  18   2  -5   31.28    5.17
 -18   2   5   29.58    7.45
 -18   2   5   37.43    5.01
 -18   2   5   23.47    5.43
  18   2  -5   30.31    4.32
  18   2  -5   33.37    6.31
  16  -2  -5   27.89    4.78
 -16  -2   5   22.77    4.08
 -16  -2   5   31.26    7.12
  16  -2  -5   25.05    3.34
  16  -2  -5   27.61    5.51
 -16  -2   5   24.39    4.99
  16  -2  -5   28.87    3.70
  16  -2  -5   26.82    4.36
 -16  -2   5   17.58    4.04
  16  -2  -5   23.60    3.23
  16   2  -5   28.89    3.61
 -16   2   5   43.09    4.84
  16   2  -5   26.91    4.20
 -16   2   5   30.17    4.76
  16   2  -5   25.62    3.31
 -16   2   5   22.82    4.37
 -16   2   5   24.15    6.98
  16   2  -5   16.83    5.37
  16   2  -5   21.59    4.74
  14  -2  -5   26.10    3.18
  14  -2  -5   27.14    3.71
 -14  -2   5   17.55    5.07
  14  -2  -5   21.46    3.01
  14  -2  -5   16.86    3.55
  14  -2  -5   21.61    4.61
 -14  -2   5   22.09    6.89
 -14  -2   5   24.23    4.10
 -14  -2   5   16.94    3.05
  14   2  -5   22.38    2.79
 -14   2   5   22.37    3.66
 -14   2   5   21.98    3.16
  14   2  -5   20.61    3.30
 -14   2   5   25.79    3.95
  14   2  -5   17.03    4.51
  14   2  -5   25.35    3.17
  14   2  -5   16.65    3.94
  14   2  -5   25.56    3.10
 -14   2   5   21.46    6.27
  12  -2  -5   52.63    4.06
 -12  -2   5   43.40    7.28
 -12  -2   5   44.35    4.03
  12  -2  -5   53.34    4.77
 -12  -2   5   43.83    4.99
  12  -2  -5   52.43    4.16
 -12  -2   5   45.53    4.13
  12   2  -5   47.35    5.62
  12   2  -5   50.20    3.77
  12   2  -5   43.83    5.37
  12   2  -5   45.36    4.12
 -12   2   5   46.36    7.39
 -12   2   5   51.73    4.65
  12   2  -5   46.97    4.45
 -12   2   5   49.56    4.15
 -12   2   5   41.09    4.46
  12   2  -5   44.00    3.63
 -10  -2   5   89.04    5.29
 -10  -2   5   95.18   10.17
  10  -2  -5   96.88    5.96
  10  -2  -5   83.39    6.36
  10  -2  -5   87.20    6.12
 -10  -2   5   92.60    5.61
 -10   2   5   83.42    9.90
  10   2  -5   87.42    6.53
  10   2  -5   93.33    5.47
 -10   2   5   92.06    5.82
  10   2  -5   96.84    5.91
  10   2  -5   86.75    6.56
  10   2  -5   96.51    5.79
 -10   2   5   95.14    6.58
  10   2  -5   98.59    5.57
 -10   2   5   79.78    5.74
  -8  -2   5   55.67    3.31
  -8  -2   5   48.77    3.13
   8  -2  -5   56.32    4.00
  -8  -2   5   51.99    4.14
  -8  -2   5   56.98    4.32
   8  -2  -5   58.51    4.36
   8  -2  -5   53.17    4.51
   8  -2  -5   59.18    4.23
  -8  -2   5   52.70    7.22
   8   2  -5   58.80    3.60
   8   2  -5   50.98    5.01
   8   2  -5   52.31    3.46
   8   2  -5   50.37    4.32
  -8   2   5   50.97    4.61
  -8   2   5   54.77    3.69
   8   2  -5   49.88    4.38
  -8   2   5   46.94    3.87
   8   2  -5   54.87    3.84
  -8   2   5   54.83    4.12
  -8   2   5   52.25    7.74
  -6  -2   5   88.98    5.03
   6  -2  -5   78.26    5.34
  -6  -2   5   75.25    8.60
   6  -2  -5   82.81    4.97
  -6  -2   5   74.47    4.50
  -6  -2   5   81.33    4.92
   6  -2  -5   77.75    4.97
   6   2  -5   77.04    4.39
   6   2  -5   73.94    5.02
  -6   2   5   74.66    9.34
  -6   2   5   74.81    4.99
   6   2  -5   81.96    5.04
   6   2  -5   79.20    5.06
  -6   2   5   74.90    5.84
  -6   2   5   80.61    4.93
   6   2  -5   77.68    5.12
  -4  -2   5  107.63   10.54
   4  -2  -5  116.92    6.32
  -4  -2   5  118.43    6.63
   4  -2  -5  117.06    6.80
   4  -2  -5  109.18    6.10
  -4  -2   5  117.72    5.90
   4  -2  -5  105.49    6.38
  -4  -2   5  106.92    5.53
  -4   2   5  103.23   11.28
   4   2  -5  101.93    5.97
   4   2  -5  110.24    5.61
  -4   2   5  100.65    7.32
  -4   2   5  118.39    6.24
  -4   2   5  109.07    6.34
   4   2  -5  116.28    6.49
   4   2  -5  107.79    5.95
   4   2  -5  102.78    6.12
  -2  -2   5  139.91    7.92
  -2  -2   5  131.55   12.19
   2  -2  -5  138.56    7.07
   2  -2  -5  134.02    7.72
   2  -2  -5  132.60    7.42
   2  -2  -5  134.54    7.10
   2  -2  -5  137.00    7.47
   2   2  -5  137.76    6.58
  -2   2   5  128.01    8.72
   2   2  -5  132.16    6.60
  -2   2   5  141.59    7.16
   2   2  -5  147.62    7.83
  -2   2   5  121.68   13.06
  -2   2   5  137.07    7.41
   2   2  -5  128.47    6.92
   2   2  -5  140.29    7.68
   2   2  -5  138.79    6.53
   0  -2  -5   37.48    3.29
   0  -2  -5   34.76    2.77
   0  -2  -5   35.71    3.74
   0  -2   5   33.20    6.51
   0  -2  -5   42.47    2.67
   0  -2  -5   37.26    3.06
   0  -2   5   37.65    3.50
   0  -2  -5   33.00    4.07
   0   2  -5   32.32    3.36
   0   2  -5   38.59    2.12
   0   2   5   39.83    2.88
   0   2  -5   37.12    3.05
   0   2   5   38.98    2.65
   0   2   5   31.73    7.18
   0   2  -5   35.49    1.86
   0   2  -5   31.33    3.23
   0   2   5   29.24    3.88
  -2  -2  -5  103.48    5.47
  -2  -2  -5  100.35    5.85
   2  -2   5  103.36    6.93
   2  -2   5   90.85   10.93
  -2  -2  -5   95.67    5.76
  -2  -2  -5   87.03    6.28
  -2  -2  -5   83.43    6.90
   2   2   5  106.10    5.36
   2   2   5   90.47    7.16
   2   2   5   99.06    5.46
  -2   2  -5   96.90    6.05
   2   2   5   80.33   11.93
  -2   2  -5   97.71    4.78
  -2   2  -5   99.00    4.74
  -2   2  -5  113.22    6.48
  -2   2  -5  102.83    5.91
  -4  -2  -5   48.50    4.49
  -4  -2  -5   47.52    4.99
   4  -2   5   44.96    8.78
  -4  -2  -5   48.44    3.88
   4  -2   5   53.20    4.95
  -4  -2  -5   49.52    4.05
  -4   2  -5   49.28    3.10
  -4   2  -5   52.65    4.29
  -4   2  -5   51.82    3.72
   4   2   5   54.36    3.54
  -4   2  -5   58.28    4.49
  -4   2  -5   53.08    2.93
   4   2   5   50.23    5.25
  -6  -2  -5   37.30    3.98
  -6  -2  -5   40.48    5.75
  -6  -2  -5   37.66    4.29
  -6  -2  -5   49.91    5.76
  -6  -2  -5   41.44    4.16
  -6   2  -5   42.43    4.46
  -6   2  -5   45.74    3.38
  -6   2  -5   46.29    2.97
  -6   2  -5   47.24    3.51
  -6   2  -5   46.89    4.52
   6   2   5   35.20    4.70
  -6   2  -5   37.55    4.45
  -6   2  -5   46.65    3.45
  -8  -2  -5   26.23    3.74
  -8  -2  -5   25.70    3.29
  -8  -2  -5   25.36    5.02
  -8  -2  -5   28.89    3.83
  -8  -2  -5   25.95    4.83
   8  -2   5   26.33    4.87
  -8   2  -5   25.56    3.83
  -8   2  -5   29.27    3.67
  -8   2  -5   21.86    3.28
  -8   2  -5   32.16    3.04
  -8   2  -5   27.13    2.95
  -8   2  -5   26.53    3.37
   8   2   5   27.52    4.99
 -10  -2  -5   31.46    4.11
 -10  -2  -5   29.32    5.86
  10  -2   5   33.09    2.49
 -10  -2  -5   37.08    6.56
 -10  -2  -5   33.77    4.38
 -10  -2  -5   31.86    5.02
  10  -2   5   35.46    5.86
 -10   2  -5   28.73    4.70
  10   2   5   34.22    6.90
 -10   2  -5   37.99    4.08
 -10   2  -5   32.71    4.17
  10   2   5   38.44    4.22
 -10   2  -5   26.74    4.36
 -10   2  -5   31.38    4.80
  17  -3  -5   74.42    7.94
  17  -3  -5   82.57    6.63
  17  -3  -5   68.37    8.87
 -17  -3   5   80.11   14.61
  17  -3  -5   82.29    5.99
 -17  -3   5   71.69    7.50
  17  -3  -5   87.10    9.86
 -17  -3   5   83.81    8.88
 -17  -3   5   59.20    7.60
 -17   3   5   84.65    8.64
  17   3  -5   68.52    8.21
  17   3  -5   64.69    6.10
  17   3  -5   85.44    6.22
 -17   3   5   79.46    8.14
 -17   3   5   91.75    7.82
  17   3  -5   71.22    9.00
 -17   3   5   73.16   10.51
  17   3  -5   89.24    7.92
  15  -3  -5   88.42    9.22
 -15  -3   5  105.28    8.78
 -15  -3   5  102.72   12.62
 -15  -3   5  101.97    7.39
  15  -3  -5   97.00    7.93
  15  -3  -5  108.29    7.20
  15  -3  -5  118.03    7.34
  15  -3  -5  113.28    8.56
  15  -3  -5   78.13    9.36
  15   3  -5  111.19    7.95
 -15   3   5   86.88    7.94
  15   3  -5  102.33    9.96
 -15   3   5  108.98    8.40
  15   3  -5  105.71    6.74
 -15   3   5   98.85   11.66
 -15   3   5  111.98    7.76
  15   3  -5  105.48    6.81
  15   3  -5   85.38    8.58
 -13  -3   5  159.13    9.38
 -13  -3   5  178.16   10.86
  13  -3  -5  167.15   10.22
  13  -3  -5  184.56    9.95
 -13  -3   5  172.13   10.08
 -13  -3   5  150.85   10.07
 -13  -3   5  167.46   15.50
  13  -3  -5  154.97   10.98
 -13   3   5  151.42   14.25
  13   3  -5  171.71   10.07
 -13   3   5  155.96   10.16
  13   3  -5  152.84   10.91
 -13   3   5  185.16   10.28
 -13   3   5  171.85   10.65
  13   3  -5  157.81   11.21
  13   3  -5  184.72    9.51
 -11  -3   5   72.19    5.22
  11  -3  -5   62.55    7.43
  11  -3  -5   80.38    5.48
 -11  -3   5   63.42    5.73
 -11  -3   5   72.63    9.13
  11  -3  -5   79.41    6.28
 -11  -3   5   73.10    5.00
  11   3  -5   63.21    6.30
  11   3  -5   74.84    6.61
  11   3  -5   66.82    5.34
 -11   3   5   73.30    9.32
  11   3  -5   83.99    4.88
 -11   3   5   76.63    5.83
 -11   3   5   83.20    5.56
  11   3  -5   74.58    5.42
  11   3  -5   74.81    5.02
 -11   3   5   64.65    5.59
   9  -3  -5  150.29    9.65
   9  -3  -5  184.21    9.42
   9  -3  -5  179.27    9.92
  -9  -3   5  158.06    8.26
  -9  -3   5  168.14    8.64
  -9  -3   5  146.73    9.37
   9  -3  -5  157.53    9.26
  -9  -3   5  168.63   14.19
   9   3  -5  171.63    9.27
  -9   3   5  149.69   14.02
  -9   3   5  167.94    9.47
  -9   3   5  172.59    9.07
   9   3  -5  151.17    9.67
   9   3  -5  169.32    8.53
   9   3  -5  152.12    9.70
   9   3  -5  172.23    8.71
  -9   3   5  149.85    9.14
   9   3  -5  149.51    9.83
  -9   3   5  160.12   10.01
  -7  -3   5  143.51    8.87
   7  -3  -5  151.07    8.59
  -7  -3   5  149.61   13.01
   7  -3  -5  170.88    8.81
   7  -3  -5  152.05    9.06
   7  -3  -5  155.12    9.05
  -7  -3   5  165.43    9.01
  -7   3   5  148.54    9.66
  -7   3   5  168.71    8.38
   7   3  -5  164.46    7.94
   7   3  -5  161.33    8.64
   7   3  -5  155.45    8.10
   7   3  -5  156.10    8.85
  -7   3   5  156.23    8.92
   7   3  -5  142.18    8.85
  -7   3   5  137.09   13.61
   7   3  -5  143.80    9.03
  -7   3   5  143.40    8.44
   5  -3  -5  148.30    8.28
   5  -3  -5  146.14    8.65
  -5  -3   5  154.35    7.78
  -5  -3   5  145.08   12.62
   5  -3  -5  166.23    8.63
  -5  -3   5  137.69    8.65
  -5  -3   5  166.81    8.39
   5  -3  -5  155.04    8.77
  -5   3   5  136.63   13.84
  -5   3   5  163.44    8.56
   5   3  -5  143.51    8.32
   5   3  -5  142.57    8.59
   5   3  -5  149.60    8.36
  -5   3   5  153.67    7.85
   5   3  -5  161.13    7.80
   5   3  -5  154.04    8.46
  -5   3   5  148.72    9.65
  -5   3   5  146.23    8.04
   3  -3  -5  120.38    6.75
  -3  -3   5  109.22    5.57
   3  -3  -5  107.68    6.40
   3  -3  -5  108.86    6.84
   3  -3  -5  117.14    7.50
  -3  -3   5  114.38   10.91
  -3  -3   5  106.24    6.69
  -3  -3   5  119.20    5.88
  -3   3   5  115.69    6.48
   3   3  -5  107.67    6.22
  -3   3   5   96.47   11.56
   3   3  -5  110.42    5.73
   3   3  -5  119.20    6.82
  -3   3   5  103.85    7.69
  -3   3   5  106.71    5.73
   3   3  -5  110.65    6.48
   3   3  -5  105.69    6.51
   3   3  -5  111.62    6.24
  -3   3   5  110.74    5.54
   1  -3  -5  183.34   10.25
  -1  -3   5  181.74   10.35
   1  -3  -5  202.50   10.38
   1  -3  -5  193.06    9.21
   1  -3  -5  189.13    9.86
  -1  -3   5  189.12   15.12
   1  -3  -5  187.81   10.86
   1   3  -5  186.85    9.51
  -1   3   5  155.41   16.61
  -1   3   5  182.84   11.60
   1   3  -5  181.92    9.32
   1   3  -5  198.26    9.23
   1   3  -5  190.31    9.23
  -1   3   5  212.92   10.04
   1   3  -5  194.85   10.16
   1   3  -5  184.18    9.72
   1   3  -5  200.23   10.63
  -1  -3  -5  158.54   10.44
   1  -3   5  156.88   13.99
  -1  -3  -5  172.72   10.16
  -1  -3  -5  177.21    8.42
  -1  -3  -5  164.99    9.53
  -1  -3  -5  171.02    9.13
  -1  -3  -5  178.52    9.63
   1   3   5  168.49   10.99
  -1   3  -5  170.58    8.70
  -1   3  -5  177.73    8.18
  -1   3  -5  191.22    9.42
  -1   3  -5  171.21    8.73
   1   3   5  143.37   16.44
  -1   3  -5  172.57    8.30
  -1   3  -5  184.06   10.03
   3  -3   5  132.50   13.67
  -3  -3  -5  148.87    8.62
  -3  -3  -5  160.66    9.78
  -3  -3  -5  153.13    8.88
  -3  -3  -5  141.98   10.00
  -3  -3  -5  157.65    8.89
  -3   3  -5  153.74    8.17
  -3   3  -5  155.79    7.96
   3   3   5  165.21    8.38
  -3   3  -5  153.86    7.49
  -3   3  -5  149.94    7.64
   3   3   5  154.24   10.32
  -3   3  -5  153.62    7.68
  -3   3  -5  170.27    9.27
  -3   3  -5  157.77    8.54
  -5  -3  -5  129.20    9.24
  -5  -3  -5  126.72    9.15
  -5  -3  -5  135.81    8.18
  -5  -3  -5  125.00    8.14
  -5  -3  -5  127.46    8.19
   5   3   5  128.73    9.59
  -5   3  -5  138.14    7.63
  -5   3  -5  132.81    7.60
  -5   3  -5  155.06    8.79
  -5   3  -5  129.40    7.28
  -5   3  -5  139.97    7.02
  -5   3  -5  138.54    7.10
  -7  -3  -5  129.50   10.07
  -7  -3  -5  127.91    8.64
  -7  -3  -5  137.90   10.13
  -7  -3  -5  118.17    8.47
  -7   3  -5  139.86    7.75
  -7   3  -5  136.13    7.26
   7   3   5  134.21    7.77
  -7   3  -5  131.68    7.70
  -7   3  -5  138.73    8.06
   7   3   5  128.01    9.65
  -7   3  -5  136.91    8.91
  -7   3  -5  118.23    7.94
  -9  -3  -5   80.11    7.89
  -9  -3  -5   94.49    7.78
   9  -3   5   98.50    9.37
  -9  -3  -5   95.28    9.65
  -9  -3  -5   97.32    8.25
  -9  -3  -5   96.25   10.49
   9  -3   5   91.41    4.77
   9   3   5   89.65    9.84
  -9   3  -5   95.49    7.41
  -9   3  -5   85.84    7.61
  -9   3  -5   94.34    7.05
  -9   3  -5   96.79    6.17
  -9   3  -5   98.99    7.16
   9   3   5   99.50    6.58
 -16  -4   5   36.61    5.58
 -16  -4   5   40.58    6.43
 -16  -4   5   31.75   10.78
 -16  -4   5   32.52    4.97
  16  -4  -5   30.33    3.99
 -16  -4   5   32.29    5.08
  16  -4  -5   23.82    6.69
  16  -4  -5   32.31    4.24
  16  -4  -5   31.30    5.36
 -16   4   5   35.33    8.62
 -16   4   5   43.14    6.10
 -16   4   5   25.26    4.50
 -16   4   5   24.04    5.34
  16   4  -5   32.40    6.57
  16   4  -5   29.17    4.79
  16   4  -5   22.79    7.23
  16   4  -5   29.22    3.87
  16   4  -5   39.94    4.23
 -14  -4   5   28.18    7.58
 -14  -4   5   30.39    4.90
  14  -4  -5   21.05    5.54
  14  -4  -5   30.56    4.65
 -14  -4   5   32.58    4.29
 -14  -4   5   25.85    4.52
 -14  -4   5   25.23    3.89
  14  -4  -5   32.63    3.99
 -14   4   5   27.41    7.25
  14   4  -5   28.88    5.49
 -14   4   5   23.76    4.68
  14   4  -5   28.94    3.65
  14   4  -5   28.47    6.02
  14   4  -5   31.97    4.97
 -14   4   5   33.79    5.12
  14   4  -5   31.72    3.73
 -14   4   5   39.62    4.75
 -12  -4   5   44.37    5.13
  12  -4  -5   42.56    4.68
 -12  -4   5   50.09    4.66
 -12  -4   5   49.44    5.75
  12  -4  -5   43.92    5.79
  12  -4  -5   51.56    5.93
 -12  -4   5   42.10    8.00
 -12  -4   5   56.15    4.91
  12  -4  -5   39.09    5.24
  12   4  -5   49.03    4.15
 -12   4   5   57.14    5.69
  12   4  -5   44.28    5.80
  12   4  -5   51.94    5.05
 -12   4   5   44.02    5.75
 -12   4   5   44.08    8.10
 -12   4   5   50.28    4.89
  12   4  -5   48.74    6.26
  12   4  -5   58.17    3.81
  10  -4  -5   70.75    6.71
 -10  -4   5   60.71    5.61
 -10  -4   5   73.75    5.12
 -10  -4   5   74.04    9.34
 -10  -4   5   70.27    4.83
  10  -4  -5   82.70    6.48
  10  -4  -5   62.79    5.69
  10  -4  -5   71.75    5.37
  10   4  -5   70.90    5.70
  10   4  -5   71.53    6.85
 -10   4   5   62.91    5.87
  10   4  -5   78.67    4.59
  10   4  -5   63.12    6.81
 -10   4   5   63.17    9.09
 -10   4   5   77.44    5.98
 -10   4   5   83.58    5.60
  10   4  -5   69.43    4.91
  -8  -4   5   33.54    4.16
  -8  -4   5   42.30    7.01
   8  -4  -5   41.15    4.78
   8  -4  -5   44.64    3.90
   8  -4  -5   32.01    5.34
   8  -4  -5   41.57    4.16
   8   4  -5   39.23    4.72
   8   4  -5   33.79    3.83
  -8   4   5   35.87    7.49
  -8   4   5   34.26    3.57
   8   4  -5   39.15    5.24
  -8   4   5   44.89    4.40
  -8   4   5   49.01    4.39
  -8   4   5   36.64    4.35
   8   4  -5   43.43    3.25
   8   4  -5   40.60    2.77
   6  -4  -5   40.68    5.22
  -6  -4   5   49.39    7.22
   6  -4  -5   50.98    4.23
   6  -4  -5   45.51    4.24
   6  -4  -5   53.24    4.75
  -6  -4   5   54.23    4.38
  -6   4   5   47.19    4.88
  -6   4   5   42.23    8.07
   6   4  -5   47.77    4.90
   6   4  -5   39.41    5.26
  -6   4   5   56.12    4.48
   6   4  -5   48.57    5.25
  -6   4   5   44.43    4.40
   6   4  -5   48.13    3.42
   6   4  -5   49.65    2.88
  -6   4   5   48.44    3.72
  -4  -4   5   54.32    4.92
   4  -4  -5   70.57    5.44
   4  -4  -5   64.10    4.77
   4  -4  -5   63.53    5.78
  -4  -4   5   64.95    8.17
   4  -4  -5   65.71    4.96
   4   4  -5   67.69    4.09
  -4   4   5   60.91    5.71
   4   4  -5   59.96    5.46
   4   4  -5   62.41    5.24
  -4   4   5   57.46    9.24
   4   4  -5   66.56    3.34
   4   4  -5   62.72    5.02
  -4   4   5   69.38    4.18
  -4   4   5   67.42    4.82
   4   4  -5   65.29    4.58
   2  -4  -5   77.92    6.28
  -2  -4   5   83.39    9.42
   2  -4  -5   76.56    5.42
  -2  -4   5   82.69    4.43
   2  -4  -5   81.04    3.97
  -2  -4   5   70.10    5.56
   2  -4  -5   84.02    5.85
  -2  -4   5   84.15    4.69
   2   4  -5   76.44    5.23
   2   4  -5   82.10    3.81
  -2   4   5   71.32    6.34
   2   4  -5   83.22    4.69
  -2   4   5   72.02   10.61
   2   4  -5   71.74    5.71
   2   4  -5   75.32    5.47
   2   4  -5   79.51    3.73
   2   4  -5   73.09    5.65
   0  -4  -5   30.05    3.40
   0  -4   5   27.96    2.04
   0  -4   5   25.88    6.46
   0  -4   5   27.33    3.58
   0  -4  -5   27.89    3.71
   0  -4  -5   26.82    4.13
   0  -4   5   32.56    2.02
   0  -4  -5   34.91    3.71
   0  -4  -5   34.72    4.72
   0   4  -5   32.64    3.83
   0   4   5   24.68    4.09
   0   4  -5   31.40    1.71
   0   4  -5   25.52    3.48
   0   4  -5   30.47    3.01
  -2  -4  -5   77.11    6.35
   2  -4   5   80.01    3.68
  -2  -4  -5   76.34    5.78
   2  -4   5   67.65    9.42
   2  -4   5   76.20    5.62
  -2  -4  -5   68.34    6.66
  -2  -4  -5   68.67    5.52
  -2  -4  -5   68.72    7.35
  -2   4  -5   77.25    4.03
  -2   4  -5   77.03    4.68
  -2   4  -5   77.41    5.44
  -2   4  -5   68.39    5.71
   2   4   5   69.64    6.57
  -2   4  -5   78.20    4.51
  -4  -4  -5   49.57    6.00
  -4  -4  -5   39.53    5.62
  -4  -4  -5   49.29    5.02
  -4  -4  -5   52.93    5.61
  -4  -4  -5   43.22    4.84
  -4   4  -5   51.07    5.08
   4   4   5   47.24    4.18
  -4   4  -5   47.93    4.54
  -4   4  -5   48.77    3.37
  -4   4  -5   55.95    3.45
  -4   4  -5   50.77    4.86
  -4   4  -5   48.58    3.98
   4   4   5   47.67    5.58
  -6  -4  -5   52.17    5.32
  -6  -4  -5   49.48    6.59
  -6  -4  -5   43.22    5.16
  -6  -4  -5   38.43    6.07
  -6   4  -5   48.41    4.85
  -6   4  -5   47.97    3.92
   6   4   5   42.31    4.34
  -6   4  -5   49.75    4.66
   6   4   5   43.20    5.48
  -6   4  -5   43.83    5.50
  -6   4  -5   44.46    5.12
  -6   4  -5   43.01    3.50
  -8  -4  -5   27.63    6.07
  -8  -4  -5   26.73    5.09
  -8  -4  -5   26.23    6.59
  -8  -4  -5   31.27    4.36
   8  -4   5   25.78    2.17
  -8  -4  -5   27.02    4.65
  -8   4  -5   34.44    4.21
   8   4   5   29.50    7.50
  -8   4  -5   29.69    3.55
  -8   4  -5   31.87    4.16
  -8   4  -5   22.04    4.39
  -8   4  -5   29.24    4.12
   8   4   5   26.76    3.70
  15  -5  -5   66.61    6.68
 -15  -5   5   61.63    7.27
 -15  -5   5   68.01   14.13
 -15  -5   5   83.15    9.35
  15  -5  -5   71.28    6.25
 -15  -5   5   78.07    7.72
  15  -5  -5   53.97    8.59
  15  -5  -5   73.40    7.83
 -15  -5   5   59.83    7.45
  15   5  -5   67.42    5.94
  15   5  -5   79.93    5.80
  15   5  -5   59.75    9.42
 -15   5   5   60.44    8.31
 -15   5   5   59.34   10.47
 -15   5   5   68.41    8.19
  15   5  -5   58.07    7.45
  15   5  -5   62.91    8.47
 -15   5   5   70.05    7.02
 -13  -5   5  134.49   10.31
  13  -5  -5  117.87    9.22
  13  -5  -5  128.98   10.76
  13  -5  -5  137.64    8.90
 -13  -5   5  135.95   21.18
 -13  -5   5  137.59    8.71
 -13  -5   5  120.43    9.04
  13  -5  -5  141.56   10.37
  13   5  -5  132.18    8.32
 -13   5   5  124.34    9.67
  13   5  -5  114.71   11.28
 -13   5   5  138.72    8.94
 -13   5   5  137.23    9.77
  13   5  -5  103.87   10.28
  13   5  -5  124.44    9.09
 -13   5   5  114.06   12.93
  13   5  -5  128.94    8.19
  11  -5  -5  106.75    7.11
 -11  -5   5   92.03    7.36
 -11  -5   5   98.08   11.42
 -11  -5   5   95.83    7.97
  11  -5  -5  104.88    8.40
  11  -5  -5   91.92    7.50
 -11  -5   5   94.32    6.67
  11  -5  -5   85.44    8.63
  11   5  -5   80.40    8.75
  11   5  -5   92.29    5.74
  11   5  -5  103.39    6.35
 -11   5   5   95.93    7.56
 -11   5   5   83.51    7.65
  11   5  -5   86.44    9.47
  11   5  -5   99.47    7.13
 -11   5   5   81.73   10.45
  -9  -5   5  192.94   11.56
  -9  -5   5  204.79   16.78
   9  -5  -5  209.19   12.48
   9  -5  -5  184.37   12.17
   9  -5  -5  186.88   11.37
   9  -5  -5  217.62   11.61
   9   5  -5  205.65   10.73
  -9   5   5  208.18   11.38
   9   5  -5  205.97    9.98
  -9   5   5  212.19   11.84
  -9   5   5  180.05   11.95
  -9   5   5  187.63   11.65
  -9   5   5  165.64   16.30
   9   5  -5  190.41   12.28
   9   5  -5  200.66   11.46
   9   5  -5  178.14   13.61
   7  -5  -5  264.75   13.28
   7  -5  -5  224.07   12.71
  -7  -5   5  235.25   17.74
  -7  -5   5  228.64   12.93
   7  -5  -5  233.45   13.54
   7  -5  -5  248.61   13.88
   7   5  -5  228.39   12.69
   7   5  -5  212.87   13.23
  -7   5   5  210.76   13.67
   7   5  -5  239.35   11.17
  -7   5   5  204.28   18.67
  -7   5   5  257.64   13.32
   7   5  -5  239.92   12.26
   7   5  -5  209.11   13.51
  -7   5   5  213.56   12.85
  -7   5   5  251.92   12.40
   5  -5  -5  246.01   13.99
   5  -5  -5  239.65   13.78
  -5  -5   5  248.97   18.18
  -5  -5   5  239.42   13.34
   5  -5  -5  258.09   13.60
   5  -5  -5  261.20   14.25
  -5   5   5  209.12   19.54
  -5   5   5  261.64   13.56
  -5   5   5  234.70   13.18
  -5   5   5  218.78   14.18
   5   5  -5  222.92   13.50
   5   5  -5  249.22   13.52
   5   5  -5  222.73   13.77
  -5   5   5  267.13   12.69
   5   5  -5  261.29   12.58
   3  -5  -5  175.68   11.54
   3  -5  -5  201.30   11.80
   3  -5  -5  179.80   10.65
  -3  -5   5  188.78   10.91
  -3  -5   5  202.73   15.66
   3  -5  -5  210.90   11.36
   3   5  -5  184.43   10.68
   3   5  -5  170.52   11.21
   3   5  -5  204.37   10.16
  -3   5   5  217.13   10.16
  -3   5   5  163.93   17.46
   3   5  -5  188.02   11.14
  -3   5   5  178.04   12.05
   1  -5  -5  198.36   12.75
   1  -5  -5  226.26   12.86
   1  -5  -5  211.94   12.67
   1  -5  -5  213.42   11.81
  -1  -5   5  215.66   11.95
   1  -5  -5  221.28   12.42
  -1  -5   5  229.02   16.95
  -1   5   5  209.15   13.31
   1   5  -5  216.43   11.95
   1   5  -5  201.35   12.15
   1   5  -5  216.40   11.50
  -1  -5  -5  163.49    9.67
  -1  -5  -5  155.18   10.04
  -1  -5  -5  151.75   10.64
  -1  -5  -5  159.40   10.18
   1  -5   5  151.58    9.34
  -1  -5  -5  184.12   10.34
  -1   5  -5  168.73    8.67
   1   5   5  147.41   10.70
  -1   5  -5  152.08    9.72
  -1   5  -5  162.28    8.94
  -1   5  -5  140.57    9.47
  -3  -5  -5   96.94    8.65
  -3  -5  -5  106.17    7.72
  -3  -5  -5  109.37    8.00
  -3  -5  -5  111.70    8.59
   3  -5   5  104.72    7.24
  -3  -5  -5  102.78    8.28
  -3   5  -5  107.60    7.72
  -3   5  -5   95.41    7.75
  -3   5  -5  111.27    6.33
   3   5   5  111.35    7.00
   3   5   5  104.59    8.30
   5  -5   5   80.43    4.42
  -5  -5  -5   83.80    7.39
  -5  -5  -5   77.06    7.11
  -5  -5  -5   79.62    7.49
  -5  -5  -5   81.33    8.25
  -5   5  -5   83.54    5.22
   5   5   5   65.25    6.96
  -5   5  -5   77.03    6.94
  -5   5  -5   76.33    6.11
  -5   5  -5   71.47    7.51
   5   5   5   70.03    6.01
  -5   5  -5   76.54    6.96
  -7  -5  -5   64.33    6.85
   7  -5   5   59.61    3.83
  -7  -5  -5   68.54    7.48
  -7  -5  -5   59.00    7.76
  -7  -5  -5   59.58    7.33
   7   5   5   57.06    8.20
  -7   5  -5   61.64    7.16
  -7   5  -5   50.41    6.58
   7   5   5   48.04    5.59
  -7   5  -5   60.81    8.02
  -7   5  -5   68.92    5.84
 -12  -6   5   36.67    6.31
  12  -6  -5   46.08    5.99
  12  -6  -5   40.93    6.27
  12  -6  -5   36.45    9.02
 -12  -6   5   42.50    6.11
  12  -6  -5   45.76    5.41
  12  -6  -5   45.14    7.02
 -12   6   5   33.77    5.98
  12   6  -5   40.21    5.72
  12   6  -5   44.96    4.77
  12   6  -5   43.62    7.93
 -12   6   5   32.18    9.02
 -12   6   5   42.15    5.05
 -12   6   5   50.54    6.41
  12   6  -5   40.68    7.38
  12   6  -5   37.79    3.94
  10  -6  -5   54.83    7.06
  10  -6  -5   63.23    5.86
 -10  -6   5   58.61    9.37
 -10  -6   5   63.50    6.54
  10  -6  -5   57.18    7.23
  10  -6  -5   70.89    6.18
  10  -6  -5   56.21    6.56
 -10  -6   5   74.93    7.11
  10   6  -5   56.26    4.19
  10   6  -5   61.28    6.27
 -10   6   5   52.31    9.93
 -10   6   5   63.49    6.71
  10   6  -5   58.32    7.74
 -10   6   5   54.69    5.86
  10   6  -5   55.57    7.63
  10   6  -5   67.55    5.33
 -10   6   5   55.13    7.20
  -8  -6   5   47.73    8.17
  -8  -6   5   42.92    5.52
   8  -6  -5   54.40    6.50
   8  -6  -5   44.11    4.30
   8  -6  -5   49.43    5.03
  -8  -6   5   41.50    5.36
   8  -6  -5   40.73    5.55
   8  -6  -5   43.44    6.15
  -8   6   5   36.04    5.14
  -8   6   5   44.30    5.07
  -8   6   5   55.70    6.60
   8   6  -5   39.85    6.36
   8   6  -5   45.61    5.19
  -8   6   5   30.86    8.48
  -8   6   5   52.24    5.88
   8   6  -5   33.46    6.16
   8   6  -5   43.44    2.89
   8   6  -5   47.82    4.33
   6  -6  -5   52.78    5.73
   6  -6  -5   53.10    3.84
  -6  -6   5   72.67    5.74
   6  -6  -5   53.25    6.59
  -6  -6   5   50.65    7.79
  -6  -6   5   53.61    5.72
   6  -6  -5   70.84    6.96
   6  -6  -5   65.69    5.75
   6   6  -5   64.49    5.52
   6   6  -5   65.39    4.85
   6   6  -5   61.04    5.68
  -6   6   5   51.45    6.49
  -6   6   5   58.86    5.91
  -6   6   5   58.46    5.55
  -6   6   5   57.76    5.83
   6   6  -5   62.36    7.88
  -4  -6   5   69.50    5.94
   4  -6  -5   64.56    6.09
  -4  -6   5   71.63    9.36
  -4  -6   5   72.00    6.20
   4  -6  -5   71.22    7.28
   4  -6  -5   88.84    6.67
   4  -6  -5   58.83    7.54
   4   6  -5   85.62    6.28
  -4   6   5   77.34    6.29
  -4   6   5   62.86    6.53
   4   6  -5   70.49    6.43
  -4   6   5   69.44    6.58
   4   6  -5   74.90    7.20
   4   6  -5   65.79    7.55
  -4   6   5   70.76    5.30
   4   6  -5   64.71    7.91
   2  -6  -5   75.93    8.12
  -2  -6   5   64.03    9.14
   2  -6  -5   76.33    6.37
  -2  -6   5   83.85    5.78
  -2  -6   5   78.09    6.43
   2  -6  -5   78.05    7.58
   2  -6  -5   70.78    7.38
   2  -6  -5   87.38    6.81
   2   6  -5   66.21    7.64
  -2   6   5   69.97    6.44
   2   6  -5   80.96    6.04
   2   6  -5   65.11    7.63
   2   6  -5   74.03    6.68
  -2   6   5   78.25    6.24
   0  -6   5   38.93    4.99
   0  -6  -5   31.79    4.72
   0  -6   5   34.90    3.88
   0  -6  -5   39.33    4.87
   0  -6  -5   34.83    5.39
   0  -6  -5   34.76    5.33
   0  -6  -5   38.55    5.56
   0   6  -5   33.33    5.09
   0   6  -5   39.16    3.83
   0   6   5   33.38    4.97
   0   6  -5   34.87    5.25
   0   6  -5   49.13    5.18
   0   6   5   44.96    4.83
   0   6  -5   35.34    4.43
  -2  -6  -5   62.59    6.38
  -2  -6  -5   73.87    7.20
  -2  -6  -5   54.60    6.53
   2  -6   5   51.04    4.38
   2  -6   5   53.52    5.53
  -2  -6  -5   60.52    6.38
  -2  -6  -5   52.29    6.62
  -2   6  -5   60.83    7.30
   2   6   5   47.39    5.31
  -2   6  -5   53.30    6.07
  -2   6  -5   61.99    4.87
  -2   6  -5   63.21    6.19
  -2   6  -5   53.93    6.42
   2   6   5   60.40    6.43
  -4  -6  -5   38.44    5.32
  -4  -6  -5   38.07    6.39
  -4  -6  -5   33.95    5.71
  -4  -6  -5   46.37    6.29
  -4  -6  -5   46.49    6.58
   4  -6   5   36.10    4.87
  -4   6  -5   44.35    4.17
  -4   6  -5   34.02    5.46
  -4   6  -5   38.81    4.76
   4   6   5   44.37    5.46
  -4   6  -5   32.77    5.85
  -4   6  -5   40.39    5.16
  -9  -7   5   82.28    8.41
   9  -7  -5   84.32    8.16
  -9  -7   5   91.67    8.04
  -9  -7   5   92.97   11.89
   9  -7  -5   82.72   10.43
   9  -7  -5   95.55    7.74
   9  -7  -5   84.71    6.58
   9  -7  -5  118.42   10.17
   9   7  -5   78.36    9.97
  -9   7   5  105.27    7.30
  -9   7   5   80.25    8.76
  -9   7   5   88.48    8.80
   9   7  -5   94.92    8.16
  -9   7   5   79.67    9.28
   9   7  -5   93.06    7.00
   9   7  -5   74.81    9.76
  -7  -7   5   96.44    8.44
   7  -7  -5   87.35    7.58
  -7  -7   5   99.13   11.82
   7  -7  -5  104.57    9.79
  -7  -7   5   83.49    7.74
   7  -7  -5   78.34    9.99
   7  -7  -5   73.60    7.67
  -7   7   5   66.24    8.33
  -7   7   5   95.51    6.72
   7   7  -5  100.09   10.38
  -7   7   5   71.07    8.43
  -7   7   5   90.82    8.39
   7   7  -5   78.17   10.64
   7   7  -5   91.28    6.58
   7   7  -5   73.18    7.15
   7   7  -5   94.50    7.31
   5  -7  -5   75.21    7.53
  -5  -7   5   89.47   10.88
   5  -7  -5   97.00    7.68
  -5  -7   5   81.03    7.51
  -5  -7   5   85.19    7.63
   5  -7  -5   91.80    9.76
   5  -7  -5   98.90    9.74
  -5   7   5   79.03    8.63
   5   7  -5   80.27    7.03
   5   7  -5   86.25    9.80
   5   7  -5   90.28    7.19
  -5   7   5  104.24    8.26
   5   7  -5   83.82   10.50
   5   7  -5   88.30    6.55
   3  -7  -5   67.36    8.52
  -3  -7   5   67.72    6.24
   3  -7  -5   66.75    9.00
   3  -7  -5   77.50    7.58
  -3  -7   5   88.82    7.04
   3  -7  -5   74.62    8.29
   3   7  -5   67.20    6.92
  -3   7   5   86.47    7.36
   3   7  -5   77.35    8.92
  -3   7   5   74.31    5.85
   3   7  -5   75.33    8.29
  -3   7   5   72.41    8.19
   3   7  -5   68.95    8.84
   1  -7  -5  107.91    9.94
   1  -7  -5  102.90    8.61
  -1  -7   5   91.77    7.90
   1  -7  -5   92.40    9.21
   1  -7  -5   88.82   10.08
  -1  -7   5  106.59    7.45
   1  -7  -5   96.58    8.73
   1   7  -5  117.31    8.28
   1   7  -5   76.43    9.69
   1   7  -5  105.72    8.74
  -1   7   5  108.25    8.49
   1   7  -5   91.11   10.07
   1   7  -5  103.80    7.13
  -1  -7  -5   86.99    9.38
  -1  -7  -5   86.61    8.57
   1  -7   5   89.24    7.90
   1  -7   5   93.89    6.67
  -1  -7  -5   86.58    9.99
  -1  -7  -5   80.96    9.79
  -1  -7  -5   95.16    8.84
  -1   7  -5   96.92    6.84
   1   7   5   98.99    7.64
   1   7   5   74.71    9.06
  -1   7  -5   92.47    7.99
  -1   7  -5   76.31    9.89
  -1   7  -5   84.72    9.91
  -1   7  -5   90.30    8.56
  18   0  -6   37.36    4.25
  18   0  -6   31.82    5.96
  18   0  -6   39.56    5.66
 -18   0   6   42.34    5.81
 -18   0   6   37.57   11.47
 -18   0   6   34.88    5.42
  18   0  -6   31.75    4.10
 -18   0   6   44.77    6.48
  18   0  -6   37.31    7.16
  16   0  -6   80.49    8.98
  16   0  -6   96.94    7.44
 -16   0   6   75.92   11.08
  16   0  -6   87.41    6.38
 -16   0   6   86.62    8.03
 -16   0   6   85.67    7.02
  16   0  -6   79.84    7.96
  16   0  -6   88.02    6.60
 -14   0   6  137.36    8.25
  14   0  -6  126.58    7.80
  14   0  -6  118.49    8.24
  14   0  -6  131.84    8.88
 -14   0   6  114.64    7.73
  14   0  -6  115.70    9.19
 -14   0   6  132.60    8.93
  14   0  -6  129.54    7.74
  14   0  -6  114.87    8.59
 -14   0   6  114.83   12.99
 -12   0   6  177.21   16.56
 -12   0   6  198.74   11.45
  12   0  -6  207.60   11.14
  12   0  -6  216.77   11.21
  12   0  -6  190.81   11.79
  12   0  -6  181.77   11.34
  12   0  -6  210.18   10.88
 -12   0   6  204.64   10.82
  12   0  -6  208.94   11.37
  10   0  -6  155.25    9.08
  10   0  -6  167.36    8.72
 -10   0   6  150.92   14.47
  10   0  -6  151.24    9.42
 -10   0   6  158.42    9.57
  10   0  -6  174.89    9.33
  10   0  -6  148.49    9.12
   8   0  -6  272.13   13.08
  -8   0   6  246.11   14.07
  -8   0   6  266.34   13.48
   8   0  -6  265.47   13.37
  -8   0   6  246.63   19.69
   8   0  -6  270.59   13.82
   8   0  -6  251.21   13.23
   8   0  -6  255.86   13.33
   6   0  -6  283.90   14.43
  -6   0   6  274.66   21.36
   6   0  -6  314.06   14.39
  -6   0   6  283.18   15.68
   6   0  -6  287.48   14.44
   6   0  -6  300.56   14.47
  -6   0   6  296.20   14.29
  -6   0   6  306.68   14.40
   4   0  -6  223.64   11.04
   4   0  -6  246.35   11.17
  -4   0   6  247.72   10.71
   4   0  -6  215.64   10.99
  -4   0   6  213.94   12.80
  -4   0   6  206.14   18.18
   4   0  -6  226.01   11.12
  -4   0   6  229.44   10.68
   2   0  -6  170.28    8.28
   2   0  -6  176.71    9.32
  -2   0   6  163.52   15.96
   2   0  -6  174.09   10.36
   2   0  -6  181.96    8.43
  -2   0   6  154.19   10.26
   0   0  -6  245.02   13.43
   0   0   6  226.22   13.59
   0   0  -6  248.24   12.33
   0   0  -6  243.27   11.18
   0   0   6  208.86   19.40
   0   0  -6  244.23   11.00
   0   0  -6  224.73   12.99
   2   0   6  128.05   15.04
  -2   0  -6  142.95    6.95
   2   0   6  136.39    9.37
  -2   0  -6  133.68    9.05
  -2   0  -6  154.37    8.28
  -4   0  -6  107.50    5.73
   4   0   6  101.14    8.04
  -4   0  -6  102.18    5.63
  -6   0  -6   83.33    8.05
  -6   0  -6   98.43    5.88
  -6   0  -6  102.44    5.96
  -6   0  -6   96.68    8.18
   6   0   6   96.08    8.19
  -8   0  -6   70.14    5.47
  -8   0  -6   74.25    5.82
  -8   0  -6   68.21    5.09
  -8   0  -6   70.02    6.23
  -8   0  -6   69.27    5.52
  -8   0  -6   76.75    8.22
   8   0   6   60.24    8.88
 -17  -1   6   22.94    5.06
 -17  -1   6   28.77   10.01
  17  -1  -6   32.07    5.41
  17  -1  -6   33.89    5.19
  17  -1  -6   34.99    6.56
 -17  -1   6   31.41    4.73
  17  -1  -6   29.80    4.16
 -17  -1   6   30.62    4.94
  17  -1  -6   34.82    4.23
 -17   1   6   31.07    4.97
  17   1  -6   32.54    3.95
 -17   1   6   35.65    5.25
 -17   1   6   39.80    5.54
  17   1  -6   35.31    4.46
  17   1  -6   30.51    6.88
  17   1  -6   35.34    5.48
  17   1  -6   38.31    4.67
  17   1  -6   34.41    5.03
 -17   1   6   28.14    7.87
  15  -1  -6   27.29    3.79
 -15  -1   6   22.63    3.61
  15  -1  -6   29.39    3.99
  15  -1  -6   42.03    5.41
  15  -1  -6   34.61    5.57
 -15  -1   6   32.15    7.11
 -15  -1   6   26.50    4.52
  15  -1  -6   26.13    4.44
  15   1  -6   27.55    4.10
  15   1  -6   27.30    3.34
 -15   1   6   31.28    7.43
 -15   1   6   27.14    4.30
  15   1  -6   26.07    5.27
 -15   1   6   24.84    4.42
 -15   1   6   28.98    4.14
  15   1  -6   31.12    3.65
  15   1  -6   30.68    4.84
 -15   1   6   20.35    3.90
  13  -1  -6   28.09    4.56
 -13  -1   6   22.10    3.18
  13  -1  -6   32.50    4.15
  13  -1  -6   25.77    3.37
 -13  -1   6   16.87    2.82
  13  -1  -6   28.80    3.48
  13  -1  -6   28.02    3.96
 -13  -1   6   26.18    6.55
  13   1  -6   30.60    3.19
 -13   1   6   26.14    3.26
  13   1  -6   25.13    4.08
  13   1  -6   27.40    3.14
  13   1  -6   27.47    4.50
 -13   1   6   25.48    6.89
 -13   1   6   25.16    4.00
  13   1  -6   31.65    3.88
 -13   1   6   22.52    3.29
 -13   1   6   23.87    3.96
 -11  -1   6   58.41    8.40
  11  -1  -6   49.73    5.74
  11  -1  -6   63.42    4.79
  11  -1  -6   59.46    5.23
  11  -1  -6   62.47    5.03
  11   1  -6   56.11    5.57
  11   1  -6   68.52    4.83
  11   1  -6   64.31    4.93
 -11   1   6   61.98    9.15
  11   1  -6   67.12    5.06
  11   1  -6   58.19    5.36
 -11   1   6   63.90    4.55
  11   1  -6   63.80    4.34
 -11   1   6   61.10    5.50
  -9  -1   6   74.69    5.31
   9  -1  -6   69.10    5.58
   9  -1  -6   73.97    5.37
   9  -1  -6   84.14    5.12
   9  -1  -6   82.91    5.56
  -9  -1   6   63.67    9.05
  -9  -1   6   70.04    5.28
   9   1  -6   82.34    4.77
   9   1  -6   72.98    5.40
  -9   1   6   73.46    9.92
   9   1  -6   65.64    5.27
   9   1  -6   82.55    5.30
   9   1  -6   53.72    5.93
  -9   1   6   72.83    5.85
  -7  -1   6   38.85    7.33
   7  -1  -6   46.34    3.40
   7  -1  -6   44.16    3.65
   7  -1  -6   43.53    3.92
   7  -1  -6   38.85    3.84
  -7  -1   6   44.16    4.01
  -7  -1   6   45.95    3.61
   7  -1  -6   48.37    4.23
   7   1  -6   43.45    2.99
  -7   1   6   36.27    4.07
   7   1  -6   37.31    3.73
   7   1  -6   43.04    3.76
   7   1  -6   43.68    3.72
  -7   1   6   44.26    4.38
   7   1  -6   42.54    4.32
  -7   1   6   33.68    7.34
  -5  -1   6   87.94    4.65
  -5  -1   6  102.96    4.92
  -5  -1   6   87.35    6.11
   5  -1  -6   86.98    5.45
  -5  -1   6   88.02   10.63
   5  -1  -6   89.47    5.30
   5  -1  -6   93.36    5.25
   5   1  -6   72.06    6.30
  -5   1   6   86.73    6.65
  -5   1   6   88.88    5.24
  -5   1   6   79.92   10.67
   5   1  -6   90.70    4.85
   5   1  -6   90.03    5.27
  -5   1   6   91.57    5.20
   5   1  -6   89.93    5.15
   5   1  -6   92.69    5.16
   3  -1  -6   86.30    6.82
   3  -1  -6   84.39    5.24
   3  -1  -6   95.70    5.32
  -3  -1   6   80.20   10.61
   3  -1  -6   96.76    5.51
   3  -1  -6   90.57    5.05
  -3  -1   6   97.64    6.52
   3   1  -6   90.46    4.87
   3   1  -6   90.44    5.84
   3   1  -6   89.93    4.33
  -3   1   6   94.82    4.85
  -3   1   6   95.57    4.73
  -3   1   6   85.40    6.74
   3   1  -6   87.71    4.30
   3   1  -6   93.03    4.65
  -3   1   6   83.86   11.07
  -1  -1   6  103.88    7.11
   1  -1  -6  102.76    5.38
   1  -1  -6  103.85    5.36
   1  -1  -6  101.83    7.51
   1  -1  -6   93.13    7.15
   1  -1  -6  104.77    6.09
   1  -1  -6  105.28    5.69
  -1  -1   6   90.32   11.61
  -1   1   6   90.63   12.12
   1   1  -6  104.20    4.88
  -1   1   6   97.01    7.37
   1   1  -6  101.19    6.48
   1   1  -6  100.75    6.87
   1   1  -6  104.47    4.81
  -1  -1  -6   35.48    5.05
  -1  -1  -6   46.12    2.61
  -1  -1  -6   47.09    3.71
  -1  -1  -6   43.16    2.47
  -1  -1  -6   46.91    3.20
  -1  -1  -6   31.61    4.29
   1  -1   6   41.94    4.59
   1  -1   6   38.97    8.40
  -1  -1  -6   48.27    3.03
  -1   1  -6   54.20    4.73
   1   1   6   37.71    8.85
   1   1   6   39.05    4.77
  -1   1  -6   43.23    4.28
  -1   1  -6   41.58    4.75
  -3  -1  -6   79.38    5.01
  -3  -1  -6   88.88    7.26
  -3  -1  -6   92.55    5.57
  -3  -1  -6   84.05    5.75
   3  -1   6   86.11    6.84
  -3  -1  -6   81.33    4.46
  -3  -1  -6   82.93    5.04
   3  -1   6   71.27   11.30
  -3   1  -6   86.86    4.18
  -3   1  -6   83.07    4.22
  -3   1  -6   81.68    5.81
  -3   1  -6   83.20    6.53
   3   1   6   71.00   11.98
   3   1   6   75.22    6.80
  -3   1  -6   82.58    6.36
  -5  -1  -6   60.42    4.87
  -5  -1  -6   48.09    6.66
  -5  -1  -6   44.95    4.10
   5  -1   6   60.99    5.89
  -5  -1  -6   45.83    4.13
  -5  -1  -6   56.03    4.47
  -5   1  -6   56.64    5.05
   5   1   6   56.75    6.11
  -5   1  -6   54.46    3.65
  -5   1  -6   57.02    4.95
  -5   1  -6   53.83    6.25
  -5   1  -6   57.80    3.46
  -7  -1  -6   32.80    4.21
   7  -1   6   29.29    7.52
  -7  -1  -6   30.60    3.78
  -7  -1  -6   30.07    5.70
  -7  -1  -6   31.60    4.12
  -7  -1  -6   45.50    4.36
  -7  -1  -6   30.73    3.90
  -7   1  -6   37.67    3.40
   7   1   6   28.69    6.41
  -7   1  -6   37.70    3.83
  -7   1  -6   41.85    3.93
  -7   1  -6   33.19    5.29
  16  -2  -6   91.45    6.96
  16  -2  -6   71.05    9.55
 -16  -2   6   67.33   15.59
  16  -2  -6   86.09    8.22
 -16  -2   6   93.30    8.69
  16  -2  -6  105.63    7.12
 -16  -2   6  103.38    9.62
 -16  -2   6   86.47    7.41
  16  -2  -6  105.06    8.47
  16   2  -6   93.23    7.70
  16   2  -6   95.63    6.67
  16   2  -6   95.58    6.57
  16   2  -6   93.79    6.46
 -16   2   6   90.73    8.88
 -16   2   6   77.00   11.19
  16   2  -6   88.66    8.87
  16   2  -6   88.09    9.40
  14  -2  -6   92.37    8.66
  14  -2  -6  124.97    7.59
  14  -2  -6  114.18    8.22
  14  -2  -6  104.64    8.10
 -14  -2   6   98.87   12.25
  14  -2  -6  116.21    7.27
 -14  -2   6  106.13    8.21
 -14   2   6  111.22    8.14
  14   2  -6  113.01    7.07
 -14   2   6  106.14    8.89
  14   2  -6  107.76    8.65
 -14   2   6   96.46   11.98
 -14   2   6  118.14    8.04
  14   2  -6  113.21    7.04
  14   2  -6  107.47    9.33
 -14   2   6  116.35    8.35
  14   2  -6  107.34    7.72
 -12  -2   6  138.07   14.03
  12  -2  -6  133.69    8.90
  12  -2  -6  151.42    8.69
  12  -2  -6  130.13    9.42
  12  -2  -6  157.91    9.19
 -12   2   6  139.49    8.93
  12   2  -6  146.67    8.74
 -12   2   6  149.71    8.63
  12   2  -6  129.02    9.31
  12   2  -6  144.98    8.14
 -12   2   6  145.97    9.45
 -12   2   6  131.15   13.77
  10  -2  -6  103.86    6.80
 -10  -2   6   93.97   11.03
  10  -2  -6   91.65    6.95
  10  -2  -6   97.95    6.70
  10   2  -6   91.78    6.92
  10   2  -6  108.31    6.00
 -10   2   6   84.48    5.78
 -10   2   6   96.56    7.13
  10   2  -6  102.20    5.88
 -10   2   6   83.01   11.07
  10   2  -6   92.93    6.99
   8  -2  -6  155.54    9.40
   8  -2  -6  180.46    9.11
   8  -2  -6  161.98    8.98
  -8  -2   6  146.52   14.15
  -8  -2   6  177.83    9.15
  -8   2   6  156.74   10.20
   8   2  -6  160.67    9.21
   8   2  -6  131.38    9.84
   8   2  -6  163.69    9.17
   8   2  -6  166.12    9.17
   8   2  -6  162.99    8.48
  -8   2   6  149.43   14.98
   6  -2  -6  180.99   10.92
  -6  -2   6  198.26   10.39
  -6  -2   6  169.82    9.35
  -6  -2   6  214.35    9.99
   6  -2  -6  191.28   10.63
   6  -2  -6  208.88   10.33
   6  -2  -6  186.00   10.01
  -6  -2   6  194.13   16.28
   6   2  -6  182.77    9.94
  -6   2   6  183.37   11.59
   6   2  -6  193.13    9.92
   6   2  -6  181.31   10.10
   6   2  -6  193.36    9.56
  -6   2   6  163.50   16.29
  -6   2   6  208.70   10.28
   4  -2  -6  162.87    9.01
  -4  -2   6  172.42    9.39
   4  -2  -6  172.19    8.80
   4  -2  -6  155.90    8.80
  -4  -2   6  139.80   14.01
   4  -2  -6  157.25    8.41
  -4   2   6  132.93   14.89
   4   2  -6  171.41    9.17
   4   2  -6  163.26    7.98
   4   2  -6  164.41    7.89
  -4   2   6  154.34   10.29
   4   2  -6  159.87    8.07
   4   2  -6  154.32    8.37
  -2  -2   6  132.17   13.50
   2  -2  -6  137.96    7.32
   2  -2  -6  129.52    7.57
   2  -2  -6  138.95    7.64
  -2  -2   6  142.62    8.56
   2  -2  -6  136.33    7.26
   2   2  -6  134.81    6.97
   2   2  -6  136.94    6.52
  -2   2   6  149.49    7.17
  -2   2   6  123.12   14.29
  -2   2   6  125.41    9.16
  -2   2   6  115.04    7.15
   2   2  -6  144.23    8.04
   2   2  -6  124.99    7.83
   2   2  -6  147.97    8.28
   0  -2   6  181.17   17.52
   0  -2  -6  216.32   11.26
   0  -2  -6  212.02   10.83
   0  -2  -6  223.90   11.33
   0  -2  -6  229.99   10.97
   0  -2  -6  216.31   10.98
   0  -2   6  227.36   12.56
   0   2  -6  224.61   11.71
   0   2   6  226.91   10.55
   0   2  -6  214.88   10.14
   0   2  -6  210.76   11.77
   0   2  -6  218.66    9.96
   0   2   6  226.49   10.61
   0   2  -6  221.95   11.64
   0   2   6  200.02   13.03
   0   2   6  180.47   19.10
  -2  -2  -6  145.44    8.14
   2  -2   6  138.37    9.23
   2  -2   6  129.17   14.69
  -2  -2  -6  146.93    7.66
  -2  -2  -6  136.79    7.91
  -2  -2  -6  128.23    9.54
  -2  -2  -6  133.89    7.53
  -2   2  -6  141.12    8.39
  -2   2  -6  141.71    8.22
  -2   2  -6  138.53    6.58
  -2   2  -6  138.43    6.66
   2   2   6  130.25    9.70
  -2   2  -6  146.03    8.63
   2   2   6  143.06    6.82
  -4  -2  -6   95.50    6.83
   4  -2   6   89.13   13.13
  -4  -2  -6   98.75    6.07
  -4  -2  -6  103.46    6.51
  -4  -2  -6  101.21    6.39
   4  -2   6  110.07    8.02
  -4  -2  -6   96.47    8.44
  -4   2  -6  105.02    7.12
  -4   2  -6  103.12    5.17
   4   2   6   93.61    7.79
   4   2   6   92.73    5.04
  -4   2  -6  109.83    7.12
  -4   2  -6  103.11    5.40
  -6  -2  -6   96.79    7.54
  -6  -2  -6   95.14    6.88
  -6  -2  -6   91.95    9.01
  -6  -2  -6   87.55    6.33
  -6  -2  -6   92.44    6.60
  -6   2  -6   94.30    5.44
  -6   2  -6  103.51    7.30
  -6   2  -6  107.71    7.43
  -6   2  -6   76.45    8.24
  -6   2  -6   95.87    5.75
  -8  -2  -6   61.53    8.59
  -8  -2  -6   73.78    6.09
  -8  -2  -6   68.97    6.57
  -8  -2  -6   63.57    8.13
  -8   2  -6   77.68    5.91
  -8   2  -6   71.79    5.44
  -8   2  -6   70.16    5.04
  -8   2  -6   66.38    7.33
  15  -3  -6   44.85    6.16
  15  -3  -6   55.70    5.35
  15  -3  -6   37.79    6.72
  15  -3  -6   57.41    6.72
 -15  -3   6   42.52    5.96
  15  -3  -6   48.48    5.30
  15  -3  -6   38.72    5.12
 -15  -3   6   34.34   12.46
  15   3  -6   36.94    6.86
  15   3  -6   44.16    4.33
 -15   3   6   55.21    5.52
 -15   3   6   41.71    8.64
 -15   3   6   49.42    6.53
  15   3  -6   41.24    6.33
 -15   3   6   40.78    5.38
  15   3  -6   49.61    4.66
  15   3  -6   43.08    5.43
  13  -3  -6   42.52    5.73
  13  -3  -6   43.86    5.88
  13  -3  -6   40.72    4.70
 -13  -3   6   43.97    8.62
 -13  -3   6   51.17    5.82
 -13   3   6   49.96    5.37
  13   3  -6   44.68    6.07
 -13   3   6   53.32    6.01
 -13   3   6   47.71    5.50
  13   3  -6   44.79    4.30
  13   3  -6   52.13    4.23
  13   3  -6   46.18    5.02
 -13   3   6   47.39    5.90
  13   3  -6   48.31    4.18
  13   3  -6   37.89    5.64
 -13   3   6   42.03    8.89
  11  -3  -6   79.18    6.35
  11  -3  -6   74.77    7.06
  11  -3  -6   90.99    6.92
 -11  -3   6   74.24    9.93
  11  -3  -6   90.88    6.18
 -11   3   6   74.86   10.81
  11   3  -6   77.32    6.83
 -11   3   6   66.11    6.13
  11   3  -6   83.80    5.47
  11   3  -6   83.16    7.33
 -11   3   6   80.89    6.40
  11   3  -6   80.36    5.04
  11   3  -6   78.25    5.75
 -11   3   6   80.08    6.59
   9  -3  -6   82.03    6.37
   9  -3  -6   81.40    6.67
   9  -3  -6   81.98    6.24
  -9  -3   6   80.33   10.17
   9  -3  -6   87.97    5.93
   9   3  -6   90.65    5.36
   9   3  -6   95.30    6.87
   9   3  -6   77.45    6.64
  -9   3   6   74.44   10.65
   9   3  -6   87.05    5.09
  -9   3   6   79.49    6.74
   9   3  -6   94.59    6.82
  -7  -3   6   38.35    3.80
  -7  -3   6   40.33    6.97
   7  -3  -6   44.31    4.24
   7  -3  -6   42.26    4.79
   7  -3  -6   37.85    4.09
   7  -3  -6   41.95    3.72
   7   3  -6   43.13    2.95
   7   3  -6   41.01    4.39
  -7   3   6   38.56    4.65
   7   3  -6   41.00    4.46
   7   3  -6   42.66    3.09
   7   3  -6   38.09    4.39
  -7   3   6   29.77    7.60
   5  -3  -6   66.26    4.73
   5  -3  -6   60.90    5.23
   5  -3  -6   61.02    4.46
   5  -3  -6   59.07    6.03
  -5  -3   6   66.03    4.62
  -5  -3   6   56.18    8.64
  -5   3   6   58.46    6.18
   5   3  -6   55.73    4.64
   5   3  -6   54.73    4.84
   5   3  -6   59.07    4.81
  -5   3   6   52.19    9.26
  -5   3   6   58.15    5.65
   5   3  -6   57.13    3.66
   3  -3  -6   52.38    5.44
   3  -3  -6   46.78    3.93
  -3  -3   6   51.45    4.38
   3  -3  -6   50.72    3.24
  -3  -3   6   44.66    7.93
   3  -3  -6   40.92    4.66
   3  -3  -6   45.89    4.15
   3   3  -6   50.84    3.33
  -3   3   6   43.32    5.02
   3   3  -6   46.00    3.95
   3   3  -6   46.03    2.92
  -3   3   6   45.11    3.78
   3   3  -6   45.37    3.85
   3   3  -6   55.03    4.16
   3   3  -6   45.21    4.20
  -3   3   6   39.97    8.65
   3   3  -6   48.80    3.31
  -1  -3   6   38.21    8.47
   1  -3  -6   45.76    2.98
   1  -3  -6   41.27    4.57
   1  -3  -6   32.54    4.86
   1  -3  -6   40.35    3.79
   1  -3  -6   49.38    5.35
   1  -3  -6   41.78    4.04
   1   3  -6   38.11    4.33
   1   3  -6   38.13    3.55
   1   3  -6   44.73    2.67
  -1   3   6   37.17    9.10
   1   3  -6   45.48    3.75
   1   3  -6   46.72    3.81
  -1   3   6   36.92    4.67
   1  -3   6   14.89    6.45
  -1  -3  -6   15.34    3.55
  -1  -3  -6   13.08    1.73
  -1  -3  -6   10.35    3.69
  -1  -3  -6   16.81    2.92
  -1  -3  -6   13.71    2.63
  -1   3  -6   15.65    2.36
  -1   3  -6   14.55    2.03
  -1   3  -6   16.80    2.41
   1   3   6   13.94    7.47
  -1   3  -6   20.04    3.05
   1   3   6   12.91    3.28
  -3  -3  -6   29.69    5.27
   3  -3   6   33.57    8.79
  -3  -3  -6   40.13    4.93
  -3  -3  -6   31.89    3.82
  -3  -3  -6   34.67    4.17
  -3  -3  -6   37.10    4.32
   3   3   6   37.31    5.27
  -3   3  -6   41.48    3.71
  -3   3  -6   39.18    3.42
  -3   3  -6   46.90    4.62
  -3   3  -6   39.73    2.55
  -3   3  -6   35.46    3.96
  -5  -3  -6   28.52    3.89
  -5  -3  -6   28.96    3.79
  -5  -3  -6   22.72    3.66
  -5  -3  -6   29.13    5.61
  -5  -3  -6   25.64    4.82
  -5   3  -6   24.88    3.20
  -5   3  -6   27.16    2.52
  -5   3  -6   32.09    4.23
  -5   3  -6   25.10    3.39
  -5   3  -6   30.23    3.54
  -7  -3  -6   25.38    3.74
  -7  -3  -6   17.48    3.96
  -7  -3  -6   20.12    5.25
  -7  -3  -6   14.91    5.55
  -7   3  -6   19.62    3.27
   7   3   6   16.21    5.66
  -7   3  -6   24.47    4.24
   7   3   6   22.71    2.83
  -7   3  -6   21.98    2.66
  -7   3  -6   21.41    3.87
 -14  -4   6  111.82    8.84
  14  -4  -6   96.99    7.59
 -14  -4   6   93.38   14.90
 -14  -4   6   88.24    8.21
  14  -4  -6   95.78    9.93
  14  -4  -6   86.38    8.43
 -14   4   6   83.76   12.14
  14   4  -6   97.67    7.80
  14   4  -6   98.76    6.84
  14   4  -6   99.82   10.77
 -14   4   6   82.69    8.57
 -14   4   6  113.87    8.03
  14   4  -6   83.71    9.47
 -14   4   6   94.36    8.32
  14   4  -6  106.28    6.62
 -12  -4   6  125.92    9.40
  12  -4  -6  145.72   10.26
 -12  -4   6  137.23   14.42
  12  -4  -6  125.62    9.22
  12  -4  -6  134.53   10.66
  12  -4  -6  148.08    9.16
 -12  -4   6  156.07   10.37
 -12   4   6  122.53   14.45
  12   4  -6  142.37    8.39
 -12   4   6  123.27    9.39
 -12   4   6  149.26    9.79
  12   4  -6  152.45    7.99
 -12   4   6  146.23    9.01
  12   4  -6  126.56   10.04
  12   4  -6  121.18   10.21
  12   4  -6  137.82    8.91
  10  -4  -6   99.11    8.40
 -10  -4   6  105.04   11.90
 -10  -4   6   99.75    7.81
  10  -4  -6  103.54    7.53
 -10  -4   6  130.45    8.48
  10  -4  -6  105.95    8.36
  10  -4  -6  122.15    7.67
 -10   4   6  102.85    8.08
 -10   4   6  122.05    7.34
  10   4  -6  114.89    6.27
  10   4  -6  108.42    7.36
 -10   4   6  101.06    7.69
  10   4  -6  101.63    6.63
 -10   4   6  114.08    7.69
 -10   4   6   94.47   12.47
  10   4  -6   99.68    8.43
   8  -4  -6  178.60   10.50
  -8  -4   6  165.25    9.86
  -8  -4   6  161.83   14.90
  -8  -4   6  152.53    9.80
   8  -4  -6  179.31    9.91
   8  -4  -6  161.55    9.79
   8  -4  -6  165.40   10.39
   8   4  -6  165.32   10.28
   8   4  -6  176.94    8.51
   8   4  -6  174.02    9.02
  -8   4   6  139.54   15.16
  -8   4   6  151.47   10.62
   8   4  -6  160.85   10.43
   8   4  -6  157.65   10.14
   6  -4  -6  191.96   10.44
  -6  -4   6  172.81   10.58
   6  -4  -6  191.90   10.96
   6  -4  -6  181.82   10.84
   6  -4  -6  182.06   10.11
  -6  -4   6  179.75   15.69
   6   4  -6  170.81   10.62
  -6   4   6  153.26   16.54
  -6   4   6  163.45   11.33
   6   4  -6  173.31   10.28
   6   4  -6  190.06    9.40
   6   4  -6  166.36   10.14
   4  -4  -6  169.34    9.21
   4  -4  -6  141.67   11.07
  -4  -4   6  158.01    7.67
   4  -4  -6  136.15    8.52
  -4  -4   6  136.90   13.65
   4  -4  -6  145.83    9.39
  -4  -4   6  143.68    9.11
   4   4  -6  142.98    7.51
   4   4  -6  146.56    7.09
  -4   4   6  120.39   14.91
  -4   4   6  132.66   10.01
   4   4  -6  138.54    8.34
   4   4  -6  142.26    8.95
   4   4  -6  150.12    8.56
   4   4  -6  150.47    7.74
   4   4  -6  145.18    8.33
  -2  -4   6  103.43    7.65
   2  -4  -6  117.32    5.64
   2  -4  -6  115.04    7.19
   2  -4  -6  110.60    7.96
   2  -4  -6  117.28    9.03
   2  -4  -6  127.03    7.76
  -2  -4   6  106.20   12.33
   2  -4  -6  103.32    7.99
  -2   4   6   97.01   13.97
   2   4  -6  126.20    6.24
   2   4  -6  113.33    7.04
  -2   4   6  101.83    8.50
   2   4  -6  103.83    7.29
   2   4  -6  109.93    6.29
  -2   4   6   96.15    6.80
   2   4  -6  116.04    5.74
   2   4  -6  110.02    6.45
   0  -4  -6  157.29    9.66
   0  -4  -6  171.13   10.79
   0  -4  -6  150.09    8.97
   0  -4   6  148.62   14.55
   0  -4  -6  127.48    9.81
   0  -4  -6  172.01    9.72
   0   4   6  138.58   10.46
   0   4  -6  166.20    9.77
   0   4  -6  154.83    8.98
   0   4  -6  154.09    7.60
   0   4   6  170.14    8.88
   0   4  -6  140.94    8.94
   0   4  -6  151.80    7.58
  -2  -4  -6  105.14    9.10
  -2  -4  -6  105.06    7.33
  -2  -4  -6  104.93    7.83
  -2  -4  -6   95.11    8.64
   2   4   6   94.78    8.32
   2   4   6  108.75    6.67
  -2   4  -6  110.61    7.80
  -2   4  -6  106.91    5.79
  -2   4  -6  102.59    5.67
  -2   4  -6   97.98    6.87
  -4  -4  -6   73.67    6.53
  -4  -4  -6   73.02    6.95
  -4  -4  -6   77.58    8.36
  -4  -4  -6   57.34    7.66
  -4  -4  -6   63.82    8.30
  -4   4  -6   76.79    4.60
  -4   4  -6   73.05    6.06
  -4   4  -6   71.41    6.02
  -6  -4  -6   66.43    7.38
  -6  -4  -6   62.97    8.21
  -6  -4  -6   59.17    7.63
  -6  -4  -6   63.95    7.39
  -6  -4  -6   76.76    7.23
  -6   4  -6   74.91    6.60
   6   4   6   68.61    8.98
  -6   4  -6   79.99    7.50
  -6   4  -6   78.50    5.69
  -6   4  -6   70.19    4.95
  13  -5  -6   13.44    4.08
  13  -5  -6   13.70    3.73
 -13  -5   6   11.64    4.49
 -13  -5   6    4.26    2.95
 -13  -5   6   23.05    4.97
  13  -5  -6    8.16    5.63
 -13  -5   6   10.21    8.32
  13  -5  -6   13.34    5.13
 -13  -5   6    0.19    5.11
 -13   5   6   15.52    3.42
 -13   5   6    9.61    4.77
 -13   5   6    8.94    4.76
  13   5  -6   13.53    3.05
  13   5  -6    6.91    5.83
  13   5  -6   13.45    3.84
 -13   5   6   -4.53    5.83
 -13   5   6   15.72    4.57
 -13   5   6   14.24    6.71
  13   5  -6   12.34    2.64
  13   5  -6    2.43    5.37
  11  -5  -6   31.35    5.27
 -11  -5   6   29.73    7.53
  11  -5  -6   29.24    4.58
 -11  -5   6   31.10    5.23
  11  -5  -6   30.37    5.91
 -11  -5   6   23.49    4.54
  11  -5  -6   28.39    4.26
  11   5  -6   28.95    3.20
  11   5  -6   32.30    3.87
  11   5  -6   26.34    5.54
  11   5  -6   17.03    5.58
 -11   5   6   23.51    5.06
 -11   5   6   31.46    5.16
 -11   5   6   24.83    4.50
 -11   5   6   30.62    8.17
 -11   5   6   31.18    4.47
  11   5  -6   27.11    4.10
   9  -5  -6   38.87    5.35
   9  -5  -6   42.68    5.80
  -9  -5   6   45.11    5.81
   9  -5  -6   44.71    5.95
  -9  -5   6   38.11    7.56
   9  -5  -6   44.68    5.06
  -9  -5   6   31.86    4.50
  -9   5   6   42.81    4.56
   9   5  -6   41.45    5.87
   9   5  -6   45.65    4.17
  -9   5   6   46.86    5.32
  -9   5   6   36.05    8.62
  -9   5   6   25.54    4.41
  -9   5   6   33.56    4.76
   9   5  -6   40.72    5.73
   7  -5  -6   32.13    4.06
  -7  -5   6   30.54    3.97
   7  -5  -6   30.75    5.07
   7  -5  -6   39.02    4.94
   7  -5  -6   33.57    4.23
  -7  -5   6   25.47    4.23
  -7  -5   6   29.23    6.85
   7   5  -6   24.89    3.48
   7   5  -6   30.87    2.11
  -7   5   6   23.24    7.35
   7   5  -6   26.38    4.68
   7   5  -6   24.17    5.09
  -7   5   6   34.07    4.32
   7   5  -6   26.54    4.60
  -7   5   6   33.28    4.60
  -5  -5   6   59.42    5.89
  -5  -5   6   64.65    9.09
   5  -5  -6   64.16    5.73
   5  -5  -6   65.67    6.69
  -5  -5   6   68.75    5.07
   5  -5  -6   56.52    5.75
   5  -5  -6   65.22    6.81
  -5   5   6   41.02    5.28
  -5   5   6   53.64   10.59
   5   5  -6   55.23    6.62
   5   5  -6   52.26    6.03
   5   5  -6   62.21    6.29
   5   5  -6   68.26    4.60
   5   5  -6   64.04    5.83
  -5   5   6   55.64    5.98
   3  -5  -6   71.69    6.25
   3  -5  -6   72.42    7.05
  -3  -5   6   69.98    6.37
  -3  -5   6   75.78   10.59
   3  -5  -6   85.50    6.76
   3  -5  -6   66.34    6.64
  -3   5   6   67.42    6.92
   3   5  -6   77.72    7.19
   3   5  -6   75.32    5.95
  -3   5   6   80.51    6.24
   3   5  -6   71.60    6.32
   3   5  -6   78.15    5.10
  -3   5   6   64.07   12.03
   3   5  -6   72.88    6.17
   1  -5  -6   81.68    6.51
   1  -5  -6   78.57    7.76
  -1  -5   6   79.84    6.75
   1  -5  -6   83.18    8.08
  -1  -5   6   78.60   11.45
   1  -5  -6   85.65    6.88
  -1   5   6   75.78    7.33
   1   5  -6   82.60    6.28
   1   5  -6   84.11    7.36
  -1   5   6   96.41    6.58
   1   5  -6   87.58    5.92
   1   5  -6   91.99    7.05
  -1  -5  -6   55.89    5.96
   1  -5   6   47.04    5.88
  -1  -5  -6   49.28    6.66
  -1  -5  -6   59.27    6.83
  -1  -5  -6   55.99    5.82
  -1  -5  -6   58.87    7.57
  -1   5  -6   58.50    5.18
  -1   5  -6   52.51    4.50
  -1   5  -6   52.65    6.43
  -1   5  -6   54.46    4.17
  -1   5  -6   52.16    5.12
   1   5   6   49.69    5.24
  -3  -5  -6   56.80    7.23
  -3  -5  -6   64.18    7.97
  -3  -5  -6   85.09    7.58
  -3  -5  -6   72.72    8.12
  -3  -5  -6   65.31    6.83
  -3   5  -6   78.08    7.23
  -3   5  -6   80.56    4.98
  -3   5  -6   71.55    5.15
  -3   5  -6   73.62    7.20
   3   5   6   73.37    6.04
  -3   5  -6   65.37    5.59
   3   5   6   62.55    8.78
  10  -6  -6   78.47    7.77
  10  -6  -6   69.59    7.04
  10  -6  -6   73.20    9.52
 -10  -6   6   63.25    7.50
 -10  -6   6   94.39    8.32
  10  -6  -6   78.89    9.32
 -10   6   6   59.28    8.13
 -10   6   6   63.55   10.88
  10   6  -6   69.47    4.58
  10   6  -6   86.88    6.13
  10   6  -6   62.86    8.29
 -10   6   6   82.40    8.89
  10   6  -6   79.12    7.57
 -10   6   6   75.36    7.86
  10   6  -6   73.46    9.22
   8  -6  -6  116.58   10.53
   8  -6  -6  103.36    8.66
  -8  -6   6  112.29   12.49
   8  -6  -6  131.12    8.69
  -8  -6   6   96.27    8.71
  -8  -6   6  127.92    8.91
   8  -6  -6  131.14   10.23
  -8   6   6  103.74   13.85
  -8   6   6  109.88    9.98
   8   6  -6  116.09   10.23
  -8   6   6  120.53    8.92
   8   6  -6  105.71   10.17
   8   6  -6  120.33    7.39
   8   6  -6   97.20   10.75
  -6  -6   6  131.58    8.68
   6  -6  -6  135.08   10.49
  -6  -6   6  123.28    9.31
   6  -6  -6  128.74    6.50
  -6  -6   6  125.48   13.13
   6  -6  -6  131.69    9.22
   6  -6  -6  129.82   10.55
   6  -6  -6  129.17    9.27
  -6   6   6   98.24   14.41
   6   6  -6  146.39    8.24
   6   6  -6  120.15   10.73
   6   6  -6  119.53   10.07
   6   6  -6  135.67    9.08
  -6   6   6  140.43    9.57
  -4  -6   6  116.21   13.05
  -4  -6   6  125.99    7.96
  -4  -6   6  105.53    8.67
   4  -6  -6  111.59    8.72
   4  -6  -6  119.26    9.95
   4  -6  -6  124.90    9.04
   4  -6  -6  127.38    9.73
   4   6  -6  114.09    9.37
   4   6  -6  121.72    9.06
   4   6  -6  124.71    7.66
   4   6  -6  129.06    8.82
   4   6  -6  110.76   10.41
  -4   6   6  127.43    8.79
   2  -6  -6  112.08    8.77
   2  -6  -6  101.36    9.69
   2  -6  -6  101.32    7.97
   2  -6  -6   83.73    8.18
  -2  -6   6   87.34    7.90
   2  -6  -6  115.26    8.87
   2   6  -6   96.12    9.36
  -2   6   6  117.11    7.70
  -2   6   6   80.93    9.73
   2   6  -6  120.99    8.14
   2   6  -6   94.59    8.43
   2   6  -6   98.73    7.82
   0  -6  -6  108.53   10.51
   0  -6   6  118.29    9.03
   0  -6  -6  121.03   10.79
   0  -6  -6  133.37    9.98
   0  -6  -6  147.77    9.92
   0  -6  -6  130.08    9.94
   0   6  -6  129.35    9.34
   0   6   6  129.28    8.73
   0   6  -6  128.10    9.32
   0   6   6  113.61   11.18
   0   6  -6  118.08    8.32
   0   6  -6  109.55   10.05
  16   0  -7   16.40    4.16
  16   0  -7   11.65    4.58
 -16   0   7   18.12    4.51
  16   0  -7   14.11    3.21
  16   0  -7   11.25    5.46
  16   0  -7   15.75    3.24
 -16   0   7   12.25    8.21
 -16   0   7   -2.80    5.44
  16   0  -7   19.73    3.36
 -14   0   7   17.13    8.30
  14   0  -7   17.01    4.89
  14   0  -7   22.57    3.42
  14   0  -7   14.42    3.94
 -14   0   7   20.40    4.20
  14   0  -7   21.68    3.63
  14   0  -7   22.87    3.28
  14   0  -7   17.38    2.96
 -12   0   7   25.48    3.86
  12   0  -7   23.82    4.35
  12   0  -7   22.91    3.09
  12   0  -7   24.36    3.45
  12   0  -7   19.48    3.60
 -12   0   7   17.56    6.57
  12   0  -7   19.23    3.30
  10   0  -7   43.28    3.77
  10   0  -7   45.56    5.27
  10   0  -7   48.75    4.52
 -10   0   7   40.20    4.79
 -10   0   7   45.80    4.46
 -10   0   7   39.22    8.15
  10   0  -7   48.65    5.24
  10   0  -7   49.69    4.92
   8   0  -7   63.05    4.79
  -8   0   7   66.06    5.68
   8   0  -7   55.04    4.94
  -8   0   7   52.47    9.56
   8   0  -7   60.47    4.20
   8   0  -7   55.78    5.00
  -6   0   7   49.63    3.32
   6   0  -7   44.95    3.90
   6   0  -7   54.09    3.60
  -6   0   7   50.74    5.23
   6   0  -7   46.35    3.86
  -6   0   7   39.92    8.67
   6   0  -7   54.02    4.00
   4   0  -7   85.58    5.07
  -4   0   7   84.10    6.76
  -4   0   7   74.69   11.62
   4   0  -7   83.82    4.59
   4   0  -7  100.29    6.40
   4   0  -7   91.09    4.94
   4   0  -7   83.45    4.68
  -2   0   7   79.75   11.75
   2   0  -7  100.34    6.64
   2   0  -7   87.91    7.22
   2   0  -7   96.01    5.00
  -2   0   7   91.22    7.24
   2   0  -7   97.86    5.10
   0   0   7   50.99   10.19
   0   0  -7   71.27    5.39
   0   0  -7   66.98    3.80
   0   0  -7   71.04    5.10
   0   0  -7   62.64    3.59
   0   0   7   64.30    6.05
  -2   0  -7   57.86    6.82
  -2   0  -7   43.83    3.18
  -2   0  -7   49.72    4.55
  -2   0  -7   46.49    3.13
  -2   0  -7   49.59    4.62
   2   0   7   36.90   10.95
   2   0   7   52.26    5.77
   4   0   7   49.48    7.87
  -4   0  -7   65.71    5.51
  -4   0  -7   57.18    5.48
  -4   0  -7   50.71    7.16
  -4   0  -7   57.27    4.16
  -4   0  -7   59.84    4.17
  15  -1  -7   89.56    6.90
  15  -1  -7   78.76    7.93
  15  -1  -7   77.58    6.91
  15  -1  -7   96.68    7.99
  15  -1  -7   66.17    8.78
  15  -1  -7   87.86    6.70
 -15  -1   7   73.90   14.04
 -15  -1   7   83.47    8.20
  15   1  -7   86.32    6.55
  15   1  -7   79.76    6.61
  15   1  -7   95.79    7.28
  15   1  -7   77.41    6.36
  15   1  -7   95.30    8.76
  15   1  -7   82.50    8.79
 -15   1   7   88.00    7.78
  13  -1  -7  126.36    7.97
 -13  -1   7  114.96   13.89
  13  -1  -7  109.03    9.07
  13  -1  -7  127.01    8.23
  13  -1  -7  106.14    8.60
  13  -1  -7  129.96    8.33
 -13  -1   7  124.57    8.65
  13   1  -7  127.94    7.99
  13   1  -7  133.09    7.96
 -13   1   7  117.74    8.78
  13   1  -7  126.78    7.74
 -13   1   7  112.83   13.71
  13   1  -7  123.79    7.92
 -13   1   7  120.38    8.50
  13   1  -7  113.46    8.75
  13   1  -7  111.52    8.80
  11  -1  -7  121.81    7.26
 -11  -1   7  113.79    7.73
  11  -1  -7  100.58    7.86
 -11  -1   7   97.70   12.67
  11  -1  -7  125.91    7.75
 -11   1   7  103.95    8.16
 -11   1   7  113.59    7.77
  11   1  -7  119.44    6.96
  11   1  -7  112.28    8.03
 -11   1   7  101.03   12.95
  11   1  -7  106.67    7.79
  11   1  -7  109.74    8.10
  11   1  -7  117.35    7.46
   9  -1  -7  112.87    7.80
   9  -1  -7  131.33    7.39
   9  -1  -7  123.85    7.86
  -9  -1   7  102.63   13.13
   9  -1  -7  125.82    8.08
   9  -1  -7  119.88    7.59
   9   1  -7  123.89    7.69
   9   1  -7  112.61    7.54
  -9   1   7  111.32   13.65
   9   1  -7  119.01    7.74
  -9   1   7  107.31    8.48
   9   1  -7  126.41    7.84
   9   1  -7  125.53    6.90
   7  -1  -7  154.90    8.74
   7  -1  -7  172.75    8.71
  -7  -1   7  168.35    8.30
   7  -1  -7  163.36    9.00
  -7  -1   7  141.73   15.35
  -7  -1   7  152.20    9.58
   7  -1  -7  159.41    9.04
   7   1  -7  158.04    8.66
  -7   1   7  154.64   10.41
  -7   1   7  135.22   15.38
   7   1  -7  151.97    8.55
   7   1  -7  150.78    8.70
   7   1  -7  158.36    8.21
   5  -1  -7  151.97    8.21
   5  -1  -7  165.71    8.27
  -5  -1   7  154.46    9.55
   5  -1  -7  154.06    8.14
   5  -1  -7  141.40    8.19
  -5  -1   7  130.46   14.97
   5   1  -7  144.02    7.96
   5   1  -7  159.33    7.69
  -5   1   7  143.74   10.00
   5   1  -7  154.83    9.15
  -5   1   7  128.43   15.10
   5   1  -7  147.86    7.67
  -5   1   7  155.96    7.64
   5   1  -7  148.81    7.65
   3  -1  -7  131.60    7.12
  -3  -1   7  116.37   14.21
   3  -1  -7  133.20    6.87
   3  -1  -7  144.79    7.91
  -3  -1   7  134.78    8.88
   3  -1  -7  136.44    8.44
   3  -1  -7  138.18    7.32
   3   1  -7  130.91    6.81
   3   1  -7  137.17    6.61
  -3   1   7  132.09    9.33
   3   1  -7  132.85    8.24
   3   1  -7  121.37    8.63
  -3   1   7  111.34   14.34
   3   1  -7  141.81    8.19
   1  -1  -7  121.58    6.56
   1  -1  -7  125.34    7.14
  -1  -1   7  110.07    8.13
   1  -1  -7  116.69    6.21
   1  -1  -7  126.75    7.75
  -1  -1   7   98.96   13.50
   1  -1  -7  106.42    8.52
   1   1  -7  121.61    5.61
   1   1  -7  111.04    7.38
  -1   1   7   99.15   13.71
   1   1  -7  109.68    7.89
  -1   1   7   97.69    8.24
   1   1  -7  119.43    5.52
   1   1  -7  116.75    7.51
   1  -1   7  141.64    9.81
   1  -1   7  121.31   15.32
  -1  -1  -7  143.83    8.85
  -1  -1  -7  138.66   10.10
  -1  -1  -7  150.81    8.31
  -1  -1  -7  148.43    7.73
   1   1   7  124.88   16.26
  -1   1  -7  136.16    6.54
  -1   1  -7  144.81    8.76
  -1   1  -7  145.41    9.53
   1   1   7  135.01    9.95
  -1   1  -7  149.43    8.88
  -3  -1  -7  105.24    7.11
  -3  -1  -7  121.05    7.69
  -3  -1  -7  104.12    6.42
   3  -1   7   88.87   14.41
  -3  -1  -7  107.69    6.42
   3  -1   7   99.98    8.44
  -3  -1  -7  104.57    9.07
  -3   1  -7  107.32    5.42
  -3   1  -7  105.71    5.43
  -3   1  -7  116.39    7.60
  -3   1  -7  109.54    7.26
  -3   1  -7  109.80    8.36
  -5  -1  -7   68.31    5.28
  -5  -1  -7   60.76    8.47
  -5  -1  -7   69.92    5.84
  -5  -1  -7   71.71    5.50
   5  -1   7   63.25    8.69
  -5   1  -7   68.64    7.41
  -5   1  -7   69.44    4.50
   5   1   7   59.03    8.57
  -5   1  -7   70.53    5.95
  -5   1  -7   59.19    4.30
  -5   1  -7   71.87    6.40
  14  -2  -7   67.59    5.67
  14  -2  -7   47.11    6.63
  14  -2  -7   53.61    5.41
 -14  -2   7   54.71    6.91
 -14  -2   7   37.29   11.41
  14  -2  -7   59.28    6.47
  14  -2  -7   55.52    6.72
  14   2  -7   53.90    7.30
 -14   2   7   55.29    6.31
  14   2  -7   46.54    4.61
  14   2  -7   47.27    5.72
 -14   2   7   47.74    5.75
  14   2  -7   52.25    6.75
  14   2  -7   57.21    4.92
 -14   2   7   40.44    9.37
  14   2  -7   58.77    5.34
  12  -2  -7   47.42    5.73
 -12  -2   7   41.88    8.65
  12  -2  -7   51.49    5.67
  12  -2  -7   54.53    5.77
  12  -2  -7   67.14    5.41
  12  -2  -7   48.76    5.10
 -12  -2   7   61.13    5.84
  12   2  -7   42.21    5.57
  12   2  -7   48.16    4.22
 -12   2   7   49.76    5.26
  12   2  -7   47.88    4.45
  12   2  -7   50.06    4.78
  12   2  -7   43.59    5.94
 -12   2   7   43.29    9.28
 -12   2   7   55.23    5.58
  10  -2  -7   57.83    6.55
 -10  -2   7   61.18    9.90
  10  -2  -7   67.19    5.32
  10  -2  -7   73.00    5.93
 -10  -2   7   73.93    5.71
  10   2  -7   73.00    5.16
  10   2  -7   76.53    5.10
  10   2  -7   74.13    6.31
 -10   2   7   59.48   10.41
 -10   2   7   63.97    6.40
  10   2  -7   61.28    6.18
 -10   2   7   65.17    5.48
  10   2  -7   63.27    6.29
  10   2  -7   68.59    5.09
   8  -2  -7   54.57    5.65
   8  -2  -7   56.19    5.04
   8  -2  -7   67.50    4.93
   8  -2  -7   59.54    5.40
  -8  -2   7   54.03    9.14
   8   2  -7   52.07    5.21
   8   2  -7   62.72    4.15
  -8   2   7   49.23    9.96
  -8   2   7   67.44    5.01
   8   2  -7   64.00    5.17
   8   2  -7   64.11    5.34
  -8   2   7   56.82    5.84
   6  -2  -7   32.24    4.21
   6  -2  -7   38.82    3.59
  -6  -2   7   32.64    3.91
  -6  -2   7   28.33    7.65
   6  -2  -7   35.00    3.73
  -6  -2   7   33.29    2.01
   6   2  -7   30.63    2.57
   6   2  -7   32.48    3.80
   6   2  -7   30.04    3.60
   6   2  -7   32.48    3.42
  -6   2   7   28.54    8.00
  -6   2   7   33.48    4.60
   4  -2  -7   49.77    3.91
  -4  -2   7   45.36    8.92
   4  -2  -7   46.14    4.78
  -4  -2   7   52.31    4.89
   4  -2  -7   45.45    3.95
   4  -2  -7   53.93    4.20
   4  -2  -7   46.69    4.68
  -4   2   7   50.54    5.53
  -4   2   7   36.94    8.70
   4   2  -7   47.78    3.01
   4   2  -7   50.50    4.69
   4   2  -7   45.32    3.79
   4   2  -7   49.75    4.33
  -2  -2   7   47.55    4.89
   2  -2  -7   50.27    4.24
  -2  -2   7   43.45    9.34
   2  -2  -7   46.46    6.22
   2  -2  -7   45.37    3.96
   2  -2  -7   50.66    4.33
   2  -2  -7   51.66    4.03
   2  -2  -7   49.25    4.40
   2   2  -7   55.28    4.56
   2   2  -7   50.50    2.78
  -2   2   7   42.78    5.52
  -2   2   7   52.97    2.95
  -2   2   7   36.42    9.59
   2   2  -7   44.19    4.89
  -2   2   7   53.34    2.82
   2   2  -7   40.56    4.93
   2   2  -7   51.05    3.43
   0  -2  -7   33.77    3.49
   0  -2   7   42.84    4.62
   0  -2  -7   41.64    3.92
   0  -2  -7   26.74    5.09
   0  -2  -7   32.24    3.35
   0  -2  -7   34.57    3.67
   0  -2   7   31.74    9.39
   0  -2  -7   29.62    3.38
   0   2  -7   34.49    1.87
   0   2  -7   32.10    2.34
   0   2   7   28.02    9.86
   0   2   7   26.16    4.89
   0   2  -7   36.92    3.89
   0   2  -7   39.15    4.86
   0   2  -7   44.87    4.33
  -2  -2  -7   21.63    2.77
  -2  -2  -7   27.41    3.27
   2  -2   7   27.74    4.66
   2  -2   7   20.76    8.12
  -2  -2  -7   24.11    3.18
  -2  -2  -7   30.75    3.45
  -2  -2  -7   22.01    5.10
  -2  -2  -7   28.53    3.69
  -2   2  -7   27.72    3.82
  -2   2  -7   23.37    3.88
  -2   2  -7   23.00    3.93
  -2   2  -7   24.85    1.55
  -2   2  -7   27.74    2.09
  -4  -2  -7   48.17    6.70
  -4  -2  -7   37.75    5.02
  -4  -2  -7   40.57    5.04
   4  -2   7   30.16   10.37
  -4  -2  -7   43.18    5.12
  -4  -2  -7   44.87    4.88
  -4   2  -7   43.46    3.24
  -4   2  -7   40.42    4.53
  -4   2  -7   39.89    2.77
   4   2   7   29.75    6.33
  -4   2  -7   42.19    5.34
  -4   2  -7   48.35    5.66
  13  -3  -7  139.15    9.14
 -13  -3   7  136.04    9.64
  13  -3  -7  133.02    8.75
  13  -3  -7  126.91    9.23
  13  -3  -7  110.62    9.97
 -13  -3   7  116.82   16.18
  13  -3  -7  125.96    9.41
 -13   3   7  120.92    9.42
  13   3  -7  136.91    8.10
  13   3  -7  127.84    7.73
  13   3  -7  124.98    8.15
 -13   3   7  104.03   14.01
  13   3  -7  106.79    9.91
  13   3  -7  115.33    8.61
  13   3  -7  113.02   10.24
 -13   3   7  123.14    9.45
  11  -3  -7  127.07    8.55
  11  -3  -7  140.46    8.52
 -11  -3   7  111.69   13.54
 -11  -3   7  132.49    8.82
  11  -3  -7  113.71    9.59
  11   3  -7  134.03    7.69
 -11   3   7   99.19   13.72
  11   3  -7  118.86    9.15
  11   3  -7  109.61    9.05
 -11   3   7  125.45    8.84
  11   3  -7  136.03    8.20
  11   3  -7  130.87    7.34
  11   3  -7  121.81    9.18
 -11   3   7  120.00    9.29
   9  -3  -7  136.85    8.62
  -9  -3   7  123.73   14.07
   9  -3  -7  151.45    8.70
  -9  -3   7  133.80    8.64
   9  -3  -7  129.46    9.09
   9   3  -7  149.93    7.88
   9   3  -7  134.01    9.03
  -9   3   7  112.66   14.54
   9   3  -7  144.82    8.66
   9   3  -7  135.09    8.83
   9   3  -7  152.49    7.78
  -9   3   7  133.64    8.77
   9   3  -7  131.47    9.06
  -9   3   7  125.20    9.59
   7  -3  -7  177.95   10.28
   7  -3  -7  181.65   11.49
   7  -3  -7  193.54   11.58
  -7  -3   7  174.06   16.77
   7  -3  -7  194.36   11.03
   7   3  -7  181.46   10.09
   7   3  -7  193.31    9.54
  -7   3   7  149.06   17.16
  -7   3   7  194.89   10.44
   7   3  -7  188.78   10.54
  -7   3   7  166.52   11.85
   7   3  -7  172.59   10.22
   5  -3  -7  188.64   10.93
  -5  -3   7  166.83   16.55
   5  -3  -7  173.69   10.34
   5  -3  -7  171.04    9.74
   5  -3  -7  197.41   10.36
   5   3  -7  178.14    8.98
  -5   3   7  151.46   11.52
   5   3  -7  179.97   10.13
   5   3  -7  170.43    9.09
  -5   3   7  142.47   17.07
   5   3  -7  176.51    8.90
   5   3  -7  168.80    9.72
  -5   3   7  183.02    9.73
   5   3  -7  181.63   10.52
   3  -3  -7  145.52    8.33
  -3  -3   7  133.38   14.98
   3  -3  -7  136.42    8.83
   3  -3  -7  150.58    9.37
  -3  -3   7  155.35    9.36
   3  -3  -7  142.31    7.71
   3  -3  -7  155.11    8.79
   3   3  -7  135.01    8.05
   3   3  -7  135.32    8.36
  -3   3   7  127.33   10.12
  -3   3   7  145.15    8.00
  -3   3   7  111.79   15.32
   3   3  -7  152.92    8.84
   3   3  -7  145.59    7.27
   3   3  -7  141.18    9.06
   1  -3  -7  103.62    6.89
   1  -3  -7  113.43    6.24
   1  -3  -7   99.95    9.06
  -1  -3   7   96.39   13.41
   1  -3  -7  108.81    7.35
   1  -3  -7  108.65    7.34
   1   3  -7  121.05    7.39
   1   3  -7  120.00    7.96
   1   3  -7  116.31    5.70
   1   3  -7  105.62    6.45
  -1   3   7  117.46    6.32
  -1   3   7   99.22    8.75
  -1   3   7   92.08   14.28
   1   3  -7  109.74    7.10
  -1  -3  -7  119.96    7.83
  -1  -3  -7  107.36    9.81
  -1  -3  -7  107.20    8.18
  -1  -3  -7  115.99    7.54
  -1   3  -7  112.22    5.79
  -1   3  -7  118.17    8.33
  -1   3  -7  120.96    7.54
  -1   3  -7  112.73    6.65
  -3  -3  -7   58.44    6.33
   3  -3   7   57.99   11.57
  -3  -3  -7   75.13    6.27
  -3  -3  -7   78.39    7.15
  -3  -3  -7   78.66    8.73
   3   3   7   63.27    8.77
  -3   3  -7   65.86    6.18
  -3   3  -7   70.02    5.06
  -3   3  -7   72.24    6.77
  -3   3  -7   80.38    6.05
  -3   3  -7   71.43    3.98
 -12  -4   7   29.15    4.55
  12  -4  -7   26.19    5.45
  12  -4  -7   26.16    4.79
  12  -4  -7   26.60    4.09
 -12  -4   7   24.73    9.79
  12  -4  -7   23.56    5.73
 -12   4   7   27.63    5.04
  12   4  -7   25.78    5.42
  12   4  -7   32.43    5.72
  12   4  -7   23.95    3.51
 -12   4   7   25.55    8.32
  12   4  -7   30.97    3.54
  10  -4  -7   54.71    6.65
  10  -4  -7   48.64    5.34
 -10  -4   7   39.32    5.00
  10  -4  -7   45.70    5.66
 -10  -4   7   43.62   10.36
  10  -4  -7   47.44    6.37
 -10   4   7   42.75    5.54
  10   4  -7   45.11    4.73
  10   4  -7   53.90    6.99
  10   4  -7   43.81    5.71
  10   4  -7   46.53    3.77
 -10   4   7   41.90    9.60
  10   4  -7   47.24    4.38
 -10   4   7   61.16    6.14
  10   4  -7   47.53    5.99
  -8  -4   7   53.50    5.24
   8  -4  -7   49.25    5.74
   8  -4  -7   56.48    6.51
   8  -4  -7   62.00    5.37
  -8  -4   7   46.49    9.36
   8  -4  -7   60.28    5.86
   8   4  -7   57.29    6.27
  -8   4   7   44.10   10.02
   8   4  -7   50.87    3.62
  -8   4   7   57.55    5.50
  -8   4   7   41.35    5.73
   8   4  -7   54.09    4.93
   8   4  -7   48.58    6.59
   8   4  -7   49.68    6.31
  -6  -4   7   45.17    3.48
  -6  -4   7   45.33    9.27
   6  -4  -7   47.75    5.66
   6  -4  -7   38.85    4.76
   6  -4  -7   38.76    5.73
   6  -4  -7   38.16    5.15
   6   4  -7   47.21    5.83
   6   4  -7   43.39    3.59
  -6   4   7   37.87    4.72
  -6   4   7   32.87    8.94
   6   4  -7   39.51    4.79
  -6   4   7   42.18    5.59
   6   4  -7   35.42    4.21
   6   4  -7   42.05    4.90
   6   4  -7   39.22    2.96
   4  -4  -7   53.31    7.27
  -4  -4   7   54.74    9.81
   4  -4  -7   53.28    6.36
   4  -4  -7   52.95    6.42
   4  -4  -7   54.78    5.53
   4  -4  -7   58.74    3.86
   4   4  -7   58.97    4.44
   4   4  -7   55.64    5.83
   4   4  -7   58.54    4.47
   4   4  -7   60.69    5.02
  -4   4   7   51.69   10.80
   4   4  -7   58.83    3.46
   4   4  -7   66.78    5.83
   4   4  -7   61.75    4.13
  -4   4   7   62.89    5.21
  -4   4   7   47.78    6.24
   2  -4  -7   70.97    6.20
   2  -4  -7   54.49    7.38
   2  -4  -7   60.42    6.77
   2  -4  -7   61.25    7.69
  -2  -4   7   60.88   10.81
   2  -4  -7   59.00    5.60
  -2   4   7   62.06    5.20
   2   4  -7   57.88    6.02
   2   4  -7   56.87    4.14
   2   4  -7   55.59    5.22
   2   4  -7   63.86    6.03
   2   4  -7   66.37    4.21
   0  -4  -7   48.14    6.32
   0  -4   7   36.79    9.23
   0  -4  -7   47.41    5.64
   0  -4  -7   33.25    6.18
   0  -4  -7   36.39    5.67
   0   4   7   46.42    4.62
   0   4  -7   36.22    3.46
   0   4   7   34.96    6.83
   0   4  -7   34.00    4.49
   0   4  -7   37.73    5.13
   0   4  -7   47.11    3.24
   0   4  -7   47.48    5.68
  -2  -4  -7   19.97    5.95
  -2  -4  -7   32.98    5.71
  -2  -4  -7   35.53    4.79
  -2  -4  -7   29.17    4.55
  -2   4  -7   36.64    5.10
  -2   4  -7   32.93    2.84
  -2   4  -7   29.53    4.09
   2   4   7   34.08    7.19
 -11  -5   7   69.58    8.22
  -9  -5   7   61.68    6.59
  -9  -5   7   65.03    7.46
   9  -5  -7   65.62    7.37
   9  -5  -7   63.81    8.52
   9  -5  -7   70.35    6.66
   9  -5  -7   60.37    6.78
  -9   5   7   78.91    7.23
  -9   5   7   63.59    8.11
   9   5  -7   67.90    7.93
  -9   5   7   55.21   11.26
   9   5  -7   62.23    8.27
   9   5  -7   59.60    5.50
   9   5  -7   70.35    8.56
   7  -5  -7   78.74    9.15
  -7  -5   7   95.70    6.51
  -7  -5   7   90.71    8.19
   7  -5  -7   77.27    7.55
   7  -5  -7   97.66    7.42
  -7  -5   7   77.38   11.40
   7  -5  -7   83.72    7.81
  -7   5   7   67.68   12.41
  -7   5   7   82.19    7.39
  -7   5   7   86.47    9.15
   7   5  -7   80.55    7.72
   7   5  -7   86.94    4.52
   7   5  -7   96.90    6.12
   7   5  -7   82.68    8.11
   7   5  -7   93.50    7.49
   7   5  -7   78.77   10.08
   5  -5  -7   89.41    4.60
  -5  -5   7   76.68    7.78
  -5  -5   7   79.14   11.97
   5  -5  -7   78.12    8.22
  -5  -5   7   78.97    5.12
   5  -5  -7   89.29    7.41
   5  -5  -7   79.01    7.01
   5   5  -7   69.38    8.05
  -5   5   7   69.75    9.02
   5   5  -7   97.44    5.89
   5   5  -7   86.50    7.24
   5   5  -7   76.69    6.87
   5   5  -7   84.23    6.94
   3  -5  -7   72.97    7.69
   3  -5  -7   87.92    7.09
   3  -5  -7   71.54    6.82
   3  -5  -7   60.72    7.94
  -3  -5   7   75.50   11.96
   3  -5  -7   81.23    7.87
   3   5  -7   75.91    7.26
   3   5  -7   75.04    8.03
  -3   5   7   81.43    6.59
  -3   5   7   67.60    8.83
   3   5  -7   68.92    5.81
   3   5  -7   74.26    5.55
  -3   5   7   48.56   15.33
   3   5  -7   76.54    5.35
   1  -5  -7   76.34    9.13
   1  -5  -7   93.64    7.81
   1  -5  -7   84.17   10.27
   1  -5  -7   80.54    8.63
   1   5  -7   75.48    8.02
   1   5  -7   94.68    7.59
  -1   5   7   65.24    9.29
  12   0  -8   64.47    7.70
  12   0  -8   89.47    6.11
  12   0  -8   70.26    6.61
  12   0  -8   64.71    7.82
 -12   0   8   70.76    6.89
  12   0  -8   65.24    7.03
 -12   0   8   69.90   14.80
 -10   0   8   46.82   15.83
  10   0  -8   55.67    5.97
  10   0  -8   70.89    5.04
 -10   0   8   57.48    5.60
  10   0  -8   60.95    6.54
  10   0  -8   67.60    6.00
  10   0  -8   54.34    6.37
   8   0  -8   81.72    5.17
   8   0  -8   67.02    5.84
   8   0  -8   62.39    6.12
  -8   0   8   81.06    5.01
  -8   0   8   71.90    6.45
   8   0  -8   69.97    5.85
   8   0  -8   73.56    5.83
   6   0  -8   93.32    5.65
  -6   0   8   96.39    7.71
   6   0  -8   95.15    5.62
  -6   0   8   68.68   14.16
   6   0  -8   94.27    6.13
   6   0  -8   90.52    5.53
   6   0  -8   91.05    6.60
   4   0  -8   91.87    5.62
   4   0  -8  100.57    6.81
   4   0  -8   92.11    7.07
   4   0  -8   81.97    8.07
   4   0  -8   95.51    5.40
  -4   0   8   89.18    7.45
  -2   0   8   77.48    7.30
   2   0  -8   84.07    4.97
   2   0  -8   78.46    8.39
   2   0  -8   93.00    6.90
   2   0  -8   87.70    6.78
   2   0  -8   89.52    4.91
   0   0  -8   94.97    5.14
   0   0  -8   90.60    7.11
   0   0  -8   82.36    8.52
   0   0  -8   99.90    7.22
   0   0  -8   95.25    5.04
   0   0   8   73.21   10.19
   0   0   8   71.14   17.72
  13  -1  -8   36.16    5.01
  13  -1  -8   38.53    5.98
  13  -1  -8   32.43    4.18
  13  -1  -8   31.94    5.20
 -13  -1   8   29.28   10.91
 -13  -1   8   31.00    4.65
  13   1  -8   35.72    4.60
  13   1  -8   36.76    5.61
  13   1  -8   41.83    5.20
  13   1  -8   30.12    5.52
 -13   1   8   50.20    6.20
 -13   1   8   32.43   12.22
  13   1  -8   33.89    4.65
  13   1  -8   36.85    5.43
 -11  -1   8   43.10    5.13
  11  -1  -8   38.16    4.95
  11  -1  -8   37.74    5.11
  11  -1  -8   31.77    4.99
  11  -1  -8   37.58    5.45
  11  -1  -8   44.74    4.59
 -11  -1   8   31.00   10.98
 -11   1   8   25.48   11.15
  11   1  -8   41.41    4.96
  11   1  -8   43.49    4.17
  11   1  -8   38.58    5.05
 -11   1   8   33.42    5.13
  11   1  -8   30.03    4.75
 -11   1   8   42.99    5.51
  11   1  -8   31.56    4.79
   9  -1  -8   47.96    5.46
   9  -1  -8   45.37    5.96
   9  -1  -8   54.24    5.46
   9  -1  -8   47.01    6.02
   9  -1  -8   47.76    4.69
  -9  -1   8   60.75    4.67
   9   1  -8   53.39    5.47
  -9   1   8   53.58    4.95
  -9   1   8   36.66    5.76
   9   1  -8   38.51    5.29
   9   1  -8   53.92    5.61
   9   1  -8   50.30    4.17
   9   1  -8   49.93    5.19
  -7  -1   8   43.59    5.07
  -7  -1   8   26.55   13.85
   7  -1  -8   41.98    4.14
   7  -1  -8   34.77    3.87
   7  -1  -8   35.81    3.96
   7  -1  -8   40.52    4.90
   7  -1  -8   41.22    4.52
   7   1  -8   40.33    4.18
   7   1  -8   41.49    3.39
   7   1  -8   33.24    4.68
   7   1  -8   43.30    4.49
  -7   1   8   31.55    3.46
   7   1  -8   41.17    4.03
  -7   1   8   33.34    4.87
   5  -1  -8   48.68    5.00
   5  -1  -8   34.09    3.67
  -5  -1   8   37.36    4.93
   5  -1  -8   45.08    4.37
   5  -1  -8   44.42    3.86
   5  -1  -8   41.23    4.13
  -5  -1   8   33.52    9.40
   5  -1  -8   43.16    4.13
   5   1  -8   44.29    4.93
   5   1  -8   46.99    4.00
   5   1  -8   43.26    3.13
   5   1  -8   39.98    4.80
  -5   1   8   35.28    5.42
   3  -1  -8   38.16    3.60
   3  -1  -8   41.95    4.81
   3  -1  -8   36.44    3.65
   3  -1  -8   35.79    5.55
   3  -1  -8   30.16    3.68
  -3  -1   8   37.42    5.40
  -3  -1   8   27.78   10.77
   3   1  -8   33.80    3.08
   3   1  -8   34.49    4.65
   3   1  -8   25.72    5.98
   3   1  -8   35.87    2.51
   3   1  -8   43.04    5.02
  -3   1   8   31.42    5.44
   1  -1  -8   30.47    5.87
   1  -1  -8   44.54    3.82
   1  -1  -8   45.14    3.94
   1  -1  -8   43.17    5.19
   1  -1  -8   47.48    4.78
  -1  -1   8   35.27    5.33
   1   1  -8   37.44    5.04
   1   1  -8   43.04    2.46
  -1   1   8   32.79   13.06
   1   1  -8   46.34    2.68
   1   1  -8   57.29    5.80
   1   1  -8   44.91    5.92
 -12  -2   8  114.08   17.12
  12  -2  -8  123.39   15.21
  12  -2  -8  130.98    8.71
  12  -2  -8  113.08    9.96
 -12  -2   8  150.58    9.22
  12  -2  -8  136.83    9.22
  12  -2  -8  132.86    9.36
  12   2  -8  130.08   10.04
  12   2  -8  133.43    8.03
 -12   2   8  107.34    9.68
  12   2  -8  116.88    9.58
  12   2  -8  119.94    9.64
 -12   2   8  103.75   17.66
  12   2  -8  121.92    8.68
  12   2  -8  134.99    8.06
  10  -2  -8  124.14    8.74
  10  -2  -8  133.47    9.89
 -10  -2   8  121.39   17.40
  10  -2  -8  123.96    9.54
  10  -2  -8  153.12    8.82
  10  -2  -8  148.78    9.36
 -10   2   8  129.79    8.72
  10   2  -8  122.15    7.61
 -10   2   8  125.53    9.77
  10   2  -8  135.07    8.40
  10   2  -8  121.03    8.85
 -10   2   8   97.92   17.50
  10   2  -8  123.47    9.14
   8  -2  -8  142.09    8.86
   8  -2  -8  144.19    9.74
  -8  -2   8  138.86    7.17
   8  -2  -8  151.54    8.77
   8  -2  -8  136.93    9.59
   8  -2  -8  147.03    9.52
   8   2  -8  132.62    8.91
   8   2  -8  134.90    8.39
  -8   2   8  129.08   10.20
   8   2  -8  141.51    9.21
   8   2  -8  140.47    7.88
  -6  -2   8  122.15   23.25
   6  -2  -8  148.97    9.53
   6  -2  -8  153.38    9.47
   6  -2  -8  151.41   10.31
   6  -2  -8  175.35    9.39
   6  -2  -8  150.19    9.15
   6   2  -8  152.90    8.22
   6   2  -8  179.71   10.30
   6   2  -8  150.97    9.08
  -6   2   8  160.20   11.39
   6   2  -8  155.44    8.30
  -6   2   8  163.16    8.58
   6   2  -8  172.83   10.04
  -4  -2   8  126.04    8.93
   4  -2  -8  124.36    7.77
   4  -2  -8  123.30    7.64
   4  -2  -8  136.13    7.89
   4  -2  -8  127.90    8.89
  -4  -2   8  100.29   14.97
   4   2  -8  133.59    6.54
   4   2  -8  120.00    8.13
   4   2  -8  118.39    8.72
   4   2  -8  127.70    8.50
  -4   2   8  106.28   18.38
   4   2  -8  129.47    7.18
  -4   2   8  118.88    9.82
  -2  -2   8   88.51   14.08
   2  -2  -8  101.14    6.50
   2  -2  -8  100.89    5.70
  -2  -2   8  100.67    7.96
   2  -2  -8  110.32    6.83
   2  -2  -8   82.99    9.13
   2  -2  -8   98.45    7.75
   2  -2  -8   98.62    6.47
  -2   2   8   71.20   16.98
   2   2  -8   95.94    7.65
   2   2  -8   96.65    7.11
   2   2  -8   98.91    4.94
   2   2  -8   97.42    5.38
   2   2  -8   91.49    8.05
  -2   2   8   79.01    9.57
   0  -2  -8   87.57    6.27
   0  -2  -8   83.27    9.47
   0  -2  -8   80.75    6.18
   0  -2  -8   82.57    7.54
   0   2   8   64.01   17.49
   0   2  -8   84.75    8.06
   0   2  -8   92.26    6.93
   0   2   8   81.73    9.57
   0   2  -8   88.11    7.30
   0   2  -8   85.68    4.09
  11  -3  -8   29.37    5.68
  11  -3  -8   32.19    5.08
  11  -3  -8   37.78    5.01
 -11  -3   8   27.12   10.70
 -11  -3   8   32.93    4.78
  11  -3  -8   34.15    4.97
 -11   3   8   30.29    4.92
  11   3  -8   31.98    4.09
  11   3  -8   30.93    5.51
 -11   3   8   28.77   12.23
  11   3  -8   32.70    5.27
  11   3  -8   36.60    4.37
  11   3  -8   29.33    5.36
  11   3  -8   50.22    5.09
   9  -3  -8   50.05    5.17
  -9  -3   8   46.75    4.65
  -9  -3   8   35.90   11.70
   9  -3  -8   57.32    6.34
   9  -3  -8   42.91    5.71
   9  -3  -8   38.20    5.05
   9   3  -8   36.16    4.62
  -9   3   8   36.64   13.28
   9   3  -8   44.81    5.25
  -9   3   8   48.39    5.71
   9   3  -8   42.63    5.15
   9   3  -8   50.98    5.08
   9   3  -8   46.33    4.19
   9   3  -8   54.85    4.37
   7  -3  -8   48.35    5.12
   7  -3  -8   38.57    5.21
   7  -3  -8   46.82    5.52
   7   3  -8   37.35    4.97
   7   3  -8   37.63    4.76
   7   3  -8   51.04    5.96
  -7   3   8   31.75   12.13
   7   3  -8   42.93    3.69
   7   3  -8   43.58    4.60
   7   3  -8   50.38    5.16
   5  -3  -8   44.79    5.26
   5  -3  -8   49.65    4.52
   5  -3  -8   52.79    5.37
   5  -3  -8   41.31    5.54
   5  -3  -8   46.76    5.44
   5   3  -8   43.66    5.28
   5   3  -8   48.09    3.64
   5   3  -8   61.97    5.31
  -5   3   8   39.81    8.68
   5   3  -8   62.21    6.08
  -5   3   8   40.20   13.44
   5   3  -8   46.30    5.38
  -5   3   8   59.72    4.77
   3  -3  -8   55.18    6.08
   3  -3  -8   51.97    4.42
  -3  -3   8   50.93   16.82
   3  -3  -8   44.39    6.79
   3  -3  -8   54.19    5.53
   3  -3  -8   42.43    5.08
   3   3  -8   45.73    5.63
   3   3  -8   50.38    4.65
   3   3  -8   51.65    3.45
   3   3  -8   42.42    5.66
   3   3  -8   53.70    5.58
  -3   3   8   42.20    7.76
  -3   3   8   35.33   13.73
  -3   3   8   49.81    3.79
   0   0   0    0.00    0.00
;
loop_
_space_group_symop_operation_xyz
'x, y, z'
'-x, y, -z'
'x+1/2, y+1/2, z'
'-x+1/2, y+1/2, -z'
'-x, -y, -z'
'x, -y, z'
'-x+1/2, -y+1/2, -z'
'x+1/2, -y+1/2, z'
loop_
_atom_site_label
_atom_site_type_symbol
_atom_site_fract_x
_atom_site_fract_y
_atom_site_fract_z
_atom_site_U_iso_or_equiv
_atom_site_adp_type
_atom_site_occupancy
_atom_site_site_symmetry_order
_atom_site_calc_flag
_atom_site_refinement_flags_posn
_atom_site_refinement_flags_adp
_atom_site_refinement_flags_occupancy
_atom_site_disorder_assembly
_atom_site_disorder_group
Pt1 Pt 0.0000 0.5000 1.0000 0.01293(6) Uani 1 4 d S T P . .
Mn1 Mn 0.0000 0.0000 0.5000 0.01480(13) Uani 1 4 d S T P . .
O1 O 0.13526(15) 0.0000 0.4826(4) 0.0309(5) Uani 1 2 d S T P . .
N1 N 0.03721(13) 0.2056(2) 0.7346(3) 0.0240(4) Uani 1 1 d . . . . .
N2 N 0.23249(18) 0.0000 0.3127(5) 0.0307(7) Uani 1 2 d S T P . .
C1 C 0.02585(14) 0.3157(3) 0.8325(3) 0.0183(4) Uani 1 1 d . . . . .
C2 C 0.1513(2) 0.0000 0.3241(5) 0.0272(7) Uani 1 2 d S T P . .
H2 H 0.100(2) 0.0000 0.190(6) 0.029(10) Uiso 1 2 d S . P . .
C3 C 0.2450(3) 0.0000 0.1186(7) 0.0529(13) Uani 1 2 d S T P . .
H3A H 0.300(4) 0.0000 0.599(9) 0.074(19) Uiso 1 2 d S . P . .
H3B H 0.284(3) 0.100(5) 0.122(6) 0.075(12) Uiso 1 1 d . . . . .
C4 C 0.3134(3) 0.0000 0.4932(9) 0.0592(15) Uani 1 2 d S T P . .
H4A H 0.185(4) 0.0000 0.011(9) 0.069(17) Uiso 1 2 d S . P . .
H4B H 0.354(3) 0.089(6) 0.484(7) 0.108(17) Uiso 1 1 d . . . . .
loop_
_atom_site_aniso_label
_atom_site_aniso_U_11
_atom_site_aniso_U_22
_atom_site_aniso_U_33
_atom_site_aniso_U_23
_atom_site_aniso_U_13
_atom_site_aniso_U_12
Pt1 0.02083(9) 0.00904(9) 0.01030(9) 0.000 0.00723(6) 0.000
Mn1 0.0230(3) 0.0109(3) 0.0141(3) 0.000 0.0110(2) 0.000
O1 0.0250(12) 0.0417(15) 0.0296(13) 0.000 0.0141(10) 0.000
N1 0.0344(10) 0.0182(10) 0.0229(10) -0.0056(8) 0.0146(8) -0.0008(8)
N2 0.0196(13) 0.0425(19) 0.0330(16) 0.000 0.0131(12) 0.000
C1 0.0229(10) 0.0164(10) 0.0172(10) 0.0026(9) 0.0090(8) -0.0020(8)
C2 0.0215(15) 0.0313(19) 0.0299(18) 0.000 0.0105(14) 0.000
C3 0.037(2) 0.087(4) 0.043(3) 0.000 0.023(2) 0.000
C4 0.024(2) 0.100(5) 0.048(3) 0.000 0.0067(19) 0.000
loop_
_atom_type_symbol
_atom_type_description
_atom_type_scat_dispersion_real
_atom_type_scat_dispersion_imag
_atom_type_scat_source
C C 0.0033 0.0016 'International Tables Vol C Tables 4.2.6.8 and 6.1.1.4'
H H 0.0000 0.0000 'International Tables Vol C Tables 4.2.6.8 and 6.1.1.4'
Mn Mn 0.3368 0.7283 'International Tables Vol C Tables 4.2.6.8 and 6.1.1.4'
N N 0.0061 0.0033 'International Tables Vol C Tables 4.2.6.8 and 6.1.1.4'
O O 0.0106 0.0060 'International Tables Vol C Tables 4.2.6.8 and 6.1.1.4'
Pt Pt -1.7033 8.3905 'International Tables Vol C Tables 4.2.6.8 and 6.1.1.4'
loop_
_geom_angle_atom_site_label_1
_geom_angle_atom_site_label_2
_geom_angle_atom_site_label_3
_geom_angle
_geom_angle_site_symmetry_1
_geom_angle_site_symmetry_3
C1 Pt1 C1 88.86(12) 5_567 6_565
C1 Pt1 C1 91.14(12) 5_567 2_557
C1 Pt1 C1 180.0 6_565 2_557
C1 Pt1 C1 180.00(9) 5_567 .
C1 Pt1 C1 91.14(12) 6_565 .
C1 Pt1 C1 88.86(12) 2_557 .
O1 Mn1 O1 180.0 5_556 .
O1 Mn1 N1 92.24(7) 5_556 5_556
O1 Mn1 N1 87.76(7) . 5_556
O1 Mn1 N1 87.76(7) 5_556 6
O1 Mn1 N1 92.24(7) . 6
N1 Mn1 N1 89.16(10) 5_556 6
O1 Mn1 N1 92.24(7) 5_556 2_556
O1 Mn1 N1 87.76(7) . 2_556
N1 Mn1 N1 90.84(10) 5_556 2_556
N1 Mn1 N1 180.0 6 2_556
O1 Mn1 N1 87.76(7) 5_556 .
O1 Mn1 N1 92.24(7) . .
N1 Mn1 N1 180.00(8) 5_556 .
N1 Mn1 N1 90.84(10) 6 .
N1 Mn1 N1 89.16(10) 2_556 .
C2 O1 Mn1 124.9(2) . .
C1 N1 Mn1 157.22(17) . .
C2 N2 C4 121.2(4) . .
C2 N2 C3 121.4(3) . .
C4 N2 C3 117.4(4) . .
N1 C1 Pt1 176.98(18) . .
O1 C2 N2 125.2(3) . .
O1 C2 H2 121(2) . .
N2 C2 H2 114(2) . .
N2 C3 H3B 106(2) . .
N2 C3 H4A 108(3) . .
H3B C3 H4A 116(3) . .
N2 C4 H3A 111(4) . .
N2 C4 H4B 110(3) . .
H3A C4 H4B 116(4) . .
loop_
_geom_bond_atom_site_label_1
_geom_bond_atom_site_label_2
_geom_bond_distance
_geom_bond_site_symmetry_2
Pt1 C1 1.982(2) 5_567
Pt1 C1 1.982(2) 6_565
Pt1 C1 1.982(2) 2_557
Pt1 C1 1.982(2) .
Mn1 O1 2.185(2) 5_556
Mn1 O1 2.185(2) .
Mn1 N1 2.2170(18) 5_556
Mn1 N1 2.2170(18) 6
Mn1 N1 2.2170(18) 2_556
Mn1 N1 2.2170(18) .
O1 C2 1.238(4) .
N1 C1 1.148(3) .
N2 C2 1.314(4) .
N2 C4 1.452(6) .
N2 C3 1.459(6) .
C2 H2 1.01(4) .
C3 H3B 0.99(4) .
C3 H4A 0.99(6) .
C4 H3A 0.85(6) .
C4 H4B 0.96(5) .
loop_
_geom_torsion_atom_site_label_1
_geom_torsion_atom_site_label_2
_geom_torsion_atom_site_label_3
_geom_torsion_atom_site_label_4
_geom_torsion
_geom_torsion_site_symmetry_1
_geom_torsion_site_symmetry_2
_geom_torsion_site_symmetry_3
_geom_torsion_site_symmetry_4
Mn1 O1 C2 N2 180.000(0) . . . .
C4 N2 C2 O1 0.000(1) . . . .
C3 N2 C2 O1 180.000(0) . . . .
