#------------------------------------------------------------------------------
#$Date: 2022-03-03 11:45:13 +0200 (Thu, 03 Mar 2022) $
#$Revision: 273220 $
#$URL: file:///home/coder/svn-repositories/cod/cif/8/10/46/8104611.cif $
#------------------------------------------------------------------------------
#
# This file is available in the Crystallography Open Database (COD),
# http://www.crystallography.net/
#
# All data on this site have been placed in the public domain by the
# contributors.
#
data_8104611
loop_
_publ_author_name
'Du, Chao-Jun'
'Niu, De-Long'
'Yan, Zhen-Li'
'Zheng, Shi-Li'
'Zeng, Yan'
_publ_section_title
;
 The crystal structure of 3-amino-5-carboxypyridin-1-ium bromide,
 C6H7BrN2O2
;
_journal_issue                   6
_journal_name_full
'Zeitschrift f\"ur Kristallographie - New Crystal Structures'
_journal_page_first              1375
_journal_page_last               1376
_journal_paper_doi               10.1515/ncrs-2021-0352
_journal_volume                  236
_journal_year                    2021
_chemical_formula_moiety         'Br, C6 H7 N2 O2'
_chemical_formula_sum            'C6 H7 Br N2 O2'
_chemical_formula_weight         219.05
_space_group_crystal_system      triclinic
_space_group_IT_number           2
_space_group_name_Hall           '-P 1'
_space_group_name_H-M_alt        'P -1'
_atom_sites_solution_hydrogens   mixed
_atom_sites_solution_primary     dual
_cell_angle_alpha                81.542(3)
_cell_angle_beta                 89.459(3)
_cell_angle_gamma                61.718(3)
_cell_formula_units_Z            2
_cell_length_a                   7.3026(4)
_cell_length_b                   7.4618(4)
_cell_length_c                   7.8746(4)
_cell_measurement_reflns_used    3362
_cell_measurement_temperature    150(2)
_cell_measurement_theta_max      26.37
_cell_measurement_theta_min      2.62
_cell_volume                     372.86(4)
_computing_cell_refinement       'SAINT v8.37A (Bruker, 2015) [1]'
_computing_data_collection       'Bruker APEX-II [1]'
_computing_data_reduction        'SAINT v8.37A (Bruker, 2015) [1]'
_computing_molecular_graphics    'Olex2 1.3 (Dolomanov et al., 2009) [2]'
_computing_publication_material  'Olex2 1.3 (Dolomanov et al., 2009) [2]'
_computing_structure_refinement  'SHELXL 2018/3 (Sheldrick, 2015) [3]'
_computing_structure_solution    'SHELXT 2014/5 (Sheldrick, 2014) [4]'
_diffrn_ambient_temperature      150.0
_diffrn_measured_fraction_theta_full 0.999
_diffrn_measured_fraction_theta_max 0.997
_diffrn_measurement_device_type  'Bruker APEX-II CCD'
_diffrn_measurement_method       '\f and \w scans'
_diffrn_radiation_type           MoK\a
_diffrn_radiation_wavelength     0.71073
_diffrn_reflns_av_R_equivalents  0.0420
_diffrn_reflns_av_unetI/netI     0.0281
_diffrn_reflns_Laue_measured_fraction_full 0.999
_diffrn_reflns_Laue_measured_fraction_max 0.997
_diffrn_reflns_limit_h_max       9
_diffrn_reflns_limit_h_min       -9
_diffrn_reflns_limit_k_max       9
_diffrn_reflns_limit_k_min       -9
_diffrn_reflns_limit_l_max       9
_diffrn_reflns_limit_l_min       -9
_diffrn_reflns_number            7980
_diffrn_reflns_point_group_measured_fraction_full 0.999
_diffrn_reflns_point_group_measured_fraction_max 0.997
_diffrn_reflns_theta_full        25.242
_diffrn_reflns_theta_max         26.402
_diffrn_reflns_theta_min         2.621
_diffrn_source_current           30.0
_diffrn_source_power             1.5
_diffrn_source_voltage           50.0
_diffrn_standards_number         0
_exptl_absorpt_coefficient_mu    5.459
_exptl_absorpt_correction_T_max  0.7454
_exptl_absorpt_correction_T_min  0.5658
_exptl_absorpt_correction_type   multi-scan
_exptl_absorpt_process_details
;
SADABS-2016/2 (Bruker,2016/2) was used for absorption correction.
wR2(int) was 0.0788 before and 0.0478 after correction.
The Ratio of minimum to maximum transmission is 0.7591.
The \l/2 correction factor is Not present.
;
_exptl_crystal_colour            colourless
_exptl_crystal_density_diffrn    1.951
_exptl_crystal_description       needle
_exptl_crystal_F_000             216
_exptl_crystal_size_max          0.2
_exptl_crystal_size_mid          0.15
_exptl_crystal_size_min          0.1
_refine_diff_density_max         0.373
_refine_diff_density_min         -0.310
_refine_diff_density_rms         0.070
_refine_ls_extinction_coef       .
_refine_ls_extinction_method     none
_refine_ls_goodness_of_fit_ref   1.033
_refine_ls_hydrogen_treatment    mixed
_refine_ls_matrix_type           full
_refine_ls_number_parameters     108
_refine_ls_number_reflns         1537
_refine_ls_number_restraints     0
_refine_ls_restrained_S_all      1.033
_refine_ls_R_factor_all          0.0256
_refine_ls_R_factor_gt           0.0209
_refine_ls_shift/su_max          0.000
_refine_ls_shift/su_mean         0.000
_refine_ls_structure_factor_coef Fsqd
_refine_ls_weighting_details
'w=1/[\s^2^(Fo^2^)+(0.0205P)^2^+0.1960P] where P=(Fo^2^+2Fc^2^)/3'
_refine_ls_weighting_scheme      calc
_refine_ls_wR_factor_gt          0.0459
_refine_ls_wR_factor_ref         0.0473
_reflns_Friedel_coverage         0.000
_reflns_Friedel_fraction_full    .
_reflns_Friedel_fraction_max     .
_reflns_number_gt                1398
_reflns_number_total             1537
_reflns_threshold_expression     'I > 2\s(I)'
_cod_data_source_file            suppl_j_ncrs-2021-0352_suppl.cif
_cod_data_source_block           1
_cod_database_code               8104611
_shelx_space_group_comment
;
The symmetry employed for this shelxl refinement is uniquely defined
by the following loop, which should always be used as a source of
symmetry information in preference to the above space-group names.
They are only intended as comments.
;
_shelx_estimated_absorpt_t_max   0.611
_shelx_estimated_absorpt_t_min   0.408
_olex2_refinement_description
;
1. Fixed Uiso
 At 1.2 times of:
  All C(H) groups, All N(H,H) groups
2.a Aromatic/amide H refined with riding coordinates:
 C3(H3), C4(H4), C6(H6)
2.b X=CH2 refined with riding coordinates:
 N2(H2A,H2B)
;
_shelx_res_file
;
TITL 1.res in P-1
    1.res
    created by SHELXL-2018/3 at 19:55:27 on 03-Sep-2021
REM Old TITL 1.res in P-1
REM SHELXT solution in P-1
REM R1 0.068, Rweak 0.009, Alpha 0.045, Orientation as input
REM Formula found by SHELXT: C7 Br O2 N
CELL 0.71073 7.3026 7.4618 7.8746 81.542 89.459 61.718
ZERR 2 0.0004 0.0004 0.0004 0.003 0.003 0.003
LATT 1
SFAC C H Br O N
UNIT 12 14 2 4 4

L.S. 4
PLAN  10
SIZE 0.2 0.15 0.1
TEMP -123.15
CONF
BOND $H
MORE -1
fmap 2
acta
REM <olex2.extras>
REM <HklSrc "%.\\1.hkl">
REM </olex2.extras>

WGHT    0.020500    0.196000
FVAR       1.31138
BR1   3    0.730108    0.116187    0.124885    11.00000    0.02566    0.01826 =
         0.01932   -0.00669    0.00120   -0.00978
C1    1    0.776839    0.816767    0.749388    11.00000    0.01560    0.01581 =
         0.01811   -0.00290   -0.00083   -0.00843
C2    1    0.772354    0.653062    0.662763    11.00000    0.01143    0.01320 =
         0.01690   -0.00198   -0.00044   -0.00628
C3    1    0.819139    0.462457    0.757535    11.00000    0.02091    0.01484 =
         0.01497   -0.00107   -0.00189   -0.00915
AFIX  43
H3    2    0.853904    0.432947    0.877970    11.00000   -1.20000
AFIX   0
C4    1    0.766217    0.352391    0.504059    11.00000    0.01857    0.01486 =
         0.02134   -0.00619    0.00282   -0.00926
AFIX  43
H4    2    0.766441    0.245151    0.452135    11.00000   -1.20000
AFIX   0
C5    1    0.716433    0.542400    0.403727    11.00000    0.01317    0.01674 =
         0.01572   -0.00318    0.00246   -0.00785
C6    1    0.722318    0.693472    0.488009    11.00000    0.01469    0.01075 =
         0.01678    0.00133   -0.00074   -0.00564
AFIX  43
H6    2    0.691664    0.823974    0.424192    11.00000   -1.20000
AFIX   0
H1    2    0.839004    0.203674    0.732132    11.00000    0.04102
H2    2    0.809923    0.853515    0.960665    11.00000    0.04301
N1    5    0.813489    0.321608    0.673003    11.00000    0.02760    0.01110 =
         0.01960    0.00009   -0.00050   -0.01107
N2    5    0.666872    0.574934    0.232854    11.00000    0.03709    0.01992 =
         0.01540   -0.00204   -0.00216   -0.01453
AFIX  93
H2A   2    0.665895    0.476291    0.184485    11.00000   -1.20000
H2B   2    0.635612    0.694739    0.170076    11.00000   -1.20000
AFIX   0
O1    4    0.741757    0.982660    0.670144    11.00000    0.04000    0.01489 =
         0.02076    0.00054   -0.00356   -0.01691
O2    4    0.823463    0.759486    0.916074    11.00000    0.03245    0.01626 =
         0.01454   -0.00174   -0.00328   -0.01289
HKLF 4




REM  1.res in P-1
REM wR2 = 0.0473, GooF = S = 1.033, Restrained GooF = 1.033 for all data
REM R1 = 0.0209 for 1398 Fo > 4sig(Fo) and 0.0256 for all 1537 data
REM 108 parameters refined using 0 restraints

END

WGHT      0.0204      0.1959

REM Highest difference peak  0.373,  deepest hole -0.310,  1-sigma level  0.070
Q1    1   0.7599  0.7372  0.7141  11.00000  0.05    0.37
Q2    1   0.7403  0.6061  0.4476  11.00000  0.05    0.30
Q3    1   0.7833  0.5700  0.7003  11.00000  0.05    0.28
Q4    1   0.7831  0.4310  0.4351  11.00000  0.05    0.28
Q5    1   0.6938  0.6855  0.5764  11.00000  0.05    0.27
Q6    1   1.0322  0.1045  0.6991  11.00000  0.05    0.25
Q7    1   0.7898  0.8526  1.1758  11.00000  0.05    0.25
Q8    1   0.6400  0.7284  0.9625  11.00000  0.05    0.24
Q9    1   0.6397  0.5681  0.3401  11.00000  0.05    0.24
Q10   1   0.6925  0.2660  0.3150  11.00000  0.05    0.23
;
_shelx_res_checksum              46426
_shelx_hkl_file
;
  -1   0   0   29.90    6.50
   1   0   0   47.50    6.90
   1   0   0   28.30    6.80
  -3   0   0   24.70   13.00
  -3   0   0   20.80   11.10
   3   0   0   24.40   13.10
   3   0   0   16.90   12.90
   3   0   0   21.20    5.40
  -4   0   0 4383.26  127.79
  -4   0   0 4675.83  130.29
   4   0   0 4578.24  122.09
   4   0   0 4680.33  130.39
   4   0   0 4574.14   91.89
  -5   0   0  200.78   34.10
  -5   0   0  261.07   36.70
   5   0   0  194.08   32.70
   5   0   0  207.68   32.10
  -6   0   0  678.63   53.49
  -6   0   0  586.64   52.99
   6   0   0  703.63   51.49
  -7   0   0  309.87   50.69
  -7   0   0  295.07   47.60
   7   0   0  250.77   33.40
   7   0   0  279.37   46.70
   7   0   0  276.57   45.00
  -8   0   0   -1.00   35.70
  -8   0   0  101.49   39.90
  -8   0   0   83.29   29.50
   8   0   0   57.69   32.50
   7  -1   0  454.55   58.29
   7  -1   0  434.56   55.39
   7  -1   0  477.05   47.40
  -7   1   0  443.96   60.29
  -7   1   0  330.17   53.79
  -7   1   0  465.35   60.39
   6  -1   0   27.30   18.20
   6  -1   0   66.19   31.60
   6  -1   0   41.80   21.90
  -6   1   0   54.19   29.50
  -6   1   0   37.30   27.90
  -6   1   0  124.39   33.90
   5  -1   0 1079.49   58.69
   5  -1   0 1158.68   66.79
  -5   1   0 1123.49   66.59
  -5   1   0 1140.29   65.69
  -5   1   0  992.60   76.39
   4  -1   0  371.56   37.70
   4  -1   0  346.77   31.60
  -4   1   0  368.16   34.30
  -4   1   0  388.76   19.40
   3  -1   0 1395.36   57.79
   3  -1   0 1463.05   53.79
  -3   1   0 1295.97   57.39
  -3   1   0 1450.75   42.30
  -3   1   0 1392.16   31.00
   2  -1   0  662.73   30.00
   2  -1   0  659.23   33.90
  -2   1   0  691.13   34.20
  -2   1   0  626.94   25.60
  -2   1   0  644.84   33.40
   1  -1   0  624.14   16.00
   1  -1   0  591.54   23.40
   1  -1   0  598.34   25.80
  -1   1   0  613.44   23.30
  -1   1   0  619.34   25.70
  -1   1   0  618.74   26.00
   0  -1   0  396.56   14.70
   0   1   0  403.36   14.00
   0   1   0  398.56   14.70
  -1  -1   0  165.88    9.20
  -1  -1   0  165.28    6.90
  -1  -1   0  174.18   11.00
   1   1   0  166.98    7.10
   1   1   0  170.18    9.20
  -2  -1   0 1390.86   41.50
  -2  -1   0 1464.65   44.60
   2   1   0 1464.75   44.40
   2   1   0 1451.45   42.10
  -3  -1   0   73.19   15.30
  -3  -1   0   64.19   14.10
   3   1   0   69.29   15.30
   3   1   0   67.29   15.10
   3   1   0   46.80   23.30
  -4  -1   0 2655.03   85.49
  -4  -1   0 2733.63   87.79
   4   1   0 2585.04   61.29
   4   1   0 2578.54   86.09
   4   1   0 2545.15   81.29
  -5  -1   0    4.00   14.10
  -5  -1   0   21.40   17.90
   5   1   0    2.10    5.00
   5   1   0    3.10   17.10
   5   1   0   12.10   16.40
  -6  -1   0 1630.94   77.89
  -6  -1   0 1599.54   94.89
   6   1   0 1625.94   81.79
   6   1   0 1690.63   75.79
  -7  -1   0    3.40   26.20
  -7  -1   0   36.40   25.10
   7   1   0   19.70   21.90
   7   1   0   18.40   15.10
  -8  -1   0  530.85   66.79
  -8  -1   0  536.75   59.59
   8   1   0  491.85   64.99
   8   1   0  481.65   58.99
   8   1   0  559.84   39.80
   6  -2   0  377.76   54.49
   6  -2   0  433.86   52.09
   6  -2   0  391.56   46.90
  -6   2   0  458.15   59.79
  -6   2   0  446.26   58.39
  -6   2   0  477.95   58.89
   5  -2   0 1232.08   67.49
  -5   2   0 1218.38   71.29
  -5   2   0 1234.08   75.09
   4  -2   0  823.82   54.99
   4  -2   0  833.52   49.90
  -4   2   0  869.31   38.00
  -4   2   0  825.42   53.19
  -4   2   0  869.71   57.09
   3  -2   0 3295.47  105.79
   3  -2   0 3441.46  100.09
  -3   2   0 3380.26  106.49
  -3   2   0 3472.15  106.69
  -3   2   0 3505.55   90.49
   2  -2   0  869.91   39.90
   2  -2   0  950.90   44.60
  -2   2   0  938.51   44.00
  -2   2   0  849.91   43.00
  -2   2   0  866.01   37.70
   1  -2   0 5071.49  116.89
   1  -2   0 5104.89  116.79
  -1   2   0 4805.12  118.09
  -1   2   0 4859.11  128.49
  -1   2   0 5293.77  117.69
   0  -2   0    4.30    6.00
   0  -2   0    7.70    8.40
   0   2   0   16.90    6.60
   0   2   0    3.60    7.10
  -1  -2   0 2824.02   67.89
  -1  -2   0 2867.11   67.29
   1   2   0 2851.11   67.49
   1   2   0 2910.41   66.99
  -2  -2   0 2586.74   66.99
  -2  -2   0 2639.74   55.59
  -2  -2   0 2526.35   62.59
   2   2   0 2617.24   56.19
   2   2   0 2582.74   62.69
  -3  -2   0  636.54   29.50
  -3  -2   0  670.33   33.00
   3   2   0  633.44   29.40
   3   2   0  674.93   17.90
  -4  -2   0 3144.59   92.99
  -4  -2   0 3088.99   87.39
   4   2   0 3000.90   91.69
   4   2   0 3076.89   87.19
  -5  -2   0  347.47   32.50
  -5  -2   0  412.96   35.00
   5   2   0  426.56   37.00
   5   2   0  408.16   35.00
  -6  -2   0 1412.66   71.19
  -6  -2   0 1434.96   69.09
   6   2   0 1393.26   67.99
   6   2   0 1483.55   74.89
   6   2   0 1526.95   45.10
  -7  -2   0  146.49   37.50
  -7  -2   0  200.18   36.10
   7   2   0  179.08   38.10
   7   2   0  137.59   33.20
   7   2   0  154.28   17.80
  -8  -2   0  468.75   58.19
  -8  -2   0  527.65   57.99
   8   2   0  506.85   30.40
   8   2   0  526.35   59.89
   6  -3   0  143.89   37.20
   6  -3   0  165.78   43.50
   6  -3   0  223.68   49.50
  -6   3   0  110.09   49.60
  -6   3   0  140.99   43.30
  -6   3   0  145.29   50.89
   5  -3   0   83.49   29.90
   5  -3   0   56.69   28.20
   5  -3   0   34.60   29.60
  -5   3   0   67.09   30.80
  -5   3   0   72.69   16.30
  -5   3   0  112.69   34.70
   4  -3   0  233.58   36.00
   4  -3   0  156.48   33.80
  -4   3   0  196.08   34.80
  -4   3   0  208.78   25.90
  -4   3   0  252.27   39.30
   3  -3   0  481.55   39.20
   3  -3   0  513.15   43.30
  -3   3   0  449.16   43.00
  -3   3   0  538.25   45.30
  -3   3   0  457.05   34.40
   2  -3   0  100.99   21.10
   2  -3   0  126.69   11.50
  -2   3   0  130.49   23.30
  -2   3   0  110.19   22.50
  -2   3   0  118.09   20.20
   1  -3   0 1878.31   63.09
   1  -3   0 1900.21   64.69
  -1   3   0 1935.21   63.99
  -1   3   0 1888.91   65.79
  -1   3   0 1895.11   62.79
   0  -3   0  359.86   22.60
   0  -3   0  367.16   25.40
   0   3   0  333.87   22.60
   0   3   0  381.76   28.80
  -1  -3   0 3867.01   96.39
  -1  -3   0 3815.32   87.39
  -1  -3   0 3823.22   93.69
   1   3   0 3894.21   94.19
  -2  -3   0  685.33   29.70
  -2  -3   0  668.83   27.30
  -2  -3   0  650.33   31.60
   2   3   0  706.13   35.90
   2   3   0  707.63   31.20
  -3  -3   0 3609.74   94.39
  -3  -3   0 3596.44   89.39
   3   3   0 3638.44   89.29
  -4  -3   0   90.69   17.80
  -4  -3   0   86.09   17.90
  -4  -3   0   83.89   15.40
   4   3   0   66.19   14.50
  -5  -3   0 2015.20   76.09
  -5  -3   0 1868.91   68.29
   5   3   0 1981.80   69.99
  -6  -3   0   86.69   25.00
  -6  -3   0  128.09   24.20
   6   3   0  120.69   24.40
  -7  -3   0  755.02   53.89
  -7  -3   0  728.03   58.79
   7   3   0  828.92   57.09
  -8  -3   0  194.28   37.10
  -8  -3   0  176.98   40.50
   8   3   0  220.48   13.90
   8   3   0  294.77   47.60
   8   3   0  228.98   13.90
  -9  -3   0  292.07   62.69
   9   3   0  219.48   47.70
   5  -4   0   64.89   37.50
   5  -4   0   76.09   34.70
  -5   4   0   64.69   35.80
  -5   4   0   62.59   19.70
  -5   4   0   71.19   36.10
   4  -4   0  695.33   62.09
   4  -4   0  790.12   63.59
  -4   4   0  828.22   50.39
  -4   4   0  853.61   64.89
  -4   4   0  833.32   65.59
   3  -4   0   30.50   24.70
   3  -4   0   24.60   23.10
  -3   4   0   29.80   18.90
  -3   4   0   -3.60   18.70
  -3   4   0   61.39   26.40
   2  -4   0 1345.07   64.59
   2  -4   0 1487.35   43.80
  -2   4   0 1487.35   67.29
  -2   4   0 1394.86   64.79
  -2   4   0 1454.45   64.79
   1  -4   0  108.99   20.60
   1  -4   0  102.99   21.90
  -1   4   0  106.29   22.20
  -1   4   0  102.49   20.30
  -1   4   0   93.69   19.40
   0  -4   0 1718.63   58.69
   0  -4   0 1649.04   60.69
   0  -4   0 1751.42   68.59
   0   4   0 1699.63   68.79
   0   4   0 1634.44   61.79
  -1  -4   0 1095.39   46.60
  -1  -4   0 1134.59   41.50
  -1  -4   0 1120.39   50.39
   1   4   0 1093.29   52.39
   1   4   0 1119.29   46.00
  -2  -4   0 1632.64   57.69
  -2  -4   0 1633.04   55.69
   2   4   0 1662.43   55.99
   2   4   0 1628.84   56.59
  -3  -4   0 1579.64   58.29
  -3  -4   0 1505.25   47.90
  -3  -4   0 1508.35   53.39
   3   4   0 1567.34   53.39
   3   4   0 1615.64   57.19
  -4  -4   0 1436.66   54.19
  -4  -4   0 1591.54   57.79
  -4  -4   0 1596.64   62.09
   4   4   0 1510.75   54.79
  -5  -4   0  724.53   39.90
  -5  -4   0  665.93   42.80
  -5  -4   0  639.94   44.80
   5   4   0  669.33   39.30
  -6  -4   0 1014.10   52.09
  -6  -4   0 1008.00   62.99
  -6  -4   0  915.91   55.79
   6   4   0 1015.90   53.29
  -7  -4   0  210.18   31.70
   7   4   0  179.48   32.10
  -8  -4   0  242.78   37.70
  -8  -4   0  283.47   46.90
   8   4   0  275.97   46.10
   8   4   0  224.28   25.50
   8   4   0  238.38   26.60
  -9  -4   0   96.59   32.50
  -9  -4   0  106.59   40.60
   9   4   0   50.29   11.40
   9   4   0   64.29   35.80
   4  -5   0   60.29   33.10
   4  -5   0   39.60   34.30
  -4   5   0  151.68   30.70
  -4   5   0  133.49   37.50
  -4   5   0  139.99   43.90
   3  -5   0  598.44   59.39
  -3   5   0  496.85   55.69
  -3   5   0  558.54   48.30
  -3   5   0  594.94   55.89
   2  -5   0  450.05   45.10
   2  -5   0  461.85   26.30
   2  -5   0  454.05   53.99
  -2   5   0  461.35   45.60
  -2   5   0  534.95   46.00
  -2   5   0  513.55   44.90
   1  -5   0 1095.99   55.79
   1  -5   0 1022.50   43.20
   1  -5   0 1069.79   56.49
   1  -5   0 1048.40   66.19
  -1   5   0 1080.09   59.39
  -1   5   0  985.60   54.09
  -1   5   0 1011.40   59.59
   0  -5   0 1234.68   58.79
   0  -5   0 1221.98   54.29
   0  -5   0 1242.78   66.39
   0   5   0 1234.38   59.09
   0   5   0 1278.47   63.99
  -1  -5   0 1222.58   59.89
  -1  -5   0 1089.79   46.60
  -1  -5   0 1134.19   53.19
   1   5   0 1106.39   52.99
   1   5   0 1190.78   60.69
  -2  -5   0 1955.20   71.49
  -2  -5   0 2000.20   62.49
  -2  -5   0 2000.40   70.59
   2   5   0 2041.10   81.19
   2   5   0 2079.99   71.39
   2   5   0 2026.60   70.59
  -3  -5   0  241.78   24.80
  -3  -5   0  228.08   27.80
  -3  -5   0  269.57   11.10
   3   5   0  262.27   27.50
   3   5   0  250.47   29.80
  -4  -5   0 2021.80   75.69
  -4  -5   0 2071.69   70.29
  -4  -5   0 2048.40   60.39
   4   5   0 2046.60   69.49
  -5  -5   0   65.59   19.10
  -5  -5   0   33.00   19.80
  -5  -5   0   33.20   16.40
   5   5   0   49.50   17.50
  -6  -5   0 1330.37   68.59
  -6  -5   0 1250.87   59.19
  -6  -5   0 1292.07   66.19
   6   5   0 1243.48   59.69
  -7  -5   0  380.76   45.90
  -7  -5   0  293.47   35.90
   7   5   0  317.77   39.40
  -8  -5   0  497.05   57.39
  -8  -5   0  449.26   57.79
  -8  -5   0  440.76   47.00
   8   5   0  521.05   49.80
   8   5   0  505.65   42.30
  -9  -5   0  273.07   56.09
  -9  -5   0  276.07   51.99
  -9  -5   0  248.68   41.80
   9   5   0  265.57   30.70
   9   5   0  242.38   51.29
   9   5   0  216.28   30.60
   3  -6   0  840.22  128.09
   3  -6   0  652.03   66.69
  -3   6   0  703.23   60.29
  -3   6   0  799.42   90.49
  -3   6   0  669.53   66.19
   2  -6   0   16.90   29.00
   2  -6   0    6.70   11.40
  -2   6   0    0.40   17.90
  -2   6   0   -0.80   23.80
  -2   6   0   -6.00   22.50
   1  -6   0 1321.87   99.99
   1  -6   0 1228.58   76.19
   1  -6   0 1321.97   53.69
  -1   6   0 1331.67   70.19
  -1   6   0 1296.47   74.39
   0  -6   0   46.10   24.20
   0  -6   0   17.30   17.40
   0   6   0    2.10   15.30
   0   6   0   -8.90   18.30
  -1  -6   0 1530.75   75.99
  -1  -6   0 1411.66   60.29
  -1  -6   0 1481.55   65.99
   1   6   0 1560.14   72.29
   1   6   0 1539.45   69.39
   1   6   0 1633.34   83.69
  -2  -6   0   13.10   13.90
  -2  -6   0    0.40   29.10
  -2  -6   0    7.00   12.20
   2   6   0   -5.40   16.40
   2   6   0   29.10   18.20
  -3  -6   0  837.02   58.09
  -3  -6   0  831.42   46.90
   3   6   0  817.92   46.70
   3   6   0  925.81   62.59
   3   6   0  794.82   49.60
  -4  -6   0   22.70    6.60
  -4  -6   0   34.70   16.40
  -4  -6   0   40.70   15.00
   4   6   0   32.20   17.00
   4   6   0   31.80   20.00
  -5  -6   0   96.99   24.60
  -5  -6   0  158.58   25.40
   5   6   0  150.68   24.80
  -6  -6   0   48.00   22.00
  -6  -6   0   43.80   19.30
  -6  -6   0    4.10   15.30
   6   6   0    0.50   17.40
  -7  -6   0   14.60   21.90
  -7  -6   0   22.60   21.70
   7   6   0   20.10   24.10
   7   6   0  -13.50   17.50
  -8  -6   0  132.19   29.70
  -8  -6   0  121.29   35.20
  -8  -6   0  107.59   43.60
   8   6   0  153.68   32.30
   8   6   0  175.98   33.20
   1  -7   0  355.76   50.29
   1  -7   0  446.76   36.10
   1  -7   0  479.15   60.39
  -1   7   0  407.06   53.79
  -1   7   0  471.65   59.59
   0  -7   0  168.58   32.20
   0  -7   0  185.18   33.20
   0  -7   0  115.59   36.00
   0   7   0  110.59   32.60
   0   7   0  162.88   39.80
  -1  -7   0 1436.86   82.39
  -1  -7   0 1313.37   63.59
   1   7   0 1481.25   75.69
   1   7   0 1339.17   82.59
   1   7   0 1363.06   74.19
  -2  -7   0   19.10   20.00
  -2  -7   0   34.00   17.00
   2   7   0   49.80   23.70
   2   7   0   17.10   21.40
   2   7   0   57.09   25.00
  -3  -7   0 3164.68  107.79
  -3  -7   0 3185.88   94.49
   3   7   0 3066.39  120.69
   3   7   0 2953.00  105.49
  -4  -7   0  332.27   35.40
   4   7   0  310.17   57.49
   4   7   0  379.66   40.60
   4   7   0  408.86   45.10
  -5  -7   0 3322.47   73.79
   5   7   0 2616.64  168.98
   5   7   0 3399.46  108.19
  -6  -7   0  449.56   43.30
   6   7   0  401.76   42.20
  -7  -7   0 1751.92   90.69
  -7  -7   0 1959.20   81.79
  -7  -7   0 1776.52   91.79
   7   7   0 1786.92   80.89
  -8  -7   0  159.28   37.10
  -8  -7   0  193.68   44.90
  -8  -7   0  126.69   31.60
   8   7   0  192.78   37.40
   0  -8   0  212.78   45.40
   0  -8   0  196.88   32.50
   0  -8   0  221.58   58.29
   0   8   0  198.88   47.40
   0   8   0  220.48   45.20
   0   8   0  172.58   48.30
  -1  -8   0  311.67   39.40
  -1  -8   0  291.27   51.19
  -1  -8   0  326.07   46.90
   1   8   0  323.27   45.30
   1   8   0  464.55   62.39
   1   8   0  444.86   54.89
  -2  -8   0  315.17   47.60
  -2  -8   0  281.27   34.50
  -2  -8   0  229.48   40.90
   2   8   0  313.37   52.09
   2   8   0  329.57   47.40
   2   8   0  347.77   46.90
  -3  -8   0  456.55   38.60
  -3  -8   0  546.55   47.20
  -3  -8   0  512.65   52.19
   3   8   0  497.05   47.90
   3   8   0  452.25   50.99
   3   8   0  511.75   63.69
  -4  -8   0  334.57   42.10
  -4  -8   0  285.67   32.50
  -4  -8   0  405.86   51.49
   4   8   0  290.67   52.49
   4   8   0  221.48   39.90
   4   8   0  320.27   42.70
  -5  -8   0  485.45   41.20
  -5  -8   0  543.65   52.59
   5   8   0  523.75   64.99
   5   8   0  509.45   47.70
   5   8   0  509.55   47.40
  -6  -8   0  194.68   41.20
  -6  -8   0  227.88   34.70
   6   8   0  255.37   37.30
   6   8   0  229.28   46.50
  -7  -8   0  459.95   57.09
  -7  -8   0  403.56   47.10
   7   8   0  313.77   54.09
   7   8   0  409.16   48.00
  -3  -9   0  -50.29   22.80
  -3  -9   0   21.90   30.20
  -3  -9   0    1.60   21.10
   3   9   0   -9.60   29.90
   3   9   0   -3.40   35.80
   3   9   0   33.70   22.50
  -4  -9   0  879.71   52.49
  -4  -9   0  893.31   64.39
  -4  -9   0  830.82   69.59
   4   9   0  796.02   64.99
   4   9   0  942.31   86.49
   4   9   0  886.41   85.89
  -5  -9   0   72.29   32.70
  -5  -9   0   16.40   19.50
  -5  -9   0    6.50   20.50
   5   9   0   18.20   26.30
   5   9   0   26.40   38.00
   5   9   0   20.60   26.30
  -6  -9   0  323.87   41.00
   6   9   0  273.47   55.49
   6   9   0  254.77   39.70
   5   9  -1  409.06   53.49
   5   9  -1  334.47   47.10
  -5  -9   1  443.36   35.00
  -5  -9   1  396.66   36.40
  -5  -9   1  391.06   68.39
   4   9  -1  -42.70   25.10
   4   9  -1  -22.90   26.00
  -4  -9   1   16.00   17.50
  -4  -9   1   18.40   27.40
  -4  -9   1   42.10   36.80
   7   8  -1  469.55   52.39
  -7  -8   1  524.35   47.10
  -7  -8   1  459.25   53.59
   6   8  -1   96.39   29.20
  -6  -8   1   99.59   24.40
   5   8  -1  499.95   48.80
   5   8  -1  577.34   58.99
  -5  -8   1  499.15   56.39
  -5  -8   1  523.05   35.90
  -5  -8   1  533.95   38.80
   4   8  -1   16.60   25.00
   4   8  -1   28.40   30.30
   4   8  -1    3.00   24.70
  -4  -8   1    9.30   20.00
  -4  -8   1   10.40   13.60
  -4  -8   1    7.10   22.50
   3   8  -1  392.16   49.70
   3   8  -1  340.57   55.19
   3   8  -1  417.96   51.79
  -3  -8   1  450.25   34.40
  -3  -8   1  387.66   48.40
  -3  -8   1  391.16   48.00
   2   8  -1   76.69   32.30
   2   8  -1   77.49   39.30
   2   8  -1  142.19   31.50
  -2  -8   1   71.29   33.70
  -2  -8   1  169.38   27.30
   1   8  -1  149.88   82.89
   1   8  -1  329.97   51.59
   1   8  -1  411.66   51.69
  -1  -8   1  256.27   39.40
  -1  -8   1  342.27   55.99
  -1  -8   1  337.67   49.50
  -1  -8   1  275.07   35.10
   8   7  -1   32.60   25.10
  -8  -7   1   52.99   26.30
  -8  -7   1   -7.20   22.70
  -8  -7   1   16.70   30.20
   7   7  -1   34.30   24.70
  -7  -7   1   -9.10   23.90
  -7  -7   1   62.09   24.00
  -7  -7   1   36.00   23.70
   6   7  -1   35.00   21.80
  -6  -7   1   41.10   25.20
  -6  -7   1   72.79   22.20
   5   7  -1   83.99   26.00
  -5  -7   1   85.39   19.70
  -5  -7   1   75.69    8.70
  -5  -7   1   21.30   25.20
   4   7  -1  211.28   35.00
   4   7  -1  259.37   38.00
  -4  -7   1  250.97   25.80
  -4  -7   1  245.48   32.60
   3   7  -1  575.94   48.40
   3   7  -1  585.84   49.20
  -3  -7   1  556.04   33.90
  -3  -7   1  497.05   45.50
   2   7  -1  518.65   51.09
   2   7  -1  503.85   50.99
   2   7  -1  479.05   47.70
  -2  -7   1  384.36   45.60
  -2  -7   1  451.65   33.80
   1   7  -1  701.23   55.79
   1   7  -1  669.73   57.99
   1   7  -1  573.24   53.99
  -1  -7   1  586.84   61.69
  -1  -7   1  644.84   43.00
   0   7  -1  205.28   43.00
   0   7  -1  238.38   44.30
   0   7  -1  230.18   39.60
   0  -7   1  193.38   37.60
   0  -7   1  243.18   32.40
   0  -7   1  202.48   45.50
   0  -7   1  177.18   30.70
  -1   7  -1  360.36   53.49
  -1   7  -1  332.77   48.10
   1  -7   1  310.47   34.10
   1  -7   1  335.47   47.40
   1  -7   1  348.07   45.50
   1  -7   1  330.77   54.29
   8   6  -1  840.22   63.49
  -8  -6   1 1074.39   90.69
  -8  -6   1  964.00   68.69
  -8  -6   1  842.82   62.59
   7   6  -1  111.09   28.60
  -7  -6   1  140.99   29.70
  -7  -6   1  161.88   37.40
  -7  -6   1  120.89   28.00
   6   6  -1 1748.53   77.09
  -6  -6   1 1716.33   71.89
  -6  -6   1 1673.03   75.49
   5   6  -1   64.19   21.60
  -5  -6   1   81.49   21.60
  -5  -6   1   37.70   16.20
  -5  -6   1   34.80   19.30
   4   6  -1 1795.72   73.89
   4   6  -1 1721.23   73.89
  -4  -6   1 1795.72   67.49
  -4  -6   1 1881.11   77.49
   3   6  -1   11.50   17.40
   3   6  -1  -13.20   15.20
  -3  -6   1   12.30   15.30
  -3  -6   1   -6.10   18.20
  -3  -6   1    0.10    9.40
   2   6  -1 1451.15   65.09
   2   6  -1 1542.45   70.49
  -2  -6   1 1510.35   71.49
  -2  -6   1 1361.66   66.09
  -2  -6   1 1496.55   53.09
   1   6  -1    3.80   19.40
   1   6  -1   39.20   24.90
  -1  -6   1   20.70   14.70
  -1  -6   1   -7.90   19.80
  -1  -6   1   81.19   20.70
   0   6  -1  857.41   23.30
   0   6  -1  959.00   58.99
   0   6  -1  906.91   63.89
   0  -6   1  831.52   63.09
   0  -6   1  903.61   49.80
   0  -6   1  959.40   50.29
  -1   6  -1   59.99   29.10
  -1   6  -1  106.89   26.60
  -1   6  -1   84.39   14.60
   1  -6   1  150.38   36.90
   1  -6   1  105.49   20.80
   1  -6   1  130.69   28.50
  -2   6  -1  290.67   41.40
  -2   6  -1  321.57   43.70
  -2   6  -1  284.87   41.60
   2  -6   1  378.56   55.39
   2  -6   1  375.06   30.80
   2  -6   1  386.06   47.60
  -3   6  -1  225.48   44.80
  -3   6  -1  199.68   36.50
  -3   6  -1  120.49   34.90
   3  -6   1  206.78   45.50
   3  -6   1  120.19   43.00
   9   5  -1  252.77   48.10
   9   5  -1  181.98   30.50
  -9  -5   1  317.37   56.59
  -9  -5   1  320.17   51.19
  -9  -5   1  203.68   40.30
   8   5  -1   67.59   28.50
  -8  -5   1   79.49   29.10
  -8  -5   1   63.79   34.20
  -8  -5   1   77.69   29.10
   7   5  -1  961.40   70.79
  -7  -5   1 1085.69   63.39
  -7  -5   1  932.51   60.89
   6   5  -1  250.17   34.00
  -6  -5   1  292.67   38.60
  -6  -5   1  245.78   33.20
  -6  -5   1  220.18   31.30
   5   5  -1 2194.68   80.59
  -5  -5   1 2176.98   82.89
  -5  -5   1 2324.37   82.89
  -5  -5   1 2238.08   76.69
   4   5  -1  718.53   42.90
  -4  -5   1  669.03   42.20
  -4  -5   1  754.62   46.00
  -4  -5   1  807.02   37.80
   3   5  -1 2277.17   77.19
   3   5  -1 2243.38   77.59
  -3  -5   1 2276.37   78.19
  -3  -5   1 2225.08   73.59
   2   5  -1 1401.76   59.49
   2   5  -1 1503.95   62.39
  -2  -5   1 1426.96   46.30
  -2  -5   1 1427.46   59.79
  -2  -5   1 1434.76   60.99
   1   5  -1  708.83   43.70
   1   5  -1  689.73   45.30
  -1  -5   1  687.33   44.90
  -1  -5   1  770.12   44.70
  -1  -5   1  724.53   34.80
   0   5  -1 1581.74   41.80
   0   5  -1 1663.83   68.59
   0   5  -1 1760.72   77.59
   0  -5   1 1744.73   63.29
   0  -5   1 1746.13   78.59
   0  -5   1 1651.13   70.29
  -1   5  -1  119.39   33.90
  -1   5  -1   48.70   20.50
  -1   5  -1   74.39   20.70
   1  -5   1    9.70   14.20
   1  -5   1   66.19   21.50
   1  -5   1   74.49   17.20
   1  -5   1   65.29   28.20
  -2   5  -1 1408.56   68.89
  -2   5  -1 1280.07   70.99
  -2   5  -1 1240.78   66.69
   2  -5   1 1342.77   69.19
   2  -5   1 1255.37   48.90
   2  -5   1 1359.66   80.39
  -3   5  -1  -15.20   21.60
  -3   5  -1   30.20   28.30
  -3   5  -1  -11.20   18.70
   3  -5   1   58.39   29.50
  -4   5  -1  607.64   49.40
  -4   5  -1  306.77   54.79
  -4   5  -1  536.45   62.19
   4  -5   1  521.05   62.59
   4  -5   1  666.53   66.09
   9   4  -1  328.57   51.09
   9   4  -1  258.77   28.50
  -9  -4   1  292.97   51.09
  -9  -4   1  211.48   42.20
   8   4  -1  145.79   26.50
   8   4  -1  124.49   35.00
  -8  -4   1  195.18   37.90
  -8  -4   1  148.69   36.50
   7   4  -1  895.61   58.69
   7   4  -1  798.82   25.80
  -7  -4   1  803.52   72.29
  -7  -4   1  866.71   59.19
  -7  -4   1  935.81   59.49
   6   4  -1   42.90   20.90
   6   4  -1   26.10    8.40
  -6  -4   1   48.60   21.10
  -6  -4   1   23.00   19.10
  -6  -4   1   59.39   37.80
   5   4  -1 2017.10   61.09
   5   4  -1 1828.42   71.19
  -5  -4   1 1884.01   69.89
  -5  -4   1 1810.82   71.19
  -5  -4   1 1895.01   73.79
   4   4  -1   16.20   11.40
   4   4  -1   35.20   11.10
  -4  -4   1   12.40   13.20
  -4  -4   1   13.10   15.10
  -4  -4   1    8.50   10.70
   3   4  -1 3229.88   93.49
   3   4  -1 3373.76   89.69
   3   4  -1 3394.76   94.79
  -3  -4   1 3405.16   95.39
  -3  -4   1 3483.25   95.89
  -3  -4   1 3448.16   88.49
   2   4  -1   49.00   12.90
   2   4  -1   45.50   15.00
  -2  -4   1   66.99   16.00
  -2  -4   1   39.90   13.90
   1   4  -1 3553.64   96.99
   1   4  -1 3429.86   98.39
  -1  -4   1 3615.24  102.49
  -1  -4   1 3408.56   98.29
  -1  -4   1 3390.06   94.89
   0   4  -1  151.48   11.60
   0   4  -1  150.08   22.50
   0   4  -1  147.89   18.00
   0  -4   1  168.68   19.70
   0  -4   1  162.18   23.50
   0  -4   1  138.19   24.60
  -1   4  -1 1755.42   68.29
  -1   4  -1 1722.73   69.99
  -1   4  -1 1683.03   62.99
   1  -4   1 1698.03   69.29
   1  -4   1 1874.21   57.99
   1  -4   1 1793.72   66.59
   1  -4   1 1678.03   75.79
  -2   4  -1  656.33   44.10
  -2   4  -1  508.05   39.90
  -2   4  -1  514.75   40.40
   2  -4   1  511.65   40.80
   2  -4   1  518.85   28.80
   2  -4   1  415.96   46.20
  -3   4  -1  343.97   34.70
  -3   4  -1  454.55   49.00
  -3   4  -1  417.96   46.40
   3  -4   1  404.46   48.60
   3  -4   1  414.96   46.20
  -4   4  -1  472.45   56.29
  -4   4  -1  598.04   42.50
  -4   4  -1  557.84   55.09
   4  -4   1  563.64   60.29
   4  -4   1  569.64   59.09
  -5   4  -1   36.70   27.80
  -5   4  -1   47.10   31.00
  -5   4  -1   64.99   19.30
   5  -4   1   45.80   42.90
   5  -4   1   18.70   32.50
   8   3  -1  684.03   38.60
   8   3  -1  689.13   55.79
  -8  -3   1  650.73   59.29
  -8  -3   1  641.64   56.09
   7   3  -1  170.58   33.40
   7   3  -1  144.39   23.10
  -7  -3   1   76.69   25.20
  -7  -3   1  142.89   32.20
   6   3  -1 1066.49   58.49
  -6  -3   1 1118.79   61.69
  -6  -3   1 1049.99   59.59
   5   3  -1  746.33   44.50
  -5  -3   1  772.92   45.30
  -5  -3   1  693.63   43.20
   4   3  -1  460.55   22.70
   4   3  -1  438.86   31.70
  -4  -3   1  475.45   33.20
  -4  -3   1  453.45   32.80
  -4  -3   1  491.65   30.80
   3   3  -1 3375.56   89.19
   3   3  -1 3229.78   82.29
  -3  -3   1 3386.56   82.99
  -3  -3   1 3396.06   89.59
  -3  -3   1 3367.66   90.29
   2   3  -1  259.27   20.20
   2   3  -1  285.17   22.10
   2   3  -1  250.17   21.90
  -2  -3   1  263.97   22.00
  -2  -3   1  241.78   20.70
   1   3  -1 7680.63  164.48
   1   3  -1 7453.75  161.28
  -1  -3   1 7587.84  161.38
  -1  -3   1 7333.37  164.88
  -1  -3   1 7252.77  147.19
   0   3  -1 1106.49   37.40
   0   3  -1 1100.79   30.60
   0   3  -1 1162.18   44.50
   0  -3   1 1105.99   47.40
   0  -3   1  987.30   38.00
   0  -3   1 1133.69   43.40
  -1   3  -1 6264.87  143.59
  -1   3  -1 6030.00  147.09
   1  -3   1 6161.68  135.09
   1  -3   1 6141.69  144.49
   1  -3   1 6233.98  155.98
   1  -3   1 6172.98  148.59
  -2   3  -1  476.15   33.30
  -2   3  -1  480.65   36.20
  -2   3  -1  558.44   39.90
   2  -3   1  400.96   35.00
   2  -3   1  525.35   29.30
   2  -3   1  545.15   37.70
   2  -3   1  506.75   40.90
  -3   3  -1 2573.84   96.89
  -3   3  -1 2542.05   80.19
  -3   3  -1 2484.55   94.29
   3  -3   1 2569.94   94.69
   3  -3   1 2566.34   97.29
   3  -3   1 2740.43   97.49
  -4   3  -1  190.18   23.60
  -4   3  -1  188.58   36.50
  -4   3  -1  206.48   36.10
   4  -3   1  235.38   38.00
   4  -3   1  175.28   37.90
   4  -3   1  171.98   34.00
  -5   3  -1  664.33   68.79
  -5   3  -1  752.72   66.39
  -5   3  -1  734.43   34.90
   5  -3   1  761.82   67.29
   5  -3   1  669.63   59.99
   5  -3   1  752.82   62.69
  -6   3  -1   34.00   39.10
   6  -3   1  139.09   46.40
   6  -3   1  135.99   34.90
   6  -3   1   88.09   40.00
   8   2  -1  314.97   46.00
   8   2  -1  371.86   54.69
  -8  -2   1  349.07   51.89
  -8  -2   1  415.26   55.39
   7   2  -1   28.10   25.50
   7   2  -1    2.70   18.90
  -7  -2   1  -14.60   17.40
  -7  -2   1  -12.00   20.60
   6   2  -1 1086.39   63.89
   6   2  -1 1034.20   55.59
   6   2  -1  958.60   44.10
  -6  -2   1 1139.59   63.89
  -6  -2   1 1006.70   60.69
   5   2  -1   71.39   20.90
   5   2  -1   39.80   18.40
   5   2  -1   66.69   15.00
  -5  -2   1   36.20   18.20
  -5  -2   1   56.69   19.40
   4   2  -1 2487.45   78.89
   4   2  -1 2506.05   79.89
  -4  -2   1 2403.16   77.59
  -4  -2   1 2526.65   80.49
   3   2  -1  136.19   16.40
   3   2  -1  176.38   17.40
  -3  -2   1  120.79   16.00
  -3  -2   1  150.68   17.20
   2   2  -1 5825.22  120.69
   2   2  -1 5253.77  134.29
  -2  -2   1 5784.12  117.89
  -2  -2   1 6032.50  127.69
  -2  -2   1 5761.02  125.49
   1   2  -1  408.86   20.40
   1   2  -1  441.06   23.00
   1   2  -1  440.16   21.70
  -1  -2   1  439.16   22.30
  -1  -2   1  420.26   22.20
  -1  -2   1  410.56   19.90
   0   2  -1 5680.83  112.59
   0   2  -1 5589.24  131.19
   0   2  -1 5719.73  128.89
   0   2  -1 5974.80  116.69
   0  -2   1 5414.66  140.09
   0  -2   1 5714.23  116.99
   0  -2   1 5828.82  123.99
  -1   2  -1 1415.06   48.80
  -1   2  -1 1323.77   47.80
   1  -2   1 1428.36   49.10
   1  -2   1 1426.76   51.89
   1  -2   1 1368.36   48.90
   1  -2   1 1331.07   46.20
   1  -2   1 1395.06   41.20
  -2   2  -1 1963.10   65.89
  -2   2  -1 1998.70   67.99
  -2   2  -1 1965.60   68.39
   2  -2   1 2124.49   69.39
   2  -2   1 1902.81   66.99
   2  -2   1 1797.32   67.79
  -3   2  -1 1567.04   67.79
  -3   2  -1 1631.34   68.29
   3  -2   1 1691.33   68.59
   3  -2   1 1629.24   67.79
   3  -2   1 1619.44   68.09
  -4   2  -1  265.97   20.40
  -4   2  -1  266.07   37.70
  -4   2  -1  282.17   39.30
   4  -2   1  268.97   34.70
   4  -2   1  320.77   40.40
   4  -2   1  228.38   33.80
  -5   2  -1  809.02   23.50
  -5   2  -1  932.11   67.29
  -5   2  -1  886.01   66.39
   5  -2   1  831.92   56.89
   5  -2   1  911.71   64.19
  -6   2  -1   -5.40   24.90
  -6   2  -1  -35.20   27.20
  -6   2  -1   16.10   25.70
   6  -2   1   -3.00   27.90
   6  -2   1   -9.50   24.90
   6  -2   1   22.70   23.30
   8   1  -1  372.16   60.49
   8   1  -1  281.27   45.90
  -8  -1   1  181.28   41.40
  -8  -1   1  265.97   48.70
   7   1  -1  206.18   40.90
   7   1  -1  123.49   31.20
   7   1  -1  145.79   13.80
  -7  -1   1  182.28   38.10
  -7  -1   1  180.78   37.60
   6   1  -1 2192.48   82.09
   6   1  -1 2053.39   91.99
   6   1  -1 2088.89   62.09
  -6  -1   1 2102.79   94.19
  -6  -1   1 2137.19   92.79
   5   1  -1  169.58   25.90
   5   1  -1  118.19   24.70
   5   1  -1  100.99   16.30
  -5  -1   1  124.29   29.20
  -5  -1   1  141.99   25.00
   4   1  -1 8810.12  196.88
   4   1  -1 9149.29  191.28
   4   1  -1 8829.62  208.98
   4   1  -1 9299.37  209.48
  -4  -1   1 9116.79  207.48
  -4  -1   1 9259.37  212.58
   3   1  -1   15.50   12.20
   3   1  -1   35.50    9.80
   3   1  -1   19.30   10.90
  -3  -1   1   31.20   11.80
  -3  -1   1   30.20   12.10
   1   1  -1    6.60    5.30
   1   1  -1    3.00    4.90
   1   1  -1    3.40    3.00
  -1  -1   1    5.40    4.90
  -1  -1   1    6.30    6.20
  -1  -1   1    6.00    2.80
   0  -1   1 9999.00  193.68
  -1   1  -1   47.30    9.90
  -1   1  -1   34.00    9.30
  -1   1  -1   29.10    6.90
   1  -1   1   25.50    6.60
   1  -1   1   26.60    7.90
   1  -1   1   41.20    9.00
   1  -1   1   42.30   10.70
  -2   1  -1 1795.52   47.80
  -2   1  -1 1876.51   61.19
  -2   1  -1 1799.92   60.59
   2  -1   1 1807.22   57.49
   2  -1   1 1836.72   59.19
   2  -1   1 1828.22   60.29
  -3   1  -1  333.27   29.20
  -3   1  -1  341.77   31.40
  -3   1  -1  340.67   19.10
  -3   1  -1  320.07   16.20
   3  -1   1  330.07   28.80
   3  -1   1  364.46   28.80
   3  -1   1  332.47   29.50
  -4   1  -1  670.13   45.70
  -4   1  -1  687.23   46.00
  -4   1  -1  685.43   27.70
  -4   1  -1  688.73   17.60
   4  -1   1  701.63   47.50
   4  -1   1  655.03   47.60
   4  -1   1  684.33   41.30
  -5   1  -1  567.74   24.70
  -5   1  -1  609.84   81.69
  -5   1  -1  572.44   65.49
   5  -1   1  698.03   51.99
   5  -1   1  538.55   41.30
   5  -1   1  582.14   51.39
  -6   1  -1  401.66   49.80
  -6   1  -1  280.17   46.30
  -6   1  -1  323.87   49.60
   6  -1   1  308.07   49.10
   6  -1   1  385.96   53.49
   6  -1   1  272.17   35.70
  -7   1  -1  338.57   56.49
  -7   1  -1  420.66   57.19
  -7   1  -1  315.07   53.39
   7  -1   1  386.96   55.79
   7  -1   1  375.66   58.69
   7  -1   1  372.96   43.10
   8   0  -1  156.78   38.00
   8   0  -1   98.69   44.20
  -8   0   1   55.89   34.40
  -8   0   1  119.09   44.90
   7   0  -1  540.15   47.80
   7   0  -1  435.76   53.49
  -7   0   1  470.55   57.59
  -7   0   1  602.24   56.79
   6   0  -1  331.87   43.50
   6   0  -1  405.06   22.10
   6   0  -1  421.46   39.20
  -6   0   1  426.46   50.79
  -6   0   1  396.86   48.90
  -6   0   1  377.56   15.90
   5   0  -1  773.12   44.80
   5   0  -1  766.82   52.89
   5   0  -1  800.82   34.90
  -5   0   1  850.01   55.69
  -5   0   1  813.02   57.19
   4   0  -1 1424.26   53.69
   4   0  -1 1434.46   63.49
   4   0  -1 1445.66   49.10
  -4   0   1 1435.96   63.09
  -4   0   1 1489.55   68.39
   3   0  -1  406.16   30.30
   3   0  -1  443.16   24.30
   3   0  -1  491.25   26.20
  -3   0   1  462.35   33.00
  -3   0   1  463.65   31.50
  -3   0   1  427.66   22.90
   2   0  -1 2082.89   56.59
   2   0  -1 2090.49   51.09
   2   0  -1 1927.91   60.29
  -2   0   1 2105.59   59.09
  -2   0   1 2056.39   64.39
  -2   0   1 1968.00   53.69
   1   0  -1   76.79    5.20
   1   0  -1   75.99    9.20
   1   0  -1   93.79   12.20
   1   0  -1   85.99   11.00
  -1   0   1   72.29    9.50
  -1   0   1   92.09   12.40
  -1   0   1   80.69    9.00
  -1   0   1   97.39    7.50
   0   0  -1  332.07   13.00
   0   0  -1  311.17    7.80
   0   0  -1  324.17   11.30
   0   0  -1  308.27   14.50
   0   0  -1  317.17   12.10
   0   0   1  366.96   15.70
   0   0   1  338.17   13.50
   0   0   1  326.97   10.80
   0   0   1  327.17   12.10
  -1   0  -1   81.09   10.20
  -1   0  -1   70.39    7.20
  -1   0  -1   70.39    8.40
   1   0   1   74.09   11.70
   1   0   1   95.89    9.20
   1   0   1   85.49   10.10
  -2   0  -1 4758.52  115.89
  -2   0  -1 4691.43   88.39
   2   0   1 4708.53  111.69
   2   0   1 4812.32  112.49
   2   0   1 4714.53  102.59
  -3   0  -1  116.79   20.40
   3   0   1  129.99   16.20
   3   0   1   94.19   17.40
   3   0   1  139.49   22.20
  -4   0  -1 2859.71   96.69
   4   0   1 3029.20   96.49
   4   0   1 2920.41   82.29
   4   0   1 2958.60   98.49
  -5   0  -1   29.30   18.30
  -5   0  -1   25.00   21.70
   5   0   1   15.50   18.60
   5   0   1   19.60   22.60
   5   0   1   37.00   14.70
  -6   0  -1  971.70   68.19
  -6   0  -1  996.30   40.00
   6   0   1  931.61   63.99
   6   0   1 1007.30   50.59
  -7   0  -1    8.40   12.80
  -7   0  -1  -50.89   24.20
  -7   0  -1   -1.20   21.80
   7   0   1   31.80   31.40
   7   0   1    2.00   28.30
   7   0   1    6.70   17.00
   7  -1  -1  330.07   46.50
   7  -1  -1  225.88   46.90
  -7   1   1  356.96   53.19
  -7   1   1  372.26   57.39
  -7   1   1  329.97   49.50
   6  -1  -1  477.85   43.30
  -6   1   1  461.95   53.69
  -6   1   1  572.44   55.19
  -6   1   1  441.76   54.89
   5  -1  -1 1366.46   62.49
   5  -1  -1 1312.77   53.69
   5  -1  -1 1453.25   72.39
  -5   1   1 1348.86   70.79
  -5   1   1 1223.98   70.89
  -5   1   1 1436.66   74.99
   4  -1  -1  453.85   31.40
   4  -1  -1  401.96   35.50
   4  -1  -1  387.96   26.40
  -4   1   1  425.26   26.30
  -4   1   1  362.26   38.10
  -4   1   1  338.47   40.20
   3  -1  -1 2596.14   73.59
   3  -1  -1 2760.72   73.79
   3  -1  -1 2585.64   84.69
  -3   1   1 2415.56   80.29
  -3   1   1 2737.33   84.79
  -3   1   1 2465.35   87.59
   2  -1  -1   -2.00    6.40
   2  -1  -1   11.20    9.70
   2  -1  -1   -2.60    9.70
  -2   1   1    6.90    8.70
  -2   1   1   15.50   11.00
  -2   1   1    8.90    9.70
   1  -1  -1 2937.71   74.79
   1  -1  -1 2765.32   70.59
  -1   1   1 2935.91   70.99
  -1   1   1 2867.91   67.19
  -1   1   1 2820.62   73.09
   0  -1  -1  422.86   22.30
   0  -1  -1  412.06   14.40
   0   1   1  399.46   20.40
   0   1   1  408.86   14.50
  -1  -1  -1 2188.28   50.09
   1   1   1 2160.18   54.09
  -2  -1  -1  449.95   19.30
  -2  -1  -1  440.06   23.60
  -2  -1  -1  473.65   14.50
   2   1   1  487.75   18.60
  -3  -1  -1 1814.62   56.49
  -3  -1  -1 1854.11   62.19
   3   1   1 1860.61   62.89
   3   1   1 1837.12   44.60
   3   1   1 1699.13   61.19
   3   1   1 1815.32   40.30
  -4  -1  -1  570.04   35.40
  -4  -1  -1  583.54   40.10
   4   1   1  555.04   36.10
   4   1   1  516.95   38.50
   4   1   1  553.04   24.70
  -5  -1  -1  974.30   52.09
  -5  -1  -1  956.40   55.19
   5   1   1  946.51   53.19
   5   1   1  999.60   55.59
   5   1   1  950.00   39.20
  -6  -1  -1  531.15   45.90
  -6  -1  -1  470.45   49.10
   6   1   1  507.45   47.70
   6   1   1  490.75   30.90
  -7  -1  -1  180.78   33.40
  -7  -1  -1  172.08   38.90
   7   1   1  186.68   39.90
   7   1   1  144.79   22.00
  -8  -1  -1  257.07   43.50
  -8  -1  -1  254.07   49.30
   8   1   1  345.57   53.09
   8   1   1  293.97   30.60
   6  -2  -1   86.99   35.10
   6  -2  -1  144.39   32.80
  -6   2   1  235.88   47.10
  -6   2   1  268.77   47.30
  -6   2   1  147.09   38.20
   5  -2  -1   62.29   23.90
  -5   2   1   52.89   15.20
  -5   2   1   51.49   23.70
  -5   2   1   51.49   22.40
  -5   2   1   16.50   25.80
   4  -2  -1  965.30   49.90
   4  -2  -1  949.80   56.49
  -4   2   1  893.11   53.39
  -4   2   1  838.52   54.29
  -4   2   1  903.21   43.20
   3  -2  -1  887.51   50.29
   3  -2  -1  881.51   42.30
   3  -2  -1  933.91   42.70
  -3   2   1  846.82   47.40
  -3   2   1  836.52   41.20
  -3   2   1  787.82   48.50
   2  -2  -1 3656.43   89.59
   2  -2  -1 3479.25   95.89
   2  -2  -1 3532.65   99.09
  -2   2   1 3368.36   94.59
  -2   2   1 3555.64   99.29
  -2   2   1 3457.15   94.49
   1  -2  -1 3248.48   94.49
   1  -2  -1 3488.75   85.99
   1  -2  -1 3604.34   89.89
  -1   2   1 3554.34   85.89
  -1   2   1 3459.65   88.49
  -1   2   1 3335.17   91.29
   0  -2  -1 7204.18  154.08
   0  -2  -1 7073.99  147.69
   0  -2  -1 7254.57  160.28
   0   2   1 7398.96  148.39
  -1  -2  -1 5574.84  124.29
  -1  -2  -1 5352.96  114.59
  -1  -2  -1 5554.44  108.09
   1   2   1 5477.15  108.19
   1   2   1 5392.46  114.59
   1   2   1 5425.86  123.69
  -2  -2  -1 3283.17   80.09
  -2  -2  -1 3141.39   68.99
   2   2   1 3363.46   82.09
   2   2   1 3350.46   69.79
  -3  -2  -1 2747.53   67.49
  -3  -2  -1 2987.20   81.99
   3   2   1 2856.01   71.69
   3   2   1 2765.82   68.99
  -4  -2  -1  181.18   24.10
  -4  -2  -1  173.38   20.00
   4   2   1  211.08   16.20
  -5  -2  -1 1278.47   63.89
  -5  -2  -1 1318.07   56.19
   5   2   1 1295.77   33.90
   5   2   1 1208.08   60.79
   5   2   1 1344.67   37.30
  -6  -2  -1  -29.20   12.80
  -6  -2  -1   17.10   16.90
   6   2   1   13.80   20.50
   6   2   1    2.50    6.40
  -7  -2  -1  616.54   50.19
  -7  -2  -1  773.72   59.59
   7   2   1  711.23   31.00
   7   2   1  746.63   58.49
  -8  -2  -1   62.89   26.10
  -8  -2  -1   50.29   33.30
   8   2   1    7.60   27.60
   6  -3  -1  445.76   61.49
  -6   3   1  448.16   61.79
  -6   3   1  413.66   65.99
  -6   3   1  530.35   33.80
   5  -3  -1  230.98   42.40
  -5   3   1  176.88   25.90
  -5   3   1  207.88   41.10
  -5   3   1  228.78   42.30
  -5   3   1  163.28   38.30
   4  -3  -1 1322.67   74.49
  -4   3   1 1210.58   57.39
  -4   3   1 1288.97   70.89
  -4   3   1 1239.88   73.29
   3  -3  -1   79.89   22.50
  -3   3   1   85.59   23.00
  -3   3   1   87.59   20.30
  -3   3   1   74.09   21.50
   2  -3  -1 2511.95   84.59
   2  -3  -1 2430.26   51.79
  -2   3   1 2401.16   82.19
  -2   3   1 2459.95   81.09
  -2   3   1 2375.56   81.69
   1  -3  -1   10.90   12.20
   1  -3  -1   17.70   10.30
  -1   3   1   10.70   10.70
  -1   3   1   18.40   12.40
  -1   3   1   12.70   13.00
   0  -3  -1 4882.71  114.49
   0  -3  -1 4759.22  114.99
   0   3   1 5001.70  115.19
   0   3   1 4880.41  125.89
  -1  -3  -1  106.99   15.10
   1   3   1  117.39   19.70
   1   3   1  131.59    9.20
   1   3   1  115.99   15.40
  -2  -3  -1 8410.86  175.78
  -2  -3  -1 8284.27  162.48
   2   3   1 8425.96  176.18
   2   3   1 8336.57  166.58
   2   3   1 7850.81  182.88
  -3  -3  -1  114.79   12.60
  -3  -3  -1  133.29    8.40
  -3  -3  -1  124.59   17.90
   3   3   1  121.19   13.40
   3   3   1  112.39   17.40
  -4  -3  -1 5591.24  140.89
  -4  -3  -1 5503.15  124.69
   4   3   1 5613.14  132.29
  -5  -3  -1  275.37   33.10
  -5  -3  -1  281.57   25.70
   5   3   1  296.97   24.50
   5   3   1  292.97   26.40
  -6  -3  -1 1546.25   62.89
  -6  -3  -1 1596.84   76.59
   6   3   1 1502.85   71.99
  -7  -3  -1  307.87   43.40
  -7  -3  -1  305.57   36.30
   7   3   1  317.77   46.90
   7   3   1  307.17   16.80
   7   3   1  293.17   17.00
  -8  -3  -1  170.08   38.50
  -8  -3  -1  184.08   33.00
   8   3   1  246.68   47.80
   5  -4  -1  560.34   67.59
  -5   4   1  721.93   49.70
  -5   4   1  723.63   68.89
  -5   4   1  679.43   59.99
   4  -4  -1  293.07   45.60
  -4   4   1  239.78   33.50
  -4   4   1  235.98   41.40
  -4   4   1  256.17   46.70
   3  -4  -1 1617.24   79.39
  -3   4   1 1786.82   75.69
  -3   4   1 1698.83   79.39
  -3   4   1 1620.74   84.09
   2  -4  -1 1023.10   30.80
   2  -4  -1 1042.50   54.79
  -2   4   1  955.50   54.69
  -2   4   1  957.00   53.89
  -2   4   1 1009.20   55.59
   1  -4  -1 2130.59   75.39
   1  -4  -1 2052.69   72.49
  -1   4   1 2100.89   74.69
  -1   4   1 2033.90   73.09
  -1   4   1 2019.60   79.69
   0  -4  -1 2099.49   69.49
   0  -4  -1 2154.48   69.99
   0   4   1 2117.49   70.09
   0   4   1 2066.29   78.69
  -1  -4  -1  533.65   31.60
  -1  -4  -1  539.65   30.70
   1   4   1  515.45   32.00
   1   4   1  543.05   39.90
   1   4   1  494.05   17.30
  -2  -4  -1 2716.93   78.39
   2   4   1 2615.14   87.39
   2   4   1 2707.03   72.79
   2   4   1 2608.94   77.49
  -3  -4  -1  222.18   21.80
  -3  -4  -1  250.57   18.00
  -3  -4  -1  239.58   23.40
   3   4   1  219.28   27.80
   3   4   1  243.18   19.90
   3   4   1  208.68   24.40
  -4  -4  -1 2295.27   66.19
  -4  -4  -1 2291.37   77.39
   4   4   1 2371.16   79.79
   4   4   1 2342.77   66.89
  -5  -4  -1  772.82   45.60
  -5  -4  -1  788.72   46.90
  -5  -4  -1  810.82   38.00
   5   4   1  809.32   39.70
   5   4   1  801.32   44.70
  -6  -4  -1 1400.26   57.69
  -6  -4  -1 1474.95   72.09
   6   4   1 1367.86   58.59
   6   4   1 1413.36   58.49
  -7  -4  -1  511.15   39.30
  -7  -4  -1  474.55   49.70
   7   4   1  503.15   47.30
   7   4   1  489.85   33.70
  -8  -4  -1  613.84   60.29
  -8  -4  -1  709.03   63.89
   8   4   1  547.05   63.19
   8   4   1  574.74   34.50
  -9  -4  -1  122.69   32.10
   9   4   1  202.38   49.20
   4  -5  -1   -5.30   23.40
   4  -5  -1  115.59   47.70
  -4   5   1   42.50   30.40
  -4   5   1   54.79   31.20
  -4   5   1   19.70   25.40
   3  -5  -1  704.93   56.99
  -3   5   1  815.92   64.39
  -3   5   1  878.61   63.49
  -3   5   1  814.52   61.19
   2  -5  -1   22.70   20.30
   2  -5  -1   10.00    7.90
  -2   5   1   61.59   24.00
  -2   5   1   33.40   21.70
  -2   5   1   -4.70   31.30
   1  -5  -1 1551.04   69.39
   1  -5  -1 1432.86   76.39
  -1   5   1 1687.03   78.09
  -1   5   1 1526.35   69.19
   0  -5  -1    3.70   11.40
   0  -5  -1   -0.60   11.40
   0   5   1    3.40   11.20
   0   5   1   22.70   21.00
  -1  -5  -1 2248.97   73.99
  -1  -5  -1 2185.48   75.89
   1   5   1 2215.38   86.99
   1   5   1 2159.78   47.60
   1   5   1 2114.39   75.19
  -2  -5  -1  145.89   22.50
   2   5   1  139.09   21.00
   2   5   1  116.59   23.40
   2   5   1  166.38   23.90
  -3  -5  -1 2167.78   74.29
  -3  -5  -1 2089.59   66.19
  -3  -5  -1 1978.00   49.90
   3   5   1 1968.10   71.29
   3   5   1 2113.39   84.09
   3   5   1 2015.20   65.19
  -4  -5  -1  673.83   29.20
  -4  -5  -1  587.44   40.90
  -4  -5  -1  652.93   30.60
   4   5   1  707.13   36.00
   4   5   1  615.74   44.70
  -5  -5  -1  914.81   51.79
  -5  -5  -1  976.00   44.40
  -5  -5  -1  888.11   50.99
   5   5   1  899.91   43.40
   5   5   1 1083.59   57.99
  -6  -5  -1 1034.20   60.69
  -6  -5  -1  996.00   48.40
   6   5   1 1133.89   59.09
   6   5   1 1048.80   50.19
  -7  -5  -1  220.48   29.40
  -7  -5  -1  282.47   40.50
   7   5   1  229.08   31.40
   7   5   1  198.98   29.60
  -8  -5  -1  724.03   66.39
  -8  -5  -1  601.24   45.70
  -8  -5  -1  576.54   59.79
   8   5   1  677.13   44.80
  -9  -5  -1   42.40   30.30
  -9  -5  -1   68.49   25.40
  -9  -5  -1   38.10   43.40
   9   5   1   58.19   37.90
   9   5   1    9.00   16.10
   9   5   1    2.10   14.70
   3  -6  -1  403.26   67.39
   3  -6  -1  435.46   57.89
  -3   6   1  440.06   56.19
  -3   6   1  342.77   51.79
  -3   6   1  377.56   51.99
   2  -6  -1  -28.10   19.00
   2  -6  -1   11.50   11.00
   2  -6  -1   26.20   26.80
  -2   6   1    7.40   22.60
  -2   6   1   13.40   25.10
   1  -6  -1 1779.12   82.59
   1  -6  -1 1868.11   82.79
  -1   6   1 1730.23   88.29
  -1   6   1 1825.42   83.99
   0  -6  -1  227.48   32.40
   0  -6  -1  198.78   32.30
   0   6   1  222.98   38.80
   0   6   1  147.29   29.90
  -1  -6  -1 4345.37  123.29
  -1  -6  -1 4396.16  127.99
   1   6   1 4218.28  147.19
   1   6   1 4498.35  130.19
  -2  -6  -1  575.64   44.30
  -2  -6  -1  546.45   42.10
  -2  -6  -1  508.55   37.60
   2   6   1  504.45   38.20
   2   6   1  450.25   58.69
   2   6   1  539.65   42.20
  -3  -6  -1 5451.85  141.19
  -3  -6  -1 5171.78  143.89
   3   6   1 5506.75  146.69
   3   6   1 5206.18  161.08
   3   6   1 5462.25  138.59
  -4  -6  -1  255.97   25.00
  -4  -6  -1  349.17   63.29
   4   6   1  284.57   29.60
   4   6   1  304.67   40.00
   4   6   1  227.58   32.50
  -5  -6  -1 3093.29  107.49
  -5  -6  -1 3030.40   83.69
   5   6   1 3051.19  112.99
   5   6   1 3201.28   93.29
  -6  -6  -1   62.89   24.50
  -6  -6  -1   75.39   19.40
   6   6   1   64.29   24.20
   6   6   1  108.89   21.40
  -7  -6  -1  886.11   50.09
  -7  -6  -1  896.41   63.79
   7   6   1  979.20   54.49
   7   6   1  923.81   59.29
  -8  -6  -1   75.29   34.10
  -8  -6  -1   28.40   23.70
   8   6   1   84.29   26.70
   8   6   1   45.50   23.30
   2  -7  -1  426.86   63.89
   2  -7  -1  435.16   26.80
   2  -7  -1  476.25   61.09
  -2   7   1  529.65   63.49
  -2   7   1  446.26   59.49
   1  -7  -1   74.99   35.30
   1  -7  -1   15.30   15.40
   1  -7  -1   27.90   24.10
   1  -7  -1   15.20   31.30
  -1   7   1    7.10   28.10
  -1   7   1  -11.50   24.60
   0  -7  -1  979.30   64.09
   0  -7  -1 1010.30   61.99
   0  -7  -1 1008.60   77.29
   0   7   1  897.31   62.19
   0   7   1  886.81   70.79
  -1  -7  -1   -8.70   16.90
  -1  -7  -1   17.70   22.60
  -1  -7  -1   14.30   20.50
   1   7   1   50.69   23.90
   1   7   1   50.49   29.70
  -2  -7  -1  876.21   56.09
  -2  -7  -1  934.61   52.49
  -2  -7  -1  908.81   58.79
   2   7   1 1041.10   60.99
   2   7   1  959.50   69.09
   2   7   1  911.91   68.99
  -3  -7  -1   65.29   22.40
  -3  -7  -1  112.59   25.60
  -3  -7  -1   55.49   19.50
   3   7   1   82.09   22.90
   3   7   1  121.69   28.40
  -4  -7  -1  404.86   35.80
   4   7   1  327.57   47.00
   4   7   1  351.46   41.10
   4   7   1  372.66   36.00
  -5  -7  -1  449.66   31.40
  -5  -7  -1  428.06   24.30
   5   7   1  528.65   51.59
   5   7   1  443.76   38.30
  -6  -7  -1   68.59   25.80
  -6  -7  -1   49.40   15.70
   6   7   1   13.90   18.20
   6   7   1   72.49   27.00
  -7  -7  -1  588.64   61.99
  -7  -7  -1  654.73   55.89
   7   7   1  683.63   59.89
   7   7   1  676.53   47.80
  -8  -7  -1   34.60   33.00
  -8  -7  -1    6.50   27.60
  -8  -7  -1   10.60   20.20
   8   7   1  -42.70   18.80
   8   7   1  -16.10   27.10
   0  -8  -1  614.14   59.39
   0  -8  -1  696.43   61.99
   0  -8  -1  515.15   80.99
   0   8   1  690.23   86.09
  -1  -8  -1   23.30   25.40
  -1  -8  -1   51.49   26.70
   1   8   1   54.69   30.10
   1   8   1   29.00   27.40
   1   8   1   47.40   31.50
  -2  -8  -1  525.45   57.89
  -2  -8  -1  359.06   46.40
  -2  -8  -1  551.74   46.70
   2   8   1  483.25   54.79
   2   8   1  544.15   52.19
   2   8   1  563.14   65.89
  -3  -8  -1   14.90   22.20
  -3  -8  -1  -20.50   31.60
  -3  -8  -1   23.20   22.00
   3   8   1   36.30   24.10
   3   8   1    2.20   22.20
   3   8   1   14.70   26.70
  -4  -8  -1  254.57   35.20
  -4  -8  -1  234.48   35.90
  -4  -8  -1  273.97   35.10
   4   8   1  303.87   44.50
   4   8   1  193.78   32.00
   4   8   1  302.87   50.99
  -5  -8  -1   31.20   25.20
  -5  -8  -1   48.80   20.10
   5   8   1   65.59   29.20
   5   8   1   50.29   27.80
  -6  -8  -1  189.68   38.00
  -6  -8  -1  126.99   16.10
   6   8   1  105.89   36.70
  -7  -8  -1  222.18   39.70
  -7  -8  -1  190.78   41.90
  -7  -8  -1  182.18   26.30
   7   8   1  173.78   31.10
   7   8   1  154.28   43.50
  -3  -9  -1  192.08   33.70
  -3  -9  -1  151.78   38.70
  -3  -9  -1  170.38   40.00
   3   9   1  219.78   51.49
   3   9   1  214.98   37.70
   3   9   1  161.98   48.90
  -4  -9  -1  555.44   49.40
  -4  -9  -1  440.36   51.49
  -4  -9  -1  583.54   57.99
   4   9   1  521.75   54.89
   4   9   1  548.55   70.39
   4   9   1  693.83  109.59
  -5  -9  -1  110.09   28.40
  -5  -9  -1   93.39   32.30
  -5  -9  -1  105.49   28.90
   5   9   1  126.99   30.80
   5   9   1  190.38   50.19
  -6  -9  -1  348.67   62.89
   6   9   1  417.56   47.40
   6   9   1  452.35   65.59
   7   8  -2   36.90   29.10
  -7  -8   2   34.50   20.20
  -7  -8   2   44.60   33.70
   6   8  -2  705.83   61.29
  -6  -8   2  843.72   66.19
   5   8  -2  119.39   34.00
   5   8  -2  147.49   35.60
  -5  -8   2  171.58   36.20
  -5  -8   2  186.68   28.00
  -5  -8   2  157.28   17.10
   4   8  -2  986.60   69.39
   4   8  -2 1017.90   68.89
  -4  -8   2  877.41   64.29
   3   8  -2  199.88   38.70
   3   8  -2  192.48   40.60
  -3  -8   2   87.49   35.50
  -3  -8   2  187.48   20.60
  -3  -8   2  233.08   41.60
   2   8  -2  500.95   57.39
   2   8  -2  464.05   52.19
   2   8  -2  449.66   60.89
  -2  -8   2  516.95   59.99
  -2  -8   2  441.26   51.09
  -2  -8   2  402.46   50.29
   1   8  -2  127.29   41.70
   1   8  -2  161.28   48.50
   1   8  -2  122.89   35.10
  -1  -8   2  185.28   35.70
  -1  -8   2  158.78   26.70
  -1  -8   2  143.49   37.80
   8   7  -2  599.04   57.99
  -8  -7   2  663.33   55.49
  -8  -7   2  475.85   59.69
   7   7  -2  165.38   34.80
  -7  -7   2  164.88   38.00
  -7  -7   2  103.09   26.30
  -7  -7   2   66.29   30.80
   6   7  -2  847.92   59.19
  -6  -7   2  845.12   45.10
  -6  -7   2  741.63   56.89
  -6  -7   2  865.91   62.29
   5   7  -2   65.39   26.60
  -5  -7   2   55.99    8.20
  -5  -7   2   66.09   14.90
  -5  -7   2   60.39   22.60
   4   7  -2 1012.70   64.59
   4   7  -2 1084.59   64.29
  -4  -7   2 1042.50   42.40
   3   7  -2  -30.00   19.40
   3   7  -2   37.70   24.10
  -3  -7   2   -4.10   19.60
   2   7  -2 1175.18   68.89
   2   7  -2 1196.28   72.19
  -2  -7   2 1084.39   64.09
  -2  -7   2 1099.99   45.00
  -2  -7   2 1185.68   73.19
   1   7  -2  157.28   37.50
   1   7  -2   92.89   33.30
   1   7  -2   49.60   28.90
  -1  -7   2  124.09   22.30
  -1  -7   2  128.99   32.50
  -1  -7   2  114.99   30.30
  -1  -7   2   68.39   26.70
   0   7  -2  851.81   69.29
   0   7  -2  719.63   69.19
   0   7  -2  794.72   65.19
   0  -7   2  655.03   61.49
   0  -7   2  772.22   53.89
   0  -7   2  716.83   63.29
   0  -7   2  801.62   49.80
  -1   7  -2   92.19   38.00
  -1   7  -2   86.19   35.40
  -1   7  -2   84.59   40.00
   1  -7   2   94.09   37.70
   1  -7   2  135.79   30.60
   1  -7   2  163.38   45.60
   8   6  -2   13.20   23.60
  -8  -6   2  -14.70   32.30
  -8  -6   2   26.20   24.20
  -8  -6   2   82.69   34.20
   7   6  -2  782.72   60.19
  -7  -6   2  750.42   51.39
  -7  -6   2  648.74   56.79
  -7  -6   2  656.53   56.49
   6   6  -2  251.97   35.50
  -6  -6   2  237.18   29.10
  -6  -6   2  247.78   37.20
   5   6  -2  697.03   51.59
  -5  -6   2  855.21   55.79
  -5  -6   2  675.73   48.90
  -5  -6   2  677.93   36.40
   4   6  -2  932.81   54.69
   4   6  -2  882.41   65.69
  -4  -6   2  902.21   35.70
  -4  -6   2  856.31   26.90
  -4  -6   2  872.01   52.59
   3   6  -2  273.67   43.70
   3   6  -2  400.36   39.20
  -3  -6   2  302.77   36.30
  -3  -6   2  344.07   19.30
  -3  -6   2  401.26   37.60
   2   6  -2 1515.35   79.19
   2   6  -2 1456.15   69.79
  -2  -6   2 1407.86   66.49
  -2  -6   2 1453.85   71.99
   1   6  -2  185.58   34.10
   1   6  -2  151.28   30.90
  -1  -6   2  143.79   32.60
  -1  -6   2   95.89   24.80
  -1  -6   2  174.78   21.80
  -1  -6   2  104.29   26.90
   0   6  -2 1660.93   82.59
   0   6  -2 1291.67   69.29
   0   6  -2 1531.95   80.89
   0  -6   2 1607.64   68.99
   0  -6   2 1618.64   64.99
   0  -6   2 1596.44   85.99
  -1   6  -2   90.89   32.60
  -1   6  -2  104.09   15.40
  -1   6  -2  142.09   33.00
  -1   6  -2  118.59   33.00
   1  -6   2   95.09   23.50
   1  -6   2   49.50   31.30
   1  -6   2  136.89   34.90
   1  -6   2   91.59   25.40
  -2   6  -2 1166.28   70.69
  -2   6  -2 1159.38   66.49
  -2   6  -2 1047.00   50.69
  -2   6  -2 1117.69   75.09
   2  -6   2 1163.38   55.39
   2  -6   2 1026.70   65.99
   2  -6   2 1249.57   88.09
   8   5  -2   68.09   24.90
   8   5  -2   -2.20   27.50
  -8  -5   2   77.79   29.50
  -8  -5   2    8.00   24.30
  -8  -5   2   17.60   29.00
   7   5  -2  320.07   44.40
   7   5  -2  399.46   27.50
  -7  -5   2  334.37   46.40
  -7  -5   2  376.06   39.20
   6   5  -2   -2.50   18.30
   6   5  -2   -5.90   12.00
  -6  -5   2   19.60   16.90
  -6  -5   2    8.20   17.30
  -6  -5   2   52.59   21.40
   5   5  -2 1078.89   56.69
   5   5  -2 1089.49   49.60
  -5  -5   2 1201.28   49.60
  -5  -5   2 1157.38   58.99
  -5  -5   2 1102.79   56.99
   4   5  -2   26.00   17.80
   4   5  -2   23.20   15.30
  -4  -5   2   -4.20   14.50
  -4  -5   2    4.70   14.90
  -4  -5   2    9.10    9.10
   3   5  -2 1958.00   75.29
   3   5  -2 1764.72   70.39
   3   5  -2 1847.72   69.99
  -3  -5   2 1872.61   44.80
  -3  -5   2 1854.91   70.39
  -3  -5   2 1799.12   46.20
  -3  -5   2 1856.61   48.30
   2   5  -2  158.18   24.80
   2   5  -2  186.18   27.10
  -2  -5   2  133.29   23.60
  -2  -5   2  166.48   13.60
  -2  -5   2  142.09   25.40
   1   5  -2 1292.07   63.59
   1   5  -2 1394.96   61.69
  -1  -5   2 1336.97   46.60
  -1  -5   2 1403.66   67.99
  -1  -5   2 1302.57   60.09
  -1  -5   2 1249.47   58.79
   0   5  -2  471.45   22.20
   0   5  -2  544.85   47.00
   0   5  -2  618.24   45.00
   0  -5   2  484.55   46.70
   0  -5   2  487.25   44.40
   0  -5   2  527.25   34.20
   0  -5   2  544.05   38.00
  -1   5  -2  285.47   23.50
  -1   5  -2  323.07   39.50
  -1   5  -2  256.87   36.20
  -1   5  -2  320.37   32.20
   1  -5   2  295.07   31.20
   1  -5   2  310.87   43.70
   1  -5   2  295.57   33.70
   1  -5   2  324.07   39.00
  -2   5  -2  756.92   57.79
  -2   5  -2  657.03   41.40
  -2   5  -2  691.33   52.99
  -2   5  -2  681.83   49.80
   2  -5   2  720.13   41.50
   2  -5   2  609.04   59.59
   2  -5   2  693.43   51.59
  -3   5  -2   46.60   25.90
  -3   5  -2   43.80   22.30
  -3   5  -2  -20.30   17.90
   3  -5   2   77.69   50.09
   3  -5   2    2.60   28.10
   8   4  -2  322.67   39.40
   8   4  -2  307.07   24.70
   8   4  -2  211.68   45.80
   8   4  -2  281.07   49.00
  -8  -4   2  273.57   43.90
  -8  -4   2  277.57   44.60
  -8  -4   2  326.17   52.89
   7   4  -2  111.29   27.40
   7   4  -2  121.29   27.50
   7   4  -2  158.68   20.00
  -7  -4   2  160.68   32.10
  -7  -4   2  152.48   33.40
  -7  -4   2  183.68   35.80
   6   4  -2  205.48   22.90
   6   4  -2  137.59   26.90
  -6  -4   2  179.38   28.70
  -6  -4   2  201.48   55.59
   5   4  -2  756.12   48.90
   5   4  -2  691.53   36.40
  -5  -4   2  740.43   45.10
  -5  -4   2  730.73   45.80
  -5  -4   2  754.82   41.60
   4   4  -2   12.90   11.90
   4   4  -2   23.90   15.50
  -4  -4   2    9.60   12.70
  -4  -4   2    3.20   11.60
  -4  -4   2    7.40   14.30
   3   4  -2 1941.81   66.89
   3   4  -2 2007.80   67.79
   3   4  -2 2031.00   72.09
  -3  -4   2 2036.40   50.79
  -3  -4   2 1954.40   67.29
  -3  -4   2 2022.60   72.19
   2   4  -2    4.60   12.30
   2   4  -2    5.20   11.50
   2   4  -2   -6.80    9.50
  -2  -4   2   12.60   10.60
  -2  -4   2    8.60    4.10
  -2  -4   2   17.90    5.70
  -2  -4   2   13.60   12.70
   1   4  -2 2625.94   83.99
   1   4  -2 2651.63   80.79
  -1  -4   2 2443.96   78.09
  -1  -4   2 2597.54   86.79
  -1  -4   2 2601.84   62.59
   0   4  -2   25.60    8.20
   0   4  -2   14.40    9.30
   0   4  -2   27.10   16.10
   0   4  -2   34.10   15.50
   0  -4   2   10.10   13.90
   0  -4   2   25.10   12.80
   0  -4   2   17.40   11.00
   0  -4   2   20.90   14.40
  -1   4  -2 1763.62   56.79
  -1   4  -2 1889.61   65.29
  -1   4  -2 1850.91   73.39
   1  -4   2 1832.52   64.19
   1  -4   2 1804.12   80.29
   1  -4   2 1837.22   73.69
   1  -4   2 1855.71   67.09
  -2   4  -2   10.50   16.00
  -2   4  -2    2.10   14.90
   2  -4   2   11.40   16.40
   2  -4   2   12.60   12.60
  -3   4  -2  848.42   58.09
  -3   4  -2  880.61   62.39
  -3   4  -2  700.13   46.90
   3  -4   2  751.62   60.89
   3  -4   2  952.90   60.19
  -4   4  -2   20.10   27.60
  -4   4  -2   17.40   16.30
  -4   4  -2  -10.70   24.70
   4  -4   2   45.70   29.50
   4  -4   2   58.69   30.90
   8   3  -2  466.65   45.70
   8   3  -2  446.56   57.39
   8   3  -2  474.15   40.70
  -8  -3   2  384.26   53.39
  -8  -3   2  393.16   52.09
   7   3  -2  128.09   28.60
   7   3  -2   14.20   24.20
   7   3  -2  108.19   30.10
   7   3  -2  115.89   24.90
  -7  -3   2   94.29   31.20
   6   3  -2 1834.52   79.89
   6   3  -2 1999.20   77.59
   6   3  -2 2077.39   85.39
  -6  -3   2 2017.20   80.89
  -6  -3   2 2064.29   91.09
   5   3  -2  199.18   27.10
   5   3  -2  201.88   29.60
  -5  -3   2  236.98   27.70
  -5  -3   2  180.18   27.30
  -5  -3   2  141.29   27.10
   4   3  -2 4595.04  123.39
   4   3  -2 4553.34  110.39
  -4  -3   2 4424.66  121.99
  -4  -3   2 4454.75  110.89
  -4  -3   2 4402.56  116.29
   3   3  -2  192.58   24.10
   3   3  -2  178.88   19.90
  -3  -3   2  194.28   15.40
  -3  -3   2  173.18   22.00
  -3  -3   2  203.18   21.70
   2   3  -2 4185.48  109.19
   2   3  -2 4219.98  107.49
   2   3  -2 4426.76  103.99
  -2  -3   2 4391.76  104.09
  -2  -3   2 4242.48   81.49
  -2  -3   2 4176.68  108.79
   1   3  -2   32.70   11.00
   1   3  -2    9.20    9.40
   1   3  -2   27.90   13.30
  -1  -3   2   39.40   12.20
  -1  -3   2   33.70   13.30
  -1  -3   2   31.70    4.90
  -1  -3   2   32.00   11.20
  -1  -3   2   43.90    7.50
   0   3  -2 1685.93   46.80
   0   3  -2 1642.34   45.40
   0   3  -2 1662.23   61.19
   0   3  -2 1776.92   65.59
   0   3  -2 1723.93   57.79
   0  -3   2 1703.43   64.79
   0  -3   2 1668.43   57.09
   0  -3   2 1708.93   49.10
   0  -3   2 1609.84   56.19
  -1   3  -2  636.24   38.30
  -1   3  -2  658.13   34.70
  -1   3  -2  689.83   31.90
   1  -3   2  672.03   35.70
   1  -3   2  730.73   43.10
   1  -3   2  677.23   34.50
   1  -3   2  709.63   40.10
  -2   3  -2  467.95   35.80
  -2   3  -2  442.76   36.10
   2  -3   2  450.25   40.80
   2  -3   2  448.46   39.80
   2  -3   2  447.66   28.70
   2  -3   2  485.25   36.20
  -3   3  -2  822.32   42.60
  -3   3  -2  866.11   54.29
  -3   3  -2  807.52   52.19
   3  -3   2  724.63   50.79
   3  -3   2  823.22   56.29
   3  -3   2  791.82   56.29
  -4   3  -2  144.69   20.30
  -4   3  -2  171.68   34.40
  -4   3  -2  125.59   32.40
   4  -3   2  136.69   36.50
   4  -3   2  125.59   29.30
   4  -3   2  121.09   31.20
  -5   3  -2  374.06   26.60
  -5   3  -2  381.56   53.39
  -5   3  -2  524.35   60.29
   5  -3   2  502.15   61.39
   5  -3   2  501.65   57.09
   5  -3   2  430.66   61.19
   8   2  -2  299.27   29.90
   8   2  -2  284.97   41.00
   8   2  -2  279.97   50.09
  -8  -2   2  252.87   47.10
  -8  -2   2  278.87   45.30
  -8  -2   2  231.68   28.20
   7   2  -2  241.28   39.90
   7   2  -2  346.97   33.70
   7   2  -2  323.17   39.00
  -7  -2   2  243.88   44.30
  -7  -2   2  321.07   44.40
   6   2  -2  862.71   48.40
   6   2  -2  900.11   48.60
   6   2  -2 1019.90   60.09
   6   2  -2  912.61   60.39
  -6  -2   2  893.31   57.49
   5   2  -2  457.45   40.40
   5   2  -2  497.45   38.50
   5   2  -2  529.25   36.20
  -5  -2   2  554.34   41.50
  -5  -2   2  498.15   38.20
   4   2  -2 1276.27   58.09
   4   2  -2 1322.27   53.89
  -4  -2   2 1406.26   53.09
  -4  -2   2 1397.86   59.89
   3   2  -2  637.04   36.00
   3   2  -2  656.83   36.60
  -3  -2   2  626.14   31.00
  -3  -2   2  667.33   36.50
  -3  -2   2  634.94   28.90
   2   2  -2 1223.38   39.70
   2   2  -2 1219.28   43.70
   2   2  -2 1302.47   46.80
   2   2  -2 1158.38   31.70
  -2  -2   2 1218.48   31.30
  -2  -2   2 1262.87   39.90
  -2  -2   2 1237.98   46.30
   1   2  -2  594.54   25.40
   1   2  -2  544.55   28.40
   1   2  -2  646.54   30.70
  -1  -2   2  673.33   31.50
  -1  -2   2  590.34   22.00
  -1  -2   2  603.74   29.90
   0   2  -2 1513.65   47.30
   0   2  -2 1558.24   54.09
   0   2  -2 1471.95   41.90
   0   2  -2 1629.04   40.50
   0   2  -2 1497.15   50.89
   0  -2   2 1583.34   50.69
   0  -2   2 1544.25   40.60
   0  -2   2 1559.94   48.00
   0  -2   2 1573.94   54.49
  -1   2  -2   28.60   13.40
  -1   2  -2   38.00   10.90
  -1   2  -2   30.80   10.20
  -1   2  -2   34.50   13.10
   1  -2   2   21.70   13.50
   1  -2   2   29.10   14.90
   1  -2   2   28.90   10.30
   1  -2   2   30.40   12.00
   1  -2   2   59.49   12.90
  -2   2  -2 1863.51   67.59
  -2   2  -2 1833.22   65.69
  -2   2  -2 1873.81   58.09
   2  -2   2 1903.71   66.69
   2  -2   2 1681.63   66.19
   2  -2   2 1784.72   68.39
  -3   2  -2   92.89   23.60
  -3   2  -2  136.99   26.00
  -3   2  -2  161.48   18.40
   3  -2   2  118.39   25.80
   3  -2   2  115.39   23.60
   3  -2   2  111.59   24.30
  -4   2  -2 1145.99   66.69
  -4   2  -2 1152.78   39.60
   4  -2   2 1055.29   62.59
   4  -2   2 1111.09   66.79
   4  -2   2 1126.29   61.69
  -5   2  -2  225.18   38.30
  -5   2  -2   94.09   31.70
   5  -2   2  132.49   34.30
   5  -2   2  150.18   39.50
  -6   2  -2  299.37   52.79
  -6   2  -2  329.97   55.59
   6  -2   2  333.97   54.39
   6  -2   2  406.16   56.49
   6  -2   2  386.46   47.50
   8   1  -2  749.92   72.19
  -8  -1   2  505.95   62.89
   7   1  -2  559.64   37.10
   7   1  -2  590.34   43.80
   7   1  -2  589.74   57.99
  -7  -1   2  570.74   30.60
  -7  -1   2  454.95   57.19
  -7  -1   2  605.74   56.79
   6   1  -2 1069.39   50.69
   6   1  -2  953.00   50.19
   6   1  -2 1036.80   64.69
  -6  -1   2 1067.09   61.49
  -6  -1   2 1004.90   68.29
   5   1  -2 1128.19   51.69
   5   1  -2 1092.89   47.70
   5   1  -2 1144.79   59.99
  -5  -1   2 1180.48   59.59
  -5  -1   2 1150.88   65.39
   4   1  -2  183.88   20.60
   4   1  -2  208.98   24.30
   4   1  -2  233.78   28.10
   4   1  -2  201.68   29.50
  -4  -1   2  254.87   26.30
  -4  -1   2  216.58   29.70
   3   1  -2 2105.89   65.19
   3   1  -2 2050.59   67.09
   3   1  -2 2056.59   70.59
  -3  -1   2 2105.49   63.59
  -3  -1   2 2138.79   71.89
   2   1  -2 1450.75   43.20
   2   1  -2 1472.05   49.70
  -2  -1   2 1469.65   50.19
  -2  -1   2 1459.05   42.00
  -2  -1   2 1577.64   47.10
   1   1  -2 3922.21   79.69
   1   1  -2 3887.01   89.69
   1   1  -2 3714.23   76.19
  -1  -1   2 3744.73   89.49
  -1  -1   2 3858.01   79.29
   0   1  -2 4604.34  107.79
   0   1  -2 4312.67  114.89
   0   1  -2 4762.22  100.59
   0   1  -2 4993.60  105.19
   0   1  -2 4686.33   95.99
   0   1  -2 4859.31   98.99
   0  -1   2 4798.02   99.29
   0  -1   2 4703.33  106.79
   0  -1   2 4824.12  100.89
   0  -1   2 4916.21  104.19
   0  -1   2 4759.32  103.79
  -1   1  -2 3717.93   89.39
  -1   1  -2 3617.44   87.89
  -1   1  -2 3639.14   87.79
  -1   1  -2 3686.93   91.49
  -1   1  -2 3642.34   86.49
   1  -1   2 3646.84   88.09
   1  -1   2 3820.82   93.39
   1  -1   2 3607.34   91.69
   1  -1   2 3652.03   86.89
  -2   1  -2 2456.65   74.39
  -2   1  -2 2329.07   66.59
  -2   1  -2 2346.77   73.79
   2  -1   2 2451.35   75.99
   2  -1   2 2479.75   73.29
   2  -1   2 2342.77   72.99
  -3   1  -2 1427.06   61.89
  -3   1  -2 1342.87   60.29
  -3   1  -2 1440.46   49.40
   3  -1   2 1395.96   60.39
   3  -1   2 1346.07   61.89
   3  -1   2 1369.36   55.29
  -4   1  -2  918.21   40.50
  -4   1  -2  981.60   56.29
  -4   1  -2  845.12   19.70
  -4   1  -2  939.71   57.99
   4  -1   2  981.00   56.89
   4  -1   2  961.00   58.49
   4  -1   2 1045.10   51.19
  -5   1  -2  196.08   37.30
  -5   1  -2  152.28   35.30
  -5   1  -2  144.29   19.50
   5  -1   2  128.79   31.60
   5  -1   2  146.79   27.00
  -6   1  -2  471.35   58.49
  -6   1  -2  456.35   51.49
  -6   1  -2  642.54   62.09
  -6   1  -2  537.85   30.00
   6  -1   2  584.44   47.50
   6  -1   2  566.44   58.59
   6  -1   2  549.25   64.59
  -7   1  -2   38.30   32.80
  -7   1  -2   54.79   31.00
   7  -1   2  -41.10   20.50
   7  -1   2   42.30   28.30
   7  -1   2  -23.30   23.80
   7   0  -2  586.24   46.90
   7   0  -2  596.34   35.10
   7   0  -2  560.04   56.49
  -7   0   2  829.52   72.79
  -7   0   2  597.84   66.39
   6   0  -2   53.49   27.60
   6   0  -2  131.49   25.80
   6   0  -2   97.49   19.90
  -6   0   2   59.59   30.40
  -6   0   2  103.29   10.20
  -6   0   2  140.69   34.70
   5   0  -2 2072.99   68.59
   5   0  -2 1949.10   83.09
   5   0  -2 2047.40   72.49
  -5   0   2 2062.29   53.19
  -5   0   2 2085.99   86.09
  -5   0   2 2146.89   94.89
   4   0  -2  290.17   24.60
   4   0  -2  276.07   27.90
   4   0  -2  240.48   29.40
  -4   0   2  220.78   31.80
  -4   0   2  256.57   32.10
  -4   0   2  258.17   16.80
   3   0  -2 4197.08   95.49
   3   0  -2 4520.35  114.59
   3   0  -2 4481.05  114.79
  -3   0   2 4237.68  109.39
  -3   0   2 4459.75  113.89
  -3   0   2 4324.77   95.49
  -3   0   2 4328.07  123.39
   2   0  -2  833.42   38.70
   2   0  -2  826.22   34.00
   2   0  -2  822.42   39.60
   2   0  -2  795.52   21.90
  -2   0   2  791.42   36.70
  -2   0   2  831.92   51.99
  -2   0   2  887.31   41.40
  -2   0   2  838.82   29.20
   1   0  -2 6578.34  148.59
   1   0  -2 6559.44  136.19
   1   0  -2 6854.51  137.89
   1   0  -2 6929.81  143.89
   1   0  -2 6364.86  122.99
  -1   0   2 6988.20  136.89
  -1   0   2 6965.00  142.79
  -1   0   2 6302.87  147.09
  -1   0   2 6930.91  139.09
   0   0  -2  603.04   22.80
   0   0  -2  553.14   27.80
   0   0  -2  577.64   14.30
   0   0  -2  595.64   21.60
   0   0  -2  577.74   25.10
   0   0   2  600.34   27.40
   0   0   2  610.04   20.40
   0   0   2  556.84   20.70
   0   0   2  588.64   23.00
  -1   0  -2 6422.16  137.29
  -1   0  -2 6769.22  131.09
  -1   0  -2 6617.04  138.59
  -1   0  -2 6504.65  141.59
   1   0   2 6650.93  141.89
  -2   0  -2  103.59   16.80
  -2   0  -2   88.79   10.40
  -2   0  -2   79.39   15.10
   2   0   2   85.99   13.00
   2   0   2  101.69   19.10
  -3   0  -2 3038.50   63.79
  -3   0  -2 3076.09   93.59
   3   0   2 3193.08   96.89
   3   0   2 3124.69   93.39
   3   0   2 3028.40   81.49
  -4   0  -2  501.55   40.60
   4   0   2  490.55   31.00
   4   0   2  548.15   42.50
   4   0   2  565.54   43.90
  -5   0  -2  810.82   54.99
   5   0   2  832.42   44.20
   5   0   2  815.22   54.79
  -6   0  -2  371.56   31.30
  -6   0  -2  394.96   44.00
  -6   0  -2  459.15   54.49
   6   0   2  392.76   54.19
   6   0   2  365.56   34.90
  -7   0  -2  141.39   33.80
  -7   0  -2  104.99   31.90
  -7   0  -2   59.69   16.00
   7   0   2  108.99   43.00
   7   0   2  153.08   28.10
   7  -1  -2    8.70   26.20
   7  -1  -2    3.40   21.20
  -7   1   2   58.39   35.60
  -7   1   2  -11.60   27.90
  -7   1   2    9.60   23.30
   6  -1  -2 1080.59   49.10
   6  -1  -2 1136.19   74.39
   6  -1  -2 1021.10   54.59
  -6   1   2 1119.49   78.09
  -6   1   2  981.50   68.29
  -6   1   2  958.60   71.89
   5  -1  -2  251.17   39.10
   5  -1  -2  236.48   28.10
   5  -1  -2  311.97   32.50
  -5   1   2  225.08   35.10
  -5   1   2  286.47   28.20
  -5   1   2  228.78   41.00
   4  -1  -2 3058.49  103.79
   4  -1  -2 3131.19   84.89
   4  -1  -2 3164.18   95.99
  -4   1   2 3191.08  106.39
  -4   1   2 3121.59   99.69
  -4   1   2 3223.48  115.49
  -4   1   2 3105.19   90.99
   3  -1  -2 1837.62   52.49
   3  -1  -2 1881.61   69.39
   3  -1  -2 2027.60   69.59
  -3   1   2 2004.00   79.39
  -3   1   2 1778.32   68.59
  -3   1   2 1831.92   64.09
  -3   1   2 1803.52   63.99
   2  -1  -2 5579.94  110.79
   2  -1  -2 5499.65  137.59
   2  -1  -2 5541.75  131.49
  -2   1   2 5448.55  141.89
  -2   1   2 5784.02  133.09
  -2   1   2 5475.15  134.59
   1  -1  -2 4210.18   98.29
   1  -1  -2 4182.68  108.59
   1  -1  -2 4315.77   90.29
  -1   1   2 4349.76   89.69
  -1   1   2 4174.98  108.09
  -1   1   2 4279.07  101.89
  -1   1   2 3955.40  104.49
   0  -1  -2 4017.20   79.69
   0  -1  -2 3933.31  100.99
   0   1   2 4050.19   89.19
   0   1   2 4227.88   80.19
   0   1   2 4041.90  101.99
  -1  -1  -2 4094.49   79.19
  -1  -1  -2 4197.68   91.79
  -1  -1  -2 4211.68   98.99
   1   1   2 4155.58   77.89
   1   1   2 4149.28   91.69
   1   1   2 3970.80   99.19
  -2  -1  -2 1191.08   37.40
  -2  -1  -2 1056.59   32.40
   2   1   2 1106.69   37.90
   2   1   2 1038.90   50.19
  -3  -1  -2 3586.24   83.59
  -3  -1  -2 3723.23   78.89
  -3  -1  -2 3826.62  103.69
   3   1   2 3700.33  105.29
   3   1   2 3661.03   79.89
  -4  -1  -2  123.59   24.80
  -4  -1  -2  149.69   20.30
   4   1   2  165.98   16.60
   4   1   2  146.09   27.80
  -5  -1  -2 3139.99  111.29
  -5  -1  -2 3080.89   97.19
   5   1   2 3174.08   83.19
   5   1   2 3251.37  112.39
  -6  -1  -2    5.60   23.40
  -6  -1  -2   16.40   17.10
   6   1   2    7.80   12.20
  -7  -1  -2 1513.75   90.49
  -7  -1  -2 1410.66   73.69
   7   1   2 1514.15   58.89
   7   1   2 1480.85   85.79
  -8  -1  -2    8.50   25.40
  -8  -1  -2   14.20   16.80
  -8  -1  -2  -61.09   23.60
   8   1   2  -60.69   25.60
   8   1   2  -14.00   15.50
   6  -2  -2  433.46   41.80
   6  -2  -2  301.47   50.39
  -6   2   2  407.26   54.59
  -6   2   2  417.16   51.39
  -6   2   2  354.56   51.19
   5  -2  -2  276.37   33.20
   5  -2  -2  271.37   30.80
  -5   2   2  240.98   38.50
  -5   2   2  195.38   35.90
  -5   2   2  233.48   28.60
  -5   2   2  241.98   41.70
   4  -2  -2  963.50   69.09
   4  -2  -2  960.20   46.10
   4  -2  -2 1121.19   54.09
  -4   2   2 1114.29   60.99
  -4   2   2  954.90   74.69
  -4   2   2 1014.30   50.79
  -4   2   2 1041.30   58.59
   3  -2  -2  100.39   20.10
   3  -2  -2  119.89   23.00
  -3   2   2  102.99   23.50
  -3   2   2  112.29   24.10
  -3   2   2  113.69   21.10
  -3   2   2  118.89   21.80
   2  -2  -2 3184.38   95.29
   2  -2  -2 3231.88   67.49
   2  -2  -2 3371.96  101.29
  -2   2   2 3399.06   99.29
  -2   2   2 3333.87   95.99
  -2   2   2 3322.37   89.39
   1  -2  -2   36.70   17.20
   1  -2  -2   37.70   12.80
   1  -2  -2   46.30   10.30
  -1   2   2   32.00   14.70
  -1   2   2   44.50   11.70
   0  -2  -2 8827.42  180.08
   0  -2  -2 8305.07  192.08
   0  -2  -2 8600.64  170.48
   0   2   2 8431.86  191.08
  -1  -2  -2  874.31   29.50
  -1  -2  -2  903.61   42.80
  -1  -2  -2  902.21   30.10
   1   2   2  851.61   39.40
   1   2   2  888.11   29.90
   1   2   2  933.61   30.50
  -2  -2  -2 8450.35  178.38
  -2  -2  -2 8594.74  171.78
  -2  -2  -2 8165.68  171.28
   2   2   2 7828.82  192.68
  -3  -2  -2 1542.85   47.40
  -3  -2  -2 1460.55   36.00
  -3  -2  -2 1517.75   37.40
   3   2   2 1456.35   49.30
  -4  -2  -2 2464.45   66.99
  -4  -2  -2 2592.54   85.49
   4   2   2 2471.55   86.79
   4   2   2 2453.25   64.99
  -5  -2  -2  981.10   44.30
  -5  -2  -2  937.51   56.19
   5   2   2  971.20   55.29
   5   2   2  908.11   25.90
  -6  -2  -2  384.06   33.60
   6   2   2  332.87   45.70
  -7  -2  -2  508.15   44.30
  -7  -2  -2  424.06   52.19
   7   2   2  491.25   58.19
  -8  -2  -2   54.29   29.30
  -8  -2  -2    8.80   20.90
   8   2   2   52.19   35.80
   6  -3  -2   39.30   39.40
  -6   3   2   19.10   17.70
  -6   3   2   43.90   38.00
  -6   3   2    6.70   28.60
  -6   3   2   -4.50   31.50
   5  -3  -2  968.80   72.49
  -5   3   2  872.81   51.69
  -5   3   2  794.72   71.59
  -5   3   2  738.93   61.89
  -5   3   2  772.72   66.79
   4  -3  -2  124.29   26.20
  -4   3   2  168.68   36.80
  -4   3   2  149.59   27.70
  -4   3   2  154.28   32.80
   3  -3  -2  806.42   51.69
   3  -3  -2  861.81   52.19
  -3   3   2  861.21   50.29
  -3   3   2  798.22   48.90
  -3   3   2  850.01   52.09
   2  -3  -2  417.66   37.40
   2  -3  -2  391.06   32.60
  -2   3   2  370.46   34.90
  -2   3   2  348.17   29.80
  -2   3   2  400.16   35.70
   1  -3  -2   62.69   14.70
   1  -3  -2   65.69   16.90
   1  -3  -2   39.00   18.80
  -1   3   2   55.29   14.50
  -1   3   2   66.89   19.70
  -1   3   2   44.80   14.80
   0  -3  -2  737.63   37.00
   0  -3  -2  706.53   31.90
   0  -3  -2  754.42   45.50
   0   3   2  686.03   31.60
   0   3   2  642.54   41.70
  -1  -3  -2  693.93   30.50
  -1  -3  -2  711.13   41.80
   1   3   2  689.23   41.80
   1   3   2  708.13   30.60
   1   3   2  731.73   27.20
  -2  -3  -2 1750.22   63.69
  -2  -3  -2 1758.32   54.09
  -2  -3  -2 1731.33   49.20
   2   3   2 1700.53   53.99
   2   3   2 1741.63   43.30
   2   3   2 1794.72   63.99
  -3  -3  -2  743.33   33.20
  -3  -3  -2  668.23   34.00
   3   3   2  681.33   22.80
   3   3   2  682.33   37.70
  -4  -3  -2 2678.03   63.39
   4   3   2 2521.55   76.99
   4   3   2 2556.74   65.39
  -5  -3  -2  157.18   29.50
  -5  -3  -2  225.48   20.40
   5   3   2  212.98   21.50
  -6  -3  -2 1566.24   76.29
  -6  -3  -2 1590.04   59.29
   6   3   2 1412.96   75.49
   6   3   2 1565.24   48.30
  -7  -3  -2  156.28   35.90
  -7  -3  -2  148.19   26.10
   7   3   2  152.18   36.90
  -8  -3  -2  500.25   60.79
  -8  -3  -2  511.65   45.20
   8   3   2  592.24   70.39
   5  -4  -2  339.07   57.79
  -5   4   2  305.37   49.70
  -5   4   2  228.78   49.90
  -5   4   2  345.57   51.29
  -5   4   2  239.18   35.80
   4  -4  -2   43.20   30.60
  -4   4   2  134.99   30.00
  -4   4   2  101.39   26.70
  -4   4   2   57.99   31.00
   3  -4  -2 1203.18   69.79
  -3   4   2 1207.68   77.19
  -3   4   2 1162.28   70.49
  -3   4   2 1174.08   64.29
   2  -4  -2    2.30   13.70
   2  -4  -2    0.70   18.90
  -2   4   2    6.90   17.80
  -2   4   2   32.20   18.20
  -2   4   2   23.00   18.80
   1  -4  -2 3302.17  114.09
   1  -4  -2 3415.36  100.39
   1  -4  -2 3605.04  107.79
  -1   4   2 3450.65  113.79
  -1   4   2 3440.96   98.79
   0  -4  -2   87.19   15.70
   0  -4  -2  103.49   25.10
   0  -4  -2   83.49   17.20
   0   4   2   76.99   19.00
   0   4   2   70.59   16.90
  -1  -4  -2 5261.07  129.89
  -1  -4  -2 5162.98  146.29
  -1  -4  -2 5245.48  125.69
   1   4   2 5373.86  112.39
   1   4   2 5149.69  144.59
   1   4   2 5212.28  126.09
  -2  -4  -2  426.96   28.70
   2   4   2  423.76   27.70
   2   4   2  517.05   37.40
   2   4   2  490.35   30.30
  -3  -4  -2 3213.38   90.89
  -3  -4  -2 3354.96   82.09
   3   4   2 3222.58   76.79
   3   4   2 3194.18  100.29
  -4  -4  -2  753.52   22.60
  -4  -4  -2  812.02   44.70
   4   4   2  732.33   29.80
   4   4   2  868.51   46.90
  -5  -4  -2  788.32   49.20
  -5  -4  -2  810.52   33.60
  -5  -4  -2  850.31   52.39
   5   4   2  829.82   45.90
   5   4   2  778.92   39.00
  -6  -4  -2  645.04   34.90
  -6  -4  -2  643.54   52.09
   6   4   2  619.84   38.90
  -7  -4  -2   93.99   20.10
  -7  -4  -2  104.69   33.00
   7   4   2  120.59   35.80
   7   4   2  128.79   19.10
  -8  -4  -2  354.76   52.79
  -8  -4  -2  376.46   36.50
   8   4   2  333.07   15.10
   8   4   2  342.97   52.69
   4  -5  -2   46.40   29.60
  -4   5   2   24.50   27.10
  -4   5   2   55.09   28.10
  -4   5   2  -24.10   27.30
   3  -5  -2  709.33   59.59
  -3   5   2  738.33   57.79
  -3   5   2  719.33   57.59
  -3   5   2  628.94   57.39
   2  -5  -2   32.80   21.70
  -2   5   2    1.80   18.40
  -2   5   2    9.60   19.70
  -2   5   2   55.09   30.20
   1  -5  -2 1768.22   76.79
   1  -5  -2 1916.01   78.99
  -1   5   2 1724.33   72.49
  -1   5   2 1759.32   84.29
   0  -5  -2   61.19   19.10
   0  -5  -2   92.99   20.70
   0   5   2   75.19   20.30
   0   5   2   83.69   26.10
  -1  -5  -2 2529.65   84.59
  -1  -5  -2 2606.14   82.99
   1   5   2 2496.45   97.09
   1   5   2 2554.84   63.29
   1   5   2 2620.44   83.69
  -2  -5  -2  267.87   28.60
   2   5   2  233.88   34.50
   2   5   2  223.48   25.70
  -3  -5  -2 2014.30   71.79
  -3  -5  -2 1979.90   54.99
   3   5   2 1927.91   82.29
   3   5   2 1913.81   59.59
   3   5   2 1977.30   71.09
  -4  -5  -2  120.69   17.40
  -4  -5  -2  122.59   15.10
  -4  -5  -2  115.39   22.80
   4   5   2  108.19   15.60
   4   5   2  103.89   24.90
  -5  -5  -2 1026.40   48.10
  -5  -5  -2 1036.00   57.59
   5   5   2  948.91   55.89
   5   5   2 1012.60   41.50
  -6  -5  -2   21.80   20.30
  -6  -5  -2   18.20   11.90
  -6  -5  -2  -25.90   16.70
   6   5   2   24.20   13.00
   6   5   2   11.00   16.60
  -7  -5  -2  431.86   33.00
  -7  -5  -2  469.45   53.29
  -7  -5  -2  599.64   49.99
   7   5   2  516.15   40.90
  -8  -5  -2  219.28   43.60
  -8  -5  -2  118.39   39.50
  -8  -5  -2  124.09   24.50
   8   5   2   93.19   32.30
   8   5   2  141.59   23.70
   3  -6  -2  300.17   60.69
  -3   6   2  473.55   56.29
  -3   6   2  341.57   50.59
   2  -6  -2 1539.35   84.49
  -2   6   2 1619.84   89.69
  -2   6   2 1470.05   76.69
   1  -6  -2  441.16   48.00
   1  -6  -2  446.76   46.60
  -1   6   2  430.26   53.09
  -1   6   2  377.76   43.90
   0  -6  -2 1487.95   85.99
   0  -6  -2 1764.02   75.79
   0   6   2 1638.64   86.49
   0   6   2 1459.85   83.89
  -1  -6  -2   29.60   17.60
  -1  -6  -2   16.60   16.90
   1   6   2   64.79   27.20
   1   6   2   33.90    8.80
   1   6   2   15.70   17.50
  -2  -6  -2  750.52   44.80
  -2  -6  -2  840.72   47.90
   2   6   2  545.05   92.29
   2   6   2  699.03   45.90
  -3  -6  -2  360.96   38.30
   3   6   2  465.05   51.69
   3   6   2  405.96   37.40
   3   6   2  421.36   31.10
  -4  -6  -2  331.67   23.50
  -4  -6  -2  346.57   27.80
   4   6   2  378.46   45.40
   4   6   2  302.87   26.20
  -5  -6  -2 1041.30   36.50
  -5  -6  -2 1115.19   47.50
  -5  -6  -2 1042.00   60.19
   5   6   2 1184.58   68.49
   5   6   2 1096.99   46.30
  -6  -6  -2  136.29   33.10
  -6  -6  -2  186.08   27.30
   6   6   2  129.29   31.10
   6   6   2  162.38   22.40
  -7  -6  -2  916.51   45.10
  -7  -6  -2  920.21   66.89
  -7  -6  -2  829.02   63.29
   7   6   2  878.21   59.29
   7   6   2  873.11   46.70
  -8  -6  -2   50.99   26.90
  -8  -6  -2   49.00   33.90
  -8  -6  -2   51.09   19.30
   8   6   2  131.49   29.80
   2  -7  -2  339.37   55.29
   2  -7  -2  225.68   21.80
  -2   7   2  246.88   48.90
   1  -7  -2   88.29   34.30
   1  -7  -2   69.49   30.30
  -1   7   2   58.39   30.40
  -1   7   2  156.38   41.50
   0  -7  -2  641.44   53.59
   0   7   2  642.34   64.89
   0   7   2  662.63   49.90
  -1  -7  -2  138.69   28.90
  -1  -7  -2  139.59   30.00
   1   7   2   99.29   31.10
   1   7   2   91.49   27.40
  -2  -7  -2 1098.19   62.69
   2   7   2 1087.79   58.39
   2   7   2 1138.39   62.99
  -3  -7  -2   35.60   21.50
  -3  -7  -2   22.20   18.40
  -3  -7  -2   64.99   23.10
   3   7   2   46.60   21.10
   3   7   2   20.00   17.70
  -4  -7  -2 1247.88   66.69
  -4  -7  -2 1219.58   57.49
   4   7   2 1279.77   67.39
   4   7   2 1209.18   54.89
   4   7   2 1230.98   77.39
  -5  -7  -2   32.90   24.30
  -5  -7  -2    2.70   11.40
  -5  -7  -2   -3.20    9.90
   5   7   2    9.30   22.40
   5   7   2   -7.80   12.40
  -6  -7  -2  880.81   44.70
  -6  -7  -2  775.42   55.79
   6   7   2  783.42   44.60
   6   7   2  768.02   62.59
  -7  -7  -2   63.59   27.30
  -7  -7  -2   66.89   26.70
  -7  -7  -2   82.49   32.90
   7   7   2   34.20   27.10
   7   7   2   58.29   20.60
  -8  -7  -2  265.27   46.10
  -8  -7  -2  157.28   42.60
   8   7   2  229.98   39.70
   8   7   2  265.07   33.60
   0  -8  -2  430.46   52.49
   0  -8  -2  376.16   63.09
   0  -8  -2  438.26   53.69
   0   8   2  510.25   58.59
   0   8   2  326.87   59.39
  -1  -8  -2  711.93   61.79
  -1  -8  -2  704.43   74.89
  -1  -8  -2  802.72   60.49
   1   8   2  748.13   68.09
   1   8   2  760.42   61.59
  -2  -8  -2  917.21   63.79
  -2  -8  -2  836.82   68.09
  -2  -8  -2  884.81   69.59
   2   8   2  903.61   60.69
   2   8   2  943.41   64.39
   2   8   2  857.51   75.29
  -3  -8  -2  758.72   58.59
  -3  -8  -2  965.10   63.79
  -3  -8  -2  847.22   58.39
   3   8   2  893.41   55.99
   3   8   2  755.32   69.99
   3   8   2  821.82   60.29
  -4  -8  -2  760.12   51.79
  -4  -8  -2  855.41   60.99
   4   8   2  906.91   52.69
   4   8   2  850.71   69.59
   4   8   2  853.01   61.59
  -5  -8  -2  408.46   50.19
  -5  -8  -2  519.65   38.80
   5   8   2  418.06   38.80
   5   8   2  532.75   63.79
  -6  -8  -2  552.14   32.70
  -6  -8  -2  487.25   30.90
  -6  -8  -2  433.36   52.49
   6   8   2  524.55   41.50
   6   8   2  503.45   63.59
  -7  -8  -2  119.99   35.40
  -7  -8  -2   75.39   33.50
  -7  -8  -2  116.69   23.70
   7   8   2   62.29   23.10
   7   8   2   66.29   37.10
  -3  -9  -2 1041.20   77.09
  -3  -9  -2 1073.29   72.79
  -3  -9  -2 1073.19   69.59
   3   9   2 1020.00   68.39
   3   9   2 1072.79   85.39
  -4  -9  -2  107.99   30.80
  -4  -9  -2  140.19   33.40
  -4  -9  -2  147.39   35.80
   4   9   2  115.39   39.60
   4   9   2   70.99   34.20
   4   9   2  107.49   29.00
  -5  -9  -2 1140.59   76.69
  -5  -9  -2 1145.69   73.29
   5   9   2 1274.77   66.39
   5   9   2 1081.99   89.79
  -6  -9  -2  335.37   68.69
  -6  -9  -2  294.27   31.70
   6   9   2  289.77   37.40
   6   9   2  238.98   56.19
   6   8  -3  263.67   53.09
  -6  -8   3  186.38   39.00
   5   8  -3   -2.00   18.70
   5   8  -3   68.39   29.00
  -5  -8   3   12.50   28.80
   4   8  -3  642.04   67.39
   4   8  -3  586.14   57.09
  -4  -8   3  673.73   62.59
   3   8  -3   42.60   26.70
   3   8  -3   -3.90   24.20
  -3  -8   3   42.00   27.00
  -3  -8   3    9.00   25.20
   2   8  -3  555.14   63.19
  -2  -8   3  487.85   55.69
  -2  -8   3  496.35   55.99
  -2  -8   3  619.14   81.19
   7   7  -3  292.97   46.00
  -7  -7   3  207.18   48.10
  -7  -7   3  233.58   26.90
  -7  -7   3  231.58   43.80
   6   7  -3   89.19   31.80
  -6  -7   3  138.99   34.70
  -6  -7   3   67.09   30.90
  -6  -7   3   78.79   14.30
   5   7  -3  383.06   47.10
  -5  -7   3  346.17   43.50
  -5  -7   3  275.17   18.20
   4   7  -3  363.26   44.70
   4   7  -3  354.36   46.70
  -4  -7   3  323.47   39.90
   3   7  -3  259.07   42.40
   3   7  -3  310.37   40.40
  -3  -7   3  289.67   43.50
  -3  -7   3  323.17   40.40
   2   7  -3  635.74   54.89
   2   7  -3  684.13   55.79
  -2  -7   3  614.74   54.59
  -2  -7   3  525.85   58.59
  -2  -7   3  579.34   51.39
   1   7  -3  161.68   35.90
   1   7  -3  125.69   33.00
  -1  -7   3  174.28   35.80
  -1  -7   3  144.69   41.70
  -1  -7   3  201.58   36.50
  -1  -7   3  162.38   20.20
   0   7  -3  766.62   70.89
   0   7  -3  864.01   92.69
   0   7  -3  751.82   64.89
   0  -7   3  727.03   89.29
   0  -7   3  783.72   46.10
   0  -7   3  634.74   55.49
   0  -7   3  831.12   65.39
   8   6  -3   76.09   34.20
   8   6  -3  125.79   23.90
  -8  -6   3  131.59   40.50
  -8  -6   3  183.48   33.80
   7   6  -3  359.96   37.00
   7   6  -3  347.97   47.90
  -7  -6   3  349.47   36.00
  -7  -6   3  333.87   48.00
  -7  -6   3  372.76   50.09
   6   6  -3  129.79   32.60
   6   6  -3  155.48   28.30
  -6  -6   3  155.18   21.30
  -6  -6   3  128.49   29.20
   5   6  -3  616.14   47.00
   5   6  -3  669.83   53.69
  -5  -6   3  605.24   48.90
  -5  -6   3  601.94   24.80
  -5  -6   3  606.44   47.60
   4   6  -3  103.09   27.60
   4   6  -3  122.29   27.20
  -4  -6   3   57.69   10.70
  -4  -6   3   48.80   21.90
   3   6  -3  532.85   49.50
  -3  -6   3  479.95   42.30
   2   6  -3  -25.30   18.30
   2   6  -3   28.90   20.60
  -2  -6   3    4.80   17.60
  -2  -6   3    6.80   21.60
  -2  -6   3  -22.50   15.30
   1   6  -3  139.19   30.10
   1   6  -3  129.69   33.00
  -1  -6   3  116.89   26.60
  -1  -6   3   86.89   32.80
   0   6  -3    0.30   21.00
   0   6  -3   55.49   25.30
   0  -6   3   64.69   24.40
   0  -6   3  107.29   32.20
   0  -6   3   73.09   27.60
   0  -6   3   80.29   19.00
  -1   6  -3   29.10   28.90
  -1   6  -3   36.10   13.90
  -1   6  -3   78.79   32.90
  -1   6  -3   61.39   29.20
   1  -6   3   20.50   19.80
   1  -6   3   22.70   20.90
   1  -6   3  -68.19   30.00
   1  -6   3   63.89   28.70
  -2   6  -3  163.38   25.80
  -2   6  -3  142.59   35.00
  -2   6  -3  118.69   37.20
  -2   6  -3  165.28   50.79
   2  -6   3  138.99   45.50
   2  -6   3  152.28   32.80
   8   5  -3  253.87   41.90
   8   5  -3  179.58   25.70
   8   5  -3  252.67   46.80
  -8  -5   3  224.58   46.40
  -8  -5   3  265.17   48.30
  -8  -5   3  190.48   36.20
   7   5  -3   45.40   28.50
   7   5  -3   98.49   22.20
  -7  -5   3   79.89   23.30
  -7  -5   3   70.99   27.00
   6   5  -3  526.05   39.90
   6   5  -3  496.25   49.50
  -6  -5   3  505.05   44.90
  -6  -5   3  505.75   35.90
  -6  -5   3  442.06   51.29
   5   5  -3  469.45   37.90
   5   5  -3  415.76   46.10
  -5  -5   3  450.95   41.60
  -5  -5   3  432.96   38.90
   4   5  -3  832.32   53.69
   4   5  -3  902.21   50.89
  -4  -5   3  909.61   55.09
  -4  -5   3  859.11   23.30
  -4  -5   3  873.41   49.20
   3   5  -3 1154.18   59.19
   3   5  -3 1202.78   55.49
   3   5  -3 1083.79   57.69
  -3  -5   3 1211.38   54.99
  -3  -5   3 1102.79   68.99
  -3  -5   3 1116.89   37.70
   2   5  -3 1014.90   58.39
   2   5  -3 1122.19   54.29
   2   5  -3 1043.30   59.49
  -2  -5   3 1055.29   57.49
  -2  -5   3  987.30   51.09
  -2  -5   3 1117.59   59.89
   1   5  -3 1511.95   66.39
   1   5  -3 1495.75   70.19
  -1  -5   3 1514.75   72.49
  -1  -5   3 1386.86   65.89
  -1  -5   3 1617.04   67.39
  -1  -5   3 1516.35   41.40
   0   5  -3  558.74   44.90
   0   5  -3  488.55   46.80
   0  -5   3  474.25   30.60
   0  -5   3  515.35   40.90
   0  -5   3  516.15   42.00
   0  -5   3  519.15   46.50
  -1   5  -3 1103.79   51.59
  -1   5  -3 1138.09   65.59
  -1   5  -3 1071.49   67.99
  -1   5  -3 1144.09   46.30
   1  -5   3 1077.89   72.09
   1  -5   3 1195.18   58.79
   1  -5   3 1103.19   54.69
  -2   5  -3   10.70   23.90
  -2   5  -3   32.80   16.00
  -2   5  -3   48.50   21.30
  -2   5  -3   74.69   28.90
   2  -5   3   30.70   18.40
   2  -5   3   16.40   26.20
   2  -5   3   34.20   21.80
  -3   5  -3  447.16   44.00
  -3   5  -3  395.26   54.49
  -3   5  -3  444.26   49.10
   3  -5   3  449.26   59.39
   3  -5   3  504.35   66.29
   8   4  -3  879.51   58.59
   8   4  -3  770.82   68.69
   8   4  -3  829.82   74.49
   8   4  -3  893.61   48.20
  -8  -4   3  913.11   64.39
  -8  -4   3  775.82   69.69
  -8  -4   3  741.73   69.39
   7   4  -3  263.77   39.40
   7   4  -3  236.38   29.40
   7   4  -3  281.47   41.50
  -7  -4   3  246.78   41.10
  -7  -4   3  322.27   39.30
  -7  -4   3  253.47   44.00
   6   4  -3 2089.89   91.39
   6   4  -3 2098.59   74.99
  -6  -4   3 2022.80   89.39
  -6  -4   3 1972.30   75.09
   5   4  -3  198.98   32.60
   5   4  -3  208.58   27.60
  -5  -4   3  191.68   53.89
  -5  -4   3  199.58   27.80
  -5  -4   3  200.28   22.60
   4   4  -3 2348.07   79.99
   4   4  -3 2115.89   82.29
  -4  -4   3 2298.47   58.99
  -4  -4   3 2355.46   86.79
  -4  -4   3 2238.48   76.29
   3   4  -3   -2.20   11.90
   3   4  -3   17.70   14.60
   3   4  -3    4.20   12.10
  -3  -4   3    3.00   12.50
  -3  -4   3  -14.00    8.70
   2   4  -3 1910.71   73.19
   2   4  -3 1838.72   71.69
   2   4  -3 1866.61   64.09
  -2  -4   3 1802.42   51.09
  -2  -4   3 1816.12   71.99
  -2  -4   3 1817.72   63.79
   1   4  -3  421.96   33.90
   1   4  -3  423.76   31.30
   1   4  -3  382.46   33.40
  -1  -4   3  334.67   29.50
  -1  -4   3  439.46   35.40
  -1  -4   3  419.16   38.20
   0   4  -3 1490.45   46.80
   0   4  -3 1385.26   60.19
   0   4  -3 1395.76   65.29
   0   4  -3 1468.85   45.40
   0  -4   3 1468.55   61.19
   0  -4   3 1481.25   61.69
   0  -4   3 1380.96   68.99
  -1   4  -3  683.33   47.50
  -1   4  -3  682.13   35.60
  -1   4  -3  715.23   46.20
  -1   4  -3  677.03   38.40
   1  -4   3  688.33   42.40
   1  -4   3  670.83   49.80
   1  -4   3  788.92   47.40
   1  -4   3  722.03   40.80
  -2   4  -3  965.10   49.50
  -2   4  -3 1070.49   56.99
  -2   4  -3  989.00   61.59
   2  -4   3 1153.98   66.89
   2  -4   3 1105.19   57.59
   2  -4   3 1008.40   51.49
  -3   4  -3  565.24   45.20
  -3   4  -3  677.43   57.79
  -3   4  -3  517.35   49.00
  -3   4  -3  506.65   41.50
   3  -4   3  536.15   59.09
   3  -4   3  463.45   46.40
  -4   4  -3  415.86   37.20
  -4   4  -3  364.36   45.90
  -4   4  -3  392.26   55.69
  -4   4  -3  375.16   50.99
   4  -4   3  383.86   52.19
   4  -4   3  399.36   51.09
   8   3  -3   28.20   29.80
   8   3  -3   12.70   22.40
   8   3  -3  -28.00   18.60
  -8  -3   3   30.60   27.80
  -8  -3   3   26.30   19.20
  -8  -3   3   10.60   26.70
   7   3  -3  318.07   37.10
   7   3  -3  320.27   40.20
   7   3  -3  303.27   43.50
   7   3  -3  263.27   40.10
  -7  -3   3  280.77   46.70
  -7  -3   3  257.17   44.20
   6   3  -3  205.08   30.90
   6   3  -3  189.18   39.70
   6   3  -3  206.58   33.10
  -6  -3   3  252.67   35.80
  -6  -3   3  211.58   30.30
  -6  -3   3  261.57   40.60
   5   3  -3  568.84   43.20
   5   3  -3  538.75   37.80
   5   3  -3  444.26   40.90
  -5  -3   3  476.75   34.70
  -5  -3   3  569.54   42.90
  -5  -3   3  519.05   38.90
   4   3  -3 1221.28   59.69
   4   3  -3 1194.98   45.60
  -4  -3   3 1204.48   50.09
  -4  -3   3 1253.07   45.10
  -4  -3   3 1178.08   56.99
   3   3  -3  709.93   39.60
   3   3  -3  746.83   43.20
  -3  -3   3  731.43   23.60
  -3  -3   3  764.22   43.80
  -3  -3   3  660.33   39.30
  -3  -3   3  711.63   34.80
   2   3  -3 3001.70   90.49
   2   3  -3 3016.70   80.49
   2   3  -3 2966.70   89.89
  -2  -3   3 3138.19   91.99
  -2  -3   3 3063.59   75.89
  -2  -3   3 3095.69   81.19
  -2  -3   3 2981.20   91.59
   1   3  -3  298.67   23.70
   1   3  -3  298.97   28.80
   1   3  -3  331.97   31.10
  -1  -3   3  365.96   30.20
  -1  -3   3  335.37   23.90
   0   3  -3 3463.55  100.39
   0   3  -3 3324.27   83.39
   0   3  -3 3415.76   78.59
   0   3  -3 3418.96  104.09
   0   3  -3 3418.76   93.49
   0  -3   3 3449.65   98.09
   0  -3   3 3471.45  105.49
   0  -3   3 3371.66   93.69
  -1   3  -3  -11.40    9.50
  -1   3  -3    7.80   10.40
  -1   3  -3   11.80   10.00
  -1   3  -3    3.60   13.60
  -1   3  -3    1.90   11.60
   1  -3   3    9.70   11.00
   1  -3   3    9.00   13.50
   1  -3   3   13.30   13.00
   1  -3   3    2.50   12.70
  -2   3  -3 2043.30   74.99
  -2   3  -3 2125.99   79.99
  -2   3  -3 1951.70   69.39
   2  -3   3 1966.30   83.79
   2  -3   3 2025.80   74.99
   2  -3   3 1933.01   83.69
  -3   3  -3    6.00   19.00
  -3   3  -3   41.50   21.50
   3  -3   3   36.80   27.20
   3  -3   3   17.90   20.00
   3  -3   3   48.90   23.00
  -4   3  -3  880.91   62.19
  -4   3  -3  812.82   60.19
  -4   3  -3  781.52   40.50
   4  -3   3  771.42   59.59
   4  -3   3  705.53   59.89
   4  -3   3  673.53   55.89
  -5   3  -3   19.10   10.50
  -5   3  -3   43.80   29.30
  -5   3  -3  -60.89   26.70
  -5   3  -3    8.50    9.00
   5  -3   3   -1.20   27.90
   5  -3   3   18.50   35.10
   5  -3   3    5.30   30.00
   8   2  -3  161.58   29.50
   8   2  -3  138.39   29.80
   8   2  -3  142.89   42.30
  -8  -2   3  130.79   38.80
  -8  -2   3  134.39   23.40
   7   2  -3  689.73   44.50
   7   2  -3  645.74   49.80
   7   2  -3  609.14   56.89
  -7  -2   3  713.33   43.60
  -7  -2   3  719.33   65.79
  -7  -2   3  617.24   56.19
   6   2  -3   15.90   18.30
   6   2  -3  -33.80   15.00
   6   2  -3    0.10   21.30
   6   2  -3   -1.40   14.70
  -6  -2   3    3.40   13.40
  -6  -2   3   -0.10   18.00
  -6  -2   3   18.10   22.70
   5   2  -3 1783.62   80.69
   5   2  -3 1781.72   71.69
   5   2  -3 1686.53   72.69
  -5  -2   3 1860.01   67.19
  -5  -2   3 1721.13   69.49
  -5  -2   3 1816.92   79.19
   4   2  -3  622.94   44.90
   4   2  -3  737.23   39.60
   4   2  -3  787.12   47.20
  -4  -2   3  715.73   37.50
  -4  -2   3  658.03   44.70
  -4  -2   3  700.73   39.70
  -4  -2   3  747.63   37.80
   3   2  -3 3385.46   98.99
   3   2  -3 3115.69   88.99
  -3  -2   3 3310.77   80.49
  -3  -2   3 3472.25   94.59
  -3  -2   3 3429.26   98.99
  -3  -2   3 3293.27   83.99
   2   2  -3 1616.24   58.59
   2   2  -3 1523.05   39.30
   2   2  -3 1617.74   47.60
  -2  -2   3 1675.53   47.80
  -2  -2   3 1651.63   57.89
  -2  -2   3 1636.74   58.69
   1   2  -3 4024.00  107.49
   1   2  -3 4192.58   93.89
   1   2  -3 4038.60  104.39
  -1  -2   3 4010.00  105.99
  -1  -2   3 4030.70   92.99
  -1  -2   3 4247.57   95.59
  -1  -2   3 4055.59  103.59
   0   2  -3 1248.68   48.80
   0   2  -3 1248.88   37.10
   0   2  -3 1284.67   51.89
   0   2  -3 1254.57   42.00
   0   2  -3 1299.37   43.70
   0  -2   3 1316.27   44.60
   0  -2   3 1312.87   48.30
   0  -2   3 1226.98   42.10
   0  -2   3 1348.97   51.29
  -1   2  -3 2115.49   68.49
  -1   2  -3 1906.61   59.69
  -1   2  -3 1892.01   71.19
  -1   2  -3 1950.80   65.89
  -1   2  -3 1903.41   62.59
  -1   2  -3 1949.30   70.29
   1  -2   3 1979.20   64.99
   1  -2   3 1868.11   70.39
   1  -2   3 2004.30   68.89
  -2   2  -3 1137.19   51.89
  -2   2  -3 1120.69   48.70
  -2   2  -3 1147.09   49.90
  -2   2  -3 1118.99   52.69
   2  -2   3 1110.19   55.49
   2  -2   3 1140.39   54.19
   2  -2   3 1107.19   50.39
  -3   2  -3  186.18   24.60
  -3   2  -3  211.48   32.70
  -3   2  -3  170.08   29.00
   3  -2   3  143.49   26.60
   3  -2   3  170.88   32.70
   3  -2   3  169.88   28.30
  -4   2  -3 1279.97   64.59
  -4   2  -3 1237.28   70.49
  -4   2  -3 1190.48   68.99
  -4   2  -3 1350.76   49.30
  -4   2  -3 1194.88   53.89
   4  -2   3 1337.47   69.19
   4  -2   3 1300.77   83.69
   4  -2   3 1333.77   76.89
  -5   2  -3   42.50   29.30
  -5   2  -3   42.80   28.90
   5  -2   3   58.79   32.60
   5  -2   3   59.29   27.00
  -6   2  -3  953.10   75.69
  -6   2  -3  897.31  139.39
   6  -2   3 1029.40   68.49
   6  -2   3  958.80   76.29
   8   1  -3   13.50   18.60
   8   1  -3   58.79   24.00
   8   1  -3   94.39   40.20
  -8  -1   3   35.50   36.20
  -8  -1   3   24.40   34.90
  -8  -1   3   64.79   21.60
   7   1  -3  474.05   55.79
   7   1  -3  498.25   43.20
   7   1  -3  577.34   40.30
  -7  -1   3  534.25   59.59
  -7  -1   3  466.35   31.00
  -7  -1   3  396.16   57.79
   6   1  -3  395.76   38.80
   6   1  -3  390.06   30.80
   6   1  -3  460.65   46.00
  -6  -1   3  394.96   46.40
  -6  -1   3  463.25   31.00
  -6  -1   3  410.66   53.49
   5   1  -3 1193.28   58.19
   5   1  -3 1205.98   62.09
   5   1  -3 1065.09   63.09
   5   1  -3 1218.98   61.39
  -5  -1   3 1133.69   68.29
  -5  -1   3 1265.67   49.10
  -5  -1   3 1293.47   61.59
   4   1  -3  845.22   49.50
   4   1  -3  847.32   45.80
   4   1  -3  872.11   33.00
   4   1  -3  913.91   49.99
  -4  -1   3  888.41   45.40
  -4  -1   3  854.31   39.50
  -4  -1   3  938.51   52.69
   3   1  -3 2209.18   68.39
   3   1  -3 2284.47   77.99
   3   1  -3 2355.36   80.59
  -3  -1   3 2332.07   67.89
  -3  -1   3 2198.68   77.49
  -3  -1   3 2372.56   69.59
   2   1  -3  142.19   14.40
   2   1  -3  153.08   20.20
   2   1  -3  126.99   21.40
  -2  -1   3  140.29   14.10
  -2  -1   3  124.69   16.40
  -2  -1   3  127.09   12.00
  -2  -1   3  133.79   19.30
   1   1  -3 3423.76   96.59
   1   1  -3 3390.16   72.29
   1   1  -3 3486.55   87.99
   1   1  -3 3308.97   73.19
   1   1  -3 3377.46   89.09
  -1  -1   3 3569.14   83.79
  -1  -1   3 3375.56   71.79
  -1  -1   3 3460.55   87.49
  -1  -1   3 3345.27   88.69
   0   1  -3  590.34   32.10
   0   1  -3  586.94   31.00
   0   1  -3  595.74   28.70
   0   1  -3  617.24   34.70
   0   1  -3  637.54   23.10
   0   1  -3  570.04   26.70
   0  -1   3  540.95   22.70
   0  -1   3  561.14   31.20
   0  -1   3  591.04   27.40
   0  -1   3  633.24   28.50
   0  -1   3  557.54   26.90
  -1   1  -3 3329.67   89.39
  -1   1  -3 3317.97   82.09
  -1   1  -3 3329.67   83.89
  -1   1  -3 3227.28   89.29
  -1   1  -3 3283.77   84.39
  -1   1  -3 3271.17   83.79
  -1   1  -3 3255.17   89.29
   1  -1   3 3134.49   88.49
  -2   1  -3  795.62   39.00
  -2   1  -3  804.12   41.10
  -2   1  -3  815.52   40.70
  -2   1  -3  769.62   40.00
  -2   1  -3  763.32   39.40
   2  -1   3  723.53   39.50
   2  -1   3  749.42   44.10
  -3   1  -3 1988.30   69.69
  -3   1  -3 2081.29   60.29
  -3   1  -3 2139.79   79.49
  -3   1  -3 2066.49   78.89
   3  -1   3 2157.28   74.99
   3  -1   3 2091.29   83.19
  -4   1  -3  189.28   25.40
  -4   1  -3  301.67   40.60
  -4   1  -3  253.47   15.80
  -4   1  -3  230.38   15.10
  -4   1  -3  272.77   38.50
   4  -1   3  235.18   37.90
   4  -1   3  199.68   28.30
  -5   1  -3  939.11   68.99
  -5   1  -3  838.32   45.90
  -5   1  -3  919.01   65.49
   5  -1   3  951.80   55.39
   5  -1   3  831.22   66.39
  -6   1  -3   15.90   15.80
  -6   1  -3   45.20   32.10
  -6   1  -3   43.60   28.60
   6  -1   3   46.10   40.30
   6  -1   3   62.89   37.50
   7   0  -3    9.70   17.10
   7   0  -3   10.40   17.40
   7   0  -3   19.00   27.50
  -7   0   3  -41.80   24.80
  -7   0   3   16.10   33.80
   6   0  -3  974.70   45.10
   6   0  -3  976.80   67.19
   6   0  -3  904.31   54.09
  -6   0   3  890.41   60.29
  -6   0   3 1032.30   75.09
   5   0  -3  114.59   17.10
   5   0  -3   83.89   22.70
   5   0  -3  116.89   27.90
  -5   0   3  109.99   24.50
  -5   0   3   93.79   28.50
  -5   0   3   70.99   17.00
   4   0  -3 1422.86   65.69
   4   0  -3 1492.55   43.20
   4   0  -3 1491.55   64.89
  -4   0   3 1407.76   73.09
  -4   0   3 1472.75   62.49
   3   0  -3  532.95   38.70
   3   0  -3  482.55   38.60
   3   0  -3  505.15   17.00
   3   0  -3  601.24   35.90
  -3   0   3  534.35   36.50
  -3   0   3  605.54   43.00
  -3   0   3  607.04   35.00
  -3   0   3  489.65   33.10
   2   0  -3 1539.15   61.79
   2   0  -3 1598.94   52.69
   2   0  -3 1598.14   49.80
   2   0  -3 1661.03   60.49
  -2   0   3 1658.63   63.29
  -2   0   3 1679.53   60.79
  -2   0   3 1714.73   53.39
  -2   0   3 1651.23   54.49
   1   0  -3 1630.94   47.90
   1   0  -3 1646.54   60.69
   1   0  -3 1668.53   52.09
   1   0  -3 1717.43   56.59
  -1   0   3 1650.33   61.79
  -1   0   3 1680.23   53.49
  -1   0   3 1684.53   51.89
  -1   0   3 1701.63   34.10
   0   0  -3 1411.66   42.80
   0   0  -3 1438.26   30.60
   0   0  -3 1439.76   49.20
   0   0  -3 1459.85   53.39
   0   0   3 1297.17   39.40
   0   0   3 1431.06   44.70
   0   0   3 1414.46   41.90
   0   0   3 1471.55   54.89
  -1   0  -3 4402.06  103.19
  -1   0  -3 4192.78  109.69
  -1   0  -3 4405.16  108.79
  -1   0  -3 4303.17  104.69
  -1   0  -3 4396.36   94.99
   1   0   3 4300.57  114.09
   1   0   3 4286.97  102.69
  -2   0  -3  497.65   27.50
  -2   0  -3  486.25   32.40
  -2   0  -3  479.65   30.60
  -2   0  -3  578.24   30.30
  -2   0  -3  532.05   31.30
   2   0   3  486.65   34.20
  -3   0  -3 4707.33  105.79
  -3   0  -3 4746.02  116.99
  -3   0  -3 4721.43  128.19
  -3   0  -3 4523.05  122.59
   3   0   3 4764.92  134.09
  -4   0  -3   33.30   19.40
  -4   0  -3   75.99    7.20
  -4   0  -3   69.89   17.90
   4   0   3   68.79   17.10
   4   0   3   93.29   29.10
  -5   0  -3 2513.05   84.89
  -5   0  -3 2436.46  104.69
   5   0   3 2360.16   81.89
   5   0   3 2440.16  115.69
  -6   0  -3   -6.70   13.80
  -6   0  -3  -15.70   18.00
  -6   0  -3    7.90   20.00
   6   0   3  -12.90   15.10
   6   0   3   -1.80   29.00
  -7   0  -3  692.33   55.29
  -7   0  -3  687.43   44.60
  -7   0  -3  810.72   73.69
  -7   0  -3  723.93   69.79
   7   0   3  725.63   50.59
   7   0   3  729.53   66.99
   7  -1  -3  279.97   33.90
   7  -1  -3  302.77   34.30
   7  -1  -3  232.78   49.20
  -7   1   3  306.67   48.70
  -7   1   3  252.27   52.89
  -7   1   3  184.58   47.80
   6  -1  -3  220.98   44.10
   6  -1  -3  187.78   25.90
   6  -1  -3  209.78   31.60
  -6   1   3  198.48   38.10
  -6   1   3  133.39   41.30
  -6   1   3  141.09   34.80
   5  -1  -3  360.26   45.20
   5  -1  -3  346.97   26.60
   5  -1  -3  343.77   38.80
  -5   1   3  362.06   35.30
  -5   1   3  386.56   45.60
  -5   1   3  373.36   42.20
   4  -1  -3 1021.30   36.60
   4  -1  -3 1023.10   57.89
   4  -1  -3 1034.10   56.79
  -4   1   3  978.60   52.29
  -4   1   3 1059.09   66.89
  -4   1   3  989.00   51.49
  -4   1   3  991.80   55.99
   3  -1  -3  132.29   24.70
   3  -1  -3  129.39   22.10
  -3   1   3  128.39   19.30
  -3   1   3  101.79   26.50
  -3   1   3   99.59   20.60
  -3   1   3  139.29   22.70
   2  -1  -3 3239.28   90.89
   2  -1  -3 3347.27  103.19
   2  -1  -3 2938.81   83.89
  -2   1   3 3347.67   79.69
  -2   1   3 3176.68   98.89
  -2   1   3 3393.66   91.39
  -2   1   3 3212.08   98.99
   1  -1  -3    0.60    9.90
   1  -1  -3   -2.10    8.50
   1  -1  -3    4.80    8.90
   1  -1  -3   12.00    8.50
  -1   1   3   18.80   14.20
  -1   1   3    9.50   11.60
  -1   1   3    6.70    4.50
   0  -1  -3 3660.23  103.79
   0  -1  -3 3829.12   72.29
   0  -1  -3 3712.13   88.99
   0   1   3 3681.03   85.09
   0   1   3 3939.51   90.19
   0   1   3 3555.04   83.19
   0   1   3 3730.83  105.09
  -1  -1  -3    5.00   13.10
  -1  -1  -3   -2.60    6.30
  -1  -1  -3    8.00    4.80
   1   1   3    6.80    6.70
   1   1   3   -9.80    8.70
   1   1   3   11.40    4.50
   1   1   3    4.20   11.30
  -2  -1  -3 1371.76   33.60
  -2  -1  -3 1423.06   49.99
  -2  -1  -3 1391.86   49.50
   2   1   3 1285.97   53.89
   2   1   3 1375.16   77.09
  -3  -1  -3    6.80   12.40
  -3  -1  -3   -6.00    6.60
  -3  -1  -3   21.40   13.60
  -3  -1  -3   -3.60    7.70
   3   1   3   -5.80    7.10
   3   1   3   23.60   18.40
  -4  -1  -3  273.77   33.10
  -4  -1  -3  318.67   16.10
   4   1   3  337.07   41.50
  -5  -1  -3   62.29   25.50
  -5  -1  -3   98.39   20.20
   5   1   3   62.59   28.90
  -6  -1  -3   74.29   21.90
  -6  -1  -3   93.99   28.00
   6   1   3   47.80   31.70
  -7  -1  -3  279.97   43.70
  -7  -1  -3  197.78   41.10
   7   1   3  248.38   50.99
   6  -2  -3   19.40   19.80
   6  -2  -3    8.20   34.60
  -6   2   3   12.00   26.30
  -6   2   3    2.40   29.00
   5  -2  -3  623.14   60.79
   5  -2  -3  730.23   50.09
  -5   2   3  628.44   52.89
  -5   2   3  649.34   46.40
  -5   2   3  694.73   59.59
   4  -2  -3  -11.50   18.00
   4  -2  -3    9.30   18.10
  -4   2   3   -0.30   19.90
  -4   2   3   -4.90   14.30
  -4   2   3   10.90   17.60
  -4   2   3   -1.10   17.30
   3  -2  -3  796.42   51.59
   3  -2  -3  849.22   50.49
  -3   2   3  791.02   53.29
  -3   2   3  770.62   47.00
  -3   2   3  790.32   43.30
  -3   2   3  810.52   48.90
   2  -2  -3   27.70   18.90
   2  -2  -3   78.39   19.40
   2  -2  -3   46.60    9.20
  -2   2   3   47.50   12.60
  -2   2   3   66.29   16.80
  -2   2   3   68.19   20.40
  -2   2   3   59.49   21.40
   1  -2  -3  755.52   30.80
   1  -2  -3  774.42   48.40
   1  -2  -3  831.52   40.20
  -1   2   3  817.92   43.80
  -1   2   3  821.32   49.10
  -1   2   3  806.22   30.10
   0  -2  -3  893.81   49.60
   0  -2  -3  928.81   29.20
   0   2   3  939.01   35.80
   0   2   3  852.41   48.10
   0   2   3  916.51   29.10
   0   2   3  804.12   43.50
  -1  -2  -3 1027.70   49.20
  -1  -2  -3  945.91   30.60
  -1  -2  -3  935.71   36.30
   1   2   3 1018.90   48.40
   1   2   3  951.00   29.10
   1   2   3 1002.90   36.70
  -2  -2  -3 3009.50   81.29
  -2  -2  -3 3257.77   90.79
   2   2   3 2952.10   90.69
  -3  -2  -3  388.16   29.20
   3   2   3  403.06   28.50
   3   2   3  334.97   29.20
  -4  -2  -3 2504.15   66.99
  -4  -2  -3 2437.96   61.69
  -4  -2  -3 2543.25   87.99
  -4  -2  -3 2510.95   62.89
   4   2   3 2336.27   88.89
   4   2   3 2536.35   70.59
  -5  -2  -3  -15.00    9.20
  -5  -2  -3   27.10   19.90
   5   2   3    5.40   17.20
   5   2   3    3.40    6.20
  -6  -2  -3  876.11   60.79
  -6  -2  -3  948.91   47.90
   6   2   3  957.90   67.29
  -7  -2  -3   68.59   32.30
  -7  -2  -3   27.30   18.50
   7   2   3   54.09   33.00
  -8  -2  -3  277.97   38.00
   8   2   3  235.48   51.89
  -6   3   3   92.49   26.80
  -6   3   3   75.09   39.80
  -6   3   3   42.90   32.70
   5  -3  -3 1112.29   64.59
   5  -3  -3  903.41   71.79
  -5   3   3 1179.08   84.59
  -5   3   3 1124.99   78.29
  -5   3   3 1151.08   71.69
  -5   3   3 1109.59   62.79
   4  -3  -3   81.49   26.20
  -4   3   3   72.59   25.50
  -4   3   3   49.80   22.50
  -4   3   3   67.29   29.00
   3  -3  -3 3622.44  121.69
   3  -3  -3 3878.01  126.59
  -3   3   3 3831.62  112.59
  -3   3   3 3647.33  154.08
  -3   3   3 3734.63  122.59
  -3   3   3 3731.13  121.99
   2  -3  -3   37.10    8.70
   2  -3  -3   69.39   20.70
   2  -3  -3   32.60   20.60
  -2   3   3   35.80   20.00
  -2   3   3   55.39   16.20
  -2   3   3   57.59   20.60
   1  -3  -3 6871.11  152.58
   1  -3  -3 6807.22  164.78
   1  -3  -3 6409.06  178.68
  -1   3   3 6706.23  150.38
  -1   3   3 6839.22  177.68
   0  -3  -3    7.50   17.50
   0  -3  -3   25.00   13.40
   0  -3  -3   34.70   10.40
   0   3   3   53.99   18.30
   0   3   3   30.20    9.70
  -1  -3  -3 5194.98  115.79
  -1  -3  -3 5076.39  141.89
   1   3   3 5008.70  141.29
   1   3   3 5289.47  116.59
   1   3   3 5318.57  118.29
  -2  -3  -3    7.70   14.10
  -2  -3  -3    9.50    9.10
  -2  -3  -3   39.80   11.50
   2   3   3   17.50   15.70
   2   3   3   13.20    9.20
  -3  -3  -3 2060.09   66.09
  -3  -3  -3 2111.49   71.89
  -3  -3  -3 2045.40   65.49
   3   3   3 2049.29   74.09
  -4  -3  -3  376.66   12.10
  -4  -3  -3  396.16   32.50
  -4  -3  -3  406.46   17.60
   4   3   3  361.66   30.80
  -5  -3  -3  917.31   57.39
  -5  -3  -3  875.91   30.90
   5   3   3  904.71   58.19
   5   3   3  982.50   43.30
  -6  -3  -3  685.53   55.69
  -6  -3  -3  791.52   36.30
   6   3   3  696.53   67.39
   6   3   3  680.33   30.10
  -7  -3  -3  270.07   28.90
  -7  -3  -3  307.27   45.60
   7   3   3  281.27   49.30
  -8  -3  -3  474.85   41.10
  -8  -3  -3  460.05   63.39
   8   3   3  468.45   66.69
   5  -4  -3  -39.10   31.70
  -5   4   3  107.39   36.30
  -5   4   3   44.20   43.00
  -5   4   3   69.49   28.60
   4  -4  -3  361.96   51.69
   4  -4  -3  381.96   45.20
  -4   4   3  386.06   57.09
  -4   4   3  378.06   51.89
  -4   4   3  274.57   41.40
  -4   4   3  346.87   45.00
   3  -4  -3  276.07   41.50
  -3   4   3  340.67   40.50
  -3   4   3  375.66   44.90
  -3   4   3  309.07   42.70
   2  -4  -3  835.52   60.29
   2  -4  -3  903.71   56.89
  -2   4   3  896.71   48.80
  -2   4   3  825.92   52.19
  -2   4   3  860.11   58.29
   1  -4  -3 1014.80   48.20
   1  -4  -3 1006.10   64.09
   1  -4  -3 1058.19   55.99
  -1   4   3 1054.79   62.59
  -1   4   3 1001.40   46.70
   0  -4  -3 1164.68   65.19
   0  -4  -3 1223.18   49.40
   0  -4  -3 1210.98   54.99
   0   4   3 1277.77   49.30
   0   4   3 1310.07   67.29
  -1  -4  -3 2316.87   69.09
  -1  -4  -3 2169.68   90.39
   1   4   3 2335.77   65.09
   1   4   3 2301.87   90.19
   1   4   3 2369.76   69.89
  -2  -4  -3  570.54   42.50
  -2  -4  -3  672.23   34.70
   2   4   3  620.74   46.20
   2   4   3  640.54   34.10
   2   4   3  647.24   31.50
  -3  -4  -3 3201.68  101.59
  -3  -4  -3 3091.19   88.09
  -3  -4  -3 2983.70   82.59
   3   4   3 3025.40   66.89
   3   4   3 2840.02   99.69
  -4  -4  -3   31.00   14.30
  -4  -4  -3   58.29   15.70
   4   4   3   31.70   17.80
   4   4   3   17.10    5.50
  -5  -4  -3 2127.19   82.39
  -5  -4  -3 2092.79   77.19
  -5  -4  -3 2087.59   50.89
   5   4   3 2199.68   79.09
  -6  -4  -3    9.90   10.30
  -6  -4  -3   66.29   26.10
   6   4   3   33.10   23.00
   6   4   3   27.40   15.30
  -7  -4  -3 1027.50   43.20
  -7  -4  -3  928.61   67.29
   7   4   3  953.60   71.69
   7   4   3 1027.40   43.20
  -8  -4  -3  -18.70   29.90
  -8  -4  -3   -4.20   13.90
   8   4   3   -8.30   29.70
   4  -5  -3  855.01   67.69
  -4   5   3  970.70   80.59
  -4   5   3 1004.90   85.89
  -4   5   3  916.11   67.39
  -4   5   3  987.60   71.89
   3  -5  -3  244.68   44.10
  -3   5   3  215.58   37.20
  -3   5   3  277.57   45.70
  -3   5   3  244.28   42.20
   2  -5  -3 1280.27   81.89
  -2   5   3 1313.57   68.49
  -2   5   3 1436.66   80.19
   1  -5  -3    9.90   16.20
   1  -5  -3   23.80   22.00
   1  -5  -3   50.39   27.80
  -1   5   3    0.10   15.00
   0  -5  -3 1212.88   61.39
   0  -5  -3 1245.58   75.69
   0  -5  -3 1286.67   56.59
   0   5   3 1314.77   73.89
   0   5   3 1316.47   56.99
  -1  -5  -3  818.12   43.40
  -1  -5  -3  799.82   48.00
  -1  -5  -3  769.02   59.39
   1   5   3  777.42   54.69
   1   5   3  913.61   44.60
   1   5   3  827.62   35.20
  -2  -5  -3 1618.44   79.69
  -2  -5  -3 1594.84   60.39
   2   5   3 1471.95   76.19
   2   5   3 1519.15   60.09
   2   5   3 1592.24   51.49
  -3  -5  -3 1862.01   57.89
  -3  -5  -3 1743.93   66.39
   3   5   3 1753.72   52.69
   3   5   3 1784.22   81.39
   3   5   3 1851.91   66.99
  -4  -5  -3 1622.64   58.39
  -4  -5  -3 1594.84   66.29
   4   5   3 1653.63   76.09
   4   5   3 1601.04   46.20
  -5  -5  -3 1531.25   70.19
  -5  -5  -3 1512.65   61.79
  -5  -5  -3 1435.76   34.30
   5   5   3 1475.45   70.19
   5   5   3 1398.16   43.30
  -6  -5  -3  656.63   55.09
  -6  -5  -3  717.13   58.59
  -6  -5  -3  687.63   53.19
   6   5   3  766.32   50.99
  -7  -5  -3  792.52   62.09
  -7  -5  -3  729.63   33.40
  -7  -5  -3  802.62   60.99
   7   5   3  759.02   47.90
  -8  -5  -3   27.20   14.20
  -8  -5  -3   -7.70   22.70
   8   5   3   12.80   33.50
   8   5   3   12.60   15.20
   3  -6  -3  128.09   40.90
  -3   6   3   72.39   34.50
  -3   6   3  -24.90   27.70
   2  -6  -3  662.23   62.79
  -2   6   3  701.73   56.89
  -2   6   3  777.02   67.99
   1  -6  -3  241.98   35.10
  -1   6   3  220.08   35.10
  -1   6   3  219.58   44.00
   0  -6  -3 1825.32   81.59
   0  -6  -3 1724.93   74.99
   0   6   3 1853.51   95.79
   0   6   3 1794.32   58.89
   0   6   3 1642.54   85.19
  -1  -6  -3  309.47   45.50
  -1  -6  -3  297.47   39.20
   1   6   3  290.07   34.10
   1   6   3  252.87   42.80
   1   6   3  281.77   22.80
  -2  -6  -3 2182.58   85.19
  -2  -6  -3 2264.67   80.39
   2   6   3 2212.78   99.19
   2   6   3 2298.47   82.49
  -3  -6  -3   48.50   18.60
   3   6   3   13.30   11.40
   3   6   3   29.10   23.40
   3   6   3   32.10   17.10
  -4  -6  -3 1437.76   53.19
  -4  -6  -3 1403.56  105.09
   4   6   3 1422.36   49.70
   4   6   3 1576.14   95.79
  -5  -6  -3   67.19   18.60
  -5  -6  -3   48.40   22.80
  -5  -6  -3   71.79   12.60
   5   6   3   67.79   13.70
   5   6   3   66.49   25.90
  -6  -6  -3  578.74   48.20
  -6  -6  -3  687.53   46.20
   6   6   3  590.94   31.20
   6   6   3  637.94   53.69
  -7  -6  -3  147.59   31.80
  -7  -6  -3  143.49   36.30
  -7  -6  -3  103.89   34.80
   7   6   3  101.39   29.30
  -8  -6  -3  224.08   40.80
  -8  -6  -3  253.27   49.70
  -8  -6  -3  211.78   46.40
   8   6   3  257.37   35.20
   1  -7  -3  742.83   58.59
   1  -7  -3  682.13   64.89
  -1   7   3  791.92   62.09
  -1   7   3  778.82   72.89
   0  -7  -3  360.06   45.50
   0  -7  -3  545.65   51.59
   0   7   3  344.97   43.90
   0   7   3  358.36   27.80
   0   7   3  346.37   55.39
  -1  -7  -3  788.92   69.89
  -1  -7  -3  938.11   58.19
   1   7   3  858.61   56.99
   1   7   3  915.91   75.49
   1   7   3  878.01   36.00
  -2  -7  -3  590.94   50.19
  -2  -7  -3  591.54   47.30
   2   7   3  555.84   46.30
  -3  -7  -3  692.93   49.50
   3   7   3  686.23   50.29
   3   7   3  715.83   43.70
  -4  -7  -3 1062.49   61.09
   4   7   3  856.31   44.10
  -5  -7  -3  265.07   27.70
  -5  -7  -3  225.88   24.90
  -5  -7  -3  256.27   38.80
   5   7   3  222.48   41.60
   5   7   3  249.68   25.40
  -6  -7  -3 1030.80   52.89
  -6  -7  -3  938.31   66.29
   6   7   3 1061.09   45.60
   6   7   3  903.51   69.39
  -7  -7  -3   -2.10   19.30
  -7  -7  -3   17.40   28.40
  -7  -7  -3   35.80   28.80
   7   7   3   11.80   13.10
   7   7   3  -41.40   23.00
  -8  -7  -3  887.61   74.99
  -8  -7  -3  915.71   65.19
  -8  -7  -3  891.71   76.69
   8   7   3  871.21   66.69
   0  -8  -3    0.60   26.00
   0   8   3    9.30   29.20
   0   8   3   46.40   13.50
   0   8   3   21.90   36.00
  -1  -8  -3  672.73   56.89
  -1  -8  -3  750.52   63.09
   1   8   3  585.14   55.29
   1   8   3  578.74   83.39
  -2  -8  -3   69.29   27.20
  -2  -8  -3   50.69   27.30
   2   8   3    8.40   22.50
   2   8   3   39.10   35.60
   2   8   3   51.19   28.30
  -3  -8  -3 1079.89   66.59
   3   8   3 1064.39   84.99
   3   8   3 1057.59   67.49
   3   8   3 1071.99   70.09
  -4  -8  -3  198.08   36.10
  -4  -8  -3  187.98   30.60
   4   8   3  169.98   35.30
   4   8   3  161.68   45.30
   4   8   3  172.18   28.00
  -5  -8  -3  818.22   62.99
  -5  -8  -3  827.42   47.60
   5   8   3  858.31   47.30
   5   8   3  846.12   75.39
  -6  -8  -3   86.09   16.00
  -6  -8  -3  121.09   22.20
  -6  -8  -3   89.89   30.50
   6   8   3  159.38   24.80
   6   8   3  156.18   42.40
  -7  -8  -3  521.85   60.89
  -7  -8  -3  458.35   57.39
  -7  -8  -3  401.06   45.20
   7   8   3  470.25   62.49
   7   8   3  386.66   34.50
  -3  -9  -3   98.59   33.10
  -3  -9  -3  -11.70   28.30
  -3  -9  -3    6.60   27.50
   3   9   3  -14.10   29.90
   3   9   3   -0.80   30.90
   3   9   3  -22.10   21.70
  -4  -9  -3  119.39   30.20
  -4  -9  -3   82.89   31.60
  -4  -9  -3   88.49   34.30
   4   9   3  128.29   47.00
   4   9   3   84.19   27.30
   4   9   3  129.79   29.90
  -5  -9  -3  136.79   37.10
  -5  -9  -3  125.19   27.00
   5   9   3   50.49   26.70
   5   9   3   78.39   42.30
   6   7  -4  215.38   42.80
  -6  -7   4  215.38   50.89
  -6  -7   4  198.38   24.50
  -6  -7   4  153.58   41.10
  -6  -7   4  212.38   38.20
   5   7  -4  250.07   45.10
  -5  -7   4  233.38   21.20
  -5  -7   4  189.38   35.70
  -5  -7   4  239.68   46.20
   4   7  -4  147.69   32.00
   4   7  -4  115.69   35.70
  -4  -7   4  100.69   29.80
  -4  -7   4  139.59   37.70
   3   7  -4  345.27   43.90
   3   7  -4  283.67   46.50
  -3  -7   4  184.58   39.20
  -3  -7   4  302.67   40.80
   2   7  -4   23.00   23.90
   2   7  -4   15.60   25.20
  -2  -7   4   -2.10   22.60
  -2  -7   4   36.40   28.40
   1   7  -4  409.26   49.20
  -1  -7   4  330.27   57.19
  -1  -7   4  472.05   53.49
  -1  -7   4  412.16   62.59
   7   6  -4  259.67   43.50
   7   6  -4  232.98   41.90
  -7  -6   4  278.17   48.60
  -7  -6   4  254.47   44.60
  -7  -6   4  276.47   44.30
  -7  -6   4  301.17   28.90
   6   6  -4  514.05   57.99
   6   6  -4  609.54   51.09
  -6  -6   4  537.15   22.40
  -6  -6   4  497.65   57.49
  -6  -6   4  489.05   57.99
   5   6  -4  921.31   65.99
   5   6  -4  963.80   63.89
  -5  -6   4  971.00   63.69
  -5  -6   4  904.31   56.39
  -5  -6   4  984.20   65.39
   4   6  -4  753.02   56.49
   4   6  -4  727.73   50.69
   4   6  -4  766.92   60.89
  -4  -6   4  777.92   57.79
  -4  -6   4  751.22   49.40
  -4  -6   4  713.43   34.20
   3   6  -4 1580.14   81.69
   3   6  -4 1548.65   71.79
  -3  -6   4 1569.14   71.39
  -3  -6   4 1608.04   82.79
   2   6  -4  495.75   53.69
   2   6  -4  447.56   46.20
  -2  -6   4  529.35   49.60
  -2  -6   4  430.96   42.20
   1   6  -4 1235.68   69.39
   1   6  -4 1243.88   75.79
  -1  -6   4 1326.67   72.79
  -1  -6   4 1239.78   78.79
   0   6  -4  142.69   34.00
   0   6  -4  148.59   39.60
   0  -6   4  176.48   40.60
   0  -6   4  137.79   32.60
   0  -6   4  147.89   31.00
  -1   6  -4  576.74   66.39
  -1   6  -4  593.64   57.89
   1  -6   4  584.74   49.90
   8   5  -4  323.37   49.70
   8   5  -4  377.76   90.09
  -8  -5   4  318.57   55.39
  -8  -5   4  273.87   66.89
  -8  -5   4  337.47   52.09
  -8  -5   4  267.47   44.40
   7   5  -4   61.59   27.20
   7   5  -4   76.89   32.40
   7   5  -4   37.20   22.50
  -7  -5   4  170.78   39.80
  -7  -5   4   73.39   28.30
  -7  -5   4   78.59   22.20
   6   5  -4  551.14   47.00
   6   5  -4  518.35   56.59
  -6  -5   4  522.05   45.10
  -6  -5   4  495.45   56.69
  -6  -5   4  493.65   32.50
  -6  -5   4  547.35   53.29
   5   5  -4    3.30   19.70
   5   5  -4  -15.10   15.00
  -5  -5   4    6.40   21.00
  -5  -5   4  -24.30   17.90
  -5  -5   4   11.10   17.70
  -5  -5   4    2.10    5.20
   4   5  -4  884.21   55.89
   4   5  -4  765.62   55.79
  -4  -5   4  848.02   55.79
  -4  -5   4  808.52   39.10
  -4  -5   4  774.32   47.20
   3   5  -4  157.38   29.00
   3   5  -4  116.79   23.10
   3   5  -4  124.09   28.20
  -3  -5   4  129.29   23.80
  -3  -5   4  140.99   17.70
  -3  -5   4  171.88   32.90
   2   5  -4 1302.47   71.09
   2   5  -4 1200.58   57.79
   2   5  -4 1296.97   69.19
  -2  -5   4 1284.77   67.79
  -2  -5   4 1229.78   58.49
   1   5  -4  399.86   38.20
   1   5  -4  388.56   44.50
   1   5  -4  440.96   43.20
  -1  -5   4  332.07   47.60
   0   5  -4 1275.67   64.89
   0   5  -4 1348.67   74.49
   0  -5   4 1184.08   74.49
   0  -5   4 1253.47   65.39
  -1   5  -4  437.76   32.80
  -1   5  -4  407.46   50.19
  -1   5  -4  411.46   32.10
  -1   5  -4  507.15   47.90
   1  -5   4  431.46   56.39
  -2   5  -4  518.45   41.40
  -2   5  -4  557.84   59.89
  -2   5  -4  477.35   52.59
  -2   5  -4  499.95   42.80
   2  -5   4  557.64   64.29
   8   4  -4   -5.40   28.90
   8   4  -4  -11.70   19.50
   8   4  -4   94.59   39.10
  -8  -4   4  -31.20   32.90
  -8  -4   4  -29.90   21.30
  -8  -4   4   40.80   28.60
  -8  -4   4  -28.60   26.60
   7   4  -4  283.57   43.50
   7   4  -4  276.67   46.50
   7   4  -4  299.87   37.90
  -7  -4   4  285.67   49.90
  -7  -4   4  241.58   37.90
  -7  -4   4  273.47   36.70
  -7  -4   4  186.28   36.50
   6   4  -4  308.67   38.10
   6   4  -4  341.57   46.60
   6   4  -4  262.17   42.30
  -6  -4   4  270.87   30.40
  -6  -4   4  295.97   39.00
  -6  -4   4  294.97   42.70
   5   4  -4  536.75   42.80
   5   4  -4  403.76   46.10
  -5  -4   4  450.85   36.50
  -5  -4   4  407.56   26.40
  -5  -4   4  384.26   45.60
  -5  -4   4  426.46   53.69
   4   4  -4  797.42   53.99
   4   4  -4  773.02   50.09
  -4  -4   4  955.50   46.10
  -4  -4   4  774.62   53.59
  -4  -4   4  752.42   49.40
   3   4  -4  414.66   39.00
   3   4  -4  319.77   37.40
   3   4  -4  286.57   28.40
  -3  -4   4  365.26   26.40
  -3  -4   4  377.46   35.70
  -3  -4   4  348.27   29.80
  -3  -4   4  354.46   39.40
   2   4  -4 1019.90   57.69
   2   4  -4  951.10   54.99
   2   4  -4  985.00   46.90
  -2  -4   4  984.80   46.80
  -2  -4   4  996.40   40.20
  -2  -4   4 1011.30   56.49
  -2  -4   4 1017.00   53.49
   1   4  -4   50.89   18.40
   1   4  -4   45.50   16.80
   1   4  -4   43.50   22.50
  -1  -4   4   59.89   21.30
  -1  -4   4   37.50   16.00
   0   4  -4  743.73   28.00
   0   4  -4  724.33   48.20
   0   4  -4  487.05   42.00
   0   4  -4  721.33   44.90
   0  -4   4  671.53   51.29
   0  -4   4  741.83   47.00
   0  -4   4  723.13   44.90
  -1   4  -4   -5.80   12.00
  -1   4  -4   -2.90   17.60
  -1   4  -4    1.70   12.10
  -1   4  -4   -4.90   19.80
   1  -4   4   30.10   19.70
   1  -4   4    6.10   15.60
  -2   4  -4  609.24   42.10
  -2   4  -4  600.94   53.39
  -2   4  -4  512.95   49.10
  -2   4  -4  647.04   45.10
   2  -4   4  638.54   53.19
  -3   4  -4   11.60   23.60
  -3   4  -4   44.30   28.60
  -3   4  -4  102.19   33.90
  -3   4  -4   40.70   20.70
   3  -4   4   52.99   32.60
  -4   4  -4  398.86   47.70
  -4   4  -4  454.35   54.49
   4  -4   4  344.47   54.69
   8   3  -4    1.60   27.50
   8   3  -4   -3.60   29.80
   8   3  -4    7.90   18.20
   8   3  -4    0.30   27.60
  -8  -3   4    1.30   19.60
  -8  -3   4   27.30   27.40
  -8  -3   4   -1.90   34.70
  -8  -3   4   11.70   29.90
   7   3  -4  664.63   63.49
   7   3  -4  616.94   54.89
   7   3  -4  651.93   41.70
  -7  -3   4  557.54   61.69
  -7  -3   4  503.85   50.59
  -7  -3   4  641.34   57.99
  -7  -3   4  575.94   46.30
   6   3  -4   11.80   18.00
   6   3  -4    2.60   19.50
   6   3  -4  -32.10   19.80
  -6  -3   4   41.40   25.50
  -6  -3   4  -11.60   16.10
  -6  -3   4  -20.60   16.00
  -6  -3   4   -0.70   17.80
   5   3  -4 1289.17   71.39
   5   3  -4 1218.88   55.09
  -5  -3   4 1184.28   61.59
  -5  -3   4 1249.57   51.89
  -5  -3   4 1186.18   55.09
  -5  -3   4 1320.57   71.49
   4   3  -4    1.40   13.80
   4   3  -4   20.40   10.40
   4   3  -4   -5.70   13.80
  -4  -3   4    1.70   17.70
  -4  -3   4   10.70   11.60
  -4  -3   4   -8.10   16.30
   3   3  -4 1564.04   67.99
   3   3  -4 1619.84   66.49
  -3  -3   4 1560.14   68.19
  -3  -3   4 1670.33   67.69
  -3  -3   4 1595.14   54.79
   2   3  -4  102.19   16.20
   2   3  -4   69.99   21.00
   2   3  -4  118.69   21.60
  -2  -3   4  107.99   22.60
  -2  -3   4  119.89   17.20
  -2  -3   4   86.19   15.40
  -2  -3   4  117.69   23.10
   1   3  -4 1037.30   54.99
   1   3  -4 1051.59   42.80
   1   3  -4 1004.80   51.49
  -1  -3   4  902.01   50.79
  -1  -3   4 1034.90   41.50
  -1  -3   4  998.00   42.10
   0   3  -4  516.75   23.10
   0   3  -4  543.75   34.50
   0   3  -4  524.85   42.10
   0   3  -4  527.15   39.80
   0   3  -4  465.45   29.60
   0  -3   4  566.44   34.90
   0  -3   4  534.15   38.20
  -1   3  -4  105.79   27.00
  -1   3  -4   98.79   18.60
  -1   3  -4  147.69   20.10
  -1   3  -4  120.99   24.60
  -1   3  -4  105.79   21.70
   1  -3   4  124.19   28.70
   1  -3   4  103.29   24.30
   1  -3   4  124.89   22.20
  -2   3  -4 1188.88   60.69
  -2   3  -4 1016.70   58.99
  -2   3  -4 1093.99   54.89
  -2   3  -4 1205.98   54.39
  -3   3  -4  -15.60   16.40
  -3   3  -4   43.70   23.00
  -3   3  -4   19.80   23.30
   3  -3   4   46.80   31.30
   3  -3   4   30.00   24.40
  -4   3  -4  976.20   62.59
  -4   3  -4  981.50   67.49
  -4   3  -4  954.60   48.30
  -4   3  -4  916.71   70.69
  -4   3  -4  873.81   46.40
   4  -3   4 1074.59   79.79
   4  -3   4 1043.30   70.19
   5  -3   4   32.40   42.70
   8   2  -4  361.86   51.99
   8   2  -4  374.36   34.20
   8   2  -4  227.58   45.90
  -8  -2   4  337.87   36.00
  -8  -2   4  311.67   49.40
  -8  -2   4  244.68   47.00
   7   2  -4  119.89   21.60
   7   2  -4   94.89   29.60
   7   2  -4   39.70   28.20
  -7  -2   4   99.39   22.40
  -7  -2   4   75.09   32.00
  -7  -2   4   95.39   29.20
   6   2  -4  502.85   46.30
   6   2  -4  590.84   33.50
   6   2  -4  652.03   53.49
   6   2  -4  714.43   61.39
  -6  -2   4  600.54   46.70
  -6  -2   4  598.04   56.79
  -6  -2   4  538.35   41.00
   5   2  -4  321.47   41.10
   5   2  -4  275.77   40.60
   5   2  -4  369.36   35.10
  -5  -2   4  372.86   33.10
  -5  -2   4  290.37   32.50
  -5  -2   4  315.97   33.60
  -5  -2   4  347.37   42.50
   4   2  -4  300.17   28.20
   4   2  -4  348.17   34.50
   4   2  -4  322.37   38.30
  -4  -2   4  341.17   27.00
  -4  -2   4  282.07   36.60
  -4  -2   4  282.17   25.90
  -4  -2   4  312.87   30.90
   3   2  -4 1078.99   59.49
   3   2  -4 1068.39   45.80
   3   2  -4 1203.98   55.59
  -3  -2   4 1107.19   54.79
  -3  -2   4 1101.69   39.60
  -3  -2   4 1043.20   49.50
   2   2  -4   35.30    7.00
   2   2  -4   27.30   18.80
   2   2  -4   21.30   12.70
  -2  -2   4   41.40   17.50
  -2  -2   4   42.70   13.40
  -2  -2   4   31.60    9.00
   1   2  -4 2751.52   83.39
   1   2  -4 2631.94   56.29
   1   2  -4 2606.24   85.69
   1   2  -4 2620.44   57.79
  -1  -2   4 2622.64   74.29
  -1  -2   4 2717.43   85.99
  -1  -2   4 2721.83   68.19
  -1  -2   4 2593.84   80.19
   0   2  -4  104.59   15.70
   0   2  -4   77.99   17.80
   0   2  -4   95.69   12.30
   0   2  -4   89.09   19.90
   0   2  -4   67.09   14.40
   0   2  -4   45.20   15.90
   0  -2   4   81.39   18.50
   0  -2   4   52.99   15.80
   0  -2   4   71.39   14.20
   0  -2   4   91.89   15.90
  -1   2  -4 3582.04   95.19
  -1   2  -4 3636.94   97.89
  -1   2  -4 3557.44  107.29
  -1   2  -4 3574.44  108.99
  -1   2  -4 3609.44   96.79
  -1   2  -4 3678.23  102.99
   1  -2   4 3558.44  106.29
   1  -2   4 3551.24  104.89
  -2   2  -4  226.98   29.60
  -2   2  -4  286.57   31.50
  -2   2  -4  289.57   30.70
  -2   2  -4  314.47   36.30
  -2   2  -4  244.38   30.50
  -2   2  -4  298.77   31.90
   2  -2   4  286.77   39.10
   2  -2   4  303.27   35.80
  -3   2  -4 2412.56   85.99
  -3   2  -4 2299.87   89.59
  -3   2  -4 2346.97   86.09
  -3   2  -4 2353.56   91.49
  -3   2  -4 2276.77   76.79
   3  -2   4 2504.15   94.99
  -4   2  -4  213.78   35.00
  -4   2  -4  219.88   23.30
  -4   2  -4  196.48   37.30
  -4   2  -4  211.28   42.40
  -4   2  -4  230.08   31.10
   4  -2   4  282.87   47.90
   4  -2   4  227.18   36.70
  -5   2  -4  867.71   69.29
  -5   2  -4  788.52   70.59
  -5   2  -4  911.81   64.49
   5  -2   4  882.01   76.99
   5  -2   4  815.72   64.29
   7   1  -4   11.80   14.00
   7   1  -4   36.30   23.30
   7   1  -4   12.10   25.30
  -7  -1   4   -3.30   22.80
  -7  -1   4   13.00   13.90
  -7  -1   4   -3.60   30.00
   6   1  -4  678.23   53.49
   6   1  -4  856.11   59.79
  -6  -1   4  795.92   43.30
  -6  -1   4  671.93   73.59
  -6  -1   4  606.84   81.99
   5   1  -4    8.40    8.40
   5   1  -4    5.10   19.00
   5   1  -4    4.00   15.90
   5   1  -4   18.90   27.80
  -5  -1   4   13.20   13.60
  -5  -1   4   47.60   18.50
  -5  -1   4   40.70   23.40
   4   1  -4 2007.30   72.79
   4   1  -4 1843.52   47.80
   4   1  -4 1951.20   83.39
   4   1  -4 2174.58   85.89
  -4  -1   4 2015.10   69.29
  -4  -1   4 1834.92   68.79
  -4  -1   4 1980.20   83.39
   3   1  -4  219.48   31.80
   3   1  -4  227.78   30.60
   3   1  -4  194.38   22.00
  -3  -1   4  267.87   26.10
  -3  -1   4  214.38   18.10
  -3  -1   4  191.48   28.50
  -3  -1   4  228.18   22.10
   2   1  -4 3028.90   90.99
   2   1  -4 2884.61   74.59
   2   1  -4 2998.30   99.79
  -2  -1   4 2916.81   87.79
  -2  -1   4 2909.91   87.29
  -2  -1   4 2980.60   66.19
   1   1  -4 1128.39   31.00
   1   1  -4 1148.59   47.10
   1   1  -4 1217.08   57.09
   1   1  -4 1191.68   50.69
   1   1  -4 1137.99   35.80
  -1  -1   4 1141.19   48.90
  -1  -1   4 1123.59   30.70
  -1  -1   4 1078.69   43.80
  -1  -1   4 1219.98   47.50
   0   1  -4 1603.84   43.30
   0   1  -4 1574.94   64.19
   0   1  -4 1668.73   61.19
   0   1  -4 1543.75   54.19
   0   1  -4 1702.53   62.49
   0  -1   4 1545.85   52.09
   0  -1   4 1544.15   52.79
   0  -1   4 1569.04   53.79
   0  -1   4 1552.54   59.19
  -1   1  -4 1863.31   69.39
  -1   1  -4 2001.70   71.39
  -1   1  -4 1914.41   61.19
  -1   1  -4 1957.20   62.19
  -1   1  -4 1956.80   57.79
  -1   1  -4 1949.60   68.79
  -1   1  -4 1941.91   63.79
   1  -1   4 1942.71   66.79
  -2   1  -4  266.57   27.70
  -2   1  -4  256.77   27.90
  -2   1  -4  274.07   31.80
  -2   1  -4  296.47   25.50
  -2   1  -4  259.47   26.90
  -2   1  -4  245.48   28.90
  -2   1  -4  268.17   27.20
   2  -1   4  287.67   35.90
  -3   1  -4 1505.45   66.89
  -3   1  -4 1421.36   66.29
  -3   1  -4 1453.45   54.59
  -3   1  -4 1440.26   64.29
  -3   1  -4 1432.26   64.29
  -3   1  -4 1441.06   63.59
   3  -1   4 1407.86   72.59
  -4   1  -4   -9.60   18.80
  -4   1  -4   17.70   17.00
  -4   1  -4    6.50    9.30
  -4   1  -4    0.90   18.50
  -4   1  -4   26.10   19.60
   4  -1   4   -3.00   24.00
   4  -1   4  -28.20   14.50
  -5   1  -4  669.13   59.89
  -5   1  -4  690.43   48.80
  -5   1  -4  615.44   54.99
   5  -1   4  618.14   69.99
   5  -1   4  608.64   49.80
  -6   1  -4    9.20   24.10
  -6   1  -4  -22.40   17.10
  -6   1  -4    9.60   31.30
   6  -1   4   17.60   35.90
   7   0  -4  383.96   53.59
   7   0  -4  332.07   27.30
   7   0  -4  347.77   43.00
  -7   0   4  345.57   51.79
  -7   0   4  262.37   51.99
   6   0  -4  368.16   45.70
   6   0  -4  485.95   51.29
  -6   0   4  471.35   49.30
   5   0  -4  498.05   47.20
   5   0  -4  590.64   23.50
   5   0  -4  581.44   58.69
  -5   0   4  617.64   47.60
  -5   0   4  667.53   35.50
   4   0  -4 1579.54   67.79
   4   0  -4 1541.05   76.79
   4   0  -4 1499.25   73.49
  -4   0   4 1492.05   55.39
  -4   0   4 1468.65   64.49
  -4   0   4 1452.75   76.49
   3   0  -4 1062.39   48.90
   3   0  -4 1054.89   59.39
   3   0  -4 1077.19   55.99
  -3   0   4 1096.99   58.59
  -3   0   4 1091.39   56.09
  -3   0   4 1121.29   49.60
  -3   0   4 1140.79   47.40
   2   0  -4 2417.46   81.99
   2   0  -4 2356.86   88.99
   2   0  -4 2409.36   72.49
   2   0  -4 2411.76   72.09
  -2   0   4 2449.75   75.29
  -2   0   4 2507.35   80.39
  -2   0   4 2546.55   88.99
   1   0  -4 2319.47   83.19
   1   0  -4 2465.45   73.59
   1   0  -4 2259.37   64.69
   1   0  -4 2446.26   73.39
  -1   0   4 2316.27   73.39
  -1   0   4 2234.98   83.19
  -1   0   4 2400.06   70.09
   0   0  -4 2166.38   44.30
   0   0  -4 2151.98   77.39
   0   0  -4 2202.38   70.39
   0   0  -4 2132.89   62.29
   0   0   4 2204.78   78.69
   0   0   4 2134.79   65.49
   0   0   4 2131.39   58.79
   0   0   4 2115.39   60.59
  -1   0  -4 1584.34   62.79
  -1   0  -4 1658.43   56.99
  -1   0  -4 1669.63   63.19
  -1   0  -4 1603.24   51.09
  -1   0  -4 1663.03   46.60
   1   0   4 1718.93   57.79
   1   0   4 1647.94   57.99
  -2   0  -4 1318.57   53.39
  -2   0  -4 1382.66   54.39
  -2   0  -4 1341.37   53.29
  -2   0  -4 1335.27   45.80
  -2   0  -4 1314.37   54.09
  -2   0  -4 1296.67   56.39
   2   0   4 1339.07   59.29
  -3   0  -4   -0.80   14.40
  -3   0  -4   23.80   14.00
  -3   0  -4    5.20    9.80
  -3   0  -4    3.00   11.40
  -3   0  -4   -3.30   12.70
  -3   0  -4   16.00   11.20
   3   0   4    8.80   19.90
  -4   0  -4  724.03   31.60
  -4   0  -4  765.52   53.39
  -4   0  -4  651.63   45.40
   4   0   4  785.02   55.09
  -5   0  -4  306.07   37.60
  -5   0  -4  312.97   45.30
   5   0   4  377.66   53.59
  -6   0  -4  217.18   44.00
  -6   0  -4  310.27   38.00
  -6   0  -4  185.68   42.80
   6   0   4  291.57   52.69
  -7   0  -4  326.67   43.70
   7   0   4  331.17   63.19
   7  -1  -4  333.87   42.60
   7  -1  -4  379.36   60.29
  -7   1   4  245.78   52.49
  -7   1   4  402.26   69.39
  -7   1   4  345.27   48.40
   6  -1  -4   37.20   29.50
   6  -1  -4  -15.40   21.20
  -6   1   4    0.80   22.80
  -6   1   4   16.60   25.60
  -6   1   4   17.40   23.40
   5  -1  -4 1009.70   65.69
   5  -1  -4 1079.59   65.69
  -5   1   4 1028.30   58.39
  -5   1   4 1012.40   59.59
  -5   1   4  985.90   64.29
   4  -1  -4  156.98   31.50
   4  -1  -4   91.39   25.90
  -4   1   4  130.99   27.20
  -4   1   4  165.78   34.00
  -4   1   4  103.29   22.00
  -4   1   4  128.29   24.70
   3  -1  -4 1772.82   80.19
   3  -1  -4 1749.92   70.69
  -3   1   4 1897.91   79.29
  -3   1   4 1823.52   59.09
  -3   1   4 1781.42   70.49
  -3   1   4 1986.50   84.19
   2  -1  -4 1761.52   55.19
   2  -1  -4 1732.73   63.19
   2  -1  -4 1650.63   68.49
   2  -1  -4 1595.64   73.29
  -2   1   4 1724.93   74.19
  -2   1   4 1634.94   46.10
  -2   1   4 1564.24   65.59
   1  -1  -4 1760.52   74.79
   1  -1  -4 1731.03   58.09
   1  -1  -4 1746.73   64.09
   1  -1  -4 1769.12   59.29
  -1   1   4 1727.03   37.40
  -1   1   4 1760.22   60.49
  -1   1   4 1732.93   37.60
  -1   1   4 1752.72   73.99
   0  -1  -4 4999.50  140.09
   0  -1  -4 5154.98  121.29
   0  -1  -4 5140.39  127.99
   0   1   4 5128.69  141.89
   0   1   4 5141.59  115.39
   0   1   4 5132.49  113.69
   0   1   4 5382.06  123.69
  -1  -1  -4  817.22   45.30
  -1  -1  -4  799.42   29.60
  -1  -1  -4  817.32   36.80
   1   1   4  752.82   37.50
   1   1   4  813.82   27.50
   1   1   4  784.52   45.90
   1   1   4  794.22   37.60
  -2  -1  -4 5098.99  104.59
  -2  -1  -4 5056.79  125.59
  -2  -1  -4 4962.70  128.79
   2   1   4 5016.90  129.89
   2   1   4 4944.41  132.89
  -3  -1  -4  327.87   32.80
  -3  -1  -4  319.67   18.00
  -3  -1  -4  338.47   25.20
  -3  -1  -4  280.27   26.50
  -3  -1  -4  293.37   25.90
   3   1   4  273.07   35.80
   3   1   4  267.17   25.00
  -4  -1  -4 2258.87   64.69
  -4  -1  -4 2340.77   90.29
  -4  -1  -4 2234.98   71.39
  -4  -1  -4 2148.19   81.79
   4   1   4 2354.26   96.69
  -5  -1  -4   60.49   22.10
  -5  -1  -4   45.20   25.60
   5   1   4   69.49   31.70
  -6  -1  -4  773.82   55.09
  -6  -1  -4  772.92   65.79
  -6  -1  -4  870.31   49.20
   6   1   4  871.71   71.59
  -7  -1  -4   -9.90   17.70
  -7  -1  -4    4.00   31.20
  -7  -1  -4   18.50   21.00
   7   1   4   34.70   37.40
   6  -2  -4   89.29   36.50
   6  -2  -4   64.29   26.90
  -6   2   4   63.49   29.50
  -6   2   4   56.69   28.80
  -6   2   4   95.69   38.80
   5  -2  -4 1303.37   80.89
   5  -2  -4 1412.66   77.09
  -5   2   4 1529.05   75.19
  -5   2   4 1342.47  104.29
  -5   2   4 1359.56   81.09
   4  -2  -4   96.99   28.90
   4  -2  -4  116.49   28.30
  -4   2   4  102.59   29.70
  -4   2   4  141.29   28.90
  -4   2   4   98.89   23.80
  -4   2   4  159.28   36.30
   3  -2  -4 2847.71   99.69
   3  -2  -4 2909.31  109.99
  -3   2   4 2900.71   84.69
  -3   2   4 2671.23  106.49
  -3   2   4 2643.44   96.69
  -3   2   4 2960.90  105.89
   2  -2  -4   75.79   22.60
   2  -2  -4   58.59   12.60
   2  -2  -4   51.99   18.60
  -2   2   4   62.39   23.00
  -2   2   4   45.30   20.70
  -2   2   4   82.29   14.40
   1  -2  -4 3152.68   86.79
   1  -2  -4 3212.08  110.59
   1  -2  -4 3199.18   94.49
  -1   2   4 3274.47   75.19
  -1   2   4 3352.06  112.29
  -1   2   4 3283.77   98.49
   0  -2  -4   34.00    7.00
   0  -2  -4   29.00   19.40
   0   2   4   30.30   11.70
   0   2   4   36.00   12.20
   0   2   4   36.50   18.40
   0   2   4   46.20    7.60
  -1  -2  -4 3470.45   77.99
  -1  -2  -4 3669.23  111.49
   1   2   4 3556.24   78.59
   1   2   4 3537.15   93.29
   1   2   4 3482.15  112.39
  -2  -2  -4 1024.50   50.59
  -2  -2  -4  945.81   35.90
  -2  -2  -4  877.91   40.90
   2   2   4  879.21   46.20
   2   2   4 1011.20   52.79
   2   2   4 1010.50   44.60
  -3  -2  -4 3291.37   95.79
  -3  -2  -4 3167.88   93.79
   3   2   4 3245.18   97.59
   3   2   4 3119.29  104.19
  -4  -2  -4 1767.62   75.69
  -4  -2  -4 1749.03   58.79
  -4  -2  -4 1625.34   41.30
  -4  -2  -4 1595.34   68.49
  -4  -2  -4 1630.34   39.30
  -4  -2  -4 1739.03   54.59
   4   2   4 1534.75   76.29
   4   2   4 1699.93   59.99
  -5  -2  -4 1475.55   76.39
  -5  -2  -4 1447.76   68.19
   5   2   4 1443.66   76.89
  -6  -2  -4  957.80   44.90
  -6  -2  -4  936.01   68.29
   6   2   4 1013.20   72.89
  -7  -2  -4  327.17   52.19
  -7  -2  -4  388.66   35.90
   7   2   4  501.25   68.59
   5  -3  -4   45.30   34.80
  -5   3   4  -40.80   34.40
  -5   3   4  -16.90   22.60
  -5   3   4   12.80   27.50
  -5   3   4   -4.90   21.50
   4  -3  -4  570.04   55.69
  -4   3   4  548.15   61.99
  -4   3   4  563.24   47.10
  -4   3   4  517.75   53.49
   3  -3  -4  313.97   17.80
   3  -3  -4  339.47   45.40
   3  -3  -4  312.17   40.40
  -3   3   4  367.46   34.90
  -3   3   4  383.06   47.60
  -3   3   4  320.27   40.40
  -3   3   4  327.77   43.70
   2  -3  -4  740.03   32.80
   2  -3  -4  717.73   56.79
   2  -3  -4  762.42   50.69
  -2   3   4  764.52   51.89
  -2   3   4  787.72   39.00
  -2   3   4  690.23   53.99
   1  -3  -4 1897.01   88.49
   1  -3  -4 1972.20   60.99
   1  -3  -4 1868.91   73.19
  -1   3   4 2107.59   89.79
  -1   3   4 2039.10   60.19
  -1   3   4 1911.61   77.69
   0  -3  -4  496.85   34.80
   0  -3  -4  441.86   24.30
   0  -3  -4  463.65   41.90
   0   3   4  484.95   24.80
   0   3   4  428.76   29.40
   0   3   4  465.75   41.00
   0   3   4  491.95   33.70
  -1  -3  -4 3535.45   84.39
  -1  -3  -4 3605.54  117.59
   1   3   4 3539.65   93.19
   1   3   4 3463.15   93.59
   1   3   4 3527.65  116.69
  -2  -3  -4  220.38   31.20
  -2  -3  -4  171.48   21.70
  -2  -3  -4  156.08   17.20
   2   3   4  187.78   28.90
   2   3   4  192.28    9.20
   2   3   4  192.48   23.50
  -3  -3  -4 2844.12   81.79
  -3  -3  -4 2752.62   85.29
  -3  -3  -4 2816.42   92.69
   3   3   4 2828.92   96.59
  -4  -3  -4   16.50    9.30
  -4  -3  -4   33.80   15.00
  -4  -3  -4   16.30   15.90
   4   3   4   57.79   20.50
   4   3   4   32.30   17.20
  -5  -3  -4 1709.23   81.29
  -5  -3  -4 1708.93   86.89
   5   3   4 1619.74   62.09
   5   3   4 1618.94   79.99
  -6  -3  -4    3.70   18.30
  -6  -3  -4   12.70    8.60
   6   3   4   38.80   30.20
  -7  -3  -4  907.51   72.99
  -7  -3  -4  887.31   40.70
   7   3   4 1027.60   76.89
  -8  -3  -4    8.90   16.40
  -8  -3  -4   -0.50   31.90
   8   3   4   36.30   39.90
   5  -4  -4   56.69   32.80
  -5   4   4  101.49   38.20
  -5   4   4  110.99   33.90
  -5   4   4   27.40   29.70
   4  -4  -4  450.45   55.99
   4  -4  -4  411.86   54.99
  -4   4   4  671.03   58.19
  -4   4   4  430.76   63.39
  -4   4   4  574.84   57.19
  -4   4   4  489.55   47.60
   3  -4  -4   22.10   30.30
  -3   4   4   10.20   17.60
  -3   4   4   18.70   20.80
   2  -4  -4 1034.80   39.50
   2  -4  -4  996.00   70.59
  -2   4   4 1114.19   69.29
  -2   4   4 1076.09   52.89
   1  -4  -4  138.09   36.00
   1  -4  -4  172.38   29.40
   1  -4  -4  163.48   22.90
  -1   4   4  165.18   30.90
  -1   4   4  198.88   24.70
  -1   4   4  167.18   35.10
   0  -4  -4 1978.90   77.99
   0  -4  -4 2040.20   94.69
   0  -4  -4 2043.20   65.09
   0   4   4 2021.30   66.59
   0   4   4 1967.20   64.29
   0   4   4 2172.98   93.79
  -1  -4  -4  593.04   31.10
  -1  -4  -4  576.44   47.00
   1   4   4  584.74   33.20
   1   4   4  532.55   30.60
   1   4   4  524.45   48.60
  -2  -4  -4 2400.96   92.69
  -2  -4  -4 2170.38   67.59
   2   4   4 2182.48   91.79
   2   4   4 2247.98   70.69
  -3  -4  -4  686.23   38.70
  -3  -4  -4  765.72   39.50
  -3  -4  -4  754.92   50.59
   3   4   4  718.13   50.49
  -4  -4  -4  674.73   41.60
  -4  -4  -4  618.14   43.90
  -4  -4  -4  654.93   41.20
   4   4   4  671.93   48.70
  -5  -4  -4  659.63   44.80
  -5  -4  -4  636.04   24.50
  -5  -4  -4  560.04   44.40
   5   4   4  685.73   46.50
  -6  -4  -4   -6.50   24.40
  -6  -4  -4   23.20   20.70
   6   4   4   41.20   28.80
   6   4   4    8.50   14.50
  -7  -4  -4  439.96   51.19
  -7  -4  -4  332.87   51.19
  -7  -4  -4  356.86   18.90
   7   4   4  373.26   55.89
   7   4   4  392.36   28.30
  -8  -4  -4  183.68   19.80
  -8  -4  -4  163.28   40.60
   8   4   4  302.27   51.29
   4  -5  -4  152.88   50.09
  -4   5   4  116.69   48.80
  -4   5   4  224.58   42.80
  -4   5   4  258.47   45.30
   3  -5  -4  530.05   62.09
   3  -5  -4  424.46   53.39
  -3   5   4  510.35   60.49
  -3   5   4  481.35   61.89
  -3   5   4  544.75   50.19
   2  -5  -4  469.55   51.89
   2  -5  -4  571.84   65.29
  -2   5   4  583.64   58.89
  -2   5   4  598.34   54.79
   1  -5  -4  719.13   84.19
   1  -5  -4  832.82   48.40
   1  -5  -4  719.93   53.69
  -1   5   4  795.62   60.19
  -1   5   4  782.92   47.70
   0  -5  -4  802.02   63.09
   0  -5  -4  821.42   45.20
   0  -5  -4  831.82   54.59
   0   5   4  807.42   44.50
   0   5   4  794.92   41.70
   0   5   4  868.21   61.49
  -1  -5  -4  332.27   37.00
  -1  -5  -4  282.87   44.90
  -1  -5  -4  251.57   27.60
   1   5   4  346.47   27.80
   1   5   4  274.77   29.00
   1   5   4  316.87   44.90
  -2  -5  -4  795.02   42.00
  -2  -5  -4  856.71   59.69
   2   5   4  801.92   60.49
   2   5   4  838.82   43.90
   2   5   4  846.82   41.10
  -3  -5  -4   -9.90   19.20
  -3  -5  -4   18.30   14.70
  -3  -5  -4   23.30   13.30
   3   5   4    5.60   15.40
   3   5   4   10.10    7.20
  -4  -5  -4 1100.59   54.49
  -4  -5  -4 1027.60   49.60
   4   5   4  999.30   25.00
   4   5   4 1075.09   64.59
  -5  -5  -4   22.90   17.10
   5   5   4   35.30   23.20
  -6  -5  -4 1305.07   66.69
  -6  -5  -4 1218.68   69.09
  -6  -5  -4 1333.27   79.09
   6   5   4 1334.17   67.29
  -7  -5  -4   34.90   23.50
  -7  -5  -4   10.80   23.30
  -7  -5  -4   40.60   25.70
   7   5   4   23.70   34.90
   7   5   4   55.89   21.30
  -8  -5  -4  912.41   82.49
  -8  -5  -4  835.82   70.49
   8   5   4  911.01   44.70
   8   5   4  906.01   79.39
   2  -6  -4   -8.70   20.20
  -2   6   4  -19.00   20.10
  -2   6   4   25.70   32.20
   1  -6  -4  835.52   55.39
   1  -6  -4  919.01   65.99
   1  -6  -4  934.51   77.39
  -1   6   4  825.82   54.89
  -1   6   4  830.42   70.69
   0  -6  -4  117.29   33.10
   0  -6  -4  118.59   26.10
   0   6   4  142.99   27.20
   0   6   4  126.99   20.60
   0   6   4  130.19   32.60
  -1  -6  -4 1122.89   76.29
  -1  -6  -4 1190.38   57.29
  -1  -6  -4 1166.38   63.39
   1   6   4 1127.99   48.40
   1   6   4 1161.68   57.09
  -2  -6  -4  660.23   62.19
  -2  -6  -4  570.94   40.20
   2   6   4  589.74   42.70
   2   6   4  542.95   34.20
  -3  -6  -4  864.41   49.90
   3   6   4  973.10   53.09
   3   6   4  853.61   38.00
   3   6   4  822.72   66.39
  -4  -6  -4 1063.39   66.69
  -4  -6  -4 1058.29   49.70
   4   6   4 1019.40   70.29
  -5  -6  -4  271.97   32.10
  -5  -6  -4  225.48   35.00
   5   6   4  220.98   13.90
   5   6   4  228.18   40.40
  -6  -6  -4  914.11   54.49
  -6  -6  -4  954.20   61.49
  -7  -6  -4   18.70   27.00
  -7  -6  -4   19.90   26.80
  -7  -6  -4  -46.80   26.50
   7   6   4   25.30   22.20
  -8  -6  -4  370.46   51.29
  -8  -6  -4  410.76   57.09
   8   6   4  409.16   42.20
   8   6   4  340.77   60.59
   1  -7  -4  457.65   56.49
   1  -7  -4  417.86   51.59
  -1   7   4  397.66   73.29
  -1   7   4  434.56   50.89
  -1   7   4  447.66   38.40
   0  -7  -4  110.59   29.90
   0  -7  -4   75.99   32.90
   0   7   4  112.19   21.70
   0   7   4   91.69   40.30
   0   7   4  131.29   31.20
  -1  -7  -4 1003.40   66.19
  -1  -7  -4 1066.59   62.29
   1   7   4  891.91   72.09
   1   7   4 1042.10   60.39
   1   7   4  961.10   44.30
  -2  -7  -4   58.39   23.90
   2   7   4  107.29   26.30
   2   7   4   52.69   16.40
  -3  -7  -4 1310.37   66.29
   3   7   4 1491.15   70.99
   3   7   4 1148.19   83.89
   3   7   4 1386.36   56.69
  -4  -7  -4   82.09   26.50
   4   7   4   80.59   16.60
  -5  -7  -4 1081.59   52.79
  -5  -7  -4 1166.38   66.59
   5   7   4 1105.69   40.80
  -6  -7  -4   34.60    8.30
  -6  -7  -4   37.40   20.30
  -6  -7  -4   44.70   26.90
   6   7   4   23.60    9.00
  -7  -7  -4  441.76   65.19
  -7  -7  -4  580.74   66.79
  -1  -8  -4   36.90   32.30
  -1  -8  -4   44.10   27.00
   1   8   4   34.60   41.00
   1   8   4   49.90   26.50
   1   8   4   23.90   14.30
  -2  -8  -4  592.64   53.09
  -2  -8  -4  555.84   61.59
   2   8   4  647.64   54.99
  -3  -8  -4  322.77   46.80
  -3  -8  -4  284.17   39.80
   3   8   4  293.97   42.70
   3   8   4  282.67   56.59
   3   8   4  326.57   35.40
  -4  -8  -4  195.78   35.80
   4   8   4  178.48   26.10
   4   8   4  140.29   42.00
  -5  -8  -4  597.44   54.89
  -5  -8  -4  500.05   39.40
   5   8   4  571.74   67.89
   5   8   4  526.95   34.50
  -6  -8  -4   32.80   13.50
  -6  -8  -4   20.40   19.50
   6   8   4  -28.10   32.10
   6   8   4   15.90   13.20
   5   7  -5  182.58   44.00
   5   7  -5  284.37   49.50
  -5  -7   5  299.87   27.90
  -5  -7   5  248.48   50.09
  -5  -7   5  262.77   40.40
   4   7  -5  237.08   48.00
   4   7  -5  228.78   50.69
   4   7  -5  247.08   39.90
  -4  -7   5  142.99   34.10
   3   7  -5  254.17   45.80
   3   7  -5  230.58   37.70
  -3  -7   5  214.98   39.00
  -3  -7   5  227.48   50.49
   2   7  -5   89.59   38.40
   2   7  -5  197.78   36.50
  -2  -7   5  109.19   33.00
  -2  -7   5  157.38   42.50
   6   6  -5  195.68   42.80
  -6  -6   5  160.98   37.00
  -6  -6   5  163.78   37.50
  -6  -6   5  149.49   38.10
   5   6  -5   34.90   31.70
   5   6  -5   41.50   28.80
  -5  -6   5    3.60   15.00
  -5  -6   5   76.89   31.80
   4   6  -5  532.95   57.89
   4   6  -5  409.66   52.79
  -4  -6   5  469.05   32.60
  -4  -6   5  447.06   44.10
  -4  -6   5  509.45   59.19
   3   6  -5   -8.90   21.80
   3   6  -5   33.60   21.90
   3   6  -5    6.00   20.00
  -3  -6   5    1.70   17.70
  -3  -6   5  -13.60   16.80
   2   6  -5  549.45   63.09
   2   6  -5  591.14   61.59
   2   6  -5  607.74   50.39
  -2  -6   5  430.06   51.29
   1   6  -5   88.19   29.10
   1   6  -5   64.69   32.20
  -1  -6   5   66.89   27.60
  -1  -6   5   87.59   30.40
   0   6  -5  292.47   42.70
   0   6  -5  173.48   42.80
   0  -6   5  277.67   43.20
   0  -6   5  256.87   42.10
   7   5  -5  360.26   47.50
   7   5  -5  437.76   61.99
   7   5  -5  316.47   50.39
  -7  -5   5  330.87   32.40
  -7  -5   5  263.17   52.09
  -7  -5   5  315.17   48.10
  -7  -5   5  338.77   50.29
   6   5  -5   14.70   25.00
   6   5  -5   45.70   25.70
   6   5  -5   61.29   34.00
  -6  -5   5  -11.10   28.10
  -6  -5   5   26.40   20.90
  -6  -5   5    0.60   23.80
   5   5  -5  448.06   51.99
   5   5  -5  465.65   53.39
  -5  -5   5  596.44   54.19
  -5  -5   5  616.24   56.79
   4   5  -5   88.49   25.60
   4   5  -5  123.69   31.30
  -4  -5   5   58.59   17.90
  -4  -5   5   64.79   28.50
  -4  -5   5   52.29   19.20
   3   5  -5  266.97   32.50
   3   5  -5  200.48   45.10
   3   5  -5  212.68   34.40
  -3  -5   5  264.27   39.30
  -3  -5   5  284.77   32.80
  -3  -5   5  292.17   28.10
   2   5  -5  192.58   32.20
   2   5  -5  167.48   27.80
  -2  -5   5  183.28   33.60
  -2  -5   5  175.58   28.10
   1   5  -5   60.29   21.10
   1   5  -5   34.00   24.40
   1   5  -5   65.19   30.90
  -1  -5   5   72.79   26.90
  -1  -5   5   34.50   20.00
   0   5  -5  552.74   46.10
   0   5  -5  574.54   55.39
   0  -5   5  644.24   53.89
   0  -5   5  578.14   47.90
  -1   5  -5  -20.80   20.80
  -1   5  -5   16.10   13.40
  -1   5  -5    8.50   22.40
  -1   5  -5  -17.30   14.50
   1  -5   5    2.80   22.30
  -2   5  -5  737.83   67.99
  -2   5  -5  613.34   48.20
  -2   5  -5  904.31   66.69
  -2   5  -5  741.43   49.30
   7   4  -5  429.16   56.69
   7   4  -5  415.06   49.80
   7   4  -5  463.25   60.49
  -7  -4   5  405.26   49.40
  -7  -4   5  490.45   43.00
  -7  -4   5  335.57   45.40
  -7  -4   5  434.26   61.59
   6   4  -5   -8.50   24.20
   6   4  -5   33.00   24.50
   6   4  -5   51.99   30.70
  -6  -4   5   30.50   25.60
  -6  -4   5   56.89   17.20
  -6  -4   5   22.70   26.00
   5   4  -5  955.90   70.39
   5   4  -5  942.01   65.09
   5   4  -5  951.20   62.99
  -5  -4   5  854.31   48.70
  -5  -4   5  935.81   62.39
   4   4  -5   18.10   17.00
   4   4  -5    2.10   15.60
  -4  -4   5  -12.40   13.30
  -4  -4   5  -21.30   16.40
   3   4  -5 1176.68   64.89
   3   4  -5 1122.39   64.49
   3   4  -5 1004.20   48.00
  -3  -4   5 1045.90   60.99
  -3  -4   5 1092.69   48.90
  -3  -4   5 1127.89   49.70
  -3  -4   5 1054.59   63.99
   2   4  -5  144.39   32.70
   2   4  -5  119.39   30.70
   2   4  -5  130.99   21.30
  -2  -4   5  149.79   27.60
  -2  -4   5  122.69   21.70
  -2  -4   5  143.59   30.50
  -2  -4   5  137.49   21.60
   1   4  -5  537.45   38.00
   1   4  -5  676.33   50.39
  -1  -4   5  618.74   48.10
  -1  -4   5  620.74   40.60
   0   4  -5  283.57   33.30
   0   4  -5  259.47   37.70
   0   4  -5  263.07   15.40
   0  -4   5  261.37   33.60
   0  -4   5  233.18   33.80
  -1   4  -5  208.38   39.40
  -1   4  -5  178.58   22.50
  -1   4  -5  266.57   30.90
  -1   4  -5  227.48   36.80
   1  -4   5  252.57   36.30
  -2   4  -5  162.58   29.80
  -2   4  -5  174.58   37.30
  -2   4  -5  184.38   28.80
  -2   4  -5  156.48   33.60
  -3   4  -5   33.00   24.90
  -3   4  -5   60.29   25.40
  -3   4  -5   31.00   27.60
  -3   4  -5   49.70   41.40
  -3   4  -5   59.19   28.50
   7   3  -5   98.99   21.70
   7   3  -5   83.09   35.00
   7   3  -5  120.59   40.60
   7   3  -5  121.69   30.20
  -7  -3   5  137.49   29.70
  -7  -3   5  151.48   34.40
  -7  -3   5  109.89   50.89
   6   3  -5  360.76   48.60
   6   3  -5  326.57   38.40
   6   3  -5  340.47   49.40
  -6  -3   5  290.97   34.00
  -6  -3   5  368.76   35.70
  -6  -3   5  407.56   44.70
  -6  -3   5  294.67   44.60
   5   3  -5  822.32   60.19
   5   3  -5  873.11   59.49
   5   3  -5  859.01   46.10
  -5  -3   5  805.12   41.00
  -5  -3   5  784.02   64.89
  -5  -3   5  847.62   44.40
   4   3  -5  590.64   55.49
   4   3  -5  573.64   65.39
   4   3  -5  613.14   31.10
  -4  -3   5  609.44   34.90
  -4  -3   5  638.54   48.50
   3   3  -5 2668.33   97.39
   3   3  -5 2890.81  110.49
   3   3  -5 2929.91  103.19
  -3  -3   5 2680.83   97.69
  -3  -3   5 2819.22   78.19
  -3  -3   5 2906.01   87.49
   2   3  -5 1212.48   61.49
   2   3  -5 1273.07   47.40
   2   3  -5 1190.28   61.69
  -2  -3   5 1225.78   51.49
  -2  -3   5 1142.19   59.49
  -2  -3   5 1374.06   66.59
  -2  -3   5 1212.88   46.00
   1   3  -5 4502.75  132.19
   1   3  -5 4770.52  115.19
   1   3  -5 4421.36  158.18
  -1  -3   5 4506.75  133.89
  -1  -3   5 4617.84  119.09
  -1  -3   5 4746.92  115.79
   0   3  -5 1370.56   55.69
   0   3  -5 1350.26   41.60
   0   3  -5 1329.97   67.59
   0   3  -5 1334.67   62.69
   0  -3   5 1438.26   56.79
   0  -3   5 1400.76   66.49
  -1   3  -5 3542.55  113.89
  -1   3  -5 3514.25  104.89
  -1   3  -5 3576.64  103.69
  -1   3  -5 3549.94  120.79
  -1   3  -5 3421.46   95.69
   1  -3   5 3507.55  114.99
  -2   3  -5  569.74   42.80
  -2   3  -5  439.06   68.59
  -2   3  -5  527.45   45.30
  -2   3  -5  567.04   53.09
  -2   3  -5  554.34   47.00
  -2   3  -5  541.55   41.50
   2  -3   5  552.44   61.49
  -3   3  -5 1385.56   73.49
  -3   3  -5 1425.06   67.49
  -3   3  -5 1363.36   74.29
  -3   3  -5 1283.77   67.89
  -3   3  -5 1332.97   70.99
   3  -3   5 1349.16   86.29
  -4   3  -5    5.50   28.90
  -4   3  -5   59.99   27.20
  -4   3  -5   36.80   28.00
  -4   3  -5   32.70   20.10
  -4   3  -5   42.10   29.10
   4  -3   5   45.10   39.50
   7   2  -5   10.40   23.40
   7   2  -5   -5.50   31.30
   7   2  -5   -5.40   26.80
  -7  -2   5   16.90   19.20
  -7  -2   5    2.00   23.40
  -7  -2   5   11.60   24.00
   6   2  -5  907.61   34.80
   6   2  -5  998.90   69.89
   6   2  -5  879.31   69.79
   6   2  -5 1012.20   70.39
  -6  -2   5  993.60   58.99
  -6  -2   5 1010.00   55.79
  -6  -2   5  915.51   54.99
   5   2  -5   -0.60   22.40
   5   2  -5    1.90   15.00
   5   2  -5  -14.80   21.70
  -5  -2   5   14.00   15.90
  -5  -2   5   13.10   15.90
  -5  -2   5   10.80   13.90
   4   2  -5 1254.77   70.79
   4   2  -5 1297.17   53.89
   4   2  -5 1321.07   70.29
  -4  -2   5 1294.17   63.79
  -4  -2   5 1387.46   71.19
  -4  -2   5 1368.06   48.50
   3   2  -5  105.59   15.50
   3   2  -5  105.09   25.00
   3   2  -5   61.79   22.30
  -3  -2   5   94.29   21.50
  -3  -2   5  132.49   15.50
  -3  -2   5   99.79   22.20
   2   2  -5  667.03   51.49
   2   2  -5  672.43   44.40
   2   2  -5  592.94   24.30
  -2  -2   5  714.73   44.70
  -2  -2   5  558.54   42.90
  -2  -2   5  570.44   35.90
  -2  -2   5  652.63   27.60
   1   2  -5  435.86   18.80
   1   2  -5  380.86   27.40
   1   2  -5  395.86   38.10
   1   2  -5  468.85   36.60
   1   2  -5  407.56   41.30
  -1  -2   5  397.26   29.80
  -1  -2   5  385.96   36.50
  -1  -2   5  421.66   23.70
  -1  -2   5  416.46   33.90
   0   2  -5   82.29   19.30
   0   2  -5   31.10   20.40
   0   2  -5   65.59   13.40
   0   2  -5  106.09   22.00
   0   2  -5   85.89   13.90
   0   2  -5   73.69   22.20
   0  -2   5   60.99   21.20
   0  -2   5   73.29   18.50
   0  -2   5   50.49   18.50
  -1   2  -5  858.71   42.20
  -1   2  -5  839.82   41.50
  -1   2  -5  744.53   50.09
  -1   2  -5  848.32   53.59
  -1   2  -5  881.51   45.80
  -1   2  -5  799.22   51.39
  -1   2  -5  824.42   47.30
   1  -2   5  820.92   50.69
  -2   2  -5   -4.60   14.20
  -2   2  -5  -16.30   13.90
  -2   2  -5   13.60   16.20
  -2   2  -5   -2.10   15.10
  -2   2  -5   10.50   19.60
  -2   2  -5   10.00   14.60
  -2   2  -5   14.50   19.50
   2  -2   5    0.30   17.70
  -3   2  -5  815.82   56.09
  -3   2  -5  951.70   52.39
  -3   2  -5  852.61   53.29
  -3   2  -5  949.60   58.69
  -3   2  -5  969.50   55.59
   3  -2   5  853.41   62.49
  -4   2  -5    0.70   14.50
  -4   2  -5   21.10   22.80
  -4   2  -5  -29.10   18.90
  -4   2  -5   48.20   26.30
  -4   2  -5   -9.00   20.10
  -4   2  -5   -3.90   20.10
   4  -2   5    1.80   24.50
  -5   2  -5  461.45   59.29
  -5   2  -5  610.94   65.19
  -5   2  -5  699.53   68.29
  -5   2  -5  573.64   52.99
  -5   2  -5  456.65   34.80
   5  -2   5  579.44   74.49
   7   1  -5  424.86   52.59
   7   1  -5  441.56   53.29
  -7  -1   5  343.17   59.49
  -7  -1   5  469.85   37.40
  -7  -1   5  421.06   52.09
   6   1  -5  462.35   65.59
   6   1  -5  316.57   42.80
  -6  -1   5  331.97   42.50
  -6  -1   5  346.77   34.30
   5   1  -5  868.81   62.49
   5   1  -5  885.41   64.59
   5   1  -5  915.91   55.59
  -5  -1   5  839.82   53.49
  -5  -1   5  868.41   48.70
   4   1  -5  981.60   63.29
   4   1  -5 1177.18   69.89
   4   1  -5 1188.88   55.59
  -4  -1   5 1069.59   51.79
  -4  -1   5 1029.60   42.60
  -4  -1   5  922.71   51.99
  -4  -1   5 1144.09   68.49
   3   1  -5 1137.69   64.79
   3   1  -5 1079.69   47.40
   3   1  -5 1248.98   63.49
  -3  -1   5 1185.38   59.99
  -3  -1   5 1260.07   58.09
  -3  -1   5 1151.08   39.70
   2   1  -5 2172.78   80.19
   2   1  -5 2127.99   77.49
   2   1  -5 2287.97   65.19
   2   1  -5 2078.39   89.49
  -2  -1   5 2211.18   49.70
  -2  -1   5 2234.08   78.09
  -2  -1   5 2355.86   81.49
   1   1  -5  485.15   33.80
   1   1  -5  420.26   23.70
   1   1  -5  475.25   43.00
   1   1  -5  447.06   36.40
  -1  -1   5  369.86   34.70
  -1  -1   5  465.05   32.00
  -1  -1   5  406.16   31.20
   0   1  -5 2706.63   64.79
   0   1  -5 2665.13   81.99
   0   1  -5 2628.64   94.89
   0   1  -5 2580.84   89.19
   0   1  -5 2817.02   91.89
   0  -1   5 2714.93   80.29
   0  -1   5 2754.32   83.19
   0  -1   5 2728.83   79.29
  -1   1  -5   94.79   23.20
  -1   1  -5   50.69   16.10
  -1   1  -5   37.10   17.70
  -1   1  -5   75.89   17.40
  -1   1  -5   30.00   11.20
  -1   1  -5   42.00   14.00
  -1   1  -5   24.50   14.00
   1  -1   5   68.39   20.10
  -2   1  -5 1958.10   67.59
  -2   1  -5 1890.01   72.09
  -2   1  -5 2072.49   75.29
  -2   1  -5 1986.60   81.49
  -2   1  -5 1893.81   67.09
  -2   1  -5 1928.11   75.69
  -2   1  -5 1848.02   75.89
   2  -1   5 1968.40   81.59
  -3   1  -5  548.45   38.80
  -3   1  -5  537.75   43.90
  -3   1  -5  582.84   45.20
  -3   1  -5  428.46   40.40
  -3   1  -5  552.64   45.20
  -3   1  -5  528.15   38.80
  -3   1  -5  544.75   44.40
   3  -1   5  535.55   52.09
  -4   1  -5  927.21   45.20
  -4   1  -5  956.20   62.99
  -4   1  -5 1020.20   53.99
  -4   1  -5  854.41  100.29
  -4   1  -5  795.12   56.39
   4  -1   5  914.31   71.39
  -5   1  -5  501.25   49.50
  -5   1  -5  544.05   60.79
  -5   1  -5  528.65   56.59
  -5   1  -5  546.95   56.39
  -5   1  -5  472.65   22.20
   5  -1   5  396.16   63.79
   6  -1   5  268.27   57.19
   7   0  -5  204.28   40.60
   7   0  -5  273.37   51.69
  -7   0   5  299.37   58.29
  -7   0   5  186.18   44.10
  -7   0   5  315.97   44.40
   6   0  -5   24.60   27.10
   6   0  -5   32.50   27.80
  -6   0   5  104.29   37.80
  -6   0   5   80.19   24.60
  -6   0   5   80.39   29.00
   5   0  -5  377.56   44.40
   5   0  -5  407.26   51.49
  -5   0   5  424.36   54.29
   4   0  -5  639.34   55.19
   4   0  -5  595.74   52.99
   4   0  -5  698.23   47.10
  -4   0   5  584.04   54.29
  -4   0   5  723.33   46.50
   3   0  -5  449.36   35.00
   3   0  -5  370.56   42.30
   3   0  -5  378.66   45.80
  -3   0   5  404.76   34.00
  -3   0   5  334.97   39.00
   2   0  -5 2454.45   79.69
   2   0  -5 2462.95   75.69
   2   0  -5 2478.85   87.79
   2   0  -5 2452.75   98.29
  -2   0   5 2448.66   48.60
  -2   0   5 2408.26   48.60
  -2   0   5 2418.66   82.49
   1   0  -5  456.95   35.20
   1   0  -5  533.65   29.80
   1   0  -5  462.05   40.20
   1   0  -5  535.05   36.00
  -1   0   5  505.55   32.00
  -1   0   5  447.76   32.70
   0   0  -5 3105.69  106.69
   0   0  -5 3209.58   88.19
   0   0  -5 3107.49   60.39
   0   0  -5 3208.38   98.99
   0   0   5 3311.77   86.19
   0   0   5 3070.89   91.39
   0   0   5 3228.18   82.99
  -1   0  -5  838.02   49.20
  -1   0  -5  914.61   52.79
  -1   0  -5  912.51   38.90
  -1   0  -5  899.01   45.10
  -1   0  -5  899.81   31.90
   1   0   5  934.81   44.20
   1   0   5  919.41   44.70
  -2   0  -5 2055.99   73.89
  -2   0  -5 2097.19   75.39
  -2   0  -5 1896.91   74.99
  -2   0  -5 1963.10   61.19
  -2   0  -5 1976.50   78.99
  -2   0  -5 2009.40   72.59
  -2   0  -5 2053.79   65.59
   2   0   5 2151.88   81.29
  -3   0  -5  521.85   38.60
  -3   0  -5  517.15   31.40
  -3   0  -5  511.65   38.70
  -3   0  -5  483.95   44.20
  -3   0  -5  486.35   36.70
  -3   0  -5  566.74   43.60
  -3   0  -5  543.05   39.40
   3   0   5  497.25   44.30
  -4   0  -5  936.31   60.79
  -4   0  -5 1071.99   61.19
  -4   0  -5  991.10   46.40
  -4   0  -5  973.60   44.50
  -4   0  -5  918.91   58.19
  -4   0  -5  891.31   52.09
  -4   0  -5  910.81   57.79
   4   0   5  845.42   67.49
  -5   0  -5   15.70   25.70
  -5   0  -5   62.79   10.50
  -5   0  -5   52.69   28.80
  -5   0  -5   -9.70   26.20
  -5   0  -5   40.50   23.80
   5   0   5   -8.40   31.60
  -6   0  -5  480.45   59.59
  -6   0  -5  473.25   59.69
  -6   0  -5  527.75   49.40
   6   0   5  464.95   69.09
   6  -1  -5  177.98   40.40
   6  -1  -5  234.18   42.90
  -6   1   5  290.27   39.30
  -6   1   5  248.68   62.29
  -6   1   5  265.27   45.70
   5  -1  -5  693.23   60.19
   5  -1  -5  633.24   51.39
  -5   1   5  642.64   45.40
  -5   1   5  543.45   62.49
  -5   1   5  609.44   54.49
   4  -1  -5  366.16   41.30
   4  -1  -5  346.87   46.20
  -4   1   5  324.97   48.30
  -4   1   5  302.87   40.70
  -4   1   5  388.06   31.30
  -4   1   5  394.46   36.70
   3  -1  -5 1438.56   75.69
   3  -1  -5 1229.98   60.49
   3  -1  -5 1360.26   52.79
  -3   1   5 1360.06   71.39
  -3   1   5 1304.47   72.39
  -3   1   5 1407.46   46.20
   2  -1  -5   88.19   24.00
   2  -1  -5   88.49   19.10
   2  -1  -5  100.19   18.70
   2  -1  -5   83.69   27.10
  -2   1   5   90.89    9.50
  -2   1   5  109.49   25.20
  -2   1   5  107.59   23.30
   1  -1  -5 2363.66   96.79
   1  -1  -5 2534.35   83.69
   1  -1  -5 2452.85   79.29
   1  -1  -5 2277.27   75.59
  -1   1   5 2495.15   77.39
  -1   1   5 2594.04   99.89
  -1   1   5 2380.96   78.19
  -1   1   5 2432.36   52.89
   0  -1  -5  181.58   22.70
   0  -1  -5  187.38   26.00
   0  -1  -5  193.78   29.70
   0   1   5  208.78   18.40
   0   1   5  167.58   31.60
   0   1   5  173.68   21.90
   0   1   5  185.88   19.90
  -1  -1  -5 2707.73   96.49
  -1  -1  -5 2715.53   91.89
  -1  -1  -5 2623.04   82.39
  -1  -1  -5 2621.44   71.69
   1   1   5 2709.03   97.49
   1   1   5 2665.63   82.39
   1   1   5 2630.94   67.49
   1   1   5 2705.53   82.09
  -2  -1  -5  715.23   42.80
  -2  -1  -5  789.52   48.30
  -2  -1  -5  854.81   49.60
  -2  -1  -5  757.72   29.60
   2   1   5  742.23   45.90
   2   1   5  809.42   48.50
  -3  -1  -5 1644.74   67.39
  -3  -1  -5 1634.14   62.59
  -3  -1  -5 1530.05   74.89
  -3  -1  -5 1587.44   70.29
  -3  -1  -5 1643.84   65.69
  -3  -1  -5 1612.24   47.00
   3   1   5 1662.03   78.19
  -4  -1  -5  509.15   41.10
  -4  -1  -5  514.35   46.50
  -4  -1  -5  578.34   50.19
  -4  -1  -5  531.35   36.00
  -4  -1  -5  517.25   34.30
  -4  -1  -5  517.95   27.60
   4   1   5  543.55   61.29
  -5  -1  -5  601.84   29.20
  -5  -1  -5  601.04   52.29
  -5  -1  -5  503.95   48.60
  -5  -1  -5  577.94   32.90
  -5  -1  -5  521.35   51.29
   5   1   5  655.43   64.19
  -6  -1  -5  100.19   30.90
  -6  -1  -5  141.29   23.30
  -6  -1  -5  118.99   38.00
  -6  -1  -5  148.19   36.70
   6   1   5  132.59   42.10
  -7  -1  -5   93.79   25.20
  -7  -1  -5   79.79   33.40
  -7  -1  -5  143.99   32.20
  -7  -1  -5  134.09   69.49
   7   1   5  173.68   52.69
   6  -2  -5  337.87   48.40
   6  -2  -5  328.17   49.90
  -6   2   5  292.17   57.09
  -6   2   5  266.97   42.60
   5  -2  -5   54.19   31.20
   5  -2  -5  -10.30   24.50
  -5   2   5   50.59   35.70
  -5   2   5   35.60   25.20
  -5   2   5   12.40   26.40
  -5   2   5   15.80   19.90
   4  -2  -5  678.03   56.49
   4  -2  -5  724.73   61.99
  -4   2   5  764.22   56.99
  -4   2   5  673.93   43.10
  -4   2   5  621.64   55.39
   3  -2  -5  279.57   24.90
   3  -2  -5  325.57   44.80
   3  -2  -5  339.97   39.10
  -3   2   5  270.97   46.10
  -3   2   5  324.47   26.70
  -3   2   5  270.47   40.70
   2  -2  -5 1180.68   60.09
   2  -2  -5 1277.67   50.99
   2  -2  -5 1191.28   73.39
  -2   2   5 1204.48   56.09
  -2   2   5 1292.27   65.99
  -2   2   5 1281.67   73.59
   1  -2  -5  579.54   51.99
   1  -2  -5  596.84   39.30
   1  -2  -5  577.34   35.80
  -1   2   5  590.04   50.29
  -1   2   5  561.94   21.10
  -1   2   5  541.45   38.80
  -1   2   5  510.15   20.70
   0  -2  -5 1498.85   36.10
   0  -2  -5 1415.56   73.39
   0  -2  -5 1451.15   61.99
   0   2   5 1563.74   52.89
   0   2   5 1584.14   58.39
   0   2   5 1470.65   50.19
   0   2   5 1556.34   78.09
  -1  -2  -5  530.45   20.50
  -1  -2  -5  579.84   46.90
   1   2   5  562.74   25.70
   1   2   5  560.54   35.60
   1   2   5  610.34   48.70
   1   2   5  553.24   35.40
  -2  -2  -5  754.12   31.50
  -2  -2  -5  692.23   39.40
  -2  -2  -5  705.53   47.80
   2   2   5  726.43   44.90
   2   2   5  759.82   50.19
   2   2   5  713.13   42.00
  -3  -2  -5  896.51   48.00
  -3  -2  -5 1008.80   53.29
   3   2   5  934.91   53.39
   3   2   5  897.81   56.59
  -4  -2  -5    9.30   14.00
  -4  -2  -5   16.40   12.90
  -4  -2  -5   13.50   16.60
  -4  -2  -5   30.30    3.10
  -4  -2  -5    7.60   15.70
   4   2   5   30.10   16.50
   4   2   5   54.39   29.00
  -5  -2  -5 1030.20   47.00
  -5  -2  -5 1066.59   45.20
  -5  -2  -5 1024.30   67.69
  -5  -2  -5  987.30   31.40
  -5  -2  -5  995.60   33.80
   5   2   5 1082.09   69.89
  -6  -2  -5   52.49   31.20
  -6  -2  -5   50.39   23.10
  -6  -2  -5   73.99   15.80
   6   2   5   75.29   32.90
  -7  -2  -5  695.83   40.70
  -7  -2  -5  697.23   70.69
  -7  -2  -5  727.83   67.59
   7   2   5  630.24   76.39
   5  -3  -5   97.19   37.60
   5  -3  -5  105.79   35.80
  -5   3   5   79.39   31.80
  -5   3   5  140.59   40.60
  -5   3   5  106.19   39.40
  -5   3   5  135.99   30.00
   4  -3  -5  838.72   66.69
   4  -3  -5  889.31   69.29
  -4   3   5  830.22   60.99
  -4   3   5  784.92   63.09
  -4   3   5  741.43   49.99
  -4   3   5  859.61   73.49
   3  -3  -5  100.09   28.20
   3  -3  -5  177.68   45.50
   3  -3  -5  142.89   17.70
  -3   3   5  146.69   23.00
  -3   3   5   72.79   28.90
  -3   3   5   91.49   30.70
   2  -3  -5 1675.13   76.89
   2  -3  -5 1705.33   59.09
   2  -3  -5 1663.53   90.09
  -2   3   5 1612.04   80.89
  -2   3   5 1685.03   56.89
   1  -3  -5   37.10   24.30
   1  -3  -5    9.30   13.50
   1  -3  -5   59.99   20.10
  -1   3   5   51.09   21.00
  -1   3   5   36.70   11.50
  -1   3   5   59.29   26.20
   0  -3  -5 1865.41   52.49
   0  -3  -5 1872.71   87.89
   0  -3  -5 1946.71   74.09
   0   3   5 1846.42   66.19
   0   3   5 1899.71   67.79
   0   3   5 1809.82   53.29
   0   3   5 1814.32   86.79
  -1  -3  -5   21.00    8.80
  -1  -3  -5   24.60   21.70
   1   3   5   33.90   15.10
   1   3   5   10.60   19.90
   1   3   5    3.00    8.60
  -2  -3  -5  758.02   53.59
  -2  -3  -5  831.02   42.30
  -2  -3  -5  777.42   33.30
   2   3   5  750.12   42.70
   2   3   5  702.73   52.59
   2   3   5  788.42   21.50
  -3  -3  -5  152.88   27.90
  -3  -3  -5   95.19   21.70
  -3  -3  -5   91.99   17.70
   3   3   5  123.89   29.10
   3   3   5  114.99   27.40
  -4  -3  -5  115.89   23.40
  -4  -3  -5  137.59   19.70
   4   3   5   77.59   22.50
   4   3   5   84.09   26.20
  -5  -3  -5  217.28   33.40
  -5  -3  -5  151.98   19.40
  -5  -3  -5  160.88   36.00
  -5  -3  -5  217.48   27.40
   5   3   5  251.67   47.00
   5   3   5  146.89   24.70
  -6  -3  -5   29.50   23.40
  -6  -3  -5    6.60   19.60
   6   3   5   17.40   32.60
   6   3   5   13.00   12.90
  -7  -3  -5  164.78   39.00
  -7  -3  -5  194.48   14.10
  -7  -3  -5  172.88   13.50
  -7  -3  -5  157.68   41.90
   7   3   5  175.78   42.40
   4  -4  -5  123.29   37.70
   4  -4  -5   97.99   37.60
  -4   4   5  116.79   28.90
  -4   4   5   74.09   35.10
   3  -4  -5 1005.00   69.99
   3  -4  -5  795.92   71.09
   3  -4  -5  877.51   34.00
  -3   4   5  834.82   49.80
  -3   4   5  977.40   71.09
  -3   4   5 1078.69   75.79
   2  -4  -5  353.66   53.49
   2  -4  -5  380.66   28.00
  -2   4   5  328.37   33.20
  -2   4   5  343.07   48.60
  -2   4   5  293.47   47.10
   1  -4  -5  770.92   39.80
   1  -4  -5  758.82   53.89
   1  -4  -5  754.92   65.19
  -1   4   5  737.23   62.69
  -1   4   5  758.32   53.89
  -1   4   5  767.92   39.10
   0  -4  -5 1227.08   75.49
   0  -4  -5 1229.58   93.19
   0  -4  -5 1265.27   48.50
   0   4   5 1357.86   57.19
   0   4   5 1246.08   91.19
   0   4   5 1302.97   48.30
   0   4   5 1253.87   60.39
  -1  -4  -5  402.46   50.99
  -1  -4  -5  405.86   26.70
   1   4   5  464.85   46.90
   1   4   5  434.06   34.00
   1   4   5  386.76   30.30
   1   4   5  394.36   27.20
  -2  -4  -5 3666.23   94.69
  -2  -4  -5 3762.82  130.09
   2   4   5 3589.14  104.09
   2   4   5 3618.24   83.29
   2   4   5 3581.64  130.39
  -3  -4  -5  181.98   25.80
  -3  -4  -5  197.48   34.40
  -3  -4  -5  199.48   24.20
   3   4   5  219.68   35.60
  -4  -4  -5 5413.16  151.88
  -4  -4  -5 5218.48  137.09
  -4  -4  -5 5099.59  141.59
   4   4   5 5038.70  154.38
  -5  -4  -5   59.89   13.00
  -5  -4  -5   90.39   25.40
  -5  -4  -5   47.20   20.50
  -5  -4  -5   82.39   22.30
   5   4   5   66.79   27.80
   5   4   5   44.50   21.00
  -6  -4  -5 3263.07  129.29
  -6  -4  -5 3106.39  117.79
   6   4   5 3202.88  101.99
   6   4   5 3128.39  130.29
  -7  -4  -5   20.10   26.30
  -7  -4  -5  -15.00   23.20
   7   4   5    0.70   29.80
   7   4   5   18.40   13.40
   3  -5  -5  774.92   70.99
   3  -5  -5  816.62   75.59
  -3   5   5  647.04   50.59
  -3   5   5  657.53   68.09
  -3   5   5  828.62   78.39
   2  -5  -5   19.80   12.90
   2  -5  -5   24.00   30.20
   2  -5  -5   55.39   26.70
  -2   5   5   33.40   31.90
  -2   5   5   51.29   20.70
   1  -5  -5 1587.04   66.99
   1  -5  -5 1541.35   95.39
  -1   5   5 1577.44   83.09
  -1   5   5 1625.64   94.69
  -1   5   5 1581.44   65.39
   0  -5  -5  261.67   49.10
   0  -5  -5  307.67   29.40
   0   5   5  224.98   42.10
   0   5   5  323.37   30.60
   0   5   5  311.07   41.10
   0   5   5  294.47   31.80
  -1  -5  -5 1766.82   63.49
   1   5   5 1854.51   67.79
   1   5   5 1739.53   70.99
   1   5   5 1710.33   63.29
  -2  -5  -5  436.86   54.39
  -2  -5  -5  482.15   32.60
   2   5   5  474.95   35.60
   2   5   5  536.05   32.20
   2   5   5  504.15   49.99
  -3  -5  -5  950.50   66.69
  -3  -5  -5  966.10   48.30
   3   5   5  901.61   26.50
   3   5   5  956.40   28.60
  -4  -5  -5  414.16   47.60
  -4  -5  -5  362.86   34.50
  -4  -5  -5  436.66   37.70
   4   5   5  496.85   50.09
  -5  -5  -5  369.16   39.60
  -5  -5  -5  285.17   36.40
   5   5   5  315.77   42.00
  -6  -5  -5  287.27   41.50
  -6  -5  -5  305.37   14.90
  -6  -5  -5  272.97   44.80
   6   5   5  370.66   57.19
   6   5   5  243.78   38.10
  -7  -5  -5    4.90   31.40
  -7  -5  -5   89.79   30.30
  -7  -5  -5   17.40   31.00
   7   5   5   41.50   21.60
   7   5   5   55.19   39.10
   2  -6  -5  452.95   65.59
   2  -6  -5  401.96   55.39
  -2   6   5  578.24   70.29
  -2   6   5  493.35   65.49
  -2   6   5  496.65   46.20
   1  -6  -5  918.51   75.69
   1  -6  -5  933.61   57.99
   1  -6  -5  882.61   69.69
  -1   6   5  834.22   53.89
  -1   6   5  903.91   79.29
   0  -6  -5  651.23   75.19
   0  -6  -5  582.94   44.40
   0  -6  -5  504.75   54.89
   0   6   5  524.65   66.49
   0   6   5  457.05   40.60
   0   6   5  562.54   41.30
  -1  -6  -5 1645.84  100.69
  -1  -6  -5 1769.02   70.89
   1   6   5 1935.31   73.79
   1   6   5 1840.32   68.79
  -2  -6  -5  407.76   34.60
  -2  -6  -5  322.77   49.50
   2   6   5  421.96   38.30
   2   6   5  423.56   35.60
  -3  -6  -5 1895.91   99.79
  -3  -6  -5 2049.89   77.49
   3   6   5 2033.40  102.69
   3   6   5 2088.79   58.79
  -4  -6  -5   92.89   22.30
  -4  -6  -5   63.19   22.90
  -4  -6  -5   56.69   28.40
   4   6   5   50.99    6.10
   4   6   5   59.99   28.70
   4   6   5   48.70    6.10
  -5  -6  -5 1181.88   64.69
  -5  -6  -5 1214.18   61.59
   5   6   5 1154.08   76.19
  -6  -6  -5   66.09    9.50
  -6  -6  -5   31.70   26.30
   6   6   5  106.79   32.10
  -7  -6  -5  361.26   54.59
  -7  -6  -5  324.67   45.60
  -7  -6  -5  382.06   49.99
   7   6   5  414.26   48.90
   7   6   5  377.76   60.99
   1  -7  -5  -49.60   29.60
  -1   7   5   51.49   26.00
  -1   7   5   53.69   34.80
  -1   7   5    7.90   34.80
  -1   7   5   39.00   21.80
   0  -7  -5  311.47   55.19
   0  -7  -5  483.75   47.50
   0   7   5  391.26   44.00
   0   7   5  475.05   38.80
  -1  -7  -5  305.67   47.30
  -1  -7  -5  297.97   38.50
  -1  -7  -5  350.76   56.49
   1   7   5  304.37   38.90
   1   7   5  215.08   50.59
   1   7   5  288.87   31.70
  -2  -7  -5  230.78   33.30
  -2  -7  -5  236.38   40.00
   2   7   5  183.78   32.10
   2   7   5  217.38   27.40
   2   7   5  209.48   46.60
  -3  -7  -5  729.43   49.00
   3   7   5  698.13   38.60
   3   7   5  793.22   74.89
  -4  -7  -5  160.88   30.50
   4   7   5  113.49   15.40
   4   7   5  128.19   42.20
  -5  -7  -5  782.92   57.79
  -5  -7  -5  784.62   50.39
   5   7   5  878.41   72.79
  -6  -7  -5   59.99   29.40
   6   7   5   71.19   35.60
  -7  -7  -5  682.43   56.49
  -7  -7  -5  712.93   64.29
  -1  -8  -5  -17.50   27.30
  -1  -8  -5   28.00   26.20
   1   8   5    4.50   25.40
   1   8   5   18.00   17.00
   1   8   5   86.09   47.10
  -2  -8  -5  868.31   71.69
  -2  -8  -5  906.91   62.39
   2   8   5 1003.00   81.89
   2   8   5  956.80   63.29
  -3  -8  -5   11.70   24.10
  -3  -8  -5   38.80   32.30
   3   8   5   43.10   26.10
   3   8   5   11.50   32.00
   3   8   5   34.70   18.30
  -4  -8  -5  767.22   58.49
   4   8   5  733.63   39.70
  -5  -8  -5  214.18   38.50
   5   8   5  188.48   58.49
   5   8   5  193.68   19.60
  -6  -8  -5  478.65   56.19
   6   8   5  323.77   60.19
   5   6  -6  160.78   45.60
   5   6  -6  232.68   42.50
  -5  -6   6  241.38   47.20
  -5  -6   6  175.48   38.30
  -5  -6   6  232.68   30.70
   4   6  -6  285.97   61.69
  -4  -6   6  257.77   30.40
   3   6  -6  136.49   36.90
   3   6  -6   33.80   25.60
   3   6  -6   39.30   34.20
  -3  -6   6  161.08   41.30
   2   6  -6  741.33   54.79
   2   6  -6  713.53   74.59
   2   6  -6  682.13  100.09
  -2  -6   6  702.13   54.99
  -2  -6   6  766.02   64.59
   1   6  -6   76.89   28.30
   1   6  -6   33.50   34.10
  -1  -6   6   36.90   32.20
  -1  -6   6   14.90   27.70
   6   5  -6  -25.50   26.40
   6   5  -6  -35.70   27.30
  -6  -5   6  -10.20   31.20
  -6  -5   6   15.70   19.60
  -6  -5   6   12.00   29.80
   5   5  -6  719.33   63.99
   5   5  -6  644.84   61.59
   5   5  -6  707.63   72.59
  -5  -5   6  670.43   63.99
  -5  -5   6  745.73   59.69
  -5  -5   6  667.13   77.19
  -5  -5   6  701.13   54.89
   4   5  -6  -34.20   23.80
   4   5  -6  -45.00   22.50
  -4  -5   6   -2.50   17.70
  -4  -5   6   18.90   16.10
  -4  -5   6  -19.90   15.70
  -4  -5   6    9.20   21.20
   3   5  -6  856.21   64.49
   3   5  -6  864.41   50.99
   3   5  -6  970.00   70.89
  -3  -5   6  839.82   49.80
  -3  -5   6  793.32   46.80
  -3  -5   6  820.02   66.09
   2   5  -6   11.20   24.30
   2   5  -6   31.40   19.40
   2   5  -6  -24.40   23.80
  -2  -5   6   -8.80   17.40
  -2  -5   6   -5.00   19.50
   1   5  -6  636.84   59.69
   1   5  -6  571.44   65.19
   1   5  -6  716.43   48.70
  -1  -5   6  623.54   49.00
  -1  -5   6  726.03   60.99
   0   5  -6    7.00   29.00
   0   5  -6   41.30   30.20
   0   5  -6   57.29   22.90
   0  -5   6   23.70   26.50
  -1   5  -6  259.27   24.40
  -1   5  -6  457.45   55.89
  -1   5  -6  398.16   47.40
   7   4  -6  316.07   54.49
   7   4  -6  299.57   50.29
  -7  -4   6  266.17   33.20
  -7  -4   6  264.17   46.40
   6   4  -6  409.76   54.99
   6   4  -6  438.96   58.09
   6   4  -6  456.05   58.29
  -6  -4   6  385.96   50.29
  -6  -4   6  341.47   55.49
  -6  -4   6  455.55   44.90
   5   4  -6  983.20   67.69
   5   4  -6 1118.19   79.89
  -5  -4   6  970.00   49.99
  -5  -4   6 1011.70   68.69
  -5  -4   6  918.61   67.29
   4   4  -6  748.73   67.99
   4   4  -6  781.12   57.09
  -4  -4   6  718.13   59.39
  -4  -4   6  711.13   40.40
  -4  -4   6  669.33   56.49
  -4  -4   6  678.53   45.80
   3   4  -6 1884.01   97.59
   3   4  -6 1984.90   90.49
  -3  -4   6 1871.71   65.89
  -3  -4   6 1773.62   85.39
  -3  -4   6 1877.91   72.59
   2   4  -6  408.56   47.60
   2   4  -6  470.35   34.60
   2   4  -6  440.96   55.69
  -2  -4   6  433.56   33.90
  -2  -4   6  476.95   36.60
  -2  -4   6  549.54   52.49
   1   4  -6 1747.03   67.39
   1   4  -6 1632.04   81.69
  -1  -4   6 1711.33   84.49
  -1  -4   6 1695.93   66.99
   0   4  -6    3.10   24.40
   0   4  -6   58.99   28.30
   0   4  -6   57.89   30.60
   0   4  -6   11.00   17.60
   0  -4   6   76.19   28.80
  -1   4  -6  715.33   52.79
  -1   4  -6  759.12   38.50
  -1   4  -6  702.43   65.89
  -1   4  -6  692.53   57.99
  -1   4  -6  718.13   63.49
  -2   4  -6   -9.50   18.00
  -2   4  -6   12.20   26.70
  -2   4  -6   27.50   22.00
  -2   4  -6   55.69   25.00
  -2   4  -6   48.60   26.70
   7   3  -6  147.09   33.40
   7   3  -6  100.89   16.20
   7   3  -6  131.29   42.40
   7   3  -6  109.99   43.60
  -7  -3   6   71.39   27.50
  -7  -3   6   83.89   33.00
  -7  -3   6  126.49   47.10
  -7  -3   6  121.39   33.30
   6   3  -6   40.70   31.60
   6   3  -6   86.19   24.10
   6   3  -6  132.79   41.00
  -6  -3   6   61.39   21.00
  -6  -3   6  130.89   40.90
  -6  -3   6   58.89   25.00
   5   3  -6  105.99   20.00
   5   3  -6  184.18   40.60
   5   3  -6  126.69   35.50
  -5  -3   6   95.49   27.50
  -5  -3   6  129.59   21.00
  -5  -3   6   54.49   28.00
   4   3  -6   23.20   24.40
   4   3  -6  -18.20   22.80
  -4  -3   6  -28.00   18.90
  -4  -3   6   28.50   13.30
   3   3  -6  -11.20   15.30
   3   3  -6   11.30   23.10
   3   3  -6  -48.10   17.90
  -3  -3   6   -2.10   20.10
  -3  -3   6   16.50   19.10
  -3  -3   6    3.20   10.60
  -3  -3   6  -22.20   14.50
   2   3  -6   13.80   21.40
   2   3  -6   30.50   12.80
   2   3  -6   27.40   25.70
  -2  -3   6   42.30   21.80
  -2  -3   6   29.20   12.60
  -2  -3   6   32.50   17.30
  -2  -3   6   13.30   17.60
   1   3  -6  231.38   24.10
   1   3  -6  215.08   40.00
   1   3  -6  241.68   35.90
  -1  -3   6  188.88   32.90
  -1  -3   6  226.08   24.80
  -1  -3   6  271.87   31.50
   0   3  -6    0.20   21.30
   0   3  -6   48.40   16.90
   0   3  -6   28.20    9.10
   0  -3   6   30.50   22.40
  -1   3  -6  684.73   57.59
  -1   3  -6  672.93   50.99
  -1   3  -6  696.33   44.80
  -1   3  -6  711.43   39.10
  -1   3  -6  758.02   59.19
  -1   3  -6  700.83   52.59
  -2   3  -6  105.79   28.50
  -2   3  -6  120.29   29.30
  -2   3  -6  130.89   28.60
  -2   3  -6   99.79   29.80
  -2   3  -6  101.29   35.80
  -2   3  -6  165.18   27.60
   2  -3   6  149.88   43.10
  -3   3  -6  649.93   56.89
  -3   3  -6  687.53   54.29
  -3   3  -6  718.13   54.49
  -3   3  -6  633.14   55.29
  -3   3  -6  687.03   59.49
   3  -3   6  667.23   77.29
   7   2  -6  374.86   54.39
   7   2  -6  326.57   56.29
   7   2  -6  282.67   42.60
  -7  -2   6  359.16   41.80
  -7  -2   6  273.37   39.80
  -7  -2   6  345.17   58.49
  -7  -2   6  348.17   41.70
   6   2  -6  398.56   44.80
   6   2  -6  428.56   59.29
   6   2  -6  431.46   55.39
  -6  -2   6  434.66   46.30
  -6  -2   6  433.56   38.90
  -6  -2   6  421.36   58.69
  -6  -2   6  413.46   42.30
   5   2  -6  467.75   57.69
   5   2  -6  490.75   56.89
   5   2  -6  436.86   39.30
  -5  -2   6  532.25   34.10
  -5  -2   6  372.86   44.40
  -5  -2   6  493.45   56.29
   4   2  -6 1189.28   73.59
   4   2  -6 1353.36   56.09
   4   2  -6 1411.16   80.69
  -4  -2   6 1386.26   83.59
  -4  -2   6 1195.38   71.19
  -4  -2   6 1193.18   43.80
   3   2  -6  309.57   24.00
   3   2  -6  167.68   38.30
   3   2  -6  184.68   34.80
  -3  -2   6  235.18   30.10
  -3  -2   6  267.37   35.70
  -3  -2   6  201.08   33.80
  -3  -2   6  277.87   21.10
   2   2  -6 2004.70   82.19
   2   2  -6 1874.51   91.59
  -2  -2   6 1903.81   62.69
  -2  -2   6 1925.21   73.19
  -2  -2   6 1890.01   82.29
  -2  -2   6 2078.69   79.99
   1   2  -6   38.00   17.20
   1   2  -6    1.20   22.30
   1   2  -6   51.89   21.40
   1   2  -6   26.00   14.60
   1   2  -6   14.00    9.10
  -1  -2   6   11.20   16.30
  -1  -2   6   58.29   19.00
  -1  -2   6   38.20   21.90
   0   2  -6 1441.86   73.89
   0   2  -6 1545.75   51.89
   0   2  -6 1615.24   80.39
   0   2  -6 1548.55   67.89
   0   2  -6 1464.75   52.79
   0   2  -6 1662.73   77.89
   0  -2   6 1502.95   84.79
   0  -2   6 1434.46   63.99
  -1   2  -6   48.10   23.40
  -1   2  -6   30.50   18.70
  -1   2  -6   13.10   22.30
  -1   2  -6   24.10   15.20
  -1   2  -6   26.90   14.80
  -1   2  -6   31.00   21.10
  -1   2  -6   36.10   17.60
   1  -2   6   36.80   23.70
  -2   2  -6  706.93   47.50
  -2   2  -6  767.72   58.19
  -2   2  -6  798.62   48.20
  -2   2  -6  816.62   55.59
  -2   2  -6  817.42   50.99
  -2   2  -6  811.42   52.19
  -2   2  -6  665.93   55.19
   2  -2   6  731.53   58.99
  -3   2  -6  100.79   27.60
  -3   2  -6   52.09   21.90
  -3   2  -6   55.89   29.90
  -3   2  -6   43.00   24.10
  -3   2  -6   87.19   28.30
  -3   2  -6  115.59   32.00
  -3   2  -6  102.39   28.90
   3  -2   6   87.39   32.90
  -4   2  -6  286.17   45.70
  -4   2  -6  262.57   33.10
  -4   2  -6  255.97   43.90
  -4   2  -6  300.97   40.20
  -4   2  -6  246.78   43.00
  -4   2  -6  304.17   44.50
   4  -2   6  314.47   58.99
   6   1  -6   55.59   26.90
   6   1  -6   37.10   30.20
   6   1  -6    0.90   22.90
  -6  -1   6   14.30   25.90
  -6  -1   6   50.89   26.20
  -6  -1   6   39.10   20.50
   5   1  -6  368.96   51.79
   5   1  -6  344.67   41.30
   5   1  -6  411.56   54.79
  -5  -1   6  342.07   30.70
  -5  -1   6  393.96   39.60
  -5  -1   6  333.47   47.10
   4   1  -6  166.68   36.50
   4   1  -6  157.08   25.70
   4   1  -6  166.98   38.30
  -4  -1   6  159.58   31.30
  -4  -1   6  138.79   16.10
  -4  -1   6  135.39   28.10
   3   1  -6 1222.38   78.49
   3   1  -6 1252.07   68.99
   3   1  -6 1055.39   48.90
  -3  -1   6  979.30   92.29
  -3  -1   6 1120.09   61.19
  -3  -1   6 1153.48   31.60
   2   1  -6  355.56   27.00
   2   1  -6  328.67   38.00
   2   1  -6  286.97   44.10
   2   1  -6  373.26   39.50
  -2  -1   6  317.47   34.70
  -2  -1   6  276.17   36.40
  -2  -1   6  300.77   34.50
   1   1  -6 2068.39   63.89
   1   1  -6 2174.08   85.39
   1   1  -6 2008.30   93.29
   1   1  -6 2212.88   80.29
  -1  -1   6 2124.49   84.69
  -1  -1   6 2242.88   77.69
  -1  -1   6 2325.77   78.59
   0   1  -6  413.06   40.10
   0   1  -6  412.86   19.90
   0   1  -6  376.66   45.50
   0   1  -6  395.56   34.40
   0   1  -6  361.76   49.90
   0  -1   6  481.85   36.80
   0  -1   6  398.26   31.50
   0  -1   6  390.16   32.50
  -1   1  -6 1585.64   51.79
  -1   1  -6 1595.74   63.29
  -1   1  -6 1438.06   59.29
  -1   1  -6 1544.05   65.59
  -1   1  -6 1512.95   72.99
  -1   1  -6 1600.84   76.99
   1  -1   6 1613.14   68.79
  -2   1  -6  457.65   42.90
  -2   1  -6  434.56   49.20
  -2   1  -6  501.65   44.50
  -2   1  -6  401.76   38.00
  -2   1  -6  480.65   34.40
  -2   1  -6  464.25   40.80
  -2   1  -6  500.55   37.20
   2  -1   6  463.15   50.99
  -3   1  -6  423.06   43.90
  -3   1  -6  372.46   45.30
  -3   1  -6  334.27   38.70
  -3   1  -6  374.26   43.40
  -3   1  -6  400.76   38.70
  -3   1  -6  353.56   34.90
  -3   1  -6  357.26   42.60
   3  -1   6  386.76   53.19
  -4   1  -6  456.25   52.39
  -4   1  -6  501.25   52.29
  -4   1  -6  472.65   50.69
  -4   1  -6  439.46   48.60
  -4   1  -6  325.67   46.00
  -4   1  -6  480.85   41.20
  -4   1  -6  405.86   37.90
   4  -1   6  445.66   60.19
  -5   1  -6   14.80   13.30
  -5   1  -6   -0.50   27.40
  -5   1  -6   -6.20   24.50
  -5   1  -6   57.19   31.30
  -5   1  -6   10.90   26.50
  -5   1  -6   32.20   28.10
   5  -1   6   21.90   42.80
   6   0  -6  577.24   61.69
   6   0  -6  605.44   63.29
  -6   0   6  441.56   65.49
  -6   0   6  483.35   54.59
  -6   0   6  509.05   43.50
   5   0  -6  560.84   50.09
   5   0  -6  464.05   59.59
  -5   0   6  560.34   50.39
  -5   0   6  596.24   66.59
  -5   0   6  606.94   38.50
   4   0  -6  567.54   60.79
   4   0  -6  502.85   59.79
   4   0  -6  520.45   43.00
  -4   0   6  477.65   28.70
  -4   0   6  606.84   54.59
   3   0  -6 1083.79   65.69
   3   0  -6 1082.19   74.29
   3   0  -6 1133.39   55.59
  -3   0   6 1102.79   30.40
  -3   0   6 1147.99   30.90
   2   0  -6  136.79   24.80
   2   0  -6  144.29   33.60
   2   0  -6  148.29   29.60
   2   0  -6  162.68   23.00
  -2   0   6  124.09   23.10
  -2   0   6  125.69   23.00
   1   0  -6 1568.74   81.09
   1   0  -6 1458.05   56.19
   1   0  -6 1342.27   62.99
   1   0  -6 1444.16   63.69
  -1   0   6 1474.85   60.19
  -1   0   6 1587.04   64.69
   0   0  -6   -4.20   12.20
   0   0  -6   18.10   19.30
   0   0  -6  -17.00   17.50
   0   0   6   -1.00   11.20
   0   0   6   -2.40   10.90
   0   0   6   -5.50   11.20
  -1   0  -6 1537.85   64.49
  -1   0  -6 1549.74   70.09
  -1   0  -6 1526.95   43.80
  -1   0  -6 1528.95   76.19
  -1   0  -6 1566.74   57.49
  -1   0  -6 1585.64   71.99
   1   0   6 1445.76   61.59
   1   0   6 1554.44   65.49
  -2   0  -6   20.20   17.30
  -2   0  -6   19.40   12.80
  -2   0  -6   25.70   19.80
  -2   0  -6   36.90   22.30
  -2   0  -6   11.40   11.60
  -2   0  -6    5.80   17.80
  -2   0  -6   -8.90   14.70
   2   0   6    8.90   21.60
  -3   0  -6 1141.19   48.40
  -3   0  -6 1271.77   63.09
  -3   0  -6 1119.59   63.09
  -3   0  -6 1240.98   70.89
  -3   0  -6 1085.79   55.69
  -3   0  -6 1038.20   61.39
  -3   0  -6 1173.88   61.49
   3   0   6 1206.38   72.79
  -4   0  -6   11.70   21.40
  -4   0  -6    8.10   18.20
  -4   0  -6   18.40   15.50
  -4   0  -6   -6.20   12.80
  -4   0  -6   -1.30   22.00
  -4   0  -6   26.60   23.10
  -4   0  -6   23.80   18.10
   4   0   6   39.20   28.30
  -5   0  -6  445.36   37.40
  -5   0  -6  517.35   59.49
  -5   0  -6  468.55   54.79
  -5   0  -6  382.56   48.70
  -5   0  -6  475.05   53.99
  -5   0  -6  486.55   32.10
   5   0   6  460.75   68.59
   6  -1  -6  397.56   55.39
   6  -1  -6  455.75   67.29
  -6   1   6  456.05   60.09
  -6   1   6  396.46   60.89
   5  -1  -6   25.10   22.30
   5  -1  -6   16.20   28.40
  -5   1   6    5.10   24.00
  -5   1   6   12.80   23.30
  -5   1   6   12.00   15.20
   4  -1  -6 1452.15   88.19
   4  -1  -6 1413.26   73.69
  -4   1   6 1399.96   51.19
  -4   1   6 1279.57   80.39
   3  -1  -6   82.39   19.80
   3  -1  -6   42.40   19.70
  -3   1   6   62.89   10.50
  -3   1   6   30.10   22.40
  -3   1   6   87.29   25.50
   2  -1  -6 2035.40   86.29
   2  -1  -6 2117.69  100.89
   2  -1  -6 2055.39   75.59
   2  -1  -6 1937.11   75.59
  -2   1   6 1808.92  143.49
  -2   1   6 2104.69   80.89
   1  -1  -6  342.87   36.60
   1  -1  -6  210.18   39.00
   1  -1  -6  336.47   31.30
   1  -1  -6  352.46   34.10
  -1   1   6  304.87   29.10
  -1   1   6  327.77   45.90
  -1   1   6  301.27   15.00
  -1   1   6  269.67   31.40
   0  -1  -6 1246.58   54.09
   0  -1  -6 1230.38   61.79
   0  -1  -6 1388.56   75.39
   0   1   6 1311.67   46.40
   0   1   6 1230.58   72.49
   0   1   6 1295.47   50.19
   0   1   6 1233.78   57.69
  -1  -1  -6 1090.79   45.40
  -1  -1  -6 1021.30   28.60
  -1  -1  -6 1073.19   64.79
  -1  -1  -6 1049.40   28.30
  -1  -1  -6 1182.78   61.89
   1   1   6 1009.40   53.39
   1   1   6 1071.99   64.39
   1   1   6 1035.90   40.10
   1   1   6 1068.39   51.19
  -2  -1  -6  112.79   29.70
  -2  -1  -6  136.29   28.10
  -2  -1  -6  135.59   35.60
  -2  -1  -6  142.49   19.50
   2   1   6  172.88   30.50
   2   1   6   75.59   24.30
  -3  -1  -6 1655.43   73.99
  -3  -1  -6 1561.54   71.19
  -3  -1  -6 1594.44   74.69
  -3  -1  -6 1709.63   69.89
  -3  -1  -6 1536.45   78.09
   3   1   6 1650.23   79.59
  -4  -1  -6   37.00   19.40
  -4  -1  -6   32.10   17.60
  -4  -1  -6   37.00   11.70
  -4  -1  -6   64.49   25.30
  -4  -1  -6   52.59   24.30
   4   1   6   35.20   32.50
  -5  -1  -6 1219.78   73.59
  -5  -1  -6 1244.88   62.09
  -5  -1  -6 1190.98   46.70
  -5  -1  -6 1381.56   80.69
  -5  -1  -6 1247.98   76.99
   5   1   6 1238.48   87.19
  -6  -1  -6   72.09   20.00
  -6  -1  -6  115.99   35.00
  -6  -1  -6   73.99   18.30
  -6  -1  -6   47.70   29.90
  -6  -1  -6  128.59   39.10
   6   1   6   35.70   41.20
   5  -2  -6  153.38   38.70
   5  -2  -6   99.59   38.20
  -5   2   6  138.79   27.40
  -5   2   6  148.89   37.60
  -5   2   6   99.59   48.60
   4  -2  -6  677.23   59.69
   4  -2  -6  756.22   68.39
  -4   2   6  639.44   61.09
  -4   2   6  764.82   62.09
  -4   2   6  857.11   43.10
   3  -2  -6   44.00   16.60
   3  -2  -6   60.39   25.40
   3  -2  -6   -5.30   18.30
  -3   2   6   14.50   26.30
  -3   2   6   49.80   13.30
  -3   2   6   17.00   23.20
   2  -2  -6 1360.76   69.19
   2  -2  -6 1373.16   59.19
   2  -2  -6 1258.57   84.19
  -2   2   6 1338.17   38.10
  -2   2   6 1344.27   67.89
  -2   2   6 1355.26   78.69
   1  -2  -6   -2.00   21.00
   1  -2  -6   -6.80   10.90
   1  -2  -6  -17.90   12.80
  -1   2   6   -3.70   18.80
  -1   2   6   -2.90   14.50
  -1   2   6    1.20    4.90
  -1   2   6   -5.90   13.50
   0  -2  -6 1825.82   74.09
   0  -2  -6 1628.04   86.19
   0   2   6 1731.13   89.29
   0   2   6 1630.24   66.39
   0   2   6 1717.33   56.39
   0   2   6 1752.22   59.99
  -1  -2  -6   25.60   15.60
  -1  -2  -6   10.10   17.80
  -1  -2  -6   16.70    5.40
   1   2   6   12.90    9.10
   1   2   6   22.80   21.20
   1   2   6   10.40   15.30
   1   2   6   24.20   17.20
  -2  -2  -6 1624.14   49.70
  -2  -2  -6 1763.62   81.29
  -2  -2  -6 1731.73   70.89
   2   2   6 1695.13   74.09
   2   2   6 1635.84   69.59
   2   2   6 1663.93   80.49
  -3  -2  -6   45.00   15.80
  -3  -2  -6   37.40   20.70
   3   2   6   79.69   25.10
   3   2   6   92.59   29.20
  -4  -2  -6 1124.39   59.29
  -4  -2  -6 1100.79   54.59
  -4  -2  -6 1105.69   69.39
   4   2   6 1054.19   57.69
  -5  -2  -6  140.59   23.10
  -5  -2  -6  250.27   42.40
  -5  -2  -6  198.18   27.90
   5   2   6  218.48   48.70
  -6  -2  -6  396.76   19.30
  -6  -2  -6  413.66   22.90
  -6  -2  -6  521.45   57.79
  -6  -2  -6  498.75   63.69
   6   2   6  307.07   59.19
  -5   3   6  278.47   38.30
   4  -3  -6  240.28   48.00
   4  -3  -6  272.77   46.30
  -4   3   6  242.88   30.80
  -4   3   6  191.18   48.60
  -4   3   6  193.58   45.10
   3  -3  -6  438.36   58.89
   3  -3  -6  516.55   34.30
   3  -3  -6  548.85   53.69
  -3   3   6  489.75   33.20
  -3   3   6  423.76   57.19
   2  -3  -6 1625.64   80.69
   2  -3  -6 1821.32  100.29
   2  -3  -6 1790.02   66.99
  -2   3   6 1656.43   53.99
  -2   3   6 1683.13   95.29
  -2   3   6 1644.64   97.19
   1  -3  -6  532.25   45.90
   1  -3  -6  460.45   37.90
  -1   3   6  423.56   30.70
  -1   3   6  506.85   42.30
  -1   3   6  500.15   40.30
  -1   3   6  429.26   56.19
   0  -3  -6 4991.00  142.59
   0  -3  -6 5219.08  144.19
   0  -3  -6 4996.00  167.88
   0  -3  -6 5099.19  107.79
   0   3   6 5191.88  130.09
   0   3   6 4801.42  187.48
   0   3   6 4902.71  135.99
  -1  -3  -6  297.97   42.50
  -1  -3  -6  305.07   25.00
   1   3   6  307.67   47.50
   1   3   6  340.67   23.60
   1   3   6  330.57   34.70
   1   3   6  306.27   34.70
  -2  -3  -6 6587.34  140.99
  -2  -3  -6 6595.24  187.08
   2   3   6 6639.14  166.68
   2   3   6 6152.58  169.48
   2   3   6 6263.17  188.38
   2   3   6 6627.04  127.79
  -3  -3  -6  151.28   26.30
  -3  -3  -6  159.88   30.80
  -3  -3  -6  112.39   19.10
   3   3   6  148.29   32.60
   3   3   6  106.39   30.50
  -4  -3  -6 3606.44  105.89
  -4  -3  -6 3798.72  121.79
  -4  -3  -6 3551.54  118.29
  -4  -3  -6 3634.64  106.79
   4   3   6 3809.22  134.59
   4   3   6 3587.74  120.79
  -5  -3  -6   27.10   17.80
  -5  -3  -6   30.70   28.10
  -5  -3  -6    7.20   13.80
  -5  -3  -6   76.89   26.00
   5   3   6   43.30   20.00
   5   3   6    4.80   22.00
  -6  -3  -6 1143.09   74.29
  -6  -3  -6 1254.27   84.09
   6   3   6 1239.08   87.09
  -7  -3  -6   44.70   47.10
  -7  -3  -6   -2.60   23.90
   7   3   6  -11.10   37.30
   4  -4  -6   10.30   33.40
   4  -4  -6   -1.00   34.00
  -4   4   6    4.00   32.60
  -4   4   6   36.40   22.70
  -4   4   6  108.29   43.00
   3  -4  -6  709.83   65.49
   3  -4  -6  853.71   77.29
  -3   4   6  885.21   74.49
  -3   4   6  739.03   47.20
  -3   4   6  738.03   71.39
   2  -4  -6   25.70   31.50
   2  -4  -6   37.30   22.40
   2  -4  -6   21.90   14.90
  -2   4   6  -24.50   23.90
  -2   4   6   33.00   30.60
  -2   4   6   27.40   15.10
   1  -4  -6  994.80   53.49
   1  -4  -6 1034.80   63.49
   1  -4  -6 1127.49   83.19
  -1   4   6  980.20   75.79
  -1   4   6  998.10   43.10
  -1   4   6  948.01   65.19
  -1   4   6 1000.80   62.99
   0  -4  -6   -6.20   25.90
   0  -4  -6   42.20   19.10
   0  -4  -6   54.39   13.80
   0   4   6   58.29   14.00
   0   4   6   27.10   17.20
   0   4   6   65.79   22.00
  -1  -4  -6  616.84   30.60
   1   4   6  657.83   58.39
   1   4   6  611.54   34.90
   1   4   6  567.54   42.30
  -2  -4  -6   -4.50   22.70
  -2  -4  -6   -3.20   10.20
   2   4   6   22.10   22.30
   2   4   6   12.40   12.60
   2   4   6    4.60    7.00
  -3  -4  -6  240.98   37.40
  -3  -4  -6  272.27   26.40
  -3  -4  -6  212.58   30.40
   3   4   6  201.88   37.70
   3   4   6  224.68   40.60
  -4  -4  -6  139.19   30.60
  -4  -4  -6  238.88   34.30
  -4  -4  -6  181.18   26.30
   4   4   6  214.28   38.70
   4   4   6  152.98   36.80
  -5  -4  -6   56.09   16.60
  -5  -4  -6   21.40   24.60
  -5  -4  -6   97.99   43.90
  -5  -4  -6  112.39   26.50
   5   4   6   79.39   35.40
   5   4   6   61.09   24.60
  -6  -4  -6  530.75   32.10
  -6  -4  -6  507.65   54.09
  -6  -4  -6  568.44   50.89
  -6  -4  -6  734.83   67.59
   6   4   6  479.85   62.69
   6   4   6  611.64   46.40
  -7  -4  -6  -22.20   26.60
   7   4   6   -8.50   34.40
   3  -5  -6  315.07   60.29
   3  -5  -6  323.67   54.89
   3  -5  -6  256.87   23.10
  -3   5   6  290.07   57.49
  -3   5   6  247.38   36.80
   2  -5  -6  506.75   73.99
   2  -5  -6  651.13   77.29
   2  -5  -6  610.84   39.30
  -2   5   6  503.55   41.50
  -2   5   6  666.93   66.49
  -2   5   6  694.63   78.09
   1  -5  -6  860.01   74.29
   1  -5  -6  861.81   60.99
  -1   5   6  835.52   45.60
  -1   5   6  934.21   80.89
  -1   5   6  928.71   66.59
  -1   5   6  813.92   52.89
   0  -5  -6  330.77   53.99
   0  -5  -6  335.87   31.20
   0   5   6  335.57   40.70
   0   5   6  326.17   30.50
   0   5   6  317.97   43.40
  -1  -5  -6 1345.17   90.19
  -1  -5  -6 1484.75   56.19
   1   5   6 1497.95   65.99
   1   5   6 1413.26   61.89
   1   5   6 1519.75   57.59
  -2  -5  -6    7.60   28.80
  -2  -5  -6    4.70   12.60
   2   5   6   16.90   10.80
   2   5   6   30.10   18.00
   2   5   6    3.50   19.20
  -3  -5  -6 1132.59   75.29
  -3  -5  -6 1191.38   52.69
   3   5   6 1071.69   74.89
  -4  -5  -6  132.99   29.40
  -4  -5  -6  132.49   25.50
   4   5   6   65.49   28.70
  -5  -5  -6  667.03   54.99
  -5  -5  -6  570.04   46.60
   5   5   6  590.34   53.49
   5   5   6  639.04   56.49
  -6  -5  -6  119.79   32.00
  -6  -5  -6  179.38   19.00
  -6  -5  -6  223.68   37.40
   6   5   6  156.28   35.30
   6   5   6  192.38   47.30
  -7  -5  -6  287.57   53.09
  -7  -5  -6  253.97   44.10
  -7  -5  -6  189.88   41.80
   7   5   6  235.88   53.19
   7   5   6  261.77   35.10
   2  -6  -6  170.58   23.70
   2  -6  -6  254.27   54.89
  -2   6   6  190.88   32.60
  -2   6   6  199.08   54.19
   1  -6  -6   13.60   21.70
   1  -6  -6   34.30   29.60
  -1   6   6   28.20   23.60
  -1   6   6   81.09   33.10
  -1   6   6   31.80   20.90
   0  -6  -6  312.97   46.50
   0  -6  -6  299.07   60.09
   0   6   6  328.67   57.19
   0   6   6  350.06   38.90
   0   6   6  268.27   32.90
   0   6   6  330.27   44.60
  -1  -6  -6  257.47   31.50
  -1  -6  -6  232.78   50.59
   1   6   6  282.77   40.40
   1   6   6  239.68   35.70
   1   6   6  269.37   32.10
  -2  -6  -6  530.85   65.09
  -2  -6  -6  490.95   39.50
   2   6   6  611.74   45.10
   2   6   6  540.65   37.40
   2   6   6  599.34   59.89
  -3  -6  -6  723.93   62.89
  -3  -6  -6  715.33   44.20
   3   6   6  557.14   72.89
   3   6   6  624.14   25.60
  -4  -6  -6  624.64   44.70
  -4  -6  -6  682.23   63.19
  -5  -6  -6  712.33   53.49
  -6  -6  -6  360.66   45.50
  -6  -6  -6  364.46   48.10
  -6  -6  -6  274.77   22.90
   6   6   6  320.87   53.89
   6   6   6  251.37   46.40
  -7  -6  -6  460.05   67.79
   7   6   6  378.66   63.79
   0  -7  -6  576.64   51.29
   0  -7  -6  706.83   64.19
   0   7   6  666.33   66.79
   0   7   6  833.52   57.59
   0   7   6  734.03   52.69
   0   7   6  639.54   79.59
  -1  -7  -6  106.99   26.80
  -1  -7  -6   69.59   32.20
  -1  -7  -6   68.19   37.10
   1   7   6   81.29   24.40
   1   7   6   51.89   23.50
   1   7   6   74.49   42.30
   1   7   6   46.40   27.30
  -2  -7  -6  792.42   65.99
  -2  -7  -6  893.91   55.09
  -2  -7  -6  819.12   82.49
   2   7   6  762.02  101.99
   2   7   6  744.63   51.59
   2   7   6  931.01   54.89
   2   7   6  816.62   92.79
  -3  -7  -6   13.60   19.30
  -3  -7  -6    3.90   25.30
   3   7   6    2.90   11.40
   3   7   6    0.10   14.00
   3   7   6  -12.40   32.10
  -4  -7  -6  696.33   52.59
   4   7   6  653.53   77.99
  -5  -7  -6    6.10   22.30
   5   7   6   21.90   34.40
  -6  -7  -6  647.44   56.49
  -6  -7  -6  620.14   58.29
   6   7   6  604.54   70.19
  -3  -8  -6  650.43   64.89
  -3  -8  -6  697.13   53.49
   3   8   6  581.34   47.40
   3   8   6  874.41   96.59
   3   8   6  633.34   40.50
  -4  -8  -6  383.16   46.60
   4   8   6  393.26   68.39
   4   8   6  326.77   24.80
   4   8   6  279.17   27.50
   4   5  -7   26.40   47.20
   4   5  -7  104.89   50.89
   4   5  -7    2.10   36.00
  -4  -5   7   32.50   22.90
  -4  -5   7   57.59   21.80
  -4  -5   7   19.50   30.20
  -4  -5   7   43.10   26.70
   3   5  -7  275.77   54.39
   3   5  -7  299.37   47.20
   3   5  -7  285.97   54.69
  -3  -5   7  231.68   33.00
   2   5  -7  -41.80   31.80
   2   5  -7  -13.90   27.30
   2   5  -7  -41.70   30.80
   2   5  -7   27.10   18.60
  -2  -5   7   27.30   23.20
  -2  -5   7   13.30   21.60
   1   5  -7  278.67   55.19
   1   5  -7  195.58   42.80
   1   5  -7  317.17   56.89
   1   5  -7  305.87   37.90
  -1  -5   7  242.68   50.49
   5   4  -7  106.89   39.50
   5   4  -7  110.39   40.80
   5   4  -7  125.09   33.00
  -5  -4   7  154.08   41.50
  -5  -4   7  103.59   34.90
  -5  -4   7   53.49   19.00
  -5  -4   7   70.69   28.10
   4   4  -7   97.39   35.60
   4   4  -7  212.68   44.40
   4   4  -7  138.79   42.80
  -4  -4   7  132.09   21.70
  -4  -4   7   92.49   29.30
  -4  -4   7   95.29   29.10
  -4  -4   7  151.28   30.30
   3   4  -7   15.50   28.70
   3   4  -7   44.90   29.30
   3   4  -7   -2.90   19.00
  -3  -4   7    1.30   13.10
  -3  -4   7   22.50   25.10
  -3  -4   7   12.40   18.60
  -3  -4   7   -3.40   17.10
   2   4  -7  569.44   67.69
   2   4  -7  526.35   62.99
   2   4  -7  526.55   57.09
   2   4  -7  506.45   36.50
  -2  -4   7  475.25   56.79
  -2  -4   7  470.75   36.20
   1   4  -7  146.59   24.20
   1   4  -7  199.48   38.10
   1   4  -7  162.28   46.20
   1   4  -7  144.49   38.80
  -1  -4   7  111.49   36.40
   0   4  -7  643.94   59.29
   0   4  -7  662.53   60.99
   0   4  -7  662.53   63.99
   0   4  -7  593.34   44.30
   0  -4   7  678.13   60.89
  -1   4  -7  191.28   24.40
  -1   4  -7  120.99   36.10
  -1   4  -7  155.68   37.10
  -1   4  -7  119.59   30.00
  -1   4  -7  208.48   39.20
   6   3  -7  813.12   79.49
   6   3  -7  797.12   76.09
   6   3  -7  667.33   49.80
  -6  -3   7  748.13   64.79
  -6  -3   7  816.62   82.49
  -6  -3   7  736.43   44.00
   5   3  -7  405.46   59.49
   5   3  -7  333.57   50.79
   5   3  -7  306.87   30.50
  -5  -3   7  336.27   46.40
  -5  -3   7  383.16   29.50
   4   3  -7 1080.69   74.99
   4   3  -7  941.51   73.39
   4   3  -7  936.51   78.49
  -4  -3   7 1056.79   67.19
  -4  -3   7 1135.09   64.99
  -4  -3   7  987.80   70.79
   3   3  -7  345.87   44.40
   3   3  -7  412.26   53.89
   3   3  -7  419.76   59.39
  -3  -3   7  307.07   38.00
  -3  -3   7  422.46   49.20
  -3  -3   7  398.46   26.00
  -3  -3   7  356.36   47.60
   2   3  -7  804.82   60.59
   2   3  -7  860.81   61.39
   2   3  -7  712.93   67.89
  -2  -3   7  844.52   64.09
  -2  -3   7  891.31   38.70
  -2  -3   7  977.00   66.29
   1   3  -7  263.17   39.50
   1   3  -7  273.77   48.30
   1   3  -7  257.67   24.80
  -1  -3   7  239.48   41.90
   0   3  -7  461.45   24.50
   0   3  -7  593.84   50.69
   0   3  -7  513.05   50.09
   0   3  -7  524.85   60.79
   0   3  -7  469.05   35.30
  -1   3  -7   10.80   15.00
  -1   3  -7   31.50   30.10
  -1   3  -7   48.40   19.80
  -1   3  -7   52.29   29.20
  -1   3  -7   63.29   27.90
  -2   3  -7  346.67   38.10
  -2   3  -7  422.56   49.50
  -2   3  -7  391.26   42.50
  -2   3  -7  379.86   54.89
  -2   3  -7  361.46   44.50
  -2   3  -7  271.77   47.60
   6   2  -7   -5.50   32.50
   6   2  -7   39.90   23.60
  -6  -2   7   12.30   15.90
  -6  -2   7   25.10   24.40
  -6  -2   7  -20.20   33.40
   5   2  -7  800.12   75.79
   5   2  -7  878.91   52.89
   5   2  -7  804.42   70.79
  -5  -2   7  856.21   72.89
  -5  -2   7  837.02   62.99
  -5  -2   7  806.92   37.10
   4   2  -7   -7.00   27.40
   4   2  -7  -32.30   24.30
   4   2  -7    5.10   13.60
  -4  -2   7  -24.70   20.20
  -4  -2   7  -17.00   22.40
   3   2  -7 1564.54   81.89
   3   2  -7 1599.14   95.29
   3   2  -7 1646.34   56.59
  -3  -2   7 1650.83   83.29
  -3  -2   7 1678.73   74.99
  -3  -2   7 1618.34   40.50
   2   2  -7  134.39   29.80
   2   2  -7  111.49   15.10
   2   2  -7  130.59   36.90
  -2  -2   7  156.88   34.00
  -2  -2   7  106.59   25.00
  -2  -2   7  132.09   27.70
   1   2  -7 1406.76   72.59
   1   2  -7 1474.75   46.40
   1   2  -7 1505.15   87.69
   1   2  -7 1350.96   41.50
  -1  -2   7 1398.36   74.49
  -1  -2   7 1345.77   66.29
   0   2  -7  364.76   25.70
   0   2  -7  404.16   50.09
   0   2  -7  399.16   52.99
   0   2  -7  431.16   41.00
   0   2  -7  378.36   29.00
   0   2  -7  312.97   43.30
   0  -2   7  320.67   39.10
  -1   2  -7  673.03   42.20
  -1   2  -7  537.55   54.59
  -1   2  -7  643.64   60.09
  -1   2  -7  639.04   55.19
  -1   2  -7  609.04   46.80
  -1   2  -7  568.24   36.90
   1  -2   7  653.73   52.19
  -2   2  -7  469.05   56.19
  -2   2  -7  573.94   51.59
  -2   2  -7  472.55   56.29
  -2   2  -7  513.45   52.69
  -2   2  -7  489.35   39.80
  -2   2  -7  530.45   48.60
  -2   2  -7  505.05   43.20
   2  -2   7  576.74   55.79
  -3   2  -7  196.88   33.60
  -3   2  -7  192.18   41.70
  -3   2  -7  196.48   36.30
  -3   2  -7  138.19   32.20
  -3   2  -7  175.68   33.20
  -3   2  -7  148.59   30.60
  -3   2  -7  166.18   35.90
   3  -2   7  154.68   46.30
   6   1  -7  272.17   52.19
   6   1  -7  142.59   36.60
  -6  -1   7  242.48   52.49
  -6  -1   7  263.57   30.40
  -6  -1   7  255.37   30.10
   5   1  -7  283.47   38.40
   5   1  -7  205.98   46.90
   5   1  -7  272.07   49.20
  -5  -1   7  221.48   22.10
  -5  -1   7  255.57   23.10
  -5  -1   7  212.88   43.50
   4   1  -7  106.79   24.30
   4   1  -7  209.08   41.30
   4   1  -7   93.19   38.90
  -4  -1   7  139.09   12.30
  -4  -1   7  140.19   12.70
  -4  -1   7  158.08   32.80
  -4  -1   7  171.88   35.50
   3   1  -7  551.24   64.99
   3   1  -7  615.64   55.79
   3   1  -7  574.94   39.10
  -3  -1   7  669.03   49.10
  -3  -1   7  597.34   49.60
   2   1  -7   36.70   14.80
   2   1  -7   67.39   25.60
   2   1  -7   31.60   26.20
   2   1  -7    2.00   18.50
  -2  -1   7   34.30   17.40
  -2  -1   7   -0.50   13.20
   1   1  -7 1247.18   50.49
   1   1  -7 1269.67   80.79
   1   1  -7 1348.27   65.79
  -1  -1   7 1329.87   62.19
  -1  -1   7 1237.78   97.19
   0   1  -7   26.20   29.60
   0   1  -7    7.00   17.00
   0   1  -7    4.90    5.80
   0   1  -7  -16.00   12.90
   0  -1   7   -2.40   19.70
   0  -1   7   12.40   16.80
   0  -1   7   16.50   15.10
  -1   1  -7 1654.03   53.19
  -1   1  -7 1612.74   67.99
  -1   1  -7 1693.93   82.09
  -1   1  -7 1674.43   88.99
  -1   1  -7 1647.14   67.09
  -1   1  -7 1699.93   85.49
   1  -1   7 1641.94   74.49
  -2   1  -7   34.10   15.60
  -2   1  -7    8.60   16.50
  -2   1  -7   26.10   23.50
  -2   1  -7    3.60   15.40
  -2   1  -7   44.00   27.20
  -2   1  -7   16.90   21.10
  -2   1  -7  -36.60   13.60
   2  -1   7   28.10   27.90
  -3   1  -7  951.90   55.49
  -3   1  -7  948.21   63.39
  -3   1  -7  816.92   58.99
  -3   1  -7  909.91   52.59
  -3   1  -7  959.90   71.79
  -3   1  -7 1064.09   68.29
  -3   1  -7 1004.60   63.09
   3  -1   7 1148.49   78.69
  -4   1  -7  107.39   36.10
  -4   1  -7   85.29   31.30
  -4   1  -7   78.79   25.40
  -4   1  -7  126.09   25.40
  -4   1  -7   44.20   29.90
  -4   1  -7   96.59   30.80
   4  -1   7   87.69   46.10
   5   0  -7   12.80   22.50
   5   0  -7   23.10   29.70
  -5   0   7   -6.60   12.40
  -5   0   7   12.70   11.50
  -5   0   7    5.40   23.40
   4   0  -7  767.02   66.89
   4   0  -7  710.73   51.89
   4   0  -7  820.82   68.89
  -4   0   7  775.62   26.30
  -4   0   7  774.72   26.50
  -4   0   7  880.41   64.99
   3   0  -7  117.19   39.10
   3   0  -7  156.68   36.10
   3   0  -7  168.58   28.70
  -3   0   7  170.78   32.90
   2   0  -7  580.74   49.30
   2   0  -7  528.45   39.50
   2   0  -7  630.04   61.59
   2   0  -7  589.94   43.70
  -2   0   7  471.95   40.00
  -2   0   7  579.54   44.80
   1   0  -7  781.92   43.90
   1   0  -7  823.02   66.79
   1   0  -7  762.32   53.39
   1   0  -7  752.92   50.49
  -1   0   7  729.13   51.19
  -1   0   7  729.63   45.10
   0   0  -7   92.49   22.70
   0   0  -7  116.29   34.70
   0   0   7   79.39   20.20
   0   0   7  112.59   21.50
   0   0   7   99.79   29.80
  -1   0  -7 1235.38   36.20
  -1   0  -7 1272.87   66.89
  -1   0  -7 1374.46   77.69
  -1   0  -7 1238.78   55.09
   1   0   7 1318.87   65.59
   1   0   7 1163.38   58.79
  -2   0  -7   27.20   22.00
  -2   0  -7  -16.00   18.50
  -2   0  -7   15.80   12.10
  -2   0  -7   -0.70   15.90
  -2   0  -7    4.80   14.30
  -2   0  -7   25.80   19.20
  -2   0  -7   12.30   24.60
   2   0   7    1.60   24.10
  -3   0  -7 1303.57   59.09
  -3   0  -7 1219.88   53.09
  -3   0  -7 1273.07   79.29
  -3   0  -7 1235.28   70.29
  -3   0  -7 1256.07   70.09
  -3   0  -7 1197.28   68.69
  -3   0  -7 1230.08   70.89
   3   0   7 1386.16   81.89
  -4   0  -7    5.60   15.60
  -4   0  -7   11.80   28.40
  -4   0  -7   13.30   24.50
  -4   0  -7   -9.20   18.10
  -4   0  -7   17.30   21.90
  -4   0  -7  -14.90   22.90
  -4   0  -7   19.30   25.20
   4   0   7  -10.90   32.00
  -5   0  -7  641.44   68.69
  -5   0  -7  784.62   69.79
  -5   0  -7  678.43   43.90
  -5   0  -7  711.73   66.59
  -5   0  -7  598.14   58.69
   5   0   7  761.32   86.89
   5  -1  -7   44.10   30.50
   5  -1  -7   50.39   38.40
  -5   1   7   23.50   15.10
  -5   1   7   17.50   37.20
   4  -1  -7  621.34   54.29
   4  -1  -7  528.25   67.99
  -4   1   7  646.14   63.39
   3  -1  -7   52.19   23.10
   3  -1  -7   21.70   22.10
   3  -1  -7   55.29   28.60
  -3   1   7   29.60   32.60
  -3   1   7   58.59   25.70
   2  -1  -7 1543.15   69.89
   2  -1  -7 1653.63   80.49
   2  -1  -7 1495.15   83.19
   2  -1  -7 1536.05   92.89
  -2   1   7 1508.95   72.79
  -2   1   7 1576.54   73.69
   1  -1  -7   60.79   20.40
   1  -1  -7   64.09   23.50
   1  -1  -7   44.00   20.70
   1  -1  -7   81.49   30.10
  -1   1   7   43.10   22.20
  -1   1   7   20.40   28.90
  -1   1   7   37.00   17.80
   0  -1  -7 2428.86   96.89
   0  -1  -7 2307.77  123.59
   0  -1  -7 2375.86   84.89
   0   1   7 2393.16  109.09
   0   1   7 2497.65   94.19
   0   1   7 2394.16   71.59
   0   1   7 2502.75   78.49
  -1  -1  -7    5.70   13.30
  -1  -1  -7   33.70   27.00
   1   1   7    1.60   18.30
   1   1   7    1.10   16.40
   1   1   7   21.00   12.20
  -2  -1  -7 1779.22   80.09
  -2  -1  -7 1876.01   55.59
  -2  -1  -7 1840.12   61.39
  -2  -1  -7 1810.42   77.09
  -2  -1  -7 1817.02   87.89
   2   1   7 1792.62   80.49
  -3  -1  -7   29.50   12.20
  -3  -1  -7   33.30   23.70
  -3  -1  -7   28.30   20.70
  -3  -1  -7   62.79   25.60
  -3  -1  -7   69.99   19.40
  -3  -1  -7   35.50   28.60
  -3  -1  -7   69.89   25.20
  -4  -1  -7  723.63   60.69
  -4  -1  -7  719.93   34.00
  -4  -1  -7  717.73   52.69
  -4  -1  -7  680.73   50.59
  -4  -1  -7  662.03   64.19
  -4  -1  -7  745.53   51.79
  -4  -1  -7  745.63   58.69
   4   1   7  775.42   69.29
  -5  -1  -7  144.39   30.70
  -5  -1  -7  208.88   41.70
  -5  -1  -7   80.59   35.30
  -5  -1  -7   76.79   35.90
  -5  -1  -7  108.79   33.30
  -5  -1  -7  108.49   16.70
  -5  -1  -7  117.69   24.40
   5   1   7  159.98   50.49
   5  -2  -7  306.37   57.39
   5  -2  -7  244.58   45.80
  -5   2   7  257.57   48.50
   4  -2  -7  519.55   67.59
   4  -2  -7  375.86   50.79
  -4   2   7  461.65   30.20
  -4   2   7  490.95   62.89
  -4   2   7  518.95   63.09
   3  -2  -7  398.86   35.80
   3  -2  -7  287.47   52.49
   3  -2  -7  400.16   47.90
  -3   2   7  319.47   53.69
  -3   2   7  399.56   20.50
   2  -2  -7 1332.57   63.99
   2  -2  -7 1222.78   87.29
   2  -2  -7 1414.56   71.19
  -2   2   7 1298.87   87.39
  -2   2   7 1331.77   68.39
  -2   2   7 1302.77   68.49
   1  -2  -7  243.68   41.20
   1  -2  -7  247.88   48.00
   1  -2  -7  202.78   38.40
  -1   2   7  302.57   37.00
  -1   2   7  229.88   31.30
  -1   2   7  255.97   11.10
   0  -2  -7 1816.62   96.69
   0  -2  -7 1674.63   73.89
   0  -2  -7 1807.12   79.79
   0   2   7 1704.83   74.99
   0   2   7 1836.52   99.99
   0   2   7 1777.52   63.79
   0   2   7 1741.13   56.99
  -1  -2  -7  181.38   38.00
  -1  -2  -7  179.58   34.40
   1   2   7  149.79   29.90
   1   2   7  142.59   34.40
   1   2   7  197.18   29.80
   1   2   7  146.09   18.20
  -2  -2  -7 1107.59   72.19
   2   2   7 1134.99   63.59
   2   2   7 1263.37   65.09
  -3  -2  -7   51.99   27.20
  -3  -2  -7   46.00   24.60
  -3  -2  -7   39.10   24.70
   3   2   7   42.70   28.10
   3   2   7   52.09   25.60
  -4  -2  -7  584.84   73.29
  -4  -2  -7  614.14   50.09
  -4  -2  -7  574.84   50.79
  -4  -2  -7  506.25   61.09
   4   2   7  626.54   62.09
  -5  -2  -7    7.10   17.70
  -5  -2  -7   -7.10   21.60
  -5  -2  -7   -9.20   25.90
  -5  -2  -7   15.70   20.30
  -5  -2  -7   32.90   28.90
   5   2   7   -5.90   33.60
  -6  -2  -7  230.08   60.09
  -6  -2  -7  401.56   60.59
  -6  -2  -7  232.98   57.99
  -6  -2  -7  326.37   31.10
   6   2   7  273.47   59.69
   4  -3  -7  772.22   79.79
   4  -3  -7  738.93   68.49
  -4   3   7  750.92   81.39
  -4   3   7  613.94   39.70
   3  -3  -7  402.16   36.70
   3  -3  -7  431.66   63.29
   3  -3  -7  435.36   52.99
  -3   3   7  438.56   61.79
  -3   3   7  411.06   28.60
  -3   3   7  480.55   57.89
   2  -3  -7 1021.90   77.49
   2  -3  -7  809.42   62.59
   2  -3  -7  916.91   54.09
  -2   3   7  885.11   62.69
  -2   3   7  944.61   60.19
  -2   3   7  963.30   80.19
   1  -3  -7  523.45   65.19
   1  -3  -7  323.47   64.19
   1  -3  -7  383.86   44.30
  -1   3   7  404.66   41.70
  -1   3   7  418.16   16.70
  -1   3   7  383.56   43.00
   0  -3  -7  260.17   43.60
   0  -3  -7  294.27   38.00
   0  -3  -7  310.37   39.00
   0   3   7  268.37   25.20
   0   3   7  307.57   38.10
   0   3   7  302.67   30.00
  -1  -3  -7  361.06   51.09
  -1  -3  -7  375.36   15.70
  -1  -3  -7  365.06   43.50
   1   3   7  320.77   50.89
   1   3   7  374.76   40.60
   1   3   7  380.76   26.40
   1   3   7  372.96   35.50
  -2  -3  -7   86.69   12.40
   2   3   7   38.00   21.10
   2   3   7   81.29   31.80
   2   3   7   74.29    9.50
   2   3   7   99.89   27.50
  -3  -3  -7  344.87   27.10
  -3  -3  -7  383.16   48.30
   3   3   7  427.96   53.79
   3   3   7  408.46   51.59
  -4  -3  -7  633.04   41.90
  -4  -3  -7  653.93   52.79
  -4  -3  -7  604.94   48.30
  -4  -3  -7  678.13   47.90
   4   3   7  652.53   55.69
   4   3   7  681.73   61.59
  -5  -3  -7  225.58   34.20
  -5  -3  -7  241.28   43.90
  -5  -3  -7  290.87   49.70
  -5  -3  -7  207.48   30.50
   5   3   7  353.06   59.99
   5   3   7  243.88   35.90
  -6  -3  -7  483.05   63.99
  -6  -3  -7  533.15   63.39
  -6  -3  -7  561.24   41.90
  -6  -3  -7  463.75   40.90
   6   3   7  449.06   67.19
   3  -4  -7  378.76   62.29
   3  -4  -7  417.16   56.59
   3  -4  -7  386.96   34.80
  -3   4   7  458.95   35.30
  -3   4   7  400.26   56.39
   2  -4  -7  238.58   52.39
   2  -4  -7  209.68   44.00
   2  -4  -7  263.27   32.30
  -2   4   7  230.78   50.39
  -2   4   7  194.08   22.90
  -2   4   7  208.78   36.80
   1  -4  -7  994.80   58.59
   1  -4  -7 1060.19   68.69
   1  -4  -7 1047.30   86.69
  -1   4   7  936.81   80.99
  -1   4   7  992.20   39.60
  -1   4   7 1037.10   76.09
  -1   4   7 1088.09   63.59
  -1   4   7  921.11   37.40
   0  -4  -7  135.09   32.50
   0  -4  -7  165.88   30.10
   0  -4  -7  136.49   42.00
   0   4   7  146.49   26.10
   0   4   7  172.08   26.00
   0   4   7  129.29   28.30
  -1  -4  -7 1223.38   41.20
  -1  -4  -7 1196.48   85.09
   1   4   7 1119.89   57.69
   1   4   7 1190.08   63.29
   1   4   7 1202.38   48.00
  -2  -4  -7   71.09   32.10
  -2  -4  -7  128.99   16.80
   2   4   7  109.09   30.90
   2   4   7  148.09   14.00
   2   4   7  132.99   37.80
   2   4   7  154.68   30.10
  -3  -4  -7  973.40   44.00
  -3  -4  -7  932.61   68.89
   3   4   7 1015.70   75.69
   3   4   7  974.20   65.09
  -4  -4  -7   33.30   39.00
  -4  -4  -7   20.40   19.40
  -4  -4  -7   59.09   18.60
   4   4   7   51.99   31.00
   4   4   7   17.20   25.00
  -5  -4  -7  540.25   45.70
  -5  -4  -7  620.24   42.30
  -5  -4  -7  541.75   50.69
  -5  -4  -7  610.74   53.69
   5   4   7  651.23   72.89
   5   4   7  541.95   50.59
  -6  -4  -7   32.80   34.60
  -6  -4  -7   11.70   21.70
  -6  -4  -7  -34.40   27.50
  -6  -4  -7  -20.00   14.80
  -6  -4  -7   -3.60   19.10
   6   4   7  -18.50   33.90
   6   4   7   -6.80   21.80
   2  -5  -7  672.13   45.30
   2  -5  -7  648.04   62.19
   2  -5  -7  831.32   91.69
  -2   5   7  554.14   41.00
  -2   5   7  691.13   66.39
  -2   5   7  675.83   56.09
  -2   5   7  787.52   79.69
   1  -5  -7   -0.20   26.70
   1  -5  -7   29.80   19.90
   1  -5  -7   30.30   39.60
  -1   5   7   58.79   18.20
  -1   5   7   31.50   22.90
  -1   5   7   95.59   41.20
  -1   5   7   49.80   28.10
   0  -5  -7 1450.15   56.99
   0  -5  -7 1606.04   86.89
   0  -5  -7 1681.93  107.39
   0   5   7 1602.74   58.19
   0   5   7 1579.04   75.29
   0   5   7 1511.95   73.29
   0   5   7 1605.94  104.39
  -1  -5  -7  322.27   56.39
  -1  -5  -7  321.67   27.80
  -1  -5  -7  296.07   41.70
   1   5   7  301.47   38.10
   1   5   7  342.97   57.69
   1   5   7  322.57   33.20
  -2  -5  -7 1803.82   99.49
  -2  -5  -7 1837.72   62.59
   2   5   7 1914.61   54.79
   2   5   7 1755.82   78.79
   2   5   7 2034.20  110.79
  -3  -5  -7  544.05   63.19
  -3  -5  -7  560.34   36.90
  -4  -5  -7 1005.20   52.29
  -4  -5  -7 1080.09   74.59
  -4  -5  -7  950.90   62.79
   4   5   7 1129.79   73.79
  -5  -5  -7  435.66   52.19
  -5  -5  -7  337.67   37.50
  -5  -5  -7  366.96   50.19
   5   5   7  306.07   49.60
   5   5   7  455.45   59.09
  -6  -5  -7  214.88   37.10
  -6  -5  -7  278.07   28.40
  -6  -5  -7  249.08   47.30
   6   5   7  231.88   46.90
   6   5   7  280.37   42.90
   1  -6  -7  285.17   64.69
   1  -6  -7  266.37   37.10
   1  -6  -7  186.08   53.89
  -1   6   7  223.88   37.90
  -1   6   7  253.57   46.80
  -1   6   7  336.97   62.69
  -1   6   7  253.67   33.20
   0  -6  -7  607.04   76.19
   0  -6  -7  639.24   63.39
   0  -6  -7  615.44   43.60
   0   6   7  613.34   50.89
   0   6   7  629.54   57.09
   0   6   7  534.85   42.00
   0   6   7  595.94   77.09
  -1  -6  -7  154.38   25.60
  -1  -6  -7  152.58   42.70
   1   6   7  160.08   29.20
   1   6   7  157.98   31.40
   1   6   7  141.09   49.10
  -2  -6  -7  918.51   70.09
  -2  -6  -7 1109.89   88.29
  -2  -6  -7  815.52   46.20
   2   6   7 1002.60   59.49
   2   6   7  813.72   41.50
   2   6   7  927.51   85.79
  -3  -6  -7   76.39   36.10
  -3  -6  -7   65.39   19.10
   3   6   7   19.00   34.20
  -4  -6  -7 1181.18   59.59
  -4  -6  -7 1220.88   85.29
   4   6   7 1275.67   90.09
  -5  -6  -7   -4.40   20.30
  -5  -6  -7   17.00   26.30
  -5  -6  -7  -22.90   23.40
   5   6   7   10.20   30.60
   5   6   7   22.10   31.10
  -6  -6  -7 1119.49   49.10
  -6  -6  -7  942.51   63.19
   6   6   7 1056.99   79.49
   6   6   7  972.00   80.59
  -1  -7  -7  492.85   77.59
  -1  -7  -7  660.93   48.60
  -1  -7  -7  634.94   83.29
   1   7   7  647.94   49.70
   1   7   7  558.54   51.79
   1   7   7  611.14   54.29
  -2  -7  -7  227.58   33.40
  -2  -7  -7  285.57   44.80
   2   7   7  168.58   49.90
   2   7   7  153.78   31.50
   2   7   7  218.08   29.80
  -3  -7  -7  263.87   55.39
  -3  -7  -7  195.48   30.80
   3   7   7  210.48   24.40
   3   7   7  309.27   62.99
  -4  -7  -7  318.37   39.20
  -4  -7  -7  360.46   58.49
   4   7   7  332.27   63.39
  -5  -7  -7   21.20   23.80
   3   4  -8  173.38   47.50
   3   4  -8  214.48   46.70
   3   4  -8  179.08   37.40
  -3  -4   8  212.18   44.50
  -3  -4   8  150.28   21.50
  -3  -4   8  125.19   31.30
  -3  -4   8  181.08   41.20
   2   4  -8  247.48   46.80
   2   4  -8  123.39   43.10
  -2  -4   8  287.87   49.80
  -2  -4   8  270.07   39.40
   1   4  -8   14.50   31.60
   1   4  -8   21.10   17.20
   1   4  -8  -14.20   24.10
  -1  -4   8   24.10   25.80
   4   3  -8  -11.60   43.00
   4   3  -8   54.29   36.10
   4   3  -8   38.00   10.60
   4   3  -8   80.79   29.60
  -4  -3   8   20.00   29.80
  -4  -3   8   21.70   23.40
  -4  -3   8   54.29   32.80
   3   3  -8  423.96   54.69
   3   3  -8  422.36   60.29
   3   3  -8  392.46   61.09
  -3  -3   8  473.45   53.99
  -3  -3   8  413.16   52.19
  -3  -3   8  464.95   49.20
   2   3  -8  216.98   47.20
   2   3  -8  211.58   41.90
   2   3  -8  162.38   52.79
  -2  -3   8  179.38   40.90
  -2  -3   8  227.58   38.10
  -2  -3   8  251.47   43.70
   1   3  -8  342.97   26.60
   1   3  -8  372.66   47.60
   1   3  -8  353.96   54.19
   1   3  -8  265.07   49.70
  -1  -3   8  373.96   43.50
   0   3  -8  275.97   28.50
   0   3  -8  281.77   51.59
   0   3  -8  265.17   42.90
   0   3  -8  232.68   17.80
   0   3  -8  337.17   49.90
   0   3  -8  278.17   17.90
  -1   3  -8  301.67   53.79
  -1   3  -8  192.28   28.90
  -1   3  -8  263.77   48.70
  -1   3  -8  208.88   25.40
  -1   3  -8  233.28   39.10
   5   2  -8  110.19   26.90
  -5  -2   8  138.19   44.60
  -5  -2   8  109.49   11.60
  -5  -2   8  176.88   37.60
  -5  -2   8   90.29    9.70
   4   2  -8   76.79   20.60
   4   2  -8   66.79   42.40
   4   2  -8   64.19   33.70
  -4  -2   8   78.89   29.90
  -4  -2   8   46.60   32.60
  -4  -2   8   75.09   30.70
   3   2  -8  417.66   29.80
   3   2  -8  524.35   67.99
   3   2  -8  410.36   52.49
  -3  -2   8  392.66   44.90
  -3  -2   8  438.36   51.89
  -3  -2   8  428.36   52.79
   2   2  -8   59.59   26.90
   2   2  -8   50.59   31.90
   2   2  -8   35.50   13.10
   2   2  -8    6.00   28.10
  -2  -2   8   50.69   22.80
  -2  -2   8    7.80   22.10
   1   2  -8  659.13   68.29
   1   2  -8  647.94   55.99
   1   2  -8  590.44   54.39
   1   2  -8  647.24   34.80
   1   2  -8  649.43   32.40
  -1  -2   8  744.03   54.19
   0   2  -8   16.10   21.10
   0   2  -8   -2.00   25.80
   0   2  -8   -1.50   13.70
   0   2  -8   -4.30    9.70
   0   2  -8  -11.30   27.70
   0   2  -8   -7.90   20.90
   0  -2   8  -18.00   21.60
  -1   2  -8  153.08   73.59
  -1   2  -8  322.07   52.19
  -1   2  -8  417.06   45.90
  -1   2  -8  412.26   31.80
  -1   2  -8  360.16   36.60
  -2   2  -8   54.39   21.60
  -2   2  -8   -9.90   26.00
  -2   2  -8   25.80   36.30
  -2   2  -8   11.90   23.50
  -2   2  -8  -30.80   26.30
  -2   2  -8   26.90   22.50
   2  -2   8    3.30   32.50
   5   1  -8    7.60   35.20
   5   1  -8   35.60   24.90
   5   1  -8   18.30   51.09
  -5  -1   8   -6.50   31.70
   4   1  -8  362.26   58.39
   4   1  -8  229.98   48.10
   4   1  -8  290.37   36.30
  -4  -1   8  288.17   42.90
  -4  -1   8  196.68   40.90
   3   1  -8   57.49   30.20
   3   1  -8    7.80   17.20
   3   1  -8   59.69   34.20
  -3  -1   8   31.20   24.30
  -3  -1   8   44.40   26.90
   2   1  -8  200.48   37.70
   2   1  -8  193.28   41.50
   2   1  -8  193.18   34.20
   2   1  -8  230.18   27.30
  -2  -1   8  264.87   39.00
  -2  -1   8  203.98   40.30
   1   1  -8  243.98   45.70
   1   1  -8  206.88   35.80
   1   1  -8  170.58   23.80
   1   1  -8  212.58   47.20
  -1  -1   8  238.08   33.90
  -1  -1   8  200.18   35.50
   0   1  -8  178.88   38.00
   0   1  -8  179.48   30.80
   0   1  -8  133.39   36.60
   0   1  -8  171.18   42.30
   0  -1   8  207.98   34.70
  -1   1  -8  463.15   40.10
  -1   1  -8  546.75   61.69
  -1   1  -8  481.35   56.49
  -1   1  -8  419.86   42.20
  -1   1  -8  437.36   55.89
  -2   1  -8  223.48   42.50
  -2   1  -8  152.98   41.90
  -2   1  -8  219.58   32.20
  -2   1  -8  170.18   36.70
  -2   1  -8  124.99   21.60
  -2   1  -8  142.49   30.90
   2  -1   8  119.19   38.40
  -3   1  -8  475.95   55.89
  -3   1  -8  512.65   52.09
  -3   1  -8  474.45   55.39
  -3   1  -8  429.46   61.49
  -3   1  -8  443.06   42.50
  -3   1  -8  575.74   44.40
   3  -1   8  413.36   65.49
   5   0  -8  189.58   36.90
   5   0  -8  210.38   57.09
  -5   0   8  159.88   46.50
   4   0  -8  970.40   59.99
   4   0  -8  794.42   72.79
   4   0  -8  868.61   79.39
  -4   0   8  848.92   68.39
   3   0  -8  363.96   49.99
   3   0  -8  313.77   58.89
   3   0  -8  356.56   66.89
  -3   0   8  314.07   41.00
  -3   0   8  485.05   52.29
   2   0  -8 1542.15   99.89
   2   0  -8 1732.03   70.49
   2   0  -8 1249.77   84.09
   2   0  -8 1627.74   82.69
  -2   0   8 1639.34   76.39
  -2   0   8 1576.34   78.99
   1   0  -8  194.28   41.60
   1   0  -8  260.67   31.70
   1   0  -8  213.48   37.00
   1   0  -8  242.08   40.30
  -1   0   8  227.88   54.89
  -1   0   8  293.87   39.70
   0   0  -8 1311.97   86.59
   0   0  -8 1310.97   66.29
   0   0   8 1285.57   67.69
   0   0   8 1372.86   60.89
   0   0   8 1413.46   57.89
  -1   0  -8   18.90   27.10
  -1   0  -8   48.30   23.40
  -1   0  -8   27.70   17.60
   1   0   8   42.10   22.60
   1   0   8   10.70   23.80
  -2   0  -8  594.14   61.79
  -2   0  -8  584.44   49.99
  -2   0  -8  608.64   31.80
  -2   0  -8  605.84   49.99
  -2   0  -8  528.05   40.30
  -2   0  -8  567.24   64.29
   2   0   8  711.63   57.79
  -3   0  -8   15.80   15.40
  -3   0  -8   42.50   25.80
  -3   0  -8   10.60   16.80
  -3   0  -8   64.19   28.90
  -3   0  -8   47.10   28.10
  -3   0  -8   19.60   28.40
  -3   0  -8   51.09   26.30
   3   0   8   19.10   32.80
  -4   0  -8  207.98   41.90
  -4   0  -8  208.48   35.00
  -4   0  -8  170.68   25.60
  -4   0  -8  214.68   48.90
  -4   0  -8  206.48   41.30
  -4   0  -8  220.08   41.30
  -4   0  -8  135.69   35.30
   4   0   8  294.87   60.59
   4  -1  -8   44.60   34.40
   4  -1  -8   79.69   31.00
  -4   1   8   47.00   33.70
   3  -1  -8  272.07   55.19
   3  -1  -8  230.48   38.80
  -3   1   8  270.37   41.40
  -3   1   8  301.67   44.10
   2  -1  -8  112.99   42.60
   2  -1  -8  124.79   34.30
   2  -1  -8  126.39   28.00
  -2   1   8  145.69   30.50
  -2   1   8  105.49   27.00
   1  -1  -8  353.86   42.70
   1  -1  -8  336.37   51.79
  -1   1   8  359.36   36.00
  -1   1   8  355.86   43.40
   0  -1  -8  386.66   40.30
   0  -1  -8  329.17   46.90
   0  -1  -8  323.77   38.10
   0  -1  -8  316.57   52.89
   0   1   8  373.16   29.10
   0   1   8  390.06   33.90
   0   1   8  366.46   41.00
  -1  -1  -8  292.47   33.50
  -1  -1  -8  351.46   53.99
   1   1   8  285.17   40.80
   1   1   8  380.26   36.80
  -2  -1  -8  611.34   38.10
  -2  -1  -8  562.84   62.29
  -2  -1  -8  555.24   51.39
  -2  -1  -8  558.14   53.99
  -2  -1  -8  555.64   24.90
   2   1   8  643.94   53.29
  -3  -1  -8   97.29   38.20
  -3  -1  -8  115.69   32.20
  -3  -1  -8  125.59   20.10
  -3  -1  -8   94.19   32.30
  -3  -1  -8   84.29   29.20
  -3  -1  -8   59.59   27.70
  -3  -1  -8   97.19   19.90
   3   1   8   81.19   34.60
  -4  -1  -8  459.95   43.10
  -4  -1  -8  423.06   70.69
  -4  -1  -8  510.15   61.89
  -4  -1  -8  556.84   31.00
  -4  -1  -8  541.05   60.09
  -4  -1  -8  588.04   60.99
  -4  -1  -8  486.65   52.89
   4   1   8  557.74   71.09
   4  -2  -8  500.05   78.89
  -4   2   8  578.04   71.09
  -4   2   8  620.34   74.89
   3  -2  -8  468.15   53.49
   3  -2  -8  482.85   70.69
   3  -2  -8  525.05   47.30
  -3   2   8  471.05   57.09
  -3   2   8  506.15   55.59
   2  -2  -8   69.29   26.60
   2  -2  -8  132.89   45.00
   2  -2  -8  128.79   30.90
  -2   2   8   94.39   27.40
  -2   2   8   82.09   38.40
  -2   2   8   98.69   26.30
   1  -2  -8  861.11   73.49
   1  -2  -8  873.81   57.49
  -1   2   8  858.91   51.69
  -1   2   8  973.00   63.19
   0  -2  -8   30.70   22.80
   0  -2  -8   69.59   36.10
   0   2   8   21.30   15.90
   0   2   8   53.19   15.60
   0   2   8   71.39   31.70
   0   2   8   80.29   28.40
  -1  -2  -8 1037.70   77.79
  -1  -2  -8 1093.19   71.69
   1   2   8 1156.48   46.60
   1   2   8 1122.59   55.79
   1   2   8 1058.19   63.89
  -2  -2  -8  319.27   15.20
  -2  -2  -8  311.57   15.40
  -2  -2  -8  356.66   52.09
   2   2   8  373.96   47.10
   2   2   8  255.57   38.50
  -3  -2  -8  902.81   40.60
  -3  -2  -8  954.10   64.89
  -3  -2  -8  872.91   72.09
  -3  -2  -8  946.01   70.59
  -3  -2  -8  959.70   44.30
  -3  -2  -8  944.71   62.59
   3   2   8  975.80   69.79
  -4  -2  -8  244.18   44.80
  -4  -2  -8  265.17   45.00
  -4  -2  -8  251.87   41.40
  -4  -2  -8  237.68   38.70
  -4  -2  -8  277.07   33.60
   4   2   8  230.98   48.00
  -5  -2  -8  468.65   49.30
  -5  -2  -8  434.16   62.59
  -5  -2  -8  437.06   48.50
  -5  -2  -8  482.75   51.29
  -5  -2  -8  428.86   60.39
   5   2   8  476.15   71.89
   3  -3  -8  640.44   79.99
   3  -3  -8  532.15   45.50
   3  -3  -8  527.45   61.99
  -3   3   8  472.05   55.09
  -3   3   8  674.63   66.09
  -3   3   8  619.74   76.69
   2  -3  -8  348.27   50.49
   2  -3  -8  325.97   60.49
   2  -3  -8  425.76   45.40
  -2   3   8  390.36   48.50
  -2   3   8  381.46   76.29
   1  -3  -8  862.11   62.39
   1  -3  -8  941.51   78.89
  -1   3   8  857.61   63.19
  -1   3   8 1017.00   84.89
  -1   3   8  890.81   61.79
   0  -3  -8  804.32   58.09
   0  -3  -8  718.63   73.69
   0   3   8  734.43   36.10
   0   3   8  669.73   54.99
   0   3   8  912.61   79.89
   0   3   8  684.53   42.50
  -1  -3  -8 1041.60   69.99
  -1  -3  -8  973.10   74.49
   1   3   8 1057.69   82.29
   1   3   8 1027.30   54.39
   1   3   8 1005.70   43.50
   1   3   8 1036.70   64.99
  -2  -3  -8  350.56   51.69
  -2  -3  -8  357.86   52.79
  -2  -3  -8  385.26   17.20
   2   3   8  446.26   50.59
   2   3   8  333.17   40.40
  -3  -3  -8  710.73   63.89
  -3  -3  -8  768.42   35.80
  -3  -3  -8  697.83   66.79
   3   3   8  846.62   74.89
  -4  -3  -8   14.80   25.30
  -4  -3  -8   26.70   16.70
  -4  -3  -8  -29.60   20.20
   4   3   8   74.99   30.50
   4   3   8    4.80   30.60
  -5  -3  -8  453.55   47.50
  -5  -3  -8  491.85   60.59
  -5  -3  -8  490.15   44.70
  -5  -3  -8  365.96   58.99
  -5  -3  -8  419.16   47.90
  -5  -3  -8  497.55   57.09
   5   3   8  480.75   67.89
   2  -4  -8 1152.68  100.59
   2  -4  -8 1068.89   78.69
   2  -4  -8 1001.70   61.39
  -2   4   8 1140.79   97.29
  -2   4   8  993.60   69.89
  -2   4   8 1072.79   71.79
   1  -4  -8   75.39   33.00
   1  -4  -8   73.49   39.20
  -1   4   8   47.30   26.70
  -1   4   8    2.70   21.40
   0  -4  -8 1122.19   70.49
   0  -4  -8 1036.30   74.39
   0  -4  -8 1057.89   90.29
   0   4   8 1137.59   47.90
   0   4   8 1207.28   96.09
   0   4   8 1135.89   67.99
   0   4   8 1149.69   56.89
  -1  -4  -8  245.88   41.70
  -1  -4  -8  237.98   51.39
  -1  -4  -8  347.37   48.80
   1   4   8  290.87   38.30
   1   4   8  267.57   26.60
   1   4   8  263.07   36.80
   1   4   8  297.27   57.99
  -2  -4  -8  905.71   33.40
  -2  -4  -8  787.62   74.59
  -2  -4  -8  921.21   66.99
   2   4   8  797.42   28.10
   2   4   8  901.41   60.59
   2   4   8  893.01   60.09
   2   4   8 1011.60   84.19
  -3  -4  -8  337.97   27.20
  -3  -4  -8  337.97   52.09
   3   4   8  493.55   67.29
   3   4   8  420.76   59.09
  -4  -4  -8  403.26   33.90
  -4  -4  -8  440.76   54.39
   4   4   8  425.16   60.19
  -5  -4  -8  450.95   41.60
  -5  -4  -8  361.06   50.49
  -5  -4  -8  467.05   55.69
  -5  -4  -8  473.65   46.00
   5   4   8  555.04   71.69
   1  -5  -8  207.08   57.69
   1  -5  -8  171.38   39.00
  -1   5   8  175.98   18.50
  -1   5   8  286.37   60.99
  -1   5   8  281.77   40.40
   0  -5  -8  423.06   58.49
   0  -5  -8  372.86   66.09
   0  -5  -8  476.75   52.49
   0   5   8  405.76   68.39
   0   5   8  474.35   51.39
  -1  -5  -8   80.29   33.90
  -1  -5  -8   -5.10   34.70
  -1  -5  -8   51.09   13.40
   1   5   8   22.90   22.30
   1   5   8   43.50   24.90
   1   5   8   32.20   16.60
  -2  -5  -8 1087.79   81.29
  -2  -5  -8  915.41   40.40
   2   5   8 1028.90   86.99
   2   5   8  898.31   61.89
   2   5   8 1049.59   64.49
  -3  -5  -8   -3.10   13.60
  -3  -5  -8  -31.80   24.80
   3   5   8   16.10   26.40
   3   5   8  -20.70   32.90
  -4  -5  -8 1007.70   51.99
  -4  -5  -8  923.01   76.99
   4   5   8 1070.79   76.99
   4   5   8  933.71   81.79
  -5  -5  -8   43.00   32.50
  -5  -5  -8   16.40   21.60
  -5  -5  -8  -27.90   31.30
   5   5   8   -5.50   29.70
   5   5   8   31.60   32.60
  -1  -6  -8  132.09   23.70
  -1  -6  -8  186.88   47.80
  -1  -6  -8  159.58   41.90
   1   6   8  213.08   29.60
   1   6   8  216.18   37.70
   1   6   8  240.28   57.19
  -2  -6  -8   28.30   43.50
  -2  -6  -8   43.70   17.30
  -2  -6  -8   47.30   26.30
   2   6   8  -95.19   34.60
   2   6   8   20.00   25.80
   2   6   8   45.70   14.50
  -3  -6  -8   56.79   19.60
  -3  -6  -8   45.00   37.20
   3   6   8   21.90   37.90
   3   6   8   73.89   33.10
  -4  -6  -8   98.79   24.90
  -4  -6  -8  166.28   46.60
   4   6   8  126.09   42.90
   3   2  -9   49.90   31.00
   3   2  -9   19.50   15.20
   3   2  -9   24.20   40.80
   3   2  -9    2.50   46.00
  -3  -2   9  133.09   36.40
  -3  -2   9   42.30   31.10
   2   2  -9  563.54  103.89
   2   2  -9  464.85   63.19
   2   2  -9  437.36   29.90
   2   2  -9  455.35   56.09
  -2  -2   9  540.65   56.79
  -2  -2   9  682.73   58.49
   1   2  -9  244.68   25.90
   1   2  -9  274.17   47.30
   1   2  -9  311.17   58.99
   1   2  -9  338.17   46.30
  -1  -2   9  243.58   41.80
   0   2  -9  505.65   54.39
   0   2  -9  511.85   77.29
   0   2  -9  631.14   72.79
   3   1  -9  168.48   50.79
   3   1  -9  185.78   44.20
   3   1  -9  190.08   30.20
  -3  -1   9  195.98   41.40
  -3  -1   9  185.08   38.80
   2   1  -9  545.55   73.49
   2   1  -9  657.93   61.29
  -2  -1   9  491.15   55.89
  -2  -1   9  606.94   53.39
   1   1  -9   58.49   26.30
   1   1  -9   94.19   32.30
   1   1  -9   61.99   19.90
   1   1  -9   60.89   28.40
   1   1  -9  107.39   42.50
  -1  -1   9   68.79   29.90
   0   1  -9  515.75   67.49
   0   1  -9  448.36   59.39
   0   1  -9  463.25   62.59
   0   1  -9  423.86   39.40
   0   1  -9  481.65   38.30
   0   1  -9  476.75   50.89
   0  -1   9  400.66   50.99
  -1   1  -9  -25.50   18.70
  -1   1  -9  -34.00   29.70
  -1   1  -9   19.90   24.30
  -1   1  -9    3.30    5.40
  -1   1  -9  -35.40   32.50
  -1   1  -9   18.70   21.90
   1  -1   9    8.50   26.00
   3   0  -9  240.28   48.10
   3   0  -9  192.98   33.80
  -3   0   9  231.98   43.10
   2   0  -9  191.18   40.90
   2   0  -9  147.39   46.20
   2   0  -9  210.18   41.10
   2   0  -9  171.38   30.10
  -2   0   9  225.18   42.10
   1   0  -9  386.36   62.29
   1   0  -9  429.76   49.80
   1   0  -9  376.66   65.79
   1   0  -9  355.36   46.20
  -1   0   9  378.16   48.80
  -1   0   9  398.56   43.60
   0   0  -9  496.05   93.29
   0   0  -9  534.45   70.69
   0   0  -9  553.34   74.99
   0   0  -9  535.25   51.79
   0   0   9  608.64   43.40
   0   0   9  492.75   53.49
  -1   0  -9  295.07   54.09
  -1   0  -9  244.78   33.80
  -1   0  -9  212.28   47.00
   1   0   9  213.88   38.30
  -2   0  -9  489.55   41.80
  -2   0  -9  578.34   51.49
  -2   0  -9  512.35   63.89
  -2   0  -9  526.45   63.19
  -2   0  -9  623.44   70.99
   2   0   9  638.64   59.79
   3  -1  -9  496.05   51.19
   3  -1  -9  541.95   76.39
  -3   1   9  652.63   60.39
  -3   1   9  542.25   61.09
   2  -1  -9   23.30   38.70
   2  -1  -9   -1.90   25.90
   2  -1  -9   31.50   26.80
   2  -1  -9   22.40   25.70
  -2   1   9    4.00   27.40
  -2   1   9  -12.60   23.50
   1  -1  -9  812.12   56.59
   1  -1  -9  801.42   61.09
   1  -1  -9  769.32   76.89
   1  -1  -9  761.72   65.29
  -1   1   9  642.64   60.39
  -1   1   9  745.23   51.39
   0  -1  -9   15.30   32.80
   0  -1  -9   40.10   23.30
   0  -1  -9    8.70   20.90
   0  -1  -9   46.40   31.80
   0   1   9   11.30   16.60
   0   1   9    4.60   26.10
   0   1   9    9.70   14.80
  -1  -1  -9  737.33   73.79
  -1  -1  -9  647.24   99.79
  -1  -1  -9  746.23   49.99
   1   1   9  840.12   64.79
   1   1   9  811.22   51.59
  -2  -1  -9   83.59   20.60
  -2  -1  -9  109.79   38.20
  -2  -1  -9   49.30   31.80
  -2  -1  -9   76.59   34.60
   2   1   9   42.80   28.90
  -3  -1  -9  336.37   61.19
  -3  -1  -9  328.47   50.29
  -3  -1  -9  481.55   60.79
  -3  -1  -9  613.14   57.89
   3   1   9  371.46   58.59
   2  -2  -9  512.65   57.79
   2  -2  -9  580.54  122.19
   2  -2  -9  486.05   54.49
  -2   2   9  618.44   53.49
  -2   2   9  744.03   88.49
   1  -2  -9  393.86   65.49
   1  -2  -9  265.27   46.60
   1  -2  -9  179.98   36.30
  -1   2   9  223.28   53.39
  -1   2   9  245.68   35.50
  -1   2   9  241.88   42.70
   0  -2  -9  241.08   43.30
   0  -2  -9  254.77   42.00
   0  -2  -9  324.17   58.39
   0   2   9  321.07   26.60
   0   2   9  327.97   45.50
   0   2   9  446.26   71.59
   0   2   9  272.97   32.10
  -1  -2  -9  326.77   56.89
  -1  -2  -9  313.27   64.79
   1   2   9  333.27   56.69
   1   2   9  377.46   40.50
   1   2   9  336.67   43.80
   1   2   9  337.37   29.50
  -2  -2  -9   94.69   38.00
  -2  -2  -9   -6.10   29.20
   2   2   9  -25.50   25.00
   2   2   9   16.50   21.60
  -3  -2  -9  322.27   48.00
  -3  -2  -9  373.06   54.49
  -3  -2  -9  483.35   66.49
   3   2   9  592.24   67.39
   1  -3  -9   34.80   27.20
   1  -3  -9   10.00   28.70
   1  -3  -9   25.70   34.60
  -1   3   9    1.40   19.50
  -1   3   9  101.49   46.00
  -1   3   9  -28.60   20.40
   0  -3  -9  549.95   71.89
   0  -3  -9  561.24   60.99
   0  -3  -9  621.74   58.69
   0   3   9  672.13   57.59
   0   3   9  614.04   41.80
   0   3   9  481.05   73.29
   0   3   9  514.05   31.70
  -1  -3  -9   58.29   39.30
  -1  -3  -9   79.89   29.50
   1   3   9  118.59   29.00
   1   3   9  127.59   27.50
   1   3   9   72.79   17.20
   1   3   9  120.39   57.39
  -2  -3  -9  631.14   68.59
  -2  -3  -9  761.12   72.39
   2   3   9  712.33   83.29
   2   3   9  626.14   52.99
   2   3   9  610.44   57.59
  -3  -3  -9  357.36   32.50
  -3  -3  -9  268.47   52.49
  -3  -3  -9  199.48   22.50
  -3  -3  -9  258.07   46.50
   3   3   9  335.37   57.89
   3   3   9  296.77   50.89
   0  -4  -9  454.75   87.39
   0  -4  -9  477.45   58.19
   0  -4  -9  567.04   61.29
   0   4   9  342.57   47.80
   0   4   9  400.86   72.49
   0   4   9  454.05   39.80
  -1  -4  -9   62.19   43.20
   1   4   9  142.99   20.90
   1   4   9  -28.10   43.00
   1   4   9  131.89   28.70
   1   4   9   87.49   32.10
  -2  -4  -9  434.66   64.09
  -2  -4  -9  541.85   63.89
   2   4   9  374.66   78.99
   2   4   9  480.05   53.89
   2   4   9  491.45   48.50
  -3  -4  -9   50.79   12.00
  -3  -4  -9  138.89   40.30
  -3  -4  -9   84.39   38.00
   3   4   9  146.79   49.00
   3   4   9   56.59   33.60
   2   5   9   21.20   25.10
   0   0   0    0.00    0.00


_computing_structure_solution     'SHELXT 2018/2 (Sheldrick, 2018)'
_computing_structure_solution     'SHELXT 2014/5 (Sheldrick, 2014)'
;
_shelx_hkl_checksum              75050
_olex2_submission_special_instructions 'No special instructions were received'
loop_
_space_group_symop_operation_xyz
'x, y, z'
'-x, -y, -z'
loop_
_atom_site_label
_atom_site_type_symbol
_atom_site_fract_x
_atom_site_fract_y
_atom_site_fract_z
_atom_site_U_iso_or_equiv
_atom_site_adp_type
_atom_site_occupancy
_atom_site_site_symmetry_order
_atom_site_calc_flag
_atom_site_refinement_flags_posn
_atom_site_refinement_flags_adp
_atom_site_refinement_flags_occupancy
_atom_site_disorder_assembly
_atom_site_disorder_group
Br1 Br 0.73011(4) 0.11619(3) 0.12488(3) 0.02096(8) Uani 1 1 d . . . . .
C1 C 0.7768(3) 0.8168(3) 0.7494(3) 0.0161(4) Uani 1 1 d . . . . .
C2 C 0.7724(3) 0.6531(3) 0.6628(3) 0.0137(4) Uani 1 1 d . . . . .
C3 C 0.8191(3) 0.4625(3) 0.7575(3) 0.0168(4) Uani 1 1 d . . . . .
H3 H 0.853904 0.432947 0.877970 0.020 Uiso 1 1 calc R U . . .
C4 C 0.7662(3) 0.3524(3) 0.5041(3) 0.0174(5) Uani 1 1 d . . . . .
H4 H 0.766441 0.245151 0.452135 0.021 Uiso 1 1 calc R U . . .
C5 C 0.7164(3) 0.5424(3) 0.4037(3) 0.0149(4) Uani 1 1 d . . . . .
C6 C 0.7223(3) 0.6935(3) 0.4880(3) 0.0146(4) Uani 1 1 d . . . . .
H6 H 0.691664 0.823974 0.424192 0.018 Uiso 1 1 calc R U . . .
H1 H 0.839(5) 0.204(5) 0.732(4) 0.041(9) Uiso 1 1 d . . . . .
H2 H 0.810(5) 0.854(5) 0.961(4) 0.043(9) Uiso 1 1 d . . . . .
N1 N 0.8135(3) 0.3216(3) 0.6730(2) 0.0190(4) Uani 1 1 d . . . . .
N2 N 0.6669(3) 0.5749(3) 0.2329(2) 0.0238(4) Uani 1 1 d . . . . .
H2A H 0.665895 0.476291 0.184485 0.029 Uiso 1 1 calc R U . . .
H2B H 0.635612 0.694739 0.170076 0.029 Uiso 1 1 calc R U . . .
O1 O 0.7418(3) 0.9827(2) 0.6701(2) 0.0240(4) Uani 1 1 d . . . . .
O2 O 0.8235(3) 0.7595(3) 0.9161(2) 0.0206(4) Uani 1 1 d . . . . .
loop_
_atom_site_aniso_label
_atom_site_aniso_U_11
_atom_site_aniso_U_22
_atom_site_aniso_U_33
_atom_site_aniso_U_23
_atom_site_aniso_U_13
_atom_site_aniso_U_12
Br1 0.02566(14) 0.01826(12) 0.01932(12) -0.00669(8) 0.00120(8) -0.00978(10)
C1 0.0156(11) 0.0158(11) 0.0181(10) -0.0029(9) -0.0008(8) -0.0084(9)
C2 0.0114(10) 0.0132(10) 0.0169(10) -0.0020(8) -0.0004(8) -0.0063(9)
C3 0.0209(12) 0.0148(11) 0.0150(10) -0.0011(8) -0.0019(8) -0.0092(9)
C4 0.0186(11) 0.0149(11) 0.0213(11) -0.0062(8) 0.0028(9) -0.0093(9)
C5 0.0132(10) 0.0167(11) 0.0157(10) -0.0032(8) 0.0025(8) -0.0078(9)
C6 0.0147(11) 0.0107(10) 0.0168(10) 0.0013(8) -0.0007(8) -0.0056(9)
N1 0.0276(11) 0.0111(9) 0.0196(9) 0.0001(7) -0.0005(8) -0.0111(8)
N2 0.0371(12) 0.0199(10) 0.0154(9) -0.0020(8) -0.0022(8) -0.0145(9)
O1 0.0400(10) 0.0149(8) 0.0208(8) 0.0005(6) -0.0036(7) -0.0169(8)
O2 0.0325(10) 0.0163(8) 0.0145(8) -0.0017(6) -0.0033(6) -0.0129(8)
loop_
_atom_type_symbol
_atom_type_description
_atom_type_scat_dispersion_real
_atom_type_scat_dispersion_imag
_atom_type_scat_source
C C 0.0033 0.0016 'International Tables Vol C Tables 4.2.6.8 and 6.1.1.4'
H H 0.0000 0.0000 'International Tables Vol C Tables 4.2.6.8 and 6.1.1.4'
Br Br -0.2901 2.4595 'International Tables Vol C Tables 4.2.6.8 and 6.1.1.4'
O O 0.0106 0.0060 'International Tables Vol C Tables 4.2.6.8 and 6.1.1.4'
N N 0.0061 0.0033 'International Tables Vol C Tables 4.2.6.8 and 6.1.1.4'
loop_
_geom_angle_atom_site_label_1
_geom_angle_atom_site_label_2
_geom_angle_atom_site_label_3
_geom_angle
_geom_angle_site_symmetry_1
_geom_angle_site_symmetry_3
O1 C1 C2 121.99(19) . .
O1 C1 O2 125.0(2) . .
O2 C1 C2 113.05(18) . .
C3 C2 C1 120.25(19) . .
C6 C2 C1 119.25(18) . .
C6 C2 C3 120.49(19) . .
C2 C3 H3 121.2 . .
N1 C3 C2 117.6(2) . .
N1 C3 H3 121.2 . .
C5 C4 H4 120.0 . .
N1 C4 H4 120.0 . .
N1 C4 C5 120.00(19) . .
C4 C5 C6 117.16(19) . .
N2 C5 C4 120.2(2) . .
N2 C5 C6 122.60(19) . .
C2 C6 C5 120.33(19) . .
C2 C6 H6 119.8 . .
C5 C6 H6 119.8 . .
C3 N1 H1 118(2) . .
C4 N1 C3 124.39(19) . .
C4 N1 H1 118(2) . .
C5 N2 H2A 120.0 . .
C5 N2 H2B 120.0 . .
H2A N2 H2B 120.0 . .
C1 O2 H2 111(2) . .
loop_
_geom_bond_atom_site_label_1
_geom_bond_atom_site_label_2
_geom_bond_distance
_geom_bond_site_symmetry_2
C1 C2 1.497(3) .
C1 O1 1.209(3) .
C1 O2 1.314(3) .
C2 C3 1.389(3) .
C2 C6 1.379(3) .
C3 H3 0.9500 .
C3 N1 1.340(3) .
C4 H4 0.9500 .
C4 C5 1.398(3) .
C4 N1 1.336(3) .
C5 C6 1.407(3) .
C5 N2 1.353(3) .
C6 H6 0.9500 .
N1 H1 0.87(3) .
N2 H2A 0.8800 .
N2 H2B 0.8800 .
O2 H2 0.79(3) .
loop_
_geom_torsion_atom_site_label_1
_geom_torsion_atom_site_label_2
_geom_torsion_atom_site_label_3
_geom_torsion_atom_site_label_4
_geom_torsion
_geom_torsion_site_symmetry_1
_geom_torsion_site_symmetry_2
_geom_torsion_site_symmetry_3
_geom_torsion_site_symmetry_4
C1 C2 C3 N1 -179.7(2) . . . .
C1 C2 C6 C5 -179.81(19) . . . .
C2 C3 N1 C4 0.1(3) . . . .
C3 C2 C6 C5 0.5(3) . . . .
C4 C5 C6 C2 -1.0(3) . . . .
C5 C4 N1 C3 -0.6(3) . . . .
C6 C2 C3 N1 0.0(3) . . . .
N1 C4 C5 C6 1.0(3) . . . .
N1 C4 C5 N2 -179.5(2) . . . .
N2 C5 C6 C2 179.5(2) . . . .
O1 C1 C2 C3 178.2(2) . . . .
O1 C1 C2 C6 -1.5(3) . . . .
O2 C1 C2 C3 -1.3(3) . . . .
O2 C1 C2 C6 179.00(19) . . . .
