#------------------------------------------------------------------------------
#$Date: 2022-03-28 12:26:18 +0300 (Mon, 28 Mar 2022) $
#$Revision: 274040 $
#$URL: file:///home/coder/svn-repositories/cod/cif/8/10/49/8104901.cif $
#------------------------------------------------------------------------------
#
# This file is available in the Crystallography Open Database (COD),
# http://www.crystallography.net/
#
# All data on this site have been placed in the public domain by the
# contributors.
#
data_8104901
loop_
_publ_author_name
'Averdunk, Arthur'
'Hosten, Eric C.'
'Betz, Richard'
_publ_section_title
;
 Crystal structure of phenarsazine chloride dimethylsulfoxide solvate,
 C14H15AsClNOS
;
_journal_issue                   1
_journal_name_full
'Zeitschrift f\"ur Kristallographie - New Crystal Structures'
_journal_page_first              129
_journal_page_last               131
_journal_paper_doi               10.1515/ncrs-2020-0394
_journal_volume                  236
_journal_year                    2021
_chemical_formula_sum            'C14 H15 As Cl N O S'
_chemical_formula_weight         355.70
_chemical_name_systematic
'phenarsazine chloride dimethyl sulfoxide solvate'
_space_group_IT_number           4
_space_group_name_Hall           'P 2yb'
_space_group_name_H-M_alt        'P 1 21 1'
_symmetry_cell_setting           monoclinic
_symmetry_Int_Tables_number      4
_symmetry_space_group_name_Hall  'P 2yb'
_symmetry_space_group_name_H-M   'P 1 21 1'
_atom_sites_solution_hydrogens   mixed
_atom_sites_solution_primary     direct
_atom_sites_solution_secondary   difmap
_cell_angle_alpha                90
_cell_angle_beta                 90.130(2)
_cell_angle_gamma                90
_cell_formula_units_Z            2
_cell_length_a                   5.2852(2)
_cell_length_b                   13.3035(6)
_cell_length_c                   10.7522(5)
_cell_measurement_reflns_used    5549
_cell_measurement_temperature    200(2)
_cell_measurement_theta_max      28.30
_cell_measurement_theta_min      3.60
_cell_volume                     756.00(6)
_computing_cell_refinement       'SAINT (Bruker, 2010)'
_computing_data_collection       'APEX2 (Bruker, 2010)'
_computing_data_reduction        SAINT
_computing_molecular_graphics
'ORTEP3 (Farrugia, 2012), Mercury (Macrae et al., 2008)'
_computing_publication_material  'SHELXL-97, PLATON (Spek, 2009)'
_computing_structure_refinement  'SHELXL-97 (Sheldrick, 2015)'
_computing_structure_solution    'SHELXS-97 (Sheldrick, 2015)'
_diffrn_ambient_temperature      200(2)
_diffrn_measured_fraction_theta_full 0.997
_diffrn_measured_fraction_theta_max 0.985
_diffrn_measurement_device_type  'Bruker APEX-II CCD'
_diffrn_measurement_method       '\f and \w scans'
_diffrn_radiation_type           MoK\a
_diffrn_radiation_wavelength     0.71073
_diffrn_reflns_av_R_equivalents  0.0149
_diffrn_reflns_av_unetI/netI     0.0403
_diffrn_reflns_limit_h_max       7
_diffrn_reflns_limit_h_min       -7
_diffrn_reflns_limit_k_max       17
_diffrn_reflns_limit_k_min       -17
_diffrn_reflns_limit_l_max       14
_diffrn_reflns_limit_l_min       -10
_diffrn_reflns_number            6536
_diffrn_reflns_theta_full        25.242
_diffrn_reflns_theta_max         28.303
_diffrn_reflns_theta_min         1.894
_exptl_absorpt_coefficient_mu    2.554
_exptl_absorpt_correction_T_max  1.0000
_exptl_absorpt_correction_T_min  0.7819
_exptl_absorpt_correction_type   numerical
_exptl_absorpt_process_details
;                                                              
SADABS (Bruker, 2008)                                          
;
_exptl_crystal_colour            yellow
_exptl_crystal_density_diffrn    1.563
_exptl_crystal_description       block
_exptl_crystal_F_000             360
_exptl_crystal_size_max          0.503
_exptl_crystal_size_mid          0.396
_exptl_crystal_size_min          0.301
_refine_diff_density_max         0.570
_refine_diff_density_min         -0.334
_refine_diff_density_rms         0.051
_refine_ls_abs_structure_details
;                                                                          
Flack, H. D. (1983)                                                        
<i>Acta Cryst.</i> A<b>39</b>, 882--892.                                   
;
_refine_ls_abs_structure_Flack   0.023(10)
_refine_ls_extinction_coef       .
_refine_ls_extinction_method     none
_refine_ls_goodness_of_fit_ref   1.024
_refine_ls_hydrogen_treatment    mixed
_refine_ls_matrix_type           full
_refine_ls_number_parameters     212
_refine_ls_number_reflns         3458
_refine_ls_number_restraints     8
_refine_ls_restrained_S_all      1.027
_refine_ls_R_factor_all          0.0215
_refine_ls_R_factor_gt           0.0200
_refine_ls_shift/su_max          0.000
_refine_ls_shift/su_mean         0.000
_refine_ls_structure_factor_coef Fsqd
_refine_ls_weighting_details
'w=1/[\s^2^(Fo^2^)+(0.0136P)^2^] where P=(Fo^2^+2Fc^2^)/3'
_refine_ls_weighting_scheme      calc
_refine_ls_wR_factor_gt          0.0498
_refine_ls_wR_factor_ref         0.0503
_reflns_number_gt                3278
_reflns_number_total             3458
_reflns_threshold_expression     'I > 2\s(I)'
_cod_data_source_file            suppl_j_ncrs-2020-0394_suppl.cif
_cod_data_source_block           I
_cod_depositor_comments
;
The following automatic conversions were performed:

data item '_symmetry_cell_setting' value 'Monoclinic' was changed to
'monoclinic' in accordance with the built-in table derived from the
CIF Core dictionary named 'cif_core.dic' version 2.4.5 last updated
on 2014-11-21.

Automatic conversion script
Id: cif_fix_values 8738 2021-04-28 16:35:53Z antanas 
;
_cod_original_sg_symbol_H-M      P2(1)
_cod_database_code               8104901
_iucr_geom_bonds_special_details
;                                                              
<i>C<i>~g~(1) is the centroid of carbon atoms C21--C26.              
;
_shelx_res_file
;
TITL ka034_a.res in P2(1)
    ka034.res
    created by SHELXL-2018/3 at 09:15:41 on 20-May-2020
REM Old TITL ka034_na2_P21 in P2(1)
REM SHELXT solution in P2(1): R1 0.097, Rweak 0.039, Alpha 0.095
REM <I/s>   0.519 for    7 systematic absences,  Orientation as input
REM Flack x =  0.124 ( 0.006 ) from  1253 Parsons' quotients
REM Formula found by SHELXT:  C13 N3 O3 As
CELL  0.71073   5.2852  13.3035  10.7522   90.000   90.130   90.000
ZERR    2.000   0.0002   0.0006   0.0005    0.000    0.002    0.000
LATT -1
SYMM -X, 1/2+Y, -Z
SFAC C H As Cl N O S
UNIT 28 30 2 2 2 2 2

EQIV $1  -x,-1/2+y,1-z
EQIV $2  1+x,y,1+z

HTAB N1   O3
HTAB N1   O4
HTAB C13  O3
HTAB C25  O3_$1
HTAB C32  Cl1_$2

ACTA
BOND $H
CONF
FMAP 2
HTAB
L.S. 50
LIST 4
PLAN -20
SIZE 0.301 0.396 0.503
TEMP -73.140
TWIN

DFIX 0.88 N1 H1
EADP O3 O4

REM WGHT 0.013600
REM WGHT 0.013600
REM WGHT 0.013600
WGHT    0.013600
BASF   0.02296
FVAR       0.29924   0.57806
AS1   3   -0.095175    0.485040    0.153466    11.00000    0.02820    0.03533 =
         0.02854   -0.00296   -0.00555   -0.00134
CL1   4    0.154574    0.377276    0.041000    11.00000    0.06397    0.05300 =
         0.05227   -0.02483    0.01381   -0.00308
N1    5    0.299227    0.500518    0.385227    11.00000    0.02888    0.03310 =
         0.02937    0.00185   -0.00734   -0.00475
C11   1    0.164650    0.580247    0.190499    11.00000    0.02743    0.02618 =
         0.02927   -0.00333   -0.00055    0.00204
C12   1    0.325419    0.572708    0.293903    11.00000    0.02587    0.02601 =
         0.02714   -0.00349    0.00204    0.00374
C13   1    0.525438    0.642426    0.306550    11.00000    0.02790    0.03422 =
         0.03164   -0.00606   -0.00107   -0.00113
AFIX  43
H13   2    0.637250    0.637527    0.375589    11.00000   -1.20000
AFIX   0
C14   1    0.559830    0.716567    0.220932    11.00000    0.03745    0.03345 =
         0.04645   -0.00227    0.00294   -0.00758
AFIX  43
H14   2    0.696935    0.762179    0.230016    11.00000   -1.20000
AFIX   0
C15   1    0.394829    0.726093    0.119692    11.00000    0.05128    0.03999 =
         0.04303    0.01124   -0.00021   -0.00830
AFIX  43
H15   2    0.416279    0.778848    0.061109    11.00000   -1.20000
AFIX   0
C16   1    0.200918    0.657846    0.106273    11.00000    0.04536    0.03881 =
         0.03335    0.00474   -0.00084    0.00197
AFIX  43
H16   2    0.088926    0.664068    0.037469    11.00000   -1.20000
AFIX   0
C21   1   -0.075165    0.412240    0.306771    11.00000    0.02449    0.02741 =
         0.03368   -0.00108    0.00084    0.00163
C22   1    0.115080    0.428173    0.395127    11.00000    0.02678    0.02900 =
         0.03238   -0.00047    0.00290    0.00313
C23   1    0.122973    0.365218    0.500775    11.00000    0.03562    0.04005 =
         0.03564    0.00619   -0.00129    0.00171
AFIX  43
H23   2    0.252429    0.374264    0.561185    11.00000   -1.20000
AFIX   0
C24   1   -0.054193    0.291197    0.517070    11.00000    0.04426    0.04330 =
         0.04663    0.01448    0.00424    0.00006
AFIX  43
H24   2   -0.044685    0.249049    0.588250    11.00000   -1.20000
AFIX   0
C25   1   -0.248718    0.276742    0.430570    11.00000    0.03788    0.03874 =
         0.05941    0.00924    0.00447   -0.00947
AFIX  43
H25   2   -0.372825    0.226099    0.443029    11.00000   -1.20000
AFIX   0
C26   1   -0.256563    0.337324    0.327188    11.00000    0.03216    0.03691 =
         0.04575   -0.00038   -0.00086   -0.00355
AFIX  43
H26   2   -0.388363    0.328178    0.268040    11.00000   -1.20000
AFIX   0
H1    2    0.404960    0.507503    0.438437    11.00000    0.02989
PART 1 21.00000
S3    7    0.814568    0.553416    0.674382    21.00000    0.05008    0.04037 =
         0.04582    0.00105   -0.01133   -0.00108
O3    6    0.598196    0.560996    0.589764    21.00000    0.08806    0.04387 =
         0.04871   -0.00883   -0.03840    0.01602
C31   1    0.770438    0.657372    0.776031    21.00000    0.09853    0.04393 =
         0.06461   -0.02006   -0.03422    0.01097
AFIX 137
H31A  2    0.801214    0.720047    0.730626    21.00000   -1.50000
H31B  2    0.889156    0.652337    0.845900    21.00000   -1.50000
H31C  2    0.596627    0.657015    0.807583    21.00000   -1.50000
AFIX   0
C32   1    0.748749    0.456043    0.782226    21.00000    0.22648    0.05164 =
         0.04970    0.02238   -0.01516    0.01198
AFIX 137
H32A  2    0.731727    0.392078    0.737781    21.00000   -1.50000
H32B  2    0.590680    0.471054    0.825928    21.00000   -1.50000
H32C  2    0.887473    0.451193    0.842560    21.00000   -1.50000
AFIX   0
PART 2 -21.00000
SAME S3 O3 C31 C32
S4    7    0.708731    0.505983    0.713728   -21.00000    0.06610    0.05324 =
         0.04172    0.00954   -0.01272   -0.01106
O4    6    0.605291    0.536425    0.596309   -21.00000    0.08806    0.04387 =
         0.04871   -0.00883   -0.03840    0.01602
C41   1    0.995479    0.564418    0.744117   -21.00000    0.04944    0.14981 =
         0.06677   -0.01558   -0.01467   -0.01597
AFIX 137
H41A  2    1.118214    0.545731    0.679965   -21.00000   -1.50000
H41B  2    1.058349    0.543067    0.825761   -21.00000   -1.50000
H41C  2    0.971965    0.637488    0.743802   -21.00000   -1.50000
AFIX   0
C42   1    0.535079    0.563802    0.834197   -21.00000    0.05504    0.18255 =
         0.04327    0.01226    0.00148    0.01077
AFIX 137
H42A  2    0.471946    0.629117    0.805607   -21.00000   -1.50000
H42B  2    0.644969    0.573529    0.906740   -21.00000   -1.50000
H42C  2    0.391934    0.520852    0.857113   -21.00000   -1.50000
PART 0
REM #####
AFIX   0
HKLF 4




REM  ka034_a.res in P2(1)
REM wR2 = 0.0503, GooF = S = 1.024, Restrained GooF = 1.027 for all data
REM R1 = 0.0200 for 3278 Fo > 4sig(Fo) and 0.0215 for all 3458 data
REM 212 parameters refined using 8 restraints

END

WGHT      0.0136      0.0000

REM Instructions for potential hydrogen bonds
HTAB C13 O3
HTAB N1 O3
HTAB N1 O4
HTAB C32 Cl1_$2

REM Highest difference peak  0.570,  deepest hole -0.334,  1-sigma level  0.051
Q1    1   0.7040  0.6035  0.6996  11.00000  0.05    0.57
Q2    1   0.7132  0.3645  0.7010  11.00000  0.05    0.38
Q3    1   0.5285  0.4849  0.6308  11.00000  0.05    0.30
Q4    1   0.5526  0.4979  0.7348  11.00000  0.05    0.22
Q5    1   0.9272  0.4847  0.7483  11.00000  0.05    0.20
Q6    1   0.3382  0.4249  0.3106  11.00000  0.05    0.18
Q7    1   0.1207  0.3959  0.4485  11.00000  0.05    0.15
Q8    1   0.5210  0.3848 -0.0207  11.00000  0.05    0.15
Q9    1   0.4411  0.5241  0.8069  11.00000  0.05    0.15
Q10   1   0.1585  0.5577  0.4007  11.00000  0.05    0.15
Q11   1   0.1252  0.5649  0.4465  11.00000  0.05    0.14
Q12   1  -0.1549  0.4824  0.0788  11.00000  0.05    0.14
Q13   1   0.4122  0.4474  0.7858  11.00000  0.05    0.14
Q14   1  -0.1636  0.5504 -0.0581  11.00000  0.05    0.14
Q15   1  -0.5331  0.3856  0.2735  11.00000  0.05    0.14
Q16   1   0.0740  0.3887 -0.0223  11.00000  0.05    0.14
Q17   1   0.0288  0.5846 -0.0022  11.00000  0.05    0.14
Q18   1   0.4751  0.3596 -0.0018  11.00000  0.05    0.13
Q19   1  -0.0315  0.4361  0.1708  11.00000  0.05    0.13
Q20   1   0.5574  0.3808  0.7253  11.00000  0.05    0.13
;
_shelx_hkl_file
;
   1   0   0  323.23   16.99
  -1   0   0  313.57   16.98
  -2   0   0   10.60    0.61
   2   0   0   10.72    0.62
  -3   0   0   66.29    3.57
   4   0   0   65.58    3.49
  -4   0   0   64.89    3.53
  -5   0   0   50.84    2.77
   5   0   0   50.19    2.75
   6   0   0   12.04    0.81
  -6   0   0   11.50    0.81
   7   0   0    0.49    0.32
  -7   0   0    0.89    0.42
   1  -1   0   74.46    3.82
  -1  -1   0   74.56    3.83
  -1  -1   0   73.57    3.76
   1   1   0   69.83    3.76
   1   1   0   67.67    3.82
  -1   1   0   68.83    3.82
  -2  -1   0   41.32    2.58
   2  -1   0   43.23    2.59
   2   1   0   52.55    2.55
   2   1   0   52.43    2.59
  -2   1   0   50.05    2.58
  -3  -1   0  118.16    6.67
   3   1   0  127.97    6.59
  -3   1   0  128.88    6.68
  -4  -1   0   48.84    2.45
   4   1   0   43.34    2.43
  -4   1   0   42.35    2.45
   5  -1   0   26.35    1.47
  -5  -1   0   26.97    1.48
  -5  -1   0   25.12    1.44
  -5   1   0   25.61    1.48
   5   1   0   25.29    1.48
  -6  -1   0    1.74    0.37
   6  -1   0    1.66    0.30
   7  -1   0    8.82    0.71
  -7  -1   0    8.68    0.74
   7   1   0    8.25    0.71
  -7   1   0    8.05    0.77
  -1  -2   0  570.90   26.86
   1  -2   0  577.08   28.24
  -1  -2   0  519.07   27.83
  -1   2   0  503.33   28.22
   1   2   0  522.12   26.84
   1   2   0  492.44   27.82
   1   2   0  520.65   28.20
  -3  -2   0    6.65    0.43
  -3  -2   0    6.93    0.43
  -3   2   0    5.52    0.43
   3   2   0    5.71    0.43
  -4  -2   0   73.43    3.80
   4   2   0   68.40    3.76
  -4   2   0   69.28    3.80
  -5  -2   0   69.03    3.63
   5  -2   0   71.13    3.58
  -5  -2   0   71.99    3.76
   5   2   0   65.02    3.73
  -5   2   0   69.66    3.77
   6  -2   0   12.87    0.87
  -6  -2   0   12.81    0.89
   7  -2   0    0.62    0.34
  -7  -2   0    0.90    0.40
   7   2   0    1.19    0.35
  -7   2   0    1.20    0.42
   0  -3   0    0.19    0.08
   0  -3   0   -0.09    0.06
   0   3   0    0.02    0.06
   0   3   0   -0.07    0.08
  -1  -3   0  192.21   11.29
  -1  -3   0  202.87   11.42
   1  -3   0  200.21   11.37
  -1  -3   0  203.74   10.91
  -1   3   0  219.36   10.83
  -1   3   0  216.72   11.46
   1   3   0  225.79   11.45
   1   3   0  222.43   11.29
  -1   3   0  228.05   11.46
   1   3   0  225.57   10.88
   2  -3   0  334.30   18.06
  -2  -3   0  334.07   17.17
  -2  -3   0  318.87   17.78
  -2  -3   0  329.98   18.06
   2  -3   0  326.68   17.14
  -2   3   0  359.29   18.13
   2   3   0  353.68   17.89
   2   3   0  344.72   18.05
   3  -3   0  122.36    6.49
  -3  -3   0  124.03    6.83
  -3  -3   0  124.95    6.52
  -3   3   0  135.02    6.85
   3   3   0  133.45    6.76
  -4  -3   0   29.02    1.48
  -4  -3   0   30.34    1.52
   4  -3   0   30.26    1.42
  -4   3   0   22.70    1.51
   4   3   0   22.67    1.49
  -5  -3   0    5.62    0.49
   5  -3   0    5.78    0.39
  -5  -3   0    5.50    0.45
   5   3   0    4.35    0.47
  -5   3   0    4.48    0.47
   6  -3   0    1.30    0.31
  -6  -3   0    1.03    0.36
   6   3   0    1.03    0.31
   0  -4   0   97.15    5.95
   0   4   0  119.26    6.02
   0   4   0  117.35    5.95
   1   4   0   21.79    1.23
  -1   4   0   23.13    1.23
   1   4   0   22.76    1.22
  -1   4   0   22.63    1.24
   1   4   0   22.18    1.17
  -2  -4   0   60.86    2.98
  -2  -4   0   58.82    3.08
  -2  -4   0   60.38    3.12
   2  -4   0   58.08    2.94
   2  -4   0   60.99    3.13
   2   4   0   53.76    3.12
   2   4   0   55.50    3.08
  -2   4   0   54.79    3.12
  -3  -4   0   34.45    1.90
  -3  -4   0   35.83    1.91
   3  -4   0   35.49    1.79
  -3  -4   0   36.18    1.85
  -3   4   0   33.70    1.92
   3   4   0   33.24    1.89
  -4  -4   0   19.20    1.05
   4  -4   0   19.98    0.97
  -4  -4   0   19.05    1.05
   4   4   0   16.25    1.05
  -4   4   0   16.13    1.06
  -5  -4   0   37.76    2.11
  -5  -4   0   41.07    2.17
   5  -4   0   40.83    2.04
  -5   4   0   38.46    2.18
   5   4   0   36.65    2.16
  -6  -4   0   29.00    1.64
   6   4   0   27.49    1.63
   0  -5   0   -0.15    0.09
   0   5   0    0.21    0.12
   0   5   0   -0.10    0.08
   1  -5   0  254.57   13.89
  -1  -5   0  251.45   13.68
  -1  -5   0  262.37   13.23
  -1  -5   0  262.85   13.88
   1   5   0  258.11   13.70
   1   5   0  261.35   13.18
  -1   5   0  260.56   13.87
   1   5   0  265.68   13.90
  -2  -5   0  267.51   14.47
  -2  -5   0  278.67   14.04
  -2  -5   0  286.35   14.75
  -2   5   0  273.89   14.72
   2   5   0  271.98   14.56
  -3  -5   0  115.85    5.98
  -3  -5   0  113.76    5.71
   3  -5   0  109.21    5.66
  -3  -5   0  109.40    5.91
   3   5   0  110.95    5.91
  -3   5   0  110.54    5.99
  -4  -5   0   25.11    1.38
  -4  -5   0   26.36    1.41
   4  -5   0   26.14    1.29
  -4   5   0   22.64    1.42
   4   5   0   23.35    1.40
  -5  -5   0   -0.23    0.22
  -5  -5   0   -0.15    0.28
  -5   5   0   -0.07    0.26
   5   5   0   -0.06    0.23
  -6  -5   0    7.44    0.69
   6   5   0    7.34    0.64
   0  -6   0   77.22    4.77
   0   6   0  101.04    4.80
  -1  -6   0   60.98    3.03
  -1  -6   0   61.23    3.14
  -1  -6   0   61.75    3.17
  -1   6   0   55.26    3.19
   1   6   0   55.57    3.02
  -2  -6   0   18.04    0.95
  -2  -6   0   18.06    0.95
  -2  -6   0   18.49    0.93
  -2   6   0   13.93    0.96
   2   6   0   14.20    0.93
  -3  -6   0    5.90    0.47
  -3  -6   0    5.89    0.46
   3   6   0    7.30    0.48
  -3   6   0    7.48    0.51
  -5  -6   0   42.27    2.29
  -5  -6   0   44.10    2.35
  -5   6   0   42.11    2.37
   5   6   0   40.77    2.34
  -6  -6   0   17.15    1.12
   6   6   0   18.40    1.13
   0  -7   0    0.00    0.12
   0   7   0   -0.10    0.16
  -1  -7   0   32.78    1.70
  -1  -7   0   32.79    1.68
  -1   7   0   27.17    1.71
  -2  -7   0   89.79    4.24
  -2  -7   0   89.15    4.39
  -2  -7   0   90.77    4.44
   2   7   0   74.77    4.38
  -2   7   0   75.54    4.45
  -2   7   0   75.41    4.18
  -3  -7   0   46.85    2.51
  -3  -7   0   47.64    2.60
  -3   7   0   47.86    2.63
   3   7   0   48.51    2.59
  -4  -7   0   29.62    1.70
  -4  -7   0   31.72    1.75
   4   7   0   31.51    1.74
  -4   7   0   31.53    1.78
  -5  -7   0    0.20    0.31
  -5  -7   0   -0.02    0.25
  -5   7   0   -0.11    0.27
   5   7   0    0.20    0.25
  -6  -7   0    6.43    0.64
   6   7   0    6.99    0.62
   0  -8   0   96.83    5.52
   0   8   0  109.13    5.55
  -1  -8   0   33.72    1.99
  -1  -8   0   33.91    2.01
   1   8   0   39.88    2.05
  -1   8   0   39.84    2.06
  -2  -8   0    6.56    0.45
  -2  -8   0    6.70    0.46
  -2   8   0    6.01    0.34
  -2   8   0    5.87    0.50
  -3  -8   0    3.20    0.38
  -3  -8   0    3.20    0.37
  -3   8   0    3.95    0.39
   3   8   0    4.20    0.39
  -4  -8   0   23.46    1.34
  -4  -8   0   25.39    1.36
   4   8   0   22.33    1.35
  -4   8   0   22.36    1.37
  -5  -8   0   24.03    1.51
   5   8   0   26.87    1.53
  -5   8   0   28.08    1.57
  -6  -8   0    6.56    0.71
   6   8   0    6.87    0.60
   0  -9   0    0.17    0.18
   0   9   0    0.06    0.19
  -1  -9   0    0.08    0.17
  -1   9   0    0.30    0.20
   1   9   0    0.34    0.21
  -2  -9   0   27.59    1.60
  -2  -9   0   27.86    1.56
  -2   9   0   29.14    1.47
  -2   9   0   30.44    1.64
  -3  -9   0   32.81    1.82
  -3  -9   0   32.56    1.87
   3   9   0   35.08    1.87
  -3   9   0   33.62    1.90
  -4  -9   0   24.67    1.47
  -4  -9   0   23.20    1.44
  -4   9   0   27.53    1.52
   4   9   0   26.72    1.49
  -5  -9   0    3.83    0.52
   5   9   0    4.17    0.50
  -5   9   0    4.15    0.52
  -6  -9   0    1.17    0.45
   0 -10   0  112.45    5.86
   0  10   0  105.63    5.89
  -1 -10   0   96.03    5.07
  -1  10   0   92.65    5.10
   1  10   0   93.56    5.10
  -2  10   0    7.43    0.59
  -2  10   0    6.87    0.40
  -3 -10   0   12.78    0.78
  -3 -10   0   12.86    0.80
  -3  10   0   10.48    0.80
  -4 -10   0   17.97    1.11
  -4 -10   0   17.62    1.08
  -4  10   0   17.95    1.14
   4  10   0   18.18    1.12
  -5 -10   0   15.61    1.12
   5  10   0   17.75    1.09
  -5  10   0   18.02    1.13
   0 -11   0    0.17    0.22
   0  11   0    0.21    0.25
  -1 -11   0    2.11    0.33
   1  11   0    2.31    0.35
  -1  11   0    2.36    0.35
  -2 -11   0   41.01    2.28
  -2  11   0   41.94    2.32
  -2  11   0   40.34    2.10
   2  11   0   40.80    2.31
  -3 -11   0   39.12    2.10
  -3 -11   0   38.22    2.15
  -3  11   0   37.96    2.18
  -4 -11   0   13.39    0.91
  -4 -11   0   13.67    0.89
  -4  11   0   14.36    0.96
  -5 -11   0    1.13    0.41
   5  11   0    1.20    0.33
   0 -12   0   78.63    4.17
   0  12   0   74.67    4.20
  -1 -12   0   13.46    0.86
  -1  12   0   13.88    0.93
   1  12   0   13.39    0.90
  -2 -12   0    7.21    0.54
   2  12   0    5.48    0.59
  -2  12   0    5.11    0.59
  -3 -12   0    6.99    0.55
  -3  12   0    5.30    0.57
  -4 -12   0    7.46    0.64
  -4  12   0    6.52    0.65
  -5 -12   0    7.75    0.71
   0  13   0    0.32    0.30
  -1 -13   0   26.23    1.48
  -1  13   0   24.94    1.54
   1  13   0   25.23    1.55
  -2 -13   0   45.44    2.39
  -2  13   0   41.14    2.42
   2  13   0   40.66    2.42
  -3 -13   0   23.62    1.38
  -3  13   0   22.58    1.44
  -4  13   0    0.50    0.34
   0  14   0   44.85    2.56
  -1 -14   0   11.19    0.77
  -1  14   0    9.98    0.79
   1  14   0   10.08    0.83
  -2 -14   0    2.38    0.36
   2  14   0    2.43    0.45
  -2  14   0    2.52    0.45
  -3 -14   0    0.02    0.31
   3  14   0   -0.01    0.34
  -3  14   0    0.15    0.37
  -4  14   0    2.23    0.46
   0  15   0    0.18    0.34
  -1 -15   0   22.43    1.29
  -1  15   0   19.58    1.34
   1  15   0   19.99    1.34
  -2 -15   0   27.42    1.51
  -2  15   0   23.63    1.56
   2  15   0   23.57    1.56
  -3  15   0    7.33    0.77
   3  15   0    8.32    0.79
   0  16   0   10.34    0.87
  -1  16   0   15.32    1.10
   1  16   0   15.02    1.10
  -2 -16   0    3.58    0.54
  -2  16   0    2.73    0.52
   2  16   0    3.05    0.53
   3  16   0    0.59    0.42
  -3  16   0    1.02    0.45
   0  17   0    0.31    0.42
  -1  17   0    0.78    0.45
   1  17   0    0.71    0.42
   2  17   0    2.71    0.51
  -2  17   0    2.76    0.51
  -7   0   1    4.71    0.59
   6   0  -1    0.18    0.25
   6   0  -1    0.35    0.25
  -6   0   1    0.11    0.27
   5   0  -1   29.91    1.66
  -5   0   1   29.26    1.68
  -4   0   1  125.80    6.69
   4   0  -1  123.74    6.59
   3   0  -1  319.46   17.03
  -3   0   1  324.07   17.22
   2   0  -1   38.89    2.06
  -2   0   1   36.69    2.05
  -1   0   1  334.52   18.38
   1   0  -1  353.89   18.40
   0   0  -1    1.30    0.10
  -1   0  -1    2.73    0.16
   1   0   1    2.64    0.17
  -1   0  -1    2.54    0.18
   2   0   1  157.74    8.26
  -2   0  -1  152.48    8.28
   3   0   1   25.87    1.41
  -3   0  -1   24.57    1.38
   4   0   1    0.16    0.18
  -4   0  -1    0.27    0.16
   5   0   1    8.45    0.65
  -5   0  -1    9.17    0.63
  -5   0  -1    8.68    0.60
   6   0   1    7.73    0.64
  -6   0  -1    7.79    0.63
  -7   0  -1   16.45    1.10
   7   0   1   17.11    1.12
  -7  -1   1   10.90    0.83
  -7   1   1   10.24    0.82
   6  -1  -1   30.79    1.65
  -6  -1   1   29.60    1.71
   6  -1  -1   31.55    1.73
   6   1  -1   29.57    1.72
  -6   1   1   29.49    1.74
   5  -1  -1   39.67    2.01
  -5  -1   1   38.42    2.12
   5  -1  -1   38.16    2.09
  -5   1   1   37.18    2.12
   5   1  -1   36.11    2.08
  -4  -1   1    0.45    0.20
  -4   1   1   -0.10    0.19
   4   1  -1    0.01    0.16
  -3  -1   1   15.58    0.82
  -3   1   1   12.98    0.83
   3   1  -1   13.45    0.80
   2  -1  -1  112.50    6.59
  -2  -1   1  109.41    6.58
   2   1  -1  133.33    6.59
   2   1  -1  132.11    6.49
  -2   1   1  129.89    6.59
  -1  -1   1  218.86   11.27
  -1  -1   1  230.82   11.49
   1  -1  -1  221.50   10.90
   1  -1  -1  230.06   11.48
  -1   1   1  200.80   11.44
   1   1  -1  203.27   11.46
  -1   1   1  203.24   10.90
   1   1  -1  203.66   11.26
   0   1   1  301.56   16.28
   0   1   1  308.84   16.06
   1  -1   1  334.95   17.43
  -1  -1  -1  333.32   16.62
   1   1   1  319.14   16.61
   1   1   1  322.76   17.23
  -1   1  -1  321.40   17.41
   1   1   1  318.23   17.41
  -1   1  -1  337.97   17.41
  -2  -1  -1    1.28    0.14
  -2   1  -1    0.92    0.14
   2   1   1    1.12    0.16
   2   1   1    0.75    0.13
   3  -1   1   79.50    4.07
  -3  -1  -1   76.80    4.05
  -3  -1  -1   77.35    3.88
   3   1   1   72.79    4.02
  -3   1  -1   72.95    4.05
   3   1   1   74.06    4.06
  -4  -1  -1  168.96    8.85
  -4  -1  -1  173.04    9.27
   4   1   1  176.51    9.18
  -4   1  -1  176.78    9.27
  -5  -1  -1   63.84    3.40
  -5  -1  -1   58.93    3.28
   5  -1   1   61.96    3.40
   5   1   1   63.44    3.40
  -5   1  -1   65.36    3.40
  -6  -1  -1    1.89    0.37
   6  -1   1    2.05    0.34
   6   1   1    1.20    0.31
  -6   1  -1    1.66    0.38
  -7  -1  -1    0.33    0.39
   7  -1   1   -0.04    0.30
  -7   1  -1    0.28    0.38
   6  -2  -1    5.16    0.53
  -6  -2   1    5.87    0.57
   6   2  -1    5.78    0.53
  -6   2   1    5.61    0.55
  -5  -2   1   15.77    1.01
   5  -2  -1   16.56    0.96
  -5  -2   1   16.42    1.03
   5   2  -1   18.48    1.03
  -5   2   1   18.11    1.05
   4  -2  -1   59.60    2.95
  -4  -2   1   60.25    3.12
   4   2  -1   55.21    3.07
  -4   2   1   53.83    3.11
  -3  -2   1  165.07    9.05
   3  -2  -1  162.85    8.60
   3   2  -1  180.29    8.95
  -3   2   1  170.26    9.06
   2  -2  -1   99.88    5.35
   2  -2  -1   95.18    5.08
  -2  -2   1   99.55    5.27
  -2  -2   1   99.70    5.34
  -2   2   1  102.37    5.35
   2   2  -1  102.59    5.27
   2   2  -1  100.81    5.35
   1  -2  -1  518.04   27.83
  -1  -2   1  479.84   27.39
  -1  -2   1  531.92   27.83
  -1  -2   1  534.10   26.44
  -1   2   1  519.19   27.84
  -1   2   1  527.37   26.45
   1   2  -1  538.82   27.82
   0  -2   1   19.13    1.02
   0  -2  -1   18.36    1.02
   0  -2  -1   17.98    1.00
   0   2   1   19.12    1.02
   0   2  -1   18.49    1.02
   0   2  -1   18.32    1.01
   0   2  -1   19.25    0.96
   0   2   1   18.79    1.00
   1  -2   1  159.50    7.77
  -1  -2  -1  164.61    7.44
  -1  -2  -1  159.43    7.63
  -1  -2  -1  159.51    7.73
   1   2   1  124.83    7.71
  -1   2  -1  130.28    7.74
   1   2   1  132.45    7.64
   1   2   1  133.36    7.37
  -1   2  -1  136.48    7.75
   2  -2   1  321.12   17.35
  -2  -2  -1  320.04   17.34
  -2  -2  -1  323.99   16.57
   2   2   1  328.21   17.35
  -2   2  -1  328.42   17.38
   2   2   1  327.30   17.21
  -3  -2  -1   86.65    4.86
  -3  -2  -1   86.03    4.65
   3  -2   1   86.43    4.88
   3   2   1   96.63    4.88
   3   2   1   94.62    4.82
  -3   2  -1   95.27    4.87
  -4  -2  -1   11.22    0.69
  -4  -2  -1   11.56    0.71
   4   2   1   11.38    0.71
  -4   2  -1   10.88    0.70
  -5  -2  -1    7.44    0.54
  -5  -2  -1    7.57    0.61
  -5   2  -1    7.94    0.56
   5   2   1    7.90    0.58
  -6  -2  -1    9.51    0.72
   6  -2   1    9.71    0.74
   6  -3  -1   21.30    1.21
  -6  -3   1   19.97    1.21
   6   3  -1   18.60    1.19
  -6   3   1   19.80    1.23
  -5  -3   1   18.68    1.20
  -5  -3   1   20.36    1.23
   5  -3  -1   19.56    1.14
   5   3  -1   22.93    1.22
  -5   3   1   22.77    1.25
   4  -3  -1   10.30    0.59
  -4  -3   1   10.16    0.66
  -4   3   1    9.57    0.67
   4   3  -1    9.96    0.64
  -3  -3   1   31.33    1.77
  -3  -3   1   32.13    1.71
   3  -3  -1   30.57    1.67
   3   3  -1   33.84    1.75
  -3   3   1   33.51    1.79
  -2  -3   1  269.07   14.02
  -2  -3   1  256.64   13.78
   2  -3  -1  270.00   13.92
  -2  -3   1  267.22   13.36
   2  -3  -1  265.02   13.31
   2   3  -1  254.47   13.94
  -2   3   1  255.06   14.07
   2   3  -1  254.62   13.83
  -1  -3   1  749.32   39.96
   1  -3  -1  748.46   39.99
   1   3  -1  763.83   39.96
   1   3  -1  768.30   37.98
  -1   3   1  720.46   39.99
   0  -3  -1  189.99    8.71
   0  -3  -1  188.79    8.84
   0   3   1  158.97    8.80
   0   3   1  150.46    8.85
   0   3  -1  154.64    8.83
   0   3  -1  146.49    8.82
  -1  -3  -1    1.79    0.19
   1  -3   1    2.01    0.18
   1  -3   1    1.92    0.17
  -1  -3  -1    2.06    0.16
  -1   3  -1    2.14    0.18
  -1   3  -1    2.18    0.19
   1   3   1    2.09    0.17
   1   3   1    2.14    0.19
  -2  -3  -1   32.41    1.90
  -2  -3  -1   32.99    1.91
  -2  -3  -1   32.46    1.84
   2  -3   1   32.96    1.93
  -2   3  -1   36.40    1.91
   2   3   1   38.40    1.91
  -2   3  -1   37.97    1.92
   2   3   1   36.44    1.92
   2   3   1   37.62    1.84
  -3  -3  -1   31.27    1.47
  -3  -3  -1   31.01    1.50
   3   3   1   24.17    1.50
   3   3   1   25.20    1.51
  -3   3  -1   24.76    1.50
  -4  -3  -1  101.20    5.30
  -4  -3  -1   98.79    5.08
  -4   3  -1   97.79    5.30
   4   3   1   97.42    5.26
  -5  -3  -1   41.19    2.33
  -5  -3  -1   44.19    2.38
   5  -3   1   44.04    2.27
   5   3   1   42.93    2.40
  -5   3  -1   45.29    2.40
  -6  -3  -1    6.25    0.61
   6   3   1    5.02    0.56
  -6  -4   1    3.76    0.57
   6   4  -1    3.97    0.46
  -5  -4   1    9.00    0.72
   5  -4  -1    9.46    0.62
  -5  -4   1    9.15    0.69
   5   4  -1   11.53    0.68
  -5   4   1   11.66    0.73
  -4  -4   1   27.00    1.56
  -4  -4   1   26.68    1.51
   4  -4  -1   26.62    1.46
  -4   4   1   28.75    1.58
   4   4  -1   29.76    1.55
  -3  -4   1   85.93    4.26
   3  -4  -1   85.03    4.22
  -3  -4   1   82.43    4.40
  -3  -4   1   86.19    4.46
   3   4  -1   80.96    4.40
  -3   4   1   76.79    4.47
  -2  -4   1   54.75    2.85
  -2  -4   1   55.06    2.76
   2  -4  -1   54.35    2.73
  -2  -4   1   53.84    2.89
  -2   4   1   51.22    2.90
   2   4  -1   51.91    2.85
  -1  -4   1   14.83    0.82
  -1  -4   1   14.92    0.80
  -1  -4   1   14.91    0.84
   1  -4  -1   15.31    0.85
   1   4  -1   15.38    0.85
  -1   4   1   14.23    0.78
   1   4  -1   14.80    0.79
  -1   4   1   14.91    0.85
   0  -4  -1  171.77    8.79
   0  -4  -1  177.30    8.68
   0  -4   1  176.05    8.81
   0   4  -1  157.65    8.78
   0   4  -1  148.94    8.77
   0   4   1  154.58    8.80
   0   4   1  158.29    8.71
   1  -4   1  100.34    5.03
  -1  -4  -1   97.35    4.78
  -1  -4  -1   98.56    4.95
   1  -4   1  100.09    5.02
  -1  -4  -1  100.27    5.02
   1   4   1   86.28    5.01
   1   4   1   87.01    4.95
  -1   4  -1   89.10    5.01
   1   4   1   86.25    4.78
  -2  -4  -1  385.63   21.12
  -2  -4  -1  384.06   20.29
   2  -4   1  401.69   21.29
  -2  -4  -1  386.19   21.32
   2   4   1  416.73   21.10
  -2   4  -1  417.80   21.38
   2   4   1  404.81   21.34
  -3  -4  -1  115.38    5.88
   3  -4   1  110.56    5.58
  -3   4  -1  107.17    5.89
   3   4   1  107.03    5.83
  -4  -4  -1    1.19    0.26
  -4  -4  -1    1.24    0.20
   4  -4   1    1.46    0.18
  -4   4  -1    1.00    0.22
   4   4   1    0.91    0.23
   5  -4   1   16.95    0.93
  -5  -4  -1   16.09    1.05
  -5  -4  -1   17.16    1.01
  -5   4  -1   17.44    1.03
   5   4   1   17.36    1.04
  -6  -4  -1   15.50    1.02
   6   4   1   15.80    1.01
  -6  -5   1   19.08    1.26
   6   5  -1   21.66    1.24
  -5  -5   1   22.75    1.31
  -5  -5   1   23.36    1.32
   5   5  -1   21.72    1.29
  -5   5   1   21.82    1.34
  -4  -5   1    6.25    0.47
   4  -5  -1    6.12    0.39
  -4  -5   1    5.64    0.47
   4   5  -1    5.36    0.43
  -4   5   1    5.70    0.50
  -3  -5   1   12.19    0.75
   3  -5  -1   11.99    0.69
  -3  -5   1   12.13    0.77
  -3  -5   1   12.30    0.75
  -3   5   1   13.55    0.80
   3   5  -1   14.15    0.76
  -2  -5   1  171.02    8.97
  -2  -5   1  170.60    8.84
  -2  -5   1  173.61    8.53
  -2   5   1  166.77    8.54
   2   5  -1  165.05    8.84
  -2   5   1  161.60    8.97
  -1  -5   1  205.45   10.06
  -1  -5   1  201.90   10.33
  -1  -5   1  212.02   10.59
   1   5  -1  185.84   10.47
  -1   5   1  187.95   10.46
  -1   5   1  189.42   10.53
   1   5  -1  193.19   10.01
   0  -5  -1   97.47    4.96
   0  -5   1   98.00    5.03
   0   5  -1   93.82    5.02
   0   5  -1   91.77    4.77
   0   5   1   91.99    5.02
   0   5  -1   91.21    5.04
   0   5   1   94.17    5.04
  -1  -5  -1    2.93    0.23
  -1  -5  -1    2.79    0.24
  -1  -5  -1    2.77    0.22
   1  -5   1    2.66    0.24
   1  -5   1    2.66    0.24
   1   5   1    2.48    0.23
  -1   5  -1    2.14    0.23
   1   5   1    2.40    0.22
   1   5   1    2.08    0.26
  -2  -5  -1    8.33    0.55
  -2  -5  -1    7.56    0.54
  -2  -5  -1    7.53    0.55
   2   5   1   10.43    0.56
   2   5   1   10.39    0.57
  -2   5  -1   10.24    0.57
  -3  -5  -1   81.88    4.13
  -3  -5  -1   81.04    3.97
   3   5   1   72.38    4.10
  -3   5  -1   72.15    4.14
  -4  -5  -1   19.91    1.20
  -4  -5  -1   21.38    1.21
   4  -5   1   20.99    1.11
   4   5   1   22.24    1.24
  -4   5  -1   22.28    1.23
  -5  -5  -1    4.37    0.50
   5   5   1    5.33    0.51
  -5   5  -1    5.46    0.49
  -6  -5  -1    4.11    0.58
   6   5   1    4.14    0.52
  -6  -6   1    0.52    0.36
   6   6  -1    0.64    0.28
  -5  -6   1    2.16    0.37
  -5  -6   1    2.16    0.32
  -5   6   1    2.26    0.35
   5   6  -1    2.21    0.31
  -4  -6   1   23.69    1.36
   4  -6  -1   24.01    1.29
  -4  -6   1   24.36    1.40
  -4   6   1   25.69    1.43
   4   6  -1   24.83    1.39
  -3  -6   1   80.68    4.40
  -3  -6   1   79.11    4.20
  -3  -6   1   76.15    4.34
   3   6  -1   85.94    4.35
  -3   6   1   86.31    4.42
  -2  -6   1   37.85    2.07
  -2  -6   1   39.35    2.10
  -2  -6   1   39.82    2.01
   2   6  -1   37.45    2.07
  -2   6   1   37.69    2.12
  -2   6   1   38.02    1.96
  -1  -6   1   46.34    2.36
  -1  -6   1   45.14    2.48
  -1  -6   1   45.76    2.45
   1   6  -1   46.02    2.35
  -1   6   1   45.39    2.49
   0  -6  -1   37.04    2.23
   0  -6   1   36.17    2.26
   0  -6  -1   37.55    2.25
   0   6  -1   46.44    2.15
   0   6   1   45.39    2.27
   0   6  -1   43.91    2.28
   0   6   1   45.67    2.28
   1  -6   1  214.70   11.70
  -1  -6  -1  214.44   11.48
  -1  -6  -1  216.52   11.64
  -1   6  -1  220.65   11.75
   1   6   1  221.85   11.62
   1   6   1  219.06   11.55
   1   6   1  220.55   11.06
  -2  -6  -1  112.76    6.33
  -2  -6  -1  120.39    6.06
  -2  -6  -1  115.01    6.26
   2   6   1  122.89    6.27
  -2   6  -1  121.93    6.35
  -3  -6  -1   49.26    2.65
  -3  -6  -1   50.08    2.58
  -3   6  -1   48.48    2.68
   3   6   1   48.13    2.65
  -4  -6  -1    2.11    0.30
  -4  -6  -1    2.16    0.33
   4   6   1    2.04    0.33
  -4   6  -1    1.87    0.28
  -5  -6  -1   11.43    0.81
   5   6   1   11.14    0.79
  -5   6  -1   11.28    0.77
  -6  -6  -1   10.78    0.83
   6   6   1   11.93    0.84
  -6  -7   1    4.64    0.56
   6   7  -1    4.06    0.50
  -5  -7   1    6.53    0.60
  -5  -7   1    6.61    0.54
   5   7  -1    5.31    0.51
  -5   7   1    5.08    0.55
  -4  -7   1    7.08    0.51
  -4  -7   1    6.49    0.50
   4   7  -1    5.24    0.48
  -4   7   1    4.74    0.52
  -3  -7   1    5.17    0.41
  -3  -7   1    5.01    0.42
  -3   7   1    4.33    0.42
   3   7  -1    4.23    0.39
  -2  -7   1   64.81    3.45
  -2  -7   1   64.14    3.41
  -2  -7   1   68.25    3.30
  -2   7   1   61.02    3.25
  -2   7   1   61.19    3.47
  -1  -7   1  162.97    8.70
  -1  -7   1  168.10    8.83
   1   7  -1  167.00    8.39
  -1   7   1  163.38    8.84
   0  -7   1  116.48    6.10
   0  -7  -1  120.19    6.02
   0   7  -1  109.79    6.12
   0   7   1  109.74    6.12
   0   7  -1  113.87    5.80
  -1  -7  -1   11.30    0.67
   1  -7   1   11.16    0.67
  -1  -7  -1   11.14    0.67
  -2  -7  -1   28.02    1.50
  -2  -7  -1   27.97    1.50
  -2  -7  -1   28.59    1.47
   2   7   1   25.72    1.50
  -2   7  -1   25.68    1.53
  -3  -7  -1   64.58    3.41
  -3  -7  -1   65.26    3.54
   3   7   1   66.59    3.53
  -3   7  -1   66.20    3.57
  -4  -7  -1   30.11    1.74
  -4  -7  -1   29.40    1.72
   4   7   1   32.00    1.77
  -4   7  -1   33.98    1.79
  -5  -7  -1   11.78    0.88
  -5   7  -1   14.36    0.89
   5   7   1   14.20    0.91
  -6  -7  -1    2.08    0.43
   6   7   1    1.76    0.37
  -6  -8   1    0.60    0.41
   6   8  -1    0.36    0.29
  -5  -8   1    6.98    0.63
  -5  -8   1    7.34    0.56
  -5   8   1    5.45    0.59
   5   8  -1    5.10    0.54
  -4  -8   1   25.18    1.51
  -4  -8   1   24.58    1.48
   4   8  -1   27.69    1.50
  -4   8   1   27.28    1.55
  -3  -8   1   68.24    3.65
  -3  -8   1   65.76    3.81
  -3   8   1   72.17    3.84
   3   8  -1   75.16    3.77
  -2  -8   1   28.04    1.64
  -2  -8   1   28.47    1.71
  -2   8   1   35.59    1.75
  -2   8   1   31.48    1.59
  -1  -8   1    4.21    0.36
  -1  -8   1    4.33    0.35
  -1   8   1    4.64    0.40
   1   8  -1    4.82    0.40
   0  -8   1  119.14    6.32
   0  -8  -1  116.23    6.23
   0   8  -1  118.79    6.00
   0   8  -1  117.90    6.34
   0   8   1  117.67    6.34
  -1  -8  -1  151.90    7.98
  -1  -8  -1  146.36    7.88
   1  -8   1  149.67    7.99
  -1   8  -1  148.31    8.01
   1   8   1  151.08    8.01
  -2  -8  -1  106.54    5.43
  -2  -8  -1  106.32    5.67
   2   8   1  103.71    5.62
  -2   8  -1  106.98    5.70
  -3  -8  -1   12.44    0.77
  -3  -8  -1   12.50    0.73
  -3   8  -1   11.42    0.77
   3   8   1   11.48    0.75
  -4  -8  -1    8.91    0.59
  -4  -8  -1    9.42    0.67
  -4   8  -1    8.03    0.63
   4   8   1    7.83    0.62
  -5  -8  -1    2.68    0.42
   5   8   1    3.35    0.44
  -5   8  -1    3.23    0.47
  -6  -8  -1    8.18    0.75
   6   8   1    7.17    0.65
  -6  -9   1    3.32    0.51
   6   9  -1    4.50    0.53
  -5  -9   1    0.89    0.35
   5   9  -1    0.70    0.29
  -5   9   1    0.85    0.35
  -4  -9   1    2.42    0.39
  -4  -9   1    2.50    0.38
   4   9  -1    3.27    0.41
  -4   9   1    3.00    0.47
  -3  -9   1    8.86    0.60
  -3  -9   1    8.61    0.57
  -3   9   1    6.45    0.59
  -2  -9   1    8.36    0.63
  -2  -9   1    8.44    0.65
  -2   9   1   11.13    0.55
  -2   9   1   11.18    0.71
  -1  -9   1   57.84    3.11
  -1   9   1   57.02    3.14
   1   9  -1   57.07    3.14
   0  -9   1   95.55    5.31
   0   9   1  102.78    5.34
   0   9  -1   98.29    5.34
   1  -9   1   11.36    0.72
  -1  -9  -1   11.89    0.71
  -1   9  -1   11.20    0.75
   1   9   1   11.27    0.74
  -2  -9  -1    8.70    0.54
  -2   9  -1    7.14    0.59
  -3  -9  -1   33.00    1.81
  -3  -9  -1   33.17    1.78
   3   9   1   32.25    1.82
  -3   9  -1   31.74    1.84
  -4  -9  -1   42.96    2.35
  -4  -9  -1   44.84    2.40
   4   9   1   43.36    2.41
  -4   9  -1   42.52    2.43
  -5  -9  -1   10.46    0.76
   5   9   1    9.03    0.72
  -6  -9  -1    0.82    0.44
  -5 -10   1    5.02    0.55
   5  10  -1    4.33    0.48
  -5  10   1    4.32    0.57
  -4 -10   1   32.71    1.80
  -4 -10   1   35.36    1.86
  -4  10   1   28.97    1.87
  -3 -10   1   70.86    3.77
  -3 -10   1   74.23    3.95
  -3  10   1   72.41    3.98
  -2 -10   1   23.67    1.39
  -2  10   1   24.12    1.42
  -2  10   1   24.39    1.26
  -1 -10   1   21.30    1.21
  -1  10   1   20.73    1.25
   1  10  -1   20.77    1.25
   0 -10   1   45.65    2.47
   0  10   1   44.93    2.50
   0  10  -1   44.16    2.50
  -1 -10  -1   53.38    2.93
   1  10   1   53.88    2.97
  -1  10  -1   54.02    2.97
  -2 -10  -1   53.48    3.08
  -2  10  -1   57.69    2.87
  -2  10  -1   58.69    3.12
  -3 -10  -1    3.11    0.46
  -3 -10  -1    2.79    0.39
  -3  10  -1    4.05    0.46
   3  10   1    4.31    0.44
  -4 -10  -1    4.13    0.52
  -4  10  -1    4.32    0.51
   4  10   1    4.11    0.49
  -5 -10  -1    3.73    0.51
   5  10   1    3.74    0.53
  -5 -11   1    4.31    0.61
  -5  11   1    4.81    0.60
  -4 -11   1    3.68    0.50
  -4 -11   1    3.40    0.46
  -4  11   1    3.89    0.54
  -3 -11   1    1.95    0.35
  -3 -11   1    1.49    0.30
  -3  11   1    1.46    0.36
  -2 -11   1    2.40    0.40
  -2  11   1    2.94    0.47
  -2  11   1    3.16    0.26
  -1 -11   1   66.16    4.10
   1  11  -1   79.12    4.15
  -1  11   1   82.22    4.16
   0 -11   1   36.44    2.14
   0  11   1   39.41    2.19
   0  11  -1   39.95    2.19
  -1 -11  -1   20.77    1.17
   1  11   1   18.81    1.20
  -1  11  -1   20.01    1.22
  -2 -11  -1    3.79    0.43
   2  11   1    4.86    0.50
  -2  11  -1    4.79    0.51
  -2  11  -1    4.53    0.26
  -3 -11  -1    8.38    0.59
  -3 -11  -1    7.32    0.65
  -3  11  -1    8.38    0.66
  -4 -11  -1   27.05    1.56
   4  11   1   26.72    1.57
  -4  11  -1   26.78    1.59
  -5 -11  -1   13.06    0.92
   5  11   1   12.80    0.91
  -5 -12   1    6.44    0.69
  -5  12   1    6.20    0.69
  -4 -12   1   15.76    1.01
  -4 -12   1   15.89    1.00
  -4  12   1   13.97    1.04
  -3 -12   1   31.27    1.76
  -3  12   1   29.89    1.81
  -2 -12   1   14.05    0.91
  -2  12   1   14.43    0.98
   2  12  -1   14.04    0.94
  -1 -12   1    5.20    0.51
  -1  12   1    5.70    0.57
   1  12  -1    5.60    0.53
   0 -12   1   23.55    1.28
   0  12   1   20.19    1.30
   0  12  -1   20.68    1.30
  -1 -12  -1   22.67    1.27
   1  12   1   20.81    1.32
  -1  12  -1   21.02    1.32
  -2 -12  -1   35.10    2.05
   2  12   1   37.59    2.11
  -2  12  -1   37.54    2.10
  -3 -12  -1   15.07    0.93
  -3  12  -1   14.21    0.98
  -4 -12  -1    0.47    0.35
  -4  12  -1    0.32    0.33
  -5 -12  -1    0.99    0.40
  -4 -13   1    0.09    0.35
  -4  13   1    0.00    0.37
  -3 -13   1    4.95    0.54
  -3  13   1    4.73    0.57
  -2 -13   1   28.70    1.63
  -2  13   1   27.59    1.68
   2  13  -1   27.19    1.66
  -1 -13   1   16.49    1.06
  -1  13   1   17.66    1.11
   1  13  -1   17.61    1.11
   0 -13   1   42.85    2.56
   0  13  -1   48.47    2.62
   0  13   1   47.02    2.60
   1  13   1   -0.11    0.31
  -1  13  -1    0.30    0.31
  -2 -13  -1    3.18    0.45
   2  13   1    4.79    0.56
  -2  13  -1    4.16    0.55
  -3 -13  -1    6.25    0.60
  -3  13  -1    8.75    0.70
   3  13   1    7.95    0.71
  -4  13  -1   10.39    0.82
  -4  14   1    7.33    0.71
  -3 -14   1    5.39    0.56
   3  14  -1    6.68    0.65
  -3  14   1    7.20    0.66
  -2 -14   1    1.35    0.35
   2  14  -1    1.48    0.41
  -2  14   1    1.40    0.41
  -1 -14   1    4.06    0.53
  -1  14   1    3.75    0.52
   1  14  -1    4.00    0.57
   0 -14   1    2.59    0.38
   0  14   1    1.75    0.40
   0  14  -1    1.43    0.39
  -1  14  -1   22.38    1.39
   1  14   1   21.69    1.38
  -2 -14  -1   26.69    1.53
  -2  14  -1   25.27    1.58
   2  14   1   26.19    1.61
   3  14   1   12.48    0.96
  -3  14  -1   13.34    0.93
  -3 -15   1    7.74    0.69
  -3  15   1    6.85    0.71
   3  15  -1    7.08    0.77
  -2 -15   1   13.28    0.92
  -2  15   1   12.36    0.97
   2  15  -1   12.03    0.97
  -1 -15   1   23.95    1.41
  -1  15   1   22.14    1.43
   1  15  -1   22.32    1.45
   0  15  -1    4.14    0.54
   0  15   1    3.68    0.53
   1  15   1    3.02    0.48
  -1  15  -1    2.58    0.46
   2  15   1    2.42    0.47
  -2  15  -1    2.40    0.44
   3  15   1    1.39    0.46
  -3  15  -1    1.57    0.43
   3  16  -1    2.75    0.52
  -3  16   1    3.01    0.52
  -2 -16   1    2.92    0.46
   2  16  -1    2.54    0.51
  -2  16   1    2.36    0.50
  -1 -16   1    5.31    0.62
  -1  16   1    5.15    0.63
   1  16  -1    5.42    0.69
   0  16  -1    0.46    0.40
   0  16   1    0.90    0.41
  -1  16  -1    2.65    0.46
   1  16   1    2.46    0.48
   2  16   1    6.55    0.74
  -2  16  -1    6.54    0.72
   3  16   1    4.13    0.62
  -3  16  -1    4.67    0.61
   1  17  -1    7.09    0.73
  -1  17   1    7.36    0.80
   0  17  -1    4.21    0.65
   0  17   1    4.06    0.60
   1  17   1    0.79    0.42
  -1  17  -1    1.04    0.46
  -6   0   2   13.06    0.89
   6   0  -2   13.20    0.85
   6   0  -2   13.39    0.86
  -5   0   2    6.06    0.53
   5   0  -2    6.06    0.46
   5   0  -2    6.08    0.47
   4   0  -2   89.75    4.62
  -4   0   2   90.82    4.87
   4   0  -2   89.72    4.78
   3   0  -2  149.35    7.54
   3   0  -2  149.99    7.79
  -3   0   2  145.00    7.92
   2   0  -2   80.20    4.19
   2   0  -2   81.63    4.27
   2   0  -2   77.29    4.06
  -2   0   2   79.10    4.27
  -1   0   2    1.20    0.14
   1   0  -2    1.42    0.15
   1   0  -2    1.40    0.09
  -1   0   2    1.33    0.13
   0   0   2  152.75    7.90
   0   0   2  158.11    8.25
   0   0  -2  155.33    8.24
   0   0  -2  152.29    7.93
   1   0   2  101.63    5.14
  -1   0  -2  101.02    5.14
  -2   0  -2   45.81    2.69
  -2   0  -2   52.31    2.59
   2   0   2   53.62    2.71
  -3   0  -2   96.31    5.01
  -3   0  -2   98.71    5.23
   3   0   2   99.17    5.25
  -4   0  -2   49.56    2.66
  -4   0  -2   48.65    2.58
   4   0   2   49.76    2.68
   5   0   2    6.70    0.53
  -5   0  -2    6.18    0.53
   6   0   2    2.01    0.36
  -6   0  -2    1.82    0.38
   6  -1  -2    2.54    0.38
  -6  -1   2    1.91    0.39
   6  -1  -2    2.21    0.32
  -6  -1   2    2.14    0.36
   5  -1  -2    8.90    0.59
   5  -1  -2    9.03    0.60
  -5  -1   2    9.04    0.66
  -4  -1   2   57.87    3.10
   4  -1  -2   56.45    2.94
   4  -1  -2   56.41    3.04
   4   1  -2   56.10    3.04
  -4   1   2   57.00    3.10
   3  -1  -2  103.20    5.49
  -3  -1   2  108.00    5.78
  -3   1   2  107.73    5.78
   3   1  -2  111.63    5.67
   2  -1  -2   66.46    3.54
  -2  -1   2   65.48    3.54
   2  -1  -2   62.07    3.36
  -2   1   2   65.39    3.54
   2   1  -2   67.99    3.47
   2   1  -2   67.29    3.54
   0  -1   2  338.76   18.06
   0  -1  -2  342.47   18.66
   0  -1  -2  316.33   18.89
   0   1  -2  374.77   18.07
   0   1   2  381.10   18.68
   0   1   2  377.27   18.92
   1   1   2  772.76   40.62
   2  -1   2  278.48   14.38
  -2  -1  -2  277.48   13.77
   2   1   2  263.49   14.36
  -2   1  -2  271.18   14.33
   2   1   2  261.62   14.27
  -2   1  -2  261.55   14.33
  -3  -1  -2    5.77    0.41
  -3  -1  -2    5.95    0.35
   3  -1   2    6.01    0.40
   3   1   2    5.50    0.40
   3   1   2    5.69    0.41
  -3   1  -2    5.26    0.36
  -4  -1  -2   37.80    2.03
  -4  -1  -2   36.79    1.98
  -4   1  -2   38.30    2.03
   4   1   2   36.38    2.05
  -5   1  -2   14.85    0.93
   5   1   2   15.33    0.96
  -6  -1  -2   17.31    1.13
   6  -1   2   18.14    1.17
  -6   1  -2   19.05    1.15
   6   1   2   19.52    1.17
  -6  -2   2   16.54    0.99
  -6  -2   2   15.23    0.98
   6  -2  -2   16.77    0.96
   6   2  -2   13.18    0.93
  -6   2   2   13.55    0.99
   5  -2  -2    3.04    0.35
   5  -2  -2    2.74    0.32
  -5  -2   2    2.85    0.41
  -5   2   2    2.75    0.42
   5   2  -2    2.69    0.34
   4  -2  -2   17.17    0.95
  -4  -2   2   17.77    1.04
   4   2  -2   17.29    1.00
  -4   2   2   17.15    1.04
  -3  -2   2  145.78    7.37
   3  -2  -2  144.78    7.00
  -3   2   2  128.20    7.37
   3   2  -2  131.99    7.24
   2  -2  -2   59.71    2.95
  -2  -2   2   60.17    3.10
  -2  -2   2   61.08    3.04
  -2   2   2   52.20    3.10
   2   2  -2   54.18    3.04
  -1   2   2  932.54   48.98
   1   2  -2 1000.00   51.43
   0  -2  -2  430.95   24.90
   0  -2  -2  462.09   24.58
   0  -2   2  475.31   23.76
   0   2   2  487.07   24.94
   0   2  -2  483.20   24.95
   1  -2   2  111.81    6.00
   1  -2   2  108.90    5.72
   1  -2   2  114.01    6.01
  -1   2  -2  113.27    6.00
   1   2   2  111.66    5.70
  -1   2  -2  113.57    6.00
   1   2   2  112.59    6.00
   1   2   2  112.48    5.93
   2  -2   2   79.40    4.32
  -2  -2  -2   80.84    4.13
  -2  -2  -2   78.94    4.30
  -2   2  -2   79.88    4.31
   2   2   2   81.58    4.28
   2   2   2   80.54    4.31
  -2   2  -2   83.37    4.31
   2   2   2   82.13    4.13
  -3  -2  -2   64.25    3.71
   3  -2   2   61.86    3.73
  -3  -2  -2   61.88    3.56
  -3   2  -2   74.86    3.72
   3   2   2   75.50    3.71
   3   2   2   77.92    3.74
  -4  -2  -2   44.90    2.57
  -4  -2  -2   45.27    2.50
   4   2   2   49.26    2.60
  -4   2  -2   51.18    2.58
  -5  -2  -2    9.51    0.69
   5   2   2   10.12    0.69
  -6  -2  -2    3.62    0.53
   6  -2   2    2.91    0.46
   6   2   2    3.46    0.46
  -6   2  -2    3.43    0.45
   6  -3  -2   14.70    0.96
  -6  -3   2   15.04    1.00
  -6  -3   2   13.71    0.98
   6   3  -2   16.04    0.97
  -6   3   2   16.78    1.02
  -5  -3   2   37.90    2.15
  -5  -3   2   36.46    2.07
   5  -3  -2   37.96    2.03
   5   3  -2   39.49    2.10
  -5   3   2   39.59    2.16
  -4  -3   2   62.47    3.39
   4  -3  -2   61.91    3.21
  -4  -3   2   61.23    3.24
  -4   3   2   62.47    3.40
   4   3  -2   63.26    3.33
  -3  -3   2   23.45    1.23
   3  -3  -2   22.85    1.14
  -3   3   2   19.31    1.23
   3   3  -2   20.22    1.18
  -2  -3   2   30.55    1.69
  -2  -3   2   31.08    1.73
   2  -3  -2   30.75    1.63
   2   3  -2   32.47    1.69
  -2   3   2   32.28    1.75
  -2   3   2   31.91    1.63
  -1  -3   2  303.30   17.79
  -1  -3   2  325.26   17.16
   1  -3  -2  323.26   18.07
  -1  -3   2  326.84   18.13
  -1   3   2  347.29   17.21
   1   3  -2  366.36   18.11
  -1   3   2  374.52   18.15
   0  -3   2  166.88    8.85
   0  -3  -2  160.26    8.71
   0  -3  -2  156.45    8.78
   0   3  -2  167.60    8.43
   0   3   2  166.43    8.79
   0   3  -2  166.25    8.33
   0   3   2  163.74    8.70
   0   3  -2  163.09    8.78
   0   3  -2  169.09    8.83
   1  -3   2  145.36    6.70
   1  -3   2  144.52    7.09
  -1  -3  -2  138.59    6.68
   1  -3   2  144.85    7.06
  -1  -3  -2  142.64    6.92
  -1   3  -2  116.46    7.03
  -1   3  -2  116.95    7.03
   1   3   2  118.70    6.68
   1   3   2  116.23    7.02
   2  -3   2   87.85    4.51
  -2  -3  -2   89.73    4.46
  -2  -3  -2   86.63    4.49
  -2  -3  -2   88.02    4.31
  -2   3  -2   81.79    4.50
  -2   3  -2   80.98    4.49
   2   3   2   80.44    4.46
   2   3   2   78.63    4.50
  -3  -3  -2   29.65    1.53
  -3  -3  -2   29.69    1.55
   3  -3   2   29.55    1.59
  -3   3  -2   27.32    1.56
   3   3   2   27.33    1.58
   3   3   2   27.93    1.58
  -4   3  -2    1.52    0.20
   4   3   2    1.22    0.25
  -5  -3  -2   23.59    1.34
   5   3   2   23.16    1.37
  -6  -3  -2   21.15    1.24
   6   3   2   19.62    1.24
  -6   3  -2   19.15    1.21
  -6  -4   2   22.38    1.23
  -6  -4   2   20.61    1.22
   6   4  -2   18.03    1.18
  -6   4   2   18.71    1.24
  -5  -4   2    1.25    0.31
  -5  -4   2    1.21    0.30
   5  -4  -2    1.54    0.24
  -5   4   2    1.21    0.32
   5   4  -2    1.21    0.24
  -4  -4   2    5.76    0.50
   4  -4  -2    6.18    0.42
  -4  -4   2    6.46    0.48
   3  -4  -2   21.91    1.13
  -3  -4   2   21.89    1.18
  -3  -4   2   22.31    1.17
  -3  -4   2   21.98    1.22
   3   4  -2   19.20    1.17
  -3   4   2   20.23    1.22
   2  -4  -2  231.42   11.45
  -2  -4   2  230.91   11.42
  -2  -4   2  236.08   12.04
  -2  -4   2  233.31   11.88
   2   4  -2  211.80   11.83
  -2   4   2  215.37   11.45
  -2   4   2  213.93   11.97
   1  -4  -2  472.69   25.21
  -1  -4   2  460.45   25.23
  -1  -4   2  448.27   24.82
  -1  -4   2  472.26   23.93
  -1   4   2  475.90   23.98
  -1   4   2  478.30   25.24
   1   4  -2  493.27   25.17
   0  -4  -2   89.92    4.79
   0  -4  -2   88.73    4.86
   0  -4   2   91.44    4.86
   0   4  -2   92.69    4.87
   0   4  -2   89.82    4.86
   0   4   2   92.98    4.87
   0   4  -2   91.66    4.61
   1  -4   2   66.54    3.64
  -1  -4  -2   65.98    3.48
   1  -4   2   66.26    3.65
  -1  -4  -2   67.14    3.60
   1   4   2   70.17    3.64
  -1   4  -2   65.75    3.45
  -1   4  -2   70.30    3.64
   1   4   2   71.44    3.61
  -2  -4  -2  176.38    9.79
  -2  -4  -2  180.13    9.65
  -2  -4  -2  180.02    9.32
   2  -4   2  182.66    9.78
   2   4   2  184.28    9.77
  -2   4  -2  190.39    9.80
   2   4   2  190.91    9.66
  -3  -4  -2  132.59    7.24
  -3  -4  -2  127.43    6.93
   3   4   2  139.63    7.19
  -3   4  -2  141.07    7.26
   3   4   2  139.08    7.27
  -4  -4  -2   75.74    4.16
  -4   4  -2   79.20    4.18
   4   4   2   78.27    4.17
  -5  -4  -2   11.31    0.75
   5   4   2   10.47    0.76
  -6  -4  -2    2.99    0.44
   6   4   2    2.68    0.41
  -6  -5   2    9.77    0.78
   6   5  -2    9.63    0.70
  -6   5   2    9.23    0.76
  -5  -5   2   36.34    2.02
  -5  -5   2   36.33    1.96
   5  -5  -2   36.38    1.89
  -5   5   2   34.65    2.02
   5   5  -2   34.60    1.97
  -4  -5   2   46.83    2.55
   4  -5  -2   47.62    2.51
  -4  -5   2   48.12    2.67
  -4   5   2   51.58    2.70
   4   5  -2   48.54    2.62
  -3  -5   2    1.79    0.27
  -3  -5   2    2.45    0.29
   3  -5  -2    1.82    0.23
  -3  -5   2    1.99    0.26
  -2  -5   2  129.87    7.01
  -2  -5   2  128.87    7.12
  -2  -5   2  136.48    6.77
  -2   5   2  136.93    6.76
   2   5  -2  134.09    7.01
  -2   5   2  132.85    7.13
  -1  -5   2   93.41    4.88
  -1  -5   2   96.71    4.70
  -1  -5   2   94.90    4.95
  -1   5   2   92.13    4.96
  -1   5   2   88.20    4.70
   1   5  -2   89.42    4.69
   0   5  -2  155.58    8.49
   0   5   2  163.83    8.49
   0   5  -2  159.46    8.09
   0   5   2  161.23    8.50
   0   5  -2  157.21    8.50
   1  -5   2  106.21    5.80
  -1  -5  -2  110.76    5.79
   1  -5   2  105.95    5.81
  -1  -5  -2  106.86    5.72
   1   5   2  109.98    5.79
  -1   5  -2  111.01    5.51
  -1   5  -2  105.52    5.80
   1   5   2  110.19    5.73
   1   5   2  110.16    5.53
  -2  -5  -2   17.71    0.98
   2  -5   2   17.83    1.02
  -2  -5  -2   17.60    0.98
  -3  -5  -2   16.17    0.90
  -3  -5  -2   17.26    0.93
   3   5   2   15.22    0.94
  -3   5  -2   15.57    0.93
  -4  -5  -2   17.14    1.10
  -4  -5  -2   17.72    1.07
   4  -5   2   18.22    0.99
  -4   5  -2   21.58    1.11
   4   5   2   21.17    1.14
  -5  -5  -2   27.40    1.57
   5   5   2   27.75    1.60
  -6  -5  -2   24.47    1.50
   6   5   2   26.76    1.54
  -6  -6   2    8.24    0.72
   6   6  -2    9.15    0.67
  -6   6   2    9.27    0.74
  -5  -6   2    3.75    0.51
  -5  -6   2    3.46    0.45
  -5   6   2    3.38    0.48
   5   6  -2    3.27    0.40
   4  -6  -2   21.29    1.19
  -4  -6   2   21.90    1.27
  -4  -6   2   21.03    1.29
  -4   6   2   23.59    1.33
   4   6  -2   23.39    1.26
  -3  -6   2   45.18    2.54
  -3  -6   2   46.03    2.58
  -3  -6   2   47.20    2.47
   3   6  -2   48.65    2.54
  -3   6   2   48.98    2.61
  -2  -6   2   91.46    4.75
  -2  -6   2   89.34    4.67
  -2  -6   2   94.18    4.51
  -2   6   2   82.82    4.49
  -2   6   2   83.34    4.76
  -1  -6   2   53.04    2.81
  -1  -6   2   52.03    2.76
  -1  -6   2   52.95    2.66
  -1   6   2   50.07    2.82
   1   6  -2   50.84    2.65
   0  -6  -2   28.26    1.46
   0  -6   2   28.39    1.49
   0   6  -2   26.34    1.39
   0   6  -2   25.90    1.50
   0   6   2   26.05    1.50
   0   6   2   26.79    1.48
  -1  -6  -2   18.00    1.08
  -1  -6  -2   17.81    1.08
   1  -6   2   18.17    1.10
   1   6   2   20.55    1.09
  -1   6  -2   20.68    1.11
  -1   6  -2   20.60    1.01
   1   6   2   20.64    1.09
  -2  -6  -2   90.08    4.64
  -2  -6  -2   91.74    4.67
  -2  -6  -2   91.48    4.49
   2   6   2   81.29    4.68
   2   6   2   84.83    4.64
  -2   6  -2   85.26    4.69
  -3  -6  -2  129.71    6.42
  -3  -6  -2  127.48    6.69
  -3   6  -2  122.70    6.71
   3   6   2  121.57    6.64
  -4  -6  -2   68.86    3.57
  -4  -6  -2   69.97    3.67
  -4   6  -2   66.33    3.70
   4   6   2   68.20    3.70
  -5  -6  -2    8.29    0.68
   5   6   2    8.21    0.66
  -6  -6  -2    0.73    0.40
   6   6   2    0.52    0.33
  -6  -7   2    5.98    0.66
   6   7  -2    5.31    0.53
  -6   7   2    5.24    0.62
  -5  -7   2   34.52    1.91
  -5  -7   2   37.11    1.98
   5   7  -2   33.93    1.93
  -5   7   2   33.05    2.00
  -4  -7   2   51.81    2.76
  -4  -7   2   51.66    2.88
  -4   7   2   52.39    2.90
   4   7  -2   53.58    2.84
  -3  -7   2    8.10    0.61
  -3  -7   2    8.12    0.61
  -3   7   2   10.40    0.68
   3   7  -2   10.68    0.60
  -2  -7   2   46.67    2.39
  -2  -7   2   46.12    2.48
  -2  -7   2   46.50    2.52
  -2   7   2   45.31    2.53
  -2   7   2   45.02    2.36
  -1  -7   2   55.97    2.83
  -1  -7   2   54.02    2.87
   1   7  -2   49.88    2.71
  -1   7   2   51.50    2.88
   0  -7  -2   49.25    2.89
   0  -7   2   50.27    2.93
   0   7   2   57.09    2.95
   0   7  -2   57.84    2.77
   0   7  -2   56.51    2.95
   1  -7   2  371.03   19.82
  -1  -7  -2  360.11   19.49
  -1  -7  -2  356.74   19.78
   1   7   2  381.17   19.66
  -1   7  -2  380.78   19.80
   1   7   2  375.19   19.94
  -2  -7  -2   32.13    1.84
  -2  -7  -2   32.74    1.88
   2   7   2   36.69    1.90
  -2   7  -2   36.56    1.91
  -3  -7  -2    3.34    0.38
  -3  -7  -2    3.53    0.29
  -3   7  -2    2.99    0.34
   3   7   2    2.37    0.36
  -4  -7  -2    4.72    0.48
  -4  -7  -2    4.66    0.40
  -4   7  -2    5.64    0.47
   4   7   2    5.24    0.47
  -5  -7  -2   27.09    1.61
   5   7   2   29.59    1.65
  -6  -7  -2   20.72    1.32
   6   7   2   21.96    1.34
  -6  -8   2   10.03    0.80
   6   8  -2   10.21    0.74
  -5  -8   2    0.14    0.33
  -5  -8   2    0.32    0.29
  -5   8   2    0.63    0.33
   5   8  -2    0.46    0.25
  -4  -8   2   29.90    1.74
  -4  -8   2   29.44    1.67
   4   8  -2   31.06    1.70
  -4   8   2   30.94    1.76
  -3  -8   2   42.63    2.29
  -3  -8   2   43.55    2.40
  -3   8   2   44.09    2.43
  -2  -8   2   67.52    3.49
  -2  -8   2   67.50    3.67
  -2   8   2   67.42    3.47
  -2   8   2   68.50    3.69
  -1   8   2   16.01    0.96
   1   8  -2   15.97    0.87
   1   8  -2   15.88    0.97
   0  -8   2   39.93    2.00
   0  -8  -2   39.25    1.96
   0   8  -2   32.98    2.00
   0   8  -2   33.70    1.87
   0   8   2   34.62    2.00
  -1  -8  -2    8.54    0.55
   1  -8   2    8.45    0.58
  -1  -8  -2    8.26    0.56
  -1   8  -2    9.08    0.60
   1   8   2    9.31    0.61
  -2  -8  -2   34.21    1.64
  -2  -8  -2   33.21    1.62
  -2   8  -2   25.99    1.66
   2   8   2   25.44    1.64
  -3  -8  -2   23.60    1.18
  -3   8  -2   16.95    1.18
  -4  -8  -2   31.72    1.81
  -4   8  -2   34.21    1.87
   4   8   2   32.81    1.86
  -5  -8  -2   12.78    0.90
   5   8   2   14.02    0.93
  -6  -8  -2    0.06    0.38
  -6  -9   2    2.60    0.49
   6   9  -2    1.90    0.36
  -5  -9   2   15.14    0.95
  -5  -9   2   14.80    0.98
   5   9  -2   13.42    0.92
  -5   9   2   13.92    0.97
  -4  -9   2   27.97    1.63
  -4  -9   2   28.53    1.57
  -4   9   2   27.98    1.66
  -3  -9   2   37.58    1.94
  -3  -9   2   36.04    2.02
  -3   9   2   36.13    1.86
  -3   9   2   34.28    2.04
  -2  -9   2    4.63    0.40
  -2  -9   2    4.54    0.40
  -2   9   2    4.18    0.48
  -2   9   2    4.38    0.32
  -1  -9   2   33.23    1.77
   1   9  -2   30.15    1.78
  -1   9   2   31.46    1.79
   0  -9   2  104.62    5.49
   0   9  -2  101.39    5.20
   0   9  -2  100.41    5.51
   0   9   2  102.03    5.51
   1  -9   2  107.18    5.65
  -1   9  -2  103.46    5.66
   1   9   2  104.34    5.66
  -2  -9  -2   58.87    3.10
   2   9   2   57.15    3.10
  -2   9  -2   55.82    3.13
  -3  -9  -2    4.61    0.49
  -3  -9  -2    4.71    0.39
   3   9   2    5.57    0.46
  -3   9  -2    5.14    0.46
  -4  -9  -2   11.85    0.81
  -4   9  -2   12.21    0.81
   4   9   2   12.23    0.82
  -5  -9  -2   25.89    1.58
   5   9   2   28.58    1.63
  -5 -10   2    0.06    0.29
  -5 -10   2    0.07    0.33
  -5  10   2    0.16    0.35
  -4 -10   2    7.44    0.58
  -4 -10   2    8.29    0.65
  -4  10   2    7.05    0.64
  -3 -10   2   40.28    2.15
  -3 -10   2   40.11    2.07
  -3  10   2   37.39    1.98
  -3  10   2   35.84    2.18
  -2 -10   2   12.72    0.90
  -2  10   2   15.32    0.80
  -2  10   2   15.02    0.93
  -1 -10   2   19.90    1.30
   1  10  -2   24.38    1.36
  -1  10   2   24.28    1.36
   0  10  -2    3.43    0.40
   0  10   2    3.37    0.39
   1 -10   2    7.19    0.56
   1  10   2    7.92    0.59
  -1  10  -2    8.51    0.61
  -2 -10  -2    5.46    0.45
  -2  10  -2    5.78    0.50
  -3 -10  -2   16.58    0.91
  -3 -10  -2   15.99    0.95
   3  10   2   13.88    0.95
  -3  10  -2   13.95    0.95
  -4 -10  -2   32.80    1.95
  -4  10  -2   37.49    2.02
   4  10   2   35.37    2.01
  -5 -10  -2    5.62    0.62
   5  10   2    7.54    0.67
  -5 -11   2    9.22    0.81
  -5  11   2   11.21    0.86
  -4 -11   2   11.91    0.87
  -4 -11   2   12.66    0.89
  -4  11   2   14.50    0.95
  -3 -11   2   15.44    0.94
  -3 -11   2   16.07    0.98
  -3  11   2   13.75    1.02
  -2 -11   2   13.24    0.86
  -2  11   2   14.21    0.77
  -2  11   2   13.47    0.93
  -1 -11   2   36.85    2.08
   1  11  -2   37.46    2.12
  -1  11   2   37.14    2.12
   0 -11   2   77.00    3.81
   0  11   2   65.85    3.82
   0  11  -2   66.84    3.82
   1 -11   2   64.99    3.34
  -1  11  -2   58.01    3.35
   1  11   2   59.97    3.36
  -2 -11  -2   21.70    1.18
  -2  11  -2   19.28    1.21
   2  11   2   19.67    1.24
  -3 -11  -2    1.89    0.27
  -3  11  -2    2.08    0.34
   3  11   2    1.36    0.29
  -4 -11  -2   18.41    1.11
   4  11   2   15.74    1.07
  -4  11  -2   16.33    1.07
  -5 -11  -2    7.62    0.70
  -5 -12   2    2.17    0.45
  -5  12   2    2.75    0.49
  -4 -12   2    2.36    0.38
  -4 -12   2    2.31    0.41
  -4  12   2    2.15    0.41
  -3 -12   2    3.38    0.47
  -3  12   2    4.65    0.57
  -2 -12   2   27.22    1.43
  -2  12   2   22.54    1.46
   2  12  -2   22.04    1.44
  -1 -12   2   37.84    2.23
  -1  12   2   41.95    2.28
   1  12  -2   39.84    2.27
   0 -12   2   35.34    2.03
   0  12   2   35.85    2.05
   0  12  -2   36.50    2.06
   1 -12   2    4.24    0.42
  -1  12  -2    3.22    0.47
   1  12   2    2.85    0.43
  -2 -12  -2   15.46    0.97
   2  12   2   16.28    1.06
  -2  12  -2   16.63    1.05
  -3  12  -2   20.49    1.26
  -4 -12  -2   14.65    1.05
   4  12   2   17.05    1.06
  -5 -12  -2    2.71    0.51
  -4 -13   2    8.74    0.73
  -4 -13   2    8.44    0.74
  -4  13   2    9.28    0.77
  -3 -13   2    6.55    0.59
  -3  13   2    6.94    0.66
  -2 -13   2    2.58    0.41
   2  13  -2    2.41    0.43
  -2  13   2    2.32    0.41
  -1 -13   2    7.11    0.63
  -1  13   2    7.72    0.68
   1  13  -2    7.71    0.69
   0  13  -2   16.89    1.08
   0  13   2   16.56    1.08
  -1  13  -2   15.68    1.02
   1  13   2   15.46    1.02
   2  13   2    6.68    0.62
  -2  13  -2    7.24    0.65
   3  13   2    0.45    0.33
  -3  13  -2    0.55    0.33
  -4 -14   2    1.91    0.41
  -4  14   2    2.81    0.51
  -3 -14   2    3.90    0.49
   3  14  -2    3.77    0.61
  -3  14   2    3.85    0.62
  -2 -14   2   21.94    1.30
  -2  14   2   20.58    1.35
   2  14  -2   19.81    1.32
  -1 -14   2   42.48    2.28
   1  14  -2   38.71    2.30
  -1  14   2   38.65    2.30
   0 -14   2   11.29    0.83
   0  14  -2   11.96    0.84
   0  14   2   11.41    0.84
   1  14   2    5.51    0.61
  -1  14  -2    5.36    0.56
   2  14   2   13.66    0.99
  -2  14  -2   13.98    0.99
  -3  14  -2   20.36    1.30
   3  14   2   20.28    1.32
  -3 -15   2    1.85    0.42
   3  15  -2    2.52    0.50
  -3  15   2    2.27    0.48
  -2 -15   2    0.87    0.36
   2  15  -2    0.86    0.40
  -2  15   2    1.02    0.40
  -1 -15   2    4.46    0.54
  -1  15   2    4.82    0.60
   1  15  -2    5.70    0.60
   0 -15   2    7.25    0.66
   0  15  -2    7.16    0.70
   0  15   2    6.71    0.69
  -1  15  -2    9.27    0.78
   1  15   2    8.73    0.78
   2  15   2    6.64    0.66
  -2  15  -2    6.93    0.70
   3  15   2    0.26    0.38
  -3  15  -2    0.40    0.37
  -2 -16   2   13.74    0.97
  -2  16   2   12.66    0.98
   2  16  -2   12.16    1.01
  -1 -16   2   15.27    1.09
  -1  16   2   16.26    1.12
   1  16  -2   16.39    1.15
   0 -16   2    1.01    0.36
   0  16   2    0.66    0.40
   0  16  -2    0.49    0.39
  -1  16  -2    6.39    0.69
   1  16   2    5.51    0.68
  -2  16  -2   10.20    0.85
   2  16   2    9.52    0.86
  -1 -17   2    0.78    0.40
  -1  17   2    0.04    0.45
   1  17  -2    0.37    0.43
   0  17  -2   14.26    1.04
   0  17   2   14.73    1.06
   1  17   2    9.26    0.89
  -1  17  -2   11.24    0.91
  -6   0   3   18.48    1.18
   5   0  -3   11.15    0.70
  -5   0   3   10.80    0.78
   5   0  -3   11.23    0.71
   4   0  -3    6.62    0.44
   4   0  -3    6.73    0.47
  -4   0   3    6.45    0.51
  -3   0   3   27.42    1.56
   3   0  -3   27.71    1.47
   3   0  -3   28.14    1.49
   2   0  -3  118.51    6.11
  -2   0   3  116.85    6.22
   2   0  -3  113.55    5.92
   1   0  -3   60.18    3.14
  -1   0   3   61.67    3.15
  -1   0   3   59.98    3.30
   1   0  -3   63.05    3.30
   0   0   3   49.57    2.60
   0   0  -3   47.42    2.50
   0   0  -3   49.57    2.60
   0   0   3   47.82    2.50
   1   0   3  237.22   11.93
  -1   0  -3  232.57   11.94
   2   0   3   70.39    3.72
  -2   0  -3   69.13    3.57
  -3   0  -3    7.82    0.50
   3   0   3    7.76    0.49
  -4   0  -3  105.39    5.43
   4   0   3  108.36    5.69
   4   0   3  104.04    5.64
  -5   0  -3   28.92    1.62
   5   0   3   29.61    1.68
  -6   0  -3   22.27    1.34
   6   0   3   22.16    1.37
  -6  -1   3    1.78    0.37
   6  -1  -3    1.85    0.32
  -6   1   3    1.81    0.38
   5  -1  -3    3.14    0.35
   5  -1  -3    3.10    0.35
  -5  -1   3    2.68    0.43
  -5   1   3    3.18    0.41
   5   1  -3    3.37    0.35
   5   1  -3    3.14    0.37
  -4  -1   3   61.47    3.39
   4  -1  -3   61.11    3.30
   4  -1  -3   58.34    3.21
   4   1  -3   62.32    3.22
   4   1  -3   64.99    3.31
  -4   1   3   64.09    3.39
   3  -1  -3  167.29    8.36
  -3  -1   3  171.63    8.78
  -3   1   3  162.04    8.78
   3   1  -3  155.13    8.36
   3   1  -3  165.31    8.63
  -2  -1   3  217.78   11.45
   2  -1  -3  210.10   10.84
  -2   1   3  211.83   11.37
   2   1  -3  216.37   11.22
   2   1  -3  211.03   10.93
  -1  -1   3   41.25    2.13
   1  -1  -3   41.84    2.13
  -1  -1   3   41.28    2.07
   1  -1  -3   41.31    2.03
   1  -1  -3   43.80    2.07
   1   1  -3   35.14    2.13
  -1   1   3   36.49    2.13
  -1   1   3   33.90    2.03
   0  -1   3  163.26    8.56
   0  -1   3  167.73    8.14
   0  -1  -3  156.84    8.52
   0   1  -3  152.02    8.14
   0   1  -3  157.68    8.53
   0   1   3  159.94    8.45
   0   1   3  164.19    8.55
   0   1   3  156.99    8.18
   0   1  -3  159.78    8.54
  -1  -1  -3  210.69   11.06
   1  -1   3  218.09   11.57
   1  -1   3  212.14   11.57
  -1   1  -3  219.83   11.05
   1   1   3  218.61   11.46
   1   1   3  225.57   11.10
   2   1   3   33.42    1.79
  -2   1  -3   32.39    1.72
   2   1   3   33.81    1.81
   3  -1   3   83.26    4.54
  -3  -1  -3   80.01    4.34
   3   1   3   87.65    4.54
  -3   1  -3   82.71    4.50
  -3   1  -3   86.34    4.50
   3   1   3   87.07    4.51
  -3   1  -3   85.56    4.34
  -4  -1  -3   42.70    2.44
  -4  -1  -3   44.10    2.41
  -4   1  -3   47.10    2.45
   4   1   3   47.56    2.51
  -4   1  -3   47.15    2.41
   4   1   3   45.73    2.50
   5  -1   3    5.27    0.50
  -5  -1  -3    5.65    0.53
   5   1   3    4.57    0.49
  -5   1  -3    5.40    0.52
  -6  -1  -3    8.89    0.71
   6  -1   3    8.60    0.72
   6   1   3    9.53    0.72
  -6   1  -3   10.06    0.72
  -6  -2   3    9.81    0.79
  -6  -2   3   10.97    0.81
  -6   2   3   12.85    0.85
   5  -2  -3   22.80    1.32
   5  -2  -3   22.56    1.29
  -5  -2   3   21.93    1.38
   5   2  -3   25.01    1.32
  -5   2   3   23.87    1.39
   5   2  -3   24.11    1.31
   4  -2  -3   20.35    1.12
  -4  -2   3   20.15    1.19
   4   2  -3   20.51    1.14
  -4   2   3   20.31    1.22
  -3  -2   3    1.37    0.22
   3  -2  -3    1.48    0.21
  -3   2   3    0.93    0.21
   3   2  -3    1.02    0.15
   2  -2  -3   65.63    3.69
  -2  -2   3   67.25    3.80
  -2  -2   3   69.14    3.88
  -2   2   3   77.01    3.89
   2   2  -3   78.17    3.80
  -2   2   3   75.91    3.69
  -1  -2   3  179.61   10.19
   1  -2  -3  175.86   10.19
  -1  -2   3  176.11   10.01
   1  -2  -3  172.20    9.66
   1  -2  -3  176.99   10.01
  -1   2   3  209.26   10.26
  -1   2   3  205.71    9.78
   1   2  -3  205.18    9.77
   1   2  -3  213.78   10.22
   0  -2   3   14.19    0.75
   1  -2   3   80.29    4.14
   1  -2   3   80.00    4.36
  -1  -2  -3   80.95    4.15
   1  -2   3   82.14    4.34
  -1  -2  -3   82.83    4.30
  -1   2  -3   81.81    4.33
  -1   2  -3   83.69    4.33
   1   2   3   82.06    4.30
   1   2   3   80.37    4.15
  -1   2  -3   80.62    4.13
   2  -2   3   92.96    4.84
  -2  -2  -3   93.90    4.63
  -2   2  -3   89.27    4.82
  -2   2  -3   86.52    4.81
   2   2   3   92.11    4.80
   2   2   3   88.54    4.83
  -3  -2  -3   39.35    2.23
   3  -2   3   39.88    2.33
  -3   2  -3   44.23    2.29
   3   2   3   45.92    2.32
   3   2   3   44.23    2.33
  -3   2  -3   43.15    2.29
  -4  -2  -3   34.28    1.91
  -4  -2  -3   33.10    1.91
   4   2   3   36.20    1.98
  -4   2  -3   36.94    1.90
  -4   2  -3   37.56    1.93
  -5  -2  -3   47.29    2.38
   5   2   3   42.37    2.46
  -5   2  -3   43.30    2.37
  -6  -2  -3   13.32    0.94
   6  -2   3   13.89    0.96
   6   2   3   13.61    0.93
  -6   2  -3   13.81    0.91
  -6  -3   3    3.77    0.50
  -6  -3   3    3.72    0.51
  -6   3   3    3.35    0.53
   5  -3  -3   19.51    1.11
  -5  -3   3   18.10    1.15
  -5  -3   3   18.52    1.19
   5   3  -3   21.47    1.14
  -5   3   3   20.71    1.22
  -4  -3   3   31.42    1.82
   4  -3  -3   30.38    1.70
   4   3  -3   33.48    1.75
  -4   3   3   33.17    1.83
   3  -3  -3   41.81    2.12
  -3  -3   3   43.07    2.25
   3   3  -3   38.33    2.17
  -3   3   3   39.88    2.25
  -2  -3   3   83.64    4.12
   2  -3  -3   81.46    3.91
  -2  -3   3   82.50    4.03
   2   3  -3   69.28    4.02
  -2   3   3   71.68    4.11
  -2   3   3   69.95    3.90
  -1  -3   3   81.78    4.38
   1  -3  -3   86.05    4.46
  -1  -3   3   86.34    4.46
   1   3  -3   82.30    4.25
  -1   3   3   83.45    4.46
   1   3  -3   83.83    4.46
  -1   3   3   79.31    4.25
   0  -3  -3   69.53    3.41
   0  -3  -3   67.82    3.45
   0  -3   3   69.05    3.46
   0   3   3   62.15    3.45
   0   3   3   61.15    3.40
   0   3  -3   61.69    3.45
   0   3  -3   62.05    3.45
   0   3  -3   62.48    3.29
   1  -3   3  109.09    5.26
   1  -3   3  105.54    5.51
  -1  -3  -3  109.83    5.45
  -1  -3  -3  105.36    5.27
   1  -3   3  106.02    5.52
  -1   3  -3   98.36    5.51
  -1   3  -3  100.81    5.51
   1   3   3   99.90    5.51
   1   3   3  100.76    5.45
   1   3   3   98.43    5.27
  -2  -3  -3  176.62    8.47
   2  -3   3  174.08    8.88
   2  -3   3  171.63    8.47
   2   3   3  155.17    8.87
   2   3   3  165.32    8.78
  -2   3  -3  160.65    8.88
  -2   3  -3  163.41    8.88
  -3  -3  -3  119.61    6.38
   3  -3   3  119.52    6.69
   3   3   3  128.40    6.63
   3   3   3  129.44    6.68
  -3   3  -3  128.51    6.66
  -4  -3  -3   67.74    3.90
  -4  -3  -3   65.78    3.79
   4   3   3   79.20    3.95
  -4   3  -3   80.34    3.93
  -5  -3  -3    5.70    0.52
  -5   3  -3    5.80    0.53
   5   3   3    5.56    0.54
  -6  -3  -3   11.90    0.87
   6   3   3   13.15    0.89
  -6   3  -3   13.20    0.89
  -6  -4   3   13.03    0.93
  -6  -4   3   12.79    0.94
  -6   4   3   14.25    0.95
  -5  -4   3   21.11    1.34
  -5  -4   3   21.05    1.30
   5  -4  -3   21.48    1.24
  -5   4   3   24.22    1.37
   5   4  -3   23.73    1.27
  -4  -4   3   23.94    1.44
   4  -4  -3   23.25    1.33
  -4  -4   3   24.23    1.37
  -4   4   3   26.76    1.46
   4   4  -3   25.97    1.38
   3  -4  -3    6.18    0.42
  -3  -4   3    6.01    0.46
  -3  -4   3    6.32    0.43
  -3  -4   3    6.19    0.42
  -3   4   3    5.99    0.48
   3   4  -3    6.26    0.40
  -2  -4   3  225.69   12.16
  -2  -4   3  233.43   11.81
  -2  -4   3  224.00   12.40
   2  -4  -3  222.14   11.79
  -2   4   3  239.38   11.86
  -2   4   3  245.44   12.39
  -1  -4   3  213.36   10.99
  -1  -4   3  208.44   11.64
  -1  -4   3  197.02   11.39
  -1   4   3  232.35   11.62
  -1   4   3  229.81   11.00
   0  -4  -3  335.23   19.14
   0  -4  -3  369.04   18.93
   0  -4   3  357.85   19.21
   0   4  -3  357.32   19.20
   0   4   3  353.63   18.93
   0   4  -3  370.56   18.30
   0   4   3  363.86   19.20
   0   4  -3  361.76   19.15
  -1  -4  -3   34.35    1.83
   1  -4   3   33.57    1.84
   1  -4   3   34.36    1.85
  -1   4  -3   34.91    1.84
   1   4   3   34.77    1.78
  -1   4  -3   31.83    1.74
  -1   4  -3   33.42    1.83
   1   4   3   34.02    1.83
   1   4   3   34.89    1.83
  -2  -4  -3    4.32    0.34
   2  -4   3    4.39    0.33
  -2  -4  -3    4.13    0.35
   2  -4   3    4.45    0.26
   2   4   3    4.45    0.35
   2   4   3    4.46    0.31
  -2   4  -3    4.48    0.29
  -2   4  -3    4.57    0.31
  -3  -4  -3   20.42    1.17
   3  -4   3   20.29    1.20
  -3   4  -3   21.54    1.17
   3   4   3   21.29    1.19
   3   4   3   21.61    1.21
  -4  -4  -3   33.89    1.88
   4   4   3   34.78    1.95
  -4   4  -3   35.84    1.90
  -5  -4  -3   24.84    1.46
   5   4   3   26.14    1.49
  -6  -4  -3   12.34    0.88
   6   4   3   12.51    0.88
  -6   4  -3   12.76    0.88
  -6  -5   3    0.50    0.32
  -6  -5   3    0.33    0.35
  -6   5   3    0.66    0.36
  -5  -5   3   12.74    0.89
  -5  -5   3   13.13    0.88
   5  -5  -3   13.30    0.80
   5   5  -3   13.69    0.82
  -5   5   3   13.34    0.91
   4  -5  -3   21.99    1.24
  -4  -5   3   22.37    1.34
  -4  -5   3   22.38    1.28
  -4   5   3   23.17    1.35
   4   5  -3   24.02    1.28
   3  -5  -3   40.13    2.12
  -3  -5   3   40.06    2.14
  -3  -5   3   38.99    2.19
  -3  -5   3   41.08    2.26
  -3   5   3   42.98    2.28
   3   5  -3   41.48    2.19
  -2  -5   3  220.41   10.91
  -2  -5   3  217.01   11.49
  -2  -5   3  209.41   11.33
  -2   5   3  210.73   11.46
  -2   5   3  216.12   10.93
  -1  -5   3   98.55    4.75
  -1  -5   3   94.10    4.94
  -1  -5   3   96.94    5.02
  -1   5   3   88.45    4.77
  -1   5   3   89.84    5.02
   0  -5   3   69.19    3.55
   0  -5  -3   67.32    3.49
   0   5  -3   64.38    3.34
   0   5  -3   64.77    3.37
   0   5  -3   64.05    3.55
   0   5   3   65.75    3.55
   1  -5   3   73.37    3.69
   1  -5   3   73.39    3.70
  -1  -5  -3   75.01    3.65
  -1   5  -3   65.27    3.68
   1   5   3   65.37    3.64
  -1   5  -3   62.21    3.49
   1   5   3   66.06    3.67
   2  -5   3   80.32    4.23
  -2  -5  -3   77.14    4.05
  -2  -5  -3   81.56    4.20
   2  -5   3   80.60    4.24
   2   5   3   77.89    4.20
   2   5   3   77.55    4.22
  -2   5  -3   76.85    4.22
  -3  -5  -3  141.72    7.64
  -3  -5  -3  148.40    7.96
   3   5   3  153.19    7.93
  -3   5  -3  155.19    7.99
   3   5   3  150.47    8.00
   4  -5   3   25.87    1.40
   4   5   3   27.51    1.57
  -4   5  -3   28.95    1.53
  -5  -5  -3    0.51    0.30
   5   5   3    0.10    0.25
  -6  -5  -3    5.84    0.61
  -6   5  -3    6.06    0.62
   6   5   3    6.03    0.59
  -6  -6   3    9.78    0.78
  -6  -6   3    9.56    0.80
  -6   6   3    9.47    0.76
  -5  -6   3   12.42    0.86
  -5  -6   3   11.92    0.85
   5   6  -3   13.09    0.79
  -5   6   3   12.66    0.89
   4  -6  -3   30.62    1.62
  -4  -6   3   30.39    1.73
  -4  -6   3   30.89    1.67
   4   6  -3   29.99    1.68
  -4   6   3   30.25    1.76
  -3  -6   3    3.09    0.35
  -3  -6   3    3.30    0.36
  -3  -6   3    3.39    0.32
  -3   6   3    3.13    0.41
  -3   6   3    3.24    0.28
  -2  -6   3   36.04    2.04
  -2  -6   3   35.99    2.16
  -2  -6   3   35.39    2.11
  -2   6   3   44.80    2.05
  -2   6   3   44.47    2.19
   1  -6  -3  335.73   17.29
  -1  -6   3  335.82   17.60
  -1  -6   3  326.22   16.63
  -1  -6   3  332.78   17.27
  -1   6   3  305.98   16.65
   0  -6  -3  209.64   10.59
   0  -6   3  202.89   10.79
   0   6   3  196.58   10.67
   0   6   3  197.44   10.69
   0   6  -3  200.03   10.16
   0   6  -3  196.41   10.72
   1  -6   3  154.10    8.41
  -1  -6  -3  157.85    8.30
   1   6   3  157.93    8.31
   1   6   3  160.17    8.40
  -1   6  -3  159.07    8.02
  -1   6  -3  156.49    8.41
   1   6   3  158.22    8.41
  -2  -6  -3    8.06    0.55
   2  -6   3    8.00    0.55
  -2  -6  -3    8.09    0.57
  -2   6  -3    8.98    0.54
   2   6   3    9.33    0.54
   2   6   3    9.05    0.56
  -3  -6  -3   56.20    3.01
  -3  -6  -3   58.89    3.09
  -3   6  -3   58.16    3.12
   3   6   3   57.10    3.12
  -4  -6  -3   52.60    3.01
  -4   6  -3   59.67    3.10
   4   6   3   58.82    3.11
  -5  -6  -3   21.46    1.32
   5   6   3   23.35    1.36
  -6  -6  -3    5.56    0.62
   6   6   3    6.11    0.60
  -6  -7   3    0.23    0.36
  -6   7   3    0.39    0.37
  -5  -7   3    3.33    0.46
  -5  -7   3    3.15    0.42
   5   7  -3    1.94    0.30
  -5   7   3    2.10    0.40
  -4  -7   3   22.13    1.19
  -4  -7   3   21.11    1.22
  -4   7   3   19.11    1.24
   4   7  -3   19.31    1.17
  -3  -7   3   37.07    2.01
  -3  -7   3   36.83    2.06
  -3  -7   3   37.26    2.11
  -3   7   3   38.29    2.13
  -3   7   3   39.81    1.97
  -2  -7   3  101.16    5.57
  -2  -7   3  101.35    5.66
  -2  -7   3  102.83    5.37
  -2   7   3  111.32    5.37
  -2   7   3  109.94    5.68
  -1  -7   3   25.23    1.43
   1  -7  -3   25.91    1.40
  -1  -7   3   25.04    1.40
  -1   7   3   26.58    1.46
   1   7  -3   24.70    1.32
   0  -7  -3   65.04    3.63
   0  -7   3   66.05    3.69
   0   7  -3   71.34    3.48
   0   7  -3   70.12    3.70
   0   7   3   69.36    3.70
   1  -7   3   39.99    2.37
  -1  -7  -3   40.77    2.35
   1   7   3   43.88    2.35
   1   7   3   45.39    2.39
  -1   7  -3   45.75    2.39
   1   7   3   44.32    2.37
  -1   7  -3   45.33    2.23
  -2  -7  -3  119.58    6.00
   2  -7   3  121.19    6.28
   2   7   3  113.64    6.21
  -2   7  -3  114.07    6.27
  -3  -7  -3   76.62    3.96
  -3  -7  -3   70.06    3.84
  -3   7  -3   75.33    4.00
  -4   7  -3    3.09    0.36
   4   7   3    2.92    0.44
  -5  -7  -3    3.92    0.50
   5   7   3    4.22    0.49
  -6  -7  -3    2.32    0.45
  -6  -8   3    5.71    0.63
  -6   8   3    6.67    0.68
  -5  -8   3   11.28    0.77
  -5  -8   3   11.60    0.78
  -5   8   3    9.03    0.79
   5   8  -3    8.87    0.68
  -4  -8   3   11.70    0.80
  -4  -8   3   11.71    0.77
  -4   8   3   10.83    0.82
  -3  -8   3    3.91    0.41
  -3  -8   3    4.21    0.42
  -3   8   3    4.34    0.33
  -3   8   3    3.69    0.44
  -2  -8   3   49.10    2.52
  -2  -8   3   47.07    2.37
  -2  -8   3   46.83    2.47
  -2   8   3   42.60    2.52
  -2   8   3   42.29    2.36
  -1  -8   3   63.25    3.32
   1  -8  -3   65.38    3.32
  -1  -8   3   61.52    3.37
   1   8  -3   61.33    3.17
   1   8  -3   60.07    3.38
  -1   8   3   60.99    3.39
   0  -8  -3  130.51    6.71
   0  -8   3  130.38    6.81
   0   8   3  122.62    6.82
   0   8  -3  128.74    6.45
   0   8  -3  123.43    6.82
   1  -8   3   55.35    3.19
   1   8   3   60.91    3.21
  -1   8  -3   59.74    3.20
  -1   8  -3   59.48    3.00
   2   8   3    2.64    0.35
  -2   8  -3    2.77    0.33
  -3  -8  -3   39.98    2.07
  -3  -8  -3   38.76    2.06
   3   8   3   36.05    2.11
  -3   8  -3   37.35    2.10
  -4  -8  -3   51.47    2.83
   4   8   3   53.12    2.93
  -4   8  -3   55.00    2.92
  -5  -8  -3   17.25    1.16
   5   8   3   19.48    1.19
  -6  -8  -3    5.44    0.63
  -5  -9   3    3.18    0.50
  -5  -9   3    3.33    0.47
  -5   9   3    3.57    0.56
  -4  -9   3    9.78    0.68
  -4  -9   3    9.10    0.69
  -4   9   3    7.45    0.72
  -3  -9   3   43.36    2.16
  -3  -9   3   44.25    2.27
  -3   9   3   35.97    2.27
  -3   9   3   37.98    2.09
  -2  -9   3   75.31    4.20
  -2  -9   3   74.29    4.42
  -2   9   3   87.73    4.20
  -2   9   3   89.89    4.47
  -1  -9   3   43.12    2.53
   1   9  -3   48.16    2.37
   1   9  -3   46.60    2.55
  -1   9   3   45.95    2.55
   0  -9   3   24.85    1.50
   0   9  -3   27.94    1.39
   0   9   3   26.63    1.52
   0   9  -3   26.72    1.52
   1  -9   3   70.90    3.86
   1   9   3   73.08    3.87
  -1   9  -3   70.27    3.86
  -1   9  -3   70.41    3.63
  -2   9  -3   65.95    3.59
   2   9   3   66.24    3.56
  -3  -9  -3   35.05    2.03
  -3  -9  -3   37.14    2.05
  -3   9  -3   39.08    2.09
   3   9   3   38.73    2.10
  -4  -9  -3    6.37    0.55
  -4   9  -3    4.77    0.49
   4   9   3    4.38    0.50
  -5  -9  -3    1.18    0.38
   5   9   3    1.13    0.33
  -5 -10   3    6.32    0.62
  -5 -10   3    6.30    0.66
  -5  10   3    6.25    0.68
  -4 -10   3    1.73    0.35
  -4 -10   3    2.13    0.36
  -4  10   3    2.55    0.43
  -3 -10   3    2.00    0.33
  -3 -10   3    2.03    0.31
  -3  10   3    1.73    0.35
  -3  10   3    1.97    0.26
  -2 -10   3   10.04    0.73
  -2  10   3   11.72    0.66
  -2  10   3   11.57    0.78
  -1 -10   3   68.79    3.75
  -1  10   3   69.75    3.78
   1  10  -3   68.30    3.77
   0 -10   3   65.04    3.61
   0  10   3   64.56    3.62
   0  10  -3   66.78    3.63
   0  10  -3   68.68    3.40
   1 -10   3   23.76    1.29
  -1  10  -3   21.48    1.16
  -1  10  -3   21.94    1.29
   1  10   3   21.46    1.30
   2  10   3    4.74    0.48
  -2  10  -3    5.32    0.47
   2  10   3    4.80    0.45
  -3  10  -3   16.69    1.02
   3  10   3   16.64    1.03
  -4 -10  -3   11.25    0.77
   4  10   3    9.49    0.75
  -5 -10  -3   19.71    1.21
   5  10   3   17.31    1.18
  -5 -11   3    0.78    0.35
  -5 -11   3    0.89    0.41
  -5  11   3    0.99    0.42
  -4 -11   3   14.10    0.91
  -4 -11   3   14.52    0.90
  -4  11   3   12.28    0.98
  -3 -11   3   29.99    1.68
  -3 -11   3   29.42    1.59
  -3  11   3   26.86    1.71
  -2 -11   3   22.55    1.28
  -2  11   3   20.62    1.30
  -2  11   3   21.02    1.17
  -1 -11   3   15.89    1.04
  -1  11   3   17.32    1.08
   1  11  -3   17.36    1.06
   0 -11   3    2.88    0.36
   0  11   3    2.68    0.43
   0  11  -3    2.48    0.38
   1 -11   3   40.00    2.05
  -1  11  -3   34.30    1.88
   1  11   3   34.97    2.05
  -1  11  -3   36.10    2.06
   2  11   3   31.66    1.82
  -2  11  -3   31.29    1.80
  -3  11  -3   21.03    1.26
   3  11   3   20.39    1.25
  -4 -11  -3   13.71    0.94
   4  11   3   13.79    0.94
  -5 -11  -3    3.42    0.51
  -4 -12   3    5.61    0.61
  -4 -12   3    6.25    0.63
  -4  12   3    7.62    0.66
  -3 -12   3    4.56    0.52
  -3  12   3    3.66    0.52
  -2 -12   3   15.08    0.93
  -2  12   3   13.95    0.82
  -2  12   3   13.62    0.95
   2  12  -3   13.67    0.97
  -1 -12   3   21.65    1.39
   1  12  -3   25.24    1.44
  -1  12   3   23.95    1.42
   0 -12   3   15.94    0.97
   0  12  -3   15.27    1.00
   0  12   3   14.73    0.98
   1 -12   3   12.44    0.83
   1  12   3   11.52    0.82
  -1  12  -3   12.39    0.68
  -1  12  -3   11.98    0.82
  -2  12  -3    0.06    0.27
   2  12   3    0.20    0.30
  -3  12  -3   20.33    1.25
   4  12   3   11.10    0.86
  -4 -13   3    6.52    0.66
  -4 -13   3    6.93    0.66
  -4  13   3    7.06    0.74
  -3 -13   3    8.94    0.67
  -3  13   3    7.70    0.72
  -2 -13   3    2.98    0.44
  -2  13   3    3.57    0.55
   2  13  -3    3.53    0.51
  -1 -13   3    0.62    0.29
  -1  13   3    0.22    0.31
   1  13  -3    0.26    0.30
   0 -13   3    3.62    0.50
   0  13  -3    4.75    0.54
   0  13   3    4.36    0.49
   1 -13   3    6.57    0.57
   1  13   3    5.36    0.59
  -1  13  -3    5.84    0.59
  -2  13  -3   10.34    0.78
   2  13   3   10.52    0.78
   3  13   3   15.14    1.05
  -3  13  -3   15.31    1.01
  -4 -14   3    5.37    0.64
  -4  14   3    4.98    0.72
  -3 -14   3    3.62    0.50
   3  14  -3    3.13    0.49
  -3  14   3    3.13    0.50
  -2 -14   3   11.51    0.84
   2  14  -3   10.88    0.86
  -2  14   3   10.83    0.85
  -1 -14   3   17.69    1.16
  -1  14   3   18.77    1.21
   1  14  -3   19.71    1.21
   0 -14   3    5.21    0.60
   0  14   3    6.52    0.63
   0  14  -3    6.69    0.60
   1 -14   3    4.58    0.59
   1  14   3    6.84    0.64
  -1  14  -3    6.96    0.63
  -2  14  -3    0.00    0.32
   2  14   3    0.22    0.32
   3  14   3    1.12    0.42
   4  14   3    5.32    0.67
  -3 -15   3    7.78    0.73
  -3  15   3    7.61    0.82
   3  15  -3    8.23    0.82
  -2 -15   3    2.41    0.41
   2  15  -3    2.11    0.45
  -2  15   3    1.90    0.47
  -1 -15   3    0.38    0.33
  -1  15   3    0.45    0.37
   1  15  -3    0.48    0.36
   0 -15   3    0.61    0.36
   0  15  -3    0.36    0.34
   0  15   3    0.64    0.38
   1  15   3    4.81    0.61
  -1  15  -3    5.18    0.57
   2  15   3    6.50    0.70
  -2  15  -3    6.79    0.68
   3  15   3    5.04    0.66
  -2 -16   3    2.71    0.46
   2  16  -3    2.83    0.50
  -2  16   3    2.24    0.48
  -1 -16   3    1.68    0.42
   1  16  -3    1.31    0.42
  -1  16   3    1.60    0.47
   0 -16   3   14.85    0.98
   0  16  -3   12.46    0.98
   0  16   3   12.41    0.99
   1  16   3    6.02    0.65
  -1  16  -3    6.58    0.70
  -2  16  -3    2.25    0.45
   2  16   3    2.21    0.45
  -1 -17   3   -0.01    0.40
   1  17  -3    0.12    0.39
  -1  17   3   -0.16    0.41
   0 -17   3    4.18    0.64
   0  17   3    4.40    0.61
   0  17  -3    4.26    0.65
  -1  17  -3    6.13    0.71
   1  17   3    5.78    0.71
  -6   0   4    4.12    0.56
  -5   0   4    3.77    0.51
   5   0  -4    3.73    0.36
   5   0  -4    3.95    0.41
   4   0  -4   24.83    1.33
   4   0  -4   23.75    1.34
  -4   0   4   24.61    1.43
  -3   0   4   13.87    0.84
   3   0  -4   12.85    0.77
   3   0  -4   13.85    0.74
  -2   0   4   54.45    2.95
   2   0  -4   55.02    2.85
   2   0  -4   53.58    2.80
  -1   0   4   56.80    2.95
   1   0  -4   58.48    3.09
  -1   0   4   57.00    3.09
   0   0  -4   86.95    4.65
   0   0   4   86.86    4.46
   0   0  -4   87.10    4.65
   0   0   4   89.76    4.67
   0   0  -4   86.86    4.46
   1   0   4  207.46   10.35
  -1   0  -4  198.49   10.31
   2   0   4  112.08    5.97
  -2   0  -4  112.55    5.71
   3   0   4    4.08    0.32
  -3   0  -4    4.27    0.35
  -4   0  -4    6.68    0.51
   4   0   4    6.53    0.52
   4   0   4    6.56    0.49
  -5   0  -4   23.17    1.32
   5   0   4   23.18    1.38
  -6   0  -4   17.15    1.09
   6   0   4   17.70    1.13
  -6  -1   4    9.23    0.75
  -6   1   4    8.66    0.75
   5  -1  -4   11.37    0.67
   5  -1  -4   11.68    0.71
  -5  -1   4   11.08    0.79
  -5   1   4   10.18    0.78
   5   1  -4   10.14    0.66
   5   1  -4   10.47    0.72
   4  -1  -4    1.88    0.23
   4  -1  -4    1.88    0.25
  -4  -1   4    1.83    0.31
  -4   1   4    1.77    0.30
   4   1  -4    1.82    0.26
   4   1  -4    1.95    0.22
   3  -1  -4   55.68    2.85
   3  -1  -4   53.72    2.79
  -3  -1   4   56.73    2.95
  -3   1   4   52.40    2.94
   3   1  -4   53.30    2.85
   3   1  -4   51.22    2.80
   2  -1  -4  108.69    5.44
   2  -1  -4  102.77    5.30
  -2  -1   4  107.40    5.57
  -2   1   4  102.41    5.56
  -2   1   4  103.18    5.30
   2   1  -4   97.89    5.29
   1  -1  -4  182.29    9.81
  -1  -1   4  187.74    9.79
  -1  -1   4  189.31   10.36
   1  -1  -4  195.76   10.27
  -1   1   4  200.19   10.35
   1   1  -4  200.16   10.30
  -1   1   4  191.50    9.82
   1   1  -4  196.39    9.89
   0   1   4   27.94    1.48
   0   1  -4   27.38    1.48
   0   1   4   28.81    1.51
   0   1  -4   28.59    1.52
   0   1   4   29.07    1.53
   1  -1   4  124.70    6.52
   1  -1   4  127.38    6.82
  -1  -1  -4  122.79    6.51
   1  -1   4  127.03    6.82
   1  -1   4  130.47    6.49
   1   1   4  134.47    6.78
  -1   1  -4  128.21    6.53
   1   1   4  130.25    6.51
  -2  -1  -4  102.72    5.22
   2  -1   4  100.01    5.45
   2  -1   4  103.14    5.45
  -2   1  -4  103.09    5.21
   2   1   4  103.99    5.42
   2   1   4  101.53    5.44
   3  -1   4  140.16    7.48
  -3  -1  -4  133.29    7.14
  -3   1  -4  142.93    7.13
   3   1   4  143.03    7.47
   3   1   4  141.43    7.42
  -4  -1  -4   30.40    1.93
   4  -1   4   32.15    2.00
   4   1   4   40.56    2.01
  -4   1  -4   39.43    1.95
   4   1   4   39.26    2.03
   5  -1   4    9.94    0.71
  -5  -1  -4    9.75    0.66
  -5   1  -4    8.45    0.64
   5   1   4    8.22    0.67
   6  -1   4    1.07    0.34
  -6  -1  -4    1.36    0.39
  -6   1  -4    1.52    0.37
   6   1   4    1.22    0.36
  -6  -2   4    2.72    0.43
  -6   2   4    2.93    0.46
   5  -2  -4   20.23    1.20
  -5  -2   4   20.90    1.30
   5  -2  -4   20.88    1.20
   5   2  -4   22.39    1.21
  -5   2   4   21.70    1.29
   5   2  -4   21.47    1.22
   4  -2  -4   68.34    3.89
  -4  -2   4   67.85    4.00
   4  -2  -4   66.45    3.79
   4   2  -4   79.87    3.82
  -4   2   4   78.68    4.02
   4   2  -4   80.27    3.90
  -3  -2   4   34.93    2.00
   3  -2  -4   33.40    1.89
   3   2  -4   37.51    1.92
   3   2  -4   36.24    1.90
  -3   2   4   37.80    2.01
  -2  -2   4   12.25    0.63
  -2  -2   4   11.78    0.70
   2  -2  -4   11.78    0.65
  -2   2   4   10.98    0.66
  -2   2   4   10.41    0.71
   1  -2  -4   21.80    1.22
   1  -2  -4   22.21    1.27
   1  -2  -4   23.01    1.22
  -1  -2   4   22.78    1.28
   1   2  -4   22.86    1.22
  -1   2   4   24.37    1.28
   1   2  -4   23.90    1.27
   0  -2   4  204.92   10.97
   0  -2   4  205.60   11.59
   0  -2   4  205.01   11.10
   0  -2  -4  207.65   11.44
   0   2   4  223.76   11.46
   0   2  -4  230.56   11.57
   0   2  -4  223.05   11.59
   0   2  -4  216.99   11.09
   0   2   4  219.66   11.02
   0   2   4  230.47   11.60
  -1  -2  -4  146.87    7.94
   1  -2   4  153.33    7.98
   1  -2   4  154.14    8.37
   1  -2   4  151.43    8.34
  -1   2  -4  163.43    7.95
   1   2   4  161.74    8.24
   1   2   4  164.31    7.95
   2  -2   4  190.10   10.00
   2  -2   4  186.92    9.96
  -2  -2  -4  186.27    9.50
  -2   2  -4  190.05    9.55
   2   2   4  183.46    9.96
   2   2   4  186.71    9.86
   3  -2   4   23.00    1.14
  -3  -2  -4   23.71    1.13
   3   2   4   19.50    1.13
   3   2   4   17.17    1.16
  -3   2  -4   17.71    1.10
  -4  -2  -4    1.51    0.26
   4  -2   4    1.67    0.22
  -4   2  -4    1.01    0.24
   4   2   4    0.70    0.25
   4   2   4    1.31    0.22
  -5  -2  -4   31.55    1.66
  -5   2  -4   28.10    1.63
   5   2   4   28.64    1.70
  -6  -2  -4   17.53    1.08
   6  -2   4   17.58    1.12
  -6   2  -4   16.83    1.09
   6   2   4   16.38    1.10
  -6  -3   4    2.50    0.44
  -6  -3   4    2.91    0.42
  -6   3   4    1.64    0.42
   5  -3  -4    8.04    0.56
  -5  -3   4    8.02    0.62
   5  -3  -4    8.84    0.54
  -5   3   4    6.62    0.62
   5   3  -4    6.53    0.52
   4  -3  -4    3.10    0.32
  -4  -3   4    2.47    0.38
   4   3  -4    2.41    0.32
  -4   3   4    2.34    0.38
   4   3  -4    2.95    0.27
   3  -3  -4   34.05    1.70
  -3  -3   4   35.86    1.81
   3   3  -4   30.03    1.72
   3   3  -4   29.87    1.70
  -3   3   4   30.86    1.80
   2  -3  -4  174.94    8.33
  -2  -3   4  180.57    8.75
  -2  -3   4  177.74    8.62
  -2   3   4  146.88    8.32
   2   3  -4  148.13    8.33
  -2   3   4  154.08    8.75
   1  -3  -4  165.20    9.87
  -1  -3   4  167.22   10.01
  -1   3   4  206.30   10.09
  -1   3   4  204.20    9.61
   1   3  -4  197.22    9.57
   0  -3  -4  353.22   18.92
   0  -3   4  352.46   18.31
   0  -3   4  359.75   19.20
   0   3  -4  369.14   19.16
   0   3  -4  359.67   18.29
   0   3  -4  361.47   19.17
   0   3   4  353.23   18.91
   0   3   4  363.16   19.19
   1  -3   4   59.60    3.35
   1  -3   4   61.24    3.35
  -1  -3  -4   61.48    3.32
   1  -3   4   61.47    3.20
  -1   3  -4   63.45    3.17
   1   3   4   63.94    3.22
   1   3   4   63.30    3.32
  -1   3  -4   65.92    3.33
  -2  -3  -4   57.76    3.01
   2  -3   4   57.00    3.13
   2  -3   4   56.99    2.98
   2  -3   4   59.17    3.13
   2   3   4   59.61    3.12
  -2   3  -4   59.63    2.98
   2   3   4   57.88    3.11
   3  -3   4  155.52    8.82
  -3  -3  -4  153.31    8.42
  -3   3  -4  175.26    8.40
   3   3   4  173.44    8.81
   3   3   4  169.39    8.74
  -4  -3  -4   27.16    1.39
   4   3   4   24.18    1.40
  -4   3  -4   24.40    1.36
   4   3   4   23.10    1.42
  -5  -3  -4   34.24    1.85
  -5   3  -4   33.28    1.82
   5   3   4   32.50    1.90
  -6  -3  -4    4.41    0.55
  -6   3  -4    4.88    0.57
   6   3   4    4.28    0.54
  -6  -4   4    0.45    0.35
  -6  -4   4    0.38    0.34
  -6   4   4    0.16    0.36
  -5  -4   4   46.61    2.60
  -5  -4   4   45.90    2.49
   5  -4  -4   47.17    2.46
   5   4  -4   45.66    2.50
  -5   4   4   46.49    2.62
  -4  -4   4   73.81    3.90
   4  -4  -4   74.55    3.89
  -4  -4   4   74.45    4.11
   4   4  -4   74.78    3.92
   4   4  -4   78.55    4.01
  -4   4   4   76.44    4.12
   3  -4  -4   48.86    2.52
  -3  -4   4   47.86    2.66
  -3  -4   4   47.87    2.59
  -3   4   4   50.16    2.68
   3   4  -4   47.68    2.54
  -2  -4   4    1.73    0.27
   2  -4  -4    1.85    0.26
  -2  -4   4    2.03    0.21
  -2   4   4    2.85    0.32
  -1  -4   4   50.94    2.58
   1  -4  -4   49.55    2.51
  -1  -4   4   51.65    2.42
  -1   4   4   45.86    2.58
   1   4  -4   43.40    2.45
  -1   4   4   43.07    2.45
   0  -4   4  213.33   11.83
   0  -4  -4  220.12   11.60
   0   4  -4  219.80   11.76
   0   4   4  223.81   11.60
   0   4  -4  219.23   11.78
   0   4   4  221.11   11.79
   0   4  -4  224.46   11.27
   1  -4   4  190.21    9.57
   1  -4   4  192.84   10.13
  -1  -4  -4  195.23    9.89
   1  -4   4  191.68   10.02
  -1   4  -4  189.23    9.53
  -1   4  -4  185.43   10.05
  -1   4  -4  185.24   10.02
   1   4   4  181.77   10.04
  -1   4  -4  175.54    9.55
   1   4   4  194.62    9.96
   2  -4   4   42.52    2.27
   2  -4   4   42.38    2.15
  -2  -4  -4   41.96    2.27
  -2  -4  -4   40.49    2.19
   2  -4   4   42.43    2.28
  -2   4  -4   41.44    2.24
  -2   4  -4   42.70    2.25
   2   4   4   41.78    2.26
   2   4   4   41.52    2.27
  -3  -4  -4   23.48    1.23
   3  -4   4   23.37    1.15
   3  -4   4   24.13    1.26
   3   4   4   19.82    1.22
   3   4   4   19.30    1.25
  -4  -4  -4    6.38    0.50
  -4   4  -4    5.69    0.47
   4   4   4    5.28    0.49
  -5  -4  -4    5.15    0.51
   5   4   4    4.46    0.50
  -5   4  -4    4.52    0.50
  -6  -4  -4   12.91    0.95
   6   4   4   15.21    1.01
  -6   4  -4   14.19    0.95
  -6  -5   4    8.52    0.70
  -6  -5   4    7.68    0.72
  -6   5   4    7.58    0.73
  -5  -5   4    8.92    0.71
  -5  -5   4    8.81    0.72
   5  -5  -4    9.21    0.66
  -5   5   4    9.21    0.74
   5   5  -4    9.62    0.62
  -4  -5   4    0.01    0.23
  -4  -5   4   -0.02    0.26
   4  -5  -4    0.16    0.19
  -4   5   4   -0.20    0.25
   4   5  -4    0.05    0.15
  -3  -5   4   29.38    1.59
  -3  -5   4   28.26    1.48
   3  -5  -4   28.59    1.49
  -3  -5   4   28.39    1.52
  -3   5   4   25.33    1.58
  -3   5   4   26.25    1.47
  -2  -5   4   56.16    3.16
  -2  -5   4   56.26    3.27
  -2  -5   4   55.83    3.34
  -2   5   4   69.63    3.36
  -2   5   4   70.44    3.18
   1  -5  -4    6.39    0.40
  -1  -5   4    6.56    0.44
  -1  -5   4    6.34    0.37
   0  -5   4  180.42    9.65
   0  -5  -4  175.58    9.53
   0   5  -4  180.46    9.70
   0   5  -4  183.31    9.25
   0   5   4  185.26    9.73
   0   5   4  181.55    9.56
   1  -5   4   65.67    3.56
   1  -5   4   67.76    3.57
  -1  -5  -4   67.82    3.53
   1   5   4   66.07    3.53
   1   5   4   67.13    3.55
   1   5   4   66.39    3.56
  -1   5  -4   67.93    3.56
  -1   5  -4   61.69    3.38
  -2  -5  -4   34.37    2.00
   2  -5   4   35.21    1.88
   2  -5   4   35.64    2.00
  -2  -5  -4   34.27    1.94
   2  -5   4   34.69    2.01
   2   5   4   39.53    2.00
  -2   5  -4   40.10    1.99
   2   5   4   39.92    2.01
   3  -5   4   37.93    2.08
  -3  -5  -4   38.21    2.17
   3   5   4   43.25    2.23
  -3   5  -4   43.56    2.20
  -4  -5  -4   59.81    3.09
   4  -5   4   59.67    2.98
   4   5   4   56.24    3.19
  -5  -5  -4   33.95    1.90
   5   5   4   34.14    1.96
  -5   5  -4   34.95    1.88
  -6  -5  -4    5.06    0.64
  -6   5  -4    4.51    0.57
  -6  -6   4    1.01    0.41
  -6  -6   4    1.19    0.37
  -6   6   4    0.47    0.39
  -5  -6   4   21.66    1.20
  -5  -6   4   21.79    1.24
  -5   6   4   17.24    1.24
   5   6  -4   18.37    1.14
  -4  -6   4   61.41    3.26
   4  -6  -4   61.21    3.07
  -4  -6   4   61.85    3.10
  -4   6   4   51.77    3.25
  -3  -6   4   56.36    2.87
  -3  -6   4   53.64    2.95
  -3  -6   4   53.81    3.02
  -3   6   4   55.30    2.85
  -3   6   4   56.55    3.05
  -2  -6   4   41.56    2.35
  -2  -6   4   42.34    2.40
  -2  -6   4   42.17    2.27
  -2   6   4   45.09    2.42
  -2   6   4   47.80    2.28
  -1  -6   4   68.23    3.64
  -1  -6   4   68.40    3.43
   1  -6  -4   70.04    3.57
   1   6  -4   64.69    3.46
  -1   6   4   66.81    3.65
  -1   6   4   65.59    3.46
   0  -6  -4   94.15    4.94
   0  -6   4   96.25    5.02
   0   6   4   92.44    5.02
   0   6  -4   92.49    5.02
   0   6  -4   92.66    4.77
  -1  -6  -4   80.47    4.31
   1  -6   4   80.00    4.38
   1  -6   4   79.19    4.37
  -1   6  -4   83.50    4.36
   1   6   4   83.28    4.37
  -1   6  -4   78.90    4.14
   1   6   4   82.01    4.36
   1   6   4   83.15    4.32
  -2  -6  -4   60.88    3.53
   2  -6   4   61.97    3.68
   2   6   4   72.18    3.67
  -2   6  -4   73.11    3.67
   2   6   4   73.32    3.67
  -3  -6  -4   25.67    1.63
   3   6   4   30.90    1.68
   3   6   4   30.99    1.70
  -3   6  -4   32.73    1.66
  -4  -6  -4    1.18    0.30
   4   6   4    1.11    0.27
  -5  -6  -4   13.37    0.93
   5   6   4   13.87    0.94
  -6  -6  -4    6.44    0.67
  -6   6  -4    7.35    0.66
  -6  -7   4    8.67    0.74
  -6  -7   4    8.58    0.78
  -6   7   4    9.56    0.81
  -5  -7   4    8.64    0.68
  -5  -7   4    7.73    0.68
  -5   7   4    8.56    0.73
  -4  -7   4    0.21    0.26
  -4  -7   4    0.53    0.27
  -4   7   4    0.75    0.30
  -3  -7   4  144.25    8.10
  -3  -7   4  147.43    7.69
  -3  -7   4  146.31    7.97
  -3   7   4  164.76    7.69
  -3   7   4  151.95    8.12
  -2  -7   4  123.19    6.73
  -2  -7   4  127.68    6.38
  -2  -7   4  120.87    6.62
  -2   7   4  129.24    6.40
  -2   7   4  125.88    6.74
   1  -7  -4   51.72    2.72
  -1  -7   4   51.98    2.78
  -1   7   4   50.62    2.78
  -1   7   4   49.09    2.64
   0   7   4   28.96    1.61
   0   7  -4   28.58    1.47
   0   7  -4   28.97    1.61
   0   7  -4   28.53    1.51
  -1  -7  -4   15.50    0.86
   1  -7   4   15.09    0.87
  -1   7  -4   14.66    0.79
   1   7   4   15.19    0.89
  -1   7  -4   14.57    0.87
   1   7   4   14.38    0.86
   1   7   4   14.20    0.86
   2  -7   4   18.98    1.21
   2   7   4   21.92    1.20
  -2   7  -4   22.14    1.20
   2   7   4   21.98    1.22
  -3  -7  -4   19.92    1.17
  -3   7  -4   21.30    1.16
   3   7   4   19.78    1.20
  -4  -7  -4   54.50    2.83
   4   7   4   51.81    2.92
  -5  -7  -4   26.64    1.58
   5   7   4   28.19    1.63
  -6  -7  -4    1.32    0.42
  -6   7  -4    1.50    0.39
  -5  -8   4   10.65    0.78
  -5  -8   4   10.50    0.79
  -5   8   4    9.82    0.83
  -4  -8   4   24.35    1.34
  -4  -8   4   24.86    1.42
  -4   8   4   21.50    1.43
  -3  -8   4   36.72    1.82
  -3  -8   4   36.24    1.93
  -3   8   4   31.78    1.78
  -3   8   4   30.47    1.93
  -2  -8   4   14.62    0.88
  -2  -8   4   13.68    0.91
  -2  -8   4   14.63    0.96
  -2   8   4   17.54    0.89
  -2   8   4   17.31    0.98
   1  -8  -4   22.47    1.16
  -1  -8   4   21.83    1.16
  -1  -8   4   21.77    1.19
  -1   8   4   19.90    1.22
  -1   8   4   18.52    1.12
   1   8  -4   18.62    1.20
   0  -8  -4   28.56    1.48
   0  -8   4   28.56    1.51
   0   8  -4   26.18    1.37
   0   8   4   25.68    1.51
   0   8  -4   25.20    1.40
   0   8  -4   25.90    1.51
   1  -8   4   71.52    4.03
   1   8   4   73.57    3.99
   1   8   4   76.68    4.05
  -1   8  -4   76.42    4.04
  -1   8  -4   75.49    3.81
   2  -8   4   68.27    3.97
  -2   8  -4   76.23    3.97
   2   8   4   76.19    3.95
  -3  -8  -4   69.47    3.74
   3   8   4   70.69    3.86
  -3   8  -4   74.37    3.87
  -4  -8  -4    1.25    0.33
   4   8   4    1.49    0.31
  -5  -8  -4    5.91    0.60
   5   8   4    6.80    0.62
  -5  -9   4   10.40    0.80
  -5  -9   4   10.50    0.80
  -5   9   4   11.66    0.85
  -4  -9   4    2.87    0.44
  -4  -9   4    2.94    0.47
  -4   9   4    2.58    0.41
  -3  -9   4   28.53    1.60
  -3  -9   4   28.15    1.70
  -3   9   4   31.86    1.57
  -3   9   4   29.28    1.72
  -2  -9   4  117.48    6.04
  -2  -9   4  116.65    6.37
  -2   9   4  118.52    6.05
  -2   9   4  120.70    6.40
  -1  -9   4   61.49    3.05
  -1   9   4   53.98    3.06
   1   9  -4   51.39    3.05
   0  -9   4   31.53    1.93
   0   9   4   35.48    1.95
   0   9  -4   35.71    1.95
   0   9  -4   36.01    1.79
   0   9  -4   34.90    1.82
   1  -9   4    9.04    0.61
  -1   9  -4    8.50    0.50
  -1   9  -4    8.35    0.60
   1   9   4    8.36    0.61
   2  -9   4   44.91    2.68
   2   9   4   49.75    2.70
   2   9   4   49.64    2.67
  -2   9  -4   51.32    2.69
  -3  -9  -4   29.31    1.50
   3   9   4   24.59    1.51
  -3   9  -4   24.47    1.48
  -4  -9  -4   15.11    0.88
   4   9   4   10.75    0.85
  -5  -9  -4    6.54    0.69
   5   9   4    7.71    0.66
  -5 -10   4   10.03    0.78
  -5 -10   4   10.20    0.80
  -5  10   4   10.96    0.84
  -4 -10   4   10.05    0.76
  -4 -10   4   10.68    0.77
  -4  10   4   11.00    0.82
  -3 -10   4    8.92    0.61
  -3 -10   4    9.12    0.66
  -3  10   4    8.54    0.71
  -3  10   4    8.51    0.56
  -2 -10   4   14.00    0.85
  -2  10   4   12.56    0.78
  -2  10   4   12.56    0.89
  -1 -10   4   10.16    0.78
  -1  10   4   12.73    0.82
   1  10  -4   12.68    0.82
   0 -10   4    3.15    0.38
   0  10  -4    3.63    0.42
   0  10   4    3.37    0.39
   0  10  -4    3.43    0.29
   0  10  -4    4.02    0.28
   1 -10   4   61.22    3.29
   1  10   4   58.93    3.30
  -1  10  -4   61.70    3.08
  -1  10  -4   59.18    3.08
  -1  10  -4   59.77    3.29
   2 -10   4   45.08    2.25
   2  10   4   37.91    2.23
   2  10   4   38.94    2.25
  -2  10  -4   39.13    2.24
   3  10   4   10.94    0.76
  -3  10  -4   10.60    0.72
  -4 -10  -4    1.38    0.38
   4  10   4    1.94    0.36
  -5 -10  -4    3.40    0.52
  -5 -11   4    3.10    0.47
  -5 -11   4    3.03    0.46
  -5  11   4    2.79    0.52
  -4 -11   4    1.22    0.34
  -4 -11   4    1.13    0.34
  -4  11   4    1.38    0.39
  -3 -11   4   12.29    0.80
  -3 -11   4   12.15    0.86
  -3  11   4   12.41    0.90
  -2 -11   4   23.05    1.32
  -2  11   4   21.80    1.21
  -2  11   4   21.14    1.35
   2  11  -4   21.19    1.34
  -1 -11   4   45.39    2.33
  -1  11   4   39.80    2.34
   1  11  -4   39.09    2.33
   0 -11   4   10.97    0.84
   0  11  -4   14.93    0.90
   0  11   4   14.38    0.89
   0  11  -4   13.61    0.76
   1 -11   4    0.79    0.28
  -1  11  -4    1.13    0.28
  -1  11  -4    1.05    0.16
   1  11   4    1.14    0.29
   2 -11   4   10.44    0.69
  -2  11  -4    9.69    0.70
   2  11   4    9.47    0.72
   3  11   4   32.16    1.87
  -3  11  -4   33.09    1.86
   4  11   4   10.50    0.80
  -5 -11  -4    3.61    0.55
  -4 -12   4   15.63    1.02
  -4 -12   4   14.69    1.03
  -4  12   4   16.84    1.13
  -3 -12   4    7.82    0.69
  -3  12   4    8.44    0.75
  -2 -12   4    8.58    0.62
  -2  12   4    7.21    0.68
  -2  12   4    7.05    0.55
   2  12  -4    7.04    0.67
  -1 -12   4   18.13    1.19
   1  12  -4   20.68    1.23
  -1  12   4   19.76    1.22
   0 -12   4   26.26    1.65
   0  12   4   29.31    1.68
   0  12  -4   28.92    1.53
   0  12  -4   30.46    1.68
   1 -12   4   24.83    1.38
   1  12   4   22.50    1.38
  -1  12  -4   22.08    1.22
  -1  12  -4   22.50    1.37
   2  12   4   17.07    1.08
  -2  12  -4   16.33    1.05
   3  12   4    3.51    0.51
   3  12   4    3.63    0.47
  -4 -13   4    0.39    0.34
  -4 -13   4    0.13    0.37
  -4  13   4    0.16    0.42
  -3 -13   4    0.80    0.33
  -3  13   4    0.16    0.36
  -2 -13   4   11.90    0.81
  -2  13   4   10.27    0.82
   2  13  -4   10.04    0.81
  -1 -13   4   35.67    1.98
  -1  13   4   33.97    2.00
   1  13  -4   32.94    1.98
   0 -13   4   10.93    0.82
   0  13  -4   13.57    0.88
   0  13  -4   12.04    0.72
   0  13   4   12.21    0.87
   1 -13   4    7.49    0.64
   1  13   4    8.73    0.71
  -1  13  -4    9.06    0.69
  -2  13  -4    5.95    0.58
   2  13   4    6.08    0.61
   3  13   4   16.29    1.09
  -3 -14   4    4.83    0.54
   3  14  -4    4.21    0.60
  -3  14   4    4.56    0.67
  -2 -14   4    2.43    0.42
   2  14  -4    2.03    0.42
  -2  14   4    1.99    0.43
  -1 -14   4    3.84    0.49
  -1  14   4    3.76    0.53
   1  14  -4    3.56    0.51
   0 -14   4   21.42    1.32
   0  14  -4   20.60    1.32
   0  14   4   21.16    1.32
   1 -14   4   16.49    1.14
  -1  14  -4   19.00    1.16
   1  14   4   17.73    1.17
  -2  14  -4    6.67    0.66
   2  14   4    6.56    0.67
   3  14   4    0.30    0.37
  -3 -15   4    0.32    0.36
   3  15  -4    0.32    0.45
  -3  15   4    0.58    0.45
  -2 -15   4    0.73    0.38
  -2  15   4    0.47    0.39
   2  15  -4    0.69    0.39
  -1 -15   4   12.22    0.91
   1  15  -4   12.75    0.94
  -1  15   4   14.03    1.00
   0 -15   4   10.59    0.83
   0  15   4    9.98    0.84
   0  15  -4   10.49    0.80
   1 -15   4   -0.03    0.34
   1  15   4    0.17    0.37
  -1  15  -4    0.20    0.35
   2  15   4    3.13    0.49
   3  15   4    8.17    0.78
  -2 -16   4    2.90    0.49
  -2  16   4    2.95    0.52
   2  16  -4    3.04    0.51
  -1 -16   4    1.51    0.40
  -1  16   4    0.73    0.42
   1  16  -4    1.12    0.41
   0 -16   4   11.10    0.84
   0  16  -4   11.04    0.88
   0  16   4   10.42    0.89
   1 -16   4    9.11    0.77
  -1  16  -4    9.88    0.78
   1  16   4   10.12    0.81
   2  16   4    8.52    0.76
   0 -17   4    2.95    0.48
   0  17  -4    3.29    0.52
   0  17   4    3.11    0.54
  -6   0   5    3.46    0.49
  -5   0   5   -0.38    0.31
   5   0  -5   -0.08    0.23
   4   0  -5   12.00    0.73
  -4   0   5   11.49    0.79
   4   0  -5   11.99    0.67
  -3   0   5   61.54    3.36
   3   0  -5   61.12    3.20
   3   0  -5   62.12    3.24
   2   0  -5  189.93    9.85
  -2   0   5  194.74   10.34
  -2   0   5  196.41    9.85
   1   0  -5   71.43    3.74
  -1   0   5   73.05    3.91
  -1   0   5   74.09    3.74
   0   0  -5    1.10    0.15
   0   0   5    1.23    0.18
   0   0   5    1.22    0.16
   1   0   5  103.85    5.35
   1   0   5  105.94    5.33
   2   0   5  165.16    8.15
  -2   0  -5  160.38    8.15
   2   0   5  160.40    8.53
   2   0   5  156.16    8.53
  -3   0  -5  118.35    6.01
   3   0   5  117.24    6.28
   4   0   5   66.84    3.61
  -4   0  -5   66.54    3.46
  -5   0  -5    1.13    0.32
   5   0   5    0.56    0.29
  -6   0  -5    1.85    0.42
   6   0   5    1.44    0.39
  -6  -1   5   19.73    1.24
  -6   1   5   19.00    1.24
   5  -1  -5   30.28    1.63
  -5  -1   5   30.01    1.73
  -5   1   5   29.34    1.74
   5   1  -5   28.32    1.62
   4  -1  -5   12.24    0.75
  -4  -1   5   11.50    0.88
   4  -1  -5   11.92    0.80
   4   1  -5   14.92    0.83
  -4   1   5   15.18    0.90
   4   1  -5   15.05    0.76
   3  -1  -5   10.25    0.59
   3  -1  -5    9.90    0.65
  -3  -1   5   10.02    0.71
  -3   1   5   12.44    0.72
   3   1  -5   12.42    0.67
  -2  -1   5   56.69    3.06
   2  -1  -5   55.50    2.92
  -2   1   5   57.37    3.07
  -2   1   5   57.10    2.92
   2   1  -5   55.22    2.92
  -1  -1   5  166.43    8.69
  -1  -1   5  170.14    8.26
   1  -1  -5  159.77    8.26
  -1   1   5  157.82    8.26
   1   1  -5  156.53    8.26
  -1   1   5  163.64    8.69
   0  -1   5  150.88    7.61
   0  -1   5  143.13    7.98
   0   1   5  149.46    7.99
   0   1   5  149.99    7.61
   0   1  -5  145.51    7.96
   0   1  -5  154.59    7.96
   0   1  -5  146.90    7.60
   0   1   5  155.95    7.87
   1  -1   5   31.82    1.76
   1  -1   5   33.01    1.76
   1  -1   5   32.69    1.72
   1  -1   5   33.88    1.70
   2  -1   5   18.82    1.00
   2  -1   5   18.13    1.00
  -2  -1  -5   18.22    1.00
   3  -1   5   16.74    0.93
  -3  -1  -5   16.47    0.93
   3   1   5   16.12    0.97
  -3   1  -5   16.76    0.92
   3   1   5   15.85    0.91
  -4  -1  -5   18.79    1.08
  -4   1  -5   19.37    1.08
   4   1   5   18.56    1.14
   5  -1   5   49.83    2.74
  -5  -1  -5   50.34    2.63
  -5   1  -5   47.99    2.62
   5   1   5   49.08    2.74
  -6  -1  -5   17.79    1.10
   6  -1   5   18.27    1.14
   6   1   5   15.20    1.11
  -6   1  -5   15.39    1.07
  -6  -2   5    2.78    0.46
  -6   2   5    3.62    0.53
  -5  -2   5    0.83    0.32
   5  -2  -5    1.31    0.28
  -5   2   5    1.11    0.33
   4  -2  -5    7.31    0.56
   4  -2  -5    7.69    0.51
  -4  -2   5    7.26    0.62
  -4   2   5    9.20    0.64
   4   2  -5    9.97    0.51
   4   2  -5    9.32    0.58
   3  -2  -5   60.55    3.24
   3  -2  -5   62.60    3.30
  -3  -2   5   64.53    3.42
  -3   2   5   63.34    3.42
   3   2  -5   62.07    3.25
   2  -2  -5   98.77    4.99
  -2  -2   5  102.34    5.24
  -2  -2   5  100.86    5.11
   2  -2  -5  100.89    5.10
   2   2  -5   90.06    4.98
  -2   2   5   94.80    4.98
  -2   2   5   93.64    5.23
  -1  -2   5   96.22    4.93
  -1  -2   5   94.07    4.71
   1  -2  -5   93.11    4.71
   1   2  -5   90.40    4.70
  -1   2   5   88.99    4.93
  -1   2   5   89.08    4.71
   0  -2   5   21.61    1.17
   0  -2   5   21.19    1.20
   0  -2   5   20.81    1.13
   0   2  -5   21.79    1.17
   0   2   5   21.86    1.20
   0   2  -5   23.03    1.19
   0   2   5   22.75    1.19
   0   2  -5   22.38    1.19
   1  -2   5  100.58    5.23
   1  -2   5  104.74    5.01
   1  -2   5  106.14    5.24
  -1   2  -5   92.92    4.98
   1   2   5   92.96    5.00
   1   2   5   91.47    5.18
   2  -2   5  102.89    5.08
   2  -2   5  104.80    4.86
   2  -2   5  102.47    5.08
  -2  -2  -5  105.97    4.88
   2   2   5   85.18    5.05
   2   2   5   81.50    5.06
  -2   2  -5   84.44    4.84
   3  -2   5  110.98    5.96
  -3  -2  -5  115.74    5.71
  -3   2  -5  110.73    5.69
   3   2   5  109.10    5.92
   3   2   5  110.98    5.95
  -4  -2  -5   50.07    2.82
  -4   2  -5   55.45    2.80
   4   2   5   55.60    2.94
  -5  -2  -5    3.05    0.44
   5   2   5    3.47    0.49
  -5   2  -5    3.66    0.46
   6  -2   5    3.55    0.56
  -6  -2  -5    4.40    0.58
  -6   2  -5    3.34    0.47
   6   2   5    2.57    0.43
  -6  -3   5    9.36    0.76
  -6  -3   5    8.83    0.75
  -6   3   5    7.77    0.77
   5  -3  -5   31.95    1.73
  -5  -3   5   31.18    1.82
  -5   3   5   31.11    1.85
   4  -3  -5   38.77    2.23
  -4  -3   5   38.26    2.35
   4   3  -5   43.45    2.25
  -4   3   5   44.03    2.37
   4   3  -5   46.18    2.26
   3  -3  -5   21.16    1.21
  -3  -3   5   21.16    1.28
   3   3  -5   23.16    1.23
  -3   3   5   23.28    1.30
  -2  -3   5    4.48    0.40
  -2  -3   5    4.19    0.29
   2  -3  -5    4.33    0.28
   2  -3  -5    4.17    0.38
  -2   3   5    5.47    0.35
  -2   3   5    5.32    0.40
   2   3  -5    5.17    0.36
  -1  -3   5  192.27   10.36
   1  -3  -5  194.88   10.14
   1   3  -5  189.03    9.79
  -1   3   5  193.19    9.80
  -1   3   5  194.46   10.33
   0  -3  -5  200.50   10.49
   0  -3   5  197.18   10.65
   0  -3   5  198.92   10.03
   0  -3   5  190.96   10.11
   0   3   5  208.20   10.62
   0   3   5  199.92   10.09
   0   3  -5  193.60   10.15
   0   3  -5  202.63   10.59
   0   3  -5  193.96   10.59
   0   3   5  200.75   10.51
   1  -3   5   40.74    2.27
   1  -3   5   40.84    2.28
   1  -3   5   40.74    2.18
   1   3   5   43.99    2.27
  -1   3  -5   44.98    2.15
  -2  -3  -5   11.85    0.70
   2  -3   5   11.48    0.67
   2  -3   5   11.38    0.65
   2  -3   5   11.26    0.67
   2   3   5   12.11    0.71
  -2   3  -5   11.83    0.64
   2   3   5   11.64    0.65
   3  -3   5    1.51    0.24
   3  -3   5    1.54    0.21
  -3  -3  -5    1.18    0.24
   3   3   5    1.02    0.23
   3   3   5    1.35    0.16
  -3   3  -5    1.16    0.20
  -4  -3  -5   39.24    2.05
   4   3   5   37.34    2.13
  -4   3  -5   37.95    2.03
  -5  -3  -5   25.90    1.52
   5   3   5   26.26    1.57
  -5   3  -5   28.29    1.51
  -6  -3  -5   10.15    0.82
  -6   3  -5    9.85    0.74
  -6  -4   5    1.85    0.42
  -6  -4   5    1.80    0.43
  -6   4   5    1.71    0.41
  -5  -4   5    0.62    0.31
   5  -4  -5    0.63    0.25
  -5  -4   5    0.64    0.30
  -5   4   5    0.74    0.35
  -4  -4   5   35.78    2.06
   4  -4  -5   35.66    1.94
  -4   4   5   36.91    2.07
   4   4  -5   36.85    1.96
  -3  -4   5   45.59    2.48
   3  -4  -5   46.30    2.43
  -3  -4   5   46.07    2.57
   3   4  -5   46.25    2.45
  -3   4   5   47.75    2.43
  -3   4   5   46.73    2.58
   2  -4  -5   62.78    3.29
  -2  -4   5   62.29    3.30
  -2  -4   5   63.89    3.39
   2  -4  -5   63.52    3.23
  -2   4   5   60.75    3.39
   2   4  -5   61.51    3.23
  -2   4   5   61.88    3.22
   1   4  -5   25.25    1.37
  -1   4   5   26.04    1.44
  -1   4   5   25.73    1.37
   0  -4  -5   27.61    1.51
   0  -4   5   28.18    1.48
   0  -4   5   27.70    1.54
   0   4  -5   27.55    1.47
   0   4   5   28.48    1.52
   0   4   5   28.13    1.54
   0   4  -5   28.30    1.54
   1  -4   5    2.99    0.26
  -1  -4  -5    2.84    0.28
   1  -4   5    2.86    0.23
   1  -4   5    2.73    0.27
  -1   4  -5    2.74    0.20
   1   4   5    3.31    0.29
  -1   4  -5    3.38    0.19
   1   4   5    3.23    0.24
  -1   4  -5    2.73    0.24
  -1   4  -5    3.21    0.21
   2  -4   5   91.46    4.66
   2  -4   5   94.53    4.44
   2  -4   5   93.45    4.67
  -2  -4  -5   91.16    4.47
   2   4   5   80.70    4.63
   2   4   5   78.47    4.64
  -2   4  -5   79.59    4.42
   3  -4   5   71.68    3.91
  -3  -4  -5   68.25    3.76
   3  -4   5   68.94    3.71
  -3   4  -5   76.36    3.73
   3   4   5   75.53    3.91
   3   4   5   74.89    3.90
   4  -4   5   28.07    1.53
  -4  -4  -5   27.19    1.62
   4   4   5   30.34    1.69
  -4   4  -5   31.40    1.59
  -5  -4  -5    7.06    0.61
   5   4   5    7.50    0.66
  -5   4  -5    7.18    0.60
  -6  -4  -5    0.77    0.38
  -6   4  -5    0.62    0.36
  -6  -5   5    4.77    0.61
  -6  -5   5    4.91    0.57
  -6   5   5    4.22    0.57
   5  -5  -5   16.48    0.99
  -5  -5   5   16.30    1.08
  -5  -5   5   16.22    1.03
  -5   5   5   16.50    1.09
  -4  -5   5    8.97    0.63
  -4  -5   5    9.01    0.67
   4  -5  -5    9.02    0.60
  -4   5   5    7.95    0.68
   4   5  -5    7.46    0.59
  -3  -5   5   24.43    1.49
   3  -5  -5   24.90    1.41
  -3  -5   5   24.29    1.42
  -3  -5   5   25.44    1.40
   3   5  -5   26.96    1.42
  -3   5   5   26.99    1.52
  -3   5   5   28.52    1.41
   2  -5  -5   11.35    0.65
  -2  -5   5   10.86    0.72
  -2  -5   5   11.30    0.66
  -2  -5   5   11.12    0.65
   2   5  -5   11.59    0.68
  -2   5   5   11.88    0.73
  -2   5   5   11.64    0.68
  -1  -5   5   82.95    4.41
  -1  -5   5   81.47    4.15
   1  -5  -5   81.38    4.32
   1   5  -5   82.12    4.20
  -1   5   5   83.68    4.41
  -1   5   5   79.87    4.20
   0  -5   5  250.22   13.24
   0  -5  -5  252.81   12.93
   0   5  -5  242.42   13.11
   0   5  -5  243.51   12.58
   0   5   5  245.08   13.12
   0   5   5  244.48   12.99
   1  -5   5  150.71    8.17
   1  -5   5  160.91    7.76
  -1  -5  -5  159.00    8.05
   1  -5   5  156.70    8.16
  -1   5  -5  139.86    7.75
  -1   5  -5  157.28    7.71
  -1   5  -5  153.82    8.13
   1   5   5  148.39    8.13
   1   5   5  148.68    8.05
   1   5   5  152.27    8.14
   2  -5   5   45.79    2.44
   2  -5   5   46.25    2.30
  -2  -5  -5   44.41    2.35
   2  -5   5   46.48    2.44
  -2   5  -5   43.97    2.40
  -2   5  -5   43.73    2.30
   2   5   5   43.96    2.43
   2   5   5   43.93    2.42
  -3  -5  -5   67.22    3.46
   3  -5   5   68.99    3.60
   3  -5   5   69.95    3.39
  -3   5  -5   68.53    3.42
   3   5   5   67.13    3.59
   3   5   5   64.75    3.58
  -3   5  -5   59.21    3.53
  -4  -5  -5   63.76    3.43
  -4   5  -5   68.49    3.40
   4   5   5   64.11    3.56
  -5  -5  -5   23.68    1.45
  -5   5  -5   25.80    1.42
   5   5   5   25.80    1.51
  -6  -5  -5    3.98    0.57
  -6  -6   5    1.48    0.40
  -6  -6   5    1.42    0.39
  -6   6   5    1.70    0.46
  -5  -6   5    1.13    0.36
  -5  -6   5    1.15    0.34
  -5   6   5    0.85    0.37
  -4  -6   5    3.94    0.45
   4  -6  -5    3.84    0.45
  -4  -6   5    4.48    0.50
  -4   6   5    4.06    0.52
  -3  -6   5   86.74    4.77
  -3  -6   5   89.59    4.52
  -3  -6   5   85.59    4.66
  -3   6   5   87.54    4.78
   3   6  -5   87.60    4.54
  -3   6   5   90.22    4.52
   2  -6  -5   59.59    3.43
  -2  -6   5   59.31    3.31
  -2  -6   5   60.15    3.52
  -2  -6   5   59.73    3.44
   2   6  -5   71.38    3.36
  -2   6   5   69.68    3.53
  -2   6   5   73.67    3.36
   1  -6  -5   48.61    2.60
  -1  -6   5   47.17    2.49
  -1  -6   5   48.99    2.67
  -1   6   5   47.91    2.67
   1   6  -5   50.79    2.54
  -1   6   5   49.55    2.55
   0  -6  -5    6.57    0.41
   0  -6   5    6.51    0.45
   0   6  -5    5.73    0.43
   0   6   5    5.24    0.43
   0   6  -5    5.94    0.39
  -1  -6  -5   43.72    2.56
   1  -6   5   42.88    2.60
   1  -6   5   43.24    2.59
  -1   6  -5   51.43    2.59
   1   6   5   50.33    2.60
  -1   6  -5   51.43    2.42
   1   6   5   49.80    2.58
  -1   6  -5   47.30    2.46
   1   6   5   49.89    2.58
   2  -6   5   75.79    4.07
   2  -6   5   77.62    4.06
   2   6   5   72.00    4.03
   2   6   5   76.33    4.05
  -2   6  -5   75.13    4.03
  -3   6  -5   22.63    1.30
   3   6   5   24.51    1.34
   3   6   5   24.54    1.38
  -4  -6  -5   19.15    1.12
  -4   6  -5   18.79    1.07
   4   6   5   18.46    1.15
  -5  -6  -5    5.12    0.60
  -5   6  -5    5.22    0.52
   5   6   5    4.83    0.54
  -6  -6  -5    1.02    0.44
  -6   6  -5    1.38    0.39
  -6  -7   5   10.09    0.83
  -5  -7   5    6.30    0.59
  -5  -7   5    7.00    0.62
  -5   7   5    6.35    0.63
  -4  -7   5   11.94    0.84
  -4  -7   5   12.21    0.79
  -3  -7   5   22.77    1.27
  -3  -7   5   23.17    1.24
  -3  -7   5   22.51    1.33
  -3   7   5   21.03    1.33
  -3   7   5   22.72    1.23
   3   7  -5   21.88    1.26
   2  -7  -5   49.03    2.51
  -2  -7   5   47.51    2.43
  -2  -7   5   46.38    2.59
  -2  -7   5   46.15    2.52
  -2   7   5   47.77    2.46
  -2   7   5   45.42    2.59
   2   7  -5   45.95    2.46
   1  -7  -5   42.59    2.18
  -1  -7   5   42.16    2.24
   1   7  -5   39.37    2.12
  -1   7   5   39.17    2.24
  -1   7   5   39.37    2.13
   0  -7  -5  146.21    7.56
   0  -7   5  152.35    7.68
   0   7  -5  141.88    7.30
   0   7   5  138.51    7.68
   0   7  -5  138.61    7.68
   1  -7   5   64.60    3.19
  -1   7  -5   57.49    2.97
   1   7   5   57.31    3.17
  -1   7  -5   60.18    2.97
  -1   7  -5   55.75    3.01
   1   7   5   58.22    3.15
  -1   7  -5   58.45    3.18
   1   7   5   58.29    3.19
   2  -7   5   70.42    3.98
   2   7   5   75.69    3.97
  -2   7  -5   75.24    3.95
   2   7   5   73.06    3.95
  -3  -7  -5    4.64    0.45
   3   7   5    3.60    0.43
  -3   7  -5    4.15    0.34
  -4  -7  -5   12.77    0.86
   4   7   5   12.07    0.84
  -5  -7  -5   26.61    1.72
  -5   7  -5   31.80    1.68
   5   7   5   32.67    1.81
  -5  -8   5    0.69    0.36
  -5  -8   5    0.92    0.35
  -5   8   5    0.74    0.39
  -4  -8   5    7.58    0.58
  -4  -8   5    7.39    0.60
  -4   8   5    6.17    0.65
  -3  -8   5   23.54    1.58
  -3  -8   5   24.36    1.48
  -3   8   5   30.32    1.63
  -3   8   5   31.48    1.49
  -2  -8   5   91.42    4.94
  -2  -8   5   90.53    4.85
  -2  -8   5   93.21    4.66
   2  -8  -5   94.95    4.83
   2   8  -5   88.85    4.70
  -2   8   5   92.06    4.69
  -2   8   5   87.41    4.94
  -1  -8   5   70.08    3.84
   1  -8  -5   68.65    3.76
   1   8  -5   71.36    3.85
  -1   8   5   72.09    3.66
  -1   8   5   71.68    3.85
   1   8  -5   70.61    3.65
   0  -8  -5    2.01    0.29
   0  -8   5    2.10    0.29
   0   8   5    1.96    0.27
   0   8  -5    1.95    0.24
   0   8  -5    2.11    0.31
   1  -8   5   24.78    1.46
  -1   8  -5   25.45    1.45
  -1   8  -5   26.10    1.31
   1   8   5   26.79    1.47
  -1   8  -5   24.85    1.35
   1   8   5   26.24    1.45
   2  -8   5   99.14    5.65
   2   8   5  106.66    5.60
  -2   8  -5  109.51    5.64
  -3  -8  -5   32.29    1.79
   3   8   5   32.34    1.83
   4   8   5    3.59    0.46
  -5  -8  -5    0.85    0.37
   5   8   5    0.69    0.32
  -5   8  -5    0.34    0.32
  -5  -9   5   13.11    0.90
  -5  -9   5   13.02    0.95
  -5   9   5   12.92    0.96
  -4  -9   5    9.63    0.74
  -4  -9   5   10.25    0.68
  -4   9   5    7.86    0.73
  -3  -9   5    6.17    0.53
  -3  -9   5    6.26    0.49
  -3   9   5    5.02    0.54
  -3   9   5    5.47    0.46
  -2  -9   5    1.97    0.30
  -2  -9   5    1.83    0.33
  -2   9   5    2.17    0.32
   2   9  -5    2.19    0.32
  -2   9   5    2.08    0.33
  -1  -9   5   22.73    1.53
   1   9  -5   27.75    1.55
  -1   9   5   28.21    1.56
   1   9  -5   26.89    1.45
  -1   9   5   28.60    1.46
   0  -9   5   23.85    1.45
   0   9  -5   25.50    1.35
   0   9  -5   25.95    1.46
   0   9   5   25.96    1.46
   1  -9   5   39.18    1.95
   1   9   5   33.62    1.94
  -1   9  -5   33.38    1.93
  -1   9  -5   34.72    1.78
  -1   9  -5   32.87    1.80
   2  -9   5   18.17    1.12
  -2   9  -5   19.06    1.10
   2   9   5   18.55    1.12
   2   9   5   19.02    1.13
   3   9   5    4.21    0.46
  -4  -9  -5   16.26    1.14
   4   9   5   20.21    1.16
  -5  -9  -5    9.52    0.77
  -5 -10   5    0.20    0.38
  -5 -10   5   -0.24    0.35
  -5  10   5    0.13    0.41
  -4 -10   5    3.35    0.48
  -4 -10   5    3.32    0.49
  -4  10   5    2.80    0.46
  -3 -10   5   23.71    1.24
  -3 -10   5   23.49    1.34
  -3  10   5   21.43    1.23
  -3  10   5   19.53    1.36
  -2 -10   5   34.46    1.99
  -2  10   5   36.28    1.88
  -2  10   5   33.72    2.00
  -1 -10   5   24.29    1.43
   1  10  -5   25.18    1.45
   1  10  -5   23.87    1.33
  -1  10   5   24.59    1.36
  -1  10   5   24.01    1.44
   0 -10   5    4.51    0.46
   0  10   5    4.90    0.48
   0  10  -5    5.09    0.37
   0  10  -5    5.20    0.48
   1 -10   5   17.26    1.05
  -1  10  -5   17.48    1.05
   1  10   5   16.73    1.05
  -1  10  -5   17.28    0.93
   2 -10   5   59.91    3.43
  -2  10  -5   64.69    3.41
   2  10   5   61.86    3.40
   2  10   5   63.91    3.44
   3  10   5   63.59    3.48
   4  10   5    4.74    0.54
  -5 -10  -5    0.28    0.39
  -4 -11   5   12.72    0.84
  -4 -11   5   12.20    0.89
  -4  11   5   10.86    0.91
  -3 -11   5    2.16    0.40
  -3 -11   5    2.49    0.33
  -3  11   5    3.12    0.44
  -2 -11   5   12.14    0.82
  -2  11   5   12.70    0.78
  -2  11   5   11.83    0.85
   2  11  -5   11.46    0.83
  -1 -11   5   39.30    2.54
   1  11  -5   48.74    2.57
  -1  11   5   47.99    2.42
   1  11  -5   46.34    2.40
   0 -11   5   38.28    2.44
   0  11  -5   45.77    2.30
   0  11  -5   46.51    2.46
   0  11   5   45.23    2.47
   1 -11   5   21.93    1.22
  -1  11  -5   20.19    1.22
   1  11   5   19.96    1.24
  -1  11  -5   19.68    1.09
   2 -11   5    7.01    0.57
  -2  11  -5    6.36    0.54
   2  11   5    6.39    0.57
   3  11   5    5.51    0.58
   3  11   5    5.78    0.56
   4  11   5    6.42    0.63
  -4 -12   5    2.39    0.42
  -4  12   5    2.27    0.50
  -3 -12   5   10.43    0.75
  -3  12   5    7.91    0.78
  -2 -12   5   17.82    1.11
  -2  12   5   16.79    1.15
   2  12  -5   16.62    1.13
  -2  12   5   17.91    1.03
  -1 -12   5   10.51    0.75
   1  12  -5   11.06    0.69
  -1  12   5    8.97    0.78
   1  12  -5   11.62    0.81
  -1  12   5   11.74    0.74
   0 -12   5    0.34    0.27
   0  12  -5   -0.07    0.27
   0  12   5    0.03    0.29
   0  12  -5    0.06    0.18
   1 -12   5    1.47    0.31
  -1  12  -5    1.25    0.30
   1  12   5    1.06    0.32
   2 -12   5   14.73    0.91
   2  12   5   12.78    0.92
  -2  12  -5   13.64    0.91
   3  12   5   15.70    1.05
   3  12   5   16.12    1.05
  -4 -13   5    6.19    0.69
  -4  13   5    6.45    0.76
  -3 -13   5    2.85    0.44
  -3  13   5    2.89    0.48
   3  13  -5    3.04    0.47
  -2 -13   5    4.55    0.56
  -2  13   5    4.55    0.60
   2  13  -5    4.51    0.61
  -1 -13   5   15.81    1.05
  -1  13   5   16.17    1.11
   1  13  -5   15.88    0.96
  -1  13   5   16.93    1.00
   1  13  -5   16.92    1.09
   0 -13   5   26.16    1.68
   0  13  -5   29.29    1.56
   0  13  -5   30.11    1.71
   0  13   5   30.65    1.73
   1 -13   5   12.36    0.87
   1  13   5   12.68    0.88
  -1  13  -5   13.63    0.89
   2 -13   5    0.67    0.34
   2  13   5    0.09    0.33
   3  13   5    1.72    0.40
   4  13   5    5.79    0.65
  -3 -14   5   10.76    0.86
   3  14  -5   10.72    0.91
  -3  14   5   10.85    0.89
  -2 -14   5    3.51    0.56
   2  14  -5    3.47    0.54
  -2  14   5    3.29    0.52
  -1 -14   5   -0.09    0.33
   1  14  -5    0.13    0.24
  -1  14   5    0.18    0.34
   1  14  -5    0.30    0.35
   0 -14   5    1.46    0.36
   0  14   5    1.24    0.39
   0  14  -5    1.22    0.36
   1 -14   5    1.69    0.37
   1  14   5    1.12    0.38
  -1  14  -5    1.42    0.35
   2  14   5    4.20    0.57
   3  14   5    7.58    0.75
  -2 -15   5    1.65    0.42
  -2  15   5    1.55    0.47
   2  15  -5    1.79    0.46
  -1 -15   5    8.65    0.73
  -1  15   5    9.04    0.81
   1  15  -5    9.01    0.79
   0 -15   5   10.94    0.83
   0  15  -5    9.77    0.80
   0  15   5    9.51    0.83
   1 -15   5    7.48    0.68
  -1  15  -5    6.33    0.65
   1  15   5    5.69    0.67
   2  15   5    3.46    0.51
  -1 -16   5    0.29    0.37
   1  16  -5    1.54    0.44
  -1  16   5    1.06    0.42
   0 -16   5    0.44    0.38
   0  16  -5    0.25    0.38
   0  16   5    0.52    0.41
   1 -16   5    3.79    0.54
   1  16   5    3.42    0.53
  -6   0   6   12.97    0.94
  -5   0   6   24.74    1.51
   4   0  -6    9.71    0.65
  -4   0   6    9.39    0.69
  -3   0   6    0.10    0.21
   3   0  -6    0.33    0.18
  -2   0   6  212.65   10.57
   2   0  -6  206.27   10.56
  -2   0   6  204.23   11.09
  -1   0   6  318.83   16.11
  -1   0   6  305.44   16.89
   1   0  -6  310.98   16.11
  -1   0   6  323.55   16.50
   0   0   6  127.94    6.67
   0   0   6  127.57    6.76
   0   0   6  124.87    6.47
   1   0   6   35.12    1.84
   1   0   6   35.10    1.82
   1   0   6   34.98    1.87
  -2   0  -6   41.28    2.15
  -3   0  -6   94.80    4.89
   3   0   6   96.05    5.09
   4   0   6   36.38    2.03
  -4   0  -6   35.99    1.94
   5   0   6   24.56    1.46
  -5   0  -6   24.15    1.38
  -6   0  -6    0.85    0.39
  -6  -1   6    1.72    0.44
  -6   1   6    1.44    0.42
  -5  -1   6   10.63    0.78
  -5   1   6   10.22    0.81
  -4  -1   6   17.00    1.11
   4  -1  -6   17.49    0.94
   4  -1  -6   17.88    1.04
   4   1  -6   18.28    1.04
  -4   1   6   17.72    1.11
   3  -1  -6   21.27    1.21
  -3  -1   6   21.29    1.27
  -3   1   6   22.55    1.27
   3   1  -6   21.49    1.20
  -2  -1   6   20.79    1.22
   2  -1  -6   20.81    1.17
  -2   1   6   21.30    1.23
   2   1  -6   22.09    1.18
  -2   1   6   22.03    1.18
   1  -1  -6   31.88    1.73
  -1  -1   6   32.77    1.80
  -1  -1   6   33.75    1.73
   1   1  -6   31.25    1.72
  -1   1   6   33.44    1.74
  -1   1   6   33.19    1.80
   0   1  -6   17.17    0.97
   0   1   6   17.72    0.97
   0   1   6   18.21    0.98
   0   1   6   17.55    0.98
   1  -1   6   68.54    3.71
   1  -1   6   67.39    3.58
   1  -1   6   69.59    3.55
   1   1   6   71.89    3.57
   1   1   6   71.67    3.70
   1   1   6   69.79    3.59
   1   1   6   68.58    3.70
   2  -1   6  253.07   13.56
   2  -1   6  252.82   12.97
  -2  -1  -6  257.69   12.99
   2  -1   6  243.25   13.57
   2   1   6  265.65   13.47
  -2   1  -6  259.01   12.98
   3  -1   6   50.20    2.58
  -3  -1  -6   51.08    2.51
  -3   1  -6   46.55    2.49
   3   1   6   45.95    2.61
   3   1   6   45.73    2.57
  -4  -1  -6    8.08    0.56
   4   1   6    7.03    0.58
  -4   1  -6    7.14    0.55
   5  -1   6    0.83    0.32
  -5  -1  -6    1.08    0.32
  -5   1  -6    1.16    0.32
   5   1   6    0.89    0.31
  -6  -1  -6   14.92    1.00
  -6   1  -6   14.07    0.95
  -6  -2   6   11.01    0.84
  -6   2   6    8.99    0.84
   5  -2  -6   10.90    0.71
  -5  -2   6   10.27    0.78
  -5   2   6    7.85    0.73
   4  -2  -6    5.63    0.47
  -4  -2   6    4.43    0.52
   4  -2  -6    5.13    0.31
  -4   2   6    4.43    0.53
   4   2  -6    5.25    0.45
   3  -2  -6   11.67    0.70
  -3  -2   6   12.41    0.78
   3   2  -6   10.85    0.70
  -3   2   6   10.76    0.75
   2  -2  -6   62.01    3.04
  -2  -2   6   63.57    3.19
   2   2  -6   53.92    3.03
  -2   2   6   56.15    3.03
  -2   2   6   56.78    3.19
  -1  -2   6  245.42   11.65
   1  -2  -6  232.34   11.64
  -1  -2   6  244.04   12.32
   1   2  -6  208.84   11.64
  -1   2   6  227.11   12.23
  -1   2   6  217.72   11.64
   0  -2   6  131.12    6.45
   0  -2   6  132.68    6.50
   0  -2   6  135.19    6.80
   0   2  -6  125.09    6.77
   0   2   6  123.17    6.50
   0   2   6  125.83    6.70
   0   2   6  125.92    6.79
   0   2  -6  120.47    6.49
   1  -2   6   33.52    1.86
   1  -2   6   33.11    1.89
   1  -2   6   32.97    1.95
   1   2   6   41.28    1.97
   1   2   6   40.64    1.94
  -2  -2  -6   16.59    0.91
   2  -2   6   16.44    0.89
   2  -2   6   16.10    0.89
   2  -2   6   15.78    0.89
   2   2   6   15.49    0.95
  -2   2  -6   15.96    0.88
  -3  -2  -6  113.72    5.86
   3  -2   6  111.56    6.10
   3   2   6  114.04    6.09
  -3   2  -6  115.63    5.83
   3   2   6  116.72    6.08
  -4  -2  -6   35.64    1.91
  -4   2  -6   35.74    1.89
   4   2   6   34.84    1.99
  -5  -2  -6   15.76    1.03
  -5   2  -6   16.94    1.00
   5   2   6   15.85    1.05
  -6  -2  -6    6.43    0.67
  -6   2  -6    5.03    0.61
  -6  -3   6    0.59    0.39
  -6  -3   6    0.78    0.40
  -6   3   6    0.45    0.38
  -5  -3   6    0.74    0.32
   5  -3  -6    0.70    0.26
  -5   3   6    1.07    0.37
   4  -3  -6   50.55    2.60
   4  -3  -6   49.16    2.60
  -4  -3   6   49.86    2.74
  -4   3   6   47.32    2.75
   4   3  -6   49.16    2.61
   3  -3  -6   71.65    3.90
  -3  -3   6   71.65    4.04
   3  -3  -6   71.22    3.84
  -3   3   6   75.49    4.05
  -3   3   6   78.82    3.85
   3   3  -6   76.96    3.86
  -2  -3   6   19.91    1.21
   2  -3  -6   19.34    1.10
  -2  -3   6   19.78    1.12
   2  -3  -6   19.22    1.15
  -2   3   6   22.13    1.21
   2   3  -6   22.98    1.16
  -2   3   6   23.46    1.16
   1  -3  -6    2.79    0.20
  -1  -3   6    2.77    0.30
  -1   3   6    2.72    0.28
  -1   3   6    2.29    0.30
   0   3   6   16.46    0.91
   0   3  -6   15.81    0.90
   0   3  -6   16.77    0.90
   0   3  -6   16.78    0.91
   0   3   6   16.14    0.92
   0   3   6   16.22    0.92
   1  -3   6  146.72    7.68
   1  -3   6  149.36    7.34
   1   3   6  141.46    7.67
   1   3   6  139.06    7.59
   2  -3   6  176.56    9.58
   2  -3   6  180.32    9.12
   2  -3   6  174.97    9.56
  -2  -3  -6  176.28    9.14
   2   3   6  179.98    9.55
  -2   3  -6  189.39    9.10
   2   3   6  180.00    9.47
   3  -3   6   37.48    1.88
  -3  -3  -6   37.89    1.93
   3  -3   6   38.77    1.97
   3   3   6   33.81    1.95
   3   3   6   34.43    2.00
  -3   3  -6   33.45    1.88
  -4  -3  -6    4.97    0.45
   4  -3   6    5.35    0.38
  -4   3  -6    3.40    0.41
   4   3   6    3.06    0.45
  -5  -3  -6    2.22    0.41
   5   3   6    2.81    0.40
  -5   3  -6    2.63    0.37
  -6  -3  -6   12.54    0.91
  -6   3  -6   12.83    0.90
  -6  -4   6    6.53    0.67
  -6  -4   6    5.90    0.66
  -6   4   6    4.98    0.67
  -5  -4   6    5.84    0.57
   5  -4  -6    6.41    0.56
  -5  -4   6    5.93    0.61
  -5   4   6    4.60    0.57
   4  -4  -6    1.65    0.29
  -4  -4   6    1.66    0.34
  -4   4   6    2.24    0.36
   4   4  -6    2.92    0.36
   3  -4  -6   11.95    0.73
  -3  -4   6   11.52    0.75
   3  -4  -6   12.42    0.62
  -3  -4   6   12.14    0.64
   3   4  -6    9.41    0.69
  -3   4   6   10.01    0.69
  -3   4   6    9.67    0.75
  -2  -4   6   41.96    2.17
  -2  -4   6   43.50    2.09
   2  -4  -6   42.02    2.07
  -2   4   6   35.75    2.17
   2   4  -6   34.52    2.06
  -2   4   6   36.36    2.06
   1  -4  -6   46.45    2.51
  -1  -4   6   47.73    2.59
  -1   4   6   47.61    2.48
   1   4  -6   48.11    2.48
  -1   4   6   47.34    2.59
   0  -4   6   21.35    1.29
   0  -4  -6   20.61    1.31
   0  -4   6   21.49    1.34
   0   4  -6   26.14    1.33
   0   4   6   26.07    1.32
   0   4  -6   24.87    1.29
   0   4   6   26.91    1.35
   0   4   6   26.02    1.32
   1  -4   6   79.53    4.42
   1  -4   6   78.22    4.22
   1   4   6   86.47    4.41
   1   4   6   85.93    4.38
   2  -4   6    3.06    0.31
   2  -4   6    3.13    0.27
   2  -4   6    3.09    0.28
   2   4   6    3.05    0.33
   2   4   6    3.24    0.24
  -2   4  -6    3.34    0.27
   3  -4   6   10.20    0.66
  -3  -4  -6   10.23    0.75
   3  -4   6   10.51    0.72
   3   4   6   13.00    0.79
   3   4   6   13.20    0.70
  -3   4  -6   13.41    0.70
  -4  -4  -6   72.04    3.70
   4  -4   6   72.11    3.63
   4   4   6   69.78    3.84
  -4   4  -6   69.00    3.65
  -5  -4  -6   16.07    1.02
   5   4   6   15.91    1.07
  -5   4  -6   16.12    0.98
  -6  -4  -6    4.86    0.59
  -6   4  -6    4.74    0.58
  -6  -5   6    0.63    0.37
  -6  -5   6    0.90    0.42
  -6   5   6    0.85    0.40
  -5  -5   6    0.10    0.31
  -5  -5   6    0.06    0.31
   5  -5  -6    0.14    0.25
  -5   5   6   -0.33    0.34
   4  -5  -6   43.11    2.23
  -4  -5   6   40.42    2.34
  -4  -5   6   41.70    2.22
  -4   5   6   41.07    2.36
   3  -5  -6  176.34    8.95
  -3  -5   6  183.57    8.93
   3  -5  -6  183.69    9.21
  -3  -5   6  174.90    9.22
  -3  -5   6  177.34    9.41
  -3   5   6  164.75    9.41
  -3   5   6  176.07    8.95
   3   5  -6  166.86    8.96
   2  -5  -6   46.63    2.51
  -2  -5   6   48.81    2.44
  -2  -5   6   48.21    2.61
  -2  -5   6   46.84    2.52
  -2   5   6   45.89    2.60
   2   5  -6   46.90    2.48
  -2   5   6   47.79    2.48
   1  -5  -6    3.22    0.27
  -1  -5   6    3.41    0.23
  -1  -5   6    3.32    0.36
   1   5  -6    3.79    0.31
  -1   5   6    3.56    0.35
  -1   5   6    3.56    0.33
   0  -5  -6   64.89    3.18
   0  -5   6   64.58    3.24
   0   5  -6   58.41    3.22
   0   5   6   57.49    3.18
   0   5   6   56.93    3.10
   0   5   6   58.66    3.23
   0   5  -6   57.44    3.08
  -1  -5  -6  131.30    6.94
   1  -5   6  133.36    7.03
   1  -5   6  133.17    6.69
  -1   5  -6  133.00    6.99
  -1   5  -6  134.54    6.99
   1   5   6  129.98    6.94
   1   5   6  132.38    7.02
  -1   5  -6  124.03    6.69
   2  -5   6   67.16    3.49
   2  -5   6   65.42    3.67
   2  -5   6   65.01    3.67
   2   5   6   70.46    3.66
  -2   5  -6   70.62    3.47
   2   5   6   70.15    3.65
  -3   5  -6    6.65    0.45
   3   5   6    6.59    0.53
  -4  -5  -6    6.27    0.56
   4   5   6    5.28    0.53
  -4   5  -6    5.96    0.50
  -5  -5  -6    0.29    0.35
   5   5   6   -0.16    0.28
  -5   5  -6    0.23    0.29
  -6  -5  -6    6.78    0.67
  -6   5  -6    5.78    0.62
  -5  -6   6    7.68    0.72
  -5  -6   6    7.15    0.66
  -5   6   6    8.97    0.74
  -4  -6   6    0.23    0.26
  -4  -6   6    0.11    0.30
  -4   6   6   -0.03    0.32
  -3  -6   6    8.90    0.58
   3  -6  -6    9.26    0.53
  -3  -6   6    8.42    0.64
  -3  -6   6    9.16    0.56
  -3   6   6    7.81    0.67
  -3   6   6    8.03    0.58
   3   6  -6    7.61    0.60
   2  -6  -6    9.66    0.57
  -2  -6   6    9.66    0.57
  -2  -6   6    9.69    0.68
  -2  -6   6   10.70    0.59
  -2   6   6    9.16    0.62
  -2   6   6    8.63    0.67
   2   6  -6    8.74    0.60
  -1  -6   6   33.03    1.94
   1  -6  -6   32.45    1.88
  -1  -6   6   31.76    1.79
  -1   6   6   38.03    1.87
  -1   6   6   37.85    1.95
   1   6  -6   37.66    1.86
   0  -6  -6   41.62    2.28
   0  -6   6   41.90    2.33
   0   6   6   42.91    2.33
   0   6  -6   43.66    2.22
   0   6  -6   42.97    2.32
   0   6   6   42.29    2.29
   1  -6   6    6.74    0.53
  -1  -6  -6    6.96    0.54
   1   6   6    8.77    0.55
   1   6   6    8.05    0.52
  -1   6  -6    9.21    0.50
   1   6   6    8.62    0.54
  -1   6  -6    8.97    0.51
   2  -6   6   41.37    2.31
   2  -6   6   40.04    2.30
   2  -6   6   42.20    2.17
   2   6   6   41.33    2.28
  -2   6  -6   43.07    2.16
  -2   6  -6   44.08    2.25
   2   6   6   42.47    2.31
   3  -6   6    6.29    0.43
  -3  -6  -6    6.09    0.55
   3   6   6    8.33    0.57
  -3   6  -6    8.43    0.48
  -4  -6  -6   26.92    1.61
   4   6   6   28.45    1.67
  -4   6  -6   30.78    1.57
  -5  -6  -6   24.06    1.45
  -5   6  -6   25.64    1.40
   5   6   6   24.40    1.50
  -5  -7   6    3.06    0.49
  -5  -7   6    3.43    0.50
  -5   7   6    2.55    0.47
  -4  -7   6   21.19    1.25
  -4  -7   6   21.04    1.16
  -4   7   6   17.25    1.23
  -3  -7   6   44.87    2.41
  -3  -7   6   43.44    2.49
  -3  -7   6   45.14    2.34
   3   7  -6   43.76    2.37
  -3   7   6   44.96    2.52
  -3   7   6   45.18    2.35
   2  -7  -6   14.90    0.84
  -2  -7   6   14.84    0.82
  -2  -7   6   14.67    0.87
  -2  -7   6   14.47    0.93
   1  -7  -6    1.40    0.18
  -1  -7   6    1.19    0.24
   1   7  -6    1.99    0.31
  -1   7   6    1.60    0.26
  -1   7   6    1.61    0.24
   1   7  -6    1.46    0.23
   0  -7  -6   18.42    0.97
   0  -7   6   19.67    1.01
   0   7  -6   15.22    0.97
   0   7  -6   15.33    0.93
   0   7   6   15.42    0.99
   1  -7   6   74.27    3.93
  -1   7  -6   74.90    3.90
   1   7   6   72.56    3.92
  -1   7  -6   68.95    3.71
   1   7   6   71.34    3.91
   1   7   6   73.43    3.88
   2  -7   6   41.04    2.51
   2   7   6   46.15    2.51
  -2   7  -6   46.76    2.35
   2   7   6   47.78    2.52
   2   7   6   45.79    2.51
  -2   7  -6   48.40    2.48
   3   7   6    5.16    0.50
  -3   7  -6    5.67    0.41
  -4  -7  -6    1.39    0.36
   4   7   6    1.13    0.34
  -4   7  -6    1.28    0.27
  -5  -7  -6    0.33    0.35
  -5   7  -6    0.08    0.28
   5   7   6   -0.03    0.34
  -5  -8   6   15.93    1.02
  -5  -8   6   14.55    1.03
  -5   8   6   15.50    1.09
  -4  -8   6    4.89    0.57
  -4  -8   6    4.97    0.52
  -4   8   6    5.69    0.56
  -3  -8   6    1.44    0.32
  -3  -8   6    1.70    0.27
   3   8  -6    2.39    0.35
  -3   8   6    2.70    0.34
  -3   8   6    2.12    0.35
   2  -8  -6   45.45    2.50
  -2  -8   6   45.39    2.41
  -2  -8   6   42.83    2.51
  -2  -8   6   41.95    2.58
   2   8  -6   50.90    2.47
  -2   8   6   51.79    2.47
  -2   8   6   47.95    2.60
   1  -8  -6   55.60    3.10
  -1  -8   6   57.59    3.18
  -1   8   6   57.45    3.17
   1   8  -6   58.49    3.02
  -1   8   6   59.80    3.03
   1   8  -6   58.97    3.17
   0  -8   6   42.09    2.28
   0   8  -6   40.63    2.27
   0   8   6   41.51    2.28
   0   8  -6   40.42    2.15
   1   8   6    5.69    0.45
   1   8   6    5.96    0.46
  -1   8  -6    5.38    0.38
  -1   8  -6    5.75    0.44
   2  -8   6   11.61    0.70
  -2   8  -6   10.21    0.65
   2   8   6   10.14    0.69
  -2   8  -6   10.15    0.58
   2   8   6   10.30    0.70
   3   8   6    8.36    0.65
  -3   8  -6    8.99    0.55
  -4  -8  -6   19.84    1.30
   4   8   6   22.31    1.35
  -4   8  -6   23.66    1.23
  -5  -8  -6    9.59    0.80
  -5  -9   6    3.48    0.52
  -5  -9   6    3.15    0.44
  -5   9   6    2.37    0.51
  -4  -9   6   17.29    1.17
  -4  -9   6   18.15    1.11
  -4   9   6   20.66    1.25
  -3  -9   6   10.00    0.75
  -3  -9   6   10.83    0.68
   2   9  -6    2.99    0.36
  -2   9   6    2.82    0.41
  -2   9   6    3.00    0.38
  -1  -9   6    4.31    0.45
  -1   9   6    3.41    0.39
   1   9  -6    3.54    0.35
   1   9  -6    3.99    0.45
  -1   9   6    3.33    0.41
   0   9  -6    2.23    0.27
   0   9  -6    1.94    0.28
   0   9   6    1.80    0.29
   1  -9   6   14.75    0.90
   1   9   6   14.57    0.89
   1   9   6   13.53    0.87
  -1   9  -6   13.90    0.79
  -1   9  -6   14.46    0.87
   2  -9   6   21.49    1.37
  -2   9  -6   24.51    1.33
   2   9   6   23.94    1.37
  -2   9  -6   23.87    1.22
   2   9   6   23.48    1.37
  -3   9  -6   31.20    1.60
   3   9   6   29.16    1.74
   4   9   6    3.48    0.49
  -5  -9  -6    1.68    0.43
  -5 -10   6    8.77    0.76
  -5  10   6    8.30    0.78
  -4 -10   6   16.57    1.11
  -4 -10   6   16.54    0.99
  -4  10   6   15.17    1.13
  -3 -10   6    0.94    0.26
  -3 -10   6    0.66    0.32
  -3  10   6    0.72    0.33
  -2 -10   6   35.35    2.11
  -2  10   6   37.58    2.13
   2  10  -6   36.48    1.99
  -2  10   6   38.85    2.00
  -1 -10   6   68.86    3.87
   1  10  -6   71.67    3.87
   1  10  -6   72.33    3.67
  -1  10   6   68.35    3.87
  -1  10   6   72.44    3.69
   0 -10   6   34.34    1.91
   0  10  -6   33.48    1.78
   0  10   6   32.43    1.90
   0  10  -6   33.63    1.90
   1 -10   6    5.11    0.51
  -1  10  -6    6.23    0.40
  -1  10  -6    6.15    0.50
   1  10   6    5.87    0.52
   2 -10   6    1.25    0.30
   2  10   6    1.20    0.27
   2  10   6    1.07    0.28
   3  10   6   10.73    0.79
   3  10   6   11.20    0.78
   4  10   6   17.27    1.13
  -5 -10  -6    5.63    0.64
  -4 -11   6   10.79    0.92
  -4  11   6   13.64    0.99
  -3 -11   6   10.01    0.81
  -3  11   6   13.16    0.90
  -2 -11   6    7.02    0.60
   2  11  -6    5.54    0.55
  -2  11   6    5.61    0.52
   2  11  -6    5.59    0.50
  -2  11   6    5.48    0.60
  -1 -11   6    5.81    0.56
  -1  11   6    6.09    0.51
   1  11  -6    5.78    0.56
  -1  11   6    5.40    0.54
   1  11  -6    5.43    0.47
   0 -11   6    4.37    0.44
   0  11  -6    4.02    0.46
   0  11   6    3.88    0.49
   0  11  -6    4.24    0.38
  -1  11  -6   19.03    1.08
  -1  11  -6   20.94    1.20
   1  11   6   20.25    1.23
   2 -11   6   19.63    1.22
   2  11   6   19.88    1.21
   2  11   6   20.08    1.21
   3  11   6   14.18    0.95
   3  11   6   13.92    0.95
  -4 -12   6    1.00    0.41
  -4  12   6    0.67    0.43
  -3 -12   6    2.13    0.40
  -3  12   6    2.43    0.43
  -2 -12   6    7.13    0.66
  -2  12   6    7.24    0.65
   2  12  -6    7.56    0.69
  -1 -12   6   16.93    1.02
   1  12  -6   15.95    1.04
   1  12  -6   14.85    0.93
  -1  12   6   15.22    1.05
   0 -12   6   28.90    1.63
   0  12   6   27.14    1.64
   0  12  -6   27.90    1.63
   0  12  -6   27.22    1.50
   1 -12   6   10.33    0.73
  -1  12  -6   10.14    0.72
   1  12   6    9.74    0.75
   2 -12   6    1.78    0.34
   2  12   6    2.12    0.37
   3  12   6   10.92    0.84
   3  12   6   11.80    0.84
   4  12   6   10.26    0.83
  -3 -13   6    8.11    0.74
  -3  13   6    9.39    0.82
   3  13  -6    9.67    0.83
  -2 -13   6    5.57    0.58
   2  13  -6    6.18    0.66
  -2  13   6    5.52    0.61
  -1 -13   6    0.38    0.33
   1  13  -6    0.36    0.24
  -1  13   6    0.19    0.35
   1  13  -6    0.58    0.34
   0 -13   6   14.69    1.02
   0  13  -6   15.23    1.00
   0  13   6   15.70    1.04
   1 -13   6   28.00    1.66
   1  13   6   27.01    1.66
  -1  13  -6   28.52    1.63
   2 -13   6   18.68    1.22
   2  13   6   20.04    1.23
   3  13   6    2.81    0.46
  -3 -14   6    0.58    0.38
   3  14  -6    0.57    0.41
  -3  14   6    0.48    0.44
  -2  14   6    5.06    0.66
   2  14  -6    4.70    0.65
  -1 -14   6    9.09    0.76
   1  14  -6    9.27    0.77
  -1  14   6    8.34    0.74
   0 -14   6   17.00    1.10
   0  14  -6   15.85    1.07
   0  14   6   15.69    1.10
   1 -14   6    4.59    0.59
   1  14   6    4.86    0.58
   2 -14   6    0.12    0.36
   2  14   6    0.26    0.36
   3  14   6    6.62    0.71
  -2 -15   6    8.31    0.73
   2  15  -6    7.42    0.73
  -2  15   6    7.43    0.79
  -1 -15   6    0.95    0.41
   1  15  -6    1.30    0.41
  -1  15   6    1.24    0.41
   0 -15   6    7.92    0.70
   0  15   6    6.13    0.69
   0  15  -6    6.21    0.65
   1 -15   6   19.08    1.21
   1  15   6   17.02    1.20
   2  15   6   16.06    1.12
   0 -16   6    4.38    0.59
   0  16   6    4.28    0.64
  -6   0   7    2.62    0.49
  -5   0   7   44.86    2.57
   4   0  -7   40.79    2.16
  -4   0   7   39.27    2.28
  -3   0   7    2.70    0.40
   3   0  -7    2.89    0.35
  -2   0   7    8.78    0.62
   2   0  -7    8.67    0.58
  -2   0   7    9.23    0.58
   1   0  -7    5.86    0.44
  -1   0   7    5.98    0.43
  -1   0   7    5.84    0.33
  -1   0   7    5.79    0.43
   0   0   7   99.18    5.23
   0   0   7  100.03    5.09
   0   0   7   97.43    5.05
   0   0   7   99.98    5.30
   1   0   7   45.10    2.39
   1   0   7   46.06    2.36
   1   0   7   45.95    2.44
  -2   0  -7    6.64    0.47
   2   0   7    7.08    0.49
   3   0   7   26.31    1.52
  -3   0  -7   26.55    1.44
   3   0   7   26.72    1.44
  -4   0  -7    0.14    0.26
   4   0   7    0.09    0.27
  -5   0  -7    9.03    0.71
   5   0   7   10.02    0.75
  -6   0  -7   22.12    1.36
  -6  -1   7    6.03    0.70
  -6   1   7    4.97    0.69
  -5  -1   7    0.56    0.37
  -5   1   7    0.93    0.37
   4  -1  -7    1.17    0.27
  -4  -1   7    0.88    0.34
   4   1  -7    1.82    0.30
  -4   1   7    1.35    0.35
   3  -1  -7   21.95    1.27
  -3  -1   7   21.35    1.35
  -3   1   7   23.89    1.36
   3   1  -7   24.27    1.28
   2  -1  -7  103.21    5.57
  -2  -1   7  103.77    5.84
  -2  -1   7  109.10    5.58
   2   1  -7  108.27    5.57
  -2   1   7  110.45    5.84
  -2   1   7  116.61    5.58
  -1  -1   7  135.46    6.85
  -1  -1   7  137.33    6.68
  -1  -1   7  135.28    6.99
   1  -1  -7  131.69    6.68
  -1   1   7  128.40    6.99
   1   1  -7  123.44    6.67
  -1   1   7  126.69    6.68
  -1   1   7  126.55    6.84
   0  -1   7   55.28    2.75
   0  -1   7   58.02    2.80
   0  -1   7   55.87    2.89
   0   1  -7   50.01    2.78
   0   1   7   51.35    2.85
   0   1   7   52.24    2.89
   0   1   7   52.70    2.79
   1  -1   7   13.86    0.75
   1  -1   7   14.17    0.78
   1  -1   7   14.02    0.75
   1   1   7   12.88    0.79
   1   1   7   13.00    0.74
   1   1   7   13.04    0.78
   2  -1   7   32.77    1.67
  -2  -1  -7   33.22    1.67
   2  -1   7   33.04    1.69
   2  -1   7   33.42    1.69
   2   1   7   27.88    1.73
  -2   1  -7   27.70    1.65
   3  -1   7   74.29    3.78
  -3  -1  -7   74.02    3.79
   3  -1   7   73.56    3.92
   3   1   7   72.32    3.91
   3   1   7   72.60    3.95
  -3   1  -7   73.17    3.78
  -4  -1  -7   47.68    2.57
   4   1   7   49.27    2.69
  -4   1  -7   48.68    2.56
  -5  -1  -7    8.75    0.68
   5  -1   7    8.47    0.72
   5   1   7    9.90    0.74
  -5   1  -7   10.07    0.70
  -6  -1  -7   -0.03    0.39
  -6   1  -7    0.03    0.38
  -6  -2   7    2.26    0.47
  -6   2   7    1.89    0.48
  -5  -2   7   21.38    1.36
  -5   2   7   21.75    1.37
  -4  -2   7   53.23    2.96
   4  -2  -7   53.83    2.81
  -4   2   7   52.31    2.96
   3  -2  -7   21.05    1.19
  -3  -2   7   20.29    1.25
  -3   2   7   20.74    1.25
   3   2  -7   21.19    1.19
  -2  -2   7    0.71    0.21
   2  -2  -7    0.48    0.19
  -2   2   7    0.54    0.23
   2   2  -7    0.75    0.20
  -2   2   7    0.66    0.20
  -1  -2   7   29.71    1.63
  -1  -2   7   31.32    1.58
  -1   2   7   29.01    1.58
  -1   2   7   28.72    1.63
   1   2  -7   27.80    1.57
   0  -2   7  123.52    6.67
   0  -2   7  130.24    6.73
   0  -2   7  129.34    7.03
   0   2  -7  134.66    6.73
   0   2   7  137.50    6.94
   0   2   7  133.31    7.03
   0   2   7  134.01    6.74
   1  -2   7   74.43    3.89
   1  -2   7   75.68    3.70
   1  -2   7   74.11    3.74
   1   2   7   71.13    3.86
   1   2   7   70.35    3.75
   1   2   7   69.93    3.87
   2  -2   7   38.07    2.04
   2  -2   7   37.46    2.04
   2  -2   7   37.78    1.99
  -2   2  -7   37.78    1.97
   2   2   7   38.17    2.07
  -3  -2  -7   20.11    1.16
   3  -2   7   19.96    1.14
   3  -2   7   19.86    1.14
   3   2   7   21.23    1.22
   3   2   7   21.02    1.13
  -3   2  -7   21.09    1.13
  -4  -2  -7    1.07    0.31
   4  -2   7    1.09    0.22
   4   2   7    1.99    0.32
   5  -2   7   14.80    1.02
  -5  -2  -7   14.42    0.99
  -5   2  -7   16.00    0.96
   5   2   7   16.38    1.05
  -6  -2  -7   22.86    1.37
  -6   2  -7   22.61    1.36
  -6  -3   7    5.33    0.63
  -6   3   7    6.04    0.71
  -5  -3   7    0.71    0.34
  -5   3   7    0.04    0.36
  -4  -3   7    8.01    0.66
   4  -3  -7    8.40    0.63
  -4   3   7    6.50    0.62
   3  -3  -7   36.95    2.08
  -3  -3   7   38.06    2.20
  -3   3   7   41.60    2.09
  -3   3   7   39.12    2.20
   3   3  -7   39.84    2.10
  -2  -3   7   63.46    3.34
  -2  -3   7   63.42    3.47
   2  -3  -7   63.43    3.31
   2   3  -7   63.63    3.31
  -2   3   7   64.90    3.32
  -2   3   7   62.87    3.47
  -1  -3   7   78.07    3.74
  -1  -3   7   76.67    3.91
   1   3  -7   67.09    3.73
  -1   3   7   69.20    3.90
  -1   3   7   70.69    3.74
   0   3   7    5.08    0.36
   0   3   7    5.19    0.38
   0   3  -7    4.89    0.40
   0   3  -7    4.90    0.31
   0   3   7    4.94    0.41
   1  -3   7   21.71    1.26
   1  -3   7   21.78    1.23
   1   3   7   22.99    1.24
   1   3   7   23.55    1.27
   1   3   7   23.51    1.25
   2  -3   7   29.83    1.64
   2  -3   7   30.02    1.59
   2  -3   7   30.29    1.64
   3  -3   7   41.01    1.98
  -3  -3  -7   41.04    2.02
   3   3   7   34.94    2.09
   3   3   7   34.99    2.03
  -3   3  -7   36.43    1.97
  -4  -3  -7   55.10    2.95
   4  -3   7   56.31    2.90
  -4   3  -7   55.82    2.92
   4   3   7   56.34    3.07
  -5  -3  -7    4.91    0.61
   5   3   7    6.00    0.59
  -5   3  -7    6.66    0.55
  -6  -3  -7    0.15    0.40
  -6   3  -7    0.31    0.36
  -5  -4   7    1.44    0.37
  -5   4   7    0.77    0.37
   4  -4  -7   21.86    1.20
  -4  -4   7   20.55    1.27
  -4   4   7   19.69    1.29
  -3  -4   7   40.00    2.15
   3  -4  -7   41.46    2.05
  -3   4   7   37.25    2.03
   3   4  -7   35.14    2.04
  -3   4   7   36.00    2.15
  -2  -4   7   19.79    1.08
   2  -4  -7   19.87    1.06
  -2  -4   7   19.84    1.18
  -2   4   7   20.37    1.13
  -2   4   7   19.21    1.18
   2   4  -7   19.76    1.12
  -1  -4   7    8.73    0.58
   1  -4  -7    8.62    0.50
   1   4  -7    7.93    0.54
  -1   4   7    8.32    0.56
  -1   4   7    8.79    0.57
   0  -4   7   99.73    5.28
   0  -4   7   98.49    5.05
   0   4  -7   98.42    5.26
   0   4  -7   96.03    5.04
   0   4   7   96.49    5.27
   0   4   7   99.86    5.06
   0   4   7  100.45    5.20
   1  -4   7  227.87   11.68
   1  -4   7  231.07   11.14
   1   4   7  210.63   11.69
   1   4   7  207.44   11.53
   2  -4   7   62.08    3.01
   2  -4   7   60.65    3.01
   2  -4   7   61.74    2.89
   2   4   7   49.52    3.00
  -2   4  -7   50.40    2.85
   2   4   7   49.91    2.98
  -3  -4  -7    2.49    0.35
   3  -4   7    2.84    0.31
   3   4   7    3.23    0.41
  -3   4  -7    3.32    0.32
  -4  -4  -7    8.46    0.65
   4   4   7    8.05    0.65
  -4   4  -7    8.40    0.59
  -5  -4  -7   26.64    1.54
   5   4   7   26.21    1.59
  -5   4  -7   26.76    1.49
  -5  -5   7    1.46    0.36
  -5  -5   7    1.41    0.40
  -5   5   7    1.60    0.40
  -4  -5   7   13.47    0.84
  -4  -5   7   12.71    0.88
   4  -5  -7   12.94    0.85
  -4   5   7   12.39    0.92
  -3  -5   7   11.56    0.77
   3   5  -7   10.52    0.72
  -3   5   7   10.74    0.71
  -3   5   7   10.24    0.78
  -2  -5   7   37.48    2.03
  -2  -5   7   37.46    2.12
   2  -5  -7   37.34    2.02
  -2  -5   7   38.46    1.97
  -2   5   7   38.60    2.13
   2   5  -7   38.79    2.03
  -2   5   7   37.72    2.03
  -1  -5   7   34.89    1.99
  -1  -5   7   33.28    1.82
   1  -5  -7   32.46    1.91
  -1   5   7   38.22    1.99
   1   5  -7   37.64    1.90
  -1   5   7   38.18    1.92
   0  -5   7    3.91    0.34
   0  -5  -7    3.75    0.28
   0   5   7    2.60    0.30
   0   5  -7    2.85    0.31
   0   5   7    2.94    0.34
   0   5  -7    2.75    0.28
   0   5   7    2.76    0.33
   1  -5   7   10.21    0.61
   1  -5   7   10.13    0.63
   1   5   7    9.71    0.60
   1   5   7    9.33    0.63
   2  -5   7    6.84    0.51
   2  -5   7    7.03    0.54
   2  -5   7    7.11    0.54
   2   5   7   10.26    0.60
   2   5   7    9.70    0.50
  -3  -5  -7   18.76    1.10
   3  -5   7   19.99    1.01
  -3   5  -7   17.27    1.01
   3   5   7   17.80    1.13
  -4  -5  -7   30.05    1.79
  -4   5  -7   33.56    1.75
   4   5   7   34.09    1.88
  -5  -5  -7    7.08    0.61
  -5   5  -7    5.83    0.54
   5   5   7    5.85    0.63
  -5  -6   7    4.16    0.60
  -5  -6   7    4.05    0.54
  -5   6   7    5.11    0.63
  -4  -6   7    2.26    0.38
  -4  -6   7    2.37    0.34
  -4   6   7    3.49    0.52
  -3  -6   7   17.26    0.86
   3   6  -7   13.18    0.88
  -3   6   7   13.00    0.95
  -3   6   7   13.81    0.88
  -2  -6   7   17.98    1.00
  -2  -6   7   18.39    0.96
   2  -6  -7   17.77    0.97
  -2  -6   7   17.99    1.09
   2   6  -7   16.65    1.01
  -2   6   7   16.43    1.08
  -2   6   7   17.64    1.02
  -1   6   7    1.34    0.25
  -1   6   7    1.32    0.25
   1   6  -7    1.15    0.22
   1   6  -7    1.30    0.23
   0  -6   7   41.57    2.14
   0  -6  -7   42.09    2.09
   0   6  -7   37.91    2.11
   0   6  -7   36.65    2.03
   0   6   7   36.25    2.13
   0   6   7   37.24    2.09
   0   6   7   38.34    2.05
   1  -6   7  137.34    7.08
  -1   6  -7  126.40    6.73
   1   6   7  136.04    7.07
   1   6   7  128.83    6.99
   2  -6   7   74.22    3.54
   2  -6   7   71.74    3.72
   2   6   7   67.49    3.71
   2   6   7   68.20    3.71
   2   6   7   64.03    3.70
  -2   6  -7   67.46    3.50
   3  -6   7    6.36    0.49
   3  -6   7    6.46    0.41
   3   6   7    5.79    0.53
  -3   6  -7    6.26    0.44
  -4  -6  -7   11.11    0.76
   4   6   7   10.17    0.77
  -4   6  -7   10.39    0.68
  -5  -6  -7   16.20    1.06
  -5   6  -7   16.50    1.01
  -5  -7   7    1.18    0.41
  -5  -7   7    1.05    0.36
  -5   7   7    1.33    0.43
  -4  -7   7    2.56    0.35
  -4  -7   7    2.26    0.39
  -4   7   7    1.86    0.41
  -3  -7   7    8.08    0.55
  -3  -7   7    7.93    0.66
  -3   7   7    7.62    0.58
  -3   7   7    7.64    0.67
  -2  -7   7   39.58    2.18
   2  -7  -7   38.50    2.16
  -2  -7   7   38.49    2.26
  -2  -7   7   39.30    2.08
  -2   7   7   40.61    2.26
   2   7  -7   41.63    2.15
  -2   7   7   43.96    2.17
  -1  -7   7   60.95    3.65
   1  -7  -7   62.00    3.57
  -1   7   7   69.65    3.67
  -1   7   7   71.33    3.51
   1   7  -7   70.69    3.49
   1   7  -7   68.72    3.65
   0  -7   7   19.41    1.21
   0  -7  -7   18.83    1.17
   0   7  -7   21.01    1.14
   0   7   7   21.90    1.21
   0   7   7   21.77    1.19
   0   7  -7   21.80    1.19
   1  -7   7    7.60    0.56
  -1   7  -7    8.39    0.50
  -1   7  -7    8.09    0.51
   1   7   7    7.74    0.56
   1   7   7    7.94    0.56
   1   7   7    7.47    0.53
   2  -7   7   28.29    1.46
   2   7   7   24.67    1.45
  -2   7  -7   25.39    1.32
   2   7   7   24.59    1.48
   3   7   7   71.52    3.85
  -3   7  -7   70.27    3.63
  -4  -7  -7   19.74    1.30
   4   7   7   24.38    1.38
  -5  -7  -7    1.61    0.41
  -5  -8   7    6.37    0.67
  -5  -8   7    6.04    0.63
  -5   8   7    5.40    0.70
  -4  -8   7   11.43    0.76
  -4  -8   7   10.62    0.80
  -4   8   7   10.52    0.86
  -3  -8   7    1.44    0.33
  -3  -8   7    1.31    0.26
  -3   8   7    2.33    0.31
  -3   8   7    2.25    0.38
  -2  -8   7    1.83    0.24
  -2  -8   7    2.03    0.26
  -2  -8   7    1.66    0.31
  -2   8   7    1.72    0.28
   2   8  -7    1.59    0.28
  -2   8   7    2.85    0.42
  -1  -8   7   10.81    0.74
   1  -8  -7   10.83    0.67
  -1   8   7   10.30    0.70
  -1   8   7   10.31    0.73
   1   8  -7   10.55    0.67
   1   8  -7   10.86    0.72
   0  -8   7   20.24    1.34
   0   8   7   23.54    1.34
   0   8  -7   23.91    1.27
   0   8   7   23.95    1.30
   0   8  -7   24.29    1.33
   1  -8   7   37.08    2.08
   1   8   7   37.35    2.07
  -1   8  -7   39.23    2.05
  -1   8  -7   36.18    1.95
   1   8   7   36.58    2.05
   2  -8   7   12.61    0.76
   2   8   7   11.22    0.75
   2   8   7   10.99    0.77
   3   8   7    2.69    0.38
   4   8   7    0.25    0.32
  -5  -8  -7    5.36    0.62
  -5  -9   7    1.37    0.44
  -5   9   7    1.25    0.46
  -4  -9   7    1.23    0.39
  -4   9   7    2.16    0.45
  -3   9   7    7.44    0.58
  -3   9   7    6.98    0.62
  -2  -9   7   28.04    1.62
  -2   9   7   28.28    1.54
   2   9  -7   26.88    1.52
  -2   9   7   26.68    1.62
  -1  -9   7   91.76    5.17
   1   9  -7   95.58    4.91
   1   9  -7   98.86    5.17
  -1   9   7   97.67    4.93
  -1   9   7   92.57    5.16
   0  -9   7   23.24    1.35
   0   9  -7   22.61    1.33
   0   9  -7   22.87    1.26
   0   9   7   23.65    1.36
   1  -9   7    0.59    0.25
  -1   9  -7    0.73    0.20
   1   9   7    0.70    0.24
  -1   9  -7    0.68    0.17
   1   9   7    0.50    0.25
   2  -9   7   46.15    2.48
   2   9   7   43.95    2.47
   2   9   7   43.66    2.46
   3   9   7   39.11    2.19
   3   9   7   38.91    2.20
   4   9   7   28.03    1.68
  -5  -9  -7    0.48    0.39
  -4 -10   7    8.19    0.77
  -4  10   7    9.12    0.77
  -3 -10   7    1.44    0.39
  -2 -10   7    2.84    0.42
  -2  10   7    3.13    0.48
  -2  10   7    3.74    0.44
   2  10  -7    3.48    0.49
  -1 -10   7   19.37    1.22
  -1  10   7   19.99    1.18
   1  10  -7   20.13    1.13
   1  10  -7   20.38    1.21
  -1  10   7   19.02    1.20
   0 -10   7   25.38    1.60
   0  10  -7   28.97    1.60
   0  10   7   28.30    1.61
   0  10  -7   28.47    1.50
  -1  10  -7   22.49    1.24
   1  10   7   23.67    1.36
   2 -10   7    2.44    0.35
   2  10   7    1.47    0.31
   2  10   7    2.02    0.32
   3  10   7    1.01    0.31
   3  10   7    0.82    0.31
  -4 -11   7    1.90    0.47
  -4  11   7    2.47    0.50
  -3 -11   7    2.91    0.45
  -3  11   7    3.36    0.49
  -2 -11   7   14.93    0.96
   2  11  -7   14.42    0.97
  -2  11   7   12.92    0.97
  -1 -11   7   16.66    1.11
  -1  11   7   17.57    1.12
   1  11  -7   18.26    1.12
   1  11  -7   17.73    1.03
   0 -11   7    9.89    0.72
   0  11   7    9.47    0.72
   0  11  -7    9.72    0.69
   0  11  -7    9.12    0.61
   1 -11   7    0.16    0.29
   1  11   7    0.29    0.28
   2 -11   7    6.10    0.58
   2  11   7    5.72    0.55
   2  11   7    5.84    0.55
   3  11   7   22.72    1.41
   3  11   7   23.36    1.40
   4  11   7   12.79    0.92
  -3 -12   7    4.69    0.57
   3  12  -7    5.05    0.65
  -3  12   7    4.88    0.59
  -2 -12   7    4.26    0.51
   2  12  -7    5.13    0.60
  -2  12   7    4.47    0.54
  -1 -12   7    9.68    0.72
   1  12  -7    7.56    0.59
   1  12  -7    8.22    0.69
  -1  12   7    7.90    0.70
   0 -12   7   28.74    1.75
   0  12  -7   30.94    1.73
   0  12   7   30.01    1.74
   1 -12   7   24.48    1.58
   1  12   7   29.04    1.60
   2 -12   7   12.03    0.91
   2  12   7   14.34    0.93
   3  12   7    1.28    0.35
   3  12   7    1.01    0.35
  -3 -13   7    8.38    0.76
  -3  13   7    7.49    0.78
   3  13  -7    7.81    0.78
  -2 -13   7   15.64    1.15
   2  13  -7   18.21    1.17
  -2  13   7   17.17    1.17
  -1 -13   7    3.77    0.56
  -1  13   7    5.29    0.59
   1  13  -7    4.78    0.56
   0 -13   7    1.85    0.39
   0  13   7    1.45    0.38
   1 -13   7    1.65    0.38
   1  13   7    1.91    0.38
   2 -13   7    1.52    0.38
   3  13   7    5.49    0.61
  -2 -14   7    1.37    0.42
   2  14  -7    1.46    0.43
  -2  14   7    0.96    0.43
  -1 -14   7    3.99    0.58
  -1  14   7    3.01    0.49
   1  14  -7    3.45    0.55
   0 -14   7   12.68    0.92
   0  14   7   11.46    0.91
   1 -14   7   14.99    1.04
   1  14   7   14.27    1.02
   2 -14   7    7.74    0.71
   2  14   7    7.41    0.74
  -1 -15   7    3.22    0.51
  -1  15   7    3.27    0.50
   0 -15   7    0.09    0.39
   0  15   7   -0.17    0.38
   1 -15   7    4.12    0.62
   1  15   7    4.45    0.61
  -5   0   8    3.54    0.51
  -4   0   8   16.08    1.07
  -3   0   8    7.99    0.64
   3   0  -8    8.52    0.59
  -2   0   8   30.28    1.70
  -2   0   8   29.77    1.62
   2   0  -8   29.37    1.62
  -1   0   8    0.21    0.19
  -1   0   8    0.34    0.18
  -1   0   8    0.19    0.08
   1   0  -8    0.21    0.20
   0   0   8    4.36    0.38
   0   0   8    4.19    0.33
   0   0   8    4.54    0.35
   0   0   8    4.03    0.33
   1   0   8    6.69    0.41
   1   0   8    6.61    0.47
   1   0   8    6.71    0.50
   2   0   8  133.70    7.12
   2   0   8  135.17    7.13
   2   0   8  134.26    6.87
   3   0   8   63.55    3.32
  -3   0  -8   63.74    3.31
   3   0   8   63.88    3.46
  -4   0  -8    3.77    0.44
   4   0   8    3.11    0.49
  -5   0  -8    0.02    0.31
   5   0   8   -0.31    0.33
  -5  -1   8   21.09    1.35
  -5   1   8   21.83    1.36
  -4  -1   8   30.96    1.75
  -4   1   8   28.20    1.73
   3  -1  -8    4.84    0.49
  -3  -1   8    4.58    0.50
   3   1  -8    4.64    0.43
  -3   1   8    4.79    0.47
  -2  -1   8    6.57    0.49
  -2  -1   8    6.25    0.51
   2  -1  -8    6.37    0.50
   2   1  -8    5.90    0.48
  -2   1   8    6.26    0.49
  -2   1   8    5.74    0.48
   1  -1  -8   74.67    3.82
  -1  -1   8   73.56    3.81
  -1  -1   8   73.35    3.87
  -1  -1   8   74.56    3.98
  -1   1   8   74.33    3.98
  -1   1   8   73.39    3.82
   1   1  -8   70.90    3.81
  -1   1   8   73.79    3.87
   0  -1   8  151.76    7.32
   0  -1   8  146.68    7.26
   0  -1   8  145.50    7.63
   0   1   8  137.26    7.62
   0   1   8  138.24    7.52
   0   1   8  138.32    7.31
   1  -1   8  141.63    7.11
   1  -1   8  141.70    7.16
   1  -1   8  140.32    7.46
   1   1   8  137.62    7.45
   1   1   8  138.66    7.39
   1   1   8  140.41    7.16
   2  -1   8    4.04    0.40
   2  -1   8    4.21    0.28
   2  -1   8    4.32    0.28
   2   1   8    3.24    0.42
   3  -1   8   24.49    1.30
  -3  -1  -8   24.09    1.30
  -3   1  -8   22.46    1.28
   3   1   8   22.16    1.36
  -4  -1  -8   25.45    1.50
   4  -1   8   26.82    1.50
   4  -1   8   27.89    1.60
   4   1   8   27.67    1.59
  -4   1  -8   27.60    1.50
   5  -1   8   18.46    1.21
  -5  -1  -8   17.66    1.13
  -5   1  -8   19.00    1.12
   5   1   8   18.59    1.19
  -5  -2   8    6.61    0.67
  -5   2   8    5.54    0.62
  -4  -2   8   11.43    0.74
  -4   2   8    7.59    0.72
   3  -2  -8   35.47    1.84
  -3  -2   8   34.11    1.91
  -3   2   8   33.27    1.83
  -3   2   8   31.48    1.91
   3   2  -8   32.78    1.83
   2  -2  -8   59.24    3.48
  -2  -2   8   59.71    3.65
  -2   2   8   71.47    3.66
   2   2  -8   72.72    3.50
  -2   2   8   72.17    3.50
  -1  -2   8    5.11    0.47
  -1   2   8    6.81    0.49
  -1   2   8    7.10    0.50
   1   2  -8    6.91    0.49
   0  -2   8    0.89    0.18
   0  -2   8    1.16    0.14
   0  -2   8    0.92    0.20
   0   2  -8    0.89    0.19
   0   2   8    0.50    0.15
   0   2   8    0.42    0.17
   0   2   8    0.58    0.20
   1  -2   8   12.77    0.87
   1   2   8   17.53    0.89
   2  -2   8   81.40    4.57
   2  -2   8   82.77    4.56
   2  -2   8   81.40    4.40
   2   2   8   90.63    4.57
   2   2   8   91.51    4.42
  -3  -2  -8   53.56    2.83
   3  -2   8   54.64    2.81
   3   2   8   53.61    2.94
  -3   2  -8   53.44    2.79
  -4  -2  -8   10.13    0.71
   4  -2   8   10.80    0.68
  -4   2  -8    9.52    0.67
   4   2   8    9.74    0.76
  -5  -2  -8    0.75    0.35
   5  -2   8    0.67    0.33
   5   2   8    0.59    0.33
  -5   2  -8    0.77    0.32
  -5  -3   8    4.93    0.61
  -5   3   8    3.93    0.61
  -4  -3   8   18.74    1.11
  -4   3   8   14.96    1.07
   3  -3  -8   15.02    0.89
  -3  -3   8   14.03    0.94
  -3   3   8   14.10    0.87
   3   3  -8   14.53    0.89
  -3   3   8   13.54    0.93
   2  -3  -8    4.03    0.43
  -2  -3   8    4.34    0.42
  -2   3   8    4.57    0.46
  -2   3   8    4.73    0.42
   2   3  -8    4.42    0.41
  -1  -3   8   44.94    2.21
  -1  -3   8   43.00    2.28
  -1   3   8   40.97    2.28
   1   3  -8   37.68    2.18
  -1   3   8   40.38    2.20
   0  -3   8   65.54    3.39
   0  -3   8   64.27    3.19
   0  -3   8   65.31    3.26
   0   3  -8   61.11    3.25
   0   3   8   60.38    3.33
   0   3   8   61.98    3.27
   0   3   8   60.59    3.38
   1  -3   8   59.00    2.95
   1  -3   8   60.52    3.05
   1   3   8   53.87    3.03
   1   3   8   55.03    3.03
   1   3   8   54.07    2.95
   2  -3   8    5.13    0.34
   2  -3   8    5.00    0.41
   2  -3   8    4.63    0.36
   2   3   8    3.67    0.40
   3  -3   8   10.53    0.66
   3  -3   8   10.66    0.68
  -3  -3  -8   10.27    0.71
   3   3   8   11.84    0.76
  -3   3  -8   12.24    0.68
  -4  -3  -8   15.14    0.97
  -4   3  -8   15.50    0.92
   4   3   8   15.30    1.00
  -5  -3  -8   22.78    1.37
   5   3   8   22.72    1.42
  -5   3  -8   23.54    1.34
  -5  -4   8    0.00    0.37
  -5   4   8   -0.02    0.36
  -4  -4   8   12.03    0.83
  -4   4   8   10.00    0.80
  -3  -4   8   39.11    2.27
   3  -4  -8   42.02    2.19
   3   4  -8   39.60    2.18
  -3   4   8   42.09    2.18
  -3   4   8   38.95    2.28
  -2  -4   8   68.31    3.57
  -2  -4   8   65.86    3.70
  -2   4   8   67.94    3.70
  -2   4   8   68.92    3.54
  -1  -4   8   23.06    1.32
  -1   4   8   23.67    1.29
  -1   4   8   22.10    1.31
   1   4  -8   22.39    1.26
   0  -4   8   29.13    1.55
   0  -4   8   29.02    1.50
   0   4   8   27.90    1.52
   0   4   8   28.19    1.54
   0   4  -8   25.02    1.49
   0   4  -8   27.46    1.50
   0   4   8   27.61    1.52
   1  -4   8   30.24    1.55
   1  -4   8   30.57    1.60
   1   4   8   27.84    1.57
   1   4   8   27.48    1.59
   1   4   8   27.82    1.58
   2  -4   8   98.52    5.47
   2  -4   8   96.77    5.71
   2   4   8  115.13    5.70
   2   4   8  105.67    5.69
   2   4   8  118.18    5.70
   3  -4   8   37.03    2.26
   3  -4   8   39.18    2.18
   3   4   8   45.19    2.32
  -3   4  -8   45.10    2.17
  -4  -4  -8    6.97    0.58
   4   4   8    6.76    0.61
  -4   4  -8    6.97    0.54
  -5  -4  -8    2.82    0.44
  -5   4  -8    3.03    0.39
  -5  -5   8    5.97    0.60
  -5  -5   8    6.53    0.67
  -5   5   8    5.05    0.63
  -4  -5   8    0.51    0.34
  -4  -5   8    0.46    0.27
  -4   5   8    0.26    0.34
  -3  -5   8    7.65    0.64
  -3   5   8    7.56    0.65
  -2  -5   8   27.39    1.50
  -2  -5   8   26.76    1.60
   2  -5  -8   27.11    1.48
  -2   5   8   28.55    1.61
   2   5  -8   28.66    1.54
  -2   5   8   28.28    1.54
  -1  -5   8   11.68    0.68
  -1  -5   8   11.77    0.82
   1  -5  -8   11.36    0.73
   1   5  -8   14.47    0.79
   1   5  -8   14.14    0.79
  -1   5   8   13.76    0.81
  -1   5   8   14.25    0.80
   0   5   8   22.78    1.25
   0   5  -8   22.58    1.23
   0   5   8   22.59    1.27
   0   5   8   21.80    1.25
   0   5  -8   21.73    1.23
   1  -5   8   47.66    2.54
   1  -5   8   46.64    2.65
   1   5   8   49.16    2.63
   1   5   8   50.27    2.63
   1   5   8   48.90    2.57
   2  -5   8    9.22    0.57
   2  -5   8    9.00    0.55
   2   5   8    7.87    0.55
   2   5   8    7.94    0.61
   3  -5   8    9.09    0.59
   3  -5   8    8.72    0.62
  -3   5  -8   10.23    0.60
   3   5   8    9.78    0.71
  -4  -5  -8   13.02    0.90
  -4   5  -8   13.32    0.80
   4   5   8   12.92    0.90
  -5  -5  -8   20.33    1.27
  -5  -6   8    0.04    0.33
  -5  -6   8   -0.05    0.39
  -5   6   8    0.06    0.39
  -4  -6   8    8.14    0.60
  -4  -6   8    7.54    0.66
  -4   6   8    7.18    0.71
  -3  -6   8   45.11    2.30
  -3  -6   8   44.05    2.48
  -3   6   8   42.11    2.47
  -2  -6   8   57.72    2.90
  -2  -6   8   56.38    3.01
  -2  -6   8   55.19    3.12
   2   6  -8   56.22    2.97
  -2   6   8   59.28    2.99
  -2   6   8   53.85    3.11
   1  -6  -8    8.92    0.52
  -1  -6   8    8.45    0.61
   1   6  -8    7.97    0.57
  -1   6   8    7.83    0.59
  -1   6   8    7.97    0.58
   1   6  -8    7.73    0.56
   0  -6   8    8.44    0.60
   0  -6  -8    8.68    0.55
   0   6   8    8.55    0.61
   0   6   8    8.55    0.59
   0   6   8    8.74    0.57
   0   6  -8    8.49    0.58
   0   6  -8    8.62    0.54
   1  -6   8   71.17    3.60
   1   6   8   64.32    3.57
   1   6   8   63.21    3.55
   2  -6   8   26.14    1.47
   2  -6   8   26.07    1.55
   2   6   8   28.97    1.54
   2   6   8   29.15    1.58
   3  -6   8   41.66    2.34
   3   6   8   43.14    2.36
  -4  -6  -8    1.93    0.37
   4   6   8    1.77    0.35
  -5  -6  -8    1.73    0.44
  -5  -7   8    5.61    0.67
  -5   7   8    4.95    0.67
  -4  -7   8    8.46    0.76
  -4  -7   8    8.95    0.66
  -4   7   8    9.18    0.75
  -3  -7   8    2.69    0.37
  -3  -7   8    2.45    0.39
  -3   7   8    2.53    0.39
  -2  -7   8   34.73    1.79
  -2  -7   8   33.90    1.97
  -2   7   8   36.35    1.90
   2   7  -8   35.34    1.89
  -2   7   8   32.09    1.96
   1  -7  -8   16.05    0.92
  -1  -7   8   16.44    1.01
   1   7  -8   16.07    0.98
  -1   7   8   16.42    0.97
   1   7  -8   16.47    0.95
  -1   7   8   15.88    1.00
   0  -7   8   25.97    1.52
   0   7   8   26.83    1.48
   0   7  -8   26.41    1.47
   0   7  -8   25.68    1.43
   0   7   8   26.42    1.50
   1  -7   8    6.63    0.55
   1   7   8    8.36    0.58
  -1   7  -8    8.16    0.54
   1   7   8    8.60    0.56
   2  -7   8    1.88    0.29
   2   7   8    2.55    0.36
   2   7   8    2.48    0.34
   3  -7   8    8.33    0.64
   3   7   8   10.11    0.70
   4   7   8    8.38    0.71
  -5  -7  -8    7.92    0.76
  -4  -8   8    8.98    0.78
  -4   8   8    9.55    0.77
  -3  -8   8   13.88    0.96
  -3   8   8   14.98    0.98
  -2  -8   8    9.45    0.73
   2   8  -8   10.06    0.70
  -2   8   8    9.22    0.72
   1  -8  -8    5.66    0.40
  -1  -8   8    5.56    0.47
  -1   8   8    4.00    0.47
   1   8  -8    4.09    0.47
   1   8  -8    3.99    0.44
   0  -8   8    2.85    0.41
   0   8  -8    2.54    0.34
   0   8  -8    2.54    0.32
   0   8   8    2.83    0.38
   1  -8   8    2.70    0.37
  -1   8  -8    2.25    0.31
   1   8   8    2.06    0.30
   1   8   8    2.33    0.35
   2  -8   8   26.55    1.35
   2   8   8   21.38    1.35
   2   8   8   21.41    1.33
   3  -8   8   35.17    2.02
   3   8   8   36.27    2.00
   3   8   8   35.83    2.03
   4   8   8    5.33    0.59
  -4  -9   8    9.06    0.80
  -4   9   8    9.66    0.79
  -3  -9   8    0.50    0.32
  -3   9   8    0.46    0.36
  -2  -9   8    9.04    0.72
   2   9  -8   10.56    0.74
  -2   9   8   10.12    0.75
  -1  -9   8   41.01    2.28
   1   9  -8   40.28    2.15
   1   9  -8   40.05    2.25
  -1   9   8   39.30    2.26
   0  -9   8   34.07    1.98
   0   9  -8   35.59    1.94
   0   9  -8   34.60    1.86
   1   9   8   15.69    0.97
   1   9   8   15.73    0.97
  -1   9  -8   15.67    0.90
   2  -9   8    2.00    0.32
   2   9   8    1.68    0.32
   2   9   8    1.77    0.31
   3  -9   8    4.49    0.52
   3   9   8    4.50    0.53
   3   9   8    4.84    0.51
  -4 -10   8    3.10    0.51
  -4  10   8    4.35    0.63
  -3 -10   8   12.22    0.96
  -3  10   8   14.47    0.95
  -2 -10   8    4.33    0.52
  -2  10   8    5.14    0.53
   2  10  -8    5.67    0.56
  -1 -10   8    2.23    0.37
   1  10  -8    1.56    0.31
  -1  10   8    1.57    0.34
   1  10  -8    1.28    0.29
   0 -10   8    4.59    0.52
   0  10  -8    4.59    0.42
   0  10   8    5.46    0.52
   1  10   8    4.62    0.47
   2 -10   8   22.84    1.29
   2  10   8   20.90    1.28
   2  10   8   20.16    1.28
   3  10   8   18.24    1.12
   3  10   8   17.59    1.15
   4  10   8    8.42    0.71
  -3 -11   8    0.45    0.39
  -3  11   8    0.15    0.35
  -2 -11   8    3.69    0.56
  -2  11   8    4.13    0.56
   2  11  -8    4.42    0.56
  -1 -11   8   14.83    0.99
  -1  11   8   14.12    0.98
   1  11  -8   14.39    0.90
   1  11  -8   15.10    0.96
   0 -11   8   38.76    2.12
   0  11  -8   35.82    1.97
   0  11   8   36.01    2.11
   1 -11   8    7.63    0.62
   1  11   8    6.31    0.61
   2 -11   8    1.87    0.38
   2  11   8    2.52    0.36
   2  11   8    2.21    0.38
   3  11   8    1.46    0.35
   3  11   8    1.16    0.37
  -3 -12   8    8.65    0.81
   3  12  -8    9.65    0.82
  -3  12   8    9.24    0.82
  -2 -12   8   17.22    1.20
   2  12  -8   19.49    1.22
  -2  12   8   18.57    1.22
  -1 -12   8    3.64    0.56
  -1  12   8    3.93    0.54
   0 -12   8    0.59    0.33
   0  12   8    0.71    0.35
   1 -12   8    6.76    0.63
   1  12   8    6.48    0.60
   2 -12   8   14.52    1.00
   2  12   8   14.50    0.99
   3  12   8   10.21    0.81
  -2 -13   8    1.37    0.41
  -2  13   8    1.93    0.42
  -1 -13   8    3.02    0.46
  -1  13   8    1.96    0.43
   0 -13   8    7.80    0.69
   0  13   8    6.22    0.67
   1 -13   8   12.28    0.87
   1  13   8   11.91    0.88
   2 -13   8    0.65    0.38
   2  13   8    0.80    0.38
  -1 -14   8    4.03    0.59
  -1  14   8    3.29    0.51
   0 -14   8    0.39    0.39
   0  14   8    0.40    0.39
   1 -14   8    6.37    0.67
   1  14   8    5.99    0.65
  -5   0   9   20.70    1.36
  -4   0   9    3.20    0.46
  -3   0   9    2.00    0.34
  -2   0   9   18.07    1.14
  -2   0   9   19.61    1.12
   2   0  -9   19.39    1.13
   1   0  -9   71.67    3.82
  -1   0   9   73.73    3.98
  -1   0   9   74.67    3.87
  -1   0   9   74.19    3.83
   0   0   9   58.60    3.18
   0   0   9   57.84    3.13
   0   0   9   60.22    3.09
   1   0   9    5.19    0.37
   1   0   9    5.29    0.41
   1   0   9    5.30    0.45
   2   0   9    0.34    0.09
   2   0   9    0.31    0.21
   2   0   9    0.40    0.20
   3   0   9    9.20    0.69
   3   0   9    9.30    0.66
   4   0   9   38.30    2.15
  -4   0  -9   37.22    2.04
  -5   0  -9   17.73    1.09
  -5  -1   9    7.30    0.70
  -5   1   9    7.71    0.75
  -4  -1   9   23.20    1.38
  -4   1   9   20.71    1.36
  -3  -1   9   29.96    1.67
  -3   1   9   27.02    1.67
  -2  -1   9    3.02    0.42
   2  -1  -9    3.05    0.47
   2   1  -9    4.57    0.45
  -2   1   9    4.41    0.43
  -2   1   9    4.30    0.44
  -1  -1   9   19.80    1.09
  -1  -1   9   19.17    1.01
  -1  -1   9   19.04    1.11
   1   1  -9   18.25    1.08
  -1   1   9   18.20    1.00
  -1   1   9   17.35    1.10
  -1   1   9   19.14    1.10
   0  -1   9   32.04    1.75
   0  -1   9   32.64    1.73
   0  -1   9   31.75    1.71
   0  -1   9   31.11    1.66
   0   1   9   31.11    1.72
   0   1   9   32.31    1.73
   0   1   9   30.68    1.74
   1   1   9   21.66    1.22
   1   1   9   21.49    1.21
   1   1   9   21.53    1.19
   2  -1   9    7.05    0.49
   2  -1   9    6.79    0.57
   2   1   9    8.91    0.59
   2   1   9    8.90    0.62
   2   1   9    9.01    0.46
   3  -1   9   14.16    0.96
   3  -1   9   14.27    0.92
   3   1   9   15.82    0.97
  -3   1  -9   16.38    0.92
   3   1   9   16.49    0.96
   4  -1   9   -0.21    0.30
  -4  -1  -9    0.15    0.28
   4   1   9   -0.08    0.28
  -4   1  -9    0.00    0.27
  -5  -1  -9    0.42    0.33
  -5   1  -9    0.53    0.34
  -5  -2   9    5.61    0.69
  -5   2   9    6.92    0.70
  -4  -2   9    2.40    0.41
  -4   2   9    2.37    0.43
  -3  -2   9   16.08    1.08
  -3   2   9   17.62    1.06
  -2  -2   9   17.61    1.18
   2  -2  -9   17.43    1.14
  -2   2   9   21.62    1.19
   2   2  -9   22.04    1.15
  -1  -2   9   45.22    2.56
  -1  -2   9   46.13    2.47
  -1  -2   9   43.76    2.46
   1   2  -9   49.07    2.48
  -1   2   9   47.78    2.48
  -1   2   9   47.35    2.56
   0  -2   9   96.49    5.04
   0  -2   9   96.64    4.84
   0  -2   9   93.96    4.77
   0   2   9   91.47    5.03
   0   2   9   92.98    4.96
   0   2   9   91.00    4.84
   1  -2   9   46.64    2.32
   1  -2   9   45.79    2.26
   1  -2   9   46.08    2.38
   1   2   9   40.96    2.36
   1   2   9   42.21    2.37
   1   2   9   41.00    2.33
   2  -2   9    7.96    0.58
   2  -2   9    8.19    0.53
   2   2   9    8.81    0.60
   2   2   9    8.56    0.61
   2   2   9    8.95    0.48
   3  -2   9   25.84    1.28
   3  -2   9   23.93    1.26
   3   2   9   19.99    1.34
  -3   2  -9   21.04    1.25
  -4  -2  -9   24.13    1.31
  -4   2  -9   21.90    1.28
   4   2   9   22.09    1.39
  -5  -2  -9   17.26    1.12
  -5   2  -9   18.48    1.11
  -5  -3   9    5.43    0.63
  -5   3   9    6.16    0.69
  -4  -3   9    7.02    0.60
  -4   3   9    5.04    0.58
  -3  -3   9   15.36    1.03
  -3   3   9   16.58    1.04
  -2  -3   9    9.18    0.68
  -2   3   9    9.49    0.68
   2   3  -9    9.58    0.68
  -1  -3   9    1.42    0.25
  -1  -3   9    1.14    0.25
  -1   3   9    0.85    0.23
  -1   3   9    1.11    0.26
   1   3  -9    1.08    0.18
   1   3  -9    1.04    0.24
   0  -3   9   50.39    2.70
   0  -3   9   50.96    2.52
   0  -3   9   51.52    2.61
   0   3   9   47.75    2.68
   0   3   9   49.60    2.65
   0   3   9   47.27    2.61
   0   3  -9   48.27    2.60
   1  -3   9   51.16    2.63
   1  -3   9   50.45    2.71
   1   3   9   48.95    2.64
   1   3   9   48.70    2.69
   1   3   9   50.22    2.70
   2  -3   9   37.02    2.05
   2  -3   9   36.54    2.10
   2   3   9   39.08    2.07
   2   3   9   40.80    2.09
   2   3   9   39.24    2.13
   3  -3   9   12.58    0.84
   3  -3   9   13.21    0.86
   3   3   9   15.54    0.93
  -3   3  -9   16.70    0.86
  -4  -3  -9    0.59    0.32
  -4   3  -9    0.65    0.26
   4   3   9    0.45    0.32
  -5  -3  -9    4.05    0.52
  -5  -4   9    4.46    0.64
  -5   4   9    4.88    0.66
  -4  -4   9    1.14    0.37
  -4   4   9    0.95    0.37
  -3  -4   9   21.40    1.36
  -3   4   9   23.41    1.37
  -2  -4   9   29.69    1.79
   2   4  -9   33.06    1.73
  -2   4   9   30.95    1.79
  -1  -4   9   40.95    2.34
  -1   4   9   42.23    2.27
  -1   4   9   42.94    2.34
   1   4  -9   42.54    2.26
   1   4  -9   42.70    2.30
   0  -4   9   15.09    0.95
   0  -4   9   14.58    0.92
   0   4   9   16.62    0.97
   0   4  -9   16.29    0.95
   0   4   9   16.73    0.92
   0   4   9   15.95    0.93
   1  -4   9   18.36    1.00
   1  -4   9   18.50    1.02
   1   4   9   16.43    0.99
   1   4   9   16.49    1.04
   1   4   9   16.84    1.02
   2  -4   9   21.88    1.20
   2  -4   9   21.30    1.18
   2   4   9   20.77    1.17
   2   4   9   20.43    1.23
   3  -4   9   12.72    0.76
   3  -4   9   12.56    0.76
  -3   4  -9   12.33    0.74
   3   4   9   11.37    0.83
   4   4   9   10.58    0.79
  -5  -4  -9   18.06    1.17
  -5  -5   9    2.01    0.42
  -5  -5   9    1.68    0.46
  -5   5   9    2.19    0.49
  -4  -5   9    7.71    0.61
  -4  -5   9    7.88    0.72
  -4   5   9    8.82    0.70
  -3  -5   9   10.31    0.82
  -3   5   9   12.54    0.85
  -2  -5   9   24.62    1.40
   2   5  -9   23.19    1.35
  -2   5   9   23.24    1.40
  -1  -5   9    4.86    0.48
  -1   5   9    5.17    0.47
   1   5  -9    5.50    0.43
   1   5  -9    5.30    0.49
   0  -5   9   17.74    1.16
   0  -5   9   17.91    1.13
   0   5   9   20.66    1.15
   0   5   9   20.82    1.13
   0   5   9   20.84    1.16
   0   5  -9   21.13    1.14
   1  -5   9   76.90    3.76
   1  -5   9   76.51    3.92
   1   5   9   69.55    3.87
   1   5   9   66.71    3.89
   2  -5   9   62.09    3.33
   2  -5   9   62.96    3.19
   2   5   9   59.63    3.32
   2   5   9   60.83    3.30
   3  -5   9   20.31    1.20
   3   5   9   20.99    1.26
   4   5   9    0.34    0.32
  -5  -5  -9   12.89    0.95
  -4  -6   9    0.04    0.36
  -4   6   9    0.25    0.34
  -3  -6   9    8.53    0.68
  -3   6   9    8.73    0.72
  -2  -6   9   38.71    2.10
  -2   6   9   34.79    2.08
  -1  -6   9   24.54    1.46
   1   6  -9   26.21    1.42
  -1   6   9   24.14    1.44
   1   6  -9   24.59    1.38
   0  -6   9   22.54    1.39
   0   6  -9   24.87    1.35
   0   6   9   24.44    1.36
   0   6   9   24.58    1.38
   1  -6   9    0.75    0.24
   1  -6   9    0.79    0.23
   1   6   9    0.73    0.21
   1   6   9    0.82    0.23
   2  -6   9    9.68    0.62
   2  -6   9    9.14    0.64
   2   6   9    9.48    0.62
   2   6   9    9.60    0.70
   3  -6   9   12.96    0.85
   3   6   9   13.62    0.92
   3   6   9   13.74    0.81
   4   6   9   21.28    1.33
  -4  -7   9    7.88    0.73
  -4   7   9    9.60    0.79
  -3  -7   9    4.41    0.56
  -3   7   9    4.36    0.51
  -2  -7   9    6.47    0.59
  -2   7   9    6.26    0.58
  -1  -7   9    5.51    0.53
   1   7  -9    6.08    0.51
  -1   7   9    5.99    0.52
   0  -7   9   24.03    1.52
   0   7   9   27.29    1.52
   0   7  -9   27.88    1.46
   1  -7   9   48.37    2.82
   1   7   9   53.01    2.81
   1   7   9   52.98    2.80
   2  -7   9   31.89    1.69
   2   7   9   28.00    1.69
   2   7   9   29.21    1.66
   3  -7   9   14.00    0.88
   3   7   9   13.69    0.85
   3   7   9   13.19    0.94
   4   7   9    0.86    0.36
  -4  -8   9    0.54    0.40
  -4   8   9    0.55    0.38
  -3  -8   9    0.81    0.36
  -3   8   9    0.51    0.33
  -2  -8   9    7.50    0.61
   2   8  -9    5.75    0.58
  -2   8   9    5.20    0.58
  -1  -8   9   38.49    2.04
  -1   8   9   33.29    2.02
   1   8  -9   35.26    1.94
   0  -8   9   35.53    2.08
   0   8  -9   38.20    1.98
   0   8   9   36.84    2.06
   1  -8   9   11.55    0.83
   1   8   9   12.58    0.81
   1   8   9   12.84    0.81
   2  -8   9   20.90    1.23
   2   8   9   19.73    1.23
   2   8   9   20.72    1.20
   3  -8   9   24.16    1.38
   3   8   9   22.17    1.41
   3   8   9   23.11    1.35
  -4  -9   9    9.72    0.86
  -4   9   9   10.57    0.84
  -3  -9   9   10.47    0.81
  -3   9   9   11.04    0.86
  -2  -9   9    2.95    0.44
  -2   9   9    4.18    0.48
   2   9  -9    4.32    0.52
  -1  -9   9    6.16    0.59
  -1   9   9    5.59    0.55
   1   9  -9    5.36    0.51
   0  -9   9   21.69    1.33
   0   9   9   22.14    1.32
   0   9  -9   22.01    1.24
   1  -9   9   20.95    1.38
   1   9   9   24.50    1.37
   1   9   9   24.56    1.38
   2  -9   9   21.56    1.25
   2   9   9   19.78    1.25
   2   9   9   19.93    1.22
   3  -9   9    2.75    0.39
   3   9   9    2.59    0.40
   3   9   9    2.69    0.35
   4   9   9    0.69    0.31
  -3 -10   9    1.25    0.39
  -3  10   9    1.39    0.40
  -2  10   9    2.97    0.44
  -1 -10   9   13.40    0.91
  -1  10   9   11.74    0.87
   0 -10   9   24.86    1.54
   0  10   9   26.65    1.54
   0  10  -9   26.30    1.45
   1 -10   9    1.20    0.32
   1  10   9    1.81    0.33
   2 -10   9    4.12    0.55
   2  10   9    4.88    0.55
   2  10   9    5.16    0.51
   3 -10   9    9.39    0.72
   3  10   9    8.49    0.76
   3  10   9    8.72    0.70
  -3 -11   9    9.82    0.80
  -3  11   9    9.03    0.78
  -2 -11   9    6.98    0.70
  -2  11   9    7.41    0.68
  -1 -11   9    3.66    0.53
  -1  11   9    3.20    0.51
   0 -11   9    8.01    0.68
   0  11   9    7.44    0.65
   1 -11   9   15.90    1.05
   1  11   9   15.79    1.02
   2 -11   9   16.27    1.14
   2  11   9   18.62    1.12
   2  11   9   17.61    1.12
   3  11   9    3.06    0.42
  -2 -12   9    4.88    0.64
  -2  12   9    5.65    0.64
  -1 -12   9    7.02    0.69
  -1  12   9    7.20    0.68
   0 -12   9    1.04    0.35
   1 -12   9    3.41    0.52
   1  12   9    1.93    0.39
   2 -12   9    2.43    0.44
   2  12   9    2.79    0.41
  -1 -13   9    0.55    0.39
  -1  13   9    0.22    0.38
   0 -13   9    5.00    0.60
   0  13   9    3.71    0.57
   1 -13   9    9.33    0.77
   1  13   9    8.48    0.74
  -5   0  10    0.07    0.42
  -4   0  10    1.41    0.39
  -3   0  10    7.84    0.63
  -2   0  10    0.53    0.27
  -1   0  10   25.51    1.49
  -1   0  10   26.53    1.39
   0   0  10    6.77    0.49
   0   0  10    6.67    0.46
   0   0  10    6.75    0.53
   1   0  10   47.13    2.51
   1   0  10   47.68    2.56
   1   0  10   46.95    2.55
   2   0  10   26.28    1.45
   2   0  10   26.23    1.49
   2   0  10   25.79    1.42
   3   0  10   -0.04    0.25
   4   0  10   15.30    1.02
  -4   0 -10   15.07    0.94
  -5   0 -10   12.00    0.84
  -5  -1  10    0.73    0.43
  -5   1  10    0.78    0.43
  -4  -1  10    3.17    0.47
  -4   1  10    3.28    0.49
  -3  -1  10   15.04    0.99
  -3   1  10   14.66    0.97
  -2  -1  10   18.36    1.12
  -2   1  10   17.91    1.11
  -1  -1  10   26.43    1.65
  -1  -1  10   27.24    1.56
  -1   1  10   31.71    1.67
   1   1 -10   32.32    1.65
   0  -1  10    3.31    0.40
   0  -1  10    3.46    0.36
   0  -1  10    3.24    0.32
   0   1  10    3.99    0.36
   0   1  10    3.84    0.34
   1  -1  10    6.65    0.45
   1  -1  10    6.67    0.48
   1  -1  10    6.97    0.51
   1   1  10    6.10    0.43
   1   1  10    5.70    0.52
   1   1  10    5.90    0.49
   2  -1  10   47.67    2.67
   2  -1  10   47.11    2.63
   2  -1  10   48.79    2.72
   2   1  10   52.44    2.66
   2   1  10   52.49    2.72
   3  -1  10   29.73    1.67
   3  -1  10   31.20    1.75
   3   1  10   30.03    1.74
   4  -1  10   22.28    1.37
  -4   1 -10   22.14    1.26
   4   1  10   21.60    1.35
  -5  -1 -10    0.67    0.35
  -5  -2  10    4.29    0.66
  -5   2  10    5.70    0.63
  -4  -2  10    2.33    0.42
  -4   2  10    3.42    0.54
  -3  -2  10   11.03    0.75
  -3   2  10    9.00    0.76
  -2  -2  10    2.99    0.43
  -2   2  10    2.95    0.42
  -1  -2  10   14.68    0.85
  -1  -2  10   15.43    0.96
  -1   2  10   15.58    0.95
   1   2 -10   16.87    0.96
   0  -2  10   34.49    1.77
   0  -2  10   35.37    1.74
   0   2  10   29.30    1.72
   0   2  10   27.31    1.74
   1  -2  10   36.21    2.16
   1  -2  10   37.52    2.13
   1   2  10   42.54    2.16
   1   2  10   42.23    2.17
   2  -2  10   34.25    1.89
   2  -2  10   34.24    1.90
   2   2  10   35.19    1.88
   2   2  10   36.07    1.95
   3  -2  10    0.00    0.23
   3  -2  10    0.38    0.16
   3   2  10    0.07    0.26
   4  -2  10   11.31    0.87
   4   2  10   11.60    0.87
  -4  -3  10    5.62    0.62
  -4   3  10    4.62    0.62
  -3  -3  10   20.22    1.18
  -3   3  10   16.73    1.14
  -2  -3  10   26.06    1.54
  -2   3  10   26.72    1.54
  -1  -3  10   20.49    1.31
  -1   3  10   22.90    1.30
   1   3 -10   23.72    1.30
   0  -3  10   19.35    1.17
   0  -3  10   19.38    1.18
   0   3  10   20.76    1.17
   0   3  10   21.36    1.14
   1  -3  10    3.74    0.39
   1  -3  10    3.23    0.42
   1   3  10    4.37    0.35
   1   3  10    4.12    0.39
   2  -3  10   31.87    1.82
   2  -3  10   32.12    1.79
   2   3  10   34.37    1.85
   2   3  10   33.91    1.79
   3  -3  10   35.01    1.97
   3   3  10   37.13    2.04
   4   3  10   13.25    0.96
  -4  -4  10    7.42    0.69
  -4   4  10    6.37    0.64
  -3  -4  10    3.20    0.47
  -3   4  10    4.62    0.53
  -2  -4  10    4.74    0.51
  -2   4  10    5.05    0.51
  -1  -4  10   20.38    1.33
   1   4 -10   24.55    1.33
  -1   4  10   23.86    1.34
   0  -4  10   24.68    1.43
   0  -4  10   25.12    1.41
   0   4  10   24.35    1.41
   0   4 -10   24.45    1.40
   0   4  10   26.27    1.39
   1  -4  10   19.95    1.14
   1  -4  10   20.28    1.13
   1   4  10   19.20    1.14
   1   4  10   19.07    1.12
   2  -4  10   15.28    0.94
   2  -4  10   15.40    0.95
   2   4  10   16.91    0.91
   2   4  10   16.33    1.00
   3  -4  10    0.25    0.20
   3   4  10    0.09    0.26
   4   4  10    8.93    0.77
  -4  -5  10    0.00    0.34
  -4   5  10    0.45    0.38
  -3  -5  10    9.75    0.76
  -3   5  10    9.42    0.77
  -2  -5  10   32.76    1.84
  -2   5  10   30.60    1.83
  -1  -5  10   22.52    1.38
  -1   5  10   23.65    1.37
   1   5 -10   23.35    1.33
   0  -5  10    0.39    0.25
   0  -5  10    0.14    0.23
   0   5 -10    0.26    0.23
   0   5  10    0.04    0.18
   0   5  10    0.28    0.22
   1  -5  10    5.92    0.48
   1  -5  10    5.58    0.46
   1   5  10    4.68    0.42
   1   5  10    4.80    0.45
   2  -5  10   22.88    1.28
   2  -5  10   21.66    1.25
   2   5  10   22.17    1.32
   2   5  10   22.45    1.25
   3  -5  10   21.08    1.28
   3   5  10   23.68    1.35
   4   5  10   10.72    0.85
  -4  -6  10   11.68    0.88
  -4   6  10   11.68    0.88
  -3  -6  10    2.79    0.45
  -3   6  10    3.55    0.48
  -2  -6  10    3.93    0.46
  -2   6  10    3.46    0.49
  -1  -6  10   30.16    1.78
  -1   6  10   30.51    1.76
   1   6 -10   32.13    1.72
   0  -6  10   26.43    1.63
   0   6  10   28.28    1.61
   0   6  10   29.73    1.59
   0   6 -10   29.09    1.58
   1  -6  10   13.73    0.92
   1  -6  10   13.52    0.95
   1   6  10   17.34    0.95
   1   6  10   16.58    0.92
   2  -6  10   10.84    0.80
   2   6  10   13.77    0.78
   2   6  10   13.38    0.85
   3  -6  10    0.92    0.27
   3   6  10    0.84    0.33
  -4  -7  10    3.12    0.51
  -4   7  10    3.47    0.55
  -3  -7  10   12.76    0.96
  -3   7  10   13.90    0.96
  -2  -7  10   20.82    1.33
  -2   7  10   22.19    1.33
  -1  -7  10   13.70    0.86
  -1   7  10   11.09    0.85
   0  -7  10    1.87    0.32
   0   7  10    1.63    0.30
   0   7 -10    1.76    0.30
   1  -7  10    1.08    0.27
   1   7  10    0.69    0.25
   1   7  10    0.86    0.25
   2  -7  10   11.37    0.72
   2   7  10    9.58    0.74
   2   7  10    9.55    0.67
   3  -7  10   19.48    1.12
   3   7  10   17.25    1.15
   3   7  10   17.99    1.08
  -3  -8  10   10.24    0.80
  -3   8  10   10.42    0.83
  -2  -8  10    2.55    0.39
  -2   8  10    2.01    0.39
  -1  -8  10   23.93    1.40
  -1   8  10   22.38    1.38
   0  -8  10   32.72    1.90
   0   8 -10   33.48    1.81
   0   8  10   33.08    1.89
   1  -8  10   15.02    0.99
   1   8  10   15.50    0.97
   1   8  10   15.95    0.98
   2  -8  10    7.44    0.62
   2   8  10    8.22    0.67
   2   8  10    7.91    0.59
   3  -8  10   -0.08    0.28
   3   8  10    0.21    0.32
   3   8  10    0.15    0.25
  -3  -9  10   12.89    0.95
  -3   9  10   12.20    0.92
  -2  -9  10    5.99    0.57
  -2   9  10    5.22    0.59
  -1  -9  10    5.48    0.57
  -1   9  10    3.69    0.51
   0  -9  10   10.02    0.73
   0   9  10    8.81    0.70
   0   9 -10    8.78    0.67
   1  -9  10    1.23    0.34
   1   9  10    1.25    0.32
   1   9  10    1.05    0.29
   2  -9  10    3.87    0.49
   2   9  10    2.70    0.40
   2   9  10    3.00    0.42
   3  -9  10   11.92    0.81
   3   9  10   10.56    0.77
   3   9  10   10.24    0.82
  -3 -10  10    6.08    0.68
  -3  10  10    5.41    0.68
  -2 -10  10    0.14    0.37
  -2  10  10    0.08    0.34
  -1 -10  10    5.84    0.64
  -1  10  10    6.74    0.61
   0 -10  10   17.83    1.12
   0  10  10   17.22    1.12
   1 -10  10   16.85    1.03
   1  10  10   14.19    1.00
   2 -10  10    9.74    0.76
   2  10  10    9.48    0.76
   2  10  10    9.50    0.72
   3 -10  10    0.61    0.35
   3  10  10    0.53    0.30
  -2 -11  10    5.30    0.67
  -2  11  10    6.35    0.66
  -1 -11  10    1.73    0.42
  -1  11  10    1.97    0.40
   0 -11  10    0.56    0.36
   0  11  10    0.59    0.34
   1 -11  10    9.06    0.75
   1  11  10    9.21    0.74
   2 -11  10    7.36    0.67
   2  11  10    6.06    0.64
   2  11  10    6.26    0.60
  -1 -12  10    2.51    0.44
  -1  12  10    2.94    0.46
   0  12  10    2.77    0.44
   1 -12  10   23.32    1.37
   1  12  10   19.65    1.32
  -4   0  11   18.17    1.21
  -3   0  11   21.52    1.34
  -2   0  11    9.88    0.72
  -1   0  11   10.09    0.70
   0   0  11   38.31    2.09
   0   0  11   39.10    2.14
   1   0  11   74.80    4.03
   1   0  11   76.04    4.06
   2   0  11   24.30    1.33
   2   0  11   24.37    1.41
   3   0  11    1.50    0.33
   4   0  11    3.01    0.45
  -4  -1  11    2.40    0.47
  -4   1  11    3.24    0.49
  -3  -1  11    0.82    0.36
  -3   1  11    1.26    0.36
  -2  -1  11    7.81    0.67
  -2   1  11    9.93    0.69
  -1  -1  11   23.70    1.49
  -1   1  11   28.38    1.51
   0   1  11    9.44    0.64
   0   1  11    9.43    0.61
   1  -1  11    5.27    0.44
   1   1  11    3.63    0.40
   1   1  11    3.89    0.37
   2  -1  11    0.40    0.26
   2  -1  11    0.92    0.17
   2   1  11    0.55    0.26
   3  -1  11    3.98    0.48
   3   1  11    4.32    0.51
   4  -1  11    6.95    0.65
   4   1  11    5.08    0.59
  -4  -2  11   11.95    0.90
  -4   2  11   11.37    0.90
  -3  -2  11   17.37    1.08
  -3   2  11   14.89    1.06
  -2  -2  11   14.00    0.87
  -2   2  11   11.37    0.84
  -1  -2  11    4.30    0.46
  -1   2  11    5.15    0.46
   0  -2  11    9.99    0.63
   0  -2  11   10.14    0.59
   0   2  11    7.73    0.62
   0   2  11    8.44    0.59
   1  -2  11   45.40    2.39
   1  -2  11   45.88    2.39
   1   2  11   41.06    2.37
   1   2  11   41.96    2.37
   2  -2  11   18.53    1.05
   2  -2  11   18.07    1.11
   2   2  11   18.21    1.11
   3  -2  11    7.70    0.64
   3   2  11    8.11    0.67
  -4  -3  11    2.36    0.45
  -4   3  11    4.16    0.59
  -3  -3  11    0.15    0.33
  -3   3  11    0.17    0.31
  -2  -3  11   21.44    1.39
  -2   3  11   25.26    1.40
  -1  -3  11   20.55    1.38
  -1   3  11   26.58    1.39
   0  -3  11   23.33    1.38
   0   3  11   24.20    1.34
   0   3  11   24.19    1.37
   1   3  11    7.15    0.55
   1   3  11    7.16    0.50
   2  -3  11    1.54    0.23
   2   3  11    1.49    0.30
   3   3  11   14.60    0.96
  -4  -4  11    5.30    0.61
  -4   4  11    6.55    0.64
  -3  -4  11    6.18    0.61
  -3   4  11    5.10    0.60
  -2  -4  11    3.70    0.49
  -2   4  11    2.72    0.41
  -1  -4  11    5.43    0.55
  -1   4  11    5.77    0.51
   0  -4  11    0.56    0.26
   0   4  11    0.10    0.18
   0   4  11    0.08    0.22
   1  -4  11   18.01    1.05
   1   4  11   17.58    1.05
   1   4  11   17.20    1.02
   2  -4  11   27.22    1.45
   2   4  11   24.00    1.48
   3  -4  11   14.74    0.93
   3   4  11   16.44    1.04
  -4  -5  11    3.03    0.48
  -4   5  11    3.66    0.55
  -3  -5  11    1.38    0.39
  -3   5  11    1.06    0.37
  -2  -5  11   10.46    0.78
  -2   5  11   10.18    0.77
  -1  -5  11   35.41    2.03
  -1   5  11   35.82    2.02
   0  -5  11   40.31    2.28
   0   5  11   41.96    2.23
   0   5  11   40.31    2.26
   1  -5  11   11.16    0.78
   1   5  11   11.73    0.74
   1   5  11   12.11    0.77
   2  -5  11    1.69    0.28
   2   5  11    1.48    0.21
   2   5  11    1.45    0.32
   3  -5  11    6.90    0.56
   3   5  11    7.90    0.66
  -3  -6  11    4.11    0.60
  -3   6  11    5.52    0.61
  -2  -6  11    5.60    0.60
  -2   6  11    5.95    0.62
  -1  -6  11    3.75    0.49
  -1   6  11    3.89    0.50
   0  -6  11    2.27    0.35
   0   6  11    3.36    0.42
   1  -6  11   15.82    1.02
   1   6  11   16.33    0.98
   1   6  11   16.51    1.00
   2  -6  11   26.88    1.46
   2   6  11   24.44    1.49
   2   6  11   24.57    1.43
   3  -6  11   10.33    0.69
   3   6  11    8.53    0.77
  -3  -7  11    0.33    0.35
  -3   7  11    0.68    0.38
  -2  -7  11    2.71    0.42
  -2   7  11    1.76    0.39
  -1  -7  11   17.23    1.03
  -1   7  11   14.10    0.99
   0  -7  11   34.18    1.95
   0   7  11   33.93    1.93
   1  -7  11   16.95    1.10
   1   7  11   18.42    1.09
   1   7  11   17.75    1.07
   2  -7  11    0.46    0.28
   2   7  11    0.61    0.24
   2   7  11    0.41    0.29
   3  -7  11    3.60    0.48
   3   7  11    3.06    0.44
  -3  -8  11    7.90    0.75
  -3   8  11    8.13    0.75
  -2  -8  11    3.01    0.45
  -2   8  11    2.85    0.45
  -1  -8  11    0.93    0.34
  -1   8  11    1.10    0.33
   0  -8  11    2.91    0.48
   0   8  11    3.56    0.46
   1  -8  11   14.59    1.02
   1   8  11   16.85    1.03
   1   8  11   16.50    1.00
   2  -8  11    9.88    0.77
   2   8  11   11.75    0.75
   2   8  11   11.48    0.82
   3  -8  11    7.25    0.63
  -2  -9  11    0.49    0.36
  -2   9  11    0.18    0.36
  -1  -9  11    6.63    0.64
  -1   9  11    5.43    0.58
   0  -9  11   14.75    1.01
   0   9  11   14.80    0.98
   1  -9  11   15.14    1.03
   1   9  11   15.81    0.99
   2  -9  11    1.50    0.34
   2   9  11    1.40    0.35
   2   9  11    1.49    0.31
  -2 -10  11    5.74    0.66
  -2  10  11    4.99    0.62
  -1 -10  11    1.11    0.37
  -1  10  11    1.34    0.38
   0 -10  11    1.96    0.40
   0  10  11    1.41    0.35
   1 -10  11   18.61    1.22
   1  10  11   19.72    1.20
   2 -10  11   10.14    0.84
   2  10  11   12.08    0.81
   2  10  11   11.54    0.85
  -1 -11  11    6.60    0.68
  -1  11  11    6.33    0.69
   0 -11  11    2.45    0.46
   0  11  11    2.37    0.42
   1 -11  11    2.63    0.44
   1  11  11    1.87    0.39
  -3   0  12    6.25    0.63
  -2   0  12   18.01    1.14
  -1   0  12   18.31    1.12
   0   0  12    0.58    0.25
   1   0  12    0.33    0.23
   1   0  12    0.50    0.21
   2   0  12    3.72    0.46
   3   0  12   24.28    1.46
  -3  -1  12    2.09    0.42
  -3   1  12    1.90    0.41
  -2  -1  12    2.82    0.40
  -2   1  12    2.00    0.38
  -1  -1  12    0.68    0.30
  -1   1  12    0.28    0.27
   0  -1  12   17.39    1.03
   0   1  12   16.34    1.02
   1  -1  12   36.37    2.02
   1  -1  12   37.86    2.02
   1   1  12   36.44    2.01
   1   1  12   35.54    2.01
   2  -1  12   17.90    1.13
   2   1  12   19.30    1.14
   3  -1  12    5.00    0.58
   3   1  12    5.73    0.55
  -3   2  12    2.19    0.42
  -2  -2  12   25.47    1.56
  -2   2  12   26.93    1.56
  -1  -2  12    9.65    0.77
  -1   2  12   12.01    0.76
   0  -2  12    4.09    0.45
   0   2  12    4.37    0.44
   1  -2  12   -0.07    0.23
   1  -2  12    0.10    0.22
   1   2  12   -0.07    0.20
   1   2  12   -0.05    0.23
   2  -2  12    3.61    0.47
   2   2  12    4.16    0.47
   3  -2  12   20.57    1.31
   3   2  12   21.67    1.31
  -3  -3  12    5.09    0.60
  -3   3  12    3.89    0.57
  -2  -3  12    0.77    0.35
  -2   3  12    1.13    0.34
  -1  -3  12    9.67    0.70
  -1   3  12    8.47    0.67
   0  -3  12   23.58    1.30
   0   3  12   20.44    1.28
   1  -3  12   22.47    1.32
   1  -3  12   23.34    1.33
   1   3  12   22.04    1.30
   1   3  12   23.40    1.33
   2  -3  12    6.70    0.52
   2  -3  12    7.66    0.60
   2   3  12    6.38    0.58
   3  -3  12    5.92    0.62
   3   3  12    6.98    0.64
  -3  -4  12    4.55    0.57
  -3   4  12    2.80    0.46
  -2  -4  12    9.30    0.73
  -2   4  12    8.47    0.73
  -1  -4  12   16.10    1.02
  -1   4  12   14.97    1.00
   0  -4  12    4.94    0.53
   0   4  12    6.33    0.52
   1  -4  12    3.05    0.41
   1   4  12    2.45    0.33
   1   4  12    2.80    0.36
   2  -4  12    2.58    0.36
   2   4  12    2.35    0.35
   3   4  12   20.04    1.26
  -3  -5  12    6.44    0.67
  -3   5  12    6.01    0.65
  -2  -5  12    0.85    0.36
  -2   5  12    1.07    0.36
  -1  -5  12    8.09    0.64
  -1   5  12    6.79    0.63
   0  -5  12   12.63    0.86
   0   5  12   13.03    0.85
   1  -5  12    5.60    0.54
   1   5  12    7.35    0.52
   2  -5  12   11.48    0.72
   2   5  12    9.05    0.75
   3   5  12    1.01    0.35
  -3  -6  12    1.29    0.42
  -3   6  12    1.43    0.42
  -2  -6  12    7.12    0.67
  -2   6  12    6.87    0.65
  -1  -6  12    9.22    0.77
  -1   6  12   10.14    0.74
   0  -6  12    4.71    0.54
   0   6  12    4.92    0.49
   1  -6  12    0.27    0.28
   1   6  12    0.22    0.24
   2  -6  12    2.21    0.32
   2   6  12    1.80    0.34
   3   6  12    7.80    0.72
  -2  -7  12    1.62    0.41
  -2   7  12    2.02    0.41
  -1  -7  12    4.16    0.53
  -1   7  12    3.65    0.53
   0  -7  12   17.81    1.15
   0   7  12   18.34    1.12
   1  -7  12    5.15    0.53
   1   7  12    4.72    0.51
   2  -7  12    4.28    0.52
   2   7  12    5.09    0.56
  -2  -8  12    8.70    0.80
  -2   8  12   10.32    0.81
  -1  -8  12    9.75    0.77
  -1   8  12    9.25    0.77
   0  -8  12    1.64    0.39
   0   8  12    1.08    0.33
   1  -8  12    0.69    0.31
   1   8  12    0.50    0.29
   2  -8  12    1.27    0.33
   2   8  12    1.14    0.34
  -1  -9  12    0.20    0.37
  -1   9  12    0.65    0.36
   0  -9  12    5.25    0.59
   0   9  12    5.69    0.58
   1  -9  12   11.71    0.83
   1   9  12    9.72    0.78
  -2   0  13    8.04    0.68
  -1   0  13    4.11    0.50
   0   0  13   12.86    0.83
   1   0  13    4.80    0.44
  -2  -1  13   18.19    1.14
  -2   1  13   16.78    1.12
  -1  -1  13    7.31    0.64
  -1   1  13    7.66    0.63
   0  -1  13    0.18    0.27
   0   1  13    0.26    0.25
   1  -1  13    7.96    0.58
  -2  -2  13    1.76    0.39
  -2   2  13    2.04    0.39
  -1  -2  13    8.52    0.69
  -1   2  13    8.80    0.68
   0  -2  13   20.74    1.25
   0   2  13   21.43    1.25
   1  -2  13   14.26    0.90
  -2  -3  13    5.88    0.64
  -2   3  13    5.84    0.59
  -1   3  13    2.46    0.37
   0  -3  13    1.72    0.34
   0   3  13    1.52    0.29
   1  -3  13    1.75    0.30
  -2  -4  13    0.35    0.36
  -2   4  13   -0.07    0.32
  -1  -4  13   15.17    0.97
  -1   4  13   13.45    0.94
   0  -4  13   23.95    1.39
   0   4  13   22.23    1.35
   1  -4  13   13.62    0.88
  -2  -5  13   -0.25    0.35
  -2   5  13    0.53    0.36
  -1  -5  13    0.91    0.37
  -1   5  13    0.13    0.32
   0  -5  13    3.43    0.49
   0   5  13    3.58    0.45
   1  -5  13    1.49    0.33
  -1  -6  13    4.58    0.55
  -1   6  13    3.26    0.49
   0  -6  13   19.57    1.18
   0   6  13   17.64    1.15
   1  -6  13    9.93    0.74
  -1  -7  13    0.94    0.37
  -1   7  13    1.12    0.35
   0  -7  13    1.39    0.38
   0   7  13    1.57    0.36
   1  -7  13    4.67    0.53
  -1   0  14    1.84    0.39
   0   0  14    0.43    0.29
  -1  -1  14   12.33    0.85
  -1   1  14   11.20    0.83
   0  -1  14    9.78    0.72
   0   1  14   10.33    0.73
  -1  -2  14   -0.07    0.33
  -1   2  14   -0.04    0.31
   0  -2  14    1.45    0.34
   0   2  14    1.49    0.32
   0  -3  14    7.14    0.64
   0   3  14    7.99    0.62
   0   0   0    0.00    0.00
;
loop_
_symmetry_equiv_pos_as_xyz
'x, y, z'
'-x, y+1/2, -z'
loop_
_atom_site_label
_atom_site_type_symbol
_atom_site_fract_x
_atom_site_fract_y
_atom_site_fract_z
_atom_site_U_iso_or_equiv
_atom_site_adp_type
_atom_site_occupancy
_atom_site_site_symmetry_order
_atom_site_calc_flag
_atom_site_refinement_flags_posn
_atom_site_refinement_flags_adp
_atom_site_refinement_flags_occupancy
_atom_site_disorder_assembly
_atom_site_disorder_group
As1 As -0.09517(4) 0.48504(3) 0.15347(2) 0.03070(8) Uani 1 1 d . . . . .
Cl1 Cl 0.15457(17) 0.37728(7) 0.04100(8) 0.0564(2) Uani 1 1 d . . . . .
N1 N 0.2992(4) 0.5005(2) 0.38523(19) 0.0305(5) Uani 1 1 d D . . . .
C11 C 0.1646(5) 0.58025(19) 0.1905(2) 0.0276(5) Uani 1 1 d . . . . .
C12 C 0.3254(4) 0.57271(19) 0.2939(2) 0.0263(5) Uani 1 1 d . . . . .
C13 C 0.5254(5) 0.6424(2) 0.3066(3) 0.0313(6) Uani 1 1 d . . . . .
H13 H 0.637250 0.637527 0.375589 0.038 Uiso 1 1 calc R U . . .
C14 C 0.5598(6) 0.7166(2) 0.2209(3) 0.0391(6) Uani 1 1 d . . . . .
H14 H 0.696935 0.762179 0.230016 0.047 Uiso 1 1 calc R U . . .
C15 C 0.3948(6) 0.7261(3) 0.1197(3) 0.0448(7) Uani 1 1 d . . . . .
H15 H 0.416279 0.778848 0.061109 0.054 Uiso 1 1 calc R U . . .
C16 C 0.2009(6) 0.6578(2) 0.1063(3) 0.0392(6) Uani 1 1 d . . . . .
H16 H 0.088926 0.664068 0.037469 0.047 Uiso 1 1 calc R U . . .
C21 C -0.0752(5) 0.41224(19) 0.3068(2) 0.0285(5) Uani 1 1 d . . . . .
C22 C 0.1151(5) 0.4282(2) 0.3951(2) 0.0294(5) Uani 1 1 d . . . . .
C23 C 0.1230(5) 0.3652(2) 0.5008(3) 0.0371(6) Uani 1 1 d . . . . .
H23 H 0.252429 0.374264 0.561185 0.045 Uiso 1 1 calc R U . . .
C24 C -0.0542(6) 0.2912(2) 0.5171(3) 0.0447(7) Uani 1 1 d . . . . .
H24 H -0.044685 0.249049 0.588250 0.054 Uiso 1 1 calc R U . . .
C25 C -0.2487(6) 0.2767(2) 0.4306(3) 0.0453(8) Uani 1 1 d . . . . .
H25 H -0.372825 0.226099 0.443029 0.054 Uiso 1 1 calc R U . . .
C26 C -0.2566(5) 0.3373(2) 0.3272(3) 0.0383(6) Uani 1 1 d . . . . .
H26 H -0.388363 0.328178 0.268040 0.046 Uiso 1 1 calc R U . . .
H1 H 0.405(5) 0.508(2) 0.438(2) 0.030(7) Uiso 1 1 d D . . . .
S3 S 0.8146(3) 0.55342(12) 0.67438(15) 0.0454(5) Uani 0.578(4) 1 d D . P A 1
O3 O 0.598(5) 0.5610(12) 0.5898(17) 0.060(3) Uani 0.578(4) 1 d D . P A 1
C31 C 0.7704(17) 0.6574(5) 0.7760(7) 0.069(2) Uani 0.578(4) 1 d D . P A 1
H31A H 0.801214 0.720047 0.730626 0.104 Uiso 0.578(4) 1 calc R U P A 1
H31B H 0.889156 0.652337 0.845900 0.104 Uiso 0.578(4) 1 calc R U P A 1
H31C H 0.596627 0.657015 0.807583 0.104 Uiso 0.578(4) 1 calc R U P A 1
C32 C 0.749(3) 0.4560(6) 0.7822(7) 0.109(4) Uani 0.578(4) 1 d D . P A 1
H32A H 0.731727 0.392078 0.737781 0.164 Uiso 0.578(4) 1 calc R U P A 1
H32B H 0.590680 0.471054 0.825928 0.164 Uiso 0.578(4) 1 calc R U P A 1
H32C H 0.887473 0.451193 0.842560 0.164 Uiso 0.578(4) 1 calc R U P A 1
S4 S 0.7087(5) 0.50598(18) 0.7137(2) 0.0537(9) Uani 0.422(4) 1 d D . P A 2
O4 O 0.605(7) 0.5364(18) 0.596(2) 0.060(3) Uani 0.422(4) 1 d D . P A 2
C41 C 0.9955(18) 0.5644(11) 0.7441(10) 0.089(4) Uani 0.422(4) 1 d D . P A 2
H41A H 1.118214 0.545731 0.679965 0.133 Uiso 0.422(4) 1 calc R U P A 2
H41B H 1.058349 0.543067 0.825761 0.133 Uiso 0.422(4) 1 calc R U P A 2
H41C H 0.971965 0.637488 0.743802 0.133 Uiso 0.422(4) 1 calc R U P A 2
C42 C 0.535(2) 0.5638(14) 0.8342(8) 0.094(5) Uani 0.422(4) 1 d D . P A 2
H42A H 0.471946 0.629117 0.805607 0.140 Uiso 0.422(4) 1 calc R U P A 2
H42B H 0.644969 0.573529 0.906740 0.140 Uiso 0.422(4) 1 calc R U P A 2
H42C H 0.391934 0.520852 0.857113 0.140 Uiso 0.422(4) 1 calc R U P A 2
loop_
_atom_site_aniso_label
_atom_site_aniso_U_11
_atom_site_aniso_U_22
_atom_site_aniso_U_33
_atom_site_aniso_U_23
_atom_site_aniso_U_13
_atom_site_aniso_U_12
As1 0.02820(12) 0.03533(14) 0.02854(12) -0.00296(13) -0.00555(8) -0.00134(13)
Cl1 0.0640(5) 0.0530(5) 0.0523(4) -0.0248(4) 0.0138(4) -0.0031(4)
N1 0.0289(9) 0.0331(15) 0.0294(9) 0.0018(10) -0.0073(8) -0.0047(10)
C11 0.0274(11) 0.0262(13) 0.0293(12) -0.0033(10) -0.0005(10) 0.0020(10)
C12 0.0259(11) 0.0260(13) 0.0271(11) -0.0035(9) 0.0020(9) 0.0037(9)
C13 0.0279(12) 0.0342(15) 0.0316(13) -0.0061(11) -0.0011(11) -0.0011(11)
C14 0.0374(14) 0.0334(15) 0.0465(16) -0.0023(13) 0.0029(12) -0.0076(12)
C15 0.0513(18) 0.0400(17) 0.0430(15) 0.0112(13) -0.0002(13) -0.0083(14)
C16 0.0454(16) 0.0388(16) 0.0333(14) 0.0047(12) -0.0008(12) 0.0020(13)
C21 0.0245(11) 0.0274(13) 0.0337(12) -0.0011(10) 0.0008(10) 0.0016(10)
C22 0.0268(12) 0.0290(13) 0.0324(13) -0.0005(10) 0.0029(10) 0.0031(10)
C23 0.0356(14) 0.0401(17) 0.0356(13) 0.0062(12) -0.0013(11) 0.0017(12)
C24 0.0443(17) 0.0433(18) 0.0466(17) 0.0145(14) 0.0042(14) 0.0001(14)
C25 0.0379(16) 0.0387(17) 0.059(2) 0.0092(14) 0.0045(15) -0.0095(13)
C26 0.0322(13) 0.0369(16) 0.0457(16) -0.0004(12) -0.0009(12) -0.0035(12)
S3 0.0501(9) 0.0404(9) 0.0458(8) 0.0011(7) -0.0113(7) -0.0011(7)
O3 0.088(2) 0.044(8) 0.049(2) -0.009(4) -0.0384(17) 0.016(6)
C31 0.099(6) 0.044(4) 0.065(4) -0.020(3) -0.034(4) 0.011(4)
C32 0.226(14) 0.052(5) 0.050(4) 0.022(3) -0.015(6) 0.012(6)
S4 0.0661(13) 0.0532(19) 0.0417(11) 0.0095(11) -0.0127(9) -0.0111(12)
O4 0.088(2) 0.044(8) 0.049(2) -0.009(4) -0.0384(17) 0.016(6)
C41 0.049(5) 0.150(13) 0.067(6) -0.016(7) -0.015(5) -0.016(7)
C42 0.055(5) 0.183(16) 0.043(5) 0.012(7) 0.001(4) 0.011(8)
loop_
_atom_type_symbol
_atom_type_description
_atom_type_scat_dispersion_real
_atom_type_scat_dispersion_imag
_atom_type_scat_source
C C 0.0033 0.0016 'International Tables Vol C Tables 4.2.6.8 and 6.1.1.4'
H H 0.0000 0.0000 'International Tables Vol C Tables 4.2.6.8 and 6.1.1.4'
As As 0.0499 2.0058 'International Tables Vol C Tables 4.2.6.8 and 6.1.1.4'
Cl Cl 0.1484 0.1585 'International Tables Vol C Tables 4.2.6.8 and 6.1.1.4'
N N 0.0061 0.0033 'International Tables Vol C Tables 4.2.6.8 and 6.1.1.4'
O O 0.0106 0.0060 'International Tables Vol C Tables 4.2.6.8 and 6.1.1.4'
S S 0.1246 0.1234 'International Tables Vol C Tables 4.2.6.8 and 6.1.1.4'
loop_
_geom_angle_atom_site_label_1
_geom_angle_atom_site_label_2
_geom_angle_atom_site_label_3
_geom_angle
_geom_angle_site_symmetry_1
_geom_angle_site_symmetry_3
C11 As1 C21 96.76(11) . .
C11 As1 Cl1 96.32(8) . .
C21 As1 Cl1 96.14(8) . .
C22 N1 C12 127.9(2) . .
C22 N1 H1 121(2) . .
C12 N1 H1 111(2) . .
C16 C11 C12 119.1(2) . .
C16 C11 As1 117.3(2) . .
C12 C11 As1 123.53(19) . .
N1 C12 C11 123.5(2) . .
N1 C12 C13 117.7(2) . .
C11 C12 C13 118.8(2) . .
C14 C13 C12 120.8(3) . .
C14 C13 H13 119.6 . .
C12 C13 H13 119.6 . .
C13 C14 C15 120.5(3) . .
C13 C14 H14 119.7 . .
C15 C14 H14 119.7 . .
C16 C15 C14 119.0(3) . .
C16 C15 H15 120.5 . .
C14 C15 H15 120.5 . .
C15 C16 C11 121.8(3) . .
C15 C16 H16 119.1 . .
C11 C16 H16 119.1 . .
C22 C21 C26 119.5(2) . .
C22 C21 As1 123.14(19) . .
C26 C21 As1 117.3(2) . .
N1 C22 C21 124.2(2) . .
N1 C22 C23 117.3(2) . .
C21 C22 C23 118.5(2) . .
C24 C23 C22 120.7(3) . .
C24 C23 H23 119.7 . .
C22 C23 H23 119.7 . .
C23 C24 C25 121.0(3) . .
C23 C24 H24 119.5 . .
C25 C24 H24 119.5 . .
C26 C25 C24 118.6(3) . .
C26 C25 H25 120.7 . .
C24 C25 H25 120.7 . .
C25 C26 C21 121.7(3) . .
C25 C26 H26 119.2 . .
C21 C26 H26 119.2 . .
O3 S3 C32 107.6(10) . .
O3 S3 C31 103.0(8) . .
C32 S3 C31 98.0(4) . .
S3 C31 H31A 109.5 . .
S3 C31 H31B 109.5 . .
H31A C31 H31B 109.5 . .
S3 C31 H31C 109.5 . .
H31A C31 H31C 109.5 . .
H31B C31 H31C 109.5 . .
S3 C32 H32A 109.5 . .
S3 C32 H32B 109.5 . .
H32A C32 H32B 109.5 . .
S3 C32 H32C 109.5 . .
H32A C32 H32C 109.5 . .
H32B C32 H32C 109.5 . .
O4 S4 C41 111.8(16) . .
O4 S4 C42 109.0(15) . .
C41 S4 C42 97.0(6) . .
S4 C41 H41A 109.5 . .
S4 C41 H41B 109.5 . .
H41A C41 H41B 109.5 . .
S4 C41 H41C 109.5 . .
H41A C41 H41C 109.5 . .
H41B C41 H41C 109.5 . .
S4 C42 H42A 109.5 . .
S4 C42 H42B 109.5 . .
H42A C42 H42B 109.5 . .
S4 C42 H42C 109.5 . .
H42A C42 H42C 109.5 . .
H42B C42 H42C 109.5 . .
loop_
_geom_bond_atom_site_label_1
_geom_bond_atom_site_label_2
_geom_bond_distance
_geom_bond_site_symmetry_2
As1 C11 1.909(3) .
As1 C21 1.915(3) .
As1 Cl1 2.2950(8) .
N1 C22 1.373(4) .
N1 C12 1.381(3) .
N1 H1 0.80(2) .
C11 C16 1.387(4) .
C11 C12 1.401(3) .
C12 C13 1.413(4) .
C13 C14 1.362(4) .
C13 H13 0.9500 .
C14 C15 1.399(4) .
C14 H14 0.9500 .
C15 C16 1.377(4) .
C15 H15 0.9500 .
C16 H16 0.9500 .
C21 C22 1.398(4) .
C21 C26 1.401(4) .
C22 C23 1.412(4) .
C23 C24 1.370(4) .
C23 H23 0.9500 .
C24 C25 1.398(5) .
C24 H24 0.9500 .
C25 C26 1.374(5) .
C25 H25 0.9500 .
C26 H26 0.9500 .
S3 O3 1.463(14) .
S3 C32 1.774(8) .
S3 C31 1.778(6) .
C31 H31A 0.9800 .
C31 H31B 0.9800 .
C31 H31C 0.9800 .
C32 H32A 0.9800 .
C32 H32B 0.9800 .
C32 H32C 0.9800 .
S4 O4 1.433(15) .
S4 C41 1.734(10) .
S4 C42 1.766(11) .
C41 H41A 0.9800 .
C41 H41B 0.9800 .
C41 H41C 0.9800 .
C42 H42A 0.9800 .
C42 H42B 0.9800 .
C42 H42C 0.9800 .
loop_
_geom_hbond_atom_site_label_D
_geom_hbond_atom_site_label_H
_geom_hbond_atom_site_label_A
_geom_hbond_distance_DH
_geom_hbond_distance_HA
_geom_hbond_distance_DA
_geom_hbond_angle_DHA
_geom_hbond_site_symmetry_A
N1 H1 O3 0.80(2) 2.05(3) 2.822(13) 162(3) .
C31 H31A <i>C<i>~g~(1) 0.98 2.72 3.643(7) 156 2_656
loop_
_geom_torsion_atom_site_label_1
_geom_torsion_atom_site_label_2
_geom_torsion_atom_site_label_3
_geom_torsion_atom_site_label_4
_geom_torsion
_geom_torsion_site_symmetry_1
_geom_torsion_site_symmetry_2
_geom_torsion_site_symmetry_3
_geom_torsion_site_symmetry_4
C22 N1 C12 C11 -2.6(4) . . . .
C22 N1 C12 C13 177.2(2) . . . .
C16 C11 C12 N1 177.6(2) . . . .
As1 C11 C12 N1 -5.6(3) . . . .
C16 C11 C12 C13 -2.3(3) . . . .
As1 C11 C12 C13 174.52(19) . . . .
N1 C12 C13 C14 -179.0(2) . . . .
C11 C12 C13 C14 0.9(4) . . . .
C12 C13 C14 C15 1.1(4) . . . .
C13 C14 C15 C16 -1.6(5) . . . .
C14 C15 C16 C11 0.2(5) . . . .
C12 C11 C16 C15 1.8(4) . . . .
As1 C11 C16 C15 -175.2(2) . . . .
C12 N1 C22 C21 3.8(4) . . . .
C12 N1 C22 C23 -177.3(2) . . . .
C26 C21 C22 N1 -178.9(3) . . . .
As1 C21 C22 N1 3.5(4) . . . .
C26 C21 C22 C23 2.2(4) . . . .
As1 C21 C22 C23 -175.4(2) . . . .
N1 C22 C23 C24 -179.9(3) . . . .
C21 C22 C23 C24 -0.9(4) . . . .
C22 C23 C24 C25 -0.7(5) . . . .
C23 C24 C25 C26 1.1(5) . . . .
C24 C25 C26 C21 0.2(4) . . . .
C22 C21 C26 C25 -1.9(4) . . . .
As1 C21 C26 C25 175.8(2) . . . .
