#------------------------------------------------------------------------------
#$Date: 2022-02-22 12:35:21 +0200 (Tue, 22 Feb 2022) $
#$Revision: 273105 $
#$URL: file:///home/coder/svn-repositories/cod/cif/8/10/46/8104601.cif $
#------------------------------------------------------------------------------
#
# This file is available in the Crystallography Open Database (COD),
# http://www.crystallography.net/
#
# All data on this site have been placed in the public domain by the
# contributors.
#
data_8104601
loop_
_publ_author_name
'Deng, Zu-Shuai'
'Luo, Peng'
'Pan, Wei-Gao'
_publ_section_title
;
 Crystal structure of 2-chloro-3-(isopentylamino)naphthalene-1,4-dione, C
 15 H 16 ClNO 2
;
_journal_issue                   6
_journal_name_full
'Zeitschrift f\"ur Kristallographie - New Crystal Structures'
_journal_page_first              1337
_journal_page_last               1339
_journal_paper_doi               10.1515/ncrs-2021-0333
_journal_volume                  236
_journal_year                    2021
_chemical_formula_sum            'C15 H16 Cl N O2'
_chemical_formula_weight         277.74
_space_group_crystal_system      triclinic
_space_group_IT_number           2
_space_group_name_Hall           '-P 1'
_space_group_name_H-M_alt        'P -1'
_atom_sites_solution_hydrogens   mixed
_cell_angle_alpha                108.804(6)
_cell_angle_beta                 93.672(5)
_cell_angle_gamma                94.373(6)
_cell_formula_units_Z            2
_cell_length_a                   7.4339(12)
_cell_length_b                   8.2564(14)
_cell_length_c                   12.184(2)
_cell_measurement_reflns_used    5640
_cell_measurement_temperature    273(2)
_cell_measurement_theta_max      26.86
_cell_measurement_theta_min      3.14
_cell_volume                     702.7(2)
_computing_cell_refinement       'Bruker SAINT[1]'
_computing_data_collection       'Bruker APEX3[1]'
_computing_data_reduction        'Bruker SAINT[1]'
_computing_molecular_graphics    'SHELXS-97 (Sheldrick, 2008)[2]'
_computing_publication_material  'SHELXL-2014/7 (Sheldrick, 2014)[3]'
_computing_structure_refinement  'SHELXL-2014/7 (Sheldrick, 2014)'
_computing_structure_solution    'SHELXS-97 (Sheldrick, 2008)[2]'
_diffrn_ambient_temperature      273(2)
_diffrn_measured_fraction_theta_full 0.998
_diffrn_measured_fraction_theta_max 0.993
_diffrn_measurement_device_type  'CCD area detector'
_diffrn_measurement_method       'phi and omega scans'
_diffrn_radiation_type           MoK\a
_diffrn_radiation_wavelength     0.71073
_diffrn_reflns_av_R_equivalents  0.0571
_diffrn_reflns_av_unetI/netI     0.0496
_diffrn_reflns_Laue_measured_fraction_full 0.998
_diffrn_reflns_Laue_measured_fraction_max 0.993
_diffrn_reflns_limit_h_max       9
_diffrn_reflns_limit_h_min       -9
_diffrn_reflns_limit_k_max       10
_diffrn_reflns_limit_k_min       -10
_diffrn_reflns_limit_l_max       15
_diffrn_reflns_limit_l_min       -15
_diffrn_reflns_number            14672
_diffrn_reflns_point_group_measured_fraction_full 0.998
_diffrn_reflns_point_group_measured_fraction_max 0.993
_diffrn_reflns_theta_full        25.242
_diffrn_reflns_theta_max         27.549
_diffrn_reflns_theta_min         3.138
_diffrn_source                   'fine-focus sealed tube'
_exptl_absorpt_coefficient_mu    0.269
_exptl_absorpt_correction_T_max  0.9720
_exptl_absorpt_correction_T_min  0.8831
_exptl_absorpt_correction_type   none
_exptl_crystal_colour            red
_exptl_crystal_density_diffrn    1.313
_exptl_crystal_density_method    'not measured'
_exptl_crystal_description       needle
_exptl_crystal_F_000             292
_exptl_crystal_size_max          0.474
_exptl_crystal_size_mid          0.115
_exptl_crystal_size_min          0.106
_refine_diff_density_max         0.548
_refine_diff_density_min         -0.290
_refine_diff_density_rms         0.074
_refine_ls_extinction_coef       .
_refine_ls_extinction_method     none
_refine_ls_goodness_of_fit_ref   1.020
_refine_ls_hydrogen_treatment    mixed
_refine_ls_matrix_type           full
_refine_ls_number_parameters     178
_refine_ls_number_reflns         3219
_refine_ls_number_restraints     0
_refine_ls_restrained_S_all      1.020
_refine_ls_R_factor_all          0.1033
_refine_ls_R_factor_gt           0.0650
_refine_ls_shift/su_max          0.000
_refine_ls_shift/su_mean         0.000
_refine_ls_structure_factor_coef Fsqd
_refine_ls_weighting_details
'w=1/[\s^2^(Fo^2^)+(0.1212P)^2^+0.0904P] where P=(Fo^2^+2Fc^2^)/3'
_refine_ls_weighting_scheme      calc
_refine_ls_wR_factor_gt          0.1719
_refine_ls_wR_factor_ref         0.1974
_reflns_Friedel_coverage         0.000
_reflns_Friedel_fraction_full    .
_reflns_Friedel_fraction_max     .
_reflns_number_gt                2111
_reflns_number_total             3219
_reflns_threshold_expression     'I > 2\s(I)'
_cod_data_source_file            suppl_j_ncrs-2021-0333_suppl.cif
_cod_data_source_block           44
_cod_original_cell_volume        702.8(2)
_cod_database_code               8104601
_shelx_space_group_comment
;
The symmetry employed for this shelxl refinement is uniquely defined
by the following loop, which should always be used as a source of
symmetry information in preference to the above space-group names.
They are only intended as comments.
;
_shelx_estimated_absorpt_t_min   0.883
_shelx_estimated_absorpt_t_max   0.972
_shelx_res_file
;

    44.res created by SHELXL-2014/7

TITL 44 in P-1
CELL 0.71073   7.4339   8.2564  12.1845 108.804  93.672  94.373
ZERR    2.00   0.0012   0.0014   0.0020   0.006   0.005   0.006
LATT 1
SFAC C  H  N  O  Cl
UNIT 30 32 2 4 2
L.S. 20
ACTA
BOND $H
FMAP 2
PLAN 20
SIZE 0.106 0.115 0.474
HTAB
CONF
HTAB C11 Cl1
HTAB C12 Cl1
EQIV $1 x-1, y, z
HTAB N1 O1_$1
HTAB N1 O2
FREE C3   H16
TEMP 0
WGHT    0.121200    0.090400
FVAR       0.33533
MOLE 1
C1    1    0.295053    0.248200    0.909981    11.00000    0.03851    0.05439 =
         0.05175    0.01049    0.00032    0.00966
C2    1    0.443725    0.302161    0.854962    11.00000    0.03743    0.05054 =
         0.03955    0.00952   -0.00395    0.00977
C3    1    0.621781    0.322638    0.899862    11.00000    0.03314    0.04403 =
         0.03893    0.00517   -0.00033    0.00829
C4    1    0.662950    0.293933    1.015005    11.00000    0.03763    0.05040 =
         0.04040    0.00443   -0.00152    0.01188
C5    1    0.514357    0.229584    1.069649    11.00000    0.04792    0.04401 =
         0.04081    0.00663    0.00205    0.01086
C6    1    0.549683    0.187125    1.169685    11.00000    0.06497    0.06113 =
         0.04647    0.01280   -0.00147    0.00983
AFIX  43
H6    2    0.668090    0.200884    1.203411    11.00000   -1.20000
AFIX   0
C7    1    0.410713    0.124695    1.219532    11.00000    0.09033    0.05994 =
         0.05336    0.02079    0.01336    0.01154
AFIX  43
H7    2    0.435534    0.095205    1.286039    11.00000   -1.20000
AFIX   0
C8    1    0.235246    0.106220    1.170484    11.00000    0.07575    0.05501 =
         0.06774    0.01726    0.02189    0.00377
AFIX  43
H8    2    0.141538    0.063589    1.203801    11.00000   -1.20000
AFIX   0
C9    1    0.197505    0.150563    1.072176    11.00000    0.04976    0.04942 =
         0.06624    0.01064    0.01005    0.00378
AFIX  43
H9    2    0.078122    0.140553    1.040895    11.00000   -1.20000
AFIX   0
C10   1    0.336504    0.210086    1.019506    11.00000    0.04197    0.03780 =
         0.04900    0.00498    0.00430    0.00690
C11   1    0.804778    0.415739    0.756789    11.00000    0.04195    0.05746 =
         0.04735    0.01394    0.00279    0.00090
AFIX  23
H11A  2    0.912894    0.496585    0.774750    11.00000   -1.20000
H11B  2    0.703706    0.474678    0.740333    11.00000   -1.20000
AFIX   0
C12   1    0.827322    0.267591    0.649139    11.00000    0.05639    0.05895 =
         0.04899    0.01658    0.00422    0.01442
AFIX  23
H12A  2    0.717983    0.188115    0.629271    11.00000   -1.20000
H12B  2    0.926688    0.206701    0.665550    11.00000   -1.20000
AFIX   0
C13   1    0.864915    0.325705    0.545322    11.00000    0.07365    0.07979 =
         0.05330    0.02774    0.01219    0.02384
AFIX  13
H13   2    0.966703    0.416092    0.570969    11.00000   -1.20000
AFIX   0
C14   1    0.705023    0.403828    0.506059    11.00000    0.10638    0.12237 =
         0.06880    0.04911    0.00366    0.04145
AFIX 137
H14A  2    0.599637    0.321687    0.486806    11.00000   -1.50000
H14B  2    0.731703    0.434402    0.438783    11.00000   -1.50000
H14C  2    0.682532    0.504840    0.567739    11.00000   -1.50000
AFIX   0
C15   1    0.920804    0.184069    0.445934    11.00000    0.17508    0.13769 =
         0.06336    0.03891    0.04997    0.08100
AFIX 137
H15A  2    0.941242    0.225623    0.382253    11.00000   -1.50000
H15B  2    0.826714    0.090088    0.421500    11.00000   -1.50000
H15C  2    1.030368    0.145489    0.470187    11.00000   -1.50000
AFIX   0
CL1   5    0.378778    0.327352    0.722369    11.00000    0.04695    0.10256 =
         0.05143    0.02985   -0.00813    0.00898
N1    3    0.773322    0.365976    0.858554    11.00000    0.03244    0.07694 =
         0.04385    0.01704   -0.00193    0.00617
O1    4    0.137177    0.229605    0.867724    11.00000    0.03251    0.11747 =
         0.07698    0.03832   -0.00646    0.00595
O2    4    0.817923    0.323506    1.059787    11.00000    0.03688    0.10303 =
         0.05052    0.02090   -0.00526    0.01287
H16   2    0.860499    0.359302    0.898923    11.00000    0.06064
HKLF 4

REM  44 in P-1
REM R1 =  0.0650 for    2111 Fo > 4sig(Fo)  and  0.1033 for all    3219 data
REM    178 parameters refined using      0 restraints

END

WGHT      0.1212      0.0904

REM Instructions for potential hydrogen bonds
HTAB C11 Cl1
HTAB C12 Cl1
EQIV $2 x+1, y, z
HTAB N1 O1_$2
HTAB N1 O2

REM Highest difference peak  0.548,  deepest hole -0.290,  1-sigma level  0.074
Q1    1   0.3831  0.1901  0.7237  11.00000  0.05    0.55
Q2    1   0.3813  0.5165  0.7215  11.00000  0.05    0.51
Q3    1   0.7779  0.2025  0.8547  11.00000  0.05    0.28
Q4    1   0.7726  0.6320  0.8430  11.00000  0.05    0.27
Q5    1   0.2226 -0.1222  1.1588  11.00000  0.05    0.27
Q6    1   0.1859  0.3343  0.9400  11.00000  0.05    0.27
Q7    1   0.3320  0.4495  1.0020  11.00000  0.05    0.27
Q8    1   0.5530 -0.0507  1.1553  11.00000  0.05    0.27
Q9    1   0.8256  0.5184  1.0645  11.00000  0.05    0.26
Q10   1   0.4412  0.1686  0.8364  11.00000  0.05    0.24
Q11   1   0.3305 -0.0050  0.9996  11.00000  0.05    0.23
Q12   1   0.8100  0.1608  1.0607  11.00000  0.05    0.23
Q13   1   0.2227  0.2185  1.1538  11.00000  0.05    0.23
Q14   1   0.1340  0.0524  0.8684  11.00000  0.05    0.23
Q15   1   0.1364  0.4069  0.8635  11.00000  0.05    0.23
Q16   1   0.1843  0.0051  0.9369  11.00000  0.05    0.22
Q17   1   0.4579  0.5037  0.8401  11.00000  0.05    0.22
Q18   1   0.8607  0.3553  1.1388  11.00000  0.05    0.22
Q19   1   0.8598  0.4597  1.1375  11.00000  0.05    0.22
Q20   1   0.5097  0.4384  1.0739  11.00000  0.05    0.21
;
_shelx_hkl_file
;
  -2   0   0  206.90   10.76
  -2   0   0  188.99   10.77
  -2   0   0  215.67   10.77
  -2   0   0  175.57   10.76
   2   0   0  186.40   10.76
   2   0   0  194.93   10.75
   2   0   0  167.70   10.76
  -3   0   0   34.76    1.85
  -3   0   0   30.95    1.83
   3   0   0   31.88    1.82
   3   0   0   31.09    1.85
   3   0   0   31.74    1.82
   3   0   0   30.42    1.83
  -4   0   0   67.65    4.10
  -4   0   0   75.16    4.09
  -4   0   0   73.33    4.09
  -4   0   0   71.19    4.07
   4   0   0   70.55    4.07
   4   0   0   68.87    4.05
   4   0   0   71.34    4.06
   4   0   0   73.41    4.11
  -5   0   0   34.25    1.93
  -5   0   0   31.56    1.93
  -5   0   0   32.08    1.94
  -5   0   0   31.03    1.90
   5   0   0   32.86    1.88
   5   0   0   33.74    1.89
   5   0   0   33.03    1.90
   5   0   0   31.02    1.95
  -6   0   0    7.22    0.58
  -6   0   0    7.33    0.55
  -6   0   0    6.11    0.61
   6   0   0    7.40    0.64
   6   0   0    7.12    0.52
   6   0   0    6.32    0.49
  -7   0   0    3.53    0.44
  -7   0   0    2.92    0.40
  -7   0   0    2.50    0.35
   7   0   0    2.81    0.46
   7   0   0    3.30    0.37
   7   0   0    2.73    0.30
  -8   0   0    0.48    0.37
  -8   0   0    0.78    0.34
   8   0   0    0.73    0.45
   8   0   0    0.45    0.22
  -9   0   0   -0.25    0.44
  -9   0   0    0.61    0.47
   9   0   0   -1.35    0.60
   9  -1   0    1.48    0.66
  -9   1   0    0.13    0.43
  -9   1   0    1.27    0.58
   8  -1   0    0.84    0.50
  -8   1   0    0.30    0.29
  -8   1   0   -0.16    0.47
   7  -1   0    1.97    0.38
  -7   1   0    1.88    0.29
  -7   1   0    2.04    0.41
  -7   1   0    0.63    0.45
  -6   1   0    0.69    0.29
   5  -1   0   14.07    0.86
   5  -1   0   15.27    0.84
   5  -1   0   14.67    0.97
   5  -1   0   14.99    0.97
  -5   1   0   13.85    0.93
  -5   1   0   14.21    0.96
  -5   1   0   12.97    0.95
  -5   1   0   15.14    0.90
   4  -1   0   21.12    1.19
   4  -1   0   22.55    1.24
   4  -1   0   20.45    1.28
   4  -1   0   21.63    1.19
  -4   1   0   20.01    1.27
  -4   1   0   19.90    1.23
  -4   1   0   18.91    1.26
  -4   1   0   22.45    1.29
   3  -1   0    6.18    0.44
   3  -1   0    6.38    0.40
  -3   1   0    6.04    0.43
  -3   1   0    5.89    0.39
  -3   1   0    5.72    0.43
  -3   1   0    6.40    0.44
   2  -1   0   31.59    2.10
   2  -1   0   36.09    2.08
   2  -1   0   38.33    2.10
  -2   1   0   35.40    2.07
  -2   1   0   36.12    2.09
  -2   1   0   41.03    2.11
   1  -1   0    0.34    0.05
   1  -1   0    0.34    0.06
   1  -1   0    0.17    0.05
  -1   1   0    0.16    0.03
  -1   1   0    0.37    0.06
  -1   1   0    0.27    0.04
  -1  -1   0   10.69    0.67
  -1  -1   0   10.85    0.68
  -1  -1   0   12.66    0.68
   1   1   0   11.55    0.66
  -2  -1   0  230.41   14.10
  -2  -1   0  241.56   14.13
  -2  -1   0  274.85   14.14
  -2  -1   0  273.05   14.12
   2   1   0  279.75   14.13
   2   1   0  222.17   14.10
   2   1   0  232.36   14.11
  -3  -1   0   33.34    2.00
  -3  -1   0   33.96    2.00
  -3  -1   0   36.75    2.02
  -3  -1   0   33.51    2.03
   3   1   0   33.86    2.04
   3   1   0   38.37    2.03
   4   1   0    0.45    0.14
  -5  -1   0    0.84    0.18
  -5  -1   0    0.15    0.18
   5   1   0    0.63    0.22
  -6  -1   0    0.15    0.23
   6   1   0    0.23    0.31
  -7  -1   0    9.08    0.66
  -7  -1   0    8.44    0.67
  -7  -1   0    8.62    0.73
   7   1   0    8.65    0.71
   7   1   0    9.11    0.84
   7   1   0    8.07    0.64
  -8  -1   0    2.22    0.37
  -8  -1   0    2.49    0.50
   8   1   0    2.52    0.53
   8   1   0    1.99    0.36
  -9  -1   0   -0.17    0.50
   9   1   0    0.35    0.65
   9  -2   0    0.20    0.68
  -9   2   0   -0.37    0.40
  -9   2   0    0.68    0.61
   8  -2   0    0.54    0.52
  -8   2   0    1.43    0.35
  -8   2   0    0.84    0.48
   7  -2   0    2.28    0.48
  -7   2   0    2.18    0.29
  -7   2   0    2.71    0.51
   6  -2   0    4.04    0.54
  -6   2   0    2.83    0.36
  -6   2   0    3.44    0.45
  -6   2   0    4.63    0.54
   5  -2   0    2.56    0.35
   5  -2   0    1.96    0.24
  -5   2   0    1.84    0.33
  -5   2   0    1.60    0.24
  -5   2   0    2.45    0.34
  -5   2   0    1.95    0.25
   4  -2   0   10.13    0.71
   4  -2   0    9.87    0.66
  -4   2   0   10.55    0.65
  -4   2   0   10.88    0.73
  -4   2   0    9.75    0.69
  -4   2   0   10.78    0.72
   3  -2   0   47.98    2.67
   3  -2   0   47.90    2.69
  -3   2   0   45.36    2.74
  -3   2   0   45.15    2.65
  -3   2   0   45.24    2.69
   2  -2   0   69.77    3.99
   2  -2   0   73.60    4.01
  -2   2   0   66.94    4.01
  -2   2   0   74.61    4.02
  -2   2   0   68.94    3.96
  -2   2   0   66.28    3.98
  -2   2   0   71.02    4.00
   1  -2   0  510.53   30.07
   1  -2   0  532.28   30.08
  -1   2   0  544.72   30.08
  -1   2   0  503.77   30.07
  -1   2   0  565.68   30.09
  -1   2   0  548.56   30.08
  -1  -2   0   89.41    5.03
  -1  -2   0   88.35    5.04
  -1  -2   0   85.88    5.04
   1   2   0   89.14    5.02
   1   2   0   93.29    5.04
   1   2   0   90.75    5.00
   1   2   0   83.50    5.00
   1   2   0   89.66    5.04
  -2  -2   0   73.23    4.17
  -2  -2   0   65.81    4.17
  -2  -2   0   72.31    4.16
   2   2   0   80.53    4.18
   2   2   0   70.83    4.15
   2   2   0   75.64    4.17
  -3  -2   0   70.96    4.14
  -3  -2   0   69.72    4.03
  -3  -2   0   76.58    4.09
  -3  -2   0   67.60    4.10
   3   2   0   73.78    4.07
   3   2   0   70.03    4.10
  -4  -2   0   64.01    3.64
  -4  -2   0   59.78    3.58
  -4  -2   0   58.85    3.58
  -4  -2   0   61.10    3.67
   4   2   0   68.50    3.68
   4   2   0   63.36    3.65
   4   2   0   61.71    3.62
   4   2   0   69.93    3.67
  -5  -2   0    0.18    0.18
  -5  -2   0    0.11    0.25
  -5  -2   0    0.36    0.11
   5   2   0    0.09    0.21
   5   2   0    0.16    0.13
   5   2   0    0.31    0.19
   5   2   0    0.24    0.23
  -6  -2   0    9.34    0.73
  -6  -2   0    9.48    0.62
  -6  -2   0    8.48    0.61
   6   2   0   10.48    0.81
   6   2   0   10.14    0.79
  -7  -2   0    1.37    0.23
  -7  -2   0    1.08    0.35
  -7  -2   0    1.54    0.22
   7   2   0    1.86    0.47
   7   2   0    2.28    0.40
   7   2   0    0.84    0.31
  -8  -2   0    0.27    0.37
   8   2   0    0.15    0.41
   8   2   0    0.21    0.51
  -9  -2   0    0.61    0.51
   9   2   0    0.48    0.65
   9  -3   0    1.61    0.69
  -9   3   0    1.16    0.70
  -9   3   0    0.08    0.45
   8  -3   0   -0.09    0.52
  -8   3   0    1.01    0.35
  -8   3   0    1.38    0.57
   7  -3   0    0.51    0.40
  -7   3   0    1.10    0.45
  -7   3   0    0.85    0.27
   6  -3   0    3.22    0.49
  -6   3   0    2.75    0.35
  -6   3   0    2.79    0.49
   5  -3   0   29.40    1.67
   5  -3   0   24.92    1.59
  -5   3   0   25.84    1.66
  -5   3   0   24.36    1.65
  -5   3   0   27.58    1.63
  -5   3   0   26.86    1.57
   4  -3   0   56.40    3.40
   4  -3   0   58.75    3.44
  -4   3   0   58.49    3.45
  -4   3   0   56.95    3.37
  -4   3   0   58.34    3.45
  -4   3   0   64.92    3.43
   3  -3   0   18.11    1.06
   3  -3   0   17.36    1.09
  -3   3   0   17.35    1.10
  -3   3   0   17.41    1.04
  -3   3   0   16.61    1.07
  -3   3   0   17.46    1.00
  -3   3   0   17.83    1.01
  -3   3   0   16.62    1.10
   2  -3   0   11.91    0.71
   2  -3   0   10.96    0.73
   2  -3   0   11.60    0.68
  -2   3   0   10.90    0.69
  -2   3   0   10.67    0.73
  -2   3   0   11.88    0.73
  -2   3   0   10.94    0.67
   1  -3   0   53.24    3.02
   1  -3   0   52.25    3.04
  -1   3   0   53.19    3.04
  -1   3   0   53.60    3.03
  -1   3   0   50.86    3.02
  -1   3   0   53.02    3.01
  -1   3   0   52.07    3.03
  -1   3   0   53.10    3.01
   0  -3   0   38.33    2.18
   0  -3   0   36.88    2.16
   0   3   0   37.32    2.16
   0   3   0   37.64    2.16
   0   3   0   38.05    2.19
   0   3   0   37.37    2.16
   0   3   0   38.77    2.19
   0   3   0   36.05    2.17
  -1  -3   0    0.54    0.11
  -1  -3   0    0.40    0.13
  -1  -3   0    0.49    0.13
   1   3   0    0.52    0.07
   1   3   0    0.55    0.14
   1   3   0    0.85    0.13
   1   3   0    0.50    0.17
   1   3   0    0.59    0.09
  -2  -3   0    6.86    0.46
  -2  -3   0    6.63    0.49
  -2  -3   0    6.11    0.50
   2   3   0    6.98    0.51
   2   3   0    6.85    0.49
  -3  -3   0   -0.02    0.16
  -3  -3   0    0.06    0.13
  -3  -3   0   -0.10    0.16
   3   3   0    0.02    0.10
   3   3   0    0.26    0.15
   3   3   0    0.03    0.14
  -4  -3   0    8.20    0.61
  -4  -3   0    7.19    0.63
   4   3   0    8.80    0.65
   4   3   0    9.19    0.56
   4   3   0    8.16    0.62
  -5  -3   0    6.92    0.61
   5   3   0    7.99    0.63
   5   3   0    8.05    0.67
   5   3   0    7.89    0.68
  -6  -3   0    0.28    0.26
   6   3   0    0.75    0.35
   6   3   0    0.67    0.37
  -7  -3   0    0.87    0.38
   7   3   0    0.84    0.45
   7   3   0    1.43    0.49
  -8  -3   0    1.13    0.48
   8   3   0    1.63    0.59
   8   3   0    2.11    0.59
   9  -4   0   -0.24    0.69
  -9   4   0    0.48    0.74
  -9   4   0   -0.15    0.44
   8  -4   0    0.42    0.58
  -8   4   0    0.12    0.33
  -8   4   0    0.17    0.59
   7  -4   0    0.05    0.45
  -7   4   0    0.88    0.50
  -7   4   0   -0.08    0.27
   6  -4   0    4.47    0.64
  -6   4   0    5.61    0.49
  -6   4   0    5.47    0.72
   5  -4   0    0.15    0.28
   5  -4   0    0.21    0.22
  -5   4   0    0.30    0.33
  -5   4   0    0.19    0.16
   4  -4   0    1.27    0.23
   4  -4   0    1.32    0.30
  -4   4   0    0.95    0.11
  -4   4   0    0.78    0.22
  -4   4   0    1.00    0.28
  -4   4   0    1.03    0.17
  -4   4   0    1.10    0.45
  -4   4   0    1.17    0.14
   3  -4   0   12.67    0.87
   3  -4   0   12.94    0.83
  -3   4   0   13.36    0.79
  -3   4   0   12.60    0.77
  -3   4   0   13.12    0.80
  -3   4   0   12.35    0.84
  -3   4   0   12.86    0.88
  -3   4   0   12.55    0.89
   2  -4   0    3.59    0.36
   2  -4   0    3.54    0.32
  -2   4   0    3.54    0.31
  -2   4   0    3.75    0.37
  -2   4   0    3.99    0.38
  -2   4   0    4.06    0.31
  -2   4   0    3.71    0.36
   1  -4   0    2.02    0.27
   1  -4   0    1.68    0.25
  -1   4   0    2.94    0.29
  -1   4   0    2.64    0.24
  -1   4   0    2.13    0.28
  -1   4   0    2.10    0.25
  -1   4   0    1.81    0.25
   0  -4   0    5.53    0.44
   0  -4   0    5.29    0.40
   0   4   0    5.43    0.43
   0   4   0    5.17    0.40
   0   4   0    5.43    0.40
   0   4   0    5.68    0.45
   0   4   0    5.55    0.44
   0   4   0    5.33    0.40
  -1  -4   0    0.68    0.16
  -1  -4   0    0.73    0.19
  -1  -4   0    0.56    0.17
   1   4   0    0.70    0.26
   1   4   0    0.87    0.13
   1   4   0    0.57    0.19
   1   4   0    0.90    0.12
   1   4   0    0.59    0.16
  -2  -4   0   45.99    2.62
  -2  -4   0   43.35    2.60
  -2  -4   0   44.22    2.58
   2   4   0   44.01    2.51
   2   4   0   43.92    2.60
   2   4   0   43.42    2.50
   2   4   0   44.67    2.55
   2   4   0   43.93    2.60
  -3  -4   0    2.71    0.32
  -3  -4   0    2.89    0.42
  -3  -4   0    3.28    0.40
   3   4   0    2.59    0.28
   3   4   0    3.23    0.39
   3   4   0    2.57    0.34
  -4  -4   0    0.52    0.23
   4   4   0    0.05    0.28
   4   4   0    0.50    0.16
   4   4   0    0.47    0.25
   4   4   0    0.10    0.22
  -5  -4   0   36.57    2.29
   5   4   0   38.64    2.32
   5   4   0   37.49    2.34
  -6  -4   0    2.37    0.43
   6   4   0    2.46    0.51
   6   4   0    2.41    0.51
  -7  -4   0    4.65    0.62
   7   4   0    3.52    0.63
   7   4   0    2.92    0.60
  -8  -4   0    0.46    0.53
   8   4   0   -0.11    0.63
   8   4   0    1.93    0.70
   8  -5   0   -0.11    0.62
  -8   5   0    0.93    0.67
  -8   5   0   -0.09    0.35
   7  -5   0   -0.27    0.49
  -7   5   0   -0.11    0.56
  -7   5   0    0.18    0.30
   6  -5   0    1.91    0.48
  -6   5   0    2.87    0.35
  -6   5   0    2.41    0.54
   5  -5   0    6.86    0.74
  -5   5   0    7.67    0.81
  -5   5   0    7.72    0.57
   4  -5   0   20.22    1.31
   4  -5   0   20.91    1.37
  -4   5   0   20.67    1.24
  -4   5   0   18.30    1.33
  -4   5   0   21.97    1.25
  -4   5   0   21.78    1.40
  -4   5   0   21.57    1.27
   3  -5   0    3.57    0.46
  -3   5   0    4.14    0.49
  -3   5   0    4.66    0.39
  -3   5   0    4.12    0.35
  -3   5   0    4.00    0.48
  -3   5   0    4.25    0.36
  -3   5   0    3.45    0.43
  -3   5   0    3.58    0.41
   2  -5   0    7.06    0.56
  -2   5   0    6.47    0.56
  -2   5   0    6.30    0.48
  -2   5   0    6.93    0.49
  -2   5   0    6.72    0.56
  -2   5   0    6.42    0.56
  -2   5   0    6.14    0.52
   1  -5   0    5.23    0.45
  -1   5   0    4.55    0.44
  -1   5   0    4.27    0.41
  -1   5   0    5.28    0.44
  -1   5   0    5.45    0.48
  -1   5   0    4.95    0.41
  -1   5   0    4.92    0.47
  -1   5   0    5.01    0.44
   0  -5   0    5.98    0.48
   0  -5   0    6.50    0.53
   0   5   0    6.16    0.52
   0   5   0    6.21    0.53
   0   5   0    5.97    0.51
   0   5   0    6.37    0.47
   0   5   0    5.95    0.47
  -1  -5   0    3.12    0.41
  -1  -5   0    3.22    0.35
   1   5   0    3.21    0.29
   1   5   0    3.53    0.40
   1   5   0    2.97    0.31
   1   5   0    3.35    0.40
   1   5   0    2.89    0.33
  -2  -5   0    1.59    0.30
  -2  -5   0    1.97    0.28
  -2  -5   0    1.35    0.30
   2   5   0    1.49    0.16
   2   5   0    1.64    0.20
   2   5   0    1.70    0.23
   2   5   0    1.31    0.27
   2   5   0    2.11    0.32
  -3  -5   0    0.07    0.23
  -3  -5   0    0.41    0.26
   3   5   0   -0.13    0.16
   3   5   0    0.47    0.27
  -4  -5   0    0.78    0.32
   4   5   0    1.21    0.37
   4   5   0    0.76    0.32
  -5  -5   0    2.83    0.48
   5   5   0    3.85    0.57
   5   5   0    3.79    0.56
  -6  -5   0    3.79    0.57
   6   5   0    3.51    0.62
   6   5   0    3.09    0.65
  -7  -5   0    0.09    0.50
   7   5   0   -0.56    0.58
   7   5   0   -0.38    0.58
   8  -6   0    1.20    0.75
  -8   6   0    0.53    0.80
  -8   6   0    0.87    0.43
   7  -6   0    0.37    0.58
  -7   6   0   -0.02    0.60
  -7   6   0    0.24    0.34
   6  -6   0    1.59    0.50
  -6   6   0    0.10    0.25
  -6   6   0    0.20    0.55
   5  -6   0    0.97    0.44
  -5   6   0    0.84    0.12
  -5   6   0    0.89    0.51
  -5   6   0    0.86    0.27
  -5   6   0    1.12    0.16
   4  -6   0    0.71    0.38
  -4   6   0    0.54    0.39
  -4   6   0    0.56    0.21
  -4   6   0    0.76    0.32
  -4   6   0    0.50    0.20
   3  -6   0    0.28    0.32
  -3   6   0    0.33    0.19
  -3   6   0    0.25    0.19
  -3   6   0    0.32    0.21
  -3   6   0    0.41    0.33
  -3   6   0    0.82    0.28
   2  -6   0    2.51    0.39
  -2   6   0    2.43    0.40
  -2   6   0    2.41    0.30
  -2   6   0    2.76    0.38
  -2   6   0    2.44    0.35
  -2   6   0    2.67    0.35
  -2   6   0    2.27    0.30
  -2   6   0    1.90    0.31
  -1   6   0    2.35    0.34
  -1   6   0    3.09    0.38
  -1   6   0    2.92    0.38
  -1   6   0    3.43    0.40
  -1   6   0    2.81    0.38
  -1   6   0    2.79    0.41
  -1   6   0    2.90    0.37
   0  -6   0    3.56    0.39
   0  -6   0    2.94    0.39
   0   6   0    2.72    0.40
   0   6   0    3.00    0.43
   0   6   0    3.18    0.45
   0   6   0    2.96    0.39
   0   6   0    2.56    0.35
   0   6   0    2.61    0.37
  -1  -6   0    0.94    0.30
  -1  -6   0    0.97    0.28
   1   6   0    1.56    0.35
   1   6   0    1.16    0.32
   1   6   0    0.82    0.20
   1   6   0    1.41    0.29
   1   6   0    1.29    0.24
  -2  -6   0   -0.03    0.32
  -2  -6   0    0.54    0.26
   2   6   0    0.07    0.22
   2   6   0    0.47    0.12
   2   6   0    0.32    0.17
   2   6   0    0.94    0.32
  -3  -6   0    1.19    0.35
   3   6   0    0.95    0.39
   3   6   0    1.08    0.39
  -4  -6   0   13.19    1.09
   4   6   0   15.52    1.22
   4   6   0   14.55    1.10
  -5  -6   0   12.09    1.09
   5   6   0   13.61    1.13
   5   6   0   13.26    1.20
  -6  -6   0   -0.29    0.55
   6   6   0    0.06    0.56
   6   6   0   -1.20    0.61
  -7  -6   0   -0.28    0.65
   7   6   0    1.55    0.73
   7   6   0   -0.20    0.67
   7  -7   0   -0.44    0.65
  -7   7   0    0.96    0.78
  -7   7   0    0.33    0.38
   6  -7   0    0.69    0.58
  -6   7   0   -0.35    0.61
  -6   7   0    0.67    0.33
   5  -7   0    0.81    0.53
  -5   7   0    1.04    0.29
  -5   7   0   -0.60    0.51
  -5   7   0    0.63    0.23
   4  -7   0    0.18    0.45
  -4   7   0    0.15    0.45
  -4   7   0   -0.19    0.25
  -4   7   0    0.19    0.23
  -4   7   0    0.83    0.21
   3  -7   0    0.28    0.38
  -3   7   0    0.04    0.39
  -3   7   0    0.64    0.24
  -3   7   0    0.31    0.29
  -3   7   0    0.02    0.25
  -3   7   0    0.25    0.40
  -2   7   0    1.23    0.46
  -2   7   0    0.94    0.33
  -2   7   0    0.89    0.33
  -2   7   0    0.82    0.25
  -2   7   0    0.89    0.29
  -2   7   0    1.08    0.36
  -1   7   0    0.06    0.23
  -1   7   0   -0.14    0.26
  -1   7   0   -0.18    0.30
  -1   7   0    0.54    0.37
  -1   7   0    0.14    0.26
  -1   7   0   -0.13    0.32
   0  -7   0   -0.26    0.26
   0   7   0   -0.53    0.34
   0   7   0   -0.08    0.30
   0   7   0   -0.09    0.27
   0   7   0    0.30    0.36
   0   7   0   -0.07    0.23
  -1  -7   0    0.69    0.31
   1   7   0    0.39    0.36
   1   7   0    0.99    0.29
   1   7   0    0.85    0.23
   1   7   0    1.00    0.40
   1   7   0    0.62    0.27
  -2  -7   0    0.09    0.31
   2   7   0    0.12    0.16
   2   7   0    0.08    0.21
   2   7   0    0.46    0.43
   2   7   0   -0.05    0.39
  -3  -7   0    0.35    0.38
   3   7   0    0.25    0.43
   3   7   0   -0.01    0.47
  -4  -7   0   -0.37    0.44
   4   7   0    0.03    0.46
   4   7   0   -0.31    0.55
  -5  -7   0    0.22    0.55
   5   7   0   -0.13    0.55
   5   7   0   -0.05    0.63
  -6  -7   0    0.61    0.63
   6   7   0   -0.38    0.76
   6   7   0   -0.28    0.65
   6  -8   0   -0.17    0.72
  -6   8   0   -0.34    0.37
  -6   8   0    1.56    0.83
   5  -8   0    0.51    0.64
  -5   8   0    0.42    0.63
  -5   8   0    0.27    0.35
   4  -8   0    0.41    0.57
  -4   8   0    0.18    0.34
  -4   8   0   -0.15    0.52
  -4   8   0    0.07    0.29
  -3   8   0    0.52    0.39
  -3   8   0   -0.10    0.30
  -3   8   0   -0.07    0.41
  -3   8   0   -0.21    0.53
  -2   8   0    0.04    0.36
  -2   8   0    0.09    0.40
  -2   8   0    0.25    0.30
  -2   8   0   -0.07    0.48
  -1   8   0   -0.11    0.45
  -1   8   0    0.63    0.34
  -1   8   0   -0.22    0.46
  -1   8   0    0.71    0.33
   0   8   0    0.79    0.49
   0   8   0    0.17    0.39
   0   8   0    0.22    0.29
   0   8   0    1.11    0.35
   0   8   0   -0.40    0.43
  -1  -8   0    2.91    0.50
   1   8   0    3.12    0.57
   1   8   0    2.72    0.35
   1   8   0    3.08    0.60
  -2  -8   0    1.99    0.48
   2   8   0    1.74    0.60
   2   8   0    1.07    0.22
   2   8   0    1.61    0.56
  -3  -8   0    0.75    0.50
   3   8   0    0.68    0.57
   3   8   0    1.07    0.61
  -4  -8   0    1.59    0.61
   4   8   0    2.00    0.65
   4   8   0    1.36    0.77
  -5  -8   0    0.48    0.68
   5   8   0    0.20    0.78
   5   8   0    0.46    0.73
   5  -9   0   -0.51    0.65
  -5   9   0    0.72    0.73
  -5   9   0    0.32    0.41
  -4   9   0   -0.06    0.43
  -4   9   0    0.06    0.37
  -4   9   0   -1.22    0.69
  -4   9   0    0.94    0.65
  -3   9   0   -0.70    0.49
  -3   9   0   -0.35    0.51
  -3   9   0   -0.12    0.35
  -3   9   0    0.14    0.66
  -2   9   0    0.02    0.56
  -2   9   0   -0.36    0.60
  -2   9   0    0.35    0.38
  -2   9   0    0.63    0.46
  -1   9   0   -0.76    0.40
  -1   9   0   -0.08    0.58
  -1   9   0    0.30    0.43
  -1   9   0    0.48    0.58
   0   9   0    0.97    0.40
   0   9   0    1.77    0.47
   0   9   0    1.86    0.67
   0   9   0    0.90    0.62
  -1  -9   0    1.79    0.58
   1   9   0    1.64    0.67
   1   9   0    1.30    0.62
  -2  -9   0   -0.83    0.56
   2   9   0    0.06    0.72
   2   9   0   -0.39    0.62
  -3  -9   0    0.34    0.63
   3   9   0    0.27    0.75
   3   9   0    1.84    0.75
  -2  10   0   -0.76    0.80
  -2  10   0   -0.16    0.55
  -2  10   0    0.05    0.70
  -2  10   0    0.12    0.42
  -1  10   0    0.14    0.78
  -1  10   0   -0.60    0.46
  -1  10   0   -0.44    0.44
  -1  10   0    0.05    0.75
   0  10   0   -0.61    0.75
   0  10   0    0.33    0.79
   0  10   0    0.90    0.51
   1  10  -1    0.16    0.71
   1  10  -1    0.47    0.78
   0  10  -1    0.93    0.76
   0  10  -1    0.04    0.51
   0  10  -1   -0.44    0.65
  -1  10  -1   -0.51    0.68
  -1  10  -1   -0.24    0.48
  -1  10  -1    0.75    0.51
  -1  10  -1   -0.38    0.67
  -2  10  -1    0.39    0.58
  -2  10  -1    0.22    0.46
  -2  10  -1    0.29    0.65
  -2  10  -1   -0.11    0.73
  -3  10  -1   -0.58    0.73
  -3  10  -1    0.81    0.56
  -3  10  -1   -0.81    0.61
  -3  10  -1    0.77    0.44
   3   9  -1    1.25    0.79
   3   9  -1   -0.70    0.61
  -3  -9   1    0.32    0.62
   2   9  -1   -0.64    0.55
   2   9  -1   -0.23    0.65
  -2  -9   1   -0.25    0.55
   1   9  -1    1.01    0.56
   1   9  -1    1.05    0.30
   1   9  -1    1.11    0.66
  -1  -9   1    1.12    0.56
   0   9  -1    0.50    0.37
   0   9  -1    1.29    0.57
   0   9  -1    1.31    0.60
   0   9  -1    0.74    0.45
  -1   9  -1    0.25    0.55
  -1   9  -1    0.60    0.55
  -1   9  -1    0.27    0.38
  -1   9  -1    0.12    0.40
  -2   9  -1    0.23    0.46
  -2   9  -1    0.12    0.52
  -2   9  -1    0.19    0.37
  -2   9  -1    0.00    0.58
  -3   9  -1    0.28    0.37
  -3   9  -1    0.52    0.47
  -3   9  -1    0.39    0.54
  -3   9  -1   -0.83    0.62
  -4   9  -1   -0.03    0.36
  -4   9  -1    0.52    0.65
  -4   9  -1    0.62    0.40
  -4   9  -1   -0.01    0.66
  -5   9  -1    0.06    0.40
  -5   9  -1    0.39    0.78
   5  -9   1   -0.67    0.71
   5   8  -1    0.45    0.78
   5   8  -1    1.32    0.68
  -5  -8   1   -0.08    0.61
   4   8  -1    0.92    0.55
   4   8  -1   -0.01    0.66
  -4  -8   1    0.65    0.54
   3   8  -1   -0.13    0.56
   3   8  -1    1.31    0.55
  -3  -8   1    0.02    0.48
   2   8  -1    1.11    0.22
   2   8  -1    1.41    0.53
   2   8  -1    1.10    0.48
  -2  -8   1    1.69    0.47
   1   8  -1    1.93    0.56
   1   8  -1    1.51    0.47
   1   8  -1    1.22    0.32
   1   8  -1    0.91    0.28
  -1  -8   1    0.94    0.42
   0   8  -1   -0.21    0.35
   0   8  -1    0.08    0.42
   0   8  -1   -0.37    0.39
   0   8  -1   -0.05    0.28
  -1   8  -1   -0.03    0.43
  -1   8  -1    0.42    0.43
  -1   8  -1   -0.16    0.30
  -1   8  -1    0.27    0.34
  -2   8  -1    0.92    0.48
  -2   8  -1    0.87    0.44
  -2   8  -1    0.92    0.35
  -2   8  -1    0.54    0.42
  -3   8  -1    0.54    0.37
  -3   8  -1   -0.32    0.47
  -3   8  -1    0.09    0.48
  -3   8  -1    0.01    0.27
  -4   8  -1   -0.48    0.29
  -4   8  -1   -0.02    0.29
  -4   8  -1    0.60    0.51
   4  -8   1    0.81    0.52
  -5   8  -1   -0.32    0.33
  -5   8  -1   -0.75    0.61
   5  -8   1   -0.61    0.54
  -6   8  -1    0.08    0.79
  -6   8  -1    0.33    0.38
   6  -8   1    0.60    0.67
   6   7  -1    0.21    0.67
   6   7  -1    0.96    0.76
  -6  -7   1    0.83    0.62
   5   7  -1    1.24    0.61
   5   7  -1   -0.01    0.55
  -5  -7   1    0.67    0.53
   4   7  -1    0.36    0.44
   4   7  -1   -0.47    0.52
  -4  -7   1   -0.60    0.41
   3   7  -1    0.61    0.41
   3   7  -1    0.84    0.50
  -3  -7   1    0.39    0.39
   2   7  -1    1.54    0.41
   2   7  -1    1.18    0.25
   2   7  -1   -0.03    0.37
   2   7  -1    1.31    0.19
  -2  -7   1    1.28    0.38
   1   7  -1   15.39    1.00
   1   7  -1   16.65    1.23
   1   7  -1   14.68    1.05
   1   7  -1   16.16    1.13
  -1  -7   1   16.55    1.12
   0   7  -1    2.24    0.36
   0   7  -1    2.69    0.36
   0   7  -1    2.80    0.43
   0   7  -1    2.81    0.41
   0   7  -1    2.49    0.43
   0  -7   1    2.12    0.38
  -1   7  -1   -0.21    0.39
  -1   7  -1    0.85    0.47
  -1   7  -1    0.00    0.32
  -1   7  -1   -0.56    0.30
  -1   7  -1    0.01    0.26
  -1   7  -1    0.25    0.30
  -1   7  -1    0.38    0.26
  -2   7  -1    0.12    0.28
  -2   7  -1   -0.44    0.26
  -2   7  -1    0.27    0.23
  -2   7  -1    0.66    0.33
  -2   7  -1    0.06    0.33
  -2   7  -1    0.26    0.32
  -3   7  -1    0.89    0.42
  -3   7  -1    0.68    0.25
  -3   7  -1    1.55    0.28
  -3   7  -1    0.90    0.32
   3  -7   1    0.85    0.38
  -4   7  -1    2.00    0.25
  -4   7  -1    1.25    0.30
  -4   7  -1    1.39    0.28
  -4   7  -1    1.72    0.52
   4  -7   1    1.96    0.50
  -5   7  -1    0.98    0.55
  -5   7  -1    0.95    0.21
  -5   7  -1    0.85    0.31
   5  -7   1    0.83    0.48
  -6   7  -1    0.51    0.61
  -6   7  -1    1.03    0.35
   6  -7   1    0.76    0.56
  -7   7  -1   -0.44    0.35
  -7   7  -1    0.44    0.79
   7  -7   1   -0.59    0.63
   7   6  -1    1.71    0.72
   7   6  -1    0.03    0.64
  -7  -6   1    0.28    0.64
   6   6  -1    0.50    0.54
   6   6  -1    0.08    0.58
  -6  -6   1    0.63    0.54
   5   6  -1    6.88    0.93
   5   6  -1    7.24    0.86
  -5  -6   1    6.73    0.85
   4   6  -1    1.94    0.41
   4   6  -1    1.12    0.47
  -4  -6   1    1.03    0.37
   3   6  -1    2.03    0.44
   3   6  -1    1.46    0.34
  -3  -6   1    2.23    0.38
   2   6  -1    8.67    0.58
   2   6  -1    9.13    0.66
   2   6  -1    9.83    0.75
   2   6  -1    9.25    0.60
   2   6  -1   10.35    0.84
  -2  -6   1   10.48    0.75
  -2  -6   1    8.01    0.74
   1   6  -1    9.79    0.71
   1   6  -1    9.86    0.67
   1   6  -1    9.81    0.78
   1   6  -1   10.18    0.75
   1   6  -1   10.19    0.69
   1   6  -1   10.55    0.83
  -1  -6   1    9.87    0.75
   0   6  -1    0.65    0.28
   0   6  -1   -0.20    0.18
   0   6  -1    0.08    0.27
   0   6  -1    0.02    0.20
   0   6  -1    0.21    0.23
   0   6  -1   -0.14    0.22
   0   6  -1    0.15    0.21
   0  -6   1    0.12    0.22
  -1   6  -1    1.49    0.31
  -1   6  -1    1.07    0.31
  -1   6  -1    1.08    0.26
  -1   6  -1    1.23    0.25
  -1   6  -1    0.90    0.26
  -1   6  -1    1.11    0.26
  -1   6  -1    1.78    0.30
  -1   6  -1    0.90    0.29
  -2   6  -1    2.38    0.39
  -2   6  -1    2.93    0.39
  -2   6  -1    2.52    0.38
  -2   6  -1    2.98    0.34
  -2   6  -1    3.67    0.43
  -2   6  -1    3.00    0.36
  -2   6  -1    3.50    0.41
   2  -6   1    3.47    0.43
  -3   6  -1    1.40    0.24
  -3   6  -1    1.69    0.25
  -3   6  -1    1.69    0.24
  -3   6  -1    1.41    0.30
  -3   6  -1    1.62    0.38
  -3   6  -1    1.46    0.31
   3  -6   1    1.55    0.35
  -4   6  -1    0.67    0.39
  -4   6  -1    0.67    0.19
  -4   6  -1    0.42    0.21
  -4   6  -1    0.95    0.19
   4  -6   1    0.15    0.32
  -5   6  -1    0.53    0.11
  -5   6  -1    0.53    0.10
  -5   6  -1    0.89    0.47
  -5   6  -1    0.57    0.26
   5  -6   1    0.20    0.37
  -6   6  -1    4.88    0.57
  -6   6  -1    5.62    0.76
   6  -6   1    4.84    0.70
  -7   6  -1    0.44    0.32
  -7   6  -1   -0.16    0.63
   7  -6   1   -0.25    0.52
  -8   6  -1    1.48    0.49
  -8   6  -1    3.80    0.92
   8  -6   1    2.90    0.78
   8   5  -1   -0.99    0.68
  -8  -5   1    2.97    0.66
   7   5  -1    0.24    0.56
   7   5  -1    1.36    0.60
  -7  -5   1    1.39    0.49
   6   5  -1   -0.01    0.45
   6   5  -1    0.72    0.45
  -6  -5   1    0.66    0.42
   5   5  -1    0.24    0.39
   5   5  -1   -0.03    0.42
  -5  -5   1    0.27    0.32
   4   5  -1    2.05    0.34
   4   5  -1    2.18    0.44
  -4  -5   1    1.81    0.35
   3   5  -1    1.10    0.27
   3   5  -1    0.83    0.20
   3   5  -1    1.26    0.33
  -3  -5   1    1.00    0.25
  -3  -5   1    1.32    0.30
   2   5  -1    1.39    0.30
   2   5  -1    1.84    0.21
   2   5  -1    1.72    0.16
   2   5  -1    2.57    0.29
   2   5  -1    1.88    0.31
   2   5  -1    1.52    0.26
  -2  -5   1    1.48    0.28
  -2  -5   1    1.89    0.32
   1   5  -1   16.11    0.98
   1   5  -1   14.63    0.94
   1   5  -1   15.78    1.00
   1   5  -1   15.58    1.05
   1   5  -1   14.44    1.00
   1   5  -1   15.87    0.95
  -1  -5   1   15.99    1.00
  -1  -5   1   15.82    1.01
   0   5  -1    1.36    0.22
   0   5  -1    1.63    0.26
   0   5  -1    1.00    0.21
   0   5  -1    1.11    0.23
   0   5  -1    1.16    0.23
   0   5  -1    1.60    0.22
   0   5  -1    1.20    0.26
   0  -5   1    1.27    0.22
  -1   5  -1   -0.07    0.16
  -1   5  -1    0.06    0.19
  -1   5  -1    0.20    0.15
  -1   5  -1    0.03    0.18
  -1   5  -1    0.21    0.18
  -1   5  -1   -0.27    0.15
  -1   5  -1    0.01    0.18
  -1   5  -1    0.13    0.17
  -2   5  -1    4.25    0.40
  -2   5  -1    4.41    0.42
  -2   5  -1    4.49    0.41
  -2   5  -1    4.18    0.45
  -2   5  -1    4.33    0.45
  -2   5  -1    3.76    0.41
  -2   5  -1    4.25    0.38
   2  -5   1    4.41    0.42
  -3   5  -1    0.28    0.15
  -3   5  -1    0.52    0.22
  -3   5  -1    0.05    0.14
  -3   5  -1    0.10    0.19
  -3   5  -1    0.11    0.24
  -3   5  -1    0.14    0.15
  -3   5  -1    0.07    0.23
   3  -5   1    0.08    0.20
  -4   5  -1    0.35    0.12
  -4   5  -1    0.31    0.23
  -4   5  -1    0.26    0.12
  -4   5  -1    0.21    0.32
  -4   5  -1    0.29    0.16
   4  -5   1    0.26    0.26
   4  -5   1    0.50    0.23
  -5   5  -1    0.51    0.39
  -5   5  -1    0.18    0.19
   5  -5   1   -0.18    0.31
  -6   5  -1    1.42    0.30
  -6   5  -1    1.90    0.53
   6  -5   1    1.51    0.47
  -7   5  -1    2.12    0.66
  -7   5  -1    1.82    0.37
   7  -5   1    2.25    0.54
  -8   5  -1    8.15    0.80
  -8   5  -1   10.08    1.26
   8  -5   1    8.44    1.09
   8   4  -1    0.85    0.64
   8   4  -1    0.83    0.63
  -8  -4   1    0.42    0.53
   7   4  -1    1.31    0.49
   7   4  -1    1.61    0.52
  -7  -4   1    0.85    0.45
   6   4  -1    9.75    0.88
   6   4  -1    9.30    0.96
  -6  -4   1   10.79    0.87
   5   4  -1   53.28    3.06
   5   4  -1   49.63    3.07
  -5  -4   1   50.48    3.04
   4   4  -1   16.13    1.02
   4   4  -1   17.94    1.11
   4   4  -1   14.40    1.09
   4   4  -1   18.13    1.15
  -4  -4   1   17.56    1.09
  -4  -4   1   15.60    1.09
   3   4  -1    0.05    0.20
   3   4  -1    0.38    0.18
   3   4  -1    0.53    0.23
   3   4  -1    0.46    0.15
  -3  -4   1    0.65    0.21
  -3  -4   1    0.71    0.22
   2   4  -1   13.53    0.77
   2   4  -1   13.44    0.87
   2   4  -1   13.72    0.84
   2   4  -1   12.94    0.88
   2   4  -1   12.71    0.77
   2   4  -1   14.16    0.90
  -2  -4   1   13.06    0.86
  -2  -4   1   13.21    0.87
   1   4  -1   23.90    1.45
   1   4  -1   23.74    1.38
   1   4  -1   24.28    1.43
   1   4  -1   23.82    1.41
   1   4  -1   22.57    1.43
   1   4  -1   24.41    1.39
  -1  -4   1   22.81    1.43
  -1  -4   1   24.49    1.47
   0   4  -1   13.60    0.85
   0   4  -1   14.18    0.88
   0   4  -1   14.05    0.88
   0   4  -1   14.48    0.90
   0   4  -1   13.68    0.87
   0   4  -1   14.03    0.87
   0   4  -1   12.06    0.85
   0  -4   1   14.23    0.87
  -1   4  -1    3.78    0.32
  -1   4  -1    3.61    0.36
  -1   4  -1    3.43    0.31
  -1   4  -1    4.29    0.38
  -1   4  -1    3.39    0.32
  -1   4  -1    3.27    0.31
   1  -4   1    3.33    0.33
   1  -4   1    3.51    0.32
  -2   4  -1    0.56    0.17
  -2   4  -1    0.53    0.13
  -2   4  -1    0.48    0.13
  -2   4  -1    0.82    0.14
  -2   4  -1    0.68    0.16
   2  -4   1    0.33    0.18
   2  -4   1    0.48    0.17
  -3   4  -1    0.33    0.13
  -3   4  -1    0.66    0.12
  -3   4  -1    0.59    0.11
  -3   4  -1    0.51    0.19
  -3   4  -1    0.85    0.25
   3  -4   1    0.58    0.22
   3  -4   1    0.68    0.18
   3  -4   1    0.42    0.19
  -4   4  -1    2.13    0.35
  -4   4  -1    1.99    0.14
  -4   4  -1    1.92    0.28
  -4   4  -1    1.82    0.28
  -4   4  -1    1.82    0.32
   4  -4   1    2.30    0.34
   4  -4   1    2.05    0.27
  -5   4  -1    0.84    0.20
  -5   4  -1    0.69    0.33
  -5   4  -1    0.46    0.28
   5  -4   1    1.04    0.29
  -6   4  -1    0.49    0.42
  -6   4  -1    0.56    0.23
   6  -4   1    1.03    0.41
  -7   4  -1    1.88    0.35
  -7   4  -1    1.42    0.56
   7  -4   1    1.35    0.49
  -8   4  -1    1.17    0.37
  -8   4  -1    1.26    0.63
   8  -4   1    0.04    0.53
  -9   4  -1    0.77    0.42
  -9   4  -1    0.06    0.71
   9  -4   1    1.02    0.71
   8   3  -1    0.51    0.52
   8   3  -1    0.48    0.56
  -8  -3   1   -0.22    0.39
   7   3  -1    2.74    0.54
   7   3  -1    2.24    0.48
  -7  -3   1    3.03    0.48
   6   3  -1   12.01    0.92
   6   3  -1   11.51    0.91
  -6  -3   1   10.17    0.85
   5   3  -1    1.42    0.31
   5   3  -1    1.76    0.34
   5   3  -1    0.76    0.26
  -5  -3   1    1.50    0.26
   4   3  -1    0.85    0.16
   4   3  -1    0.97    0.24
   4   3  -1    1.17    0.23
   4   3  -1    1.12    0.24
  -4  -3   1    1.06    0.21
  -4  -3   1    1.21    0.26
   3   3  -1    1.47    0.22
   3   3  -1    1.26    0.22
   3   3  -1    1.45    0.24
   3   3  -1    1.83    0.20
  -3  -3   1    1.68    0.24
  -3  -3   1    1.26    0.20
   2   3  -1   46.72    2.66
   2   3  -1   45.07    2.67
   2   3  -1   40.68    2.66
   2   3  -1   46.32    2.67
  -2  -3   1   49.69    2.70
  -2  -3   1   46.79    2.66
   1   3  -1    5.20    0.37
   1   3  -1    4.53    0.37
   1   3  -1    4.61    0.34
   1   3  -1    4.85    0.30
   1   3  -1    4.93    0.34
  -1  -3   1    4.18    0.30
  -1  -3   1    4.65    0.34
  -1  -3   1    4.34    0.34
   0   3  -1   29.26    1.65
   0   3  -1   29.24    1.64
   0   3  -1   29.21    1.64
   0   3  -1   25.40    1.63
   0   3  -1   26.01    1.64
   0   3  -1   29.38    1.65
   0  -3   1   28.98    1.63
   0  -3   1   27.38    1.64
  -1   3  -1   11.25    0.73
  -1   3  -1   11.93    0.75
  -1   3  -1   11.09    0.74
  -1   3  -1   12.14    0.74
  -1   3  -1   12.49    0.73
  -1   3  -1   12.46    0.73
   1  -3   1   12.06    0.74
   1  -3   1   11.92    0.75
  -2   3  -1  124.44    7.22
  -2   3  -1  126.00    7.22
  -2   3  -1  127.70    7.19
  -2   3  -1  128.10    7.20
   2  -3   1  125.43    7.25
   2  -3   1  130.76    7.23
   2  -3   1  128.82    7.23
  -3   3  -1   11.89    0.77
  -3   3  -1   11.95    0.73
  -3   3  -1   13.00    0.81
  -3   3  -1   13.01    0.84
  -3   3  -1   12.82    0.73
   3  -3   1   12.26    0.80
   3  -3   1   13.16    0.86
   3  -3   1   13.34    0.82
  -4   3  -1    8.73    0.55
  -4   3  -1    8.23    0.63
  -4   3  -1    8.19    0.60
   4  -3   1    7.96    0.66
   4  -3   1    8.42    0.58
   4  -3   1    8.05    0.61
  -5   3  -1    0.48    0.29
  -5   3  -1    0.60    0.28
  -5   3  -1    0.57    0.17
  -5   3  -1    0.58    0.22
   5  -3   1    0.76    0.25
   5  -3   1    0.80    0.21
  -6   3  -1    7.01    0.56
  -6   3  -1    7.20    0.75
   6  -3   1    7.29    0.70
  -7   3  -1    0.06    0.23
  -7   3  -1    0.12    0.43
   7  -3   1   -0.50    0.39
  -8   3  -1   -0.24    0.56
  -8   3  -1   -0.22    0.30
   8  -3   1   -0.66    0.47
  -9   3  -1   -0.06    0.67
  -9   3  -1   -0.45    0.42
   9  -3   1   -0.14    0.64
   9   2  -1    0.37    0.59
  -9  -2   1    0.22    0.51
   8   2  -1    3.28    0.48
   8   2  -1    3.07    0.62
  -8  -2   1    3.05    0.50
   7   2  -1    2.62    0.49
   7   2  -1    2.66    0.41
   7   2  -1    3.31    0.40
  -7  -2   1    3.77    0.36
  -7  -2   1    1.98    0.32
  -7  -2   1    2.70    0.42
   6   2  -1   41.75    2.32
   6   2  -1   39.91    2.28
   6   2  -1   32.85    2.24
  -6  -2   1   33.48    2.18
  -6  -2   1   40.15    2.27
  -6  -2   1   38.54    2.18
   5   2  -1   47.71    2.81
   5   2  -1   50.33    2.84
   5   2  -1   52.54    2.87
   5   2  -1   50.09    2.83
  -5  -2   1   48.92    2.83
  -5  -2   1   46.04    2.85
  -5  -2   1   43.27    2.77
  -5  -2   1   48.17    2.76
   4   2  -1    2.38    0.31
   4   2  -1    2.77    0.23
   4   2  -1    2.05    0.27
   4   2  -1    2.13    0.30
  -4  -2   1    2.60    0.30
  -4  -2   1    2.21    0.17
  -4  -2   1    2.43    0.28
  -4  -2   1    1.86    0.20
   3   2  -1   19.75    1.23
   3   2  -1   22.46    1.28
   3   2  -1   20.18    1.27
   3   2  -1   19.88    1.26
  -3  -2   1   22.02    1.26
  -3  -2   1   20.47    1.19
  -3  -2   1   22.09    1.27
  -3  -2   1   21.41    1.20
   2   2  -1   19.78    1.12
   2   2  -1   19.52    1.14
   2   2  -1   19.07    1.15
   2   2  -1   18.07    1.14
  -2  -2   1   19.99    1.13
  -2  -2   1   18.14    1.13
   1   2  -1    5.46    0.35
   1   2  -1    4.70    0.29
   1   2  -1    5.33    0.33
   1   2  -1    5.15    0.33
   1   2  -1    4.98    0.35
  -1  -2   1    4.51    0.30
  -1  -2   1    4.71    0.33
  -1  -2   1    5.06    0.33
   0   2  -1   99.30    5.61
   0   2  -1   97.09    5.61
   0   2  -1  102.46    5.61
   0   2  -1   97.09    5.60
   0   2  -1  100.97    5.61
   0   2  -1  101.22    5.61
   0  -2   1   95.96    5.60
   0  -2   1   98.62    5.61
  -1   2  -1    3.68    0.29
  -1   2  -1    4.28    0.28
  -1   2  -1    3.99    0.26
  -1   2  -1    4.00    0.27
   1  -2   1    4.10    0.29
   1  -2   1    4.11    0.27
   1  -2   1    4.00    0.28
  -2   2  -1   55.02    3.10
  -2   2  -1   57.16    3.11
  -2   2  -1   53.69    3.13
  -2   2  -1   55.26    3.07
   2  -2   1   48.56    3.11
   2  -2   1   58.54    3.14
   2  -2   1   52.80    3.11
  -3   2  -1   48.29    2.68
  -3   2  -1   44.39    2.66
   3  -2   1   47.52    2.70
   3  -2   1   48.43    2.69
   3  -2   1   43.56    2.70
  -4   2  -1    7.57    0.48
  -4   2  -1    6.25    0.52
  -4   2  -1    8.29    0.58
   4  -2   1    6.98    0.49
   4  -2   1    6.80    0.53
   4  -2   1    7.45    0.57
  -5   2  -1   24.41    1.49
  -5   2  -1   24.08    1.45
  -5   2  -1   23.83    1.52
   5  -2   1   23.50    1.50
   5  -2   1   24.93    1.54
   5  -2   1   24.69    1.46
  -6   2  -1   -0.14    0.18
  -6   2  -1    0.00    0.30
  -6   2  -1   -0.25    0.31
   6  -2   1    0.24    0.29
  -7   2  -1    2.22    0.52
  -7   2  -1    2.63    0.35
   7  -2   1    1.99    0.43
  -8   2  -1    0.11    0.48
  -8   2  -1    0.65    0.31
   8  -2   1    0.52    0.51
  -9   2  -1    0.98    0.66
  -9   2  -1    0.80    0.45
   9  -2   1    1.59    0.73
   9   1  -1    0.98    0.70
  -9  -1   1    1.00    0.53
   8   1  -1    2.81    0.59
   8   1  -1    2.83    0.37
  -8  -1   1    3.20    0.48
  -8  -1   1    3.27    0.41
   7   1  -1    0.43    0.25
   7   1  -1    0.69    0.39
   7   1  -1    0.14    0.21
  -7  -1   1    0.78    0.25
  -7  -1   1    0.01    0.27
  -7  -1   1    0.66    0.28
   6   1  -1   10.12    0.83
   6   1  -1   15.19    0.86
   6   1  -1   13.66    0.95
  -6  -1   1   12.40    0.86
  -6  -1   1   13.80    0.83
  -6  -1   1   10.39    0.86
   5   1  -1   13.62    0.95
   5   1  -1   12.70    0.90
   5   1  -1   14.06    0.89
  -5  -1   1   14.81    0.95
  -5  -1   1   13.73    0.91
  -5  -1   1   15.75    0.89
  -5  -1   1   15.71    0.91
   4   1  -1   14.64    0.95
   4   1  -1   16.77    0.96
   4   1  -1   16.80    0.94
   4   1  -1   13.92    0.97
  -4  -1   1   16.42    0.93
  -4  -1   1   14.06    0.96
  -4  -1   1   15.52    0.94
   3   1  -1    3.68    0.29
   3   1  -1    3.10    0.28
  -3  -1   1    3.56    0.26
  -3  -1   1    3.81    0.31
  -3  -1   1    3.83    0.25
   2   1  -1   98.34    5.49
   2   1  -1   88.38    5.51
   2   1  -1   89.79    5.51
   2   1  -1  100.37    5.50
   2   1  -1  101.93    5.51
  -2  -1   1   98.73    5.49
  -2  -1   1   95.57    5.51
  -2  -1   1  104.94    5.51
   1   1  -1   59.46    3.45
   1   1  -1   59.37    3.43
   1   1  -1   58.12    3.44
  -1  -1   1   60.96    3.44
  -1  -1   1   66.05    3.45
  -1   1  -1   38.50    2.27
  -1   1  -1   39.66    2.26
   1  -1   1   41.09    2.25
   1  -1   1   39.73    2.26
  -2   1  -1  263.69   14.69
  -2   1  -1  253.79   14.67
  -2   1  -1  252.44   14.66
   2  -1   1  263.14   14.67
   2  -1   1  249.37   14.69
   2  -1   1  279.51   14.68
  -3   1  -1   15.14    0.94
  -3   1  -1   17.68    0.99
  -3   1  -1   16.85    0.97
  -3   1  -1   15.54    1.00
   3  -1   1   15.29    1.00
   3  -1   1   17.04    0.99
   3  -1   1   16.80    0.98
  -4   1  -1  110.17    5.45
  -4   1  -1   90.48    5.41
  -4   1  -1   97.71    5.45
   4  -1   1   99.72    5.44
   4  -1   1   87.23    5.37
   4  -1   1   91.77    5.41
   4  -1   1   89.67    5.44
  -5   1  -1    9.96    0.80
  -5   1  -1   12.62    0.76
  -5   1  -1   11.07    0.79
   5  -1   1   11.76    0.82
   5  -1   1   11.75    0.69
   5  -1   1   11.98    0.74
   5  -1   1   13.02    0.83
   5  -1   1   12.34    0.76
  -6   1  -1   15.52    0.99
  -6   1  -1   12.99    0.95
  -6   1  -1   13.91    0.87
   6  -1   1   11.24    0.80
   6  -1   1   13.11    0.78
   6  -1   1   14.97    0.97
  -7   1  -1    3.96    0.43
  -7   1  -1    3.14    0.47
   7  -1   1    2.79    0.25
   7  -1   1    2.63    0.45
  -8   1  -1    0.87    0.35
  -8   1  -1    1.87    0.54
   8  -1   1    1.51    0.51
  -9   1  -1   -0.48    0.56
  -9   1  -1   -0.58    0.40
   9  -1   1    0.69    0.67
   9   0  -1    0.36    0.66
  -9   0   1   -0.14    0.49
  -9   0   1    0.38    0.44
   8   0  -1    3.41    0.65
   8   0  -1    3.05    0.39
  -8   0   1    4.42    0.53
  -8   0   1    3.87    0.49
   7   0  -1    0.18    0.17
   7   0  -1    0.32    0.17
   7   0  -1    0.79    0.40
  -7   0   1    1.08    0.33
  -7   0   1    0.32    0.28
  -7   0   1   -0.22    0.24
   6   0  -1   17.87    1.21
   6   0  -1   17.78    1.10
   6   0  -1   16.65    1.09
  -6   0   1   19.33    1.17
  -6   0   1   18.03    1.19
  -6   0   1   19.50    1.15
   5   0  -1   16.26    1.00
   5   0  -1   14.52    0.96
   5   0  -1   15.89    0.92
   5   0  -1   15.19    0.92
  -5   0   1   15.10    0.98
  -5   0   1   14.62    0.94
  -5   0   1   14.41    0.98
  -5   0   1   15.90    0.97
   4   0  -1    1.06    0.19
   4   0  -1    1.03    0.14
   4   0  -1    0.84    0.13
   4   0  -1    1.11    0.15
  -4   0   1    1.09    0.18
  -4   0   1    1.03    0.15
  -4   0   1    0.73    0.17
  -4   0   1    0.80    0.16
   3   0  -1  292.19   15.19
   3   0  -1  279.38   15.15
   3   0  -1  274.77   15.16
   3   0  -1  264.52   15.16
  -3   0   1  292.52   15.19
  -3   0   1  235.84   15.16
  -3   0   1  248.01   15.17
  -3   0   1  264.90   15.18
   2   0  -1   30.15    1.83
   2   0  -1   32.23    1.83
   2   0  -1   33.53    1.81
   2   0  -1   31.95    1.81
  -2   0   1   32.54    1.81
  -2   0   1   33.06    1.83
  -2   0   1   32.17    1.82
  -2   0   1   28.55    1.81
   1   0  -1   89.19    5.21
   1   0  -1   86.94    5.21
   1   0  -1   89.74    5.22
  -1   0   1  104.18    5.22
  -1   0  -1  219.79   11.89
  -1   0  -1  202.55   11.90
  -2   0  -1  320.77   16.79
  -2   0  -1  326.95   16.80
  -2   0  -1  309.49   16.78
  -2   0  -1  256.36   16.78
   2   0   1  312.49   16.78
   2   0   1  266.17   16.79
   2   0   1  274.18   16.79
   2   0   1  317.85   16.78
  -3   0  -1   49.73    2.84
  -3   0  -1   47.43    2.83
  -3   0  -1   51.83    2.85
   3   0   1   43.72    2.84
   3   0   1   49.57    2.86
   3   0   1   51.50    2.83
   3   0   1   53.83    2.85
  -4   0  -1    3.41    0.34
  -4   0  -1    3.98    0.36
  -4   0  -1    4.61    0.33
  -4   0  -1    4.37    0.32
   4   0   1    4.01    0.32
   4   0   1    4.07    0.30
   4   0   1    4.67    0.38
   4   0   1    5.16    0.37
  -5   0  -1    2.75    0.31
  -5   0  -1    2.90    0.29
  -5   0  -1    2.68    0.33
   5   0   1    3.60    0.36
   5   0   1    2.77    0.26
   5   0   1    2.26    0.28
   5   0   1    3.10    0.32
   5   0   1    2.98    0.36
  -6   0  -1    1.10    0.28
  -6   0  -1    1.19    0.24
   6   0   1    0.73    0.31
   6   0   1    1.30    0.24
   6   0   1    1.38    0.18
  -7   0  -1    3.33    0.41
  -7   0  -1    4.44    0.50
  -7   0  -1    3.93    0.49
   7   0   1    3.91    0.44
   7   0   1    4.21    0.63
  -8   0  -1    0.36    0.41
  -8   0  -1    0.18    0.34
   8   0   1    0.17    0.45
   8   0   1    0.23    0.24
  -9   0  -1    3.49    0.63
   9   0   1    5.04    0.79
   9  -1  -1    1.44    0.74
  -9   1   1    1.02    0.49
  -9   1   1   -0.32    0.54
   8  -1  -1   10.12    1.00
  -8   1   1    9.12    0.78
  -8   1   1    9.82    0.94
   7  -1  -1    0.23    0.37
  -7   1   1    0.52    0.32
   6  -1  -1    5.63    0.38
   6  -1  -1    6.65    0.63
   6  -1  -1    6.44    0.38
  -6   1   1    5.93    0.59
  -6   1   1    6.92    0.50
  -6   1   1    6.31    0.60
   5  -1  -1    0.56    0.15
   5  -1  -1    0.67    0.09
   5  -1  -1    0.65    0.09
   5  -1  -1    0.35    0.21
  -5   1   1    0.40    0.21
  -5   1   1    0.48    0.14
  -5   1   1    0.13    0.18
  -5   1   1    0.51    0.22
   4  -1  -1   13.89    0.88
   4  -1  -1   15.11    0.92
   4  -1  -1   15.79    0.98
   4  -1  -1   16.15    0.87
  -4   1   1   15.22    0.96
  -4   1   1   14.98    0.96
  -4   1   1   15.18    0.97
  -4   1   1   15.86    0.92
   3  -1  -1   44.39    2.40
   3  -1  -1   41.90    2.32
   3  -1  -1   41.35    2.36
  -3   1   1   40.69    2.33
  -3   1   1   39.75    2.38
  -3   1   1   40.65    2.39
  -3   1   1   42.20    2.40
  -3   1   1   38.49    2.35
   2  -1  -1   30.58    1.77
   2  -1  -1   32.37    1.80
   2  -1  -1   31.10    1.80
   2  -1  -1   29.79    1.75
  -2   1   1   30.43    1.76
  -2   1   1   32.51    1.75
  -2   1   1   28.38    1.79
  -2   1   1   32.51    1.80
   1  -1  -1   44.26    2.42
   1  -1  -1   43.77    2.42
   1  -1  -1   48.77    2.45
   1  -1  -1   45.82    2.44
  -1   1   1   36.73    2.41
  -1   1   1   43.87    2.42
  -1   1   1   38.58    2.44
  -1   1   1   40.35    2.44
   0  -1  -1  230.82   12.93
   0   1   1  225.44   12.95
   0   1   1  221.13   12.92
   0   1   1  241.24   12.94
  -1  -1  -1   96.30    5.50
  -1  -1  -1  100.28    5.50
  -1  -1  -1   96.74    5.53
  -1  -1  -1   89.53    5.52
   1   1   1  111.69    5.52
   1   1   1   95.41    5.53
   1   1   1   96.76    5.50
   1   1   1   93.74    5.50
  -2  -1  -1   32.24    1.77
  -2  -1  -1   29.39    1.80
  -2  -1  -1   34.49    1.79
  -2  -1  -1   30.33    1.76
   2   1   1   28.86    1.78
   2   1   1   29.09    1.76
   2   1   1   32.19    1.77
  -3  -1  -1    0.21    0.07
  -3  -1  -1    0.06    0.10
  -3  -1  -1    0.07    0.13
   3   1   1    0.26    0.13
   3   1   1    0.17    0.08
  -4  -1  -1   64.26    3.47
  -4  -1  -1   60.22    3.44
  -4  -1  -1   62.67    3.49
  -4  -1  -1   59.91    3.43
   4   1   1   56.65    3.43
   4   1   1   60.47    3.44
   4   1   1   58.75    3.48
   4   1   1   57.85    3.44
  -5  -1  -1    7.67    0.53
  -5  -1  -1    6.43    0.55
  -5  -1  -1    6.34    0.57
   5   1   1    8.14    0.51
  -6  -1  -1    3.20    0.42
  -6  -1  -1    3.90    0.42
  -6  -1  -1    3.04    0.37
   6   1   1    3.13    0.37
   6   1   1    2.45    0.33
   6   1   1    2.96    0.44
  -7  -1  -1    0.63    0.28
  -7  -1  -1    1.13    0.31
  -7  -1  -1    0.30    0.24
   7   1   1    1.06    0.37
   7   1   1    0.54    0.32
   7   1   1    0.39    0.20
  -8  -1  -1    0.15    0.30
  -8  -1  -1    0.30    0.36
   8   1   1   -0.18    0.32
   8   1   1   -0.64    0.47
  -9  -1  -1    0.70    0.51
   9   1   1   -0.09    0.63
   9  -2  -1    1.48    0.68
  -9   2   1    0.52    0.61
  -9   2   1    0.19    0.43
   8  -2  -1    0.86    0.52
  -8   2   1    0.72    0.31
  -8   2   1    0.89    0.46
   7  -2  -1    2.89    0.54
  -7   2   1    3.01    0.41
  -7   2   1    2.59    0.51
   6  -2  -1    4.78    0.60
  -6   2   1    4.50    0.55
  -6   2   1    3.18    0.48
  -6   2   1    4.65    0.40
   5  -2  -1   21.88    1.41
   5  -2  -1   21.71    1.35
  -5   2   1   25.06    1.43
  -5   2   1   21.97    1.43
  -5   2   1   24.00    1.35
  -5   2   1   20.47    1.38
   4  -2  -1    0.39    0.17
   4  -2  -1    0.47    0.11
  -4   2   1    0.53    0.17
  -4   2   1    0.41    0.11
  -4   2   1    0.14    0.19
  -4   2   1    0.77    0.20
   3  -2  -1    3.69    0.24
   3  -2  -1    3.50    0.28
   3  -2  -1    4.19    0.35
  -3   2   1    4.39    0.37
  -3   2   1    3.87    0.36
  -3   2   1    3.91    0.24
  -3   2   1    4.42    0.34
  -3   2   1    3.82    0.27
   2  -2  -1    6.07    0.37
   2  -2  -1    6.28    0.39
   2  -2  -1    6.03    0.44
  -2   2   1    6.43    0.44
  -2   2   1    6.00    0.38
  -2   2   1    6.21    0.37
  -2   2   1    5.78    0.43
  -2   2   1    6.05    0.43
  -1   2   1  820.57   46.19
   0   2   1 1000.00   56.28
  -1  -2  -1    0.18    0.05
  -1  -2  -1    0.13    0.10
  -1  -2  -1    0.15    0.06
  -1  -2  -1    0.19    0.10
   1   2   1    0.26    0.06
   1   2   1    0.12    0.09
   1   2   1    0.09    0.10
   1   2   1    0.20    0.04
  -2  -2  -1   34.89    2.00
  -2  -2  -1   33.89    1.94
  -2  -2  -1   38.34    2.04
  -2  -2  -1   35.25    1.97
   2   2   1   32.99    2.00
   2   2   1   32.01    1.94
   2   2   1   32.80    1.99
   2   2   1   33.49    1.96
  -3  -2  -1    7.15    0.47
  -3  -2  -1    6.91    0.51
  -3  -2  -1    7.18    0.41
  -3  -2  -1    7.67    0.51
   3   2   1    6.73    0.45
   3   2   1    7.18    0.50
   3   2   1    6.04    0.49
   3   2   1    6.51    0.42
  -4  -2  -1   18.13    1.15
  -4  -2  -1   19.55    1.10
  -4  -2  -1   18.96    1.21
  -4  -2  -1   19.80    1.19
   4   2   1   17.80    1.16
   4   2   1   18.23    1.13
   4   2   1   20.45    1.11
   4   2   1   18.23    1.19
  -5  -2  -1    0.83    0.17
  -5  -2  -1    0.92    0.16
  -5  -2  -1    1.56    0.23
  -5  -2  -1    1.13    0.25
   5   2   1    1.33    0.24
   5   2   1    1.04    0.26
   5   2   1    0.78    0.20
  -6  -2  -1    7.41    0.64
  -6  -2  -1    8.22    0.53
  -6  -2  -1    7.34    0.54
   6   2   1    7.01    0.67
   6   2   1    8.48    0.71
  -7  -2  -1    2.49    0.29
  -7  -2  -1    3.32    0.45
   7   2   1    2.98    0.42
   7   2   1    3.56    0.50
   7   2   1    2.72    0.53
  -8  -2  -1    0.16    0.41
   8   2   1    0.65    0.51
   8   2   1   -0.17    0.46
  -9  -2  -1    0.01    0.48
   9   2   1   -0.58    0.62
   9  -3  -1    0.86    0.71
  -9   3   1    0.39    0.44
  -9   3   1   -0.33    0.63
   8  -3  -1    2.69    0.64
  -8   3   1    2.64    0.61
  -8   3   1    2.33    0.39
   7  -3  -1    0.95    0.48
  -7   3   1    1.29    0.47
  -7   3   1    1.62    0.30
   6  -3  -1    1.52    0.40
  -6   3   1    2.35    0.47
  -6   3   1    2.61    0.33
   5  -3  -1    9.44    0.76
   5  -3  -1    9.94    0.67
  -5   3   1    8.30    0.76
  -5   3   1    9.78    0.73
  -5   3   1    9.54    0.77
  -5   3   1   10.25    0.64
   4  -3  -1    7.93    0.65
   4  -3  -1    7.94    0.56
  -4   3   1    8.30    0.53
  -4   3   1    7.69    0.65
  -4   3   1    9.01    0.68
  -4   3   1    7.68    0.62
   3  -3  -1    3.62    0.37
   3  -3  -1    3.47    0.33
   3  -3  -1    3.90    0.26
  -3   3   1    3.84    0.39
  -3   3   1    3.31    0.27
  -3   3   1    3.95    0.37
  -3   3   1    3.56    0.23
  -3   3   1    3.05    0.36
   2  -3  -1   14.63    0.95
   2  -3  -1   15.60    0.94
   2  -3  -1   16.21    1.00
  -2   3   1   15.92    0.93
  -2   3   1   15.78    0.94
  -2   3   1   15.68    0.99
  -2   3   1   15.74    0.99
  -2   3   1   17.29    1.00
   1  -3  -1   11.29    0.72
   1  -3  -1   13.28    0.77
  -1   3   1   10.81    0.71
  -1   3   1   11.50    0.74
  -1   3   1   11.93    0.70
  -1   3   1   11.47    0.75
  -1   3   1   11.64    0.73
  -1   3   1   11.54    0.71
   0  -3  -1   19.29    1.12
   0  -3  -1   19.17    1.13
   0  -3  -1   18.10    1.15
   0   3   1   19.08    1.13
   0   3   1   18.90    1.14
   0   3   1   20.21    1.17
   0   3   1   18.91    1.16
   0   3   1   19.10    1.12
  -1  -3  -1   28.00    1.61
  -1  -3  -1   24.68    1.55
  -1  -3  -1   26.65    1.53
  -1  -3  -1   27.10    1.51
   1   3   1   24.77    1.54
   1   3   1   27.00    1.56
   1   3   1   26.99    1.50
   1   3   1   23.68    1.51
  -2  -3  -1    9.83    0.64
  -2  -3  -1   11.14    0.69
  -2  -3  -1    9.40    0.59
  -2  -3  -1   11.03    0.71
   2   3   1    9.93    0.64
   2   3   1    9.38    0.58
   2   3   1    9.90    0.67
   2   3   1    9.44    0.67
  -3  -3  -1   10.78    0.74
  -3  -3  -1   10.43    0.69
  -3  -3  -1   10.36    0.74
   3   3   1   10.34    0.72
   3   3   1   10.39    0.73
   3   3   1   10.96    0.66
  -4  -3  -1    3.66    0.46
  -4  -3  -1    3.32    0.45
  -4  -3  -1    4.01    0.39
   4   3   1    3.61    0.42
   4   3   1    3.80    0.45
   4   3   1    3.53    0.34
  -5  -3  -1    0.55    0.28
  -5  -3  -1    0.24    0.22
   5   3   1   -0.36    0.22
   5   3   1    0.67    0.34
  -6  -3  -1    1.14    0.33
   6   3   1    0.78    0.39
   6   3   1    0.81    0.40
  -7  -3  -1    3.98    0.55
   7   3   1    3.42    0.60
   7   3   1    2.89    0.55
  -8  -3  -1   -0.65    0.45
   8   3   1   -0.20    0.58
   8   3   1    0.00    0.60
   9  -4  -1   -0.72    0.65
  -9   4   1    0.67    0.76
  -9   4   1    0.11    0.46
   8  -4  -1    3.03    0.64
  -8   4   1    2.59    0.41
  -8   4   1    2.94    0.69
   7  -4  -1    0.29    0.45
  -7   4   1   -0.55    0.46
  -7   4   1   -0.06    0.25
   6  -4  -1    0.98    0.42
  -6   4   1    0.68    0.40
  -6   4   1    1.38    0.25
   5  -4  -1    0.85    0.24
   5  -4  -1    1.60    0.38
  -5   4   1    1.45    0.36
  -5   4   1    0.99    0.19
   4  -4  -1   18.62    1.22
   4  -4  -1   18.95    1.15
  -4   4   1   18.44    1.11
  -4   4   1   17.98    1.10
  -4   4   1   17.38    1.17
  -4   4   1   20.06    1.23
  -4   4   1   17.20    1.06
  -4   4   1   18.84    1.22
   3  -4  -1   35.80    2.08
   3  -4  -1   35.83    2.10
   3  -4  -1   34.42    2.16
  -3   4   1   34.60    2.14
  -3   4   1   36.93    2.08
  -3   4   1   36.24    2.06
  -3   4   1   37.43    2.16
  -3   4   1   35.51    2.17
   2  -4  -1   30.57    1.89
   2  -4  -1   32.80    1.95
  -2   4   1   32.26    1.94
  -2   4   1   32.81    1.88
  -2   4   1   32.90    1.94
  -2   4   1   32.97    1.90
  -2   4   1   32.72    1.88
  -2   4   1   31.68    1.93
   1  -4  -1  286.29   16.39
   1  -4  -1  288.61   16.36
  -1   4   1  304.08   16.38
  -1   4   1  291.97   16.39
  -1   4   1  289.36   16.36
  -1   4   1  280.36   16.34
  -1   4   1  282.49   16.33
  -1   4   1  293.03   16.35
   0  -4  -1   46.83    2.76
   0  -4  -1   44.98    2.79
   0   4   1   47.88    2.76
   0   4   1   48.18    2.78
   0   4   1   48.52    2.76
   0   4   1   49.12    2.78
   0   4   1   48.33    2.81
   0   4   1   49.50    2.82
  -1  -4  -1   -0.08    0.13
  -1  -4  -1   -0.13    0.12
  -1  -4  -1   -0.27    0.18
   1   4   1   -0.29    0.16
   1   4   1    0.15    0.09
   1   4   1    0.00    0.14
   1   4   1    0.03    0.11
  -2  -4  -1   10.00    0.75
  -2  -4  -1   10.80    0.70
  -2  -4  -1   10.99    0.76
   2   4   1    9.03    0.72
   2   4   1   10.63    0.64
   2   4   1   10.92    0.62
   2   4   1   10.67    0.66
   2   4   1   10.71    0.76
  -3  -4  -1    3.95    0.48
  -3  -4  -1    4.01    0.40
  -3  -4  -1    3.97    0.45
   3   4   1    3.71    0.33
   3   4   1    3.56    0.44
   3   4   1    4.67    0.47
  -4  -4  -1    6.58    0.66
  -4  -4  -1    7.32    0.60
   4   4   1    6.62    0.51
   4   4   1    7.68    0.65
  -5  -4  -1    4.78    0.60
  -5  -4  -1    4.98    0.68
   5   4   1    5.49    0.65
  -6  -4  -1    2.23    0.44
   6   4   1    1.53    0.47
   6   4   1    2.01    0.50
  -7  -4  -1   -0.39    0.39
   7   4   1    0.35    0.57
   7   4   1   -0.50    0.45
  -8  -4  -1    0.49    0.57
   8   4   1    0.48    0.59
   8   4   1    1.29    0.68
   8  -5  -1    1.49    0.71
  -8   5   1   -0.35    0.70
  -8   5   1    0.67    0.37
   7  -5  -1    1.79    0.57
  -7   5   1    2.06    0.57
  -7   5   1    1.31    0.34
   6  -5  -1    5.90    0.77
  -6   5   1    6.29    0.84
  -6   5   1    5.31    0.53
   5  -5  -1    4.29    0.65
  -5   5   1    5.46    0.44
  -5   5   1    4.78    0.67
  -5   5   1    4.56    0.31
  -5   5   1    4.83    0.33
   4  -5  -1    0.75    0.33
   4  -5  -1    1.41    0.27
  -4   5   1    1.27    0.21
  -4   5   1    1.26    0.34
  -4   5   1    0.96    0.15
  -4   5   1    1.20    0.22
   3  -5  -1   18.40    1.20
   3  -5  -1   17.52    1.10
  -3   5   1   17.80    1.18
  -3   5   1   15.66    1.28
  -3   5   1   17.94    1.21
  -3   5   1   17.77    1.08
  -3   5   1   17.81    1.12
   2  -5  -1    5.17    0.52
   2  -5  -1    4.73    0.44
  -2   5   1    4.81    0.39
  -2   5   1    5.21    0.52
  -2   5   1    5.14    0.50
  -2   5   1    5.10    0.41
  -2   5   1    5.44    0.43
  -2   5   1    4.47    0.51
   1  -5  -1   17.35    1.09
  -1   5   1   17.22    1.05
  -1   5   1   16.61    1.07
  -1   5   1   16.16    1.08
  -1   5   1   16.54    1.12
  -1   5   1   18.07    1.14
  -1   5   1   16.73    1.09
  -1   5   1   16.75    1.06
   0  -5  -1   -0.23    0.14
   0  -5  -1    0.17    0.20
   0   5   1   -0.10    0.25
   0   5   1    0.16    0.19
   0   5   1    0.15    0.15
   0   5   1    0.09    0.14
   0   5   1    0.33    0.25
   0   5   1    0.15    0.16
  -1  -5  -1    0.11    0.19
  -1  -5  -1    0.05    0.16
   1   5   1    0.07    0.13
   1   5   1    0.18    0.16
   1   5   1   -0.23    0.19
   1   5   1   -0.08    0.15
   1   5   1   -0.16    0.29
   1   5   1    0.15    0.23
  -2  -5  -1    1.56    0.32
  -2  -5  -1    1.59    0.32
  -2  -5  -1    1.13    0.24
   2   5   1    1.47    0.33
   2   5   1    1.45    0.17
   2   5   1    1.37    0.21
   2   5   1    1.62    0.19
  -3  -5  -1    5.46    0.63
  -3  -5  -1    4.22    0.50
   3   5   1    4.40    0.39
   3   5   1    4.90    0.57
  -4  -5  -1    0.47    0.29
  -4  -5  -1    0.33    0.35
   4   5   1    0.47    0.35
  -5  -5  -1   -0.11    0.35
   5   5   1    0.57    0.45
   5   5   1   -0.07    0.47
  -6  -5  -1    0.25    0.44
   6   5   1   -0.14    0.53
   6   5   1   -0.72    0.46
  -7  -5  -1    1.01    0.56
   7   5   1    0.47    0.69
   7   5   1    1.45    0.62
   8  -6  -1   -0.65    0.71
  -8   6   1    0.61    0.77
  -8   6   1   -0.46    0.40
   7  -6  -1    1.37    0.60
  -7   6   1    0.37    0.63
  -7   6   1    0.14    0.33
   6  -6  -1    0.88    0.50
  -6   6   1    0.68    0.51
  -6   6   1    1.17    0.29
   5  -6  -1    0.61    0.44
  -5   6   1    1.18    0.47
  -5   6   1    0.58    0.20
  -5   6   1    0.22    0.12
  -5   6   1    0.15    0.21
   4  -6  -1   17.26    1.27
  -4   6   1   16.81    1.05
  -4   6   1   19.57    1.27
  -4   6   1   16.59    1.16
  -4   6   1   17.36    1.11
  -4   6   1   16.64    1.08
   3  -6  -1    0.86    0.37
   3  -6  -1    0.83    0.25
  -3   6   1    0.69    0.21
  -3   6   1    0.60    0.28
  -3   6   1    1.09    0.36
  -3   6   1    0.65    0.20
   2  -6  -1    8.59    0.71
  -2   6   1    8.15    0.68
  -2   6   1    8.44    0.65
  -2   6   1    8.79    0.61
  -2   6   1    7.64    0.63
  -2   6   1    8.68    0.72
   1  -6  -1    0.05    0.23
  -1   6   1    0.00    0.20
  -1   6   1    0.48    0.30
  -1   6   1    0.00    0.21
  -1   6   1    0.13    0.26
  -1   6   1    0.06    0.22
  -1   6   1   -0.18    0.17
   0  -6  -1   -0.16    0.24
   0  -6  -1   -0.04    0.20
   0   6   1    0.10    0.21
   0   6   1    0.02    0.29
   0   6   1    0.01    0.19
   0   6   1   -0.29    0.23
  -1  -6  -1    3.76    0.47
  -1  -6  -1    4.40    0.53
   1   6   1    4.67    0.39
   1   6   1    4.36    0.43
   1   6   1    4.56    0.42
   1   6   1    4.23    0.55
  -2  -6  -1    2.33    0.34
  -2  -6  -1    2.85    0.46
   2   6   1    2.31    0.46
   2   6   1    2.04    0.25
   2   6   1    1.54    0.24
   2   6   1    1.58    0.26
  -3  -6  -1   -0.18    0.34
  -3  -6  -1    0.52    0.31
   3   6   1   -0.42    0.37
  -4  -6  -1    8.36    0.88
  -4  -6  -1    6.08    0.76
   4   6   1    6.22    0.82
  -5  -6  -1    6.69    0.88
   5   6   1    7.09    1.01
   5   6   1    5.86    0.86
  -6  -6  -1    0.02    0.57
   6   6   1    1.46    0.69
   6   6   1   -0.38    0.61
   7  -7  -1    0.09    0.73
  -7   7   1    0.96    0.78
  -7   7   1   -0.14    0.37
   6  -7  -1    1.19    0.63
  -6   7   1    0.33    0.32
  -6   7   1    1.74    0.67
   5  -7  -1    1.98    0.58
  -5   7   1    2.46    0.58
  -5   7   1    1.20    0.27
  -5   7   1    1.85    0.33
   4  -7  -1    3.99    0.64
  -4   7   1    4.43    0.61
  -4   7   1    3.91    0.43
  -4   7   1    4.15    0.49
  -4   7   1    5.62    0.75
   3  -7  -1    5.24    0.76
  -3   7   1    5.86    0.63
  -3   7   1    5.07    0.62
  -3   7   1    4.49    0.50
  -3   7   1    4.40    0.51
  -3   7   1    4.37    0.48
   2  -7  -1    2.30    0.42
  -2   7   1    4.26    0.52
  -2   7   1    3.83    0.60
  -2   7   1    3.24    0.42
  -2   7   1    2.67    0.46
   1  -7  -1    2.15    0.45
  -1   7   1    2.80    0.52
  -1   7   1    3.21    0.50
  -1   7   1    2.03    0.36
  -1   7   1    2.37    0.36
  -1   7   1    3.41    0.45
   0  -7  -1    0.19    0.33
   0  -7  -1    0.66    0.29
   0   7   1    0.18    0.30
   0   7   1    0.32    0.25
   0   7   1    0.34    0.40
   0   7   1   -0.36    0.25
  -1  -7  -1   -0.52    0.32
  -1  -7  -1    0.45    0.30
   1   7   1    0.21    0.28
   1   7   1    0.23    0.21
   1   7   1    0.92    0.39
   1   7   1    0.10    0.27
  -2  -7  -1    0.46    0.40
  -2  -7  -1    0.33    0.32
   2   7   1    0.46    0.45
   2   7   1    0.21    0.17
   2   7   1   -0.05    0.23
  -3  -7  -1   -0.13    0.39
   3   7   1    0.54    0.50
   3   7   1    0.00    0.47
  -4  -7  -1    1.01    0.50
   4   7   1    0.39    0.61
   4   7   1   -0.18    0.54
  -5  -7  -1    0.12    0.57
   5   7   1    0.29    0.67
   5   7   1    0.37    0.63
   6  -8  -1    0.19    0.80
  -6   8   1   -0.65    0.33
  -6   8   1    0.17    0.71
   5  -8  -1    0.43    0.67
  -5   8   1   -0.02    0.31
  -5   8   1   -0.35    0.63
   4  -8  -1    0.86    0.58
  -4   8   1   -0.25    0.53
  -4   8   1    0.72    0.30
  -4   8   1    0.49    0.40
  -3   8   1    0.75    0.59
  -3   8   1    0.30    0.41
  -3   8   1    0.61    0.29
  -3   8   1    0.17    0.47
  -2   8   1    0.19    0.28
  -2   8   1    0.23    0.56
  -2   8   1   -0.08    0.42
  -2   8   1    0.06    0.35
  -1   8   1    1.31    0.57
  -1   8   1    1.91    0.42
  -1   8   1    1.44    0.36
  -1   8   1    2.44    0.53
   0   8   1   -0.27    0.32
   0   8   1    0.08    0.30
   0   8   1    0.08    0.50
   0   8   1   -0.01    0.50
  -1  -8  -1   -0.26    0.38
   1   8   1    0.20    0.49
   1   8   1    0.26    0.53
   1   8   1    0.08    0.28
  -2  -8  -1    0.20    0.44
   2   8   1   -0.17    0.57
   2   8   1    0.10    0.53
  -3  -8  -1    1.77    0.56
   3   8   1    0.78    0.65
   3   8   1    1.58    0.66
   4   8   1    5.45    0.84
   4   8   1    4.65    0.85
  -4   9   1    0.66    0.59
  -4   9   1    0.92    0.34
  -4   9   1   -1.29    0.81
  -4   9   1    0.22    0.57
  -3   9   1    1.04    0.60
  -3   9   1    0.85    0.72
  -3   9   1    0.07    0.33
  -3   9   1    0.01    0.53
  -2   9   1    0.30    0.35
  -2   9   1    2.00    0.71
  -2   9   1   -0.93    0.58
  -2   9   1    1.04    0.52
  -1   9   1   -0.51    0.63
  -1   9   1    0.53    0.38
  -1   9   1   -0.51    0.44
  -1   9   1    0.00    0.62
   0   9   1   -0.08    0.66
   0   9   1    1.09    0.67
   0   9   1    0.38    0.41
   0   9   1    0.37    0.38
  -1  -9  -1    0.10    0.48
   1   9   1    0.20    0.69
   1   9   1    0.26    0.68
  -2  -9  -1   -0.32    0.54
   2   9   1    1.03    0.79
   2   9   1    0.21    0.72
  -3  -9  -1    0.40    0.57
   3   9   1   -0.24    0.79
   3   9   1   -0.08    0.76
   2  10  -2    0.68    0.69
   2  10  -2    0.73    0.79
  -2 -10   2   -0.69    0.66
   1  10  -2    0.01    0.75
   1  10  -2   -0.38    0.65
  -1 -10   2    1.05    0.67
   0  10  -2    0.41    0.71
   0  10  -2   -0.72    0.52
   0  10  -2   -1.06    0.61
   0  10  -2    0.34    0.42
  -1  10  -2   -0.22    0.49
  -1  10  -2    1.31    0.64
  -1  10  -2   -0.11    0.51
  -1  10  -2    0.79    0.65
  -2  10  -2    0.94    0.60
  -2  10  -2   -0.23    0.58
  -2  10  -2   -0.17    0.48
  -2  10  -2    0.89    0.68
  -3  10  -2    0.94    0.53
  -3  10  -2   -0.16    0.59
  -3  10  -2    0.15    0.44
  -3  10  -2   -0.59    0.70
   4   9  -2   -0.59    0.66
   4   9  -2   -1.11    0.72
  -4  -9   2    0.21    0.62
   3   9  -2   -0.79    0.71
   3   9  -2    0.80    0.59
  -3  -9   2   -0.47    0.58
   2   9  -2    0.33    0.53
   2   9  -2   -0.43    0.59
  -2  -9   2    0.27    0.54
   1   9  -2    0.00    0.57
   1   9  -2    0.10    0.50
   1   9  -2   -0.07    0.28
  -1  -9   2    0.45    0.49
   0   9  -2   -0.34    0.48
   0   9  -2    0.08    0.43
   0   9  -2   -0.42    0.51
   0   9  -2    0.02    0.35
  -1   9  -2    0.65    0.51
  -1   9  -2   -0.02    0.42
  -1   9  -2   -0.20    0.45
  -1   9  -2   -0.03    0.43
  -2   9  -2    3.01    0.62
  -2   9  -2    3.00    0.53
  -2   9  -2    2.75    0.58
  -2   9  -2    2.39    0.48
  -3   9  -2    1.76    0.63
  -3   9  -2    2.12    0.51
  -3   9  -2    1.95    0.45
  -3   9  -2    2.38    0.65
  -4   9  -2    0.74    0.36
  -4   9  -2    0.49    0.40
  -4   9  -2    0.33    0.60
  -4   9  -2    0.43    0.63
  -5   9  -2   -0.84    0.72
  -5   9  -2    0.38    0.43
   5  -9   2    0.87    0.69
   5   8  -2    0.75    0.65
   5   8  -2    1.12    0.80
  -5  -8   2    1.45    0.68
   4   8  -2   -0.79    0.61
   4   8  -2    0.39    0.52
  -4  -8   2    0.25    0.52
   3   8  -2    0.52    0.54
   3   8  -2    0.33    0.46
  -3  -8   2   -0.22    0.44
   2   8  -2    0.92    0.44
   2   8  -2   -0.10    0.48
   2   8  -2    0.14    0.19
  -2  -8   2    0.76    0.41
   1   8  -2    0.06    0.25
   1   8  -2   -0.15    0.28
   1   8  -2    0.06    0.38
   1   8  -2    0.48    0.46
  -1  -8   2    0.47    0.40
   0   8  -2    0.58    0.44
   0   8  -2    0.39    0.40
   0   8  -2    0.17    0.29
   0   8  -2    0.30    0.37
   0  -8   2   -0.13    0.37
  -1   8  -2    1.45    0.44
  -1   8  -2    0.85    0.35
  -1   8  -2    0.98    0.42
  -1   8  -2    0.50    0.35
  -2   8  -2   -0.53    0.38
  -2   8  -2    0.29    0.30
  -2   8  -2   -0.46    0.32
  -2   8  -2    0.28    0.45
  -3   8  -2   -1.06    0.45
  -3   8  -2    0.03    0.29
  -3   8  -2   -0.56    0.42
  -3   8  -2   -0.14    0.31
  -3   8  -2   -1.01    0.40
  -4   8  -2    0.31    0.56
  -4   8  -2    0.01    0.32
  -4   8  -2    0.21    0.29
   4  -8   2   -0.12    0.47
  -5   8  -2    0.28    0.66
  -5   8  -2   -0.18    0.34
   5  -8   2   -0.02    0.55
  -6   8  -2    0.22    0.39
  -6   8  -2    0.30    0.83
   6  -8   2    1.70    0.68
   6   7  -2    1.18    0.73
   6   7  -2   -0.29    0.60
  -6  -7   2    0.49    0.65
   5   7  -2    2.18    0.56
   5   7  -2    1.89    0.63
  -5  -7   2    2.02    0.57
   4   7  -2    0.11    0.44
   4   7  -2    0.17    0.47
  -4  -7   2    0.28    0.44
   3   7  -2    1.87    0.42
   3   7  -2    0.52    0.46
  -3  -7   2    1.79    0.46
   2   7  -2    0.49    0.18
   2   7  -2    0.52    0.41
   2   7  -2    0.58    0.18
   2   7  -2    0.47    0.33
  -2  -7   2    0.14    0.35
   1   7  -2    2.23    0.47
   1   7  -2    2.47    0.30
   1   7  -2    2.52    0.32
   1   7  -2    2.19    0.47
   1   7  -2    2.24    0.38
  -1  -7   2    2.20    0.41
   0   7  -2   -0.10    0.30
   0   7  -2   -0.03    0.27
   0   7  -2    0.00    0.23
   0   7  -2    0.10    0.26
   0   7  -2    0.04    0.32
   0  -7   2    0.08    0.27
  -1   7  -2    0.43    0.27
  -1   7  -2   -0.43    0.29
  -1   7  -2   -0.09    0.35
  -1   7  -2   -0.33    0.29
  -1   7  -2    0.25    0.28
  -1   7  -2   -0.04    0.26
  -1   7  -2   -0.24    0.24
  -2   7  -2    2.57    0.37
  -2   7  -2    3.31    0.45
  -2   7  -2    2.98    0.48
  -2   7  -2    2.47    0.38
  -2   7  -2    3.75    0.46
  -2   7  -2    3.02    0.42
  -3   7  -2    0.21    0.44
  -3   7  -2    0.07    0.40
  -3   7  -2   -0.10    0.25
  -3   7  -2   -0.05    0.23
  -3   7  -2   -0.04    0.21
   3  -7   2    0.47    0.33
  -4   7  -2    0.14    0.21
  -4   7  -2    0.38    0.49
  -4   7  -2   -0.13    0.25
  -4   7  -2    0.55    0.23
   4  -7   2   -0.19    0.37
  -5   7  -2    1.18    0.19
  -5   7  -2    1.73    0.61
  -5   7  -2    1.46    0.34
   5  -7   2    1.24    0.46
  -6   7  -2   -0.44    0.61
  -6   7  -2    0.02    0.33
   6  -7   2    0.23    0.52
  -7   7  -2    0.49    0.38
  -7   7  -2    0.70    0.80
   7  -7   2    2.47    0.69
   7   6  -2    1.06    0.68
   7   6  -2    0.52    0.66
  -7  -6   2    0.33    0.65
   6   6  -2    0.35    0.57
   6   6  -2    0.20    0.50
  -6  -6   2    0.19    0.49
   5   6  -2   -0.08    0.40
   5   6  -2   -0.18    0.45
  -5  -6   2   -0.36    0.40
   4   6  -2    0.40    0.33
   4   6  -2   -0.18    0.37
  -4  -6   2    0.52    0.34
   3   6  -2    3.66    0.48
   3   6  -2    4.84    0.64
  -3  -6   2    4.04    0.50
   2   6  -2    7.83    0.62
   2   6  -2    7.59    0.74
   2   6  -2    8.10    0.51
   2   6  -2    7.64    0.64
   2   6  -2    7.36    0.50
  -2  -6   2    7.84    0.67
  -2  -6   2    7.37    0.64
   1   6  -2    0.17    0.22
   1   6  -2   -0.12    0.17
   1   6  -2   -0.04    0.27
   1   6  -2    0.11    0.17
   1   6  -2    0.09    0.28
   1   6  -2   -0.32    0.26
   1   6  -2   -0.11    0.20
  -1  -6   2    0.19    0.22
   0   6  -2    2.66    0.34
   0   6  -2    3.50    0.43
   0   6  -2    2.57    0.37
   0   6  -2    2.94    0.37
   0   6  -2    2.35    0.35
   0   6  -2    2.42    0.33
   0   6  -2    2.58    0.31
   0  -6   2    2.00    0.31
  -1   6  -2    1.27    0.27
  -1   6  -2    1.60    0.28
  -1   6  -2    0.79    0.25
  -1   6  -2    1.34    0.27
  -1   6  -2    1.83    0.30
  -1   6  -2    1.41    0.29
  -1   6  -2    1.64    0.29
  -1   6  -2    1.02    0.25
  -2   6  -2   -0.02    0.19
  -2   6  -2    0.29    0.25
  -2   6  -2    0.43    0.21
  -2   6  -2    0.37    0.24
  -2   6  -2    0.90    0.28
  -2   6  -2    0.34    0.20
   2  -6   2    0.62    0.23
   2  -6   2    0.28    0.27
  -3   6  -2    2.60    0.34
  -3   6  -2    2.13    0.42
  -3   6  -2    2.73    0.37
  -3   6  -2    2.84    0.38
  -3   6  -2    2.63    0.30
  -3   6  -2    2.55    0.36
   3  -6   2    2.94    0.41
  -4   6  -2   -0.13    0.18
  -4   6  -2   -0.48    0.48
  -4   6  -2    0.11    0.20
  -4   6  -2    0.16    0.40
  -4   6  -2    0.13    0.15
   4  -6   2   -0.05    0.28
  -5   6  -2    0.14    0.24
  -5   6  -2   -0.46    0.46
  -5   6  -2    0.05    0.10
  -5   6  -2   -0.04    0.08
   5  -6   2    0.21    0.38
  -6   6  -2    0.76    0.53
  -6   6  -2    0.03    0.28
   6  -6   2    0.18    0.42
  -7   6  -2    0.49    0.72
  -7   6  -2    1.26    0.38
   7  -6   2    1.68    0.61
  -8   6  -2    3.47    0.96
  -8   6  -2    3.71    0.57
   8  -6   2    3.54    0.82
   8   5  -2    1.74    0.70
   8   5  -2   -0.58    0.66
  -8  -5   2   -0.84    0.57
   7   5  -2    0.00    0.53
   7   5  -2   -0.57    0.52
  -7  -5   2   -0.75    0.44
   6   5  -2    2.01    0.52
   6   5  -2    2.66    0.52
  -6  -5   2    2.46    0.50
   5   5  -2    1.82    0.45
   5   5  -2    1.96    0.42
  -5  -5   2    2.41    0.43
   4   5  -2    0.14    0.26
   4   5  -2   -0.39    0.29
  -4  -5   2   -0.46    0.24
   3   5  -2    0.18    0.26
   3   5  -2    0.18    0.20
   3   5  -2   -0.20    0.17
  -3  -5   2    0.17    0.23
  -3  -5   2    0.15    0.20
   2   5  -2   27.96    1.71
   2   5  -2   27.16    1.72
   2   5  -2   27.56    1.60
   2   5  -2   27.92    1.59
   2   5  -2   27.27    1.66
   2   5  -2   28.32    1.68
  -2  -5   2   27.88    1.70
  -2  -5   2   27.62    1.69
   1   5  -2   43.38    2.55
   1   5  -2   43.79    2.51
   1   5  -2   37.31    2.46
   1   5  -2   43.39    2.50
   1   5  -2   44.52    2.53
  -1  -5   2   43.07    2.51
  -1  -5   2   43.39    2.47
  -1  -5   2   43.34    2.52
   0   5  -2    0.62    0.20
   0   5  -2    0.43    0.19
   0   5  -2    0.57    0.20
   0   5  -2    0.40    0.18
   0   5  -2    0.58    0.18
   0   5  -2    0.50    0.18
   0  -5   2    0.39    0.19
   0  -5   2    0.49    0.18
  -1   5  -2    0.29    0.16
  -1   5  -2    0.22    0.17
  -1   5  -2    0.52    0.18
  -1   5  -2    0.27    0.20
  -1   5  -2   -0.06    0.16
  -1   5  -2    0.62    0.19
  -1   5  -2    0.19    0.17
   1  -5   2    0.23    0.19
  -2   5  -2    3.20    0.36
  -2   5  -2    3.30    0.39
  -2   5  -2    3.49    0.41
  -2   5  -2    3.66    0.35
  -2   5  -2    3.61    0.35
   2  -5   2    3.79    0.42
   2  -5   2    3.52    0.38
  -3   5  -2   28.29    1.63
  -3   5  -2   28.98    1.67
  -3   5  -2   27.81    1.62
  -3   5  -2   26.35    1.71
  -3   5  -2   27.37    1.69
  -3   5  -2   27.59    1.67
   3  -5   2   27.62    1.73
   3  -5   2   26.89    1.69
  -4   5  -2    0.79    0.15
  -4   5  -2    0.66    0.18
  -4   5  -2    0.67    0.12
  -4   5  -2    1.04    0.26
   4  -5   2    0.53    0.24
   4  -5   2    0.92    0.34
   4  -5   2    0.72    0.27
  -5   5  -2    3.31    0.55
  -5   5  -2    3.31    0.42
   5  -5   2    3.81    0.55
  -6   5  -2    0.19    0.50
  -6   5  -2    0.43    0.25
   6  -5   2    0.26    0.37
  -7   5  -2    9.77    0.82
  -7   5  -2   11.42    1.15
   7  -5   2    9.80    0.99
  -8   5  -2    5.84    0.88
  -8   5  -2    3.19    0.49
   8  -5   2    3.30    0.73
   8   4  -2   -0.06    0.58
   8   4  -2   -1.21    0.60
  -8  -4   2   -0.14    0.54
   7   4  -2    0.33    0.44
   7   4  -2   -0.14    0.44
  -7  -4   2   -0.13    0.42
   6   4  -2    6.13    0.68
   6   4  -2    5.86    0.66
  -6  -4   2    5.54    0.69
   5   4  -2    3.84    0.50
   5   4  -2    3.55    0.48
  -5  -4   2    4.14    0.53
   4   4  -2    2.11    0.33
   4   4  -2    2.61    0.36
   4   4  -2    2.60    0.34
   4   4  -2    1.68    0.33
  -4  -4   2    1.77    0.30
  -4  -4   2    1.80    0.31
   3   4  -2   19.43    1.19
   3   4  -2   19.34    1.22
   3   4  -2   20.48    1.24
   3   4  -2   18.00    1.16
  -3  -4   2   18.98    1.20
  -3  -4   2   18.41    1.20
   2   4  -2   53.82    3.16
   2   4  -2   63.49    3.27
   2   4  -2   53.63    3.22
   2   4  -2   56.02    3.26
   2   4  -2   56.17    3.23
  -2  -4   2   54.89    3.23
  -2  -4   2   55.66    3.24
  -2  -4   2   53.82    3.17
   1   4  -2    1.15    0.18
   1   4  -2    1.28    0.18
   1   4  -2    1.17    0.21
   1   4  -2    1.56    0.18
   1   4  -2    0.96    0.19
  -1  -4   2    1.39    0.16
  -1  -4   2    1.58    0.23
  -1  -4   2    1.18    0.19
   0   4  -2   15.58    0.93
   0   4  -2   13.67    0.89
   0   4  -2   15.23    0.88
   0   4  -2   14.75    0.90
   0   4  -2   12.07    0.87
   0   4  -2   14.18    0.87
   0  -4   2   14.14    0.88
   0  -4   2   13.88    0.89
  -1   4  -2    0.09    0.26
  -1   4  -2    0.09    0.12
  -1   4  -2   -0.07    0.12
  -1   4  -2    0.00    0.12
  -1   4  -2    0.13    0.11
  -1   4  -2    0.01    0.11
   1  -4   2   -0.06    0.12
   1  -4   2    0.09    0.11
  -2   4  -2    7.46    0.51
  -2   4  -2    7.62    0.51
  -2   4  -2    6.85    0.50
  -2   4  -2    7.15    0.55
  -2   4  -2    7.18    0.52
  -2   4  -2    7.43    0.49
   2  -4   2    7.24    0.54
   2  -4   2    7.29    0.51
  -3   4  -2    8.75    0.66
  -3   4  -2    9.07    0.59
  -3   4  -2    9.08    0.54
  -3   4  -2    8.54    0.59
  -3   4  -2    8.35    0.55
   3  -4   2    8.62    0.62
   3  -4   2    8.37    0.67
   3  -4   2    8.42    0.62
  -4   4  -2    7.49    0.44
  -4   4  -2    6.94    0.55
  -4   4  -2    7.59    0.52
  -4   4  -2    7.76    0.59
  -4   4  -2    6.73    0.42
   4  -4   2    5.75    0.63
   4  -4   2    7.54    0.58
   4  -4   2    7.48    0.56
  -5   4  -2   18.37    1.13
  -5   4  -2   16.77    1.17
   5  -4   2   20.21    1.28
   5  -4   2   17.69    1.20
  -6   4  -2    3.02    0.52
  -6   4  -2    2.91    0.39
   6  -4   2    2.82    0.49
  -7   4  -2    1.04    0.56
  -7   4  -2    1.10    0.31
   7  -4   2    0.36    0.41
  -8   4  -2    1.82    0.40
  -8   4  -2    1.35    0.69
   8  -4   2    1.35    0.57
  -9   4  -2    0.85    0.44
  -9   4  -2    0.84    0.70
   9  -4   2    0.77    0.75
   9   3  -2    1.64    0.68
  -9  -3   2    0.71    0.56
   8   3  -2   -0.24    0.52
   8   3  -2   -0.28    0.48
  -8  -3   2    0.38    0.42
   7   3  -2    0.64    0.46
   7   3  -2   -0.21    0.37
  -7  -3   2    0.55    0.34
  -7  -3   2    0.26    0.11
   6   3  -2    0.53    0.35
   6   3  -2   -0.75    0.39
   6   3  -2    0.42    0.32
  -6  -3   2    0.53    0.09
  -6  -3   2    0.48    0.11
  -6  -3   2    0.84    0.31
   5   3  -2    4.37    0.49
   5   3  -2    3.57    0.50
   5   3  -2    3.96    0.47
  -5  -3   2    3.28    0.44
   4   3  -2    9.07    0.61
   4   3  -2    9.15    0.68
   4   3  -2    9.45    0.68
   4   3  -2    9.24    0.69
  -4  -3   2    9.23    0.67
  -4  -3   2   10.14    0.67
   3   3  -2    0.36    0.12
   3   3  -2    0.60    0.16
   3   3  -2    0.69    0.18
   3   3  -2    0.40    0.18
  -3  -3   2    0.62    0.16
  -3  -3   2    0.44    0.16
   2   3  -2   85.91    5.04
   2   3  -2   86.63    4.97
   2   3  -2   98.89    5.02
   2   3  -2   88.36    5.02
   2   3  -2   82.09    5.03
  -2  -3   2   85.55    4.97
  -2  -3   2   88.84    5.03
  -2  -3   2   88.24    5.02
   1   3  -2   24.94    1.49
   1   3  -2   24.93    1.46
   1   3  -2   26.17    1.49
   1   3  -2   24.56    1.44
   1   3  -2   24.73    1.47
  -1  -3   2   25.42    1.48
  -1  -3   2   25.23    1.45
  -1  -3   2   24.62    1.46
   0   3  -2    0.00    0.09
   0   3  -2    0.11    0.08
   0   3  -2    0.00    0.08
   0   3  -2    0.13    0.10
   0   3  -2    0.02    0.07
   0  -3   2   -0.24    0.09
   0  -3   2   -0.03    0.09
   0  -3   2    0.06    0.08
  -1   3  -2    8.76    0.59
  -1   3  -2    9.30    0.60
  -1   3  -2    9.32    0.57
  -1   3  -2    9.32    0.59
  -1   3  -2    9.28    0.57
   1  -3   2    8.92    0.56
   1  -3   2    8.98    0.57
   1  -3   2    9.06    0.60
  -2   3  -2   47.54    2.70
  -2   3  -2   45.69    2.68
  -2   3  -2   45.65    2.71
   2  -3   2   46.04    2.69
   2  -3   2   50.83    2.75
  -3   3  -2    5.34    0.39
  -3   3  -2    5.37    0.32
  -3   3  -2    5.68    0.40
  -3   3  -2    5.75    0.45
   3  -3   2    5.29    0.41
   3  -3   2    5.19    0.34
   3  -3   2    5.01    0.46
   3  -3   2    4.92    0.41
  -4   3  -2    8.64    0.67
  -4   3  -2    8.87    0.59
  -4   3  -2    8.84    0.61
   4  -3   2    8.71    0.62
   4  -3   2    8.72    0.69
   4  -3   2    8.92    0.63
  -5   3  -2   11.07    0.70
  -5   3  -2    9.33    0.72
  -5   3  -2    9.48    0.79
   5  -3   2   10.44    0.77
   5  -3   2   10.18    0.73
   5  -3   2   11.93    0.83
  -6   3  -2    0.29    0.22
   6  -3   2    0.00    0.29
   6  -3   2    0.15    0.33
  -7   3  -2   30.29    1.79
  -7   3  -2   30.14    1.94
   7  -3   2   26.91    1.88
  -8   3  -2    2.93    0.44
  -8   3  -2    4.49    0.72
   8  -3   2    4.10    0.68
  -9   3  -2   -0.41    0.42
  -9   3  -2    0.37    0.72
   9  -3   2    0.52    0.71
   9   2  -2   -0.23    0.69
  -9  -2   2    0.06    0.50
   8   2  -2    0.51    0.53
   8   2  -2    0.92    0.37
  -8  -2   2    1.34    0.43
   7   2  -2    1.55    0.36
   7   2  -2    1.79    0.36
   7   2  -2    2.43    0.50
  -7  -2   2    0.95    0.38
  -7  -2   2    1.91    0.23
  -7  -2   2    1.57    0.35
   6   2  -2   55.00    3.16
   6   2  -2   52.94    3.11
   6   2  -2   53.22    3.11
  -6  -2   2   52.81    3.06
  -6  -2   2   53.52    3.12
  -6  -2   2   50.65    3.03
   5   2  -2   34.62    2.02
   5   2  -2   36.49    2.06
   5   2  -2   36.75    2.06
   5   2  -2   36.02    2.08
  -5  -2   2   33.83    1.98
  -5  -2   2   35.01    2.06
  -5  -2   2   32.62    2.05
  -5  -2   2   30.74    2.00
   4   2  -2    1.96    0.28
   4   2  -2    2.24    0.31
   4   2  -2    2.19    0.29
   4   2  -2    2.02    0.22
  -4  -2   2    1.77    0.17
  -4  -2   2    1.95    0.26
  -4  -2   2    2.01    0.22
  -4  -2   2    1.82    0.26
   3   2  -2    9.10    0.59
   3   2  -2    8.49    0.57
   3   2  -2    9.64    0.62
   3   2  -2    9.53    0.61
   3   2  -2    9.18    0.54
  -3  -2   2    8.25    0.61
  -3  -2   2    8.42    0.59
  -3  -2   2    9.22    0.53
   2   2  -2  143.32    7.75
   2   2  -2  129.51    7.75
   2   2  -2  143.90    7.72
   2   2  -2  145.15    7.77
  -2  -2   2  130.49    7.72
  -2  -2   2  121.06    7.75
  -2  -2   2  144.76    7.77
  -2  -2   2  138.00    7.75
   1   2  -2   81.62    4.54
   1   2  -2   76.44    4.52
   1   2  -2   88.64    4.55
   1   2  -2   76.27    4.51
  -1  -2   2   80.66    4.54
  -1  -2   2   79.21    4.52
  -1  -2   2   77.01    4.52
  -1  -2   2   79.53    4.55
   0   2  -2   -0.06    0.04
   0   2  -2    0.05    0.06
   0   2  -2    0.08    0.06
   0   2  -2    0.03    0.05
   0   2  -2    0.02    0.07
   0  -2   2    0.10    0.06
   0  -2   2   -0.06    0.06
  -1   2  -2   82.32    4.55
  -1   2  -2   79.02    4.58
  -1   2  -2   81.05    4.55
  -1   2  -2   76.60    4.57
   1  -2   2   83.90    4.57
   1  -2   2   79.93    4.55
   1  -2   2   79.23    4.58
   1  -2   2   81.22    4.55
  -2   2  -2  129.83    7.53
  -2   2  -2  150.58    7.59
  -2   2  -2  124.50    7.55
  -2   2  -2  128.21    7.55
   2  -2   2  150.78    7.59
   2  -2   2  129.67    7.56
   2  -2   2  128.17    7.55
   2  -2   2  127.37    7.53
  -3   2  -2   11.46    0.84
  -3   2  -2   12.31    0.76
  -3   2  -2   13.88    0.81
  -3   2  -2   12.91    0.80
   3  -2   2   13.53    0.82
   3  -2   2   13.70    0.76
   3  -2   2   14.00    0.82
   3  -2   2   13.73    0.86
  -4   2  -2   61.54    3.38
  -4   2  -2   58.24    3.32
  -4   2  -2   57.84    3.27
  -4   2  -2   56.47    3.33
   4  -2   2   56.05    3.27
   4  -2   2   56.34    3.35
   4  -2   2   58.90    3.34
  -5   2  -2    0.36    0.18
  -5   2  -2    0.06    0.14
  -5   2  -2    0.01    0.24
   5  -2   2    0.33    0.27
   5  -2   2    0.36    0.24
   5  -2   2    0.28    0.16
  -6   2  -2    0.98    0.23
  -6   2  -2    1.07    0.32
   6  -2   2    0.83    0.32
   6  -2   2    1.77    0.36
  -7   2  -2    7.73    0.80
  -7   2  -2    7.24    0.61
   7  -2   2    6.16    0.72
  -8   2  -2    0.55    0.32
  -8   2  -2    0.84    0.51
   8  -2   2    0.43    0.46
  -9   2  -2    0.91    0.67
  -9   2  -2    0.52    0.44
   9  -2   2    1.00    0.73
   9   1  -2    0.78    0.67
  -9  -1   2    0.37    0.47
   8   1  -2   -0.13    0.48
   8   1  -2    0.30    0.26
   7   1  -2   11.18    0.82
   7   1  -2   10.26    0.97
   7   1  -2   12.90    0.82
  -7  -1   2   12.73    0.88
  -7  -1   2   11.96    0.88
  -7  -1   2   11.32    0.82
   6   1  -2   10.88    0.75
   6   1  -2   10.93    0.87
  -6  -1   2   12.33    0.81
  -6  -1   2   10.59    0.74
   5   1  -2    2.25    0.31
   5   1  -2    1.61    0.23
   5   1  -2    2.04    0.24
  -5  -1   2    2.22    0.27
  -5  -1   2    2.09    0.26
  -5  -1   2    1.87    0.25
  -5  -1   2    2.07    0.29
   4   1  -2    5.62    0.43
   4   1  -2    5.33    0.41
   4   1  -2    5.49    0.39
  -4  -1   2    4.76    0.39
  -4  -1   2    5.58    0.37
  -4  -1   2    4.55    0.40
   3   1  -2   12.68    0.81
   3   1  -2   13.15    0.81
   3   1  -2   12.98    0.83
  -3  -1   2   14.07    0.80
  -3  -1   2   14.07    0.83
   2   1  -2    4.60    0.30
   2   1  -2    4.75    0.29
  -2  -1   2    4.11    0.30
  -2  -1   2    4.69    0.29
   1   1  -2   83.45    5.01
   1   1  -2   87.27    5.02
   1   1  -2   96.16    5.01
   1   1  -2   94.53    5.02
  -1  -1   2   85.75    5.01
  -1  -1   2   87.30    5.02
  -1  -1   2   87.49    5.01
  -1  -1   2   88.03    5.02
   0   1  -2    5.78    0.35
  -1   1  -2  173.05    9.34
  -1   1  -2  169.39    9.35
  -1   1  -2  147.54    9.36
  -1   1  -2  178.96    9.34
   1  -1   2  163.06    9.34
   1  -1   2  169.04    9.34
   1  -1   2  159.59    9.36
  -2   1  -2   10.95    0.61
  -2   1  -2   10.29    0.59
  -2   1  -2    9.56    0.58
  -2   1  -2    8.77    0.56
   2  -1   2    9.26    0.56
   2  -1   2    9.93    0.61
   2  -1   2    9.55    0.59
   2  -1   2    9.23    0.59
  -3   1  -2   86.46    5.12
  -3   1  -2   98.92    5.14
  -3   1  -2   83.63    5.14
  -3   1  -2   90.95    5.10
   3  -1   2  104.32    5.17
   3  -1   2   85.22    5.14
   3  -1   2   92.09    5.14
   3  -1   2   81.02    5.09
  -4   1  -2    2.43    0.21
   4  -1   2    2.51    0.31
  -5   1  -2   46.90    2.67
  -5   1  -2   47.10    2.67
  -5   1  -2   41.29    2.62
  -5   1  -2   47.64    2.61
   5  -1   2   41.75    2.64
   5  -1   2   48.83    2.69
   5  -1   2   46.05    2.69
   5  -1   2   44.07    2.58
  -6   1  -2    0.32    0.22
  -6   1  -2    0.69    0.27
   6  -1   2    0.15    0.25
   6  -1   2   -0.04    0.26
  -7   1  -2    5.67    0.52
  -7   1  -2    6.10    0.67
  -7   1  -2    5.09    0.68
   7  -1   2    4.42    0.64
   7  -1   2    5.03    0.34
   7  -1   2    4.35    0.44
  -8   1  -2    0.57    0.34
  -8   1  -2    0.56    0.52
   8  -1   2    0.94    0.50
  -9   1  -2    2.27    0.50
  -9   1  -2    1.97    0.61
   9  -1   2    1.12    0.66
   9   0  -2    1.28    0.70
  -9   0   2    0.73    0.51
  -9   0   2    0.79    0.44
   8   0  -2   10.74    0.99
   8   0  -2    8.17    0.61
  -8   0   2    8.95    0.78
  -8   0   2    9.11    0.83
   7   0  -2    8.59    0.59
   7   0  -2    8.17    0.61
   7   0  -2    8.88    0.83
  -7   0   2    9.24    0.73
  -7   0   2    7.94    0.75
  -7   0   2    9.54    0.70
   6   0  -2  109.98    6.47
   6   0  -2  111.66    6.37
   6   0  -2  112.84    6.36
  -6   0   2  110.28    6.41
  -6   0   2  111.45    6.44
  -6   0   2  116.88    6.42
   5   0  -2   26.51    1.59
   5   0  -2   23.96    1.50
   5   0  -2   25.57    1.51
   5   0  -2   24.96    1.49
  -5   0   2   24.82    1.56
  -5   0   2   26.59    1.56
  -5   0   2   25.87    1.52
  -5   0   2   26.47    1.54
   4   0  -2   26.51    1.62
   4   0  -2   28.77    1.58
   4   0  -2   28.03    1.56
  -4   0   2   25.45    1.57
  -4   0   2   25.37    1.57
  -4   0   2   26.70    1.59
  -4   0   2   29.90    1.62
  -4   0   2   24.89    1.60
   3   0  -2   11.33    0.66
   3   0  -2    9.54    0.59
   3   0  -2    8.67    0.63
   3   0  -2   10.20    0.61
  -3   0   2   10.06    0.62
  -3   0   2    9.84    0.61
  -3   0   2   10.11    0.61
  -3   0   2    9.81    0.64
   2   0  -2  101.61    6.64
   2   0  -2  126.12    6.63
   2   0  -2  114.21    6.62
   2   0  -2  122.40    6.65
  -2   0   2  121.98    6.63
  -2   0   2  126.55    6.64
  -2   0   2  113.33    6.63
  -2   0   2  113.08    6.65
   1   0  -2   99.13    5.59
   1   0  -2   96.80    5.61
   1   0  -2  107.87    5.61
   1   0  -2   93.58    5.59
  -1   0   2  100.12    5.60
  -1   0   2   96.94    5.60
  -1   0   2   94.71    5.59
  -1   0   2  104.39    5.61
   0   0  -2   13.12    0.79
   0   0  -2   14.67    0.78
   0   0   2   13.54    0.79
   0   0   2   12.84    0.78
   0   0   2   13.85    0.79
  -1   0  -2   96.25    5.53
  -1   0  -2   87.70    5.54
  -1   0  -2   97.13    5.54
  -1   0  -2  102.15    5.54
   1   0   2  108.47    5.55
   1   0   2   97.53    5.54
   1   0   2  102.70    5.53
   1   0   2   92.49    5.53
  -2   0  -2    2.83    0.21
  -2   0  -2    2.97    0.22
  -2   0  -2    2.55    0.23
  -2   0  -2    3.06    0.21
   2   0   2    2.86    0.20
   2   0   2    2.85    0.23
   2   0   2    3.25    0.23
   2   0   2    3.29    0.21
  -3   0  -2   14.64    0.85
  -3   0  -2   15.38    0.86
  -3   0  -2   13.74    0.86
   3   0   2   14.23    0.84
   3   0   2   12.71    0.87
   3   0   2   14.47    0.88
  -4   0  -2    0.60    0.13
  -4   0  -2    0.46    0.15
  -4   0  -2    0.50    0.13
  -4   0  -2    0.33    0.15
   4   0   2    0.63    0.13
   4   0   2    0.25    0.17
   4   0   2    0.57    0.10
   4   0   2    0.56    0.15
  -5   0  -2   49.78    2.99
  -5   0  -2   48.34    3.03
  -5   0  -2   59.72    3.02
  -5   0  -2   49.72    2.99
   5   0   2   52.05    2.96
   5   0   2   50.94    2.99
   5   0   2   50.30    3.02
   5   0   2   53.65    3.04
  -6   0  -2    7.32    0.58
  -6   0  -2    7.60    0.59
   6   0   2    7.73    0.63
   6   0   2    7.48    0.53
   6   0   2    7.39    0.68
  -7   0  -2   14.01    1.05
  -7   0  -2   15.73    1.05
  -7   0  -2   16.52    1.12
   7   0   2   16.48    1.16
   7   0   2   16.13    1.04
   7   0   2   14.94    0.94
  -8   0  -2   -0.36    0.42
  -8   0  -2    0.62    0.35
   8   0   2    0.57    0.45
   8   0   2    0.51    0.28
  -9   0  -2    0.76    0.49
   9   0   2    0.34    0.66
   9  -1  -2    1.83    0.74
  -9   1   2    1.00    0.57
  -9   1   2    0.90    0.46
   8  -1  -2   -0.60    0.50
  -8   1   2    0.27    0.42
  -8   1   2   -0.43    0.32
   7  -1  -2    9.07    0.83
  -7   1   2    7.17    0.76
  -7   1   2    8.42    0.67
   6  -1  -2   15.70    0.93
   6  -1  -2   15.96    0.91
   6  -1  -2   13.43    1.11
  -6   1   2   16.36    1.00
  -6   1   2   17.52    1.07
  -6   1   2   14.49    1.08
   5  -1  -2    4.80    0.49
   5  -1  -2    5.26    0.31
   5  -1  -2    4.41    0.34
   5  -1  -2    4.71    0.38
  -5   1   2    5.36    0.47
  -5   1   2    4.66    0.46
  -5   1   2    4.35    0.50
  -5   1   2    5.35    0.39
   4  -1  -2    1.46    0.25
   4  -1  -2    2.39    0.21
   4  -1  -2    2.10    0.14
  -4   1   2    1.49    0.22
  -4   1   2    1.37    0.18
  -4   1   2    1.68    0.25
  -4   1   2    2.12    0.27
   3  -1  -2   21.97    1.39
   3  -1  -2   21.71    1.39
   3  -1  -2   25.97    1.32
  -3   1   2   22.42    1.38
   2  -1  -2  101.75    5.38
   2  -1  -2   99.83    5.43
   2  -1  -2   92.11    5.37
   2  -1  -2   92.74    5.42
  -2   1   2   98.84    5.38
  -2   1   2   83.15    5.41
  -2   1   2  101.25    5.41
  -2   1   2   92.42    5.37
   1  -1  -2    8.73    0.52
   1  -1  -2    9.13    0.56
   1  -1  -2    8.63    0.51
   1  -1  -2    8.96    0.55
  -1   1   2    9.13    0.56
  -1   1   2    8.45    0.54
  -1   1   2    8.77    0.52
  -1   1   2    9.01    0.51
   0  -1  -2   10.40    0.62
   0  -1  -2   10.03    0.62
   0   1   2    9.98    0.62
   0   1   2   10.24    0.64
   0   1   2   11.18    0.65
   0   1   2   10.85    0.62
  -1  -1  -2  107.07    6.21
  -1  -1  -2  115.37    6.20
  -1  -1  -2  107.27    6.17
  -1  -1  -2  108.68    6.18
   1   1   2  111.75    6.20
   1   1   2  109.34    6.21
   1   1   2  104.85    6.18
   1   1   2  111.80    6.17
  -2  -1  -2   66.20    3.74
  -2  -1  -2   65.63    3.77
   2   1   2   66.78    3.76
   2   1   2   66.78    3.78
   2   1   2   65.02    3.75
  -3  -1  -2  103.54    5.75
  -3  -1  -2  108.15    5.71
  -3  -1  -2   84.51    5.72
  -3  -1  -2  100.72    5.70
   3   1   2   98.67    5.71
   3   1   2   99.49    5.74
   3   1   2   97.44    5.72
   3   1   2  112.94    5.71
  -4  -1  -2    5.17    0.45
  -4  -1  -2    5.11    0.36
  -4  -1  -2    4.91    0.41
   4   1   2    4.32    0.37
   4   1   2    5.06    0.44
  -5  -1  -2    6.70    0.57
  -5  -1  -2    5.19    0.58
  -5  -1  -2    7.54    0.50
  -5  -1  -2    7.76    0.53
   5   1   2    6.77    0.53
   5   1   2    6.39    0.50
   5   1   2    8.00    0.52
   5   1   2    7.07    0.57
  -6  -1  -2    1.15    0.27
   6   1   2    0.90    0.33
   7   1   2    6.41    0.74
  -8  -1  -2    0.56    0.39
  -8  -1  -2    0.58    0.39
   8   1   2    0.95    0.40
   8   1   2    0.57    0.51
  -9  -1  -2    2.72    0.61
   9   1   2    3.09    0.67
   9  -2  -2    1.24    0.62
  -9   2   2    1.75    0.63
  -9   2   2    0.85    0.49
   8  -2  -2    3.02    0.63
  -8   2   2    3.28    0.58
  -8   2   2    3.39    0.45
   7  -2  -2    9.32    0.92
  -7   2   2   11.57    0.91
  -7   2   2    9.46    0.74
   6  -2  -2    8.41    0.73
  -6   2   2    8.09    0.59
  -6   2   2    8.39    0.73
   5  -2  -2    7.23    0.53
   5  -2  -2    7.77    0.64
  -5   2   2    6.67    0.62
  -5   2   2    8.15    0.64
  -5   2   2    9.30    0.68
  -5   2   2    7.33    0.53
   4  -2  -2   41.82    2.33
   4  -2  -2   41.96    2.37
   4  -2  -2   40.20    2.44
  -4   2   2   39.71    2.41
  -4   2   2   43.04    2.33
  -4   2   2   40.42    2.44
  -4   2   2   40.37    2.36
  -4   2   2   39.95    2.41
   3  -2  -2   26.25    1.52
   3  -2  -2   24.51    1.43
   3  -2  -2   25.72    1.50
   3  -2  -2   24.74    1.45
  -3   2   2   25.10    1.44
  -3   2   2   23.19    1.42
  -3   2   2   25.31    1.50
  -3   2   2   24.98    1.50
   2  -2  -2   11.60    0.72
   2  -2  -2   10.13    0.70
   2  -2  -2   10.66    0.64
   2  -2  -2   10.95    0.64
  -2   2   2   10.48    0.63
  -2   2   2   10.86    0.63
  -2   2   2   10.05    0.69
  -2   2   2   11.42    0.71
   1  -2  -2  244.03   14.64
   1  -2  -2  255.94   14.61
   1  -2  -2  274.68   14.63
  -1   2   2  276.73   14.59
  -1   2   2  263.52   14.58
  -1   2   2  252.29   14.63
  -1   2   2  256.13   14.62
  -1   2   2  248.98   14.60
   0  -2  -2  139.51    8.10
   0  -2  -2  146.22    8.11
   0  -2  -2  139.30    8.08
   0   2   2  137.64    8.13
   0   2   2  154.34    8.11
   0   2   2  146.81    8.13
   0   2   2  138.64    8.07
   0   2   2  144.06    8.10
  -1  -2  -2  103.96    5.69
  -1  -2  -2  105.67    5.71
  -1  -2  -2  100.30    5.66
  -1  -2  -2   98.71    5.66
   1   2   2   96.92    5.68
   1   2   2   98.09    5.65
   1   2   2   96.98    5.70
   1   2   2   99.80    5.65
  -2  -2  -2   24.96    1.40
  -2  -2  -2   23.53    1.43
  -2  -2  -2   24.70    1.38
  -2  -2  -2   22.85    1.44
   2   2   2   22.31    1.38
   2   2   2   24.34    1.38
   2   2   2   25.07    1.42
  -3  -2  -2    2.27    0.29
  -3  -2  -2    1.62    0.24
  -3  -2  -2    2.88    0.32
  -3  -2  -2    2.37    0.18
   3   2   2    2.02    0.20
   3   2   2    2.85    0.28
   3   2   2    2.18    0.30
   3   2   2    2.42    0.22
  -4  -2  -2    6.24    0.55
  -4  -2  -2    6.62    0.53
  -4  -2  -2    6.29    0.49
  -4  -2  -2    6.42    0.42
   4   2   2    6.83    0.44
   4   2   2    6.98    0.55
   4   2   2    6.64    0.46
   4   2   2    6.60    0.51
  -5  -2  -2    9.06    0.65
  -5  -2  -2    9.97    0.72
  -5  -2  -2   11.77    0.82
   5   2   2   10.73    0.74
   5   2   2   10.93    0.68
   5   2   2   11.75    0.82
  -6  -2  -2    1.59    0.20
  -6  -2  -2    1.02    0.33
  -6  -2  -2    1.38    0.31
  -6  -2  -2    1.71    0.25
   6   2   2    1.10    0.35
  -7  -2  -2   -0.09    0.32
  -7  -2  -2    0.31    0.24
   7   2   2    0.06    0.41
   7   2   2   -0.28    0.41
  -8  -2  -2    0.50    0.42
   8   2   2   -0.55    0.53
   8   2   2    0.96    0.51
   9  -3  -2    1.45    0.71
  -9   3   2    2.04    0.70
  -9   3   2    3.39    0.56
   8  -3  -2    3.44    0.71
  -8   3   2    2.74    0.44
  -8   3   2    3.04    0.63
   7  -3  -2    2.47    0.56
  -7   3   2    2.16    0.33
  -7   3   2    2.89    0.51
   6  -3  -2   13.98    1.07
  -6   3   2   13.37    0.90
  -6   3   2   14.71    1.06
   5  -3  -2    0.82    0.21
   5  -3  -2    1.17    0.34
  -5   3   2    0.78    0.28
  -5   3   2    1.07    0.18
   4  -3  -2    2.54    0.26
   4  -3  -2    2.64    0.28
   4  -3  -2    2.33    0.35
  -4   3   2    1.96    0.33
  -4   3   2    3.24    0.36
  -4   3   2    3.24    0.37
  -4   3   2    2.68    0.20
  -4   3   2    2.75    0.24
   3  -3  -2    8.28    0.60
   3  -3  -2    7.89    0.51
   3  -3  -2    8.20    0.53
  -3   3   2    8.20    0.49
  -3   3   2    8.20    0.59
  -3   3   2    7.44    0.58
  -3   3   2    7.73    0.60
  -3   3   2    7.21    0.48
   2  -3  -2    7.03    0.45
   2  -3  -2    7.65    0.54
   2  -3  -2    7.04    0.47
   2  -3  -2    6.60    0.51
  -2   3   2    6.62    0.50
  -2   3   2    7.10    0.53
  -2   3   2    7.30    0.43
  -2   3   2    6.38    0.44
   1  -3  -2    0.23    0.15
   1  -3  -2    0.26    0.16
   1  -3  -2    0.24    0.11
  -1   3   2    0.26    0.13
  -1   3   2    0.12    0.15
  -1   3   2    0.14    0.09
  -1   3   2    0.15    0.08
  -1   3   2    0.12    0.07
   0  -3  -2    5.02    0.39
   0  -3  -2    5.17    0.33
   0  -3  -2    5.36    0.37
   0   3   2    4.08    0.40
   0   3   2    4.51    0.42
   0   3   2    4.75    0.39
   0   3   2    5.26    0.33
  -1  -3  -2    2.47    0.22
  -1  -3  -2    2.34    0.30
  -1  -3  -2    2.58    0.29
  -1  -3  -2    2.38    0.21
   1   3   2    2.26    0.20
   1   3   2    2.55    0.20
   1   3   2    1.92    0.30
   1   3   2    2.28    0.26
  -2  -3  -2    3.93    0.27
  -2  -3  -2    4.11    0.37
  -2  -3  -2    3.75    0.31
  -2  -3  -2    3.71    0.38
   2   3   2    3.55    0.26
   2   3   2    3.59    0.35
   2   3   2    3.11    0.38
   2   3   2    3.88    0.28
  -3  -3  -2   27.15    1.54
  -3  -3  -2   24.85    1.48
  -3  -3  -2   26.72    1.60
  -3  -3  -2   24.23    1.58
   3   3   2   25.94    1.59
   3   3   2   24.99    1.55
   3   3   2   24.52    1.50
   3   3   2   27.55    1.49
  -4  -3  -2    5.39    0.38
  -4  -3  -2    6.36    0.50
  -4  -3  -2    5.96    0.57
   4   3   2    6.38    0.46
   4   3   2    6.52    0.56
   4   3   2    6.22    0.39
   4   3   2    6.30    0.51
  -5  -3  -2   -0.04    0.27
  -5  -3  -2    0.03    0.07
  -5  -3  -2    0.31    0.22
  -5  -3  -2    0.01    0.10
   5   3   2   -0.04    0.29
  -6  -3  -2    0.46    0.31
  -6  -3  -2    0.44    0.40
   6   3   2    0.04    0.38
  -7  -3  -2    0.61    0.40
   7   3   2    0.53    0.47
   7   3   2    1.84    0.53
  -8  -3  -2    0.32    0.50
   8   3   2    0.77    0.66
   8   3   2   -0.34    0.58
   9  -4  -2    0.36    0.72
  -9   4   2   -0.21    0.70
  -9   4   2    0.33    0.45
   8  -4  -2    0.27    0.55
  -8   4   2   -1.49    0.58
  -8   4   2    0.28    0.34
   7  -4  -2    1.02    0.49
  -7   4   2    2.19    0.54
  -7   4   2    1.61    0.31
   6  -4  -2    6.24    0.76
  -6   4   2    7.83    0.58
  -6   4   2    7.77    0.78
   5  -4  -2    9.02    0.65
   5  -4  -2    8.28    0.81
  -5   4   2    9.72    0.77
  -5   4   2    8.67    0.61
  -5   4   2    8.70    0.54
   4  -4  -2   22.01    1.29
   4  -4  -2   19.20    1.24
   4  -4  -2   20.19    1.38
  -4   4   2   21.20    1.21
  -4   4   2   23.06    1.36
  -4   4   2   20.09    1.35
  -4   4   2   21.25    1.25
   3  -4  -2    1.16    0.29
   3  -4  -2    1.15    0.18
   3  -4  -2    1.23    0.22
  -3   4   2    0.70    0.25
  -3   4   2    1.28    0.24
  -3   4   2    1.05    0.23
  -3   4   2    1.03    0.14
  -3   4   2    0.94    0.15
   2  -4  -2   27.93    1.69
   2  -4  -2   27.69    1.76
  -2   4   2   28.41    1.74
  -2   4   2   27.92    1.72
  -2   4   2   28.52    1.75
  -2   4   2   29.89    1.69
  -2   4   2   28.63    1.66
  -2   4   2   29.51    1.69
   1  -4  -2  422.08   24.48
   1  -4  -2  436.05   24.49
  -1   4   2  447.81   24.49
  -1   4   2  444.27   24.53
  -1   4   2  455.58   24.47
  -1   4   2  441.35   24.52
  -1   4   2  396.34   24.44
  -1   4   2  428.45   24.45
   0  -4  -2   16.54    0.98
   0  -4  -2   17.10    1.03
   0   4   2   17.06    0.99
   0   4   2   15.50    1.06
   0   4   2   14.91    0.96
   0   4   2   15.54    1.00
   0   4   2   16.25    1.08
  -1  -4  -2   26.49    1.56
  -1  -4  -2   27.13    1.63
  -1  -4  -2   26.23    1.56
  -1  -4  -2   27.99    1.62
   1   4   2   26.16    1.54
   1   4   2   27.35    1.54
   1   4   2   25.88    1.63
   1   4   2   23.85    1.58
  -2  -4  -2    0.50    0.24
  -2  -4  -2    0.31    0.13
  -2  -4  -2    0.13    0.20
  -2  -4  -2    0.24    0.15
   2   4   2    0.04    0.09
   2   4   2    0.12    0.23
   2   4   2    0.34    0.11
   2   4   2   -0.07    0.17
  -3  -4  -2    6.22    0.51
  -3  -4  -2    5.52    0.58
   3   4   2    6.64    0.61
   3   4   2    6.24    0.39
   3   4   2    5.60    0.44
   3   4   2    6.77    0.60
  -4  -4  -2    2.69    0.41
  -4  -4  -2    2.59    0.36
   4   4   2    2.25    0.42
   4   4   2    2.26    0.32
  -5  -4  -2    2.37    0.44
  -5  -4  -2    3.18    0.42
   5   4   2    2.27    0.46
  -6  -4  -2    2.02    0.50
  -6  -4  -2    0.87    0.40
   6   4   2    1.06    0.48
  -7  -4  -2    0.08    0.47
   7   4   2   -0.40    0.51
   7   4   2   -0.02    0.57
  -8  -4  -2    1.41    0.59
   8   4   2    0.70    0.76
   8   4   2   -0.32    0.65
   8  -5  -2    0.34    0.67
  -8   5   2    0.06    0.36
  -8   5   2    0.09    0.70
   7  -5  -2    2.11    0.65
  -7   5   2    1.53    0.60
  -7   5   2    1.35    0.35
   6  -5  -2    0.04    0.46
  -6   5   2    0.72    0.49
  -6   5   2   -0.03    0.26
   5  -5  -2    3.42    0.56
   5  -5  -2    2.80    0.40
  -5   5   2    3.95    0.55
  -5   5   2    4.35    0.35
  -5   5   2    3.49    0.28
  -5   5   2    3.60    0.38
   4  -5  -2    1.18    0.40
   4  -5  -2    1.64    0.25
  -4   5   2    1.69    0.22
  -4   5   2    1.95    0.23
  -4   5   2    2.03    0.42
   3  -5  -2    8.40    0.76
   3  -5  -2    9.19    0.67
  -3   5   2    9.06    0.73
  -3   5   2    9.96    0.68
  -3   5   2    9.46    0.61
  -3   5   2    9.67    0.62
   2  -5  -2   -0.02    0.17
   2  -5  -2    0.61    0.29
  -2   5   2   -0.37    0.28
  -2   5   2   -0.12    0.15
  -2   5   2   -0.05    0.23
  -2   5   2    0.33    0.20
  -2   5   2    0.11    0.14
   1  -5  -2    0.81    0.23
  -1   5   2    0.61    0.18
  -1   5   2    0.73    0.21
  -1   5   2    0.68    0.17
  -1   5   2    0.61    0.29
  -1   5   2    0.91    0.29
  -1   5   2    1.08    0.26
  -1   5   2    0.66    0.19
   0  -5  -2    6.41    0.49
   0  -5  -2    7.86    0.58
   0   5   2    5.98    0.59
   0   5   2    6.16    0.51
   0   5   2    6.02    0.52
   0   5   2    7.24    0.61
   0   5   2    6.71    0.50
   0   5   2    5.39    0.51
  -1  -5  -2    9.94    0.77
  -1  -5  -2    9.90    0.69
   1   5   2   10.46    0.65
   1   5   2    9.97    0.82
   1   5   2    9.97    0.72
   1   5   2    9.67    0.65
   1   5   2    9.62    0.78
  -2  -5  -2    0.04    0.19
  -2  -5  -2    0.31    0.24
   2   5   2   -0.19    0.27
   2   5   2   -0.13    0.15
   2   5   2   -0.28    0.14
   2   5   2   -0.07    0.12
  -3  -5  -2    1.27    0.38
  -3  -5  -2    1.64    0.30
   3   5   2    1.21    0.16
   3   5   2    1.34    0.17
   3   5   2    1.28    0.21
   3   5   2    1.34    0.40
  -4  -5  -2    0.29    0.39
  -4  -5  -2    0.21    0.30
   4   5   2    0.23    0.37
  -5  -5  -2    0.36    0.38
  -5  -5  -2    0.65    0.47
   5   5   2   -0.29    0.43
  -6  -5  -2    0.69    0.49
   6   5   2    0.87    0.53
   6   5   2    1.29    0.59
  -7  -5  -2    0.01    0.58
   7   5   2   -0.34    0.64
   7   5   2    1.16    0.71
   8  -6  -2   -0.83    0.72
  -8   6   2   -0.06    0.73
   7  -6  -2   -0.03    0.60
  -7   6   2   -0.83    0.65
  -7   6   2    0.45    0.34
   6  -6  -2    0.86    0.56
  -6   6   2    1.75    0.32
  -6   6   2    1.38    0.60
   5  -6  -2    0.47    0.49
  -5   6   2    0.27    0.23
  -5   6   2    0.01    0.20
  -5   6   2   -0.42    0.41
   4  -6  -2    0.96    0.46
   4  -6  -2    0.18    0.23
  -4   6   2    0.59    0.19
  -4   6   2    0.13    0.35
  -4   6   2    0.62    0.17
  -4   6   2    0.11    0.31
   3  -6  -2    2.88    0.38
   3  -6  -2    1.96    0.47
  -3   6   2    2.72    0.35
  -3   6   2    2.98    0.44
  -3   6   2    2.98    0.37
  -3   6   2    2.90    0.34
   2  -6  -2   36.82    2.27
  -2   6   2   37.63    2.27
  -2   6   2   36.17    2.20
  -2   6   2   38.19    2.23
  -2   6   2   38.02    2.34
  -2   6   2   38.41    2.22
   1  -6  -2   57.72    3.43
  -1   6   2   61.06    3.49
  -1   6   2   54.63    3.43
  -1   6   2   55.16    3.41
  -1   6   2   58.54    3.35
  -1   6   2   57.72    3.35
  -1   6   2   61.01    3.40
   0  -6  -2    0.18    0.27
   0  -6  -2    0.27    0.21
   0   6   2    0.21    0.20
   0   6   2    0.74    0.22
   0   6   2    0.33    0.26
   0   6   2    0.18    0.38
  -1  -6  -2    0.82    0.34
  -1  -6  -2    0.57    0.24
   1   6   2    0.57    0.21
   1   6   2    0.60    0.38
   1   6   2    0.95    0.20
   1   6   2    1.05    0.25
  -2  -6  -2    0.78    0.28
  -2  -6  -2    0.31    0.35
   2   6   2    0.32    0.17
   2   6   2    0.34    0.22
   2   6   2    0.77    0.40
   2   6   2   -0.01    0.20
  -3  -6  -2    7.53    0.83
  -3  -6  -2    7.17    0.67
   3   6   2    6.44    0.79
   3   6   2    6.18    0.44
   3   6   2    6.29    0.45
  -4  -6  -2    0.07    0.38
  -4  -6  -2    0.16    0.47
   4   6   2    0.02    0.46
  -5  -6  -2    4.31    0.67
  -5  -6  -2    4.10    0.70
   5   6   2    4.81    0.71
  -6  -6  -2    0.30    0.58
   6   6   2    0.43    0.69
   6   6   2    0.12    0.67
   7  -7  -2    0.12    0.75
  -7   7   2    1.28    0.71
  -7   7   2   -0.25    0.35
   6  -7  -2    2.51    0.74
  -6   7   2    1.30    0.33
  -6   7   2    1.14    0.69
   5  -7  -2    1.96    0.63
  -5   7   2    2.41    0.36
  -5   7   2    1.79    0.55
  -5   7   2    1.92    0.34
   4  -7  -2   -0.33    0.49
  -4   7   2   -0.50    0.38
  -4   7   2    0.08    0.31
  -4   7   2   -0.09    0.22
  -4   7   2    0.67    0.44
  -4   7   2    0.31    0.24
   3  -7  -2   -0.08    0.32
   3  -7  -2    0.62    0.47
  -3   7   2   -0.27    0.33
  -3   7   2    0.09    0.37
  -3   7   2    0.13    0.20
   2  -7  -2    0.38    0.34
  -2   7   2    0.23    0.35
  -2   7   2    0.53    0.47
  -2   7   2    0.72    0.30
  -2   7   2    0.73    0.24
   1  -7  -2    1.53    0.41
  -1   7   2    1.95    0.52
  -1   7   2    2.07    0.37
  -1   7   2    1.94    0.31
  -1   7   2    2.04    0.32
   0  -7  -2   -0.05    0.34
   0   7   2    0.46    0.41
   0   7   2    0.04    0.25
   0   7   2    0.21    0.26
   0   7   2   -0.12    0.34
   0   7   2    0.65    0.29
  -1  -7  -2    0.59    0.40
  -1  -7  -2    0.61    0.32
   1   7   2    0.95    0.26
   1   7   2    0.84    0.23
   1   7   2    0.55    0.48
   1   7   2    0.48    0.31
  -2  -7  -2   -0.04    0.33
  -2  -7  -2   -0.32    0.42
   2   7   2    0.07    0.19
   2   7   2   -0.02    0.47
  -3  -7  -2   -0.21    0.52
  -3  -7  -2    0.10    0.39
   3   7   2    0.88    0.50
  -4  -7  -2   -0.15    0.49
  -4  -7  -2    0.83    0.61
   4   7   2    1.67    0.60
  -5  -7  -2    0.27    0.62
   5   7   2    0.48    0.67
   5   7   2    0.10    0.74
   6  -8  -2    0.60    0.80
  -6   8   2   -0.17    0.67
  -6   8   2    0.42    0.33
   5  -8  -2   -0.37    0.70
  -5   8   2   -0.22    0.29
  -5   8   2   -0.14    0.62
   4  -8  -2    1.06    0.66
  -4   8   2    2.12    0.48
  -4   8   2    1.33    0.32
  -4   8   2    2.00    0.60
  -3   8   2   -0.92    0.61
  -3   8   2   -0.11    0.25
  -3   8   2    0.70    0.46
  -3   8   2   -0.15    0.43
   2  -8  -2    3.26    0.52
  -2   8   2    2.73    0.50
  -2   8   2    2.55    0.38
  -2   8   2    3.62    0.71
   1  -8  -2    0.05    0.46
  -1   8   2   -0.24    0.29
  -1   8   2    0.98    0.55
  -1   8   2    0.10    0.36
   0  -8  -2   -0.65    0.45
   0   8   2    0.53    0.54
   0   8   2    0.07    0.33
   0   8   2    0.09    0.31
  -1  -8  -2    1.41    0.45
  -1  -8  -2    0.34    0.51
   1   8   2    0.81    0.60
   1   8   2    0.91    0.28
  -2  -8  -2    0.51    0.56
  -2  -8  -2    0.14    0.45
   2   8   2   -0.54    0.60
  -3  -8  -2   -0.62    0.51
   3   8   2   -0.28    0.72
   3   8   2    0.52    0.65
  -4  -8  -2    2.95    0.69
   4   8   2    3.99    0.88
   4   8   2    3.34    0.83
  -4   9   2   -0.14    0.72
  -4   9   2    0.49    0.90
  -3   9   2    0.68    0.85
  -3   9   2    0.52    0.57
  -3   9   2   -0.50    0.65
  -2   9   2    0.63    0.52
  -2   9   2    0.21    0.74
  -2   9   2    0.52    0.62
  -1   9   2    0.94    0.41
  -1   9   2    0.40    0.61
  -1   9   2    0.05    0.47
  -1   9   2    0.58    0.73
   0   9   2   -0.24    0.42
   0   9   2   -0.33    0.66
   0   9   2   -0.07    0.73
   0   9   2    0.08    0.38
   1   9   2   -0.04    0.47
   1   9   2    0.10    0.75
   1   9   2   -0.31    0.77
   2   9   2    0.04    0.76
   2   9   2    0.52    0.76
   2  10  -3    0.57    0.72
   2  10  -3   -0.18    0.62
  -2 -10   3   -0.04    0.62
   1  10  -3   -1.45    0.69
   1  10  -3   -0.56    0.58
  -1 -10   3    0.77    0.63
   0  10  -3   -0.04    0.57
   0  10  -3    0.63    0.63
   0  10  -3    0.06    0.42
   0  10  -3   -0.30    0.52
  -1  10  -3    0.73    0.57
  -1  10  -3   -0.23    0.57
  -1  10  -3    0.93    0.54
  -1  10  -3    1.49    0.63
  -2  10  -3   -0.20    0.59
  -2  10  -3    0.61    0.49
  -2  10  -3    0.17    0.59
  -2  10  -3   -0.18    0.53
  -3  10  -3    0.33    0.66
  -3  10  -3    1.24    0.52
  -3  10  -3   -0.43    0.43
  -3  10  -3    0.64    0.66
  -4  10  -3    0.12    0.72
  -4  10  -3    0.19    0.84
  -4  10  -3    0.62    0.49
   4   9  -3    1.09    0.71
   4   9  -3   -0.21    0.61
  -4  -9   3    0.00    0.69
   3   9  -3    0.43    0.67
   3   9  -3    0.78    0.55
  -3  -9   3    1.01    0.60
   2   9  -3    0.72    0.61
   2   9  -3   -0.42    0.49
  -2  -9   3    0.03    0.51
   1   9  -3    0.75    0.56
   1   9  -3   -0.04    0.28
   1   9  -3    0.28    0.47
  -1  -9   3    0.83    0.52
   0   9  -3   -0.04    0.45
   0   9  -3    0.62    0.43
   0   9  -3    0.66    0.53
   0   9  -3   -0.09    0.37
  -1   9  -3    1.21    0.45
  -1   9  -3    1.08    0.48
  -1   9  -3    0.92    0.50
  -1   9  -3    1.57    0.51
  -2   9  -3    3.09    0.52
  -2   9  -3    4.45    0.67
  -2   9  -3    3.78    0.63
  -2   9  -3    3.44    0.58
  -3   9  -3    0.23    0.40
  -3   9  -3    0.15    0.53
  -3   9  -3    0.46    0.38
  -3   9  -3    0.38    0.57
  -4   9  -3   -0.15    0.39
  -4   9  -3    0.67    0.59
  -4   9  -3    0.01    0.33
  -4   9  -3   -0.26    0.70
  -5   9  -3    0.33    0.42
  -5   9  -3    1.09    0.86
   5  -9   3    0.89    0.68
   5   8  -3   -0.03    0.59
   5   8  -3   -0.37    0.68
  -5  -8   3   -0.23    0.62
   4   8  -3    0.57    0.51
   4   8  -3   -0.17    0.60
  -4  -8   3   -0.30    0.48
   3   8  -3    2.04    0.46
   3   8  -3    1.78    0.63
  -3  -8   3    1.83    0.53
   2   8  -3    0.24    0.36
   2   8  -3    0.61    0.47
   2   8  -3    0.27    0.21
  -2  -8   3   -0.01    0.40
   1   8  -3    1.09    0.30
   1   8  -3    1.14    0.28
   1   8  -3    0.97    0.46
   1   8  -3    1.09    0.36
  -1  -8   3    0.34    0.40
   0   8  -3    0.18    0.33
   0   8  -3   -0.15    0.39
   0   8  -3   -0.73    0.32
   0   8  -3    0.07    0.30
   0  -8   3    0.40    0.35
  -1   8  -3    0.96    0.38
  -1   8  -3    0.92    0.37
  -1   8  -3    1.37    0.41
  -1   8  -3    0.90    0.35
  -1   8  -3    1.19    0.38
  -2   8  -3    0.59    0.39
  -2   8  -3    0.07    0.32
  -2   8  -3    0.35    0.30
  -2   8  -3   -0.30    0.41
  -3   8  -3    2.11    0.37
  -3   8  -3    2.34    0.47
  -3   8  -3    1.32    0.33
  -3   8  -3    1.47    0.39
  -3   8  -3    2.66    0.56
  -4   8  -3    0.09    0.33
  -4   8  -3    0.35    0.28
  -4   8  -3   -0.32    0.55
   4  -8   3   -0.13    0.44
  -5   8  -3    0.07    0.66
  -5   8  -3   -0.10    0.35
   5  -8   3    0.57    0.55
  -6   8  -3    1.04    0.85
  -6   8  -3    0.97    0.42
   6  -8   3   -0.41    0.60
   6   7  -3    0.17    0.68
   6   7  -3    0.22    0.57
  -6  -7   3    0.40    0.60
   5   7  -3    0.62    0.56
   5   7  -3    1.25    0.51
  -5  -7   3    1.11    0.53
   4   7  -3   -0.05    0.39
   4   7  -3    0.00    0.44
  -4  -7   3    0.25    0.41
   3   7  -3    0.30    0.44
   3   7  -3    0.93    0.36
  -3  -7   3    0.60    0.37
   2   7  -3    0.13    0.18
   2   7  -3    0.11    0.28
   2   7  -3   -0.33    0.35
   2   7  -3    0.08    0.18
  -2  -7   3   -0.03    0.32
   1   7  -3    0.59    0.23
   1   7  -3    0.68    0.35
   1   7  -3    0.26    0.35
   1   7  -3    1.41    0.27
   1   7  -3    0.68    0.29
  -1  -7   3    1.13    0.34
   0   7  -3    4.21    0.48
   0   7  -3    2.82    0.37
   0   7  -3    2.64    0.46
   0   7  -3    3.06    0.43
   0   7  -3    2.77    0.42
   0  -7   3    2.81    0.42
  -1   7  -3    9.20    0.78
  -1   7  -3    9.82    0.79
  -1   7  -3   10.33    0.78
  -1   7  -3    9.93    0.82
  -1   7  -3   11.44    0.82
  -1   7  -3    9.48    0.78
   1  -7   3   10.13    0.79
  -2   7  -3   11.80    0.89
  -2   7  -3   11.40    0.88
  -2   7  -3   12.14    0.89
  -2   7  -3   11.15    0.87
  -2   7  -3   13.16    0.88
   2  -7   3   11.78    0.94
  -3   7  -3    2.57    0.39
  -3   7  -3    3.13    0.40
  -3   7  -3    2.11    0.35
  -3   7  -3    3.21    0.43
   3  -7   3    2.01    0.45
   3  -7   3    3.84    0.46
  -4   7  -3    0.97    0.28
  -4   7  -3    1.50    0.31
  -4   7  -3    1.39    0.47
  -4   7  -3    1.41    0.24
   4  -7   3    1.80    0.42
  -5   7  -3   -0.14    0.28
  -5   7  -3    0.66    0.57
  -5   7  -3   -0.06    0.14
   5  -7   3    0.27    0.41
  -6   7  -3    1.16    0.36
  -6   7  -3    0.65    0.69
   6  -7   3    1.20    0.55
  -7   7  -3    0.98    0.43
  -7   7  -3    0.71    0.84
   7  -7   3    0.64    0.64
   7   6  -3    1.15    0.64
   7   6  -3    0.40    0.64
  -7  -6   3    1.18    0.66
   6   6  -3   -0.12    0.52
   6   6  -3    0.79    0.47
  -6  -6   3   -0.47    0.49
   5   6  -3    1.01    0.48
   5   6  -3    0.34    0.37
  -5  -6   3    0.63    0.41
   4   6  -3    0.23    0.36
   4   6  -3    0.16    0.38
  -4  -6   3    0.25    0.35
   3   6  -3    3.59    0.45
   3   6  -3    4.01    0.53
  -3  -6   3    4.02    0.52
  -3  -6   3    3.65    0.45
   2   6  -3   -0.19    0.23
   2   6  -3   -0.01    0.14
   2   6  -3   -0.26    0.13
   2   6  -3    0.11    0.27
  -2  -6   3    0.34    0.27
  -2  -6   3    0.31    0.27
   1   6  -3    0.60    0.26
   1   6  -3    0.41    0.21
   1   6  -3   -0.03    0.28
   1   6  -3    0.77    0.29
   1   6  -3    0.61    0.22
   1   6  -3    0.70    0.27
  -1  -6   3    0.54    0.20
  -1  -6   3    0.57    0.26
   0   6  -3    0.91    0.24
   0   6  -3    1.48    0.28
   0   6  -3    1.18    0.26
   0   6  -3    0.44    0.21
   0   6  -3    0.70    0.23
   0   6  -3    0.74    0.21
   0  -6   3    0.68    0.22
   0  -6   3    0.71    0.24
  -1   6  -3    4.62    0.43
  -1   6  -3    3.38    0.45
  -1   6  -3    3.63    0.45
  -1   6  -3    3.61    0.47
  -1   6  -3    4.55    0.42
  -1   6  -3    4.31    0.45
  -1   6  -3    3.68    0.46
   1  -6   3    4.44    0.45
  -2   6  -3    0.60    0.26
  -2   6  -3    0.26    0.24
  -2   6  -3    0.11    0.22
  -2   6  -3    0.32    0.19
  -2   6  -3    0.22    0.20
  -2   6  -3    0.76    0.22
   2  -6   3    0.49    0.23
   2  -6   3    0.05    0.26
  -3   6  -3    0.28    0.24
  -3   6  -3    0.53    0.21
  -3   6  -3   -0.02    0.19
  -3   6  -3    0.08    0.16
   3  -6   3   -0.10    0.23
   3  -6   3   -0.41    0.28
  -4   6  -3    0.05    0.24
  -4   6  -3    0.78    0.28
  -4   6  -3    0.22    0.20
  -4   6  -3    0.09    0.14
   4  -6   3    0.43    0.29
   4  -6   3    0.29    0.36
  -5   6  -3    1.89    0.19
  -5   6  -3    2.24    0.24
  -5   6  -3    2.19    0.35
   5  -6   3    2.40    0.51
   5  -6   3    2.61    0.44
  -6   6  -3    0.06    0.51
  -6   6  -3    1.23    0.33
   6  -6   3    1.66    0.48
  -7   6  -3    3.52    0.79
  -7   6  -3    2.50    0.43
   7  -6   3    3.62    0.68
  -8   6  -3    0.30    0.83
  -8   6  -3    0.78    0.49
   8  -6   3    1.17    0.71
   8   5  -3   -0.67    0.69
   8   5  -3   -0.31    0.65
  -8  -5   3   -0.61    0.54
   7   5  -3    0.29    0.53
   7   5  -3    1.12    0.52
  -7  -5   3   -0.69    0.45
   6   5  -3    1.00    0.43
   6   5  -3    1.84    0.50
  -6  -5   3    1.42    0.46
   5   5  -3    0.27    0.37
   5   5  -3    0.14    0.31
  -5  -5   3   -0.24    0.30
   4   5  -3    1.64    0.38
   4   5  -3    2.35    0.34
  -4  -5   3    2.09    0.37
  -4  -5   3    2.03    0.40
   3   5  -3    0.95    0.32
   3   5  -3    0.82    0.24
   3   5  -3    0.51    0.21
   3   5  -3    0.76    0.28
  -3  -5   3    1.06    0.26
  -3  -5   3    1.06    0.27
   2   5  -3   10.64    0.65
   2   5  -3   10.59    0.79
   2   5  -3   10.44    0.73
   2   5  -3   10.90    0.72
   2   5  -3    9.87    0.79
  -2  -5   3   11.35    0.77
  -2  -5   3   10.37    0.66
  -2  -5   3   11.38    0.74
   1   5  -3   -0.29    0.19
   1   5  -3    0.15    0.22
   1   5  -3    0.15    0.14
   1   5  -3    0.39    0.19
   1   5  -3    0.02    0.16
  -1  -5   3   -0.09    0.17
  -1  -5   3   -0.04    0.13
   0   5  -3   13.17    0.80
   0   5  -3   12.16    0.81
   0   5  -3   12.14    0.84
   0   5  -3   12.74    0.87
   0   5  -3   12.01    0.85
   0   5  -3   12.96    0.84
   0  -5   3   12.43    0.84
   0  -5   3   12.70    0.82
  -1   5  -3   12.52    0.85
  -1   5  -3   12.90    0.85
  -1   5  -3   12.10    0.81
  -1   5  -3   13.41    0.84
  -1   5  -3   13.45    0.85
  -1   5  -3   12.53    0.82
  -1   5  -3   12.86    0.85
   1  -5   3   12.27    0.85
  -2   5  -3    5.28    0.42
  -2   5  -3    5.29    0.41
  -2   5  -3    4.57    0.48
  -2   5  -3    5.13    0.47
  -2   5  -3    5.51    0.47
  -2   5  -3    4.69    0.44
   2  -5   3    5.02    0.43
   2  -5   3    5.06    0.47
  -3   5  -3   -0.01    0.12
  -3   5  -3    0.06    0.17
  -3   5  -3    0.30    0.24
  -3   5  -3    0.07    0.16
  -3   5  -3    0.04    0.15
  -3   5  -3   -0.03    0.19
   3  -5   3    0.04    0.18
   3  -5   3   -0.39    0.22
  -4   5  -3   12.29    0.78
  -4   5  -3   12.17    0.84
  -4   5  -3   12.33    0.84
  -4   5  -3   12.46    0.75
   4  -5   3   12.85    0.88
   4  -5   3   12.94    0.96
  -5   5  -3    2.81    0.54
  -5   5  -3    2.75    0.34
   5  -5   3    2.10    0.40
   5  -5   3    2.61    0.48
  -6   5  -3    0.14    0.25
   6  -5   3    0.13    0.44
   6  -5   3    0.59    0.39
  -7   5  -3    0.18    0.61
  -7   5  -3    0.31    0.31
   7  -5   3    0.01    0.46
  -8   5  -3    0.39    0.38
  -8   5  -3    0.43    0.74
   8  -5   3    0.43    0.58
   8   4  -3   -0.09    0.58
   8   4  -3    0.39    0.57
  -8  -4   3    0.27    0.55
   7   4  -3    1.30    0.47
   7   4  -3    2.39    0.55
  -7  -4   3    1.14    0.45
   6   4  -3    0.14    0.37
   6   4  -3    0.96    0.36
  -6  -4   3    0.33    0.34
   5   4  -3    4.60    0.57
   5   4  -3    4.10    0.52
  -5  -4   3    4.59    0.55
   4   4  -3    1.15    0.28
   4   4  -3    1.04    0.29
   4   4  -3    1.71    0.28
  -4  -4   3    1.51    0.27
  -4  -4   3    1.73    0.30
   3   4  -3    2.59    0.17
   3   4  -3    1.57    0.29
   3   4  -3    1.95    0.30
   3   4  -3    2.30    0.29
   3   4  -3    2.77    0.28
  -3  -4   3    2.42    0.35
  -3  -4   3    2.31    0.18
  -3  -4   3    2.69    0.31
   2   4  -3   20.62    1.20
   2   4  -3   19.25    1.15
   2   4  -3   21.03    1.21
   2   4  -3   19.71    1.25
   2   4  -3   19.10    1.24
  -2  -4   3   19.61    1.23
  -2  -4   3   19.33    1.16
   1   4  -3    9.02    0.61
   1   4  -3    8.76    0.55
   1   4  -3    9.34    0.56
   1   4  -3    8.87    0.60
  -1  -4   3    9.19    0.57
  -1  -4   3    8.40    0.61
  -1  -4   3    7.42    0.56
   0   4  -3   13.95    0.92
   0   4  -3   14.69    0.88
   0   4  -3   14.59    0.93
   0   4  -3   14.82    0.89
   0   4  -3   14.51    0.91
   0  -4   3   14.95    0.93
   0  -4   3   14.79    0.93
   0  -4   3   15.23    0.92
  -1   4  -3    3.80    0.33
  -1   4  -3    3.31    0.32
  -1   4  -3    3.53    0.30
  -1   4  -3    3.49    0.33
  -1   4  -3    3.46    0.28
   1  -4   3    3.44    0.27
   1  -4   3    3.05    0.33
   1  -4   3    3.31    0.32
  -2   4  -3   11.24    0.66
  -2   4  -3    8.69    0.66
  -2   4  -3   10.20    0.69
  -2   4  -3   11.70    0.73
  -2   4  -3   10.49    0.71
   2  -4   3   10.49    0.67
   2  -4   3   11.14    0.68
   2  -4   3   10.28    0.73
  -3   4  -3   17.55    1.03
  -3   4  -3   16.57    1.08
  -3   4  -3   17.85    1.14
   3  -4   3   17.75    1.11
   3  -4   3   18.20    1.09
   3  -4   3   17.03    1.15
   3  -4   3   17.42    1.05
  -4   4  -3    0.73    0.13
  -4   4  -3    0.67    0.26
  -4   4  -3    0.77    0.09
  -4   4  -3    0.56    0.18
  -4   4  -3    0.87    0.20
   4  -4   3    0.69    0.30
   4  -4   3    0.90    0.23
   4  -4   3    0.50    0.20
  -5   4  -3   -0.12    0.20
  -5   4  -3   -0.02    0.17
   5  -4   3    0.00    0.23
   5  -4   3    0.33    0.31
  -6   4  -3    1.60    0.27
   6  -4   3    1.67    0.48
   6  -4   3    1.79    0.38
  -7   4  -3   18.55    1.38
  -7   4  -3   15.20    1.08
   7  -4   3   14.64    1.20
  -8   4  -3    1.95    0.70
  -8   4  -3    0.72    0.40
   8  -4   3    1.30    0.57
  -9   4  -3    0.54    0.73
  -9   4  -3    0.68    0.44
   9  -4   3    0.92    0.72
   9   3  -3    0.00    0.68
  -9  -3   3   -0.08    0.54
   8   3  -3   -0.02    0.53
   8   3  -3   -0.34    0.45
  -8  -3   3    0.36    0.47
   7   3  -3    3.64    0.60
   7   3  -3    5.10    0.67
  -7  -3   3    4.66    0.63
  -7  -3   3    3.72    0.33
   6   3  -3    7.46    0.66
   6   3  -3    7.03    0.67
  -6  -3   3    5.19    0.62
  -6  -3   3    6.35    0.47
  -6  -3   3    5.94    0.42
   5   3  -3    0.11    0.23
   5   3  -3    0.39    0.24
   5   3  -3    0.29    0.25
  -5  -3   3    0.29    0.24
  -5  -3   3    0.05    0.14
  -5  -3   3    0.30    0.22
   4   3  -3    0.45    0.18
   4   3  -3    0.37    0.18
   4   3  -3    0.50    0.14
   4   3  -3    0.48    0.10
   4   3  -3    0.08    0.21
  -4  -3   3    0.51    0.10
  -4  -3   3    0.82    0.21
  -4  -3   3    0.36    0.20
   3   3  -3   28.13    1.72
   3   3  -3   29.07    1.69
   3   3  -3   30.72    1.70
   3   3  -3   27.88    1.73
   3   3  -3   28.58    1.64
  -3  -3   3   28.52    1.64
  -3  -3   3   29.12    1.70
  -3  -3   3   27.34    1.71
   2   3  -3  144.92    8.08
   2   3  -3  138.15    8.05
   2   3  -3  150.69    8.12
   2   3  -3  138.45    8.13
  -2  -3   3  148.89    8.12
  -2  -3   3  134.43    8.06
  -2  -3   3  142.27    8.09
  -2  -3   3  144.76    8.11
   1   3  -3    4.89    0.37
   1   3  -3    5.06    0.36
   1   3  -3    4.76    0.32
   1   3  -3    4.70    0.31
  -1  -3   3    4.52    0.36
  -1  -3   3    4.40    0.38
  -1  -3   3    4.96    0.32
  -1  -3   3    4.54    0.32
   0   3  -3   18.53    1.13
   0   3  -3   18.04    1.14
   0   3  -3   20.13    1.13
   0   3  -3   19.80    1.10
   0   3  -3   19.33    1.10
   0  -3   3   20.16    1.14
   0  -3   3   19.11    1.15
   0  -3   3   16.66    1.13
  -1   3  -3    6.52    0.45
  -1   3  -3    6.57    0.46
  -1   3  -3    6.63    0.40
  -1   3  -3    6.29    0.45
  -1   3  -3    5.87    0.42
   1  -3   3    6.80    0.47
   1  -3   3    6.58    0.41
   1  -3   3    6.77    0.44
  -2   3  -3   24.83    1.42
  -2   3  -3   24.41    1.48
  -2   3  -3   23.78    1.42
  -2   3  -3   23.96    1.45
   2  -3   3   24.66    1.43
   2  -3   3   25.26    1.49
   2  -3   3   24.81    1.43
   2  -3   3   24.56    1.47
  -3   3  -3   57.84    3.39
  -3   3  -3   59.50    3.34
  -3   3  -3   58.25    3.38
  -3   3  -3   60.05    3.43
   3  -3   3   58.01    3.41
   3  -3   3   59.58    3.44
   3  -3   3   60.74    3.36
   3  -3   3   58.20    3.39
  -4   3  -3   27.34    1.55
  -4   3  -3   29.06    1.63
  -4   3  -3   27.75    1.62
  -4   3  -3   29.08    1.68
   4  -3   3   25.51    1.69
   4  -3   3   26.59    1.56
   4  -3   3   26.75    1.64
   4  -3   3   25.73    1.63
  -5   3  -3    4.42    0.39
  -5   3  -3    4.94    0.52
  -5   3  -3    4.75    0.44
   5  -3   3    4.60    0.49
   5  -3   3    3.79    0.53
  -6   3  -3    3.15    0.42
   6  -3   3    3.78    0.48
   6  -3   3    4.25    0.56
  -7   3  -3   25.08    1.53
   7  -3   3   27.68    1.74
   7  -3   3   21.07    1.62
  -8   3  -3   -0.45    0.32
  -8   3  -3    0.11    0.61
   8  -3   3   -0.17    0.53
  -9   3  -3    6.27    0.97
  -9   3  -3    5.68    0.72
   9  -3   3    4.98    0.87
   9   2  -3    0.85    0.69
  -9  -2   3    1.12    0.51
   8   2  -3    0.27    0.34
   8   2  -3    0.46    0.51
  -8  -2   3    1.13    0.45
  -8  -2   3    0.13    0.22
   7   2  -3    0.40    0.31
   7   2  -3    0.60    0.42
   7   2  -3    0.50    0.29
  -7  -2   3    0.77    0.34
  -7  -2   3    0.80    0.19
  -7  -2   3    0.78    0.28
   6   2  -3    7.81    0.74
   6   2  -3    8.43    0.68
  -6  -2   3    7.88    0.56
  -6  -2   3    8.73    0.69
   5   2  -3    2.00    0.24
   5   2  -3    2.02    0.27
   5   2  -3    2.06    0.32
   5   2  -3    2.32    0.31
  -5  -2   3    1.80    0.23
  -5  -2   3    1.77    0.25
  -5  -2   3    2.14    0.31
  -5  -2   3    2.46    0.31
   4   2  -3   14.40    0.92
   4   2  -3   14.49    0.88
   4   2  -3   13.84    0.92
   4   2  -3   14.67    0.88
   4   2  -3   15.43    0.94
  -4  -2   3   15.13    0.92
  -4  -2   3   13.42    0.92
  -4  -2   3   14.24    0.86
   3   2  -3   77.90    4.44
   3   2  -3   76.70    4.40
   3   2  -3   84.91    4.44
   3   2  -3   78.47    4.46
  -3  -2   3   78.94    4.39
  -3  -2   3   68.23    4.43
   2   2  -3   95.16    5.09
   2   2  -3   89.94    5.08
   2   2  -3   89.16    5.11
   2   2  -3   89.72    5.10
  -2  -2   3   83.28    5.10
  -2  -2   3   88.34    5.08
  -2  -2   3   92.12    5.12
  -2  -2   3   90.09    5.09
   1   2  -3  127.22    7.57
   1   2  -3  140.61    7.55
   1   2  -3  146.44    7.58
   1   2  -3  132.68    7.55
  -1  -2   3  127.38    7.57
  -1  -2   3  130.17    7.58
  -1  -2   3  132.09    7.55
  -1  -2   3  133.44    7.56
   0   2  -3   39.20    2.19
   0   2  -3   36.93    2.18
   0   2  -3   38.17    2.19
   0  -2   3   39.55    2.19
   0  -2   3   38.98    2.19
   0  -2   3   35.59    2.19
  -1   2  -3    1.40    0.16
  -1   2  -3    1.45    0.18
  -1   2  -3    1.61    0.11
  -1   2  -3    1.46    0.13
   1  -2   3    1.48    0.15
   1  -2   3    1.39    0.17
   1  -2   3    1.38    0.17
   1  -2   3    1.65    0.12
  -2   2  -3    9.52    0.57
  -2   2  -3    9.68    0.61
  -2   2  -3    9.90    0.59
  -2   2  -3   10.52    0.64
   2  -2   3    8.32    0.63
   2  -2   3    9.49    0.62
   2  -2   3   10.16    0.59
   2  -2   3    9.80    0.58
  -3   2  -3    6.18    0.39
  -3   2  -3    6.31    0.43
  -3   2  -3    6.75    0.48
  -3   2  -3    6.35    0.43
   3  -2   3    5.63    0.48
   3  -2   3    6.31    0.44
   3  -2   3    6.77    0.45
   3  -2   3    6.31    0.39
  -4   2  -3    8.20    0.67
  -4   2  -3   10.20    0.58
  -4   2  -3    9.47    0.62
  -4   2  -3    9.64    0.64
   4  -2   3    9.71    0.65
   4  -2   3    9.54    0.66
   4  -2   3    9.26    0.69
   4  -2   3   10.07    0.57
  -5   2  -3   28.13    1.71
  -5   2  -3   30.71    1.79
  -5   2  -3   31.65    1.76
  -5   2  -3   33.21    1.82
   5  -2   3   29.80    1.80
   5  -2   3   27.09    1.69
   5  -2   3   27.51    1.77
   5  -2   3   29.45    1.83
  -6   2  -3    0.09    0.18
  -6   2  -3   -0.47    0.31
  -6   2  -3    0.28    0.13
   6  -2   3    0.63    0.32
   6  -2   3   -0.05    0.29
   6  -2   3    0.28    0.09
  -7   2  -3   10.68    0.78
   7  -2   3   11.99    1.01
   7  -2   3    8.72    0.91
  -8   2  -3    0.13    0.32
  -8   2  -3    0.84    0.54
   8  -2   3    0.80    0.49
  -9   2  -3    2.84    0.76
  -9   2  -3    2.46    0.50
   9  -2   3    1.43    0.72
   9   1  -3    1.52    0.69
  -9  -1   3    0.44    0.50
   8   1  -3    0.23    0.48
   8   1  -3    0.32    0.24
  -8  -1   3    0.25    0.37
  -8  -1   3    0.29    0.30
   7   1  -3    0.63    0.42
   7   1  -3    0.09    0.21
   7   1  -3   -0.08    0.24
  -7  -1   3    0.14    0.24
  -7  -1   3   -0.67    0.29
   6   1  -3    0.68    0.39
  -6  -1   3    0.71    0.29
   5   1  -3    4.29    0.35
   5   1  -3    3.63    0.37
   5   1  -3    4.15    0.43
   5   1  -3    4.75    0.47
  -5  -1   3    4.28    0.41
  -5  -1   3    4.23    0.36
  -5  -1   3    5.20    0.41
  -5  -1   3    3.61    0.40
   4   1  -3    4.66    0.35
   4   1  -3    3.93    0.39
   4   1  -3    4.25    0.36
   4   1  -3    4.18    0.32
  -4  -1   3    3.71    0.38
  -4  -1   3    5.10    0.37
  -4  -1   3    4.04    0.37
  -4  -1   3    4.87    0.33
   3   1  -3   40.39    2.22
   3   1  -3   36.44    2.22
  -3  -1   3   34.69    2.23
  -3  -1   3   39.84    2.23
  -3  -1   3   41.27    2.24
   2   1  -3  157.70    8.10
   2   1  -3  154.16    8.10
   2   1  -3  156.23    8.10
   2   1  -3  137.17    8.09
  -2  -1   3  130.77    8.09
  -2  -1   3  138.83    8.10
  -2  -1   3  127.91    8.08
   1   1  -3    6.97    0.42
   1   1  -3    6.31    0.42
   1   1  -3    6.21    0.41
   1   1  -3    6.93    0.41
  -1  -1   3    7.15    0.42
  -1  -1   3    6.31    0.40
  -1  -1   3    7.08    0.43
  -1  -1   3    6.73    0.42
   0   1  -3   25.96    1.47
   0   1  -3   26.48    1.48
   0   1  -3   23.33    1.47
   0  -1   3   26.16    1.48
   0  -1   3   27.15    1.45
   0  -1   3   27.56    1.47
   0  -1   3   22.40    1.47
  -1   1  -3    1.04    0.09
  -1   1  -3    0.99    0.10
  -1   1  -3    0.96    0.10
  -1   1  -3    1.00    0.13
   1  -1   3    1.00    0.10
   1  -1   3    0.88    0.12
   1  -1   3    0.98    0.12
   1  -1   3    0.90    0.09
  -2   1  -3  182.86    9.66
  -2   1  -3  177.80    9.63
  -2   1  -3  161.14    9.62
  -2   1  -3  168.51    9.64
   2  -1   3  172.38    9.64
   2  -1   3  166.40    9.62
   2  -1   3  170.22    9.64
   2  -1   3  165.77    9.66
  -3   1  -3   34.48    1.88
  -3   1  -3   30.70    1.86
  -3   1  -3   31.86    1.84
  -3   1  -3   28.24    1.83
   3  -1   3   32.43    1.86
   3  -1   3   34.49    1.86
   3  -1   3   31.26    1.89
  -4   1  -3   20.61    1.19
  -4   1  -3   18.82    1.19
  -4   1  -3   16.79    1.13
  -4   1  -3   18.67    1.15
   4  -1   3   18.78    1.20
   4  -1   3   20.02    1.12
   4  -1   3   21.15    1.17
   4  -1   3   19.08    1.18
  -5   1  -3    5.04    0.45
  -5   1  -3    5.35    0.40
  -5   1  -3    4.29    0.39
  -5   1  -3    4.09    0.46
   5  -1   3    4.79    0.49
   5  -1   3    4.87    0.46
   5  -1   3    5.68    0.42
  -6   1  -3   14.06    0.90
  -6   1  -3   14.47    0.88
  -6   1  -3   11.82    0.93
   6  -1   3   13.20    0.82
   6  -1   3   13.47    0.98
   6  -1   3   14.29    1.00
  -7   1  -3   42.06    2.45
   7  -1   3   43.95    2.54
   7  -1   3   43.23    2.54
   7  -1   3   40.59    2.36
   7  -1   3   36.79    2.40
  -8   1  -3    0.23    0.51
  -8   1  -3   -0.08    0.34
   8  -1   3    0.28    0.48
  -9   1  -3    0.78    0.61
  -9   1  -3    0.76    0.43
   9  -1   3   -1.11    0.69
   9   0  -3    0.07    0.66
  -9   0   3   -0.11    0.47
  -9   0   3    0.80    0.43
   8   0  -3   -0.24    0.52
  -8   0   3   -0.51    0.35
  -8   0   3    0.46    0.37
   7   0  -3   30.42    1.90
   7   0  -3   34.24    2.09
   7   0  -3   31.81    1.87
  -7   0   3   34.70    1.97
  -7   0   3   32.42    1.97
  -7   0   3   30.39    2.00
   6   0  -3   68.56    3.95
   6   0  -3   68.11    3.92
   6   0  -3   60.10    4.03
  -6   0   3   73.00    3.99
  -6   0   3   69.29    4.02
  -6   0   3   73.37    3.98
   5   0  -3    3.23    0.27
   5   0  -3    2.61    0.40
   5   0  -3    2.93    0.29
  -5   0   3    3.86    0.40
  -5   0   3    3.08    0.32
  -5   0   3    2.51    0.34
  -5   0   3    2.86    0.34
  -5   0   3    2.96    0.38
   4   0  -3   10.30    0.73
   4   0  -3   11.18    0.71
   4   0  -3   10.76    0.66
   4   0  -3   10.11    0.64
  -4   0   3   10.09    0.71
  -4   0   3   10.88    0.67
  -4   0   3    9.97    0.66
  -4   0   3   11.47    0.70
   3   0  -3   94.97    5.49
   3   0  -3   88.15    5.50
   3   0  -3   97.78    5.46
   3   0  -3   99.53    5.46
  -3   0   3  102.12    5.47
  -3   0   3   90.49    5.46
  -3   0   3  102.00    5.49
   2   0  -3   97.38    6.04
   2   0  -3  112.59    6.02
   2   0  -3   99.32    6.02
   2   0  -3  119.51    6.06
  -2   0   3  113.50    6.04
  -2   0   3  101.98    6.02
  -2   0   3   98.86    6.04
  -2   0   3  109.86    6.03
   1   0  -3    5.13    0.33
   1   0  -3    4.53    0.32
   1   0  -3    5.33    0.31
   1   0  -3    4.66    0.30
  -1   0   3    5.10    0.31
  -1   0   3    4.74    0.30
  -1   0   3    4.83    0.33
  -1   0   3    5.09    0.32
   0   0  -3  116.32    5.93
   0   0  -3  109.18    5.92
   0   0  -3  103.00    5.93
   0   0  -3  108.38    5.92
   0   0   3  103.03    5.93
   0   0   3   92.19    5.93
   0   0   3  105.36    5.94
   0   0   3  102.02    5.94
  -1   0  -3    3.82    0.26
  -1   0  -3    3.90    0.24
  -1   0  -3    3.51    0.25
  -1   0  -3    3.64    0.27
   1   0   3    4.13    0.27
   1   0   3    3.75    0.25
   1   0   3    4.16    0.27
   1   0   3    3.89    0.25
  -2   0  -3   83.15    4.61
  -2   0  -3   84.72    4.60
  -2   0  -3   76.67    4.63
  -2   0  -3   82.30    4.62
   2   0   3   82.23    4.60
   2   0   3   71.47    4.62
   2   0   3   90.21    4.63
   2   0   3   79.40    4.61
  -3   0  -3   12.18    0.72
  -3   0  -3   11.70    0.75
  -3   0  -3   11.75    0.73
  -3   0  -3   10.77    0.73
   3   0   3   12.80    0.73
   3   0   3   11.85    0.71
   3   0   3   11.47    0.75
   3   0   3   11.57    0.75
  -4   0  -3   32.51    1.96
  -4   0  -3   35.99    1.93
  -4   0  -3   27.77    2.02
  -4   0  -3   31.55    1.91
   4   0   3   34.63    1.92
   4   0   3   36.40    1.96
   4   0   3   31.51    1.90
   4   0   3   32.22    1.95
  -5   0  -3   16.02    1.05
  -5   0  -3   17.27    0.99
  -5   0  -3   14.52    1.01
  -5   0  -3   17.35    1.01
   5   0   3   16.37    0.96
   5   0   3   16.14    1.04
   5   0   3   15.31    1.05
   5   0   3   14.57    0.99
  -6   0  -3    1.23    0.32
  -6   0  -3    2.09    0.30
  -6   0  -3    2.37    0.30
   6   0   3    2.32    0.35
   6   0   3    2.54    0.40
   6   0   3    2.13    0.25
  -7   0  -3    1.37    0.32
  -7   0  -3    1.07    0.31
   7   0   3    2.08    0.45
   7   0   3    1.21    0.20
   7   0   3    1.60    0.38
  -8   0  -3    0.07    0.34
  -8   0  -3   -0.24    0.45
   8   0   3   -0.27    0.34
   8   0   3    0.12    0.47
  -9   0  -3    5.84    0.79
   9   0   3    5.24    0.80
   9  -1  -3    0.85    0.66
  -9   1   3    0.10    0.45
  -9   1   3    0.28    0.53
   8  -1  -3    1.28    0.56
  -8   1   3    1.09    0.46
  -8   1   3    1.23    0.40
   7  -1  -3   11.84    0.75
   7  -1  -3   14.25    1.08
   7  -1  -3   12.19    0.78
  -7   1   3   13.97    0.99
  -7   1   3   14.07    0.91
   6  -1  -3    0.06    0.34
   6  -1  -3    0.02    0.15
  -6   1   3   -0.20    0.19
  -6   1   3   -0.04    0.32
  -6   1   3   -0.13    0.24
   5  -1  -3    8.27    0.50
   5  -1  -3    7.46    0.55
   5  -1  -3    8.48    0.67
  -5   1   3    7.82    0.66
  -5   1   3    8.33    0.64
  -5   1   3    8.40    0.56
  -5   1   3    8.06    0.64
  -5   1   3    8.64    0.55
   4  -1  -3    8.48    0.46
   4  -1  -3    6.88    0.56
   4  -1  -3    7.12    0.58
  -4   1   3    9.18    0.50
  -4   1   3    7.48    0.54
  -4   1   3    6.52    0.48
  -4   1   3    6.38    0.55
   3  -1  -3    9.27    0.65
  -3   1   3   10.35    0.60
   2  -1  -3   15.91    0.98
   2  -1  -3   16.28    0.97
  -2   1   3   15.54    0.97
  -2   1   3   15.65    0.92
   1  -1  -3    2.96    0.23
   1  -1  -3    2.89    0.17
   1  -1  -3    2.77    0.25
   1  -1  -3    2.52    0.20
  -1   1   3    2.83    0.17
  -1   1   3    2.80    0.20
  -1   1   3    2.77    0.23
  -1   1   3    3.13    0.24
   0  -1  -3   28.39    1.62
   0  -1  -3   28.96    1.62
   0   1   3   29.48    1.65
   0   1   3   26.83    1.62
   0   1   3   25.12    1.64
   0   1   3   29.84    1.62
  -1  -1  -3   11.52    0.76
  -1  -1  -3   12.92    0.73
  -1  -1  -3   12.32    0.74
  -1  -1  -3   11.83    0.70
   1   1   3   11.29    0.73
   1   1   3   12.75    0.76
   1   1   3   12.48    0.73
   1   1   3   12.36    0.71
  -2  -1  -3    1.24    0.14
  -2  -1  -3    1.19    0.16
  -2  -1  -3    1.51    0.22
   2   1   3    0.96    0.15
   2   1   3    1.10    0.18
  -3  -1  -3   14.11    0.84
  -3  -1  -3   13.38    0.77
  -3  -1  -3   11.23    0.80
   3   1   3   11.51    0.78
   3   1   3   13.47    0.79
  -4  -1  -3    1.68    0.24
  -4  -1  -3    1.17    0.28
   4   1   3    1.55    0.27
   4   1   3    1.74    0.22
  -5  -1  -3   20.27    1.22
  -5  -1  -3   21.74    1.27
   5   1   3   19.56    1.21
   5   1   3   18.52    1.22
   5   1   3   20.85    1.24
   5   1   3   19.10    1.29
  -6  -1  -3    9.23    0.66
  -6  -1  -3    8.60    0.78
   6   1   3    9.36    0.81
   6   1   3   11.12    0.66
   6   1   3    8.55    0.71
  -7  -1  -3    5.47    0.66
  -7  -1  -3    5.19    0.64
   7   1   3    3.97    0.43
   7   1   3    4.70    0.68
  -8  -1  -3    0.78    0.41
   8   1   3    0.05    0.42
   8   1   3    0.50    0.49
   9  -2  -3    0.39    0.71
  -9   2   3    1.74    0.52
  -9   2   3    2.18    0.66
   8  -2  -3   -0.42    0.52
  -8   2   3   -0.19    0.32
  -8   2   3   -0.10    0.47
   7  -2  -3   26.18    1.81
  -7   2   3   26.02    1.75
  -7   2   3   28.16    1.66
   6  -2  -3   36.35    2.24
  -6   2   3   36.43    2.19
  -6   2   3   34.60    2.10
   5  -2  -3    8.59    0.61
   5  -2  -3    8.75    0.74
  -5   2   3    9.60    0.57
  -5   2   3    8.78    0.61
  -5   2   3    9.02    0.73
  -5   2   3    9.74    0.71
   4  -2  -3    0.44    0.10
   4  -2  -3    0.35    0.11
   4  -2  -3    0.35    0.22
   4  -2  -3    0.29    0.23
  -4   2   3    0.49    0.22
  -4   2   3    0.40    0.10
  -4   2   3    0.29    0.11
  -4   2   3    0.45    0.19
   3  -2  -3    1.21    0.22
   3  -2  -3    1.47    0.26
   3  -2  -3    1.64    0.17
  -3   2   3    2.45    0.29
  -3   2   3    1.47    0.15
  -3   2   3    1.60    0.15
  -3   2   3    1.69    0.24
   2  -2  -3   48.11    2.66
   2  -2  -3   50.01    2.68
   2  -2  -3   41.99    2.73
   2  -2  -3   47.04    2.72
  -2   2   3   44.64    2.66
  -2   2   3   46.05    2.71
  -2   2   3   45.96    2.65
  -2   2   3   50.47    2.73
   1  -2  -3   82.52    5.13
   1  -2  -3   94.18    5.10
   1  -2  -3   87.35    5.11
  -1   2   3   96.71    5.18
  -1   2   3   92.35    5.10
  -1   2   3   88.22    5.11
  -1   2   3   86.85    5.06
  -1   2   3   90.24    5.06
   0  -2  -3    0.67    0.11
   0  -2  -3    0.62    0.13
   0  -2  -3    0.52    0.07
   0   2   3    0.51    0.06
   0   2   3    0.27    0.15
   0   2   3    0.35    0.10
   0   2   3    0.53    0.10
   0   2   3    0.55    0.16
  -1  -2  -3    9.77    0.59
  -1  -2  -3    9.73    0.64
  -1  -2  -3   10.42    0.61
  -1  -2  -3   10.29    0.67
   1   2   3    9.46    0.60
   1   2   3    9.73    0.62
   1   2   3    9.74    0.58
   1   2   3    9.36    0.66
  -2  -2  -3    0.00    0.08
  -2  -2  -3    0.03    0.07
  -2  -2  -3   -0.06    0.12
  -2  -2  -3   -0.11    0.14
   2   2   3   -0.05    0.11
   2   2   3    0.12    0.16
   2   2   3   -0.02    0.08
   2   2   3   -0.09    0.07
  -3  -2  -3    3.52    0.27
  -3  -2  -3    3.53    0.39
  -3  -2  -3    3.89    0.31
  -3  -2  -3    3.69    0.37
   3   2   3    2.96    0.35
   3   2   3    3.33    0.34
   3   2   3    3.92    0.30
   3   2   3    3.88    0.29
  -4  -2  -3    5.17    0.35
  -4  -2  -3    5.09    0.41
  -4  -2  -3    4.95    0.49
  -4  -2  -3    5.52    0.51
   4   2   3    4.85    0.43
   4   2   3    5.10    0.40
   4   2   3    4.84    0.45
   4   2   3    3.98    0.38
  -5  -2  -3   -0.07    0.13
  -5  -2  -3    0.32    0.24
  -5  -2  -3    0.31    0.21
   5   2   3    0.25    0.19
   5   2   3   -0.17    0.18
   5   2   3    0.19    0.33
  -6  -2  -3    7.97    0.68
  -6  -2  -3    7.94    0.78
  -6  -2  -3    8.47    0.56
   6   2   3    8.37    0.75
   6   2   3    7.84    0.63
  -7  -2  -3    3.57    0.47
  -7  -2  -3    3.43    0.58
  -7  -2  -3    3.91    0.51
   7   2   3    3.60    0.59
  -8  -2  -3   -0.21    0.44
   8   2   3    0.74    0.55
   8   2   3   -0.03    0.58
   9  -3  -3    0.74    0.71
  -9   3   3   -0.42    0.57
  -9   3   3    0.64    0.48
   8  -3  -3    1.65    0.57
  -8   3   3    2.69    0.41
  -8   3   3    2.10    0.58
   7  -3  -3   10.29    1.00
  -7   3   3    9.84    0.76
  -7   3   3   10.59    0.99
   6  -3  -3    0.15    0.39
  -6   3   3    0.63    0.38
  -6   3   3    0.04    0.19
   5  -3  -3    1.55    0.36
   5  -3  -3    1.12    0.16
   5  -3  -3    1.94    0.25
  -5   3   3    1.91    0.27
  -5   3   3    1.94    0.36
  -5   3   3    1.60    0.19
   4  -3  -3    0.45    0.26
   4  -3  -3    1.12    0.17
   4  -3  -3    0.76    0.14
  -4   3   3    1.46    0.30
  -4   3   3    1.15    0.26
  -4   3   3    0.86    0.14
  -4   3   3    0.60    0.26
  -4   3   3    1.11    0.16
   3  -3  -3   35.40    2.08
   3  -3  -3   36.61    2.16
   3  -3  -3   35.56    2.08
   3  -3  -3   33.91    2.16
  -3   3   3   37.74    2.15
  -3   3   3   35.11    2.05
  -3   3   3   37.07    2.14
  -3   3   3   35.74    2.05
   2  -3  -3    8.49    0.59
   2  -3  -3    8.01    0.53
   2  -3  -3    8.23    0.62
  -2   3   3    7.87    0.48
  -2   3   3    7.62    0.57
  -2   3   3    7.75    0.60
  -2   3   3    7.83    0.51
   1  -3  -3    2.59    0.28
   1  -3  -3    2.41    0.33
   1  -3  -3    2.65    0.30
  -1   3   3    2.20    0.33
  -1   3   3    2.68    0.20
  -1   3   3    2.60    0.24
  -1   3   3    2.30    0.27
  -1   3   3    2.72    0.18
   0  -3  -3    1.81    0.25
   0  -3  -3    1.08    0.18
   0  -3  -3    1.21    0.15
   0   3   3    1.57    0.20
   0   3   3    1.14    0.25
   0   3   3    1.64    0.21
   0   3   3    1.37    0.13
   0   3   3    1.67    0.26
  -1  -3  -3   66.08    3.78
  -1  -3  -3   65.66    3.79
  -1  -3  -3   64.34    3.85
  -1  -3  -3   66.24    3.83
   1   3   3   66.55    3.76
   1   3   3   68.64    3.78
   1   3   3   65.57    3.85
   1   3   3   67.73    3.82
  -2  -3  -3   27.57    1.87
  -2  -3  -3   32.32    1.81
  -2  -3  -3   30.93    1.89
  -2  -3  -3   34.35    1.83
   2   3   3   27.11    1.84
   2   3   3   30.74    1.80
   2   3   3   34.08    1.90
   2   3   3   32.36    1.80
  -3  -3  -3    6.10    0.41
  -3  -3  -3    6.75    0.47
  -3  -3  -3    6.16    0.56
  -3  -3  -3    5.53    0.53
   3   3   3    5.56    0.49
   3   3   3    6.47    0.56
   3   3   3    5.86    0.43
   3   3   3    6.34    0.42
  -4  -3  -3    1.61    0.26
  -4  -3  -3    1.51    0.18
  -4  -3  -3    1.82    0.34
   4   3   3    1.06    0.20
   4   3   3    1.25    0.29
   4   3   3    1.41    0.34
   4   3   3    1.57    0.19
  -5  -3  -3    3.44    0.28
  -5  -3  -3    3.77    0.48
  -5  -3  -3    3.66    0.46
   5   3   3    3.76    0.32
   5   3   3    3.92    0.52
  -6  -3  -3   -0.49    0.39
  -6  -3  -3    0.33    0.29
  -6  -3  -3    0.14    0.16
   6   3   3    1.02    0.42
  -7  -3  -3    0.78    0.41
  -7  -3  -3    0.39    0.53
   7   3   3    1.27    0.52
  -8  -3  -3   -0.74    0.52
   8   3   3   -0.79    0.62
   8   3   3   -1.63    0.65
   8  -4  -3    1.07    0.66
  -8   4   3    0.05    0.59
  -8   4   3    0.61    0.35
   7  -4  -3    6.41    0.96
  -7   4   3    8.56    0.94
  -7   4   3    7.75    0.66
   6  -4  -3    2.43    0.56
  -6   4   3    2.71    0.52
  -6   4   3    2.70    0.37
   5  -4  -3    1.52    0.19
   5  -4  -3    1.55    0.40
  -5   4   3    1.40    0.20
  -5   4   3    1.27    0.21
  -5   4   3    0.95    0.37
   4  -4  -3    3.21    0.33
   4  -4  -3    3.11    0.35
   4  -4  -3    2.87    0.45
  -4   4   3    3.22    0.27
  -4   4   3    3.00    0.28
  -4   4   3    3.71    0.48
   3  -4  -3    1.18    0.19
   3  -4  -3    1.62    0.33
   3  -4  -3    1.37    0.21
  -3   4   3    1.51    0.33
  -3   4   3    1.36    0.20
  -3   4   3    1.31    0.16
  -3   4   3    1.78    0.30
  -3   4   3    1.09    0.28
   2  -4  -3    0.02    0.14
   2  -4  -3    0.16    0.21
   2  -4  -3    0.16    0.23
  -2   4   3   -0.07    0.13
  -2   4   3    0.04    0.24
  -2   4   3    0.04    0.12
  -2   4   3    0.15    0.08
  -2   4   3    0.31    0.21
   1  -4  -3   16.49    1.07
   1  -4  -3   17.70    1.09
  -1   4   3   17.42    1.00
  -1   4   3   17.36    1.07
  -1   4   3   15.49    1.04
  -1   4   3   16.84    1.14
  -1   4   3   17.42    1.13
  -1   4   3   17.41    1.01
   0  -4  -3   19.76    1.28
   0  -4  -3   19.84    1.25
   0  -4  -3   20.95    1.21
   0   4   3   20.45    1.25
   0   4   3   20.94    1.23
   0   4   3   20.37    1.32
   0   4   3   19.98    1.19
   0   4   3   20.50    1.33
  -1  -4  -3   17.03    1.10
  -1  -4  -3   16.44    1.02
   1   4   3   16.27    1.14
   1   4   3   16.34    0.99
   1   4   3   18.67    1.13
   1   4   3   16.95    1.02
   1   4   3   16.21    1.06
  -2  -4  -3    9.10    0.70
  -2  -4  -3    8.33    0.71
  -2  -4  -3    8.29    0.58
  -2  -4  -3    8.21    0.61
   2   4   3    9.85    0.71
   2   4   3    9.21    0.57
   2   4   3    7.83    0.63
   2   4   3    8.73    0.55
  -3  -4  -3    3.76    0.48
  -3  -4  -3    2.65    0.28
  -3  -4  -3    3.22    0.38
   3   4   3    2.63    0.30
   3   4   3    3.95    0.47
   3   4   3    2.34    0.27
  -4  -4  -3    4.96    0.37
  -4  -4  -3    5.26    0.67
  -4  -4  -3    4.75    0.53
   4   4   3    5.41    0.45
   4   4   3    5.08    0.37
   4   4   3    6.12    0.66
  -5  -4  -3    0.33    0.38
  -5  -4  -3    0.73    0.34
   5   4   3    0.80    0.41
  -6  -4  -3    0.18    0.49
  -6  -4  -3    0.13    0.40
   6   4   3    0.36    0.48
  -7  -4  -3    0.91    0.51
   7   4   3    1.13    0.67
   7   4   3    0.44    0.63
   8  -5  -3    1.37    0.76
  -8   5   3    0.07    0.39
  -8   5   3    0.47    0.74
   7  -5  -3    1.24    0.62
  -7   5   3    3.06    0.68
  -7   5   3    2.50    0.37
   6  -5  -3    2.03    0.54
  -6   5   3    2.05    0.51
  -6   5   3    1.71    0.30
   5  -5  -3    2.74    0.36
   5  -5  -3    2.27    0.53
   5  -5  -3    3.11    0.36
  -5   5   3    2.47    0.27
  -5   5   3    3.16    0.33
  -5   5   3    3.37    0.52
   4  -5  -3    0.32    0.22
   4  -5  -3    0.14    0.19
   4  -5  -3    0.39    0.38
  -4   5   3    0.30    0.13
  -4   5   3    0.62    0.36
  -4   5   3    0.02    0.15
   3  -5  -3    1.58    0.26
   3  -5  -3    2.00    0.44
  -3   5   3    1.03    0.24
  -3   5   3    1.20    0.33
  -3   5   3    1.31    0.18
  -3   5   3    1.40    0.19
   2  -5  -3    3.38    0.48
   2  -5  -3    3.71    0.45
  -2   5   3    2.96    0.35
  -2   5   3    2.87    0.35
  -2   5   3    3.31    0.29
  -2   5   3    3.61    0.44
  -2   5   3    2.87    0.40
   1  -5  -3    4.24    0.49
   1  -5  -3    4.78    0.49
  -1   5   3    5.32    0.40
  -1   5   3    5.17    0.41
  -1   5   3    4.80    0.44
  -1   5   3    5.97    0.62
  -1   5   3    5.98    0.50
   0  -5  -3    0.44    0.23
   0  -5  -3    0.26    0.21
   0  -5  -3    0.04    0.16
   0   5   3   -0.03    0.16
   0   5   3    0.00    0.14
   0   5   3    0.23    0.29
   0   5   3    0.55    0.19
  -1  -5  -3    7.61    0.57
  -1  -5  -3    7.01    0.67
   1   5   3    8.80    0.55
   1   5   3    8.03    0.71
   1   5   3    7.40    0.51
  -2  -5  -3    0.37    0.29
  -2  -5  -3    0.76    0.23
  -2  -5  -3    0.84    0.25
   2   5   3    0.81    0.18
   2   5   3    0.69    0.16
   2   5   3    1.09    0.40
  -3  -5  -3    3.04    0.45
  -3  -5  -3    2.48    0.31
  -3  -5  -3    3.16    0.39
   3   5   3    4.57    0.60
   3   5   3    2.44    0.27
   3   5   3    2.27    0.29
  -4  -5  -3    1.31    0.35
  -4  -5  -3    1.17    0.43
   4   5   3    1.07    0.46
  -5  -5  -3    0.44    0.49
  -5  -5  -3    1.29    0.43
   5   5   3    0.34    0.49
  -6  -5  -3    1.42    0.63
  -6  -5  -3    1.12    0.51
   6   5   3    0.77    0.62
  -7  -5  -3    0.17    0.56
   7   5   3   -0.52    0.67
   7   5   3    1.06    0.74
   7  -6  -3   -0.62    0.70
  -7   6   3   -1.53    0.64
  -7   6   3    0.11    0.34
   6  -6  -3    0.84    0.60
  -6   6   3    0.95    0.57
  -6   6   3    0.87    0.29
   5  -6  -3    0.18    0.51
   5  -6  -3   -0.24    0.22
  -5   6   3    0.41    0.36
  -5   6   3   -0.16    0.21
  -5   6   3   -0.68    0.43
   4  -6  -3    0.21    0.45
   4  -6  -3    0.37    0.27
  -4   6   3    0.09    0.18
  -4   6   3    0.49    0.42
  -4   6   3    0.07    0.30
  -4   6   3    0.16    0.17
   3  -6  -3    2.08    0.34
   3  -6  -3    1.86    0.47
  -3   6   3    1.95    0.24
  -3   6   3    2.27    0.44
  -3   6   3    1.81    0.31
  -3   6   3    2.61    0.34
   2  -6  -3   27.17    1.72
  -2   6   3   27.82    1.62
  -2   6   3   25.80    1.70
  -2   6   3   29.07    1.84
  -2   6   3   25.94    1.66
  -2   6   3   28.71    1.75
   1  -6  -3   37.50    2.26
  -1   6   3   37.33    2.33
  -1   6   3   35.18    2.17
  -1   6   3   37.28    2.15
  -1   6   3   36.32    2.21
  -1   6   3   36.52    2.28
   0  -6  -3    0.40    0.32
   0   6   3    0.26    0.20
   0   6   3    0.19    0.29
   0   6   3    0.20    0.22
   0   6   3   -0.14    0.38
  -1  -6  -3    9.42    0.69
  -1  -6  -3    8.69    0.84
   1   6   3    9.07    0.62
   1   6   3   10.75    0.89
   1   6   3    9.20    0.66
   1   6   3    9.06    0.72
  -2  -6  -3    0.37    0.29
  -2  -6  -3    0.36    0.36
   2   6   3    0.11    0.18
   2   6   3    0.00    0.18
   2   6   3    0.49    0.24
   2   6   3    0.43    0.40
  -3  -6  -3   -0.29    0.29
  -3  -6  -3    0.16    0.40
   3   6   3    0.23    0.45
   3   6   3   -0.17    0.18
  -4  -6  -3   -0.17    0.47
  -4  -6  -3    0.70    0.40
   4   6   3    0.26    0.50
  -5  -6  -3   -0.21    0.51
  -5  -6  -3    1.38    0.61
   5   6   3    0.48    0.55
  -6  -6  -3    0.42    0.63
   6   6   3    0.59    0.69
   6  -7  -3    0.00    0.71
  -6   7   3   -0.08    0.28
  -6   7   3    0.60    0.71
   5  -7  -3   -0.13    0.63
  -5   7   3   -0.36    0.53
  -5   7   3    0.00    0.34
   4  -7  -3   -1.23    0.53
   4  -7  -3    0.04    0.35
  -4   7   3    0.08    0.47
  -4   7   3    0.14    0.22
   3  -7  -3    1.06    0.38
  -3   7   3    1.23    0.60
  -3   7   3    0.49    0.44
  -3   7   3    0.99    0.22
   2  -7  -3    1.01    0.40
  -2   7   3    0.90    0.38
  -2   7   3    1.17    0.24
  -2   7   3    1.22    0.56
  -2   7   3    1.29    0.29
   1  -7  -3    1.32    0.42
  -1   7   3    1.12    0.25
  -1   7   3    1.10    0.40
  -1   7   3    1.33    0.56
  -1   7   3    1.87    0.28
   0  -7  -3    0.89    0.43
   0   7   3    0.01    0.50
   0   7   3    0.60    0.27
   0   7   3    0.88    0.43
   0   7   3    0.01    0.24
   0   7   3    0.16    0.28
  -1  -7  -3    0.09    0.32
  -1  -7  -3    0.28    0.44
   1   7   3    0.16    0.49
   1   7   3    0.07    0.25
   1   7   3   -0.36    0.41
  -2  -7  -3    0.20    0.34
  -2  -7  -3    0.12    0.48
   2   7   3    0.25    0.22
   2   7   3    0.45    0.50
  -3  -7  -3    1.03    0.48
  -3  -7  -3    1.71    0.60
   3   7   3    1.82    0.61
  -4  -7  -3    0.06    0.64
  -4  -7  -3   -0.43    0.51
   4   7   3    1.23    0.66
  -5  -7  -3    0.40    0.60
  -5  -7  -3    0.93    0.71
   5   7   3   -0.49    0.67
   5  -8  -3    1.30    0.83
  -5   8   3   -0.25    0.67
  -4   8   3    0.57    0.45
  -4   8   3    0.21    0.59
  -4   8   3    0.80    0.78
   3  -8  -3    1.82    0.50
  -3   8   3    2.31    0.30
  -3   8   3    1.83    0.59
  -3   8   3    3.98    0.78
   2  -8  -3   12.20    1.08
  -2   8   3    9.20    1.22
  -2   8   3   10.63    0.97
  -2   8   3    9.06    0.74
   1  -8  -3    2.95    0.57
  -1   8   3    1.88    0.45
  -1   8   3    2.32    0.36
  -1   8   3    2.58    0.73
   0  -8  -3    0.15    0.49
   0   8   3    0.26    0.37
   0   8   3    0.23    0.31
   0   8   3    0.40    0.61
  -1  -8  -3   -0.15    0.34
  -1  -8  -3    0.59    0.52
   1   8   3   -0.07    0.30
   1   8   3    0.50    0.58
  -2  -8  -3    1.89    0.68
  -2  -8  -3    0.22    0.48
   2   8   3   -0.15    0.68
  -3  -8  -3    0.84    0.47
  -3  -8  -3    0.31    0.67
   3   8   3    0.97    0.75
  -3   9   3    0.40    0.63
  -3   9   3    1.56    0.88
  -3   9   3   -0.22    0.63
  -2   9   3    1.50    0.87
  -2   9   3    0.07    0.54
   1  -9  -3   -0.13    0.60
  -1   9   3    0.49    0.78
  -1   9   3   -0.30    0.47
   0  -9  -3   -0.28    0.67
   0   9   3    0.01    0.76
   0   9   3   -0.49    0.43
  -1  -9  -3   -0.07    0.69
   1   9   3    1.59    0.83
   2  10  -4   -0.43    0.54
   2  10  -4    1.03    0.70
  -2 -10   4    0.42    0.67
   1  10  -4    0.97    0.56
   1  10  -4    1.33    0.70
  -1 -10   4   -0.63    0.61
   0  10  -4    0.61    0.60
   0  10  -4    0.71    0.46
   0  10  -4    0.52    0.52
   0  10  -4    0.79    0.57
  -1  10  -4   -0.52    0.56
  -1  10  -4    0.28    0.57
  -1  10  -4    0.17    0.48
  -1  10  -4   -0.32    0.49
  -2  10  -4    1.29    0.56
  -2  10  -4    1.81    0.62
  -2  10  -4    1.60    0.57
  -3  10  -4   -0.21    0.47
  -3  10  -4   -0.65    0.70
  -3  10  -4    0.32    0.48
  -3  10  -4    0.50    0.57
  -4  10  -4    0.64    0.63
  -4  10  -4    0.48    0.81
  -4  10  -4    0.12    0.49
   4   9  -4    0.91    0.62
   4   9  -4    1.61    0.71
  -4  -9   4    1.90    0.74
   3   9  -4   -0.58    0.50
   3   9  -4   -0.41    0.61
   2   9  -4   -0.19    0.44
   2   9  -4    0.24    0.58
  -2  -9   4    0.32    0.55
   1   9  -4    2.05    0.57
   1   9  -4    2.11    0.39
   1   9  -4    2.03    0.49
  -1  -9   4    2.02    0.57
   0   9  -4    0.70    0.44
   0   9  -4    0.55    0.48
   0   9  -4    0.54    0.42
   0   9  -4    0.24    0.40
  -1   9  -4    0.90    0.42
  -1   9  -4    1.38    0.49
  -1   9  -4    0.37    0.45
  -1   9  -4    0.96    0.43
  -2   9  -4    0.89    0.39
  -2   9  -4    1.46    0.56
  -2   9  -4    1.24    0.46
  -2   9  -4    1.28    0.48
  -3   9  -4    0.80    0.48
  -3   9  -4    0.01    0.38
  -3   9  -4    0.41    0.40
  -3   9  -4   -0.12    0.54
  -4   9  -4    1.18    0.44
  -4   9  -4    2.12    0.37
  -4   9  -4    3.20    0.78
  -4   9  -4    3.61    0.64
  -5   9  -4    0.52    0.77
  -5   9  -4    1.21    0.45
   5  -9   4    1.10    0.63
   5   8  -4   -0.54    0.68
   5   8  -4    0.20    0.55
  -5  -8   4   -0.73    0.61
   4   8  -4   -0.36    0.47
   4   8  -4   -0.41    0.55
  -4  -8   4   -0.21    0.54
   3   8  -4    0.00    0.54
   3   8  -4    0.31    0.39
  -3  -8   4   -0.24    0.43
   2   8  -4   -0.09    0.23
   2   8  -4    0.72    0.35
   2   8  -4    0.34    0.43
  -2  -8   4   -0.39    0.38
   1   8  -4   -0.19    0.28
   1   8  -4    0.09    0.39
   1   8  -4    0.41    0.40
   1   8  -4    0.20    0.28
   1   8  -4   -0.06    0.30
   0   8  -4    0.39    0.37
   0   8  -4   -0.35    0.36
   0   8  -4    0.43    0.35
   0   8  -4    0.17    0.29
   0   8  -4    0.36    0.31
   0  -8   4   -0.05    0.36
  -1   8  -4    2.92    0.47
  -1   8  -4    3.42    0.49
  -1   8  -4    3.18    0.50
  -1   8  -4    3.73    0.53
   1  -8   4    3.51    0.50
  -2   8  -4    2.72    0.42
  -2   8  -4    3.81    0.49
  -2   8  -4    2.22    0.42
  -2   8  -4    3.21    0.45
   2  -8   4    2.50    0.50
  -3   8  -4    0.51    0.32
  -3   8  -4    0.13    0.36
  -3   8  -4    0.90    0.39
  -3   8  -4    0.16    0.37
  -3   8  -4    0.44    0.29
   3  -8   4    0.12    0.46
  -4   8  -4    0.27    0.25
  -4   8  -4    1.41    0.57
  -4   8  -4    0.20    0.32
   4  -8   4   -0.24    0.48
   4  -8   4    0.50    0.43
  -5   8  -4    7.74    1.12
  -5   8  -4    6.15    0.76
   5  -8   4    6.20    0.89
  -6   8  -4    5.83    0.98
  -6   8  -4    6.65    0.80
   6  -8   4    6.06    0.84
   6   7  -4    0.09    0.65
   6   7  -4    0.85    0.58
  -6  -7   4    0.80    0.61
   5   7  -4    0.90    0.48
   5   7  -4   -0.16    0.54
  -5  -7   4    0.88    0.53
   4   7  -4    0.31    0.37
   4   7  -4    0.05    0.43
  -4  -7   4    0.03    0.43
   3   7  -4    2.19    0.40
   3   7  -4    2.09    0.20
   3   7  -4    2.96    0.49
   3   7  -4    2.08    0.31
  -3  -7   4    2.78    0.47
   2   7  -4    0.15    0.25
   2   7  -4    0.15    0.18
   2   7  -4   -0.08    0.33
  -2  -7   4    0.50    0.33
   1   7  -4    0.58    0.35
   1   7  -4    0.82    0.27
   1   7  -4    0.69    0.32
   1   7  -4    1.65    0.26
  -1  -7   4    1.24    0.37
  -1  -7   4    1.04    0.26
   0   7  -4    0.20    0.40
   0   7  -4    0.53    0.23
   0   7  -4    0.73    0.30
   0   7  -4    0.97    0.28
   0  -7   4    0.72    0.28
   0  -7   4    0.37    0.29
  -1   7  -4    8.22    0.80
  -1   7  -4    8.66    0.72
  -1   7  -4    7.19    0.68
  -1   7  -4    7.62    0.65
  -1   7  -4    7.81    0.67
  -1   7  -4    8.04    0.63
   1  -7   4    8.03    0.70
  -2   7  -4   22.98    1.52
  -2   7  -4   25.34    1.59
  -2   7  -4   24.27    1.56
  -2   7  -4   25.33    1.54
  -2   7  -4   25.69    1.55
   2  -7   4   24.54    1.61
  -3   7  -4    0.52    0.24
  -3   7  -4    0.48    0.28
  -3   7  -4    0.31    0.26
  -3   7  -4    0.70    0.30
   3  -7   4    0.64    0.33
   3  -7   4    0.25    0.40
  -4   7  -4    7.97    0.73
  -4   7  -4    8.30    0.72
  -4   7  -4    9.76    0.69
  -4   7  -4    8.48    0.62
   4  -7   4    7.31    0.77
   4  -7   4   11.58    0.97
  -5   7  -4    1.66    0.20
  -5   7  -4    1.97    0.37
   5  -7   4    2.56    0.48
   5  -7   4    1.86    0.55
  -6   7  -4    0.92    0.39
  -6   7  -4    1.18    0.68
   6  -7   4    1.29    0.51
  -7   7  -4   -0.08    0.42
  -7   7  -4    0.50    0.79
   7  -7   4   -0.25    0.58
   7   6  -4    0.77    0.60
   7   6  -4    0.82    0.63
  -7  -6   4    0.74    0.65
   6   6  -4    0.06    0.51
   6   6  -4   -0.49    0.45
  -6  -6   4    0.46    0.49
   5   6  -4   -0.03    0.37
   5   6  -4    0.25    0.43
  -5  -6   4    0.05    0.35
   4   6  -4    1.60    0.42
   4   6  -4    1.72    0.36
  -4  -6   4    1.49    0.40
   3   6  -4    0.94    0.27
   3   6  -4    0.63    0.34
   3   6  -4    0.79    0.11
  -3  -6   4    0.86    0.30
  -3  -6   4    0.67    0.14
  -3  -6   4    0.89    0.33
   2   6  -4   -0.14    0.26
   2   6  -4   -0.12    0.14
   2   6  -4   -0.23    0.18
  -2  -6   4   -0.01    0.16
  -2  -6   4   -0.11    0.26
  -2  -6   4   -0.08    0.24
   1   6  -4    3.15    0.35
   1   6  -4    3.47    0.42
   1   6  -4    3.41    0.41
   1   6  -4    3.41    0.39
   1   6  -4    2.37    0.36
   1   6  -4    3.41    0.34
  -1  -6   4    3.01    0.36
  -1  -6   4    3.52    0.45
   0   6  -4    4.47    0.42
   0   6  -4    3.17    0.44
   0   6  -4    2.86    0.37
   0   6  -4    4.02    0.37
   0   6  -4    3.79    0.45
   0  -6   4    3.90    0.45
   0  -6   4    3.37    0.40
  -1   6  -4   -0.20    0.23
  -1   6  -4    0.27    0.21
  -1   6  -4    0.28    0.18
  -1   6  -4   -0.14    0.24
  -1   6  -4    0.17    0.22
  -1   6  -4    0.19    0.23
  -1   6  -4    0.33    0.23
   1  -6   4   -0.21    0.23
  -2   6  -4    0.44    0.21
  -2   6  -4    0.86    0.31
  -2   6  -4    0.59    0.27
  -2   6  -4    1.01    0.22
  -2   6  -4    0.59    0.24
  -2   6  -4    1.29    0.22
   2  -6   4    0.83    0.27
   2  -6   4    0.95    0.23
  -3   6  -4    0.86    0.24
  -3   6  -4    0.86    0.18
  -3   6  -4    1.14    0.23
  -3   6  -4    0.48    0.21
   3  -6   4    0.93    0.26
   3  -6   4    0.89    0.34
  -4   6  -4    3.21    0.32
  -4   6  -4    3.34    0.43
  -4   6  -4    3.59    0.46
   4  -6   4    3.15    0.45
   4  -6   4    3.27    0.53
  -5   6  -4    1.42    0.35
  -5   6  -4    1.59    0.33
  -5   6  -4    1.56    0.21
  -5   6  -4    1.57    0.20
   5  -6   4    1.49    0.38
   5  -6   4    1.75    0.54
  -6   6  -4    1.79    0.36
   6  -6   4    1.24    0.56
   6  -6   4    2.59    0.54
  -7   6  -4    0.21    0.37
  -7   6  -4   -0.70    0.67
   7  -6   4   -0.57    0.54
  -8   6  -4    0.63    0.87
  -8   6  -4    0.58    0.45
   8  -6   4    0.81    0.69
   8   5  -4    0.02    0.61
   8   5  -4    0.86    0.70
  -8  -5   4   -0.54    0.54
   7   5  -4    2.03    0.59
   7   5  -4    0.72    0.54
  -7  -5   4    1.31    0.52
   6   5  -4    1.49    0.48
   6   5  -4    1.41    0.46
  -6  -5   4    1.15    0.41
   5   5  -4    0.45    0.36
   5   5  -4    0.43    0.37
  -5  -5   4    0.35    0.31
   4   5  -4    0.42    0.25
   4   5  -4    0.49    0.29
  -4  -5   4   -0.12    0.27
  -4  -5   4    0.49    0.27
   3   5  -4    6.54    0.64
   3   5  -4    7.34    0.56
   3   5  -4    7.18    0.45
  -3  -5   4    7.42    0.58
  -3  -5   4    7.18    0.61
   2   5  -4    0.16    0.11
   2   5  -4   -0.12    0.19
   2   5  -4   -0.14    0.18
   2   5  -4    0.04    0.23
   2   5  -4    0.23    0.15
  -2  -5   4    0.11    0.14
  -2  -5   4    0.42    0.21
  -2  -5   4    0.24    0.18
   1   5  -4   10.73    0.75
   1   5  -4   11.19    0.70
   1   5  -4   10.48    0.78
   1   5  -4   11.24    0.80
   1   5  -4   10.83    0.70
  -1  -5   4   11.06    0.81
  -1  -5   4   11.26    0.79
  -1  -5   4   11.18    0.73
   0   5  -4    0.00    0.12
   0   5  -4    0.22    0.16
   0   5  -4   -0.14    0.13
   0   5  -4    0.09    0.17
   0   5  -4    0.08    0.15
   0  -5   4   -0.06    0.16
   0  -5   4   -0.03    0.16
   0  -5   4   -0.29    0.19
  -1   5  -4  112.70    6.56
  -1   5  -4  116.98    6.61
  -1   5  -4  120.16    6.56
  -1   5  -4  117.87    6.61
  -1   5  -4  117.19    6.59
  -1   5  -4  110.71    6.61
   1  -5   4  113.66    6.61
   1  -5   4  114.97    6.60
  -2   5  -4   34.07    2.05
  -2   5  -4   34.22    1.99
  -2   5  -4   36.58    2.00
  -2   5  -4   33.47    2.03
  -2   5  -4   31.96    2.04
   2  -5   4   32.47    2.06
   2  -5   4   35.19    2.00
   2  -5   4   33.61    2.01
  -3   5  -4    0.95    0.19
  -3   5  -4    0.76    0.25
  -3   5  -4    0.34    0.22
  -3   5  -4    1.04    0.16
  -3   5  -4    1.07    0.22
   3  -5   4    0.84    0.23
   3  -5   4    0.80    0.21
   3  -5   4    0.92    0.26
  -4   5  -4    0.13    0.11
  -4   5  -4    0.21    0.18
  -4   5  -4    0.15    0.17
  -4   5  -4    0.03    0.20
   4  -5   4    0.20    0.30
   4  -5   4    0.06    0.22
  -5   5  -4    2.37    0.27
  -5   5  -4    2.16    0.32
  -5   5  -4    2.11    0.33
  -5   5  -4    2.41    0.20
   5  -5   4    2.56    0.39
   5  -5   4    3.13    0.52
  -6   5  -4    3.86    0.53
   6  -5   4    3.95    0.59
   6  -5   4    4.48    0.66
  -7   5  -4    0.94    0.36
   7  -5   4    1.45    0.53
   7  -5   4    0.55    0.60
  -8   5  -4    0.61    0.45
  -8   5  -4    0.58    0.81
   8  -5   4    0.49    0.60
   8   4  -4    1.77    0.58
   8   4  -4    2.49    0.66
  -8  -4   4    1.97    0.58
   7   4  -4    0.47    0.42
   7   4  -4    1.29    0.50
  -7  -4   4    0.80    0.43
   6   4  -4    2.53    0.47
   6   4  -4    1.79    0.44
  -6  -4   4    2.59    0.42
   5   4  -4    0.08    0.28
   5   4  -4    0.10    0.25
  -5  -4   4   -0.16    0.12
  -5  -4   4   -0.35    0.27
  -5  -4   4    0.07    0.09
   4   4  -4    8.36    0.62
   4   4  -4    8.08    0.67
   4   4  -4    7.47    0.67
   4   4  -4    7.43    0.49
  -4  -4   4    8.32    0.66
  -4  -4   4    7.96    0.62
   3   4  -4    0.99    0.12
   3   4  -4    0.71    0.22
   3   4  -4    0.88    0.24
   3   4  -4    0.47    0.17
   3   4  -4    1.29    0.21
  -3  -4   4    0.68    0.20
  -3  -4   4    1.18    0.17
  -3  -4   4    1.56    0.23
   2   4  -4    0.13    0.12
   2   4  -4   -0.13    0.16
   2   4  -4    0.10    0.09
   2   4  -4    0.02    0.16
  -2  -4   4    0.05    0.14
  -2  -4   4    0.29    0.19
  -2  -4   4    0.12    0.11
  -2  -4   4    0.04    0.14
   1   4  -4    4.35    0.31
   1   4  -4    4.95    0.39
   1   4  -4    4.18    0.39
   1   4  -4    4.47    0.34
  -1  -4   4    4.61    0.35
  -1  -4   4    4.33    0.41
  -1  -4   4    4.42    0.33
  -1  -4   4    3.91    0.37
   0   4  -4   20.16    1.25
   0   4  -4   21.15    1.25
   0   4  -4   20.33    1.27
   0   4  -4   20.46    1.20
   0   4  -4   20.69    1.21
   0  -4   4   20.29    1.27
   0  -4   4   21.36    1.26
   0  -4   4   20.97    1.27
  -1   4  -4   19.45    1.14
  -1   4  -4   19.83    1.21
  -1   4  -4   19.81    1.20
  -1   4  -4   19.16    1.18
  -1   4  -4   19.34    1.20
   1  -4   4   19.44    1.21
  -2   4  -4    0.36    0.17
  -2   4  -4    0.12    0.09
  -2   4  -4    0.42    0.18
  -2   4  -4    0.17    0.09
  -2   4  -4    0.06    0.14
   2  -4   4    0.14    0.12
   2  -4   4   -0.01    0.11
   2  -4   4    0.07    0.19
  -3   4  -4    4.61    0.46
  -3   4  -4    4.28    0.40
  -3   4  -4    4.89    0.36
  -3   4  -4    4.76    0.32
   3  -4   4    4.08    0.44
   3  -4   4    4.20    0.48
   3  -4   4    4.41    0.36
   3  -4   4    4.33    0.38
  -4   4  -4   14.79    0.85
  -4   4  -4   12.44    0.98
  -4   4  -4   14.48    0.93
  -4   4  -4   15.39    0.91
   4  -4   4   14.92    1.04
   4  -4   4   14.67    0.97
   4  -4   4   13.18    0.88
   4  -4   4   15.20    0.94
  -5   4  -4    5.77    0.37
  -5   4  -4    5.83    0.51
  -5   4  -4    5.91    0.51
   5  -4   4    5.62    0.44
   5  -4   4    5.99    0.54
   5  -4   4    5.92    0.77
  -6   4  -4    1.55    0.28
   6  -4   4    1.29    0.35
   6  -4   4    0.97    0.46
  -7   4  -4    1.96    0.37
   7  -4   4    2.04    0.63
   7  -4   4    2.52    0.50
  -8   4  -4    0.29    0.38
  -8   4  -4    0.24    0.71
   8  -4   4    0.96    0.55
  -9  -3   4    0.63    0.57
   8   3  -4   -0.21    0.54
   8   3  -4    0.25    0.45
  -8  -3   4    0.09    0.47
   7   3  -4   -0.19    0.32
   7   3  -4   -0.59    0.41
  -7  -3   4    0.18    0.17
  -7  -3   4    0.58    0.38
   6   3  -4    0.44    0.35
   6   3  -4   -0.07    0.29
  -6  -3   4    0.65    0.30
  -6  -3   4    0.05    0.22
  -6  -3   4    0.19    0.15
   5   3  -4    4.24    0.47
   5   3  -4    4.46    0.49
   5   3  -4    3.78    0.44
  -5  -3   4    4.06    0.33
  -5  -3   4    3.02    0.42
  -5  -3   4    4.13    0.45
   4   3  -4    2.57    0.29
   4   3  -4    2.89    0.33
   4   3  -4    3.50    0.39
   4   3  -4    3.18    0.27
  -4  -3   4    3.10    0.36
  -4  -3   4    3.11    0.26
  -4  -3   4    2.81    0.35
  -4  -3   4    2.76    0.33
   3   3  -4    0.37    0.15
   3   3  -4    0.49    0.10
   3   3  -4    0.28    0.12
   3   3  -4    0.38    0.14
  -3  -3   4    0.40    0.10
  -3  -3   4    0.42    0.16
  -3  -3   4    0.59    0.15
  -3  -3   4    0.12    0.19
   2   3  -4   11.58    0.79
   2   3  -4   10.41    0.77
   2   3  -4   13.19    0.74
   2   3  -4   13.62    0.75
  -2  -3   4   11.28    0.80
  -2  -3   4   13.54    0.76
  -2  -3   4   11.26    0.79
  -2  -3   4   12.35    0.74
   1   3  -4   29.16    1.68
   1   3  -4   29.51    1.77
   1   3  -4   29.37    1.70
   1   3  -4   28.69    1.73
  -1  -3   4   28.51    1.69
  -1  -3   4   29.89    1.77
  -1  -3   4   31.00    1.74
  -1  -3   4   29.04    1.71
   0   3  -4    1.01    0.17
   0   3  -4    0.84    0.08
   0   3  -4    1.13    0.15
   0   3  -4    0.89    0.07
   0   3  -4    0.96    0.19
   0  -3   4    0.96    0.15
   0  -3   4    0.57    0.14
   0  -3   4    0.90    0.15
  -1   3  -4   77.63    4.38
  -1   3  -4   74.49    4.43
  -1   3  -4   80.41    4.41
   1  -3   4   78.15    4.45
   1  -3   4   76.08    4.38
   1  -3   4   78.44    4.42
  -2   3  -4    0.80    0.17
  -2   3  -4    0.40    0.12
  -2   3  -4    0.47    0.09
  -2   3  -4    0.73    0.10
   2  -3   4    0.58    0.16
   2  -3   4    0.62    0.12
   2  -3   4    0.66    0.18
   2  -3   4    0.64    0.10
  -3   3  -4   46.02    2.65
  -3   3  -4   48.44    2.68
  -3   3  -4   45.58    2.71
   3  -3   4   47.67    2.67
   3  -3   4   41.78    2.69
   3  -3   4   44.27    2.64
   3  -3   4   49.39    2.74
  -4   3  -4   24.86    1.59
  -4   3  -4   25.48    1.55
  -4   3  -4   25.63    1.49
  -4   3  -4   25.09    1.55
   4  -3   4   25.32    1.51
   4  -3   4   29.51    1.64
   4  -3   4   25.74    1.58
   4  -3   4   26.52    1.56
  -5   3  -4    1.50    0.19
  -5   3  -4    1.26    0.23
  -5   3  -4    1.50    0.35
  -5   3  -4    1.42    0.26
   5  -3   4    1.88    0.30
   5  -3   4    1.26    0.16
   5  -3   4    1.20    0.32
  -6   3  -4    0.53    0.12
  -6   3  -4    0.26    0.24
   6  -3   4    0.74    0.43
   6  -3   4    0.52    0.33
   6  -3   4    0.22    0.11
  -7   3  -4    0.20    0.28
   7  -3   4    0.00    0.35
   7  -3   4    0.34    0.45
  -8   3  -4    0.67    0.37
   8  -3   4    0.12    0.61
   8  -3   4   -0.13    0.56
  -9   3  -4    0.58    0.81
  -9   3  -4    0.14    0.43
   9  -3   4    0.22    0.70
   9   2  -4    0.88    0.73
  -9  -2   4    0.01    0.51
   8   2  -4    0.38    0.34
   8   2  -4    0.39    0.57
  -8  -2   4    0.16    0.38
  -8  -2   4    0.54    0.27
   7   2  -4    2.78    0.55
   7   2  -4    2.20    0.37
   7   2  -4    2.28    0.35
  -7  -2   4    2.39    0.35
  -7  -2   4    1.34    0.35
  -7  -2   4    1.84    0.28
   6   2  -4    8.94    0.74
   6   2  -4    6.50    0.65
   6   2  -4    7.51    0.64
  -6  -2   4    7.83    0.64
  -6  -2   4    7.58    0.67
  -6  -2   4    7.31    0.54
   5   2  -4    3.16    0.31
   5   2  -4    3.58    0.43
   5   2  -4    2.72    0.36
   5   2  -4    2.97    0.35
  -5  -2   4    2.01    0.31
  -5  -2   4    2.62    0.38
  -5  -2   4    2.87    0.29
   4   2  -4    1.44    0.19
   4   2  -4    0.91    0.19
   4   2  -4    0.88    0.21
   4   2  -4    1.58    0.21
  -4  -2   4    1.30    0.23
  -4  -2   4    1.06    0.20
  -4  -2   4    1.79    0.26
  -4  -2   4    1.48    0.17
   3   2  -4   13.47    0.89
   3   2  -4   15.05    0.91
   3   2  -4   15.99    0.92
  -3  -2   4   14.81    0.88
  -3  -2   4   14.24    0.93
  -3  -2   4   14.82    0.92
   2   2  -4    1.66    0.20
   2   2  -4    1.52    0.17
   2   2  -4    1.77    0.22
   2   2  -4    1.89    0.17
  -2  -2   4    1.74    0.17
  -2  -2   4    1.43    0.17
  -2  -2   4    1.61    0.22
  -2  -2   4    1.80    0.26
   1   2  -4    0.45    0.09
   1   2  -4    0.32    0.10
   1   2  -4    0.53    0.07
   1   2  -4    0.50    0.11
  -1  -2   4    0.54    0.07
  -1  -2   4    0.49    0.11
  -1  -2   4    0.23    0.10
  -1  -2   4    0.43    0.09
   0   2  -4   -0.06    0.07
   0   2  -4   -0.01    0.07
   0   2  -4    0.05    0.09
   0  -2   4   -0.02    0.07
   0  -2   4    0.03    0.09
   0  -2   4   -0.08    0.08
  -1   2  -4   10.07    0.56
  -1   2  -4    8.49    0.59
  -1   2  -4    9.43    0.60
  -1   2  -4    9.45    0.59
  -1   2  -4    9.34    0.54
   1  -2   4    9.01    0.60
   1  -2   4    9.43    0.54
   1  -2   4    8.28    0.57
  -2   2  -4    6.54    0.41
  -2   2  -4    6.27    0.44
  -2   2  -4    6.40    0.41
  -2   2  -4    5.95    0.50
   2  -2   4    6.69    0.41
   2  -2   4    6.67    0.49
   2  -2   4    6.73    0.42
  -3   2  -4    2.07    0.24
  -3   2  -4    2.33    0.23
  -3   2  -4    2.31    0.19
  -3   2  -4    1.75    0.26
   3  -2   4    2.23    0.30
   3  -2   4    2.51    0.19
   3  -2   4    2.36    0.24
   3  -2   4    2.50    0.26
  -4   2  -4    0.04    0.13
  -4   2  -4    0.04    0.15
  -4   2  -4    0.20    0.20
  -4   2  -4    0.43    0.11
   4  -2   4    0.46    0.16
   4  -2   4    0.45    0.21
   4  -2   4    0.66    0.18
  -5   2  -4    5.68    0.43
  -5   2  -4    5.58    0.40
  -5   2  -4    5.08    0.50
  -5   2  -4    5.12    0.48
   5  -2   4    4.28    0.54
   5  -2   4    4.93    0.50
  -6   2  -4   12.25    0.79
  -6   2  -4   12.54    0.85
   6  -2   4   13.31    0.94
   6  -2   4   10.94    0.75
   6  -2   4   14.14    0.98
  -7   2  -4   14.41    0.99
   7  -2   4   13.51    1.10
   7  -2   4   15.55    1.20
  -8   2  -4   -0.47    0.31
   8  -2   4    0.02    0.56
   8  -2   4   -0.07    0.54
  -9   2  -4    2.79    0.82
  -9   2  -4    3.33    0.51
   9  -2   4    4.60    0.85
   9   1  -4    0.25    0.70
  -9  -1   4   -0.37    0.49
   8   1  -4    0.52    0.24
   8   1  -4    1.29    0.58
  -8  -1   4    0.18    0.33
  -8  -1   4    0.23    0.39
   7   1  -4    5.87    0.50
   7   1  -4    3.96    0.57
   7   1  -4    5.71    0.72
  -7  -1   4    5.59    0.63
  -7  -1   4    5.28    0.52
   6   1  -4    1.66    0.31
   6   1  -4    1.84    0.24
   6   1  -4    1.92    0.40
  -6  -1   4    1.45    0.30
  -6  -1   4    1.60    0.26
   5   1  -4    2.59    0.38
   5   1  -4    3.67    0.43
   5   1  -4    2.99    0.31
   5   1  -4    3.56    0.34
  -5  -1   4    3.76    0.33
  -5  -1   4    4.25    0.38
  -5  -1   4    3.18    0.37
   4   1  -4   11.79    0.77
   4   1  -4   11.07    0.78
   4   1  -4   11.52    0.73
   4   1  -4   12.40    0.75
  -4  -1   4   10.82    0.76
  -4  -1   4   12.43    0.75
  -4  -1   4   12.52    0.76
   3   1  -4   77.48    4.78
   3   1  -4   78.78    4.77
   3   1  -4   76.96    4.77
   3   1  -4   81.42    4.76
  -3  -1   4   92.21    4.78
  -3  -1   4   91.21    4.78
  -3  -1   4   87.85    4.76
   2   1  -4   89.37    5.75
   2   1  -4   98.45    5.76
   2   1  -4  110.25    5.77
  -2  -1   4  117.74    5.78
  -2  -1   4   92.73    5.76
  -2  -1   4  101.86    5.77
   1   1  -4   49.94    3.27
   1   1  -4   54.01    3.28
   1   1  -4   61.94    3.29
   1   1  -4   64.06    3.28
  -1  -1   4   57.05    3.28
  -1  -1   4   60.17    3.29
  -1  -1   4   58.81    3.29
  -1  -1   4   55.15    3.27
   0   1  -4   45.18    2.50
   0   1  -4   43.51    2.51
   0  -1   4   43.12    2.49
   0  -1   4   45.64    2.52
   0  -1   4   43.72    2.50
   0  -1   4   42.21    2.51
  -1   1  -4    0.09    0.05
  -1   1  -4    0.06    0.06
  -1   1  -4    0.07    0.06
  -1   1  -4    0.11    0.08
   1  -1   4    0.14    0.06
   1  -1   4   -0.01    0.08
   1  -1   4    0.06    0.08
   1  -1   4    0.12    0.05
  -2   1  -4   68.40    3.67
  -2   1  -4   67.15    3.65
  -2   1  -4   61.96    3.68
  -2   1  -4   65.83    3.66
   2  -1   4   67.79    3.66
   2  -1   4   62.30    3.65
   2  -1   4   57.57    3.68
   2  -1   4   62.92    3.67
  -3   1  -4   42.49    2.19
  -3   1  -4   36.73    2.15
  -3   1  -4   33.38    2.14
  -3   1  -4   37.54    2.26
   3  -1   4   38.74    2.14
   3  -1   4   36.58    2.17
   3  -1   4   36.25    2.17
  -4   1  -4   15.07    0.93
  -4   1  -4   16.57    0.98
  -4   1  -4   16.24    0.94
  -4   1  -4   14.63    0.97
   4  -1   4   14.93    0.95
   4  -1   4   15.04    0.97
   4  -1   4   14.91    0.91
   4  -1   4   14.90    1.00
  -5   1  -4    0.44    0.23
  -5   1  -4    0.75    0.19
  -5   1  -4    0.31    0.23
   5  -1   4    0.29    0.26
  -6   1  -4   23.03    1.34
  -6   1  -4   19.67    1.32
   6  -1   4   20.47    1.41
   6  -1   4   22.55    1.27
   6  -1   4   21.21    1.40
  -7   1  -4    5.71    0.54
  -7   1  -4    4.24    0.53
   7  -1   4    5.14    0.70
   7  -1   4    6.41    0.74
   7  -1   4    4.87    0.45
  -8   1  -4    2.03    0.39
   8  -1   4    1.48    0.57
   8  -1   4    2.17    0.60
  -9   1  -4    5.45    0.72
  -9   1  -4    4.77    0.78
   9  -1   4    4.15    0.84
   9   0  -4    0.80    0.71
  -9   0   4   -0.16    0.41
  -9   0   4    0.05    0.46
   8   0  -4   -0.31    0.50
  -8   0   4   -0.11    0.36
  -8   0   4    0.24    0.35
   7   0  -4    1.05    0.27
   7   0  -4   -0.30    0.43
   7   0  -4    0.56    0.15
  -7   0   4    0.41    0.31
  -7   0   4    0.98    0.30
   6   0  -4   -0.29    0.33
   6   0  -4    0.05    0.13
  -6   0   4    0.17    0.30
  -6   0   4   -0.14    0.20
  -6   0   4    0.01    0.22
   5   0  -4    5.64    0.39
   5   0  -4    5.20    0.54
   5   0  -4    5.44    0.42
   5   0  -4    5.72    0.50
  -5   0   4    5.02    0.46
  -5   0   4    5.66    0.46
  -5   0   4    5.33    0.46
  -5   0   4    4.90    0.48
   4   0  -4   16.74    0.98
   4   0  -4   17.36    1.05
   4   0  -4   16.57    1.04
   4   0  -4   17.02    0.97
  -4   0   4   16.90    1.00
  -4   0   4   16.28    1.02
  -4   0   4   15.65    1.00
  -4   0   4   14.44    1.02
   3   0  -4  180.09    9.56
   3   0  -4  173.75    9.51
   3   0  -4  172.88    9.55
   3   0  -4  158.44    9.50
  -3   0   4  166.21    9.51
  -3   0   4  161.70    9.53
  -3   0   4  165.82    9.56
  -3   0   4  168.14    9.54
   2   0  -4    6.00    0.37
   2   0  -4    5.42    0.38
   2   0  -4    5.83    0.42
   2   0  -4    6.00    0.43
  -2   0   4    6.36    0.39
  -2   0   4    6.44    0.40
  -2   0   4    5.82    0.41
  -2   0   4    6.73    0.43
   1   0  -4  170.60   10.45
   1   0  -4  201.97   10.44
   1   0  -4  188.03   10.47
   1   0  -4  187.35   10.48
  -1   0   4  187.81   10.47
  -1   0   4  179.22   10.46
  -1   0   4  187.73   10.45
  -1   0   4  179.88   10.47
   0   0  -4    5.80    0.35
   0   0  -4    5.62    0.33
   0   0  -4    5.14    0.32
   0   0  -4    4.70    0.34
   0   0   4    4.67    0.34
   0   0   4    5.07    0.35
   0   0   4    5.88    0.37
   0   0   4    5.25    0.36
  -1   0  -4    2.56    0.17
  -1   0  -4    2.52    0.21
  -1   0  -4    2.36    0.23
  -1   0  -4    2.74    0.20
   1   0   4    2.39    0.19
   1   0   4    2.64    0.22
   1   0   4    2.31    0.19
   1   0   4    2.50    0.22
  -2   0  -4    8.09    0.50
  -2   0  -4    7.55    0.54
  -2   0  -4    7.94    0.52
  -2   0  -4    8.04    0.52
   2   0   4    8.56    0.54
   2   0   4    8.23    0.51
   2   0   4    8.74    0.54
   2   0   4    7.35    0.50
  -3   0  -4   67.05    4.03
  -3   0  -4   66.76    4.01
  -3   0  -4   71.01    4.03
  -3   0  -4   71.75    3.99
   3   0   4   71.05    4.00
   3   0   4   72.99    4.03
  -4   0  -4   26.25    1.63
  -4   0  -4   26.82    1.65
  -4   0  -4   30.63    1.67
  -4   0  -4   26.80    1.69
   4   0   4   27.21    1.64
   4   0   4   29.34    1.63
   4   0   4   27.10    1.68
   4   0   4   28.83    1.69
  -5   0  -4    0.23    0.20
  -5   0  -4   -0.12    0.18
  -5   0  -4    0.03    0.26
  -5   0  -4   -0.21    0.14
   5   0   4    0.08    0.12
   5   0   4   -0.07    0.21
   5   0   4   -0.13    0.22
   5   0   4    0.19    0.19
  -6   0  -4    7.71    0.60
  -6   0  -4    6.85    0.61
  -6   0  -4    8.67    0.64
   6   0   4    8.44    0.71
   6   0   4    8.16    0.70
   6   0   4    6.29    0.55
  -7   0  -4    8.26    0.78
  -7   0  -4   10.06    0.86
  -7   0  -4   10.00    0.77
   7   0   4   10.52    0.87
   7   0   4   10.85    0.68
   7   0   4   10.19    0.90
  -8   0  -4    0.77    0.37
   8   0   4   -0.19    0.50
   8   0   4   -0.53    0.51
   9  -1  -4   -0.22    0.71
  -9   1   4   -0.32    0.46
  -9   1   4   -0.72    0.51
   8  -1  -4    0.91    0.55
  -8   1   4    0.06    0.34
  -8   1   4   -0.02    0.40
   7  -1  -4    0.72    0.46
   7  -1  -4    0.57    0.18
   7  -1  -4    0.36    0.12
  -7   1   4    0.48    0.36
  -7   1   4   -0.20    0.28
   6  -1  -4    2.54    0.24
   6  -1  -4    2.10    0.43
  -6   1   4    2.13    0.36
  -6   1   4    2.87    0.37
  -6   1   4    2.02    0.27
   5  -1  -4    1.30    0.15
   5  -1  -4    1.48    0.28
   5  -1  -4    1.16    0.20
   5  -1  -4    0.95    0.32
  -5   1   4    1.34    0.21
  -5   1   4    1.28    0.29
  -5   1   4    1.11    0.18
  -5   1   4    1.06    0.24
   4  -1  -4    9.70    0.70
   4  -1  -4    9.96    0.73
   4  -1  -4   10.10    0.63
   4  -1  -4   10.79    0.61
  -4   1   4    9.59    0.64
  -4   1   4   10.11    0.63
  -4   1   4    9.46    0.68
  -4   1   4    9.96    0.70
   3  -1  -4   85.18    5.19
   3  -1  -4   89.65    5.25
   3  -1  -4   97.48    5.27
   3  -1  -4   95.41    5.19
  -3   1   4   89.74    5.19
  -3   1   4   95.45    5.24
  -3   1   4   89.71    5.20
  -3   1   4   90.89    5.25
   2  -1  -4    0.09    0.10
   2  -1  -4   -0.02    0.14
  -2   1   4    0.18    0.07
  -2   1   4    0.28    0.11
   1  -1  -4    3.61    0.25
   1  -1  -4    3.07    0.30
   1  -1  -4    3.58    0.28
  -1   1   4    3.26    0.24
  -1   1   4    3.15    0.27
  -1   1   4    3.44    0.30
   0  -1  -4    5.62    0.35
   0  -1  -4    4.51    0.29
   0  -1  -4    4.88    0.35
   0   1   4    4.69    0.38
   0   1   4    5.42    0.34
   0   1   4    4.48    0.38
   0   1   4    4.80    0.34
  -1  -1  -4   70.60    3.97
  -1  -1  -4   60.32    3.94
  -1  -1  -4   74.88    3.90
  -1  -1  -4   69.73    3.93
   1   1   4   67.27    3.93
   1   1   4   73.14    3.91
   1   1   4   67.02    3.96
  -2  -1  -4   64.02    3.45
  -2  -1  -4   58.62    3.38
  -2  -1  -4   61.10    3.43
  -2  -1  -4   59.57    3.40
   2   1   4   55.13    3.40
   2   1   4   61.70    3.39
   2   1   4   54.99    3.43
   2   1   4   61.51    3.41
  -3  -1  -4    6.11    0.47
  -3  -1  -4    6.42    0.50
   3   1   4    5.97    0.48
   3   1   4    5.94    0.45
  -4  -1  -4    0.34    0.18
  -4  -1  -4   -0.09    0.12
  -4  -1  -4   -0.13    0.23
   4   1   4    0.15    0.13
   4   1   4   -0.25    0.17
   4   1   4    0.45    0.14
   4   1   4   -0.02    0.20
  -5  -1  -4    5.10    0.52
  -5  -1  -4    4.01    0.42
   5   1   4    4.61    0.39
   5   1   4    5.13    0.53
   5   1   4    3.84    0.46
  -6  -1  -4   44.17    2.55
  -6  -1  -4   43.34    2.59
  -6  -1  -4   42.00    2.51
   6   1   4   39.83    2.50
   6   1   4   44.76    2.57
   6   1   4   44.29    2.62
  -7  -1  -4    3.98    0.52
  -7  -1  -4    3.86    0.54
   7   1   4    3.80    0.51
   7   1   4    3.31    0.56
  -8  -1  -4    2.19    0.50
   8   1   4    1.52    0.57
   8   1   4    1.49    0.58
   9  -2  -4   -0.33    0.72
  -9   2   4    0.19    0.57
  -9   2   4    0.64    0.47
   8  -2  -4    0.15    0.55
  -8   2   4    1.84    0.41
  -8   2   4    2.00    0.53
   7  -2  -4   17.72    1.44
  -7   2   4   19.85    1.37
  -7   2   4   21.33    1.29
   6  -2  -4   10.13    0.65
   6  -2  -4   10.86    0.93
  -6   2   4   11.01    0.70
  -6   2   4   10.34    0.87
  -6   2   4   11.22    0.74
   5  -2  -4    1.07    0.33
   5  -2  -4    1.58    0.18
   5  -2  -4    1.74    0.22
  -5   2   4    1.52    0.20
  -5   2   4    1.30    0.18
  -5   2   4    0.93    0.27
   4  -2  -4   17.31    1.08
   4  -2  -4   17.62    1.18
   4  -2  -4   18.19    1.20
   4  -2  -4   17.65    1.09
  -4   2   4   17.66    1.08
  -4   2   4   19.46    1.17
  -4   2   4   19.89    1.08
  -4   2   4   18.01    1.16
   3  -2  -4   90.71    5.29
   3  -2  -4   87.93    5.23
   3  -2  -4   87.70    5.22
   3  -2  -4   95.88    5.32
  -3   2   4   96.62    5.22
  -3   2   4   85.72    5.27
  -3   2   4   96.59    5.21
  -3   2   4   95.89    5.30
   2  -2  -4    5.58    0.34
   2  -2  -4    6.29    0.47
   2  -2  -4    5.11    0.41
   2  -2  -4    5.19    0.38
  -2   2   4    5.00    0.56
  -2   2   4    5.37    0.32
  -2   2   4    4.98    0.35
  -2   2   4    5.40    0.43
   1  -2  -4   26.73    1.54
   1  -2  -4   25.01    1.49
   1  -2  -4   24.93    1.50
  -1   2   4   22.40    1.50
  -1   2   4   27.00    1.50
  -1   2   4   25.92    1.54
   0  -2  -4   47.75    2.91
   0   2   4   49.97    2.95
   0   2   4   46.52    2.94
   0   2   4   56.77    2.91
   0   2   4   51.41    2.91
  -1  -2  -4   19.57    1.25
  -1  -2  -4   21.41    1.19
  -1  -2  -4   21.47    1.23
  -1  -2  -4   20.33    1.28
   1   2   4   22.46    1.23
   1   2   4   20.04    1.27
   1   2   4   20.36    1.23
   1   2   4   19.55    1.18
  -2  -2  -4    0.02    0.17
  -2  -2  -4    0.09    0.09
  -2  -2  -4    0.04    0.15
  -2  -2  -4    0.13    0.14
   2   2   4    0.06    0.12
   2   2   4    0.15    0.09
   2   2   4    0.08    0.17
   2   2   4    0.08    0.11
  -3  -2  -4   38.12    2.36
  -3  -2  -4   40.66    2.36
  -3  -2  -4   47.64    2.45
  -3  -2  -4   38.70    2.44
   3   2   4   38.44    2.37
   3   2   4   39.59    2.35
   3   2   4   43.02    2.39
   3   2   4   41.72    2.44
  -4  -2  -4    6.23    0.55
  -4  -2  -4    6.06    0.45
   4   2   4    5.88    0.46
   4   2   4    5.30    0.54
   4   2   4    4.95    0.45
   4   2   4    4.76    0.42
  -5  -2  -4    0.95    0.30
  -5  -2  -4    1.76    0.28
   5   2   4    1.10    0.37
   5   2   4    0.98    0.26
  -6  -2  -4    1.86    0.23
  -6  -2  -4    2.28    0.37
  -6  -2  -4    2.87    0.47
   6   2   4    0.93    0.43
   6   2   4    1.19    0.30
  -7  -2  -4    0.68    0.47
  -7  -2  -4    0.36    0.37
   7   2   4    0.66    0.34
   7   2   4    0.35    0.44
  -8  -2  -4    2.04    0.54
   8   2   4    0.97    0.60
   8   2   4    1.83    0.63
   9  -3  -4    0.92    0.76
  -9   3   4    1.33    0.63
  -9   3   4    0.53    0.50
   8  -3  -4    1.87    0.70
  -8   3   4    1.73    0.58
  -8   3   4    1.90    0.42
   7  -3  -4    2.22    0.55
  -7   3   4    2.29    0.33
  -7   3   4    2.25    0.50
   6  -3  -4    1.30    0.47
   6  -3  -4    1.49    0.21
  -6   3   4    2.04    0.45
  -6   3   4    1.73    0.26
  -6   3   4    1.92    0.26
   5  -3  -4    2.02    0.44
   5  -3  -4    1.55    0.28
   5  -3  -4    1.94    0.26
  -5   3   4    2.30    0.27
  -5   3   4    2.25    0.42
  -5   3   4    2.00    0.23
   4  -3  -4   -0.05    0.13
   4  -3  -4    0.06    0.13
   4  -3  -4   -0.10    0.27
  -4   3   4    0.00    0.10
  -4   3   4   -0.12    0.23
  -4   3   4   -0.06    0.11
   3  -3  -4   -0.20    0.22
   3  -3  -4    0.14    0.11
   3  -3  -4    0.05    0.13
   3  -3  -4    0.15    0.21
  -3   3   4   -0.16    0.20
  -3   3   4   -0.01    0.20
  -3   3   4    0.00    0.08
  -3   3   4    0.06    0.10
   2  -3  -4    1.01    0.17
   2  -3  -4    0.79    0.26
   2  -3  -4    1.10    0.24
  -2   3   4    1.42    0.26
  -2   3   4    0.79    0.10
  -2   3   4    1.05    0.14
  -2   3   4    1.07    0.13
  -2   3   4    0.94    0.21
   1  -3  -4   57.38    3.35
   1  -3  -4   57.54    3.32
   1  -3  -4   54.31    3.30
  -1   3   4   60.40    3.35
  -1   3   4   55.69    3.22
  -1   3   4   55.58    3.28
  -1   3   4   59.69    3.31
   0  -3  -4    2.35    0.28
   0  -3  -4    2.92    0.31
   0  -3  -4    2.54    0.19
   0   3   4    2.58    0.17
   0   3   4    2.70    0.27
   0   3   4    2.39    0.34
   0   3   4    2.81    0.27
   0   3   4    2.15    0.32
  -1  -3  -4    8.70    0.57
  -1  -3  -4    9.61    0.65
  -1  -3  -4   10.25    0.68
   1   3   4    8.99    0.60
   1   3   4    9.31    0.68
   1   3   4    9.24    0.55
   1   3   4    8.02    0.61
   1   3   4    9.86    0.73
  -2  -3  -4    3.64    0.42
  -2  -3  -4    3.45    0.32
  -2  -3  -4    3.48    0.43
  -2  -3  -4    3.52    0.31
   2   3   4    3.70    0.28
   2   3   4    3.45    0.31
   2   3   4    3.89    0.36
   2   3   4    3.37    0.42
  -3  -3  -4    0.30    0.16
  -3  -3  -4    0.33    0.24
   3   3   4   -0.04    0.12
   3   3   4    0.39    0.19
   3   3   4    0.15    0.15
   3   3   4    0.42    0.27
  -4  -3  -4    6.98    0.70
  -4  -3  -4    7.30    0.52
  -4  -3  -4    7.42    0.60
   4   3   4    8.10    0.57
   4   3   4    9.17    0.74
   4   3   4    7.54    0.55
  -5  -3  -4    3.49    0.34
  -5  -3  -4    3.59    0.43
  -5  -3  -4    2.93    0.47
   5   3   4    3.69    0.55
   5   3   4    3.08    0.42
  -6  -3  -4    7.38    0.77
  -6  -3  -4    7.44    0.87
   6   3   4    7.56    0.88
   6   3   4    8.47    0.61
  -7  -3  -4    0.05    0.41
  -7  -3  -4    0.20    0.54
   7   3   4   -0.07    0.51
   8  -4  -4    2.09    0.72
  -8   4   4    4.87    0.64
  -8   4   4    3.38    0.76
   7  -4  -4   17.52    1.44
  -7   4   4   17.80    1.16
  -7   4   4   17.09    1.36
   6  -4  -4    5.49    0.84
  -6   4   4    6.47    0.53
  -6   4   4    5.90    0.44
  -6   4   4    7.59    0.81
   5  -4  -4   -0.55    0.21
   5  -4  -4    0.19    0.16
   5  -4  -4    0.04    0.38
  -5   4   4   -0.08    0.14
  -5   4   4   -0.07    0.16
  -5   4   4    0.13    0.33
   4  -4  -4    1.63    0.26
   4  -4  -4    1.26    0.40
   4  -4  -4    1.65    0.23
  -4   4   4    1.55    0.22
  -4   4   4    1.61    0.37
  -4   4   4    1.59    0.19
   3  -4  -4   10.53    0.71
   3  -4  -4    9.92    0.80
  -3   4   4   10.14    0.66
  -3   4   4   10.00    0.62
  -3   4   4    9.43    0.77
  -3   4   4    9.91    0.64
   2  -4  -4    1.63    0.29
   2  -4  -4    1.21    0.24
   2  -4  -4    2.00    0.37
  -2   4   4    1.68    0.28
  -2   4   4    1.56    0.18
  -2   4   4    1.32    0.30
  -2   4   4    1.46    0.17
  -2   4   4    1.36    0.19
   1  -4  -4    1.92    0.29
   1  -4  -4    2.02    0.29
  -1   4   4    2.12    0.20
  -1   4   4    2.16    0.36
  -1   4   4    2.04    0.17
  -1   4   4    1.84    0.24
  -1   4   4    2.34    0.34
  -1   4   4    1.70    0.32
   0  -4  -4    1.85    0.29
   0  -4  -4    2.01    0.27
   0   4   4    2.41    0.37
   0   4   4    1.81    0.16
   0   4   4    1.44    0.21
   0   4   4    1.94    0.28
   0   4   4    1.88    0.33
  -1  -4  -4   13.67    0.94
  -1  -4  -4   13.66    0.88
  -1  -4  -4   13.70    0.85
   1   4   4   13.22    0.98
   1   4   4   12.52    0.80
   1   4   4   15.49    0.99
   1   4   4   13.26    0.86
   1   4   4   14.30    0.90
  -2  -4  -4    2.73    0.37
  -2  -4  -4    2.53    0.28
  -2  -4  -4    1.66    0.29
   2   4   4    2.69    0.29
   2   4   4    2.34    0.25
   2   4   4    2.71    0.41
  -3  -4  -4    2.74    0.41
  -3  -4  -4    2.25    0.26
  -3  -4  -4    2.48    0.31
   3   4   4    2.42    0.43
   3   4   4    2.63    0.31
   3   4   4    1.79    0.24
  -4  -4  -4    1.79    0.43
  -4  -4  -4    2.39    0.31
  -4  -4  -4    2.80    0.38
   4   4   4    3.22    0.36
   4   4   4    2.07    0.43
   4   4   4    2.38    0.29
  -5  -4  -4    3.45    0.47
  -5  -4  -4    2.25    0.50
   5   4   4    3.82    0.56
   5   4   4    2.70    0.30
  -6  -4  -4    4.75    0.71
  -6  -4  -4    5.27    0.75
   6   4   4    4.72    0.69
  -7  -4  -4    0.62    0.50
  -7  -4  -4   -0.10    0.63
   7   4   4   -0.74    0.61
   8  -5  -4    3.43    0.80
  -8   5   4    3.20    0.47
  -8   5   4    3.31    0.74
   7  -5  -4    2.18    0.68
  -7   5   4    1.71    0.65
  -7   5   4    1.84    0.36
   6  -5  -4    0.56    0.53
  -6   5   4    0.63    0.49
  -6   5   4    0.20    0.23
   5  -5  -4   -0.25    0.25
   5  -5  -4   -0.07    0.44
   5  -5  -4    0.20    0.19
  -5   5   4   -0.32    0.36
  -5   5   4   -0.12    0.19
  -5   5   4    0.06    0.16
   4  -5  -4    2.35    0.31
   4  -5  -4    2.85    0.54
  -4   5   4    2.04    0.27
  -4   5   4    1.95    0.23
  -4   5   4    2.57    0.32
  -4   5   4    1.24    0.41
   3  -5  -4    2.41    0.34
   3  -5  -4    2.49    0.47
  -3   5   4    2.17    0.24
  -3   5   4    1.72    0.24
  -3   5   4    1.93    0.27
  -3   5   4    2.62    0.42
   2  -5  -4    2.09    0.48
   2  -5  -4    2.27    0.35
  -2   5   4    1.77    0.22
  -2   5   4    2.30    0.29
  -2   5   4    2.11    0.34
  -2   5   4    2.33    0.32
   1  -5  -4    5.23    0.57
   1  -5  -4    6.18    0.60
  -1   5   4    6.74    0.72
  -1   5   4    5.47    0.53
  -1   5   4    5.55    0.53
  -1   5   4    5.98    0.42
  -1   5   4    6.47    0.41
   0  -5  -4    0.30    0.26
   0  -5  -4    0.11    0.24
   0   5   4   -0.21    0.21
   0   5   4    0.21    0.11
   0   5   4    0.01    0.15
   0   5   4    0.08    0.35
  -1  -5  -4    6.66    0.51
  -1  -5  -4    6.29    0.68
   1   5   4    6.69    0.51
   1   5   4    6.41    0.45
   1   5   4    6.79    0.70
  -2  -5  -4   10.51    0.74
  -2  -5  -4   11.34    0.90
  -2  -5  -4   10.74    0.74
   2   5   4    9.87    0.91
   2   5   4   10.56    0.70
   2   5   4   10.20    0.67
  -3  -5  -4    1.68    0.44
  -3  -5  -4    1.39    0.30
  -3  -5  -4    1.70    0.30
   3   5   4    1.29    0.23
   3   5   4    1.02    0.25
   3   5   4    1.22    0.42
  -4  -5  -4    1.15    0.36
  -4  -5  -4    0.75    0.44
   4   5   4    0.52    0.45
   4   5   4    0.95    0.21
  -5  -5  -4   -0.33    0.51
  -5  -5  -4   -0.02    0.41
   5   5   4   -0.66    0.48
  -6  -5  -4    0.06    0.54
  -6  -5  -4   -0.89    0.63
   6   5   4    1.13    0.70
   7  -6  -4    1.26    0.78
  -7   6   4    2.64    0.74
  -7   6   4    1.63    0.36
   6  -6  -4    0.01    0.65
  -6   6   4   -0.33    0.60
  -6   6   4    0.72    0.27
   5  -6  -4    1.11    0.60
   5  -6  -4    0.44    0.27
  -5   6   4    0.93    0.23
  -5   6   4   -0.18    0.48
   4  -6  -4   -0.01    0.47
   4  -6  -4    0.33    0.29
  -4   6   4   -0.09    0.19
  -4   6   4   -0.41    0.28
  -4   6   4    0.46    0.17
  -4   6   4    0.29    0.44
   3  -6  -4    0.51    0.48
   3  -6  -4    0.85    0.31
  -3   6   4   -0.02    0.24
  -3   6   4    0.38    0.32
  -3   6   4    0.15    0.15
   2  -6  -4    1.57    0.36
  -2   6   4    0.99    0.17
  -2   6   4    1.04    0.35
  -2   6   4    0.92    0.24
  -2   6   4    1.12    0.49
   1  -6  -4    3.36    0.49
  -1   6   4    3.32    0.35
  -1   6   4    4.63    0.62
  -1   6   4    3.29    0.36
  -1   6   4    3.79    0.49
   0  -6  -4   -0.11    0.29
   0  -6  -4    0.13    0.33
   0   6   4    0.55    0.18
   0   6   4    0.21    0.25
   0   6   4    0.43    0.41
   0   6   4    0.48    0.22
  -1  -6  -4    0.82    0.27
  -1  -6  -4    0.25    0.22
  -1  -6  -4    0.19    0.36
   1   6   4    0.54    0.46
   1   6   4    0.71    0.25
   1   6   4   -0.23    0.15
  -2  -6  -4    1.53    0.32
  -2  -6  -4    1.14    0.42
   2   6   4    1.60    0.27
   2   6   4    1.05    0.20
   2   6   4    2.02    0.50
  -3  -6  -4    0.86    0.48
  -3  -6  -4    0.97    0.36
   3   6   4    0.96    0.25
   3   6   4    1.14    0.29
   3   6   4    1.60    0.52
  -4  -6  -4    1.05    0.57
  -4  -6  -4    0.18    0.43
   4   6   4   -0.53    0.54
  -5  -6  -4    1.55    0.76
  -5  -6  -4    1.80    0.61
   5   6   4    2.76    0.72
   6  -7  -4    0.80    0.78
  -6   7   4   -1.66    0.67
   5  -7  -4   -0.82    0.66
  -5   7   4    0.24    0.30
  -5   7   4    0.51    0.60
   4  -7  -4   -0.07    0.40
   4  -7  -4   -0.63    0.60
  -4   7   4    0.11    0.18
  -4   7   4    0.63    0.50
   3  -7  -4   -0.23    0.39
  -3   7   4   -0.25    0.16
  -3   7   4   -0.46    0.43
  -3   7   4   -0.17    0.57
   2  -7  -4    0.67    0.39
  -2   7   4    0.18    0.17
  -2   7   4   -0.49    0.51
  -2   7   4    0.38    0.39
   1  -7  -4    0.43    0.40
  -1   7   4   -0.11    0.32
  -1   7   4    0.04    0.19
  -1   7   4    0.93    0.57
   0  -7  -4   -0.08    0.41
   0   7   4    0.48    0.23
   0   7   4   -0.19    0.30
   0   7   4   -0.75    0.53
  -1  -7  -4    2.02    0.33
  -1  -7  -4    1.66    0.54
   1   7   4    2.06    0.36
   1   7   4    1.56    0.61
  -2  -7  -4    0.25    0.51
  -2  -7  -4    0.46    0.31
   2   7   4    0.18    0.27
   2   7   4   -1.00    0.53
  -3  -7  -4    0.80    0.61
  -3  -7  -4    0.21    0.41
   3   7   4    0.50    0.64
  -4  -7  -4    0.30    0.67
  -4  -7  -4   -0.15    0.45
   4   7   4   -0.06    0.70
   4  -8  -4    0.11    0.47
  -4   8   4    0.41    0.83
  -4   8   4    0.24    0.62
   3  -8  -4    0.26    0.54
  -3   8   4    0.61    0.76
  -3   8   4    0.50    0.51
   2  -8  -4    9.40    1.13
  -2   8   4    9.71    1.25
  -2   8   4    9.96    1.00
   1  -8  -4    2.16    0.61
  -1   8   4    2.91    0.54
  -1   8   4    3.50    0.75
   0  -8  -4    0.44    0.58
   0   8   4    0.38    0.41
   0   8   4   -0.35    0.68
  -1  -8  -4    0.46    0.62
   1   8   4    0.71    0.36
   1   8   4    0.19    0.72
  -2  -8  -4   -0.83    0.61
   2   8   4    0.72    0.76
  -3  -8  -4    0.40    0.72
   2  10  -5    0.19    0.49
   2  10  -5    1.24    0.70
  -2 -10   5   -0.37    0.69
   1  10  -5    0.86    0.47
   1  10  -5    0.54    0.68
  -1 -10   5    0.87    0.65
   0  10  -5   -1.03    0.56
   0  10  -5    0.85    0.46
   0  10  -5   -0.64    0.53
   0  10  -5    0.50    0.48
  -1  10  -5    0.40    0.54
  -1  10  -5    0.40    0.43
  -1  10  -5    0.62    0.52
  -1  10  -5    1.05    0.60
  -2  10  -5    0.40    0.47
  -2  10  -5   -0.09    0.49
  -2  10  -5   -0.08    0.52
  -2  10  -5    0.70    0.64
  -3  10  -5   -0.19    0.51
  -3  10  -5    0.77    0.48
  -3  10  -5   -0.04    0.72
  -3  10  -5    0.19    0.49
  -4  10  -5    0.34    0.54
  -4  10  -5   -0.05    0.88
   4   9  -5    0.32    0.56
   4   9  -5    1.50    0.74
  -4  -9   5   -0.16    0.68
   3   9  -5    1.62    0.68
   3   9  -5    1.73    0.50
  -3  -9   5    0.70    0.59
   2   9  -5   -0.84    0.56
   2   9  -5   -0.05    0.40
  -2  -9   5    1.01    0.58
   1   9  -5    1.62    0.41
   1   9  -5    0.87    0.38
   1   9  -5    0.96    0.53
  -1  -9   5    1.38    0.51
   0   9  -5   -0.03    0.44
   0   9  -5    0.35    0.42
   0   9  -5    0.17    0.35
   0   9  -5   -0.29    0.45
  -1   9  -5   -0.16    0.42
  -1   9  -5    0.06    0.43
  -1   9  -5    0.13    0.36
   1  -9   5    0.14    0.46
  -2   9  -5    2.12    0.45
  -2   9  -5    2.32    0.48
  -2   9  -5    1.76    0.45
   2  -9   5    2.22    0.58
  -3   9  -5   -0.18    0.37
  -3   9  -5    0.45    0.45
  -3   9  -5    0.30    0.37
   3  -9   5    0.74    0.56
  -4   9  -5   -0.40    0.29
  -4   9  -5   -0.50    0.40
  -4   9  -5   -0.38    0.49
  -4   9  -5   -0.21    0.69
  -5   9  -5   -0.05    0.75
  -5   9  -5    1.62    0.48
   5  -9   5    0.22    0.50
   5   8  -5   -0.34    0.52
   5   8  -5   -0.23    0.66
  -5  -8   5   -0.20    0.60
   4   8  -5    0.57    0.42
   4   8  -5    0.27    0.57
  -4  -8   5    0.23    0.54
   3   8  -5    0.80    0.51
   3   8  -5   -0.08    0.40
  -3  -8   5    0.08    0.44
   2   8  -5   -0.20    0.44
   2   8  -5   -0.33    0.40
   2   8  -5    0.12    0.31
   2   8  -5   -0.63    0.28
  -2  -8   5   -0.63    0.39
   1   8  -5    1.05    0.29
   1   8  -5   -0.24    0.36
   1   8  -5   -0.02    0.28
   1   8  -5    0.25    0.38
  -1  -8   5    0.30    0.41
  -1  -8   5    0.48    0.34
   0   8  -5    0.05    0.27
   0   8  -5    0.65    0.38
   0   8  -5    0.43    0.37
   0   8  -5   -0.33    0.32
   0  -8   5   -0.07    0.35
   0  -8   5    0.47    0.33
  -1   8  -5   -0.16    0.31
  -1   8  -5    0.17    0.26
  -1   8  -5    0.43    0.33
  -1   8  -5    0.37    0.35
   1  -8   5    0.00    0.36
  -2   8  -5    0.08    0.32
  -2   8  -5    0.71    0.30
  -2   8  -5   -0.06    0.31
  -2   8  -5    0.57    0.30
   2  -8   5    0.64    0.42
  -3   8  -5    0.09    0.35
  -3   8  -5    0.18    0.28
  -3   8  -5   -0.22    0.44
  -3   8  -5    0.18    0.33
   3  -8   5   -0.23    0.44
  -4   8  -5    4.97    0.55
  -4   8  -5    6.83    0.70
   4  -8   5    5.94    0.74
   4  -8   5    5.96    0.79
  -5   8  -5    6.76    0.75
   5  -8   5    6.29    0.92
   5  -8   5    7.94    1.10
  -6   8  -5    4.42    0.99
  -6   8  -5    2.99    0.55
   6  -8   5    2.01    0.62
   6   7  -5    0.41    0.64
   6   7  -5    0.39    0.55
  -6  -7   5    0.81    0.59
   5   7  -5    0.97    0.55
   5   7  -5    1.52    0.49
  -5  -7   5    1.13    0.56
   4   7  -5    0.17    0.47
   4   7  -5    0.81    0.40
  -4  -7   5    0.79    0.44
   3   7  -5   -0.02    0.14
   3   7  -5    0.44    0.42
   3   7  -5   -0.24    0.29
  -3  -7   5   -0.17    0.34
  -3  -7   5    0.00    0.19
  -3  -7   5   -0.42    0.38
   2   7  -5    1.64    0.42
   2   7  -5    2.00    0.26
   2   7  -5    1.57    0.31
  -2  -7   5    1.90    0.28
  -2  -7   5    1.29    0.37
  -2  -7   5    2.00    0.36
   1   7  -5    3.56    0.40
   1   7  -5    2.51    0.37
   1   7  -5    2.45    0.37
   1   7  -5    2.31    0.43
  -1  -7   5    2.60    0.35
  -1  -7   5    2.74    0.44
   0   7  -5   -0.46    0.25
   0   7  -5    0.27    0.25
   0   7  -5    0.02    0.18
   0   7  -5    0.10    0.27
   0  -7   5   -0.11    0.32
   0  -7   5   -0.01    0.24
  -1   7  -5    0.44    0.26
  -1   7  -5    0.91    0.31
  -1   7  -5    0.74    0.22
  -1   7  -5    0.88    0.25
  -1   7  -5    0.47    0.32
   1  -7   5    0.98    0.32
  -2   7  -5    0.17    0.31
  -2   7  -5    0.80    0.26
  -2   7  -5    0.36    0.24
  -2   7  -5    0.26    0.28
  -2   7  -5    0.30    0.24
   2  -7   5    0.89    0.35
  -3   7  -5    0.02    0.22
  -3   7  -5   -0.01    0.24
  -3   7  -5   -0.43    0.29
  -3   7  -5    0.09    0.26
   3  -7   5    0.23    0.38
   3  -7   5    0.22    0.27
  -4   7  -5    6.30    0.49
  -4   7  -5    4.95    0.64
  -4   7  -5    5.76    0.59
  -4   7  -5    5.63    0.64
   4  -7   5    7.15    0.82
   4  -7   5    6.21    0.64
  -5   7  -5    2.93    0.42
  -5   7  -5    2.16    0.28
   5  -7   5    2.17    0.49
   5  -7   5    3.16    0.65
  -6   7  -5    1.34    0.42
   6  -7   5    0.77    0.50
   6  -7   5    0.90    0.59
  -7   7  -5   -0.41    0.43
   7  -7   5    0.37    0.79
   7  -7   5   -0.71    0.60
   7   6  -5    0.18    0.59
   7   6  -5   -0.54    0.59
  -7  -6   5   -0.23    0.61
   6   6  -5    1.35    0.51
   6   6  -5    1.16    0.51
  -6  -6   5    0.46    0.48
   5   6  -5    0.79    0.39
   5   6  -5    1.20    0.48
  -5  -6   5    1.05    0.46
   4   6  -5    0.72    0.31
   4   6  -5    0.27    0.34
   4   6  -5    0.78    0.11
  -4  -6   5    0.74    0.12
  -4  -6   5    0.77    0.38
   3   6  -5   -0.11    0.29
   3   6  -5    0.04    0.25
   3   6  -5   -0.02    0.13
  -3  -6   5   -0.05    0.16
  -3  -6   5   -0.28    0.30
   2   6  -5    0.36    0.19
   2   6  -5    0.76    0.20
   2   6  -5    0.81    0.29
  -2  -6   5    0.83    0.28
  -2  -6   5    0.40    0.20
   1   6  -5    0.12    0.24
   1   6  -5    0.07    0.16
   1   6  -5   -0.32    0.23
   1   6  -5    0.07    0.19
  -1  -6   5   -0.01    0.18
  -1  -6   5    0.17    0.24
   0   6  -5    1.47    0.27
   0   6  -5    1.99    0.30
   0   6  -5    1.75    0.26
   0   6  -5    1.80    0.25
   0   6  -5    1.76    0.34
   0  -6   5    1.51    0.28
   0  -6   5    1.41    0.30
   0  -6   5    1.33    0.30
  -1   6  -5   10.75    0.77
  -1   6  -5   10.14    0.76
  -1   6  -5    9.92    0.67
  -1   6  -5    9.30    0.96
  -1   6  -5   10.19    0.73
  -1   6  -5   10.30    0.67
   1  -6   5    9.82    0.75
   1  -6   5    9.71    0.77
  -2   6  -5    4.20    0.47
  -2   6  -5    3.38    0.40
  -2   6  -5    3.81    0.36
  -2   6  -5    3.58    0.47
   2  -6   5    4.66    0.52
   2  -6   5    4.05    0.46
  -3   6  -5    0.35    0.16
  -3   6  -5    0.31    0.26
  -3   6  -5    0.35    0.19
   3  -6   5    0.07    0.20
   3  -6   5   -0.07    0.31
  -4   6  -5   15.46    1.00
  -4   6  -5   12.49    1.13
  -4   6  -5   14.71    0.89
  -4   6  -5   13.55    0.95
   4  -6   5   14.11    1.12
   4  -6   5   14.86    0.98
  -5   6  -5   28.75    1.70
  -5   6  -5   30.61    1.75
  -5   6  -5   27.61    1.80
  -5   6  -5   29.70    1.84
   5  -6   5   31.71    2.01
   5  -6   5   28.64    1.85
  -6   6  -5    5.34    0.62
   6  -6   5    5.36    0.79
   6  -6   5    5.35    0.77
  -7   6  -5    0.71    0.39
   7  -6   5    0.24    0.55
   7  -6   5    0.00    0.65
  -8   6  -5    0.08    0.46
  -8   6  -5    0.39    0.87
   8  -6   5   -0.12    0.68
   8   5  -5    1.37    0.74
   8   5  -5    1.27    0.63
  -8  -5   5    2.51    0.71
   7   5  -5    0.23    0.52
   7   5  -5   -0.48    0.49
  -7  -5   5    0.06    0.51
   6   5  -5    0.86    0.45
   6   5  -5    0.47    0.41
  -6  -5   5    0.52    0.41
   5   5  -5    1.23    0.34
   5   5  -5    0.75    0.37
  -5  -5   5    1.05    0.40
   4   5  -5   11.59    0.81
   4   5  -5   11.30    0.91
   4   5  -5   11.38    0.70
  -4  -5   5   11.08    0.70
  -4  -5   5   12.06    0.90
  -4  -5   5   10.54    0.81
   3   5  -5    0.02    0.17
   3   5  -5   -0.18    0.22
   3   5  -5    0.18    0.11
  -3  -5   5   -0.07    0.21
  -3  -5   5    0.06    0.15
  -3  -5   5    0.01    0.20
   2   5  -5    9.91    0.64
   2   5  -5    9.07    0.71
   2   5  -5    8.92    0.68
   2   5  -5    9.71    0.61
  -2  -5   5   10.08    0.65
  -2  -5   5   10.47    0.74
  -2  -5   5    8.31    0.71
   1   5  -5    0.60    0.20
   1   5  -5    0.78    0.17
   1   5  -5    0.58    0.13
   1   5  -5    0.84    0.21
  -1  -5   5    0.61    0.23
  -1  -5   5    0.95    0.27
  -1  -5   5    0.46    0.19
  -1  -5   5    0.55    0.16
   0   5  -5    3.86    0.37
   0   5  -5    3.71    0.28
   0   5  -5    3.22    0.40
   0   5  -5    3.46    0.29
   0   5  -5    4.10    0.37
   0  -5   5    3.53    0.42
   0  -5   5    3.87    0.42
   0  -5   5    3.70    0.38
  -1   5  -5   49.35    2.91
  -1   5  -5   50.56    2.93
  -1   5  -5   47.75    2.86
  -1   5  -5   51.08    2.95
  -1   5  -5   49.39    2.94
  -1   5  -5   52.05    2.86
   1  -5   5   50.90    2.95
   1  -5   5   49.37    2.93
  -2   5  -5    6.99    0.60
  -2   5  -5    6.77    0.57
  -2   5  -5    7.32    0.47
  -2   5  -5    7.04    0.51
  -2   5  -5    7.83    0.57
   2  -5   5    6.12    0.54
   2  -5   5    6.69    0.60
   2  -5   5    8.13    0.51
  -3   5  -5    8.48    0.63
  -3   5  -5    8.07    0.73
  -3   5  -5    8.20    0.54
  -3   5  -5    8.13    0.56
   3  -5   5    7.74    0.59
   3  -5   5    8.15    0.60
   3  -5   5    8.51    0.71
  -4   5  -5   18.06    1.14
  -4   5  -5   18.11    1.04
  -4   5  -5   17.44    1.09
   4  -5   5   17.17    1.09
   4  -5   5   16.91    1.26
   4  -5   5   16.68    1.12
  -5   5  -5   10.12    0.61
  -5   5  -5   10.34    0.75
  -5   5  -5    9.02    0.71
   5  -5   5   10.00    0.92
   5  -5   5   10.49    0.78
   5  -5   5    8.67    0.65
  -6   5  -5    0.11    0.28
   6  -5   5    0.02    0.35
   6  -5   5   -0.59    0.46
  -7   5  -5    0.75    0.36
   7  -5   5    0.42    0.63
   7  -5   5    1.15    0.51
  -8   5  -5    1.71    0.48
   8  -5   5    1.70    0.81
   8  -5   5    2.49    0.69
   8   4  -5    2.10    0.59
  -8  -4   5    1.73    0.61
   7   4  -5    1.75    0.51
   7   4  -5    1.17    0.41
  -7  -4   5    0.95    0.46
   6   4  -5    1.32    0.41
   6   4  -5    0.62    0.37
  -6  -4   5    1.49    0.22
  -6  -4   5    1.15    0.38
  -6  -4   5    1.12    0.19
   5   4  -5    0.68    0.28
   5   4  -5    0.44    0.29
   5   4  -5    0.73    0.18
  -5  -4   5    0.39    0.30
  -5  -4   5    0.75    0.17
   4   4  -5    7.22    0.64
   4   4  -5    6.80    0.51
   4   4  -5    9.17    0.63
  -4  -4   5    8.00    0.52
  -4  -4   5    7.98    0.65
  -4  -4   5    7.87    0.61
  -4  -4   5    7.58    0.69
   3   4  -5    0.27    0.16
   3   4  -5    0.61    0.14
   3   4  -5    0.31    0.20
   3   4  -5    0.57    0.17
  -3  -4   5    0.51    0.18
  -3  -4   5   -0.07    0.24
  -3  -4   5    0.24    0.21
  -3  -4   5    0.39    0.13
   2   4  -5   33.88    2.01
   2   4  -5   34.10    1.95
   2   4  -5   36.57    2.00
   2   4  -5   33.17    1.94
  -2  -4   5   33.71    1.96
  -2  -4   5   33.07    1.96
  -2  -4   5   33.24    2.02
  -2  -4   5   30.96    2.01
   1   4  -5    1.84    0.24
   1   4  -5    1.01    0.14
   1   4  -5    1.04    0.19
   1   4  -5    1.56    0.21
  -1  -4   5    1.41    0.20
  -1  -4   5    1.49    0.23
  -1  -4   5    1.25    0.15
  -1  -4   5    1.24    0.23
   0   4  -5    0.55    0.08
   0   4  -5    0.59    0.19
   0   4  -5    0.53    0.14
   0   4  -5    0.62    0.08
   0   4  -5    0.61    0.17
   0  -4   5    0.14    0.17
   0  -4   5    0.89    0.18
   0  -4   5    0.48    0.18
  -1   4  -5    9.52    0.67
  -1   4  -5    9.68    0.57
  -1   4  -5    9.91    0.58
  -1   4  -5    9.11    0.68
  -1   4  -5   10.21    0.64
  -1   4  -5   10.32    0.68
   1  -4   5   10.18    0.70
   1  -4   5    9.57    0.66
  -2   4  -5   10.49    0.75
  -2   4  -5   11.59    0.75
  -2   4  -5   11.09    0.69
  -2   4  -5   11.14    0.76
  -2   4  -5   11.12    0.66
   2  -4   5   10.54    0.74
   2  -4   5   10.97    0.68
   2  -4   5   10.79    0.78
  -3   4  -5    3.38    0.40
  -3   4  -5    2.97    0.28
  -3   4  -5    3.24    0.26
  -3   4  -5    2.86    0.33
   3  -4   5    3.07    0.30
   3  -4   5    3.26    0.42
   3  -4   5    2.88    0.38
   3  -4   5    3.33    0.31
  -4   4  -5    0.34    0.19
  -4   4  -5    0.14    0.17
  -4   4  -5    0.58    0.11
   4  -4   5    0.11    0.30
   4  -4   5    0.33    0.19
  -5   4  -5   11.28    0.77
  -5   4  -5   10.26    0.76
  -5   4  -5   11.28    0.67
   5  -4   5   11.10    0.80
   5  -4   5    9.87    0.70
   5  -4   5   11.57    0.94
  -6   4  -5    0.13    0.13
  -6   4  -5    0.23    0.27
   6  -4   5    0.26    0.14
   6  -4   5    0.17    0.41
   6  -4   5    0.46    0.32
  -7   4  -5    1.02    0.34
   7  -4   5    1.65    0.58
   7  -4   5    0.82    0.42
  -8   4  -5    2.28    0.45
   8  -4   5    2.37    0.63
   8  -4   5    1.91    0.72
   8   3  -5    0.16    0.42
   8   3  -5    0.12    0.60
  -8  -3   5    0.83    0.49
   7   3  -5    1.42    0.52
   7   3  -5    1.06    0.41
  -7  -3   5    1.49    0.43
  -7  -3   5    1.03    0.22
   6   3  -5    3.88    0.55
   6   3  -5    3.57    0.50
  -6  -3   5    4.25    0.56
  -6  -3   5    4.10    0.50
  -6  -3   5    3.74    0.36
   5   3  -5   -0.04    0.25
   5   3  -5    0.26    0.22
   5   3  -5    0.30    0.22
  -5  -3   5    0.43    0.22
  -5  -3   5    0.22    0.31
  -5  -3   5    0.64    0.31
  -5  -3   5    0.20    0.16
   4   3  -5   19.98    1.14
   4   3  -5   16.33    1.19
   4   3  -5   20.03    1.15
   4   3  -5   20.50    1.18
  -4  -3   5   19.60    1.13
  -4  -3   5   17.34    1.19
  -4  -3   5   18.08    1.16
  -4  -3   5   17.69    1.21
   3   3  -5    1.54    0.23
   3   3  -5    1.25    0.19
   3   3  -5    1.10    0.16
   3   3  -5    0.73    0.16
  -3  -3   5    0.97    0.20
  -3  -3   5    0.82    0.20
  -3  -3   5    1.16    0.16
  -3  -3   5    0.75    0.22
   2   3  -5   19.11    1.20
   2   3  -5   20.91    1.17
   2   3  -5   19.91    1.20
  -2  -3   5   19.51    1.21
  -2  -3   5   19.47    1.16
  -2  -3   5   20.40    1.18
  -2  -3   5   18.28    1.21
   1   3  -5   51.11    2.95
   1   3  -5   53.01    3.01
   1   3  -5   52.48    2.98
   1   3  -5   50.47    3.00
  -1  -3   5   53.78    3.02
  -1  -3   5   50.55    2.99
  -1  -3   5   52.27    2.95
  -1  -3   5   52.17    3.01
   0   3  -5  218.26   13.61
   0   3  -5  250.94   13.60
   0  -3   5  247.00   13.62
   0  -3   5  247.15   13.62
   0  -3   5  240.10   13.61
  -1   3  -5  261.93   14.66
  -1   3  -5  264.23   14.62
  -1   3  -5  260.28   14.65
  -1   3  -5  239.12   14.58
  -1   3  -5  253.11   14.65
   1  -3   5  276.54   14.67
  -2   3  -5   17.36    1.07
  -2   3  -5   17.42    1.09
  -2   3  -5   17.49    1.02
  -2   3  -5   17.77    1.03
   2  -3   5   14.82    1.10
   2  -3   5   17.51    1.02
   2  -3   5   18.04    1.09
   2  -3   5   18.06    1.05
  -3   3  -5    0.38    0.20
  -3   3  -5   -0.02    0.12
  -3   3  -5    0.21    0.09
  -3   3  -5    0.34    0.15
   3  -3   5    0.13    0.13
   3  -3   5    0.29    0.17
   3  -3   5   -0.06    0.22
   3  -3   5    0.11    0.11
  -4   3  -5    9.67    0.61
  -4   3  -5    9.27    0.66
  -4   3  -5    8.33    0.72
  -4   3  -5    9.94    0.66
   4  -3   5   10.54    0.63
   4  -3   5    9.99    0.78
   4  -3   5    8.85    0.70
   4  -3   5   10.71    0.68
  -5   3  -5   22.21    1.44
  -5   3  -5   22.41    1.38
  -5   3  -5   23.17    1.43
   5  -3   5   25.88    1.56
   5  -3   5   23.20    1.38
   5  -3   5   23.68    1.47
  -6   3  -5    0.92    0.23
  -6   3  -5    1.29    0.22
   6  -3   5    1.46    0.43
   6  -3   5    1.11    0.20
   6  -3   5    1.49    0.38
  -7   3  -5   -0.41    0.27
  -7   3  -5    0.17    0.22
   7  -3   5    0.21    0.40
   7  -3   5   -0.18    0.48
  -8   3  -5    0.25    0.35
   8  -3   5    0.35    0.66
   8  -3   5    1.04    0.57
   9   2  -5    4.83    0.90
  -9  -2   5    3.99    0.69
   8   2  -5    3.51    0.69
   8   2  -5    2.87    0.40
  -8  -2   5    2.49    0.53
  -8  -2   5    2.25    0.35
   7   2  -5    0.63    0.29
   7   2  -5    0.43    0.41
   7   2  -5    0.61    0.45
  -7  -2   5   -0.06    0.32
  -7  -2   5    0.30    0.31
  -7  -2   5    0.81    0.28
   6   2  -5    2.43    0.44
   6   2  -5    1.46    0.29
  -6  -2   5    1.83    0.35
  -6  -2   5    1.84    0.26
   5   2  -5    1.38    0.24
   5   2  -5    1.80    0.31
   5   2  -5    1.76    0.25
  -5  -2   5    1.40    0.30
  -5  -2   5    1.06    0.24
  -5  -2   5    1.72    0.22
  -5  -2   5    1.46    0.27
   4   2  -5   31.59    1.85
   4   2  -5   32.83    1.84
   4   2  -5   30.86    1.88
   4   2  -5   30.17    1.85
  -4  -2   5   29.66    1.88
  -4  -2   5   32.49    1.84
  -4  -2   5   30.60    1.88
  -4  -2   5   32.32    1.86
   3   2  -5   10.65    0.69
   3   2  -5   10.63    0.71
   3   2  -5   11.66    0.71
   3   2  -5   10.44    0.68
  -3  -2   5   10.07    0.72
  -3  -2   5   11.40    0.72
  -3  -2   5   11.04    0.69
   2   2  -5   35.63    2.13
   2   2  -5   37.94    2.15
   2   2  -5   36.27    2.13
  -2  -2   5   37.02    2.16
  -2  -2   5   37.02    2.14
  -2  -2   5   40.07    2.17
  -2  -2   5   34.67    2.12
   1   2  -5   12.47    0.72
   1   2  -5   11.74    0.70
   1   2  -5    9.96    0.70
   1   2  -5   11.10    0.68
  -1  -2   5   11.23    0.67
  -1  -2   5   11.72    0.71
  -1  -2   5   11.65    0.72
   0   2  -5  102.77    5.91
   0   2  -5  108.31    5.93
   0   2  -5  101.55    5.92
   0  -2   5  109.96    5.93
   0  -2   5  109.66    5.92
   0  -2   5   96.64    5.87
   0  -2   5  100.61    5.92
  -1   2  -5   10.65    0.73
  -1   2  -5   11.47    0.73
  -1   2  -5   11.43    0.70
  -1   2  -5   10.95    0.71
  -1   2  -5   11.28    0.67
   1  -2   5   13.37    0.75
   1  -2   5   11.15    0.67
   1  -2   5   11.58    0.71
  -2   2  -5    2.49    0.35
  -2   2  -5    2.49    0.23
  -2   2  -5    2.34    0.24
  -2   2  -5    2.69    0.21
   2  -2   5    2.52    0.22
   2  -2   5    2.67    0.21
   2  -2   5    2.88    0.31
   2  -2   5    3.22    0.28
  -3   2  -5   30.37    1.76
  -3   2  -5   29.84    1.70
  -3   2  -5   27.60    1.72
  -3   2  -5   30.39    1.73
   3  -2   5   29.17    1.71
   3  -2   5   28.77    1.78
   3  -2   5   29.79    1.76
   3  -2   5   29.47    1.72
  -4   2  -5   34.80    1.98
  -4   2  -5   31.82    1.99
  -4   2  -5   32.21    1.96
  -4   2  -5   34.37    2.03
   4  -2   5   34.18    2.00
   4  -2   5   33.85    2.01
   4  -2   5   33.86    1.96
   4  -2   5   35.15    2.07
  -5   2  -5    1.14    0.23
  -5   2  -5    1.43    0.27
  -5   2  -5    1.68    0.23
   5  -2   5    2.10    0.31
   5  -2   5    2.34    0.38
  -6   2  -5    1.20    0.25
  -6   2  -5    1.44    0.31
   6  -2   5    1.44    0.23
   6  -2   5    1.54    0.38
   6  -2   5    1.72    0.40
  -7   2  -5    1.72    0.35
  -7   2  -5    2.22    0.30
   7  -2   5    1.64    0.52
   7  -2   5    2.14    0.47
  -8   2  -5    5.27    0.59
   8  -2   5    5.02    0.77
   8  -2   5    5.08    0.79
   9   1  -5   -1.16    0.70
  -9  -1   5    0.15    0.53
   8   1  -5    0.14    0.56
   8   1  -5    0.16    0.21
  -8  -1   5   -0.04    0.39
  -8  -1   5    0.06    0.36
   7   1  -5    0.54    0.30
   7   1  -5    0.59    0.22
   7   1  -5    0.05    0.46
  -7  -1   5    0.36    0.27
  -7  -1   5    0.14    0.33
  -7  -1   5    0.11    0.39
   6   1  -5    3.24    0.51
   6   1  -5    3.93    0.48
   6   1  -5    3.40    0.37
  -6  -1   5    4.04    0.51
  -6  -1   5    3.19    0.43
  -6  -1   5    4.30    0.50
   5   1  -5    1.49    0.26
   5   1  -5    1.37    0.20
   5   1  -5    1.31    0.32
   5   1  -5    1.38    0.20
  -5  -1   5    1.28    0.23
  -5  -1   5    1.39    0.23
  -5  -1   5    1.32    0.27
  -5  -1   5    0.99    0.23
   4   1  -5    1.50    0.20
   4   1  -5    1.84    0.26
  -4  -1   5    1.36    0.24
   3   1  -5    2.07    0.20
   3   1  -5    2.00    0.24
  -3  -1   5    2.29    0.25
   2   1  -5   45.28    2.57
   2   1  -5   45.15    2.54
   2   1  -5   47.07    2.55
  -2  -1   5   42.39    2.56
  -2  -1   5   44.06    2.56
  -2  -1   5   42.57    2.55
   1   1  -5   14.66    0.88
   1   1  -5   14.28    0.87
   1   1  -5   16.11    0.87
   1   1  -5   13.53    0.86
  -1  -1   5   14.65    0.88
  -1  -1   5   14.32    0.88
  -1  -1   5   14.90    0.87
  -1  -1   5   13.79    0.87
   0   1  -5  248.50   13.92
   0   1  -5  230.56   13.93
   0   1  -5  248.27   13.92
   0   1  -5  240.61   13.92
   0  -1   5  221.15   13.94
   0  -1   5  256.32   13.92
   0  -1   5  275.77   13.93
   0  -1   5  253.63   13.92
  -1   1  -5   28.49    1.63
  -1   1  -5   26.74    1.63
  -1   1  -5   30.61    1.64
   1  -1   5   27.17    1.64
   1  -1   5   28.16    1.63
   1  -1   5   24.80    1.65
   1  -1   5   30.84    1.63
  -2   1  -5    3.41    0.27
  -2   1  -5    3.47    0.29
  -2   1  -5    3.49    0.27
  -2   1  -5    3.61    0.31
   2  -1   5    3.23    0.32
   2  -1   5    3.35    0.28
   2  -1   5    3.75    0.30
  -3   1  -5   43.69    2.66
  -3   1  -5   49.82    2.67
  -3   1  -5   48.21    2.70
  -3   1  -5   40.39    2.69
   3  -1   5   49.14    2.66
   3  -1   5   47.44    2.69
   3  -1   5   43.95    2.68
   3  -1   5   48.28    2.72
  -4   1  -5    0.38    0.15
  -4   1  -5    0.31    0.19
  -4   1  -5    0.70    0.16
  -4   1  -5    0.59    0.21
   4  -1   5    0.35    0.18
   4  -1   5    0.45    0.12
   4  -1   5    0.49    0.22
   4  -1   5    0.26    0.17
  -5   1  -5    9.26    0.62
  -5   1  -5    8.95    0.70
  -5   1  -5    8.81    0.67
  -5   1  -5    9.50    0.64
   5  -1   5    7.61    0.58
   5  -1   5    9.29    0.75
   5  -1   5    9.09    0.68
  -6   1  -5    0.37    0.23
   6  -1   5    1.11    0.35
  -7   1  -5    0.93    0.30
  -7   1  -5    1.03    0.29
   7  -1   5    1.44    0.52
   7  -1   5    1.09    0.43
  -8   1  -5    1.45    0.37
   8  -1   5    1.55    0.58
   8  -1   5    1.16    0.55
   9   0  -5    2.53    0.74
  -9   0   5    2.23    0.58
  -9   0   5    2.68    0.55
   8   0  -5    2.16    0.57
  -8   0   5    2.21    0.47
  -8   0   5    2.52    0.47
   7   0  -5    1.26    0.47
   7   0  -5    1.03    0.19
   7   0  -5    1.41    0.28
  -7   0   5    1.11    0.35
  -7   0   5    1.15    0.35
   6   0  -5   14.01    0.86
   6   0  -5   13.35    1.02
   6   0  -5   15.02    1.05
  -6   0   5   13.92    0.95
  -6   0   5   13.67    0.95
  -6   0   5   13.42    0.94
   5   0  -5    1.69    0.22
   5   0  -5    1.84    0.23
   5   0  -5    2.57    0.38
   5   0  -5    2.15    0.32
  -5   0   5    1.01    0.26
  -5   0   5    1.55    0.26
  -5   0   5    1.87    0.25
  -5   0   5    1.76    0.25
   4   0  -5    1.63    0.21
   4   0  -5    1.66    0.21
   4   0  -5    2.06    0.27
   4   0  -5    2.17    0.32
  -4   0   5    1.43    0.23
  -4   0   5    1.96    0.22
  -4   0   5    2.33    0.32
  -4   0   5    1.93    0.27
   3   0  -5   18.35    1.06
   3   0  -5   17.82    1.10
   3   0  -5   17.72    1.04
   3   0  -5   16.65    1.11
  -3   0   5   18.33    1.07
  -3   0   5   19.04    1.10
  -3   0   5   16.83    1.10
   2   0  -5   10.52    0.63
   2   0  -5    9.84    0.69
   2   0  -5   11.40    0.65
   2   0  -5    9.93    0.67
  -2   0   5   11.00    0.68
  -2   0   5   11.42    0.67
  -2   0   5   10.62    0.68
  -2   0   5    9.75    0.64
   1   0  -5    2.60    0.26
   1   0  -5    2.82    0.27
   1   0  -5    3.10    0.21
   1   0  -5    3.05    0.24
  -1   0   5    3.41    0.25
  -1   0   5    3.23    0.22
  -1   0   5    2.78    0.27
  -1   0   5    3.00    0.26
   0   0  -5   76.64    4.34
   0   0  -5   74.95    4.36
   0   0  -5   86.52    4.35
   0   0   5   82.51    4.38
   0   0   5   67.25    4.37
   0   0   5   72.20    4.37
  -1   0  -5   49.15    2.78
  -1   0  -5   48.91    2.83
  -1   0  -5   45.30    2.81
   1   0   5   53.12    2.80
   1   0   5   46.51    2.80
   1   0   5   54.05    2.83
   1   0   5   46.15    2.82
  -2   0  -5    0.34    0.08
  -2   0  -5    0.16    0.11
  -2   0  -5    0.11    0.09
   2   0   5    0.23    0.10
   2   0   5    0.22    0.13
   2   0   5    0.05    0.13
   2   0   5    0.07    0.08
  -3   0  -5   10.53    0.64
  -3   0  -5   10.41    0.67
  -3   0  -5   10.45    0.70
  -3   0  -5   10.21    0.67
   3   0   5   10.39    0.64
   3   0   5    8.21    0.68
   3   0   5   10.48    0.65
   3   0   5   10.30    0.68
  -4   0  -5   10.36    0.84
  -4   0  -5   11.98    0.77
  -4   0  -5   12.75    0.81
  -4   0  -5   13.18    0.80
   4   0   5   13.05    0.79
   4   0   5   11.87    0.76
   4   0   5   12.46    0.84
   4   0   5   11.83    0.83
  -5   0  -5    8.29    0.69
  -5   0  -5    7.94    0.66
  -5   0  -5    8.88    0.62
   5   0   5   10.02    0.73
   5   0   5    9.91    0.73
  -6   0  -5   17.94    1.13
  -6   0  -5   19.12    1.15
  -6   0  -5   17.78    1.18
   6   0   5   17.11    1.24
   6   0   5   16.25    1.08
   6   0   5   18.20    1.23
  -7   0  -5   -0.14    0.27
  -7   0  -5    0.49    0.35
   7   0   5   -0.41    0.40
   7   0   5    0.67    0.43
  -8   0  -5    4.02    0.76
  -8   0  -5    4.17    0.56
   8   0   5    3.82    0.68
   8   0   5    3.28    0.59
   9  -1  -5    0.10    0.73
  -9   1   5    0.80    0.50
  -9   1   5    0.68    0.55
   8  -1  -5    3.23    0.69
  -8   1   5    2.15    0.43
  -8   1   5    1.88    0.49
   7  -1  -5    0.01    0.13
   7  -1  -5    0.17    0.44
  -7   1   5   -0.42    0.28
  -7   1   5   -0.24    0.34
   6  -1  -5    1.49    0.43
   6  -1  -5    1.51    0.19
  -6   1   5    1.30    0.27
  -6   1   5    1.14    0.33
   5  -1  -5    3.19    0.29
   5  -1  -5    3.20    0.32
  -5   1   5    2.87    0.33
   4  -1  -5   18.53    1.04
   4  -1  -5   15.94    1.13
   4  -1  -5   19.74    1.04
   4  -1  -5   15.41    1.12
  -4   1   5   16.48    1.10
  -4   1   5   17.41    1.05
   3  -1  -5   30.92    1.97
   3  -1  -5   36.21    1.92
   3  -1  -5   33.82    2.00
  -3   1   5   34.78    1.98
  -3   1   5   33.85    1.91
  -3   1   5   28.96    1.95
   2  -1  -5    1.61    0.21
   2  -1  -5    1.46    0.24
  -2   1   5    1.11    0.13
  -2   1   5    1.12    0.16
  -2   1   5    1.17    0.21
  -2   1   5    1.25    0.19
   1  -1  -5   44.91    2.62
   1  -1  -5   46.91    2.60
   1  -1  -5   49.62    2.64
  -1   1   5   39.53    2.60
  -1   1   5   44.83    2.59
   0  -1  -5    3.57    0.25
   0   1   5    4.67    0.31
   0   1   5    4.24    0.33
   0   1   5    4.02    0.37
  -1  -1  -5   20.68    1.20
  -1  -1  -5   20.80    1.19
  -1  -1  -5   19.45    1.22
   1   1   5   18.58    1.22
   1   1   5   20.61    1.20
   1   1   5   18.63    1.18
   1   1   5   20.66    1.16
  -2  -1  -5    0.67    0.10
  -2  -1  -5    0.47    0.15
  -2  -1  -5    0.15    0.18
  -2  -1  -5    0.57    0.13
   2   1   5    0.19    0.11
   2   1   5    0.23    0.17
   2   1   5    0.46    0.10
   2   1   5    0.23    0.14
  -3  -1  -5   45.21    2.59
  -3  -1  -5   48.04    2.61
  -3  -1  -5   41.14    2.63
  -3  -1  -5   46.36    2.67
   3   1   5   46.81    2.66
   3   1   5   44.85    2.61
   3   1   5   43.30    2.62
   3   1   5   44.97    2.60
  -4  -1  -5    1.99    0.31
  -4  -1  -5    2.00    0.33
   4   1   5    2.67    0.36
   4   1   5    2.08    0.30
  -5  -1  -5    0.89    0.29
   5   1   5    0.73    0.28
   5   1   5    0.66    0.35
   5   1   5    0.82    0.17
  -6  -1  -5    7.69    0.65
  -6  -1  -5    8.97    0.77
  -6  -1  -5    8.30    0.62
   6   1   5    7.63    0.80
   6   1   5    7.52    0.75
  -7  -1  -5    1.15    0.44
  -7  -1  -5    0.57    0.33
   7   1   5   -0.88    0.45
   7   1   5   -0.15    0.36
  -8  -1  -5    4.94    0.62
  -8  -1  -5    3.44    0.60
   8   1   5    3.66    0.72
   9  -2  -5   -0.05    0.71
  -9   2   5   -0.52    0.49
  -9   2   5    0.11    0.59
   8  -2  -5   -1.28    0.59
  -8   2   5    0.01    0.47
  -8   2   5    0.11    0.36
   7  -2  -5    0.27    0.13
   7  -2  -5    0.16    0.49
  -7   2   5   -0.30    0.25
  -7   2   5    0.07    0.40
   6  -2  -5    2.44    0.31
   6  -2  -5    2.36    0.46
   6  -2  -5    3.43    0.29
  -6   2   5    2.98    0.38
  -6   2   5    2.78    0.39
  -6   2   5    3.15    0.47
   5  -2  -5    0.21    0.14
   5  -2  -5    0.30    0.38
  -5   2   5    0.67    0.27
  -5   2   5    0.20    0.16
   4  -2  -5   11.22    0.75
   4  -2  -5   12.31    0.76
   4  -2  -5   11.15    0.89
   4  -2  -5   11.73    0.86
  -4   2   5   12.84    0.85
  -4   2   5   10.51    0.85
  -4   2   5   13.64    0.78
  -4   2   5   11.76    0.74
   3  -2  -5    5.11    0.40
   3  -2  -5    5.59    0.54
   3  -2  -5    5.22    0.36
   3  -2  -5    6.10    0.50
  -3   2   5    5.43    0.36
  -3   2   5    5.97    0.39
  -3   2   5    5.86    0.46
  -3   2   5    4.94    0.50
   2  -2  -5   22.48    1.42
   2  -2  -5   22.94    1.38
   2  -2  -5   24.00    1.33
   2  -2  -5   23.14    1.45
  -2   2   5   25.53    1.45
  -2   2   5   23.92    1.33
  -2   2   5   23.52    1.41
  -2   2   5   20.69    1.36
   1  -2  -5    3.03    0.36
   1  -2  -5    2.77    0.32
   1  -2  -5    3.10    0.29
  -1   2   5    2.91    0.25
  -1   2   5    2.36    0.35
  -1   2   5    3.86    0.31
   0  -2  -5    2.51    0.26
   0  -2  -5    2.12    0.27
   0   2   5    2.51    0.24
   0   2   5    2.43    0.33
   0   2   5    2.17    0.25
   0   2   5    2.89    0.36
  -1  -2  -5    9.89    0.59
  -1  -2  -5   10.63    0.69
  -1  -2  -5   10.13    0.65
   1   2   5    9.54    0.59
   1   2   5    9.95    0.64
   1   2   5    9.43    0.69
   1   2   5    9.15    0.64
   1   2   5   11.02    0.74
  -2  -2  -5    5.22    0.36
  -2  -2  -5    5.27    0.50
  -2  -2  -5    4.61    0.45
  -2  -2  -5    4.76    0.38
   2   2   5    4.42    0.39
   2   2   5    5.13    0.41
   2   2   5    4.92    0.35
   2   2   5    5.95    0.50
  -3  -2  -5    9.96    0.72
  -3  -2  -5    9.99    0.63
  -3  -2  -5   10.05    0.73
  -3  -2  -5    9.77    0.62
   3   2   5    8.50    0.64
   3   2   5    8.29    0.64
   3   2   5    9.92    0.61
   3   2   5    9.63    0.73
  -4  -2  -5    2.08    0.27
  -4  -2  -5    1.58    0.33
   4   2   5    1.82    0.36
   4   2   5    1.81    0.28
   4   2   5    2.23    0.29
  -5  -2  -5    3.53    0.50
  -5  -2  -5    4.33    0.62
  -5  -2  -5    4.86    0.47
   5   2   5    4.41    0.62
   5   2   5    3.89    0.50
  -6  -2  -5    7.91    0.72
  -6  -2  -5    8.13    0.88
   6   2   5    8.71    0.72
   6   2   5    9.92    0.91
  -7  -2  -5    0.67    0.38
  -7  -2  -5    0.81    0.53
   7   2   5    0.53    0.52
  -8  -2  -5    0.24    0.57
  -8  -2  -5    0.46    0.51
   8   2   5    0.86    0.61
   8  -3  -5    0.77    0.70
  -8   3   5    0.56    0.56
  -8   3   5    0.75    0.40
   7  -3  -5   -0.10    0.53
  -7   3   5   -0.30    0.30
  -7   3   5    0.05    0.47
   6  -3  -5    0.77    0.25
   6  -3  -5    1.06    0.44
   6  -3  -5    0.74    0.17
  -6   3   5    0.93    0.24
  -6   3   5    0.60    0.41
  -6   3   5    0.60    0.20
   5  -3  -5   -0.30    0.18
   5  -3  -5    0.34    0.39
   5  -3  -5    0.29    0.16
  -5   3   5   -0.31    0.31
  -5   3   5    0.18    0.16
  -5   3   5    0.31    0.16
   4  -3  -5   23.76    1.45
   4  -3  -5   21.24    1.29
  -4   3   5   20.60    1.38
  -4   3   5   20.89    1.26
  -4   3   5   20.44    1.25
   3  -3  -5   15.50    1.05
   3  -3  -5   14.15    0.99
   3  -3  -5   14.08    0.92
  -3   3   5   16.11    1.00
  -3   3   5   14.69    0.89
  -3   3   5   14.43    0.85
  -3   3   5   13.54    1.00
   2  -3  -5    0.09    0.15
   2  -3  -5   -0.08    0.25
   2  -3  -5    0.12    0.19
  -2   3   5    0.11    0.11
  -2   3   5    0.39    0.25
  -2   3   5    0.17    0.18
   1  -3  -5    3.75    0.39
   1  -3  -5    3.84    0.38
  -1   3   5    3.56    0.45
  -1   3   5    3.79    0.32
  -1   3   5    3.55    0.45
  -1   3   5    3.85    0.37
   0  -3  -5    1.28    0.23
   0  -3  -5    1.42    0.22
   0   3   5    0.87    0.16
   0   3   5    1.07    0.28
   0   3   5    1.48    0.21
   0   3   5    1.22    0.32
  -1  -3  -5   25.96    1.54
  -1  -3  -5   26.06    1.49
  -1  -3  -5   26.67    1.58
   1   3   5   23.87    1.46
   1   3   5   24.50    1.53
   1   3   5   25.07    1.60
   1   3   5   26.66    1.53
   1   3   5   26.39    1.63
  -2  -3  -5    1.54    0.21
  -2  -3  -5    1.16    0.33
  -2  -3  -5    1.23    0.28
  -2  -3  -5    1.65    0.20
   2   3   5    0.75    0.28
   2   3   5    1.17    0.21
   2   3   5    1.42    0.16
   2   3   5    0.79    0.30
  -3  -3  -5    8.84    0.63
  -3  -3  -5    9.51    0.76
   3   3   5    8.22    0.59
   3   3   5    9.15    0.63
   3   3   5   10.06    0.78
  -4  -3  -5    0.56    0.22
  -4  -3  -5    0.42    0.17
  -4  -3  -5    0.26    0.32
   4   3   5    0.44    0.22
   4   3   5   -0.21    0.32
  -5  -3  -5    9.64    0.89
  -5  -3  -5    8.93    0.63
  -5  -3  -5    8.51    0.78
   5   3   5   11.69    0.94
   5   3   5   10.02    0.73
  -6  -3  -5   16.93    1.27
  -6  -3  -5   13.51    1.09
   6   3   5   13.36    1.23
  -7  -3  -5    0.23    0.46
  -7  -3  -5    0.62    0.62
   7   3   5    0.78    0.65
   8  -4  -5    1.08    0.76
  -8   4   5    1.46    0.45
  -8   4   5    2.30    0.71
   7  -4  -5    6.52    0.90
  -7   4   5    6.14    0.62
  -7   4   5    6.10    0.78
   6  -4  -5    0.04    0.19
   6  -4  -5    0.59    0.51
   6  -4  -5   -0.03    0.29
  -6   4   5    0.16    0.45
  -6   4   5    0.05    0.22
   5  -4  -5    1.08    0.22
   5  -4  -5    1.39    0.50
   5  -4  -5    1.18    0.24
  -5   4   5    1.58    0.44
  -5   4   5    1.99    0.27
  -5   4   5    0.85    0.20
   4  -4  -5   13.30    0.88
   4  -4  -5   13.70    1.07
  -4   4   5   12.34    0.80
  -4   4   5   12.65    0.83
  -4   4   5   15.12    1.02
   3  -4  -5    3.59    0.45
   3  -4  -5    5.02    0.64
  -3   4   5    3.45    0.27
  -3   4   5    5.06    0.55
  -3   4   5    4.04    0.35
  -3   4   5    3.62    0.35
   2  -4  -5    1.99    0.40
   2  -4  -5    2.82    0.39
  -2   4   5    2.48    0.21
  -2   4   5    2.93    0.36
  -2   4   5    3.02    0.31
  -2   4   5    2.48    0.17
   1  -4  -5   -0.18    0.20
   1  -4  -5    0.14    0.23
  -1   4   5   -0.37    0.29
  -1   4   5    0.01    0.20
  -1   4   5   -0.04    0.15
   0  -4  -5    0.16    0.20
   0  -4  -5    0.00    0.20
   0   4   5   -0.02    0.31
   0   4   5    0.12    0.21
   0   4   5    0.10    0.06
   0   4   5    0.16    0.08
  -1  -4  -5    0.34    0.21
  -1  -4  -5    0.20    0.23
   1   4   5    0.01    0.17
   1   4   5    0.54    0.30
   1   4   5    0.07    0.10
  -2  -4  -5    3.85    0.48
  -2  -4  -5    3.12    0.38
  -2  -4  -5    3.81    0.37
   2   4   5    3.70    0.38
   2   4   5    4.44    0.59
  -3  -4  -5    7.58    0.60
  -3  -4  -5    8.74    0.81
  -3  -4  -5    8.92    0.63
   3   4   5    8.60    0.81
   3   4   5    8.21    0.57
   3   4   5    7.86    0.61
  -4  -4  -5    1.40    0.43
  -4  -4  -5    1.51    0.33
  -4  -4  -5    1.14    0.23
   4   4   5    0.49    0.42
   4   4   5    0.78    0.27
   4   4   5    1.44    0.27
  -5  -4  -5    0.71    0.47
  -5  -4  -5    0.28    0.36
   5   4   5    0.18    0.31
   5   4   5    0.53    0.45
  -6  -4  -5    0.07    0.45
  -6  -4  -5    0.01    0.57
   6   4   5   -0.07    0.59
  -7  -4  -5   -0.11    0.70
  -7  -4  -5    0.05    0.56
   7   4   5   -0.07    0.69
   7  -5  -5   -0.70    0.67
  -7   5   5    0.16    0.30
  -7   5   5   -0.28    0.64
   6  -5  -5    0.30    0.57
  -6   5   5    0.48    0.24
  -6   5   5    1.35    0.53
   5  -5  -5    0.68    0.48
   5  -5  -5   -0.42    0.24
  -5   5   5   -0.13    0.17
  -5   5   5    0.06    0.29
  -5   5   5   -0.75    0.38
   4  -5  -5    0.58    0.27
   4  -5  -5    0.96    0.51
  -4   5   5    0.70    0.28
  -4   5   5    0.56    0.37
  -4   5   5    0.16    0.26
  -4   5   5    0.16    0.14
   3  -5  -5    0.12    0.37
   3  -5  -5    0.17    0.26
  -3   5   5    0.22    0.18
  -3   5   5   -0.30    0.30
  -3   5   5   -0.02    0.11
  -3   5   5    0.03    0.18
   2  -5  -5    1.79    0.35
  -2   5   5    1.14    0.44
  -2   5   5    1.63    0.21
  -2   5   5    1.19    0.14
  -2   5   5    1.93    0.39
   1  -5  -5    1.77    0.36
  -1   5   5    2.55    0.48
  -1   5   5    2.09    0.17
  -1   5   5    2.09    0.17
  -1   5   5    2.48    0.35
   0  -5  -5   -0.54    0.26
   0  -5  -5   -0.14    0.28
   0   5   5   -0.03    0.22
   0   5   5   -0.40    0.37
   0   5   5    0.18    0.12
   0   5   5   -0.16    0.08
  -1  -5  -5    1.31    0.30
  -1  -5  -5    1.12    0.21
  -1  -5  -5    1.56    0.39
   1   5   5    1.08    0.16
   1   5   5    0.46    0.25
   1   5   5    0.89    0.43
  -2  -5  -5    0.53    0.21
  -2  -5  -5    0.33    0.34
  -2  -5  -5    0.82    0.26
   2   5   5    0.58    0.45
   2   5   5    0.39    0.22
   2   5   5    0.12    0.17
  -3  -5  -5   -0.59    0.27
  -3  -5  -5   -0.17    0.24
  -3  -5  -5    0.02    0.42
   3   5   5    0.08    0.44
   3   5   5   -0.14    0.24
   3   5   5    0.42    0.20
  -4  -5  -5   -0.21    0.46
  -4  -5  -5    0.45    0.36
   4   5   5    0.19    0.28
   4   5   5    0.49    0.49
  -5  -5  -5    5.79    0.80
  -5  -5  -5    5.39    0.67
   5   5   5    7.46    0.97
  -6  -5  -5    2.43    0.79
  -6  -5  -5    1.29    0.61
   6   5   5    1.35    0.67
   7  -6  -5    5.09    0.96
  -7   6   5    5.11    0.85
   6  -6  -5   -0.72    0.69
  -6   6   5    0.90    0.66
   5  -6  -5    1.35    0.34
   5  -6  -5    0.38    0.63
  -5   6   5    1.16    0.54
  -5   6   5    1.29    0.22
   4  -6  -5    0.69    0.36
   4  -6  -5    1.20    0.57
  -4   6   5    0.68    0.17
  -4   6   5    1.03    0.45
   3  -6  -5    1.06    0.41
   3  -6  -5    1.36    0.53
  -3   6   5    0.81    0.16
  -3   6   5    1.27    0.45
   2  -6  -5    0.50    0.37
  -2   6   5    0.64    0.35
  -2   6   5    0.48    0.11
  -2   6   5    0.60    0.16
  -2   6   5    0.49    0.56
   1  -6  -5   -0.03    0.34
  -1   6   5   -0.30    0.51
  -1   6   5   -0.06    0.31
  -1   6   5    0.00    0.11
  -1   6   5   -0.11    0.11
   0  -6  -5    0.86    0.43
   0   6   5    0.49    0.49
   0   6   5    0.42    0.19
   0   6   5    0.41    0.12
   0   6   5    1.12    0.31
  -1  -6  -5    0.35    0.22
  -1  -6  -5    0.08    0.37
  -1  -6  -5   -0.25    0.39
   1   6   5    1.00    0.51
   1   6   5    0.52    0.29
  -2  -6  -5    0.82    0.47
  -2  -6  -5    0.29    0.25
   2   6   5    0.24    0.51
   2   6   5    1.47    0.29
  -3  -6  -5   -0.06    0.49
  -3  -6  -5    0.24    0.32
   3   6   5    0.21    0.26
   3   6   5   -0.89    0.52
  -4  -6  -5    0.19    0.58
  -4  -6  -5   -0.25    0.39
   4   6   5    0.61    0.64
  -5  -6  -5    0.31    0.53
  -5  -6  -5    1.57    0.73
   5   6   5   -0.31    0.62
   5  -7  -5   -0.46    0.75
  -5   7   5   -0.02    0.66
   4  -7  -5    0.26    0.47
   4  -7  -5    1.10    0.71
  -4   7   5    1.49    0.58
   3  -7  -5   -1.06    0.42
  -3   7   5    0.71    0.68
  -3   7   5   -0.14    0.46
   2  -7  -5    1.14    0.49
  -2   7   5    0.83    0.43
  -2   7   5    0.73    0.64
   1  -7  -5    0.25    0.47
  -1   7   5    0.32    0.38
  -1   7   5    0.10    0.62
   0  -7  -5    0.09    0.51
   0   7   5    0.61    0.58
   0   7   5    0.63    0.38
  -1  -7  -5    1.19    0.54
   1   7   5    0.72    0.36
   1   7   5    0.66    0.64
  -2  -7  -5    0.31    0.55
   2   7   5   -0.73    0.57
   2   7   5    0.09    0.41
  -3  -7  -5    0.87    0.70
   3   7   5    1.20    0.73
   4  -8  -5    0.62    0.57
  -4   8   5    0.53    0.80
  -4   8   5    1.18    0.67
   3  -8  -5   -0.36    0.56
  -3   8   5    0.47    0.58
  -3   8   5   -1.24    0.81
   2  -8  -5    0.56    0.58
  -2   8   5   -0.32    0.83
  -2   8   5   -0.08    0.50
   1  -8  -5    1.54    0.65
  -1   8   5    1.70    0.79
  -1   8   5    0.79    0.49
   0  -8  -5   -0.32    0.60
   0   8   5    0.47    0.43
   0   8   5    0.38    0.75
  -1  -8  -5    2.31    0.67
   1   8   5    0.66    0.78
   2  10  -6   -0.65    0.63
  -2 -10   6   -0.21    0.69
   1  10  -6    1.89    0.71
  -1 -10   6    3.95    0.81
   0  10  -6    3.79    0.62
   0  10  -6    3.36    0.69
   0  10  -6    5.00    0.78
  -1  10  -6   -0.15    0.53
  -1  10  -6   -0.92    0.53
  -1  10  -6    1.29    0.62
  -2  10  -6   -0.50    0.49
  -2  10  -6   -0.38    0.50
  -2  10  -6    0.17    0.63
  -3  10  -6    0.95    0.46
  -3  10  -6    0.17    0.75
  -3  10  -6    0.21    0.50
   4   9  -6   -0.37    0.69
   4   9  -6    0.48    0.50
  -4  -9   6    0.28    0.69
   3   9  -6    0.48    0.44
   3   9  -6    0.57    0.64
  -3  -9   6   -0.72    0.58
   2   9  -6    1.63    0.41
   2   9  -6    1.87    0.46
   2   9  -6    1.29    0.62
  -2  -9   6    2.01    0.59
   1   9  -6    4.23    0.69
   1   9  -6    4.81    0.58
  -1  -9   6    4.68    0.73
  -1  -9   6    4.53    0.58
   0   9  -6    0.46    0.46
   0   9  -6    1.03    0.33
   0   9  -6    1.47    0.51
   0  -9   6    1.60    0.49
  -1   9  -6    0.64    0.45
  -1   9  -6    0.26    0.34
  -1   9  -6    0.06    0.42
   1  -9   6   -0.08    0.45
  -2   9  -6    0.33    0.40
  -2   9  -6    0.30    0.32
  -2   9  -6    0.76    0.38
   2  -9   6    0.32    0.52
  -3   9  -6   -0.13    0.41
  -3   9  -6    0.32    0.37
  -3   9  -6   -0.73    0.35
   3  -9   6   -0.11    0.55
  -4   9  -6    1.60    0.46
  -4   9  -6    1.18    0.47
  -4   9  -6    1.36    0.34
   4  -9   6    0.06    0.67
  -5   9  -6    0.38    0.49
   5  -9   6   -0.03    0.75
   5   8  -6    1.34    0.67
   5   8  -6    0.14    0.52
  -5  -8   6   -0.71    0.62
   4   8  -6    0.43    0.56
   4   8  -6   -0.29    0.41
  -4  -8   6    0.21    0.52
   3   8  -6    0.24    0.35
   3   8  -6   -0.16    0.48
  -3  -8   6    0.69    0.48
  -3  -8   6    0.23    0.27
   2   8  -6   -0.69    0.46
   2   8  -6    0.11    0.26
   2   8  -6    0.13    0.40
   2   8  -6    0.34    0.30
  -2  -8   6    0.07    0.38
  -2  -8   6   -0.02    0.27
   1   8  -6    4.82    0.50
   1   8  -6    4.94    0.62
   1   8  -6    5.62    0.56
   1   8  -6    4.38    0.57
  -1  -8   6    4.14    0.59
  -1  -8   6    5.59    0.76
   0   8  -6    1.94    0.45
   0   8  -6    2.72    0.40
   0   8  -6    3.18    0.45
   0  -8   6    3.38    0.48
   0  -8   6    3.52    0.57
  -1   8  -6    0.33    0.37
  -1   8  -6    0.08    0.23
  -1   8  -6    0.19    0.32
  -1   8  -6    0.10    0.28
   1  -8   6    0.15    0.38
  -2   8  -6    1.78    0.43
  -2   8  -6    1.30    0.38
  -2   8  -6    0.93    0.31
  -2   8  -6    1.47    0.31
   2  -8   6    1.04    0.45
  -3   8  -6   -0.02    0.27
  -3   8  -6    0.10    0.30
  -3   8  -6    0.96    0.47
  -3   8  -6    0.52    0.33
   3  -8   6    0.15    0.46
  -4   8  -6    0.20    0.32
  -4   8  -6   -0.11    0.24
   4  -8   6    0.29    0.53
   4  -8   6    0.16    0.37
  -5   8  -6    2.15    0.45
   5  -8   6    2.57    0.74
   5  -8   6    3.02    0.53
  -6   8  -6    1.10    0.51
   6  -8   6    0.08    0.75
   6  -8   6    0.44    0.52
   6   7  -6    0.50    0.55
   6   7  -6   -0.17    0.62
  -6  -7   6    0.03    0.55
   5   7  -6   -0.02    0.54
   5   7  -6    0.98    0.43
  -5  -7   6    1.01    0.53
   4   7  -6    7.22    0.89
   4   7  -6    7.81    0.70
  -4  -7   6    7.89    0.86
  -4  -7   6    5.80    0.56
   3   7  -6   -0.11    0.38
   3   7  -6    0.11    0.27
  -3  -7   6    0.16    0.32
  -3  -7   6    0.19    0.20
  -3  -7   6    0.50    0.40
   2   7  -6    1.42    0.28
   2   7  -6    1.54    0.26
   2   7  -6    1.69    0.42
  -2  -7   6    1.33    0.28
  -2  -7   6    1.64    0.33
  -2  -7   6    1.67    0.40
   1   7  -6    1.78    0.31
   1   7  -6    2.06    0.40
   1   7  -6    2.15    0.31
   1   7  -6    1.39    0.30
  -1  -7   6    1.78    0.34
  -1  -7   6    1.51    0.38
   0   7  -6    2.47    0.33
   0   7  -6    1.92    0.35
   0   7  -6    2.63    0.32
   0   7  -6    2.85    0.41
   0  -7   6    2.98    0.47
   0  -7   6    2.63    0.41
  -1   7  -6    1.96    0.33
  -1   7  -6    2.08    0.41
  -1   7  -6    2.43    0.36
  -1   7  -6    2.64    0.32
   1  -7   6    2.17    0.41
  -2   7  -6    0.10    0.21
  -2   7  -6    0.24    0.25
  -2   7  -6    0.43    0.20
  -2   7  -6   -0.32    0.21
   2  -7   6    0.28    0.33
  -3   7  -6    0.41    0.22
  -3   7  -6    1.12    0.32
  -3   7  -6    0.35    0.23
  -3   7  -6    0.10    0.24
   3  -7   6    0.65    0.43
   3  -7   6    0.48    0.24
  -4   7  -6    0.01    0.30
  -4   7  -6   -0.26    0.27
  -4   7  -6   -0.21    0.19
  -4   7  -6    0.17    0.25
   4  -7   6    0.35    0.47
   4  -7   6    0.07    0.31
  -5   7  -6    0.10    0.16
  -5   7  -6    0.54    0.33
   5  -7   6    0.15    0.53
   5  -7   6    0.14    0.38
  -6   7  -6    0.60    0.42
   6  -7   6    0.31    0.47
   6  -7   6    0.07    0.65
  -7   7  -6   -0.07    0.43
   7  -7   6    0.46    0.75
   7  -7   6   -0.21    0.56
   7   6  -6   -0.01    0.56
   7   6  -6    0.73    0.62
  -7  -6   6   -0.12    0.57
   6   6  -6   -0.10    0.46
   6   6  -6    0.99    0.50
  -6  -6   6    0.96    0.53
   5   6  -6   -0.26    0.35
   5   6  -6   -0.34    0.41
  -5  -6   6    0.13    0.44
   4   6  -6    2.85    0.39
   4   6  -6    2.65    0.45
   4   6  -6    2.10    0.30
  -4  -6   6    2.45    0.29
  -4  -6   6    3.85    0.50
  -4  -6   6    4.13    0.54
   3   6  -6    0.33    0.20
   3   6  -6    0.38    0.29
   3   6  -6    0.34    0.22
  -3  -6   6    0.18    0.21
  -3  -6   6    0.51    0.27
  -3  -6   6    0.33    0.32
   2   6  -6    3.42    0.35
   2   6  -6    4.19    0.55
   2   6  -6    3.84    0.37
  -2  -6   6    4.02    0.40
  -2  -6   6    3.16    0.39
  -2  -6   6    3.40    0.50
   1   6  -6    0.47    0.24
   1   6  -6    0.15    0.20
   1   6  -6    0.13    0.19
   1   6  -6    0.20    0.15
  -1  -6   6   -0.05    0.22
  -1  -6   6    0.49    0.26
   0   6  -6    4.16    0.32
   0   6  -6    4.20    0.44
   0   6  -6    4.58    0.47
   0   6  -6    4.34    0.35
   0  -6   6    3.70    0.51
   0  -6   6    4.11    0.49
   0  -6   6    3.98    0.50
  -1   6  -6    1.22    0.28
  -1   6  -6    2.06    0.32
  -1   6  -6    2.02    0.22
  -1   6  -6    2.00    0.24
  -1   6  -6    1.64    0.28
   1  -6   6    2.06    0.37
   1  -6   6    1.63    0.30
  -2   6  -6    9.89    0.77
  -2   6  -6    9.31    0.63
  -2   6  -6   10.67    0.71
  -2   6  -6   10.04    0.66
   2  -6   6    9.63    0.82
   2  -6   6    9.94    0.76
  -3   6  -6    4.86    0.55
  -3   6  -6    5.93    0.44
  -3   6  -6    5.42    0.43
   3  -6   6    4.95    0.51
   3  -6   6    5.11    0.68
   3  -6   6    5.66    0.48
  -4   6  -6    9.92    0.75
  -4   6  -6   10.34    0.64
  -4   6  -6    9.27    0.68
   4  -6   6    9.30    0.73
   4  -6   6    8.80    0.72
   4  -6   6   10.36    0.91
  -5   6  -6   15.24    1.08
  -5   6  -6   18.62    1.15
  -5   6  -6   15.81    1.00
   5  -6   6   16.45    1.15
   5  -6   6   17.83    1.34
  -6   6  -6    0.25    0.33
   6  -6   6    1.18    0.62
   6  -6   6    0.49    0.44
  -7   6  -6    2.32    0.49
   7  -6   6    2.93    0.78
   7  -6   6    1.89    0.63
   8   5  -6    0.29    0.77
   8   5  -6   -0.29    0.59
  -8  -5   6   -0.25    0.65
   7   5  -6    0.87    0.55
   7   5  -6    1.28    0.52
  -7  -5   6    1.57    0.56
   6   5  -6    1.13    0.43
   6   5  -6    0.86    0.43
  -6  -5   6    1.52    0.49
   5   5  -6    6.53    0.54
   5   5  -6    9.40    0.73
   5   5  -6    8.39    0.79
  -5  -5   6    9.53    0.83
  -5  -5   6    7.94    0.56
   4   5  -6    2.20    0.38
   4   5  -6    2.87    0.35
   4   5  -6    2.08    0.29
  -4  -5   6    2.18    0.39
  -4  -5   6    2.17    0.30
  -4  -5   6    1.37    0.37
   3   5  -6   -0.04    0.24
   3   5  -6   -0.05    0.17
  -3  -5   6   -0.06    0.16
  -3  -5   6    0.03    0.27
   2   5  -6   17.30    1.03
   2   5  -6   17.83    1.02
   2   5  -6   16.59    1.10
   2   5  -6   15.02    1.08
  -2  -5   6   17.74    1.14
  -2  -5   6   15.39    1.12
  -2  -5   6   16.79    1.03
  -2  -5   6   16.54    1.05
   1   5  -6    0.43    0.20
   1   5  -6    0.07    0.09
   1   5  -6    0.21    0.16
   1   5  -6    0.87    0.22
  -1  -5   6    0.10    0.23
  -1  -5   6    0.07    0.17
  -1  -5   6   -0.09    0.22
   0   5  -6    7.28    0.58
   0   5  -6    7.70    0.61
   0   5  -6    7.83    0.46
   0   5  -6    7.92    0.59
   0   5  -6    8.14    0.47
   0  -5   6    7.28    0.61
   0  -5   6    7.95    0.61
   0  -5   6    7.49    0.62
  -1   5  -6   -0.07    0.21
  -1   5  -6    0.19    0.19
  -1   5  -6   -0.10    0.13
  -1   5  -6   -0.04    0.07
  -1   5  -6    0.22    0.21
  -1   5  -6   -0.08    0.06
   1  -5   6   -0.06    0.24
   1  -5   6   -0.22    0.19
  -2   5  -6    6.47    0.60
  -2   5  -6    6.23    0.58
  -2   5  -6    6.24    0.56
  -2   5  -6    6.79    0.44
  -2   5  -6    7.37    0.50
   2  -5   6    7.00    0.54
   2  -5   6    7.24    0.46
   2  -5   6    6.86    0.62
  -3   5  -6   12.35    0.77
  -3   5  -6   12.24    0.85
  -3   5  -6   11.92    0.76
   3  -5   6   12.34    0.96
   3  -5   6   12.24    0.79
   3  -5   6   12.06    0.82
  -4   5  -6    4.53    0.43
  -4   5  -6    5.04    0.37
  -4   5  -6    4.33    0.49
   4  -5   6    4.49    0.45
   4  -5   6    5.30    0.46
   4  -5   6    4.83    0.66
  -5   5  -6    0.60    0.17
  -5   5  -6    0.35    0.26
  -5   5  -6    0.68    0.28
   5  -5   6    0.43    0.40
   5  -5   6    0.42    0.29
  -6   5  -6    2.44    0.32
  -6   5  -6    2.93    0.41
   6  -5   6    3.21    0.64
   6  -5   6    2.85    0.49
  -7   5  -6    0.13    0.34
   7  -5   6    0.53    0.48
   7  -5   6    0.96    0.62
  -8   5  -6   -0.44    0.42
   8  -5   6    1.90    0.86
   8  -5   6   -0.18    0.62
   8   4  -6   -0.60    0.50
   8   4  -6   -0.35    0.66
  -8  -4   6    0.88    0.62
   7   4  -6   -0.68    0.50
   7   4  -6    0.22    0.42
  -7  -4   6    0.73    0.45
   6   4  -6    0.35    0.39
   6   4  -6    0.02    0.34
  -6  -4   6    0.12    0.17
  -6  -4   6    0.63    0.42
   5   4  -6    1.82    0.37
   5   4  -6    2.34    0.37
  -5  -4   6    1.88    0.38
  -5  -4   6    2.47    0.32
   4   4  -6   11.69    0.90
   4   4  -6   12.46    0.85
  -4  -4   6   12.68    0.82
  -4  -4   6   12.80    0.86
  -4  -4   6   13.20    0.92
   3   4  -6    0.49    0.25
   3   4  -6    0.70    0.22
   3   4  -6    0.86    0.19
   3   4  -6    0.54    0.18
  -3  -4   6    0.71    0.18
  -3  -4   6    0.84    0.27
  -3  -4   6    0.74    0.19
  -3  -4   6    0.59    0.24
   2   4  -6    7.91    0.59
   2   4  -6    7.32    0.51
   2   4  -6    7.32    0.57
   2   4  -6    8.09    0.50
  -2  -4   6    7.31    0.62
  -2  -4   6    7.76    0.51
  -2  -4   6    6.89    0.54
  -2  -4   6    7.55    0.61
   1   4  -6    2.08    0.29
   1   4  -6    1.77    0.16
   1   4  -6    2.04    0.25
   1   4  -6    1.54    0.24
  -1  -4   6    2.27    0.29
  -1  -4   6    1.99    0.18
  -1  -4   6    1.97    0.27
  -1  -4   6    2.23    0.29
   0   4  -6   53.64    3.00
   0   4  -6   53.63    2.97
   0   4  -6   51.92    2.97
   0  -4   6   50.32    2.99
   0  -4   6   50.27    2.99
   0  -4   6   47.62    2.99
  -1   4  -6    8.85    0.77
  -1   4  -6    8.93    0.68
  -1   4  -6    9.78    0.63
  -1   4  -6    9.95    0.67
   1  -4   6    9.33    0.66
   1  -4   6   10.05    0.69
  -2   4  -6    4.53    0.30
  -2   4  -6    4.19    0.42
  -2   4  -6    4.66    0.35
  -2   4  -6    4.98    0.45
  -2   4  -6    4.96    0.45
   2  -4   6    4.40    0.40
   2  -4   6    4.08    0.48
   2  -4   6    4.45    0.31
  -3   4  -6    1.65    0.21
  -3   4  -6    1.05    0.22
  -3   4  -6    1.80    0.31
  -3   4  -6    1.08    0.18
   3  -4   6    1.23    0.21
   3  -4   6    1.26    0.30
   3  -4   6    1.25    0.20
   3  -4   6    1.33    0.29
  -4   4  -6   61.79    3.37
  -4   4  -6   57.25    3.30
  -4   4  -6   54.62    3.33
   4  -4   6   56.39    3.33
   4  -4   6   56.89    3.45
   4  -4   6   59.60    3.35
  -5   4  -6   43.93    2.87
  -5   4  -6   52.40    2.89
  -5   4  -6   49.04    2.82
   5  -4   6   49.69    2.91
   5  -4   6   50.80    3.01
  -6   4  -6   -0.19    0.27
  -6   4  -6   -0.37    0.17
   6  -4   6   -0.05    0.20
   6  -4   6   -0.09    0.33
   6  -4   6    0.11    0.46
  -7   4  -6    1.88    0.39
   7  -4   6    0.83    0.47
   7  -4   6    1.53    0.61
  -8   4  -6   -0.17    0.38
   8  -4   6    0.86    0.73
   8  -4   6    1.45    0.64
   8   3  -6    0.49    0.63
   8   3  -6    0.58    0.42
  -8  -3   6    0.42    0.51
   7   3  -6    0.61    0.49
   7   3  -6    0.62    0.35
  -7  -3   6    0.33    0.41
  -7  -3   6    0.88    0.24
   6   3  -6    0.84    0.28
   6   3  -6    0.70    0.31
   6   3  -6    0.74    0.37
  -6  -3   6   -0.31    0.27
  -6  -3   6    0.49    0.21
   5   3  -6    0.00    0.21
   5   3  -6   -0.41    0.19
   5   3  -6    0.41    0.27
  -5  -3   6    0.08    0.17
  -5  -3   6    0.12    0.30
  -5  -3   6    0.05    0.32
  -5  -3   6   -0.06    0.21
   4   3  -6   14.74    0.93
   4   3  -6   14.60    0.98
   4   3  -6   14.78    0.93
   4   3  -6   16.29    0.98
  -4  -3   6   13.88    0.94
  -4  -3   6   14.46    1.00
  -4  -3   6   13.55    1.01
  -4  -3   6   15.63    0.93
   3   3  -6    4.30    0.37
   3   3  -6    3.70    0.36
   3   3  -6    4.07    0.41
   3   3  -6    3.88    0.33
  -3  -3   6    3.86    0.36
  -3  -3   6    4.10    0.44
  -3  -3   6    4.26    0.35
  -3  -3   6    4.42    0.44
   2   3  -6   58.31    3.51
   2   3  -6   65.55    3.48
   2   3  -6   60.16    3.49
   2   3  -6   57.66    3.51
  -2  -3   6   62.89    3.54
  -2  -3   6   61.64    3.51
  -2  -3   6   60.91    3.48
  -2  -3   6   60.50    3.54
   1   3  -6    7.22    0.53
   1   3  -6    6.63    0.47
   1   3  -6    7.18    0.42
   1   3  -6    7.01    0.49
  -1  -3   6    6.38    0.51
  -1  -3   6    7.06    0.50
  -1  -3   6    6.93    0.51
  -1  -3   6    6.85    0.42
   0   3  -6   22.64    1.38
   0   3  -6   25.35    1.43
   0   3  -6   21.29    1.39
   0  -3   6   22.07    1.40
   0  -3   6   24.26    1.42
   0  -3   6   24.71    1.42
  -1   3  -6   73.88    4.38
  -1   3  -6   77.87    4.35
  -1   3  -6   80.96    4.40
  -1   3  -6   77.22    4.38
   1  -3   6   74.39    4.37
   1  -3   6   73.54    4.40
  -2   3  -6   35.55    2.00
  -2   3  -6   31.37    2.04
  -2   3  -6   34.15    1.98
  -2   3  -6   35.57    2.03
   2  -3   6   35.36    2.05
   2  -3   6   34.81    2.01
   2  -3   6   33.11    2.06
   2  -3   6   35.65    1.98
  -3   3  -6   23.30    1.41
  -3   3  -6   23.77    1.39
  -3   3  -6   23.35    1.56
  -3   3  -6   22.87    1.37
   3  -3   6   23.14    1.39
   3  -3   6   23.23    1.39
   3  -3   6   23.54    1.45
   3  -3   6   24.10    1.49
  -4   3  -6   19.25    1.14
  -4   3  -6   15.55    1.01
  -4   3  -6   16.08    1.05
  -4   3  -6   17.79    1.07
   4  -3   6   13.57    1.21
   4  -3   6   17.14    1.03
   4  -3   6   17.79    1.18
   4  -3   6   17.28    1.06
  -5   3  -6    2.43    0.32
  -5   3  -6    2.06    0.33
  -5   3  -6    1.75    0.24
   5  -3   6    2.72    0.36
   5  -3   6    2.97    0.50
   5  -3   6    1.90    0.25
  -6   3  -6    2.59    0.37
  -6   3  -6    2.55    0.37
   6  -3   6    2.91    0.32
   6  -3   6    2.97    0.47
   6  -3   6    3.05    0.55
  -7   3  -6    2.39    0.35
  -7   3  -6    3.47    0.46
   7  -3   6    3.00    0.65
   7  -3   6    3.15    0.58
  -8   3  -6    1.37    0.46
   8  -3   6    2.17    0.72
   8  -3   6    2.50    0.65
   9   2  -6    2.44    0.88
  -9  -2   6    3.09    0.68
   8   2  -6    0.23    0.31
   8   2  -6    0.04    0.58
  -8  -2   6    0.70    0.48
  -8  -2   6    0.02    0.31
   7   2  -6    3.41    0.42
   7   2  -6    3.82    0.61
  -7  -2   6    4.71    0.57
  -7  -2   6    3.49    0.49
  -7  -2   6    2.40    0.48
   6   2  -6    0.17    0.34
   6   2  -6    0.81    0.30
   6   2  -6   -0.05    0.22
  -6  -2   6   -0.10    0.35
  -6  -2   6   -0.17    0.29
  -6  -2   6    0.09    0.22
   5   2  -6    0.14    0.27
   5   2  -6    0.25    0.18
   5   2  -6    0.64    0.22
  -5  -2   6    0.67    0.22
  -5  -2   6    0.11    0.23
  -5  -2   6    0.24    0.30
  -5  -2   6    0.67    0.19
   4   2  -6    0.67    0.15
   4   2  -6    0.42    0.21
   4   2  -6    0.49    0.19
   4   2  -6    0.50    0.17
  -4  -2   6    0.68    0.23
  -4  -2   6    0.21    0.17
  -4  -2   6    0.64    0.17
  -4  -2   6    0.30    0.21
   3   2  -6    0.80    0.17
   3   2  -6    0.98    0.19
   3   2  -6    1.26    0.18
  -3  -2   6    1.17    0.19
  -3  -2   6    1.32    0.22
  -3  -2   6    1.04    0.16
  -3  -2   6    1.06    0.19
   2   2  -6   24.07    1.43
   2   2  -6   23.15    1.43
   2   2  -6   24.69    1.43
   2   2  -6   23.94    1.42
  -2  -2   6   24.74    1.44
  -2  -2   6   22.57    1.45
  -2  -2   6   27.35    1.46
  -2  -2   6   22.72    1.41
   1   2  -6   17.81    1.08
   1   2  -6   19.40    1.12
   1   2  -6   17.65    1.11
   1   2  -6   18.72    1.11
  -1  -2   6   18.40    1.07
  -1  -2   6   17.83    1.12
  -1  -2   6   18.80    1.12
  -1  -2   6   19.02    1.13
   0   2  -6   52.89    3.12
   0   2  -6   53.30    3.14
   0   2  -6   56.86    3.14
   0   2  -6   53.95    3.14
   0  -2   6   55.57    3.15
   0  -2   6   54.88    3.14
   0  -2   6   55.18    3.09
   0  -2   6   53.74    3.09
  -1   2  -6   23.12    1.28
  -1   2  -6   22.30    1.29
  -1   2  -6   21.85    1.30
  -1   2  -6   22.27    1.25
   1  -2   6   19.73    1.28
   1  -2   6   19.79    1.31
   1  -2   6   21.86    1.24
  -2   2  -6   11.75    0.72
  -2   2  -6   13.32    0.74
  -2   2  -6    9.49    0.75
  -2   2  -6   11.13    0.71
   2  -2   6   10.64    0.78
   2  -2   6   12.13    0.71
   2  -2   6   12.12    0.72
   2  -2   6   11.71    0.76
  -3   2  -6    2.03    0.29
  -3   2  -6    1.93    0.27
  -3   2  -6    2.12    0.25
  -3   2  -6    1.73    0.23
   3  -2   6    2.13    0.26
   3  -2   6    2.55    0.31
   3  -2   6    1.98    0.22
   3  -2   6    1.95    0.33
  -4   2  -6   35.40    2.05
  -4   2  -6   33.65    2.01
  -4   2  -6   37.48    2.08
  -4   2  -6   34.72    2.03
   4  -2   6   33.81    2.04
   4  -2   6   32.93    2.01
   4  -2   6   33.82    2.11
   4  -2   6   34.61    2.08
  -5   2  -6   14.98    1.08
  -5   2  -6   15.88    1.04
  -5   2  -6   17.54    1.03
   5  -2   6   17.41    1.17
   5  -2   6   14.62    0.99
   5  -2   6   17.28    1.07
  -6   2  -6    0.11    0.23
  -6   2  -6    0.34    0.24
   6  -2   6    0.12    0.15
   6  -2   6    0.26    0.36
   6  -2   6   -0.22    0.40
  -7   2  -6    1.47    0.29
  -7   2  -6    1.60    0.33
   7  -2   6    2.21    0.50
   7  -2   6    1.33    0.50
  -8   2  -6   -0.02    0.34
   8  -2   6    0.44    0.63
   8  -2   6   -0.04    0.54
   9   1  -6    0.87    0.79
  -9  -1   6    0.84    0.58
   8   1  -6    2.32    0.64
   8   1  -6    1.82    0.29
  -8  -1   6    2.04    0.45
  -8  -1   6    2.30    0.52
   7   1  -6    0.56    0.23
   7   1  -6    0.21    0.45
  -7  -1   6    1.37    0.38
  -7  -1   6    0.50    0.30
   6   1  -6    0.38    0.21
   6   1  -6    0.37    0.36
   6   1  -6   -0.06    0.32
  -6  -1   6    0.90    0.26
  -6  -1   6    0.26    0.31
  -6  -1   6    0.45    0.33
   5   1  -6    6.91    0.52
   5   1  -6    8.05    0.54
   5   1  -6    7.74    0.61
   5   1  -6    7.96    0.64
  -5  -1   6    7.01    0.60
  -5  -1   6    7.13    0.61
  -5  -1   6    7.16    0.58
  -5  -1   6    7.34    0.58
   4   1  -6   23.09    1.44
   4   1  -6   20.61    1.36
   4   1  -6   22.29    1.34
   4   1  -6   20.70    1.32
  -4  -1   6   23.97    1.36
  -4  -1   6   22.59    1.37
  -4  -1   6   22.44    1.38
  -4  -1   6   23.54    1.36
   3   1  -6    4.93    0.38
   3   1  -6    4.15    0.33
  -3  -1   6    4.93    0.39
  -3  -1   6    4.65    0.39
  -3  -1   6    4.55    0.38
   2   1  -6    8.28    0.60
   2   1  -6    9.64    0.63
   2   1  -6    9.04    0.59
   2   1  -6    9.91    0.63
  -2  -1   6   10.73    0.63
  -2  -1   6    9.35    0.61
  -2  -1   6    9.85    0.63
  -2  -1   6    9.30    0.61
   1   1  -6   -0.11    0.10
   1   1  -6   -0.12    0.09
   1   1  -6    0.23    0.10
  -1  -1   6    0.05    0.10
  -1  -1   6   -0.08    0.10
  -1  -1   6    0.00    0.11
  -1  -1   6    0.01    0.10
   0   1  -6  314.91   18.04
   0   1  -6  318.53   18.02
   0   1  -6  323.88   18.02
   0  -1   6  306.44   18.02
   0  -1   6  314.81   18.02
   0  -1   6  330.08   18.05
   0  -1   6  328.92   18.03
  -1   1  -6  114.61    6.78
  -1   1  -6  127.90    6.80
  -1   1  -6  111.62    6.77
  -1   1  -6  124.13    6.77
  -1   1  -6  116.06    6.78
   1  -1   6  112.87    6.77
   1  -1   6  134.28    6.82
   1  -1   6  115.06    6.77
  -2   1  -6    0.92    0.14
  -2   1  -6    1.05    0.18
  -2   1  -6    0.86    0.14
  -2   1  -6    1.11    0.18
   2  -1   6    1.16    0.16
   2  -1   6    0.95    0.20
   2  -1   6    0.93    0.16
   2  -1   6    0.93    0.20
  -3   1  -6    3.28    0.35
  -3   1  -6    3.86    0.35
  -3   1  -6    3.90    0.32
   3  -1   6    3.35    0.35
   3  -1   6    3.68    0.39
   3  -1   6    3.40    0.35
  -4   1  -6   46.06    2.71
  -4   1  -6   46.39    2.66
  -4   1  -6   49.72    2.68
  -4   1  -6   47.14    2.71
   4  -1   6   43.15    2.69
   4  -1   6   48.36    2.75
   4  -1   6   41.95    2.65
   4  -1   6   45.31    2.70
  -5   1  -6    9.90    0.83
  -5   1  -6   13.18    0.94
  -5   1  -6   11.90    0.81
  -5   1  -6   11.67    0.79
   5  -1   6   12.08    0.87
   5  -1   6   12.06    0.92
  -6   1  -6    0.67    0.29
  -6   1  -6    1.06    0.25
   6  -1   6    0.17    0.31
   6  -1   6    1.05    0.40
  -7   1  -6    0.59    0.28
  -7   1  -6    1.18    0.33
   7  -1   6    0.84    0.52
   7  -1   6    1.82    0.48
  -8   1  -6    2.49    0.44
   8  -1   6    1.94    0.64
   8  -1   6    1.74    0.61
   9   0  -6    3.25    0.87
  -9   0   6    3.98    0.62
  -9   0   6    3.04    0.65
   8   0  -6    0.59    0.59
  -8   0   6   -0.41    0.43
  -8   0   6    0.24    0.42
   7   0  -6    0.30    0.18
   7   0  -6    0.10    0.47
  -7   0   6   -0.15    0.35
  -7   0   6    0.17    0.32
  -7   0   6    0.06    0.34
   6   0  -6   -0.01    0.37
   6   0  -6    0.10    0.15
  -6   0   6    0.06    0.26
  -6   0   6    0.16    0.25
  -6   0   6   -0.14    0.26
   5   0  -6   10.27    0.69
   5   0  -6   10.76    0.68
   5   0  -6   10.69    0.83
   5   0  -6   10.69    0.80
  -5   0   6   10.51    0.74
  -5   0   6    9.98    0.75
  -5   0   6   11.16    0.76
   4   0  -6    3.97    0.41
   4   0  -6    3.70    0.45
   4   0  -6    3.66    0.31
   4   0  -6    3.85    0.31
  -4   0   6    3.61    0.39
  -4   0   6    3.65    0.40
  -4   0   6    3.96    0.36
  -4   0   6    3.64    0.36
   3   0  -6   42.49    2.50
   3   0  -6   40.95    2.51
   3   0  -6   41.90    2.58
   3   0  -6   42.74    2.56
  -3   0   6   47.60    2.56
  -3   0   6   44.84    2.55
  -3   0   6   44.87    2.52
  -3   0   6   44.50    2.54
   2   0  -6   23.28    1.29
   2   0  -6   22.07    1.36
   2   0  -6   20.72    1.31
   2   0  -6   21.16    1.34
  -2   0   6   22.66    1.32
  -2   0   6   23.55    1.35
  -2   0   6   21.78    1.34
  -2   0   6   22.86    1.31
   1   0  -6   13.74    0.90
   1   0  -6   13.76    0.91
   1   0  -6   15.26    0.88
   1   0  -6   15.13    0.85
  -1   0   6   14.91    0.88
  -1   0   6   13.93    0.91
  -1   0   6   14.56    0.90
  -1   0   6   14.35    0.85
   0   0  -6    8.57    0.55
   0   0  -6    8.86    0.50
   0   0  -6    7.68    0.49
   0   0  -6    7.65    0.53
   0   0   6    8.43    0.55
   0   0   6    8.35    0.56
   0   0   6    8.06    0.56
   0   0   6    7.30    0.52
  -1   0  -6   11.32    0.77
  -1   0  -6   12.61    0.78
  -1   0  -6   13.37    0.73
  -1   0  -6   12.64    0.80
   1   0   6   13.03    0.75
   1   0   6   10.80    0.78
   1   0   6   12.51    0.76
   1   0   6   11.98    0.78
  -2   0  -6   15.75    0.94
  -2   0  -6   16.79    1.01
  -2   0  -6   17.22    0.98
  -2   0  -6   15.25    0.98
   2   0   6   16.33    0.97
   2   0   6   15.08    0.99
   2   0   6   15.50    0.96
   2   0   6   15.14    0.99
  -3   0  -6   27.77    1.69
  -3   0  -6   29.80    1.73
  -3   0  -6   28.14    1.65
  -3   0  -6   29.08    1.70
   3   0   6   28.16    1.70
   3   0   6   27.81    1.66
   3   0   6   30.32    1.68
   3   0   6   25.83    1.71
  -4   0  -6    4.76    0.45
  -4   0  -6    5.12    0.46
  -4   0  -6    4.57    0.50
  -4   0  -6    5.23    0.40
   4   0   6    5.24    0.51
   4   0   6    4.93    0.43
   4   0   6    4.97    0.40
   4   0   6    5.09    0.50
  -5   0  -6    0.32    0.18
  -5   0  -6    0.11    0.25
   5   0   6    0.09    0.31
   5   0   6    0.36    0.30
  -6   0  -6    1.33    0.36
  -6   0  -6    1.10    0.33
  -6   0  -6    1.42    0.28
   6   0   6    1.14    0.37
   6   0   6    1.02    0.41
  -7   0  -6    5.67    0.60
  -7   0  -6    5.30    0.74
   7   0   6    5.78    0.84
   7   0   6    5.20    0.68
  -8   0  -6    3.25    0.54
   8   0   6    3.09    0.72
   8   0   6    3.45    0.62
   9  -1  -6   -0.36    0.79
  -9   1   6   -0.17    0.53
  -9   1   6   -0.90    0.56
   8  -1  -6    1.38    0.66
  -8   1   6    1.55    0.51
  -8   1   6    1.31    0.46
   7  -1  -6    0.56    0.49
   7  -1  -6    0.34    0.17
  -7   1   6   -0.20    0.29
  -7   1   6    1.18    0.39
   6  -1  -6    1.27    0.43
   6  -1  -6    1.03    0.18
  -6   1   6    0.89    0.26
  -6   1   6    0.55    0.26
  -6   1   6    1.19    0.34
   5  -1  -6    0.30    0.32
   5  -1  -6    0.18    0.13
  -5   1   6    0.00    0.18
  -5   1   6   -0.09    0.17
  -5   1   6    0.32    0.25
   4  -1  -6    2.86    0.41
   4  -1  -6    2.77    0.27
   4  -1  -6    2.75    0.39
   4  -1  -6    3.14    0.28
  -4   1   6    2.52    0.38
  -4   1   6    2.85    0.39
  -4   1   6    2.25    0.30
  -4   1   6    3.03    0.30
   3  -1  -6    0.11    0.18
   3  -1  -6    0.38    0.24
  -3   1   6    0.11    0.20
  -3   1   6    0.25    0.18
  -3   1   6    0.22    0.12
   2  -1  -6   36.82    2.10
   2  -1  -6   32.11    2.04
   2  -1  -6   34.71    2.13
   2  -1  -6   38.76    2.16
  -2   1   6   37.89    2.09
  -2   1   6   35.72    2.14
  -2   1   6   36.83    2.13
  -2   1   6   36.24    2.06
   1  -1  -6   25.29    1.41
   1  -1  -6   21.94    1.42
   1  -1  -6   25.10    1.46
  -1   1   6   23.39    1.44
  -1   1   6   25.32    1.42
  -1   1   6   21.07    1.39
   0  -1  -6  121.40    6.40
   0  -1  -6  113.26    6.34
   0  -1  -6  115.67    6.41
   0   1   6  102.57    6.42
   0   1   6  114.90    6.38
   0   1   6  116.34    6.43
   0   1   6  102.70    6.39
  -1  -1  -6   16.13    1.02
  -1  -1  -6   15.20    1.02
  -1  -1  -6   16.17    0.96
   1   1   6   16.80    1.01
   1   1   6   18.03    0.98
   1   1   6   17.77    1.06
   1   1   6   16.82    1.03
   1   1   6   16.10    1.08
  -2  -1  -6   15.49    1.02
  -2  -1  -6   15.16    0.99
  -2  -1  -6   17.26    0.97
   2   1   6   14.66    0.95
   2   1   6   14.21    1.00
   2   1   6   16.08    0.98
   2   1   6   15.29    0.93
  -3  -1  -6    0.43    0.28
  -3  -1  -6    0.49    0.21
   3   1   6    0.32    0.20
   3   1   6    0.26    0.23
  -4  -1  -6   12.07    0.85
  -4  -1  -6   14.10    0.92
  -4  -1  -6   14.47    0.83
   4   1   6   12.41    0.92
   4   1   6   11.86    0.83
   4   1   6   12.49    0.83
   4   1   6   12.86    0.89
  -5  -1  -6    1.52    0.35
   5   1   6    1.51    0.41
   5   1   6    1.94    0.40
  -6  -1  -6    0.90    0.26
  -6  -1  -6    0.27    0.24
  -6  -1  -6    0.17    0.38
   6   1   6    0.07    0.37
   6   1   6   -0.02    0.42
  -7  -1  -6    0.26    0.46
  -7  -1  -6    0.33    0.36
   7   1   6    1.12    0.52
   7   1   6    0.87    0.41
  -8  -1  -6   -0.66    0.46
  -8  -1  -6    0.19    0.53
   8   1   6   -0.34    0.62
   8  -2  -6    0.60    0.69
  -8   2   6    0.83    0.50
  -8   2   6    0.82    0.42
   7  -2  -6    2.25    0.61
   7  -2  -6    1.99    0.24
  -7   2   6    2.13    0.48
  -7   2   6    1.54    0.37
   6  -2  -6    0.63    0.16
   6  -2  -6    0.86    0.48
   6  -2  -6    0.16    0.20
  -6   2   6    0.01    0.23
  -6   2   6    0.40    0.24
  -6   2   6    0.23    0.33
   5  -2  -6    0.80    0.39
   5  -2  -6    0.98    0.20
   5  -2  -6    1.20    0.19
  -5   2   6    0.72    0.20
  -5   2   6    0.97    0.31
  -5   2   6    0.78    0.20
   4  -2  -6    2.52    0.26
   4  -2  -6    2.42    0.30
   4  -2  -6    2.66    0.44
  -4   2   6    2.53    0.28
  -4   2   6    2.14    0.29
  -4   2   6    2.27    0.34
   3  -2  -6    1.98    0.28
   3  -2  -6    3.04    0.40
   3  -2  -6    2.52    0.34
  -3   2   6    2.17    0.26
  -3   2   6    2.53    0.33
  -3   2   6    2.40    0.35
  -3   2   6    2.51    0.22
   2  -2  -6    2.18    0.35
   2  -2  -6    1.92    0.27
   2  -2  -6    1.64    0.22
  -2   2   6    1.60    0.29
  -2   2   6    1.71    0.26
  -2   2   6    1.33    0.18
   1  -2  -6    3.87    0.38
   1  -2  -6    3.28    0.35
  -1   2   6    4.25    0.31
  -1   2   6    4.01    0.43
  -1   2   6    3.24    0.43
  -1   2   6    3.91    0.37
   0  -2  -6   21.29    1.30
   0  -2  -6   21.77    1.29
   0   2   6   20.78    1.33
   0   2   6   20.56    1.28
   0   2   6   21.75    1.34
   0   2   6   20.03    1.26
  -1  -2  -6    0.55    0.16
  -1  -2  -6    0.15    0.14
  -1  -2  -6    0.27    0.18
   1   2   6    0.21    0.23
   1   2   6    0.09    0.14
   1   2   6    0.39    0.09
   1   2   6    0.22    0.15
   1   2   6   -0.25    0.29
  -2  -2  -6    0.05    0.28
  -2  -2  -6    0.14    0.14
  -2  -2  -6    0.24    0.21
  -2  -2  -6    0.30    0.11
   2   2   6    0.19    0.11
   2   2   6    0.15    0.17
   2   2   6    0.22    0.15
   2   2   6    0.00    0.23
  -3  -2  -6   11.76    0.87
  -3  -2  -6   10.53    0.75
  -3  -2  -6   11.77    0.77
   3   2   6   12.10    0.80
   3   2   6   13.17    0.90
   3   2   6   12.64    0.75
  -4  -2  -6    9.35    0.70
  -4  -2  -6    9.54    0.68
  -4  -2  -6   11.57    0.87
   4   2   6   10.38    0.86
   4   2   6   10.35    0.76
   4   2   6   10.01    0.69
  -5  -2  -6    1.56    0.31
  -5  -2  -6    1.38    0.42
  -5  -2  -6    1.39    0.24
   5   2   6    1.87    0.35
   5   2   6    1.31    0.44
  -6  -2  -6    0.68    0.35
  -6  -2  -6    1.06    0.47
   6   2   6    1.13    0.40
   6   2   6    0.75    0.49
  -7  -2  -6    0.83    0.54
  -7  -2  -6    0.47    0.44
   7   2   6    1.07    0.61
   8  -3  -6   -0.59    0.72
  -8   3   6    0.07    0.56
  -8   3   6    0.31    0.42
   7  -3  -6   -0.17    0.62
  -7   3   6   -1.03    0.47
  -7   3   6    0.02    0.31
   6  -3  -6    1.55    0.23
   6  -3  -6    1.46    0.28
   6  -3  -6    1.47    0.56
  -6   3   6    1.76    0.28
  -6   3   6    1.08    0.38
  -6   3   6    2.22    0.49
   5  -3  -6    2.95    0.48
   5  -3  -6    2.42    0.29
   5  -3  -6    1.99    0.27
  -5   3   6    1.93    0.27
  -5   3   6    2.10    0.25
  -5   3   6    2.25    0.37
   4  -3  -6    0.65    0.37
   4  -3  -6    1.16    0.19
   4  -3  -6    0.93    0.22
  -4   3   6    0.90    0.16
  -4   3   6    0.36    0.31
   3  -3  -6    1.26    0.16
   3  -3  -6    1.86    0.29
   3  -3  -6    1.40    0.38
  -3   3   6    1.62    0.32
  -3   3   6    1.51    0.17
  -3   3   6    1.41    0.20
   2  -3  -6    3.55    0.47
   2  -3  -6    4.55    0.55
   2  -3  -6    3.71    0.41
  -2   3   6    3.65    0.51
  -2   3   6    3.82    0.34
  -2   3   6    4.26    0.45
   1  -3  -6    0.23    0.21
   1  -3  -6    0.47    0.22
  -1   3   6    0.38    0.21
  -1   3   6   -0.16    0.29
  -1   3   6    0.39    0.14
  -1   3   6    0.22    0.27
   0  -3  -6    0.63    0.20
   0  -3  -6    0.17    0.20
   0   3   6    0.38    0.18
   0   3   6   -0.01    0.15
   0   3   6    0.07    0.26
   0   3   6    0.10    0.28
  -1  -3  -6    0.26    0.22
  -1  -3  -6    0.37    0.20
   1   3   6    0.25    0.19
   1   3   6    0.11    0.26
   1   3   6    0.29    0.08
  -2  -3  -6    5.03    0.44
  -2  -3  -6    4.49    0.39
  -2  -3  -6    5.15    0.57
   2   3   6    6.06    0.45
   2   3   6    4.48    0.36
   2   3   6    4.31    0.56
  -3  -3  -6    1.45    0.23
  -3  -3  -6    1.49    0.24
  -3  -3  -6    0.92    0.34
   3   3   6    1.12    0.19
   3   3   6    1.20    0.34
   3   3   6    0.96    0.26
  -4  -3  -6    0.97    0.25
  -4  -3  -6    0.43    0.35
  -4  -3  -6    0.80    0.21
   4   3   6    0.68    0.42
   4   3   6    0.70    0.29
   4   3   6    0.63    0.22
  -5  -3  -6    1.84    0.39
  -5  -3  -6    2.49    0.54
   5   3   6    1.65    0.35
   5   3   6    2.85    0.53
  -6  -3  -6   -0.50    0.52
  -6  -3  -6    0.58    0.42
   6   3   6    0.37    0.55
  -7  -3  -6    0.49    0.52
  -7  -3  -6    0.26    0.65
   7   3   6    0.57    0.66
   8  -4  -6    0.21    0.84
  -8   4   6   -0.99    0.63
  -8   4   6    0.17    0.38
   7  -4  -6   -0.03    0.70
  -7   4   6   -0.53    0.54
  -7   4   6   -0.55    0.31
   6  -4  -6   -0.07    0.21
   6  -4  -6    0.24    0.56
  -6   4   6   -0.20    0.44
  -6   4   6    0.36    0.24
   5  -4  -6    2.44    0.34
   5  -4  -6    1.28    0.27
   5  -4  -6    2.35    0.55
  -5   4   6    2.05    0.24
  -5   4   6    2.68    0.50
  -5   4   6    1.30    0.25
   4  -4  -6    4.04    0.64
   4  -4  -6    4.40    0.48
  -4   4   6    3.94    0.32
  -4   4   6    3.37    0.38
  -4   4   6    3.59    0.46
   3  -4  -6    2.37    0.51
   3  -4  -6    2.07    0.32
  -3   4   6    2.02    0.17
  -3   4   6    2.39    0.30
  -3   4   6    1.74    0.40
  -3   4   6    1.46    0.21
   2  -4  -6    3.15    0.39
   2  -4  -6    3.92    0.55
  -2   4   6    3.93    0.47
  -2   4   6    2.89    0.35
   1  -4  -6    2.39    0.35
  -1   4   6    2.36    0.51
  -1   4   6    2.76    0.41
   0  -4  -6    5.29    0.51
   0  -4  -6    5.24    0.60
   0   4   6    5.44    0.69
   0   4   6    5.77    0.52
  -1  -4  -6    0.76    0.14
  -1  -4  -6    1.16    0.34
   1   4   6    0.75    0.39
   1   4   6    0.95    0.12
   1   4   6    0.86    0.25
  -2  -4  -6    3.14    0.47
  -2  -4  -6    2.73    0.36
  -2  -4  -6    2.65    0.32
   2   4   6    2.71    0.28
   2   4   6    2.36    0.34
   2   4   6    1.99    0.46
  -3  -4  -6    0.18    0.23
  -3  -4  -6    0.07    0.21
  -3  -4  -6    0.38    0.37
   3   4   6   -0.15    0.18
   3   4   6   -0.19    0.41
   3   4   6    0.37    0.25
  -4  -4  -6    0.69    0.30
  -4  -4  -6    0.58    0.45
   4   4   6   -0.38    0.44
   4   4   6    0.86    0.30
   4   4   6    0.51    0.25
  -5  -4  -6    0.48    0.51
  -5  -4  -6    0.97    0.43
   5   4   6    1.15    0.56
  -6  -4  -6    1.93    0.57
  -6  -4  -6    3.13    0.71
   6   4   6    1.75    0.72
   7  -5  -6    0.70    0.68
  -7   5   6   -0.05    0.59
   6  -5  -6    0.84    0.63
  -6   5   6    0.04    0.25
  -6   5   6    0.44    0.55
   5  -5  -6    1.33    0.35
   5  -5  -6    0.94    0.58
  -5   5   6    0.64    0.47
  -5   5   6    0.93    0.20
   4  -5  -6    2.68    0.62
   4  -5  -6    2.43    0.42
  -4   5   6    2.64    0.27
  -4   5   6    4.80    0.68
   3  -5  -6    0.91    0.34
   3  -5  -6   -0.07    0.48
  -3   5   6    1.07    0.39
   2  -5  -6    0.21    0.33
  -2   5   6    0.39    0.47
  -2   5   6    0.48    0.33
   1  -5  -6    0.03    0.34
  -1   5   6   -0.10    0.43
  -1   5   6    0.14    0.30
   0  -5  -6    3.59    0.52
   0   5   6    3.38    0.50
   0   5   6    3.63    0.59
  -1  -5  -6    1.07    0.34
  -1  -5  -6    1.43    0.20
  -1  -5  -6    0.99    0.41
   1   5   6    1.70    0.32
   1   5   6    1.09    0.14
   1   5   6    1.67    0.49
  -2  -5  -6    1.01    0.31
  -2  -5  -6    1.17    0.23
  -2  -5  -6    0.15    0.42
   2   5   6    0.35    0.44
   2   5   6    0.98    0.30
  -3  -5  -6    1.29    0.49
  -3  -5  -6    0.18    0.29
   3   5   6    0.54    0.32
   3   5   6    0.38    0.46
  -4  -5  -6    1.94    0.42
  -4  -5  -6    2.74    0.61
   4   5   6    1.84    0.55
  -5  -5  -6    2.99    0.78
  -5  -5  -6    2.88    0.49
   5   5   6    2.84    0.75
   6  -6  -6    0.77    0.79
  -6   6   6   -0.48    0.64
   5  -6  -6    0.91    0.39
   5  -6  -6    1.70    0.75
  -5   6   6    1.23    0.59
   4  -6  -6    2.72    0.73
   4  -6  -6    3.30    0.52
  -4   6   6    2.60    0.59
   3  -6  -6    0.35    0.42
  -3   6   6    0.27    0.42
  -3   6   6    0.67    0.62
   2  -6  -6    0.26    0.41
  -2   6   6    0.02    0.38
  -2   6   6   -0.02    0.57
   1  -6  -6    1.10    0.44
  -1   6   6    0.57    0.36
  -1   6   6    1.31    0.59
   0  -6  -6    0.45    0.43
   0   6   6   -0.27    0.31
   0   6   6    0.42    0.54
  -1  -6  -6    0.89    0.47
   1   6   6   -0.12    0.54
   1   6   6    0.59    0.34
  -2  -6  -6    2.86    0.61
   2   6   6    2.85    0.41
   2   6   6    2.51    0.62
  -3  -6  -6   -0.22    0.57
   3   6   6    0.35    0.63
  -4  -6  -6    0.52    0.66
   4   6   6    0.06    0.66
   5  -7  -6   -1.18    0.77
  -5   7   6   -0.04    0.66
   4  -7  -6    0.09    0.51
  -4   7   6    1.54    0.82
  -4   7   6    0.71    0.57
   3  -7  -6    0.72    0.53
  -3   7   6    0.27    0.76
  -3   7   6   -0.29    0.52
   2  -7  -6    1.23    0.55
  -2   7   6    1.17    0.78
  -2   7   6    1.31    0.48
   1  -7  -6    1.06    0.56
  -1   7   6   -0.14    0.42
  -1   7   6    0.94    0.73
   0  -7  -6    0.67    0.57
   0   7   6    0.01    0.42
   0   7   6    1.44    0.65
  -1  -7  -6    0.59    0.62
   1   7   6    0.56    0.65
   1   7   6    0.31    0.39
  -2  -7  -6   -0.11    0.64
   2   7   6   -1.24    0.67
  -3  -7  -6    0.59    0.68
   3   7   6    0.50    0.76
   2  -8  -6   -0.97    0.63
  -2   8   6    0.47    0.58
  -2   8   6    0.92    0.87
   1  -8  -6   -0.57    0.62
  -1   8   6    0.74    0.51
  -1   8   6   -0.98    0.82
   0  -8  -6    0.00    0.68
   0   8   6    0.71    0.83
   2  10  -7   -0.78    0.65
  -2 -10   7   -0.55    0.61
   1  10  -7    0.82    0.65
  -1 -10   7    0.34    0.64
   0  10  -7    0.98    0.63
   0  10  -7    0.82    0.57
   0 -10   7    1.50    0.59
  -1  10  -7   -0.36    0.58
  -1  10  -7   -0.12    0.52
   1 -10   7    1.03    0.61
  -2  10  -7    0.45    0.54
  -2  10  -7    1.26    0.52
   2 -10   7    1.92    0.68
  -3  10  -7   -0.91    0.51
  -3  10  -7    0.63    0.44
   3 -10   7    0.46    0.71
   4   9  -7   -0.84    0.65
   4   9  -7    0.90    0.50
  -4  -9   7    0.32    0.60
   3   9  -7    0.14    0.39
   3   9  -7    0.71    0.66
  -3  -9   7    0.19    0.60
   2   9  -7    0.14    0.32
   2   9  -7    0.53    0.56
  -2  -9   7    1.45    0.57
  -2  -9   7    0.81    0.36
   1   9  -7    3.83    0.49
   1   9  -7    3.73    0.64
  -1  -9   7    2.68    0.54
  -1  -9   7    3.51    0.61
   0   9  -7    0.48    0.45
   0   9  -7   -0.19    0.24
   0   9  -7    0.29    0.50
   0  -9   7   -0.13    0.44
  -1   9  -7   -0.04    0.42
  -1   9  -7   -0.22    0.46
  -1   9  -7    0.18    0.26
   1  -9   7    0.24    0.49
  -2   9  -7    0.23    0.38
  -2   9  -7    0.00    0.43
  -2   9  -7    0.19    0.35
   2  -9   7    0.48    0.51
  -3   9  -7    0.32    0.45
  -3   9  -7    0.00    0.37
   3  -9   7    0.54    0.59
  -4   9  -7    0.30    0.44
  -4   9  -7    0.48    0.31
   4  -9   7    0.71    0.71
  -5   9  -7    0.16    0.48
   5  -9   7    0.07    0.74
   5   8  -7   -0.81    0.64
   5   8  -7    0.06    0.48
  -5  -8   7    0.57    0.62
   4   8  -7    0.62    0.42
   4   8  -7    0.02    0.54
  -4  -8   7    0.31    0.52
   3   8  -7    0.31    0.33
   3   8  -7    0.73    0.50
  -3  -8   7    0.49    0.53
  -3  -8   7    0.76    0.27
   2   8  -7    1.25    0.47
   2   8  -7    1.53    0.31
   2   8  -7    2.02    0.49
  -2  -8   7    1.48    0.39
  -2  -8   7    2.53    0.53
   1   8  -7    9.85    0.82
   1   8  -7    9.38    0.69
   1   8  -7    9.75    0.93
   1   8  -7   10.18    0.79
  -1  -8   7    9.67    0.84
  -1  -8   7   10.30    0.98
   0   8  -7    6.13    0.50
   0   8  -7    7.52    0.81
   0   8  -7    6.06    0.72
   0   8  -7    6.49    0.53
   0  -8   7    6.02    0.72
  -1   8  -7   -0.40    0.32
  -1   8  -7    0.03    0.38
  -1   8  -7    0.21    0.20
  -1   8  -7    0.13    0.24
   1  -8   7    0.57    0.43
  -2   8  -7    0.26    0.30
  -2   8  -7    0.57    0.24
  -2   8  -7    0.60    0.37
   2  -8   7    0.78    0.44
  -3   8  -7    2.28    0.37
  -3   8  -7    2.84    0.41
  -3   8  -7    1.95    0.45
   3  -8   7    2.06    0.57
  -4   8  -7    0.84    0.28
  -4   8  -7    1.36    0.40
   4  -8   7    0.51    0.32
   4  -8   7    0.59    0.61
  -5   8  -7    0.24    0.43
   5  -8   7   -0.51    0.63
  -6   8  -7    1.48    0.51
   6  -8   7    0.07    0.79
   6   7  -7    0.28    0.56
   6   7  -7   -0.75    0.58
  -6  -7   7   -0.19    0.63
   5   7  -7   -0.11    0.48
   5   7  -7    0.36    0.45
  -5  -7   7   -0.01    0.53
   4   7  -7   -0.02    0.32
   4   7  -7    0.85    0.47
  -4  -7   7    0.46    0.44
  -4  -7   7    0.00    0.22
   3   7  -7   -0.33    0.20
   3   7  -7    0.21    0.27
   3   7  -7    0.30    0.39
  -3  -7   7   -0.11    0.30
  -3  -7   7   -0.01    0.24
  -3  -7   7   -0.19    0.41
   2   7  -7   19.04    1.20
   2   7  -7   21.41    1.36
   2   7  -7   19.67    1.19
  -2  -7   7   17.87    1.37
  -2  -7   7   18.01    1.25
   1   7  -7    9.61    0.71
   1   7  -7   11.02    0.68
   1   7  -7    8.08    0.75
   1   7  -7   11.97    0.89
  -1  -7   7   10.53    0.83
  -1  -7   7   11.52    0.92
   0   7  -7    1.21    0.16
   0   7  -7    1.29    0.21
   0   7  -7    0.67    0.32
   0   7  -7    0.89    0.40
   0  -7   7    1.15    0.36
   0  -7   7    0.99    0.39
  -1   7  -7    0.21    0.13
  -1   7  -7   -0.11    0.24
  -1   7  -7   -0.01    0.14
  -1   7  -7   -0.06    0.31
   1  -7   7   -0.36    0.32
  -2   7  -7    0.13    0.17
  -2   7  -7    0.05    0.15
  -2   7  -7    0.07    0.23
  -2   7  -7   -0.21    0.27
   2  -7   7    0.39    0.38
  -3   7  -7    3.83    0.38
  -3   7  -7    4.07    0.45
  -3   7  -7    4.62    0.59
   3  -7   7    4.40    0.57
   3  -7   7    3.75    0.62
  -4   7  -7    0.47    0.31
  -4   7  -7    0.49    0.32
  -4   7  -7    0.32    0.21
   4  -7   7   -0.17    0.45
   4  -7   7   -0.40    0.31
   4  -7   7   -0.34    0.25
  -5   7  -7    1.17    0.21
  -5   7  -7    0.55    0.37
   5  -7   7    2.41    0.64
   5  -7   7    1.20    0.38
  -6   7  -7    1.97    0.49
   6  -7   7    2.63    0.55
   6  -7   7    2.63    0.76
  -7   7  -7    1.15    0.48
   7  -7   7    0.66    0.82
   7   6  -7    0.01    0.64
   7   6  -7   -0.27    0.52
  -7  -6   7   -0.29    0.57
   6   6  -7    0.18    0.50
   6   6  -7    0.69    0.48
  -6  -6   7    0.51    0.52
   5   6  -7   -0.51    0.40
   5   6  -7    0.11    0.41
  -5  -6   7    0.09    0.21
  -5  -6   7   -0.28    0.41
   4   6  -7    2.81    0.38
   4   6  -7    2.18    0.32
   4   6  -7    2.72    0.46
  -4  -6   7    2.47    0.51
  -4  -6   7    2.71    0.36
  -4  -6   7    2.15    0.39
   3   6  -7    0.21    0.19
   3   6  -7    0.35    0.21
   3   6  -7   -0.17    0.30
  -3  -6   7    0.13    0.22
  -3  -6   7    0.09    0.35
  -3  -6   7    0.26    0.26
   2   6  -7    4.48    0.40
   2   6  -7    4.85    0.58
   2   6  -7    4.87    0.44
  -2  -6   7    4.72    0.49
  -2  -6   7    5.58    0.63
  -2  -6   7    4.38    0.45
   1   6  -7    8.02    0.65
   1   6  -7    8.59    0.54
   1   6  -7    8.68    0.71
   1   6  -7    8.41    0.57
  -1  -6   7    8.25    0.71
  -1  -6   7    9.72    0.78
   0   6  -7    9.52    0.81
   0   6  -7   11.55    0.66
   0   6  -7   12.39    0.83
   0  -6   7   12.99    0.89
   0  -6   7   10.35    0.85
  -1   6  -7    2.24    0.29
  -1   6  -7    2.35    0.39
  -1   6  -7    2.25    0.54
   1  -6   7    2.22    0.35
   1  -6   7    1.97    0.38
  -2   6  -7    0.01    0.18
  -2   6  -7    0.04    0.10
  -2   6  -7   -0.30    0.23
  -2   6  -7    0.00    0.12
   2  -6   7   -0.36    0.24
   2  -6   7    0.24    0.34
  -3   6  -7    0.36    0.18
  -3   6  -7    0.13    0.15
  -3   6  -7    0.40    0.25
   3  -6   7    0.18    0.37
   3  -6   7    0.02    0.19
  -4   6  -7    0.71    0.19
  -4   6  -7    0.58    0.29
  -4   6  -7    0.68    0.21
   4  -6   7    0.43    0.42
   4  -6   7    0.68    0.27
   4  -6   7    0.56    0.23
  -5   6  -7    0.64    0.18
  -5   6  -7    0.28    0.28
  -5   6  -7    1.04    0.32
   5  -6   7    1.85    0.54
   5  -6   7    0.41    0.36
  -6   6  -7    1.59    0.40
   6  -6   7    2.37    0.71
   6  -6   7    1.40    0.47
  -7   6  -7   -0.01    0.42
   7  -6   7    0.14    0.77
   7  -6   7   -0.38    0.52
   7   5  -7    1.32    0.60
   7   5  -7   -0.06    0.46
  -7  -5   7    0.49    0.58
   6   5  -7    0.78    0.45
   6   5  -7    0.06    0.42
  -6  -5   7    0.61    0.26
  -6  -5   7    1.17    0.49
   5   5  -7    4.83    0.64
   5   5  -7    2.91    0.39
   5   5  -7    2.87    0.46
  -5  -5   7    3.99    0.56
  -5  -5   7    3.84    0.38
   4   5  -7    6.05    0.54
   4   5  -7    7.00    0.68
   4   5  -7    8.03    0.62
  -4  -5   7    7.31    0.56
  -4  -5   7    6.60    0.62
  -4  -5   7    8.67    0.76
   3   5  -7    0.36    0.18
   3   5  -7   -0.02    0.26
   3   5  -7    0.21    0.17
  -3  -5   7    0.25    0.20
  -3  -5   7    0.34    0.32
   2   5  -7   27.70    1.72
   2   5  -7   28.25    1.66
   2   5  -7   26.91    1.63
  -2  -5   7   27.85    1.70
  -2  -5   7   29.30    1.76
   1   5  -7    4.15    0.28
   1   5  -7    4.75    0.41
   1   5  -7    4.43    0.45
   1   5  -7    4.32    0.30
   1   5  -7    4.09    0.45
  -1  -5   7    5.19    0.51
  -1  -5   7    3.23    0.49
  -1  -5   7    4.32    0.44
   0   5  -7    2.78    0.34
   0   5  -7    2.77    0.38
   0   5  -7    2.70    0.36
   0  -5   7    3.11    0.36
   0  -5   7    3.18    0.44
   0  -5   7    3.19    0.43
  -1   5  -7   23.06    1.44
  -1   5  -7   23.07    1.38
  -1   5  -7   21.66    1.44
  -1   5  -7   22.87    1.45
   1  -5   7   22.74    1.46
   1  -5   7   22.72    1.50
  -2   5  -7   12.60    0.82
  -2   5  -7   12.71    0.74
  -2   5  -7   12.35    0.88
   2  -5   7   12.93    0.95
   2  -5   7   12.41    0.87
  -3   5  -7    9.64    0.62
  -3   5  -7    9.57    0.72
  -3   5  -7    9.38    0.60
   3  -5   7    8.85    0.63
   3  -5   7    8.59    0.85
   3  -5   7    9.37    0.70
  -4   5  -7    3.09    0.45
  -4   5  -7    3.44    0.47
  -4   5  -7    3.27    0.32
   4  -5   7    3.03    0.39
   4  -5   7    4.71    0.62
   4  -5   7    3.29    0.44
  -5   5  -7    0.31    0.25
  -5   5  -7    1.00    0.32
   5  -5   7    0.99    0.24
   5  -5   7    0.94    0.33
   5  -5   7    1.15    0.47
  -6   5  -7    0.39    0.19
  -6   5  -7    0.15    0.32
   6  -5   7    0.49    0.53
   6  -5   7    0.87    0.39
  -7   5  -7    1.68    0.43
   7  -5   7    2.16    0.75
   7  -5   7    2.37    0.55
  -8   5  -7    1.06    0.52
   8  -5   7    1.80    0.66
   8  -5   7    1.92    0.89
   8   4  -7   -0.31    0.67
   8   4  -7    0.26    0.50
  -8  -4   7    0.35    0.65
   7   4  -7    0.54    0.54
   7   4  -7    0.03    0.42
  -7  -4   7    1.03    0.55
   6   4  -7    3.04    0.46
   6   4  -7    2.30    0.50
  -6  -4   7    2.81    0.54
  -6  -4   7    2.57    0.38
   5   4  -7    0.18    0.30
   5   4  -7   -0.22    0.21
   5   4  -7   -0.40    0.30
  -5  -4   7   -0.31    0.34
  -5  -4   7    0.02    0.20
   4   4  -7   -0.24    0.21
   4   4  -7   -0.35    0.18
   4   4  -7   -0.15    0.23
  -4  -4   7    0.21    0.19
  -4  -4   7   -0.13    0.28
   3   4  -7   -0.28    0.16
   3   4  -7   -0.23    0.16
   3   4  -7   -0.06    0.19
   3   4  -7   -0.17    0.18
  -3  -4   7    0.19    0.25
  -3  -4   7    0.06    0.18
  -3  -4   7    0.24    0.17
   2   4  -7    3.19    0.27
   2   4  -7    2.57    0.31
   2   4  -7    2.89    0.36
   2   4  -7    2.84    0.37
  -2  -4   7    3.23    0.27
  -2  -4   7    3.28    0.38
  -2  -4   7    2.79    0.34
  -2  -4   7    2.83    0.41
   1   4  -7    6.33    0.49
   1   4  -7    5.31    0.34
   1   4  -7    5.42    0.42
   1   4  -7    5.28    0.45
  -1  -4   7    5.29    0.52
  -1  -4   7    5.15    0.50
  -1  -4   7    5.90    0.47
   0   4  -7    1.58    0.24
   0   4  -7    1.24    0.25
   0   4  -7    0.83    0.19
   0  -4   7    0.97    0.21
   0  -4   7    1.22    0.23
   0  -4   7    1.70    0.27
  -1   4  -7    0.47    0.22
  -1   4  -7    0.16    0.20
  -1   4  -7   -0.11    0.17
  -1   4  -7    0.01    0.12
   1  -4   7   -0.15    0.22
   1  -4   7   -0.12    0.17
  -2   4  -7   12.56    0.80
  -2   4  -7   12.86    0.86
  -2   4  -7   12.75    0.88
  -2   4  -7   12.95    0.75
  -2   4  -7   11.30    0.88
   2  -4   7   13.80    0.91
   2  -4   7   12.99    0.75
   2  -4   7   12.64    0.84
  -3   4  -7   31.73    1.99
  -3   4  -7   34.03    1.94
   3  -4   7   34.18    2.08
   3  -4   7   33.15    1.97
   3  -4   7   32.95    1.93
  -4   4  -7   23.56    1.40
  -4   4  -7   21.95    1.35
  -4   4  -7   22.52    1.32
   4  -4   7   22.85    1.36
   4  -4   7   23.00    1.52
   4  -4   7   19.35    1.36
  -5   4  -7    0.68    0.25
  -5   4  -7    0.99    0.28
  -5   4  -7    0.89    0.19
   5  -4   7    0.59    0.44
   5  -4   7    1.26    0.24
   5  -4   7    0.97    0.31
  -6   4  -7    6.71    0.65
  -6   4  -7    7.47    0.56
   6  -4   7    6.82    0.76
   6  -4   7    8.94    0.96
  -7   4  -7    0.93    0.40
   7  -4   7    2.44    0.60
   7  -4   7    0.84    0.62
  -8   4  -7    0.10    0.42
   8  -4   7   -0.16    0.76
   8  -4   7   -0.63    0.65
   8   3  -7    1.04    0.44
   8   3  -7    0.71    0.69
  -8  -3   7    1.41    0.58
   7   3  -7    1.56    0.41
   7   3  -7    2.20    0.60
  -7  -3   7    2.38    0.52
  -7  -3   7    2.52    0.36
   6   3  -7    2.04    0.36
   6   3  -7    2.10    0.39
   6   3  -7    2.62    0.47
  -6  -3   7    2.27    0.43
  -6  -3   7    1.94    0.33
   5   3  -7    6.62    0.57
   5   3  -7    7.81    0.66
   5   3  -7    7.20    0.63
  -5  -3   7    6.34    0.58
  -5  -3   7    6.26    0.70
  -5  -3   7    7.01    0.56
   4   3  -7    7.55    0.59
   4   3  -7    6.38    0.58
   4   3  -7    7.11    0.54
   4   3  -7    7.74    0.57
  -4  -3   7    8.13    0.57
  -4  -3   7    7.54    0.57
  -4  -3   7    7.96    0.69
  -4  -3   7    7.70    0.65
   3   3  -7    7.00    0.53
   3   3  -7    7.61    0.54
   3   3  -7    7.33    0.52
   3   3  -7    7.12    0.55
  -3  -3   7    6.77    0.62
  -3  -3   7    7.15    0.60
  -3  -3   7    6.68    0.54
  -3  -3   7    7.51    0.54
   2   3  -7    1.57    0.19
   2   3  -7    1.64    0.21
   2   3  -7    1.54    0.22
   2   3  -7    1.17    0.20
  -2  -3   7    1.38    0.21
  -2  -3   7    1.12    0.22
  -2  -3   7    1.84    0.27
  -2  -3   7    1.51    0.19
   1   3  -7    1.11    0.11
   1   3  -7    0.66    0.15
   1   3  -7    0.84    0.19
   1   3  -7    0.63    0.16
  -1  -3   7    0.94    0.20
  -1  -3   7    0.69    0.19
  -1  -3   7    0.99    0.21
  -1  -3   7    0.83    0.11
   0   3  -7   12.77    0.88
   0   3  -7   12.73    0.83
   0   3  -7   13.18    0.86
   0   3  -7   14.77    0.88
   0  -3   7   12.08    0.85
   0  -3   7   14.62    0.88
  -1   3  -7   20.81    1.26
  -1   3  -7   20.33    1.30
  -1   3  -7   22.79    1.30
  -1   3  -7   21.47    1.29
   1  -3   7   20.30    1.28
   1  -3   7   20.84    1.32
  -2   3  -7    1.47    0.20
  -2   3  -7    1.55    0.22
  -2   3  -7    1.72    0.24
  -2   3  -7    1.51    0.27
  -2   3  -7    1.29    0.25
   2  -3   7    1.38    0.20
   2  -3   7    1.79    0.17
   2  -3   7    2.01    0.31
  -3   3  -7   11.01    0.71
  -3   3  -7   11.17    0.75
  -3   3  -7   12.08    0.73
  -3   3  -7   10.38    0.79
   3  -3   7   10.56    0.79
   3  -3   7   11.35    0.74
   3  -3   7   10.60    0.85
   3  -3   7   11.69    0.72
  -4   3  -7    7.60    0.55
  -4   3  -7    8.29    0.60
  -4   3  -7    8.19    0.60
   4  -3   7    7.94    0.75
   4  -3   7    7.52    0.59
  -5   3  -7    8.95    0.74
  -5   3  -7   10.27    0.68
  -5   3  -7    9.68    0.71
   5  -3   7    9.74    0.75
   5  -3   7    8.98    0.92
   5  -3   7   10.10    0.68
  -6   3  -7    3.00    0.41
  -6   3  -7    2.53    0.32
   6  -3   7    2.21    0.28
   6  -3   7    3.39    0.48
   6  -3   7    2.36    0.60
  -7   3  -7    0.75    0.39
  -7   3  -7    0.97    0.43
   7  -3   7    1.03    0.59
   7  -3   7    1.01    0.53
  -8   3  -7    1.04    0.45
   8  -3   7    0.81    0.65
   8  -3   7   -0.12    0.73
   8   2  -7    0.69    0.65
   8   2  -7    0.12    0.31
  -8  -2   7    0.15    0.36
  -8  -2   7   -0.08    0.52
   7   2  -7    0.21    0.49
   7   2  -7    0.07    0.27
  -7  -2   7    1.03    0.44
  -7  -2   7    0.41    0.33
   6   2  -7    3.42    0.46
   6   2  -7    4.34    0.57
   6   2  -7    4.98    0.64
  -6  -2   7    3.56    0.49
  -6  -2   7    3.33    0.49
   5   2  -7    3.29    0.39
   5   2  -7    3.11    0.37
   5   2  -7    3.91    0.50
  -5  -2   7    3.68    0.66
  -5  -2   7    3.60    0.42
  -5  -2   7    3.55    0.41
  -5  -2   7    2.57    0.39
   4   2  -7    4.04    0.39
   4   2  -7    4.08    0.40
   4   2  -7    4.27    0.36
   4   2  -7    4.24    0.45
  -4  -2   7    4.38    0.42
  -4  -2   7    4.50    0.39
  -4  -2   7    3.56    0.46
  -4  -2   7    3.82    0.47
   3   2  -7    0.61    0.16
   3   2  -7    0.45    0.17
   3   2  -7    0.54    0.15
   3   2  -7    0.60    0.20
  -3  -2   7    0.67    0.18
  -3  -2   7    0.68    0.21
  -3  -2   7    0.67    0.16
  -3  -2   7    1.15    0.21
   2   2  -7   20.71    1.22
   2   2  -7   21.21    1.22
   2   2  -7   20.37    1.23
   2   2  -7   19.85    1.22
  -2  -2   7   18.97    1.24
  -2  -2   7   19.78    1.20
  -2  -2   7   19.18    1.24
  -2  -2   7   21.82    1.24
   1   2  -7   27.39    1.67
   1   2  -7   25.91    1.69
   1   2  -7   27.34    1.73
   1   2  -7   29.67    1.69
  -1  -2   7   33.66    1.72
  -1  -2   7   27.33    1.71
  -1  -2   7   30.59    1.72
  -1  -2   7   28.69    1.66
   0   2  -7   10.85    0.69
   0   2  -7   11.22    0.72
   0   2  -7   10.92    0.70
   0  -2   7   10.97    0.71
   0  -2   7   10.77    0.73
   0  -2   7   10.97    0.66
   0  -2   7   10.51    0.66
  -1   2  -7    0.44    0.12
  -1   2  -7    0.41    0.16
  -1   2  -7    0.21    0.13
  -1   2  -7    0.77    0.17
   1  -2   7    0.50    0.10
   1  -2   7    0.49    0.13
   1  -2   7    0.22    0.12
   1  -2   7    0.28    0.16
  -2   2  -7   19.73    1.26
  -2   2  -7   18.25    1.22
  -2   2  -7   20.95    1.22
  -2   2  -7   20.95    1.23
   2  -2   7   19.27    1.26
   2  -2   7   21.72    1.21
   2  -2   7   21.22    1.31
   2  -2   7   20.94    1.23
  -3   2  -7   55.85    3.32
  -3   2  -7   57.65    3.29
  -3   2  -7   60.83    3.29
  -3   2  -7   57.72    3.33
   3  -2   7   57.31    3.29
   3  -2   7   58.00    3.33
   3  -2   7   53.95    3.28
   3  -2   7   55.22    3.36
  -4   2  -7   55.97    3.45
  -4   2  -7   59.44    3.48
  -4   2  -7   62.11    3.45
   4  -2   7   61.23    3.47
   4  -2   7   56.23    3.44
   4  -2   7   62.38    3.55
   4  -2   7   61.64    3.52
  -5   2  -7    5.27    0.60
  -5   2  -7    5.61    0.53
  -5   2  -7    5.58    0.52
   5  -2   7    5.05    0.55
   5  -2   7    5.91    0.73
   5  -2   7    5.61    0.45
  -6   2  -7    1.96    0.37
  -6   2  -7    2.26    0.34
   6  -2   7    3.11    0.45
   6  -2   7    2.40    0.53
   6  -2   7    2.20    0.32
  -7   2  -7    1.39    0.36
  -7   2  -7    0.77    0.34
   7  -2   7    1.93    0.60
   7  -2   7    1.77    0.50
  -8   2  -7    2.78    0.49
   8  -2   7    3.06    0.69
   8  -2   7    1.93    0.75
   8   1  -7    0.60    0.64
   8   1  -7    0.97    0.28
  -8  -1   7    1.34    0.45
  -8  -1   7    1.27    0.52
   7   1  -7   -0.19    0.23
   7   1  -7   -0.10    0.48
  -7  -1   7    0.13    0.38
  -7  -1   7    0.09    0.33
  -7  -1   7    0.36    0.51
   6   1  -7    1.51    0.24
   6   1  -7    1.72    0.46
  -6  -1   7    1.17    0.31
  -6  -1   7    0.93    0.35
  -6  -1   7    1.52    0.38
   5   1  -7    2.36    0.34
   5   1  -7    2.90    0.32
   5   1  -7    2.21    0.26
   5   1  -7    2.35    0.40
  -5  -1   7    2.28    0.33
  -5  -1   7    2.05    0.34
  -5  -1   7    2.68    0.35
   4   1  -7    1.46    0.32
   4   1  -7    0.90    0.24
   4   1  -7    1.01    0.19
   4   1  -7    1.31    0.17
  -4  -1   7    1.76    0.25
  -4  -1   7    1.02    0.23
  -4  -1   7    1.43    0.23
  -4  -1   7    1.08    0.24
   3   1  -7   12.87    0.81
   3   1  -7   13.96    0.83
   3   1  -7   14.67    0.90
   3   1  -7   13.33    0.88
  -3  -1   7   13.20    0.86
  -3  -1   7   11.66    0.86
  -3  -1   7   14.18    0.86
  -3  -1   7   13.33    0.87
   2   1  -7    0.65    0.13
   2   1  -7    0.48    0.19
   2   1  -7    0.54    0.16
  -2  -1   7    1.10    0.20
  -2  -1   7    0.62    0.16
  -2  -1   7    0.67    0.16
   1   1  -7    4.73    0.36
   1   1  -7    4.82    0.38
   1   1  -7    4.41    0.39
  -1  -1   7    5.25    0.41
  -1  -1   7    5.25    0.38
  -1  -1   7    4.98    0.38
  -1  -1   7    5.09    0.38
   0   1  -7   37.08    2.01
   0   1  -7   32.80    2.02
   0   1  -7   35.97    2.00
   0   1  -7   34.79    2.00
   0  -1   7   34.82    2.01
   0  -1   7   32.24    2.00
   0  -1   7   33.31    2.03
  -1   1  -7    2.91    0.30
  -1   1  -7    2.96    0.27
  -1   1  -7    3.52    0.32
   1  -1   7    3.94    0.29
   1  -1   7    2.81    0.32
   1  -1   7    2.87    0.29
   1  -1   7    3.44    0.33
  -2   1  -7   26.08    1.53
  -2   1  -7   24.98    1.51
  -2   1  -7   24.83    1.54
   2  -1   7   25.19    1.52
   2  -1   7   25.54    1.58
   2  -1   7   27.19    1.54
   2  -1   7   26.30    1.53
  -3   1  -7   34.51    2.02
  -3   1  -7   35.97    2.08
  -3   1  -7   36.38    2.07
  -3   1  -7   30.56    2.04
   3  -1   7   31.84    2.05
   3  -1   7   40.59    2.12
   3  -1   7   36.62    2.06
   3  -1   7   32.29    2.03
  -4   1  -7    7.48    0.57
  -4   1  -7    5.41    0.55
  -4   1  -7    6.70    0.59
   4  -1   7    5.88    0.57
   4  -1   7    6.63    0.59
   4  -1   7    6.38    0.64
   4  -1   7    8.40    0.50
  -5   1  -7    7.96    0.62
  -5   1  -7    8.86    0.67
   5  -1   7    9.29    0.81
   5  -1   7    7.72    0.68
   5  -1   7    7.50    0.57
  -6   1  -7    3.51    0.42
  -6   1  -7    3.73    0.47
   6  -1   7    4.52    0.52
   6  -1   7    4.16    0.60
   6  -1   7    3.58    0.51
  -7   1  -7    0.41    0.30
  -7   1  -7    0.47    0.38
   7  -1   7    1.03    0.48
   7  -1   7    0.48    0.49
  -8   1  -7    0.70    0.40
   8  -1   7   -0.46    0.61
   8  -1   7   -0.14    0.55
   8   0  -7    4.39    0.83
  -8   0   7    3.80    0.60
  -8   0   7    4.39    0.63
   7   0  -7    2.53    0.31
   7   0  -7    2.75    0.61
  -7   0   7    2.09    0.40
  -7   0   7    2.36    0.46
   6   0  -7    6.83    0.54
   6   0  -7    5.80    0.75
  -6   0   7    6.71    0.66
  -6   0   7    7.19    0.68
  -6   0   7    6.17    0.63
   5   0  -7    0.09    0.32
   5   0  -7    0.22    0.17
  -5   0   7   -0.02    0.22
  -5   0   7    0.53    0.24
  -5   0   7    0.49    0.24
   4   0  -7    3.67    0.41
   4   0  -7    3.37    0.32
   4   0  -7    3.46    0.47
   4   0  -7    3.01    0.29
  -4   0   7    3.38    0.40
  -4   0   7    2.96    0.36
  -4   0   7    2.54    0.35
  -4   0   7    3.89    0.38
   3   0  -7    8.46    0.59
   3   0  -7    9.53    0.66
   3   0  -7   10.10    0.70
   3   0  -7    9.15    0.56
  -3   0   7    9.05    0.61
  -3   0   7   10.57    0.68
  -3   0   7    8.13    0.62
  -3   0   7    8.43    0.64
   2   0  -7    3.94    0.35
   2   0  -7    3.82    0.26
   2   0  -7    3.77    0.38
   2   0  -7    3.31    0.31
  -2   0   7    3.86    0.38
  -2   0   7    3.84    0.30
  -2   0   7    3.70    0.37
  -2   0   7    3.77    0.34
   1   0  -7    2.16    0.19
   1   0  -7    2.01    0.19
   1   0  -7    2.27    0.30
   1   0  -7    2.36    0.25
   1   0  -7    2.73    0.28
  -1   0   7    2.10    0.30
  -1   0   7    2.57    0.30
  -1   0   7    2.30    0.24
   0   0  -7   13.50    0.85
   0   0  -7   14.26    0.85
   0   0  -7   13.33    0.81
   0   0  -7   13.42    0.79
   0   0   7   12.68    0.86
   0   0   7   14.03    0.90
   0   0   7   13.70    0.84
   0   0   7   13.09    0.87
  -1   0  -7   12.41    0.82
  -1   0  -7   11.84    0.76
  -1   0  -7   12.99    0.82
   1   0   7   12.68    0.83
   1   0   7   13.07    0.85
   1   0   7   13.48    0.84
   1   0   7   13.63    0.81
  -2   0  -7    1.13    0.21
  -2   0  -7    1.33    0.18
  -2   0  -7    1.18    0.25
  -2   0  -7    1.11    0.19
   2   0   7    1.37    0.24
   2   0   7    1.31    0.24
   2   0   7    0.85    0.16
  -3   0  -7   20.96    1.25
  -3   0  -7   20.08    1.28
  -3   0  -7   18.71    1.22
  -3   0  -7   20.68    1.19
   3   0   7   18.90    1.22
   3   0   7   20.32    1.26
   3   0   7   18.85    1.19
   3   0   7   20.28    1.27
  -4   0  -7   35.38    2.31
  -4   0  -7   41.32    2.23
  -4   0  -7   40.06    2.29
  -4   0  -7   37.06    2.25
   4   0   7   38.88    2.26
   4   0   7   35.79    2.22
   4   0   7   38.03    2.29
  -5   0  -7    4.12    0.61
  -5   0  -7    5.59    0.61
  -5   0  -7    5.04    0.47
   5   0   7    4.47    0.65
   5   0   7    5.49    0.66
  -6   0  -7    0.48    0.41
  -6   0  -7    0.92    0.27
   6   0   7   -0.11    0.37
   6   0   7    0.31    0.45
  -7   0  -7    0.67    0.45
  -7   0  -7    0.59    0.33
   7   0   7   -0.17    0.50
   7   0   7    0.13    0.49
  -8   0  -7    1.03    0.46
   8   0   7    1.52    0.64
   8  -1  -7   -0.42    0.70
  -8   1   7    0.43    0.51
  -8   1   7    0.35    0.46
   7  -1  -7    3.54    0.69
   7  -1  -7    2.55    0.31
  -7   1   7    2.57    0.43
  -7   1   7    1.84    0.48
   6  -1  -7    2.40    0.54
  -6   1   7    2.15    0.34
   5  -1  -7   14.04    0.89
   5  -1  -7   14.84    1.09
   5  -1  -7   14.18    0.88
  -5   1   7   11.97    0.92
  -5   1   7   14.68    1.00
  -5   1   7   13.84    0.91
   4  -1  -7    0.59    0.18
   4  -1  -7    0.77    0.32
  -4   1   7    0.95    0.20
  -4   1   7    0.60    0.19
  -4   1   7    0.34    0.23
   3  -1  -7    1.13    0.16
   3  -1  -7    1.79    0.34
   3  -1  -7    1.13    0.24
  -3   1   7    0.89    0.25
  -3   1   7    1.35    0.18
  -3   1   7    1.64    0.28
  -3   1   7    1.67    0.21
   2  -1  -7    0.12    0.22
   2  -1  -7    0.23    0.17
  -2   1   7   -0.01    0.17
  -2   1   7    0.21    0.13
  -2   1   7   -0.13    0.20
  -2   1   7    0.20    0.08
   1  -1  -7   75.37    4.43
   1  -1  -7   87.51    4.42
  -1   1   7   71.41    4.42
  -1   1   7   72.46    4.44
  -1   1   7   76.16    4.44
  -1   1   7   78.42    4.41
   0  -1  -7   79.61    4.45
   0  -1  -7   78.38    4.46
   0   1   7   76.73    4.46
   0   1   7   74.51    4.48
   0   1   7   79.98    4.49
   0   1   7   76.21    4.43
  -1  -1  -7   -0.17    0.13
  -1  -1  -7    0.01    0.15
   1   1   7    0.16    0.20
   1   1   7   -0.15    0.11
   1   1   7   -0.02    0.18
   1   1   7   -0.31    0.24
   1   1   7   -0.05    0.11
  -2  -1  -7    3.23    0.42
  -2  -1  -7    3.59    0.40
  -2  -1  -7    3.81    0.27
  -2  -1  -7    3.78    0.34
   2   1   7    2.98    0.31
   2   1   7    3.22    0.31
   2   1   7    3.56    0.46
   2   1   7    3.25    0.41
  -3  -1  -7   16.52    1.06
  -3  -1  -7   17.66    1.16
  -3  -1  -7   16.11    1.11
  -3  -1  -7   17.02    1.01
   3   1   7   16.73    1.04
   3   1   7   15.90    1.11
   3   1   7   17.81    1.14
  -4  -1  -7   17.42    1.18
  -4  -1  -7   17.70    1.06
   4   1   7   16.81    1.09
   4   1   7   16.04    1.15
   4   1   7   17.45    1.19
  -5  -1  -7    0.20    0.34
  -5  -1  -7    0.68    0.23
   5   1   7    0.41    0.37
   5   1   7   -0.52    0.37
  -6  -1  -7    1.86    0.36
  -6  -1  -7    1.51    0.47
   6   1   7    1.58    0.49
   6   1   7    1.17    0.48
  -7  -1  -7    2.07    0.45
  -7  -1  -7    1.17    0.55
   7   1   7    0.41    0.54
   7   1   7    1.79    0.53
   8  -2  -7    0.60    0.75
  -8   2   7    1.04    0.47
  -8   2   7    1.30    0.60
   7  -2  -7    0.97    0.60
   7  -2  -7    0.76    0.28
  -7   2   7    0.82    0.49
  -7   2   7    0.59    0.36
   6  -2  -7    0.47    0.49
   6  -2  -7   -0.06    0.20
   6  -2  -7    0.68    0.22
  -6   2   7   -0.02    0.25
  -6   2   7    0.55    0.25
  -6   2   7    0.40    0.39
   5  -2  -7    6.96    0.51
   5  -2  -7    6.80    0.59
   5  -2  -7    8.52    0.82
  -5   2   7    7.13    0.69
  -5   2   7    7.85    0.56
  -5   2   7    6.43    0.58
   4  -2  -7    6.02    0.72
   4  -2  -7    5.69    0.51
   4  -2  -7    5.73    0.42
  -4   2   7    6.52    0.46
  -4   2   7    6.46    0.53
  -4   2   7    6.15    0.61
   3  -2  -7   12.50    0.94
   3  -2  -7   12.13    0.72
   3  -2  -7   11.21    0.80
  -3   2   7   11.92    0.78
  -3   2   7   12.80    0.85
  -3   2   7   12.44    0.73
   2  -2  -7    0.13    0.16
   2  -2  -7   -0.34    0.27
  -2   2   7   -0.07    0.21
  -2   2   7    0.18    0.25
  -2   2   7    0.07    0.14
   1  -2  -7   11.18    0.76
   1  -2  -7   10.85    0.77
  -1   2   7   10.12    0.72
  -1   2   7   12.55    0.85
  -1   2   7   11.02    0.81
  -1   2   7   12.18    0.77
   0  -2  -7    1.08    0.23
   0  -2  -7    0.90    0.20
   0   2   7    1.31    0.19
   0   2   7    1.25    0.23
   0   2   7    1.39    0.30
   0   2   7    1.38    0.31
  -1  -2  -7   12.20    0.83
  -1  -2  -7   13.68    0.88
   1   2   7   11.71    0.91
   1   2   7   12.10    0.90
   1   2   7   13.00    0.85
   1   2   7   12.66    0.75
  -2  -2  -7    7.16    0.52
  -2  -2  -7    6.18    0.60
  -2  -2  -7    6.16    0.46
   2   2   7    6.44    0.63
   2   2   7    6.88    0.47
   2   2   7    7.51    0.57
  -3  -2  -7    0.37    0.27
  -3  -2  -7    0.45    0.17
   3   2   7    0.08    0.24
   3   2   7    0.00    0.17
   3   2   7    0.51    0.33
  -4  -2  -7   -0.16    0.19
  -4  -2  -7    0.10    0.33
  -4  -2  -7   -0.02    0.18
   4   2   7    0.66    0.31
   4   2   7    0.53    0.21
   4   2   7   -0.11    0.38
  -5  -2  -7    0.81    0.42
  -5  -2  -7    0.44    0.23
  -5  -2  -7    0.53    0.31
   5   2   7    0.15    0.42
   5   2   7    0.14    0.36
  -6  -2  -7    1.30    0.54
  -6  -2  -7    2.54    0.46
   6   2   7    2.29    0.46
   6   2   7    2.09    0.55
  -7  -2  -7    1.07    0.64
  -7  -2  -7    0.44    0.45
   7   2   7    1.04    0.67
   8  -3  -7    1.21    0.77
  -8   3   7    1.20    0.44
  -8   3   7    0.70    0.65
   7  -3  -7    0.18    0.66
  -7   3   7    1.00    0.36
  -7   3   7    0.41    0.51
   6  -3  -7    1.68    0.61
   6  -3  -7    1.46    0.29
  -6   3   7    0.32    0.42
  -6   3   7    1.14    0.29
   5  -3  -7    0.42    0.24
   5  -3  -7    0.79    0.48
   5  -3  -7    1.11    0.20
  -5   3   7    0.81    0.22
  -5   3   7    0.34    0.24
  -5   3   7    1.27    0.42
   4  -3  -7   -0.36    0.38
   4  -3  -7    0.06    0.14
   4  -3  -7   -0.06    0.20
  -4   3   7   -0.12    0.33
  -4   3   7    0.24    0.20
  -4   3   7   -0.08    0.16
   3  -3  -7    4.07    0.47
   3  -3  -7    4.84    0.62
  -3   3   7    3.74    0.50
  -3   3   7    4.86    0.50
   2  -3  -7    0.95    0.34
   2  -3  -7    0.38    0.24
  -2   3   7    0.13    0.27
  -2   3   7    0.03    0.17
   1  -3  -7   29.38    1.86
  -1   3   7   30.51    1.94
  -1   3   7   31.55    1.86
   0  -3  -7   16.35    1.03
   0  -3  -7   13.39    0.99
   0   3   7   15.09    1.09
   0   3   7   15.14    0.99
  -1  -3  -7    3.39    0.40
  -1  -3  -7    3.55    0.51
   1   3   7    3.71    0.43
   1   3   7    3.09    0.47
  -2  -3  -7    0.34    0.23
  -2  -3  -7    0.87    0.17
  -2  -3  -7    1.39    0.37
   2   3   7    0.36    0.37
   2   3   7    0.56    0.26
   2   3   7    0.71    0.34
  -3  -3  -7    5.74    0.50
  -3  -3  -7    6.49    0.69
  -3  -3  -7    5.78    0.50
   3   3   7    6.26    0.70
   3   3   7    5.65    0.46
   3   3   7    5.79    0.57
  -4  -3  -7    4.20    0.53
  -4  -3  -7    4.66    0.47
  -4  -3  -7    6.41    0.80
   4   3   7    4.71    0.47
   4   3   7    6.25    0.81
   4   3   7    5.55    0.60
  -5  -3  -7    0.52    0.36
  -5  -3  -7    0.15    0.49
   5   3   7    0.46    0.52
   5   3   7   -0.17    0.34
  -6  -3  -7   -0.09    0.45
  -6  -3  -7    0.85    0.59
   6   3   7   -0.58    0.67
   7  -4  -7    1.25    0.78
  -7   4   7    0.51    0.63
   6  -4  -7    0.81    0.28
   6  -4  -7    0.32    0.58
  -6   4   7    0.67    0.25
  -6   4   7    0.48    0.49
   5  -4  -7    0.25    0.30
   5  -4  -7    0.06    0.51
  -5   4   7    0.04    0.32
  -5   4   7    0.22    0.20
  -5   4   7    0.62    0.41
   4  -4  -7    3.57    0.67
   4  -4  -7    3.84    0.45
  -4   4   7    3.24    0.30
  -4   4   7    3.69    0.34
  -4   4   7    3.57    0.51
   3  -4  -7    0.68    0.30
   3  -4  -7    0.83    0.45
  -3   4   7    0.84    0.31
   2  -4  -7   -0.14    0.29
  -2   4   7    0.23    0.29
  -2   4   7   -0.40    0.43
   1  -4  -7    5.00    0.62
  -1   4   7    5.33    0.75
  -1   4   7    5.12    0.57
   0  -4  -7    0.31    0.31
   0   4   7    0.43    0.28
   0   4   7    0.07    0.42
  -1  -4  -7   -0.07    0.32
   1   4   7   -0.19    0.26
   1   4   7    0.07    0.41
  -2  -4  -7    1.16    0.21
  -2  -4  -7    1.00    0.41
  -2  -4  -7    1.07    0.31
   2   4   7    1.00    0.17
   2   4   7    0.73    0.44
   2   4   7    1.93    0.34
  -3  -4  -7    3.29    0.35
  -3  -4  -7    3.82    0.57
  -3  -4  -7    2.59    0.39
   3   4   7    2.88    0.41
   3   4   7    2.47    0.56
  -4  -4  -7    2.33    0.38
  -4  -4  -7    1.66    0.52
   4   4   7    1.92    0.37
   4   4   7    2.04    0.63
  -5  -4  -7    0.97    0.58
  -5  -4  -7   -0.09    0.39
   5   4   7   -0.41    0.55
  -6  -4  -7   -0.40    0.46
  -6  -4  -7    0.25    0.70
   6   4   7   -0.26    0.69
   6  -5  -7   -0.30    0.73
  -6   5   7   -0.66    0.55
   5  -5  -7    0.14    0.35
   5  -5  -7    0.85    0.66
  -5   5   7   -0.57    0.47
   4  -5  -7    0.22    0.39
   4  -5  -7    0.40    0.54
  -4   5   7    0.56    0.47
   3  -5  -7    0.40    0.53
   3  -5  -7   -0.08    0.36
  -3   5   7    0.17    0.41
   2  -5  -7   -0.21    0.35
  -2   5   7    0.06    0.53
  -2   5   7    0.00    0.35
   1  -5  -7    1.36    0.42
  -1   5   7    1.36    0.56
  -1   5   7    1.08    0.36
   0  -5  -7   -0.30    0.40
   0   5   7    0.48    0.33
   0   5   7   -0.21    0.44
  -1  -5  -7   -0.04    0.38
   1   5   7    0.04    0.33
   1   5   7   -0.45    0.45
  -2  -5  -7    0.04    0.49
  -2  -5  -7    0.08    0.25
   2   5   7    0.53    0.49
   2   5   7    0.41    0.33
  -3  -5  -7   -0.45    0.47
   3   5   7   -0.74    0.56
   3   5   7   -0.12    0.32
  -4  -5  -7    1.21    0.62
   4   5   7   -0.18    0.58
  -5  -5  -7    1.04    0.71
   5   5   7    1.67    0.65
   5  -6  -7    0.43    0.49
   5  -6  -7    1.19    0.81
  -5   6   7    1.49    0.64
   4  -6  -7    0.36    0.49
   4  -6  -7    0.50    0.67
  -4   6   7    0.34    0.53
   3  -6  -7    0.60    0.51
  -3   6   7   -0.15    0.63
  -3   6   7    0.02    0.47
   2  -6  -7    0.80    0.51
  -2   6   7   -0.15    0.42
  -2   6   7    0.85    0.69
   1  -6  -7    1.51    0.52
  -1   6   7    0.62    0.59
  -1   6   7    1.00    0.45
   0  -6  -7    0.41    0.48
   0   6   7    1.41    0.57
   0   6   7    1.04    0.41
  -1  -6  -7   -0.26    0.53
   1   6   7    0.17    0.61
   1   6   7    0.79    0.41
  -2  -6  -7    0.41    0.58
   2   6   7    0.94    0.64
   2   6   7   -0.52    0.39
  -3  -6  -7   -0.03    0.61
   3   6   7    1.34    0.74
   4  -7  -7    0.16    0.56
  -4   7   7   -0.52    0.87
  -4   7   7    0.61    0.61
   3  -7  -7    0.44    0.62
  -3   7   7   -0.33    0.78
  -3   7   7    0.62    0.60
   2  -7  -7   -0.68    0.57
  -2   7   7    0.94    0.54
  -2   7   7    0.00    0.80
   1  -7  -7   -0.21    0.59
  -1   7   7    0.19    0.49
  -1   7   7   -0.05    0.78
   0  -7  -7    0.20    0.68
   0   7   7    0.59    0.51
   0   7   7    0.91    0.80
  -1  -7  -7    0.31    0.65
   1   7   7   -0.30    0.45
   1   7   7    0.55    0.75
   2  10  -8   -0.57    0.60
  -2 -10   8   -0.45    0.65
   1  10  -8    0.25    0.61
  -1 -10   8    0.61    0.67
   0  10  -8   -0.50    0.54
   0  10  -8    0.51    0.67
   0 -10   8   -0.02    0.56
  -1  10  -8    0.70    0.52
  -1  10  -8   -0.21    0.55
   1 -10   8   -0.71    0.61
  -2  10  -8   -0.36    0.56
  -2  10  -8    0.70    0.51
   2 -10   8    0.29    0.66
  -3  10  -8    0.90    0.50
  -3  10  -8    0.38    0.43
   3 -10   8    0.12    0.75
   4   9  -8   -0.69    0.61
  -4  -9   8   -0.78    0.63
   3   9  -8   -0.51    0.60
  -3  -9   8    0.42    0.65
   2   9  -8   -0.20    0.53
  -2  -9   8    0.77    0.40
  -2  -9   8    0.74    0.60
   1   9  -8    0.12    0.47
  -1  -9   8    0.40    0.47
  -1  -9   8   -0.10    0.52
   0   9  -8    0.71    0.45
   0   9  -8    0.21    0.55
   0  -9   8    0.64    0.49
  -1   9  -8    0.19    0.50
  -1   9  -8    0.27    0.41
   1  -9   8   -0.08    0.50
  -2   9  -8    0.20    0.40
  -2   9  -8    0.19    0.46
   2  -9   8    0.41    0.55
  -3   9  -8    1.30    0.39
  -3   9  -8    1.01    0.45
   3  -9   8    0.53    0.62
  -4   9  -8    0.41    0.50
   4  -9   8    1.16    0.78
  -5   9  -8    0.11    0.50
   5  -9   8   -0.66    0.74
   5   8  -8    0.12    0.44
   5   8  -8    0.75    0.59
  -5  -8   8   -0.68    0.57
   4   8  -8    0.33    0.36
   4   8  -8    0.56    0.51
  -4  -8   8    0.59    0.64
   3   8  -8   -0.14    0.48
   3   8  -8   -0.13    0.28
  -3  -8   8    0.18    0.33
  -3  -8   8    0.37    0.49
   2   8  -8   -0.09    0.41
   2   8  -8    0.63    0.23
  -2  -8   8   -0.03    0.36
  -2  -8   8    0.18    0.47
   1   8  -8    5.84    0.78
   1   8  -8    5.34    0.45
  -1  -8   8    5.54    0.72
  -1  -8   8    5.93    0.82
   0   8  -8   -0.17    0.37
   0   8  -8    0.21    0.13
   0   8  -8   -0.02    0.35
   0  -8   8    0.37    0.40
  -1   8  -8    3.71    0.55
  -1   8  -8    2.45    0.43
   1  -8   8    3.43    0.55
  -2   8  -8    0.25    0.36
  -2   8  -8    0.92    0.19
  -2   8  -8    0.94    0.34
   2  -8   8    1.23    0.51
  -3   8  -8    0.37    0.29
  -3   8  -8    1.18    0.40
   3  -8   8    1.43    0.56
  -4   8  -8   -0.04    0.26
  -4   8  -8    0.23    0.40
   4  -8   8   -0.39    0.57
  -5   8  -8    1.61    0.48
   5  -8   8    0.56    0.73
  -6   8  -8    0.74    0.52
   6  -8   8   -0.17    0.79
   6   7  -8   -0.51    0.59
   5   7  -8    0.55    0.44
   5   7  -8    1.52    0.51
  -5  -7   8    0.09    0.58
   4   7  -8    0.88    0.35
   4   7  -8    0.60    0.47
  -4  -7   8    0.94    0.28
  -4  -7   8    0.76    0.51
   3   7  -8    0.03    0.24
   3   7  -8   -0.28    0.23
   3   7  -8    0.42    0.38
  -3  -7   8   -0.10    0.42
  -3  -7   8   -0.18    0.31
   2   7  -8    2.42    0.31
   2   7  -8    2.07    0.27
   2   7  -8    1.33    0.45
   2   7  -8    2.07    0.45
  -2  -7   8    2.59    0.52
  -2  -7   8    2.43    0.41
   1   7  -8    7.20    0.51
   1   7  -8    7.17    0.48
   1   7  -8    8.18    0.72
   1   7  -8    7.73    0.65
  -1  -7   8    7.95    0.80
  -1  -7   8    7.98    0.73
   0   7  -8    0.23    0.28
   0   7  -8    0.35    0.34
   0  -7   8    0.67    0.37
  -1   7  -8    4.64    0.58
  -1   7  -8    5.83    0.69
   1  -7   8    5.29    0.73
  -2   7  -8    1.61    0.41
  -2   7  -8    1.87    0.32
   2  -7   8    1.96    0.48
  -3   7  -8    2.20    0.26
  -3   7  -8    1.59    0.37
  -3   7  -8    2.80    0.33
  -3   7  -8    2.27    0.27
   3  -7   8    2.80    0.56
  -4   7  -8    0.12    0.21
  -4   7  -8    0.13    0.31
   4  -7   8   -0.41    0.48
   4  -7   8    0.27    0.47
   4  -7   8   -0.15    0.26
  -5   7  -8    0.38    0.19
  -5   7  -8   -0.11    0.36
   5  -7   8    0.25    0.34
   5  -7   8    0.30    0.58
  -6   7  -8    0.13    0.44
   6  -7   8   -0.69    0.74
   7   6  -8    0.41    0.52
   7   6  -8    0.11    0.64
  -7  -6   8   -0.70    0.64
   6   6  -8    0.78    0.50
   6   6  -8    0.66    0.54
  -6  -6   8    0.30    0.58
   5   6  -8   -0.13    0.37
   5   6  -8    0.54    0.42
  -5  -6   8    0.15    0.45
  -5  -6   8    0.58    0.24
   4   6  -8   -0.22    0.33
   4   6  -8    0.22    0.23
   4   6  -8    0.04    0.27
  -4  -6   8    0.15    0.42
  -4  -6   8    0.03    0.30
  -4  -6   8   -0.04    0.25
   3   6  -8   -0.05    0.29
   3   6  -8    0.10    0.21
  -3  -6   8    0.12    0.35
  -3  -6   8    0.47    0.27
  -3  -6   8    0.24    0.24
   2   6  -8   21.06    1.29
   2   6  -8   20.24    1.23
   2   6  -8   22.46    1.38
  -2  -6   8   21.00    1.35
  -2  -6   8   18.25    1.25
  -2  -6   8   22.52    1.43
   1   6  -8   35.66    2.11
   1   6  -8   33.89    2.06
  -1  -6   8   33.38    2.10
  -1  -6   8   34.77    2.16
   0   6  -8    0.90    0.28
   0   6  -8    1.38    0.34
   0   6  -8    1.61    0.47
   0  -6   8    1.12    0.35
  -1   6  -8    0.25    0.29
  -1   6  -8    0.59    0.23
   1  -6   8    1.09    0.38
  -2   6  -8    0.38    0.30
  -2   6  -8    0.53    0.21
   2  -6   8    1.14    0.40
  -3   6  -8   19.39    1.20
  -3   6  -8   20.47    1.26
  -3   6  -8   20.36    1.35
   3  -6   8   20.55    1.21
   3  -6   8   22.23    1.47
   3  -6   8   19.77    1.30
  -4   6  -8    0.07    0.19
  -4   6  -8   -0.25    0.29
   4  -6   8   -0.21    0.28
   4  -6   8    0.99    0.47
   4  -6   8    0.17    0.22
  -5   6  -8    1.68    0.27
  -5   6  -8    1.84    0.39
   5  -6   8    2.41    0.37
   5  -6   8    1.29    0.55
  -6   6  -8    0.35    0.36
   6  -6   8   -0.21    0.37
   6  -6   8   -0.97    0.63
  -7   6  -8    0.85    0.44
   7  -6   8   -0.25    0.80
   7  -6   8    1.70    0.85
   7   5  -8   -0.53    0.57
   7   5  -8    0.25    0.48
  -7  -5   8    0.39    0.59
   6   5  -8    0.58    0.46
   6   5  -8    0.33    0.41
  -6  -5   8    0.69    0.49
  -6  -5   8    0.11    0.25
   5   5  -8    0.17    0.35
   5   5  -8   -0.61    0.34
   5   5  -8    0.02    0.25
  -5  -5   8    0.04    0.23
  -5  -5   8   -0.34    0.41
   4   5  -8   -0.07    0.30
   4   5  -8   -0.53    0.26
   4   5  -8    0.23    0.23
  -4  -5   8   -0.46    0.33
  -4  -5   8   -0.10    0.25
  -4  -5   8    0.24    0.23
   3   5  -8    6.06    0.52
   3   5  -8    6.91    0.63
   3   5  -8    6.55    0.52
  -3  -5   8    6.31    0.57
  -3  -5   8    7.44    0.72
   2   5  -8   42.11    2.45
   2   5  -8   42.25    2.40
   2   5  -8   39.91    2.49
  -2  -5   8   40.24    2.40
  -2  -5   8   42.02    2.49
  -2  -5   8   43.78    2.54
   1   5  -8    8.74    0.63
   1   5  -8    9.47    0.68
  -1  -5   8    7.99    0.72
  -1  -5   8    8.03    0.69
   0   5  -8   15.38    1.01
   0   5  -8   15.74    1.05
   0   5  -8   15.90    1.01
   0  -5   8   14.72    1.06
  -1   5  -8    4.70    0.45
  -1   5  -8    4.85    0.50
   1  -5   8    5.04    0.57
   1  -5   8    5.21    0.49
  -2   5  -8    1.84    0.31
  -2   5  -8    2.33    0.31
   2  -5   8    2.26    0.39
   2  -5   8    1.47    0.30
  -3   5  -8    4.57    0.36
  -3   5  -8    4.59    0.53
  -3   5  -8    4.41    0.40
   3  -5   8    5.26    0.69
   3  -5   8    4.67    0.36
  -4   5  -8    0.13    0.16
  -4   5  -8    0.24    0.22
  -4   5  -8   -0.02    0.26
   4  -5   8    0.15    0.40
   4  -5   8    0.24    0.20
   4  -5   8    0.26    0.24
  -5   5  -8   12.91    0.85
  -5   5  -8   12.57    0.88
  -5   5  -8   13.36    0.96
   5  -5   8   12.27    0.89
   5  -5   8   13.33    1.19
   5  -5   8   12.37    0.92
  -6   5  -8    2.85    0.37
  -6   5  -8    1.75    0.42
   6  -5   8    2.13    0.46
   6  -5   8    1.35    0.59
  -7   5  -8    0.33    0.44
   7  -5   8   -0.55    0.72
   7  -5   8    0.09    0.45
   8   4  -8    0.17    0.74
   8   4  -8    0.05    0.50
  -8  -4   8   -0.05    0.66
   7   4  -8    0.27    0.56
   7   4  -8    0.25    0.43
  -7  -4   8    0.20    0.56
   6   4  -8   -0.05    0.43
   6   4  -8    0.75    0.38
  -6  -4   8   -0.93    0.44
  -6  -4   8    0.02    0.28
   5   4  -8    1.29    0.33
   5   4  -8    0.56    0.35
   5   4  -8    0.61    0.26
  -5  -4   8    0.54    0.29
  -5  -4   8    1.10    0.30
  -5  -4   8    1.07    0.38
   4   4  -8    2.91    0.39
   4   4  -8    2.95    0.42
   4   4  -8    2.38    0.32
  -4  -4   8    2.51    0.43
  -4  -4   8    3.09    0.44
  -4  -4   8    2.62    0.36
   3   4  -8    0.21    0.20
   3   4  -8    0.09    0.22
   3   4  -8    0.18    0.19
  -3  -4   8    0.50    0.28
  -3  -4   8    0.11    0.23
   2   4  -8   29.58    1.70
   2   4  -8   26.35    1.69
   2   4  -8   28.20    1.63
   2   4  -8   27.44    1.67
  -2  -4   8   28.70    1.71
  -2  -4   8   28.57    1.73
  -2  -4   8   26.41    1.62
   1   4  -8   20.35    1.29
   1   4  -8   23.40    1.31
   1   4  -8   20.31    1.31
  -1  -4   8   21.16    1.33
  -1  -4   8   20.19    1.33
  -1  -4   8   20.75    1.34
   0   4  -8    2.67    0.38
   0   4  -8    2.52    0.31
   0   4  -8    2.86    0.39
   0   4  -8    2.27    0.31
   0  -4   8    2.68    0.36
   0  -4   8    2.90    0.34
  -1   4  -8   27.89    1.75
  -1   4  -8   27.75    1.69
  -1   4  -8   28.55    1.74
  -1   4  -8   30.05    1.75
   1  -4   8   28.65    1.73
   1  -4   8   28.63    1.77
  -2   4  -8    6.80    0.61
  -2   4  -8    6.98    0.58
  -2   4  -8    7.28    0.44
  -2   4  -8    7.80    0.51
   2  -4   8    7.60    0.57
   2  -4   8    6.78    0.66
   2  -4   8    6.31    0.43
  -3   4  -8   22.22    1.41
  -3   4  -8   23.69    1.40
  -3   4  -8   24.53    1.47
   3  -4   8   26.17    1.60
   3  -4   8   21.51    1.45
   3  -4   8   24.45    1.41
  -4   4  -8    8.17    0.64
  -4   4  -8    7.50    0.57
  -4   4  -8    6.11    0.77
   4  -4   8    7.75    0.58
   4  -4   8    7.75    0.62
   4  -4   8    9.49    0.83
  -5   4  -8    0.28    0.22
  -5   4  -8    0.76    0.28
  -5   4  -8    0.06    0.29
   5  -4   8    0.61    0.31
   5  -4   8    0.50    0.23
   5  -4   8    1.14    0.51
  -6   4  -8    2.35    0.42
  -6   4  -8    3.84    0.49
   6  -4   8    4.04    0.53
   6  -4   8    3.21    0.71
  -7   4  -8    3.31    0.51
   7  -4   8    2.26    0.77
   7  -4   8    1.84    0.62
   8   3  -8   -0.10    0.38
   8   3  -8    0.87    0.72
  -8  -3   8    0.67    0.65
   7   3  -8    0.40    0.54
   7   3  -8    0.03    0.33
  -7  -3   8   -0.36    0.33
  -7  -3   8    1.73    0.54
   6   3  -8    4.94    0.61
   6   3  -8    5.13    0.60
   6   3  -8    4.25    0.61
  -6  -3   8    4.55    0.64
  -6  -3   8    4.05    0.56
   5   3  -8    7.12    0.70
   5   3  -8    7.71    0.69
   5   3  -8    8.26    0.65
  -5  -3   8    7.89    0.75
  -5  -3   8    7.62    0.64
   4   3  -8    0.63    0.22
   4   3  -8    0.26    0.22
   4   3  -8    0.61    0.24
  -4  -3   8    0.71    0.24
  -4  -3   8    0.47    0.28
   3   3  -8   10.92    0.75
   3   3  -8   11.29    0.75
   3   3  -8   10.91    0.73
   3   3  -8   10.98    0.75
  -3  -3   8   11.47    0.77
  -3  -3   8   11.23    0.87
  -3  -3   8   10.72    0.80
  -3  -3   8    9.99    0.71
   2   3  -8   43.03    2.47
   2   3  -8   44.40    2.50
   2   3  -8   43.21    2.50
   2   3  -8   44.62    2.50
  -2  -3   8   40.21    2.55
  -2  -3   8   41.57    2.53
  -2  -3   8   42.45    2.45
  -2  -3   8   41.30    2.51
   1   3  -8    5.31    0.42
   1   3  -8    5.32    0.41
   1   3  -8    4.48    0.33
   1   3  -8    5.18    0.44
  -1  -3   8    4.60    0.42
  -1  -3   8    4.36    0.44
  -1  -3   8    4.76    0.31
  -1  -3   8    4.98    0.46
   0   3  -8    0.90    0.16
   0   3  -8    0.90    0.21
   0   3  -8    1.11    0.22
   0   3  -8    1.35    0.22
   0  -3   8    0.64    0.26
   0  -3   8    1.08    0.25
  -1   3  -8    2.19    0.30
  -1   3  -8    2.87    0.30
  -1   3  -8    2.92    0.37
  -1   3  -8    3.17    0.33
   1  -3   8    3.15    0.19
   1  -3   8    3.10    0.34
   1  -3   8    2.78    0.21
   1  -3   8    3.12    0.37
  -2   3  -8   10.21    0.65
  -2   3  -8   10.58    0.72
  -2   3  -8   10.44    0.69
  -2   3  -8   10.05    0.63
  -2   3  -8    8.55    0.70
   2  -3   8    8.96    0.67
   2  -3   8    9.06    0.76
   2  -3   8    9.77    0.60
  -3   3  -8   15.48    0.96
  -3   3  -8   14.96    0.93
  -3   3  -8   14.47    0.94
   3  -3   8   14.91    0.95
   3  -3   8   14.90    1.01
   3  -3   8   14.78    0.92
   3  -3   8   13.40    1.06
  -4   3  -8    6.84    0.55
  -4   3  -8    5.51    0.54
  -4   3  -8    5.87    0.50
   4  -3   8    6.70    0.73
   4  -3   8    6.11    0.51
  -5   3  -8    6.79    0.64
  -5   3  -8    7.19    0.61
  -5   3  -8    8.34    0.60
   5  -3   8    6.66    0.55
   5  -3   8    6.58    0.63
   5  -3   8    7.24    0.84
  -6   3  -8    1.07    0.30
  -6   3  -8    1.39    0.33
   6  -3   8    1.44    0.47
   6  -3   8    1.56    0.57
  -7   3  -8    3.14    0.49
   7  -3   8    3.62    0.66
   7  -3   8    4.86    0.79
   8  -3   8    2.08    0.84
   8   2  -8   -0.33    0.31
   8   2  -8   -0.17    0.67
  -8  -2   8    1.13    0.40
  -8  -2   8    1.20    0.57
   7   2  -8    1.37    0.35
   7   2  -8    2.21    0.59
  -7  -2   8    2.03    0.51
  -7  -2   8    1.92    0.43
   6   2  -8   -0.08    0.39
   6   2  -8   -0.08    0.25
  -6  -2   8    0.32    0.38
  -6  -2   8    0.05    0.29
   5   2  -8    0.03    0.21
   5   2  -8    0.22    0.31
  -5  -2   8    0.79    0.33
  -5  -2   8    0.56    0.26
   4   2  -8    1.58    0.21
   4   2  -8    1.61    0.24
   4   2  -8    1.60    0.34
   4   2  -8    1.38    0.29
  -4  -2   8    1.47    0.29
  -4  -2   8    1.40    0.25
  -4  -2   8    1.68    0.28
  -4  -2   8    2.05    0.33
   3   2  -8    5.62    0.49
   3   2  -8    5.22    0.44
   3   2  -8    5.17    0.41
   3   2  -8    5.08    0.45
  -3  -2   8    4.90    0.47
  -3  -2   8    5.83    0.49
  -3  -2   8    4.83    0.41
  -3  -2   8    4.66    0.48
   2   2  -8    0.17    0.12
   2   2  -8    0.08    0.16
   2   2  -8   -0.03    0.16
   2   2  -8    0.26    0.15
  -2  -2   8    0.24    0.16
  -2  -2   8   -0.04    0.17
  -2  -2   8    0.17    0.14
  -2  -2   8    0.22    0.18
   1   2  -8    0.37    0.16
   1   2  -8    0.40    0.14
   1   2  -8    0.28    0.15
   1   2  -8    0.10    0.13
  -1  -2   8    0.22    0.13
  -1  -2   8    0.11    0.16
  -1  -2   8    0.32    0.16
  -1  -2   8   -0.04    0.18
   0   2  -8    3.48    0.37
   0   2  -8    4.19    0.36
   0   2  -8    3.93    0.36
   0   2  -8    3.77    0.35
   0  -2   8    3.90    0.36
   0  -2   8    4.16    0.31
   0  -2   8    3.67    0.41
   0  -2   8    4.46    0.31
  -1   2  -8   19.21    1.26
  -1   2  -8   18.72    1.25
  -1   2  -8   21.46    1.24
  -1   2  -8   21.08    1.23
   1  -2   8   20.38    1.25
   1  -2   8   19.55    1.28
   1  -2   8   21.43    1.22
   1  -2   8   21.40    1.21
  -2   2  -8    1.29    0.20
  -2   2  -8    1.10    0.24
  -2   2  -8    0.93    0.23
  -2   2  -8    1.07    0.18
  -2   2  -8    1.20    0.22
   2  -2   8    1.52    0.20
   2  -2   8    1.44    0.30
   2  -2   8    1.43    0.21
  -3   2  -8   15.30    0.96
  -3   2  -8   14.89    0.94
  -3   2  -8   15.05    0.93
   3  -2   8   15.45    0.94
   3  -2   8   13.57    0.98
   3  -2   8   13.78    0.92
   3  -2   8   14.86    1.02
  -4   2  -8   25.60    1.43
  -4   2  -8   23.70    1.44
  -4   2  -8   22.30    1.46
   4  -2   8   25.15    1.57
   4  -2   8   23.03    1.45
   4  -2   8   21.10    1.41
  -5   2  -8   10.60    0.73
  -5   2  -8    9.94    0.85
  -5   2  -8    9.77    0.75
   5  -2   8    8.47    0.67
   5  -2   8    9.68    0.97
   5  -2   8    9.60    0.76
  -6   2  -8    6.30    0.65
  -6   2  -8    7.54    0.68
   6  -2   8    6.51    0.73
   6  -2   8    7.24    0.85
  -7   2  -8    0.38    0.35
  -7   2  -8    0.68    0.35
   7  -2   8    0.77    0.63
   7  -2   8    0.27    0.51
   8   1  -8    0.55    0.72
  -8  -1   8    0.56    0.53
  -8  -1   8    0.22    0.49
   7   1  -8    0.38    0.55
   7   1  -8    0.21    0.28
  -7  -1   8    1.01    0.45
  -7  -1   8    0.53    0.36
   6   1  -8   12.85    0.87
   6   1  -8   11.89    1.05
  -6  -1   8   11.47    0.94
  -6  -1   8   13.95    1.00
   5   1  -8   10.17    0.85
   5   1  -8   11.20    0.73
  -5  -1   8   10.47    0.79
  -5  -1   8   11.31    0.79
  -5  -1   8    7.72    0.80
   4   1  -8    1.01    0.32
   4   1  -8    1.01    0.20
   4   1  -8    1.19    0.18
  -4  -1   8    0.72    0.26
  -4  -1   8    1.18    0.27
  -4  -1   8    1.13    0.25
  -4  -1   8    0.98    0.25
   3   1  -8    4.90    0.40
   3   1  -8    4.69    0.35
   3   1  -8    4.87    0.47
   3   1  -8    4.32    0.48
  -3  -1   8    5.15    0.44
  -3  -1   8    4.24    0.44
  -3  -1   8    4.43    0.45
  -3  -1   8    4.69    0.43
   2   1  -8   12.33    0.88
   2   1  -8   11.80    0.85
   2   1  -8   14.03    0.83
   2   1  -8   15.00    0.89
  -2  -1   8   13.28    0.88
  -2  -1   8   13.14    0.86
  -2  -1   8   15.47    0.88
  -2  -1   8   13.15    0.89
   1   1  -8   21.40    1.26
   1   1  -8   20.73    1.29
   1   1  -8   20.32    1.29
  -1  -1   8   20.39    1.28
  -1  -1   8   22.99    1.29
  -1  -1   8   20.58    1.30
   0   1  -8   13.62    0.91
   0   1  -8   14.39    0.88
   0   1  -8   14.53    0.89
   0  -1   8   16.05    0.90
   0  -1   8   13.50    0.90
   0  -1   8   13.24    0.90
   0  -1   8   14.61    0.94
  -1   1  -8    1.74    0.25
  -1   1  -8    1.93    0.27
  -1   1  -8    2.43    0.24
   1  -1   8    2.22    0.33
   1  -1   8    2.42    0.30
   1  -1   8    2.89    0.36
   1  -1   8    2.57    0.26
  -2   1  -8    2.54    0.31
  -2   1  -8    2.35    0.26
  -2   1  -8    2.62    0.33
  -2   1  -8    2.92    0.35
   2  -1   8    2.96    0.41
   2  -1   8    2.59    0.34
   2  -1   8    2.96    0.28
   2  -1   8    2.49    0.33
  -3   1  -8    2.21    0.28
  -3   1  -8    3.09    0.41
  -3   1  -8    1.52    0.27
   3  -1   8    1.78    0.29
   3  -1   8    1.78    0.36
   3  -1   8    1.95    0.29
  -4   1  -8    0.53    0.32
  -4   1  -8    1.29    0.28
   4  -1   8    1.27    0.38
   4  -1   8    1.44    0.31
  -5   1  -8    4.28    0.53
  -5   1  -8    3.85    0.44
   5  -1   8    3.74    0.50
   5  -1   8    4.70    0.61
  -6   1  -8    0.14    0.39
  -6   1  -8   -0.37    0.25
   6  -1   8   -0.11    0.52
   6  -1   8    0.24    0.41
  -7   1  -8    3.29    0.45
  -7   1  -8    3.58    0.54
   7  -1   8    3.09    0.73
   7  -1   8    4.05    0.63
   8   0  -8    1.73    0.77
  -8   0   8   -0.27    0.51
  -8   0   8    1.44    0.54
   7   0  -8    0.51    0.54
   7   0  -8    0.53    0.25
  -7   0   8    0.23    0.40
  -7   0   8    0.55    0.43
   6   0  -8    1.58    0.28
   6   0  -8    1.65    0.53
  -6   0   8    2.29    0.38
  -6   0   8    2.20    0.41
  -6   0   8    1.37    0.38
   5   0  -8    7.83    0.59
   5   0  -8    8.77    0.63
   5   0  -8    9.58    0.90
  -5   0   8    9.42    0.70
  -5   0   8    8.16    0.71
  -5   0   8    8.61    0.73
   4   0  -8    3.46    0.50
   4   0  -8    2.95    0.34
  -4   0   8    2.88    0.39
  -4   0   8    2.92    0.40
  -4   0   8    3.09    0.43
  -4   0   8    2.77    0.33
   3   0  -8    9.84    0.67
   3   0  -8    8.15    0.61
   3   0  -8   10.51    0.77
  -3   0   8   10.86    0.67
  -3   0   8    9.31    0.68
  -3   0   8    9.98    0.72
  -3   0   8   10.80    0.73
   2   0  -8    2.64    0.29
   2   0  -8    2.08    0.32
   2   0  -8    2.60    0.34
   2   0  -8    1.86    0.19
  -2   0   8    2.43    0.25
  -2   0   8    1.99    0.30
  -2   0   8    2.28    0.30
  -2   0   8    1.78    0.24
   1   0  -8   36.60    2.14
   1   0  -8   35.29    2.13
   1   0  -8   36.38    2.19
   1   0  -8   36.53    2.21
  -1   0   8   37.53    2.22
  -1   0   8   38.63    2.22
  -1   0   8   38.63    2.19
  -1   0   8   39.60    2.22
   0   0  -8    0.39    0.17
   0   0  -8    0.67    0.17
   0   0  -8    0.82    0.10
   0   0  -8    0.93    0.14
   0   0   8    1.16    0.24
   0   0   8    0.50    0.21
   0   0   8    0.43    0.15
   0   0   8    0.34    0.22
  -1   0  -8   12.44    0.75
  -1   0  -8   13.58    0.83
  -1   0  -8   12.08    0.79
  -1   0  -8   12.36    0.81
   1   0   8   11.85    0.84
   1   0   8   11.96    0.79
   1   0   8   12.90    0.87
   1   0   8   12.64    0.84
  -2   0  -8   32.29    1.98
  -2   0  -8   33.28    1.92
  -2   0  -8   33.11    2.01
  -2   0  -8   31.22    1.97
   2   0   8   35.09    2.00
   2   0   8   31.88    1.97
   2   0   8   37.18    1.97
   2   0   8   31.58    2.00
  -3   0  -8   69.68    4.47
  -3   0  -8   72.49    4.45
  -3   0  -8   72.79    4.44
  -3   0  -8   79.91    4.40
   3   0   8   88.31    4.48
   3   0   8   75.37    4.48
   3   0   8   80.72    4.44
  -4   0  -8   22.95    1.45
  -4   0  -8   22.46    1.37
   4   0   8   21.54    1.46
   4   0   8   23.63    1.50
   4   0   8   22.45    1.42
  -5   0  -8    4.71    0.49
  -5   0  -8    5.57    0.67
   5   0   8    5.89    0.69
   5   0   8    5.02    0.72
  -6   0  -8    3.06    0.40
  -6   0  -8    4.10    0.58
   6   0   8    3.95    0.65
   6   0   8    3.71    0.59
  -7   0  -8    1.75    0.40
  -7   0  -8    0.44    0.53
   7   0   8    1.52    0.60
   7   0   8    0.60    0.60
   8  -1  -8    1.01    0.83
  -8   1   8    1.28    0.52
  -8   1   8    1.23    0.57
   7  -1  -8   -1.03    0.59
   7  -1  -8    0.16    0.24
  -7   1   8   -0.05    0.39
  -7   1   8    0.99    0.46
   6  -1  -8    3.09    0.62
   6  -1  -8    3.47    0.39
  -6   1   8    3.61    0.52
  -6   1   8    3.87    0.54
   5  -1  -8   -0.12    0.40
   5  -1  -8    0.22    0.22
   5  -1  -8    0.12    0.18
  -5   1   8    0.08    0.23
  -5   1   8    0.15    0.33
  -5   1   8    0.05    0.26
   4  -1  -8    2.41    0.29
   4  -1  -8    1.28    0.42
  -4   1   8    1.61    0.27
  -4   1   8    1.75    0.34
  -4   1   8    1.20    0.26
   3  -1  -8   18.76    1.16
  -3   1   8   15.46    1.00
  -3   1   8   16.04    1.04
   2  -1  -8   11.49    0.70
   2  -1  -8    9.23    0.57
   2  -1  -8    9.08    0.78
  -2   1   8   11.02    0.72
  -2   1   8    9.16    0.66
  -2   1   8    9.69    0.75
   1  -1  -8    0.81    0.19
   1  -1  -8    0.56    0.21
  -1   1   8    0.32    0.25
  -1   1   8    0.86    0.17
  -1   1   8    0.85    0.25
  -1   1   8    0.67    0.29
   0  -1  -8    6.57    0.54
   0  -1  -8    7.41    0.54
   0   1   8    6.86    0.60
   0   1   8    6.44    0.56
   0   1   8    6.94    0.62
   0   1   8    6.99    0.52
  -1  -1  -8    7.63    0.58
  -1  -1  -8    7.28    0.54
  -1  -1  -8    6.97    0.44
   1   1   8    7.42    0.63
   1   1   8    7.12    0.59
   1   1   8    6.80    0.64
  -2  -1  -8   11.44    0.79
  -2  -1  -8   10.25    0.87
  -2  -1  -8   12.25    0.85
   2   1   8   12.72    0.78
   2   1   8   12.07    0.85
   2   1   8   11.76    0.87
  -3  -1  -8   12.48    0.89
  -3  -1  -8   11.09    0.73
  -3  -1  -8   10.98    0.79
   3   1   8   11.57    0.86
   3   1   8   12.21    0.92
   3   1   8   12.04    0.79
  -4  -1  -8    0.37    0.32
   4   1   8    0.14    0.35
   4   1   8    0.32    0.35
   4   1   8    0.76    0.27
  -5  -1  -8    5.57    0.58
  -5  -1  -8    6.12    0.79
   5   1   8    7.91    0.82
   5   1   8    6.57    0.77
  -6  -1  -8    0.80    0.36
  -6  -1  -8    0.00    0.48
   6   1   8    0.77    0.54
   6   1   8    0.94    0.54
  -7  -1  -8    0.58    0.44
  -7  -1  -8   -0.06    0.56
   7   1   8   -0.58    0.60
   8  -2  -8    0.33    0.80
  -8   2   8    1.37    0.49
  -8   2   8   -0.18    0.62
   7  -2  -8   -0.62    0.65
  -7   2   8    0.11    0.48
  -7   2   8   -0.11    0.39
   6  -2  -8    2.03    0.61
   6  -2  -8    1.97    0.33
  -6   2   8    1.70    0.48
  -6   2   8    2.10    0.35
   5  -2  -8    1.59    0.30
   5  -2  -8    1.33    0.54
   5  -2  -8    1.58    0.20
  -5   2   8    1.37    0.40
  -5   2   8    1.44    0.28
  -5   2   8    0.69    0.51
   4  -2  -8   -0.11    0.39
   4  -2  -8   -0.22    0.21
   4  -2  -8   -0.20    0.12
  -4   2   8    0.13    0.31
  -4   2   8   -0.19    0.22
  -4   2   8   -0.12    0.20
   3  -2  -8   -0.15    0.37
   3  -2  -8    0.32    0.21
  -3   2   8    0.02    0.20
  -3   2   8   -0.07    0.28
   2  -2  -8    0.42    0.32
   2  -2  -8    0.31    0.23
  -2   2   8    0.72    0.30
   1  -2  -8   13.68    0.92
  -1   2   8   14.74    0.94
  -1   2   8   12.52    1.06
  -1   2   8   12.64    0.99
   0  -2  -8    1.05    0.27
   0   2   8    0.69    0.27
   0   2   8    1.33    0.35
   0   2   8    0.06    0.38
  -1  -2  -8   -0.20    0.23
  -1  -2  -8    0.12    0.07
  -1  -2  -8    0.21    0.10
  -1  -2  -8    0.19    0.25
   1   2   8   -0.06    0.30
   1   2   8    0.03    0.23
  -2  -2  -8    3.83    0.53
  -2  -2  -8    4.25    0.34
  -2  -2  -8    4.09    0.43
   2   2   8    4.83    0.56
   2   2   8    4.51    0.59
   2   2   8    4.07    0.51
  -3  -2  -8   15.20    0.95
  -3  -2  -8   15.45    1.11
  -3  -2  -8   13.53    1.06
   3   2   8   17.79    1.16
   3   2   8   15.51    0.97
   3   2   8   14.53    1.05
  -4  -2  -8    5.33    0.74
  -4  -2  -8    4.96    0.50
   4   2   8    5.07    0.53
   4   2   8    5.02    0.66
   4   2   8    5.52    0.70
  -5  -2  -8    0.37    0.45
  -5  -2  -8   -0.30    0.30
   5   2   8   -0.30    0.44
   5   2   8   -0.11    0.43
  -6  -2  -8    0.75    0.42
  -6  -2  -8   -0.90    0.53
   6   2   8   -0.01    0.52
   7  -3  -8   -0.50    0.74
  -7   3   8    0.03    0.57
   6  -3  -8    0.54    0.28
   6  -3  -8    0.66    0.57
  -6   3   8    0.88    0.30
  -6   3   8    0.96    0.50
   5  -3  -8    2.10    0.56
   5  -3  -8    1.71    0.35
  -5   3   8    1.30    0.42
  -5   3   8    1.59    0.26
   4  -3  -8    0.14    0.27
   4  -3  -8    0.04    0.48
   4  -3  -8   -0.29    0.12
  -4   3   8    0.06    0.35
  -4   3   8   -0.26    0.14
   3  -3  -8   -0.06    0.43
   3  -3  -8   -0.07    0.26
  -3   3   8    0.40    0.29
   2  -3  -8    1.25    0.36
  -2   3   8    1.54    0.33
  -2   3   8    0.69    0.41
   1  -3  -8   29.43    1.84
  -1   3   8   28.58    1.83
  -1   3   8   30.49    1.93
   0  -3  -8    8.18    0.71
   0   3   8    7.85    0.67
   0   3   8    6.73    0.80
  -1  -3  -8    4.28    0.50
   1   3   8    3.62    0.56
   1   3   8    3.45    0.52
  -2  -3  -8    4.93    0.40
  -2  -3  -8    6.54    0.70
   2   3   8    5.19    0.58
   2   3   8    4.35    0.39
   2   3   8    5.88    0.70
  -3  -3  -8    5.90    0.83
  -3  -3  -8    6.67    0.52
   3   3   8    7.46    0.85
   3   3   8    6.40    0.67
   3   3   8    6.10    0.52
  -4  -3  -8    0.04    0.47
  -4  -3  -8    0.32    0.27
   4   3   8    0.82    0.40
   4   3   8    0.84    0.50
  -5  -3  -8    0.91    0.38
  -5  -3  -8    2.52    0.63
   5   3   8    0.60    0.42
   5   3   8    1.34    0.57
  -6  -3  -8    0.95    0.45
  -6  -3  -8    1.85    0.68
   6   3   8    0.20    0.75
   7  -4  -8    0.31    0.78
  -7   4   8   -1.24    0.58
   6  -4  -8   -0.43    0.67
  -6   4   8    1.00    0.59
   5  -4  -8    0.70    0.61
   5  -4  -8   -0.08    0.39
  -5   4   8    0.52    0.47
   4  -4  -8    2.39    0.43
   4  -4  -8    2.19    0.60
  -4   4   8    1.08    0.45
   3  -4  -8    0.77    0.51
   3  -4  -8    0.40    0.34
  -3   4   8   -0.03    0.37
   2  -4  -8    0.46    0.34
  -2   4   8    0.39    0.36
  -2   4   8    0.87    0.52
   1  -4  -8   -0.02    0.29
  -1   4   8   -0.27    0.47
  -1   4   8    0.16    0.31
   0  -4  -8    1.23    0.39
   0   4   8    1.09    0.36
   0   4   8    0.77    0.46
  -1  -4  -8    1.76    0.45
   1   4   8    0.92    0.49
   1   4   8    1.71    0.39
  -2  -4  -8    0.20    0.17
  -2  -4  -8    0.48    0.42
   2   4   8    0.02    0.34
   2   4   8   -0.16    0.48
  -3  -4  -8    0.03    0.23
  -3  -4  -8    0.41    0.49
   3   4   8   -0.15    0.36
   3   4   8    0.02    0.56
  -4  -4  -8    0.57    0.58
   4   4   8    0.27    0.60
   4   4   8   -0.04    0.39
  -5  -4  -8    0.71    0.71
   5   4   8    2.12    0.69
   6  -5  -8   -0.58    0.81
  -6   5   8    0.33    0.65
   5  -5  -8   -0.06    0.41
   5  -5  -8    0.04    0.76
  -5   5   8   -0.01    0.57
   4  -5  -8    0.74    0.69
   4  -5  -8    0.19    0.43
  -4   5   8    0.93    0.52
   3  -5  -8    0.03    0.43
  -3   5   8    0.34    0.47
  -3   5   8    0.45    0.63
   2  -5  -8    4.61    0.65
  -2   5   8    3.88    0.58
  -2   5   8    6.93    0.99
   1  -5  -8    6.08    0.74
  -1   5   8    6.39    0.77
  -1   5   8    6.54    0.86
   0  -5  -8    2.20    0.50
   0   5   8    1.23    0.41
   0   5   8    2.11    0.61
  -1  -5  -8    0.42    0.47
   1   5   8    0.40    0.58
   1   5   8    0.41    0.39
  -2  -5  -8    1.30    0.56
   2   5   8    1.64    0.63
   2   5   8    1.90    0.47
  -3  -5  -8    2.17    0.68
   3   5   8    1.42    0.46
   3   5   8    1.65    0.71
  -4  -5  -8   -0.26    0.62
   4   5   8   -0.04    0.69
   4  -6  -8    0.91    0.59
  -4   6   8    0.01    0.63
  -4   6   8    1.29    0.85
   3  -6  -8    0.40    0.55
  -3   6   8   -0.01    0.55
  -3   6   8   -0.93    0.73
   2  -6  -8    2.14    0.61
  -2   6   8    1.77    0.53
  -2   6   8    1.55    0.79
   1  -6  -8    0.38    0.55
  -1   6   8    0.33    0.48
  -1   6   8    0.83    0.76
   0  -6  -8   -0.11    0.57
   0   6   8    0.85    0.65
   0   6   8    0.58    0.49
  -1  -6  -8    0.97    0.64
   1   6   8    0.84    0.70
   1   6   8    0.58    0.47
  -2  -6  -8    0.03    0.58
   2   6   8    0.94    0.70
   2   6   8    0.68    0.45
   1  -7  -8   -0.55    0.65
  -1   7   8   -0.37    0.80
   1  10  -9    0.16    0.61
   1  10  -9   -0.57    0.61
  -1 -10   9    0.57    0.72
   0  10  -9   -0.84    0.56
   0  10  -9    1.43    0.73
   0 -10   9   -0.59    0.62
  -1  10  -9    0.41    0.59
  -1  10  -9   -0.40    0.53
   1 -10   9    0.23    0.67
  -2  10  -9    0.08    0.51
  -2  10  -9   -0.64    0.54
   2 -10   9    0.50    0.66
   3   9  -9   -0.15    0.55
  -3  -9   9    0.46    0.71
   2   9  -9    0.37    0.53
  -2  -9   9   -0.11    0.48
  -2  -9   9    0.52    0.66
   1   9  -9    0.28    0.48
  -1  -9   9   -0.60    0.53
  -1  -9   9   -0.10    0.52
   0   9  -9    0.17    0.46
   0   9  -9    0.13    0.56
   0  -9   9    0.27    0.52
  -1   9  -9   -0.27    0.43
  -1   9  -9    0.57    0.50
   1  -9   9   -0.16    0.51
  -2   9  -9   -0.52    0.39
  -2   9  -9    0.13    0.47
   2  -9   9    0.12    0.57
  -3   9  -9    0.51    0.50
  -3   9  -9   -0.26    0.38
   3  -9   9    0.36    0.68
  -4   9  -9   -0.11    0.33
  -4   9  -9    0.17    0.45
   4  -9   9    0.03    0.73
   5   8  -9    0.87    0.55
  -5  -8   9    0.77    0.63
   4   8  -9   -0.98    0.52
  -4  -8   9    0.06    0.65
   3   8  -9    0.24    0.46
  -3  -8   9   -0.02    0.54
  -3  -8   9   -0.51    0.36
   2   8  -9    0.61    0.43
  -2  -8   9    1.45    0.57
  -2  -8   9    0.88    0.45
   1   8  -9    0.16    0.37
  -1  -8   9    0.62    0.45
  -1  -8   9    0.17    0.43
   0   8  -9   -0.35    0.41
   0   8  -9    0.54    0.37
   0  -8   9    0.02    0.44
  -1   8  -9    0.93    0.37
  -1   8  -9    1.04    0.49
   1  -8   9    0.85    0.49
  -2   8  -9   -0.23    0.32
  -2   8  -9    0.02    0.41
   2  -8   9    0.21    0.49
  -3   8  -9    0.25    0.31
  -3   8  -9   -0.23    0.38
   3  -8   9    0.38    0.55
  -4   8  -9    0.27    0.44
  -4   8  -9    0.20    0.28
   4  -8   9    0.08    0.56
  -5   8  -9    0.95    0.49
   5  -8   9    0.18    0.71
   6   7  -9   -0.33    0.54
   6   7  -9    0.01    0.59
  -6  -7   9    1.31    0.65
   5   7  -9    0.57    0.46
   5   7  -9    0.44    0.51
  -5  -7   9   -0.64    0.55
   4   7  -9   -0.52    0.43
   4   7  -9    0.56    0.31
  -4  -7   9    0.28    0.31
  -4  -7   9    0.18    0.49
   3   7  -9    2.31    0.47
   3   7  -9    1.38    0.27
   3   7  -9    1.01    0.43
  -3  -7   9    1.16    0.39
  -3  -7   9    1.62    0.49
   2   7  -9   -0.02    0.15
   2   7  -9   -0.04    0.35
  -2  -7   9   -0.14    0.39
  -2  -7   9    0.33    0.35
   1   7  -9    0.15    0.33
  -1  -7   9    0.54    0.37
  -1  -7   9    0.70    0.43
   0   7  -9    1.12    0.41
   0   7  -9    1.16    0.33
   0  -7   9    1.30    0.44
  -1   7  -9    2.60    0.38
  -1   7  -9    2.80    0.49
   1  -7   9    2.22    0.52
  -2   7  -9    0.44    0.27
  -2   7  -9    0.63    0.38
   2  -7   9    0.14    0.46
  -3   7  -9    5.06    0.64
  -3   7  -9    2.77    0.38
   3  -7   9    3.27    0.65
  -4   7  -9    1.29    0.40
  -4   7  -9    1.00    0.28
   4  -7   9    0.62    0.56
  -5   7  -9    3.52    0.50
  -5   7  -9    2.91    0.42
   5  -7   9    2.86    0.73
  -6   7  -9   -0.06    0.45
   6  -7   9    0.46    0.74
   6   6  -9   -0.05    0.51
   6   6  -9    0.11    0.51
  -6  -6   9    0.07    0.59
   5   6  -9    0.71    0.39
   5   6  -9    0.17    0.44
  -5  -6   9    1.27    0.56
  -5  -6   9    0.40    0.32
   4   6  -9    0.99    0.39
   4   6  -9    0.84    0.31
   4   6  -9    1.42    0.35
  -4  -6   9    1.56    0.36
  -4  -6   9    1.68    0.48
   3   6  -9    0.34    0.31
   3   6  -9   -0.07    0.23
   3   6  -9    0.39    0.26
  -3  -6   9    0.36    0.30
  -3  -6   9    0.49    0.38
  -3  -6   9    0.48    0.38
   2   6  -9    1.87    0.20
   2   6  -9    2.42    0.37
   2   6  -9    1.66    0.30
  -2  -6   9    1.89    0.25
  -2  -6   9    1.55    0.43
  -2  -6   9    2.78    0.41
   1   6  -9    2.21    0.39
  -1  -6   9    2.45    0.42
  -1  -6   9    2.68    0.48
   0   6  -9    1.78    0.33
   0   6  -9    3.09    0.46
   0  -6   9    2.95    0.48
  -1   6  -9   11.32    0.89
  -1   6  -9    9.80    0.79
   1  -6   9   10.95    0.93
  -2   6  -9    0.96    0.26
  -2   6  -9    1.03    0.34
   2  -6   9    0.96    0.41
  -3   6  -9    0.97    0.34
  -3   6  -9    0.20    0.21
   3  -6   9    0.35    0.47
  -4   6  -9    0.83    0.23
  -4   6  -9    1.05    0.35
   4  -6   9    1.01    0.50
   4  -6   9    0.76    0.23
  -5   6  -9    3.85    0.44
  -5   6  -9    2.83    0.46
   5  -6   9    3.08    0.41
   5  -6   9    3.56    0.75
  -6   6  -9    0.03    0.42
   6  -6   9    0.36    0.70
   7   5  -9    0.11    0.63
   7   5  -9    0.48    0.51
  -7  -5   9    0.98    0.70
   6   5  -9    0.14    0.43
   6   5  -9    0.55    0.50
  -6  -5   9    0.69    0.30
  -6  -5   9   -0.48    0.51
   5   5  -9    5.23    0.63
   5   5  -9    3.13    0.50
  -5  -5   9    3.32    0.44
  -5  -5   9    2.99    0.57
   4   5  -9   -0.02    0.26
   4   5  -9    0.64    0.29
   4   5  -9    0.04    0.31
  -4  -5   9    0.06    0.28
  -4  -5   9    0.28    0.39
  -4  -5   9   -0.47    0.25
   3   5  -9    0.33    0.25
   3   5  -9   -0.35    0.25
   3   5  -9    0.04    0.21
  -3  -5   9    0.05    0.26
  -3  -5   9   -0.12    0.34
   2   5  -9    5.48    0.67
   2   5  -9    5.91    0.42
   2   5  -9    6.31    0.59
  -2  -5   9    5.52    0.41
  -2  -5   9    6.64    0.61
  -2  -5   9    6.02    0.67
   1   5  -9    0.07    0.24
   1   5  -9    0.13    0.27
  -1  -5   9   -0.15    0.28
  -1  -5   9    0.30    0.30
   0   5  -9    0.74    0.22
   0   5  -9    1.25    0.30
   0  -5   9    1.12    0.36
  -1   5  -9   -0.16    0.25
  -1   5  -9    0.09    0.18
   1  -5   9   -0.27    0.31
  -2   5  -9    1.09    0.30
  -2   5  -9    1.11    0.22
   2  -5   9    1.19    0.37
  -3   5  -9    6.41    0.63
  -3   5  -9    6.96    0.53
  -3   5  -9    6.92    0.45
   3  -5   9    5.84    0.77
   3  -5   9    6.04    0.43
  -4   5  -9    0.09    0.19
  -4   5  -9    0.28    0.30
   4  -5   9    0.30    0.49
   4  -5   9    0.12    0.20
   4  -5   9   -0.34    0.33
  -5   5  -9   -0.21    0.33
  -5   5  -9    0.46    0.24
   5  -5   9    0.18    0.56
   5  -5   9    0.24    0.25
  -6   5  -9   -0.21    0.38
  -6   5  -9    0.26    0.26
   6  -5   9   -0.87    0.64
   6  -5   9   -0.44    0.35
  -7   5  -9    7.76    0.81
   7  -5   9    5.35    1.10
   7   4  -9   -0.17    0.44
   7   4  -9    1.68    0.62
  -7  -4   9    0.87    0.61
   6   4  -9    0.84    0.38
   6   4  -9    0.65    0.47
  -6  -4   9    0.55    0.35
  -6  -4   9    0.03    0.49
   5   4  -9   -0.07    0.29
   5   4  -9    0.20    0.36
   5   4  -9    0.05    0.34
  -5  -4   9    0.62    0.42
  -5  -4   9    0.30    0.30
   4   4  -9   -0.22    0.26
   4   4  -9    0.29    0.26
   4   4  -9    0.09    0.27
  -4  -4   9   -0.29    0.32
  -4  -4   9   -0.14    0.22
  -4  -4   9    0.08    0.27
   3   4  -9    6.26    0.60
   3   4  -9    6.76    0.61
   3   4  -9    6.58    0.56
  -3  -4   9    7.76    0.69
  -3  -4   9    7.62    0.65
   2   4  -9   58.32    3.38
   2   4  -9   60.76    3.46
   2   4  -9   56.62    3.43
   2   4  -9   57.39    3.45
  -2  -4   9   56.12    3.37
  -2  -4   9   65.09    3.50
  -2  -4   9   60.51    3.48
   1   4  -9    6.40    0.54
   1   4  -9    6.59    0.54
   1   4  -9    6.30    0.57
  -1  -4   9    6.66    0.60
  -1  -4   9    7.28    0.61
   0   4  -9    5.05    0.44
   0   4  -9    5.98    0.52
   0   4  -9    4.74    0.51
   0  -4   9    4.58    0.53
  -1   4  -9    5.41    0.44
  -1   4  -9    5.25    0.50
  -1   4  -9    4.22    0.53
   1  -4   9    5.80    0.55
  -2   4  -9    9.11    0.65
  -2   4  -9    9.53    0.72
   2  -4   9   10.20    0.75
   2  -4   9    8.92    0.84
  -3   4  -9    2.49    0.35
  -3   4  -9    3.22    0.36
  -3   4  -9    2.66    0.34
   3  -4   9    3.04    0.44
   3  -4   9    3.76    0.54
   3  -4   9    2.81    0.30
  -4   4  -9    2.04    0.35
  -4   4  -9    2.67    0.32
  -4   4  -9    2.65    0.37
   4  -4   9    2.47    0.57
   4  -4   9    2.32    0.34
   4  -4   9    1.92    0.35
  -5   4  -9    3.40    0.44
  -5   4  -9    2.68    0.42
  -5   4  -9    3.17    0.37
   5  -4   9    3.08    0.49
   5  -4   9    3.07    0.43
   5  -4   9    3.30    0.65
  -6   4  -9   -0.13    0.32
  -6   4  -9    0.21    0.29
   6  -4   9    0.54    0.64
   6  -4   9   -0.41    0.39
  -7   4  -9   -0.20    0.47
   7  -4   9    0.22    0.71
   7  -4   9   -0.02    0.51
   8   3  -9   -0.01    0.41
   8   3  -9    0.61    0.76
  -8  -3   9   -1.46    0.71
   7   3  -9    0.60    0.59
   7   3  -9    1.02    0.40
  -7  -3   9    0.94    0.42
  -7  -3   9    0.68    0.59
   6   3  -9    0.36    0.30
   6   3  -9   -0.38    0.43
  -6  -3   9    0.12    0.46
  -6  -3   9    0.23    0.37
   5   3  -9    1.36    0.40
   5   3  -9    0.71    0.28
  -5  -3   9    1.25    0.41
  -5  -3   9    1.76    0.35
   4   3  -9   -0.08    0.29
   4   3  -9    0.28    0.24
  -4  -3   9    0.11    0.29
  -4  -3   9    0.21    0.21
  -4  -3   9    0.16    0.25
   3   3  -9   31.17    1.87
   3   3  -9   32.39    1.85
   3   3  -9   32.81    1.87
   3   3  -9   29.13    1.86
  -3  -3   9   33.68    1.90
  -3  -3   9   30.17    1.91
  -3  -3   9   27.93    1.82
   2   3  -9   39.50    2.36
   2   3  -9   39.26    2.33
   2   3  -9   40.78    2.36
   2   3  -9   39.22    2.36
  -2  -3   9   40.58    2.39
  -2  -3   9   43.93    2.41
  -2  -3   9   37.12    2.30
   1   3  -9    4.78    0.39
   1   3  -9    3.60    0.41
   1   3  -9    4.44    0.43
  -1  -3   9    2.77    0.37
  -1  -3   9    5.17    0.47
  -1  -3   9    3.58    0.28
  -1  -3   9    4.38    0.45
   0   3  -9   15.65    0.97
   0   3  -9   13.95    0.96
   0   3  -9   14.75    0.93
   0   3  -9   15.38    0.96
   0  -3   9   16.22    1.01
   0  -3   9   13.11    0.84
   0  -3   9   13.32    0.84
   0  -3   9   15.68    1.00
  -1   3  -9    1.06    0.20
  -1   3  -9    1.67    0.27
  -1   3  -9    1.60    0.28
   1  -3   9    0.98    0.14
   1  -3   9    1.16    0.29
   1  -3   9    0.79    0.13
   1  -3   9    1.19    0.23
  -2   3  -9    1.74    0.25
  -2   3  -9    1.63    0.23
  -2   3  -9    1.59    0.30
   2  -3   9    1.29    0.25
   2  -3   9    1.85    0.23
   2  -3   9    2.21    0.40
  -3   3  -9    3.15    0.39
  -3   3  -9    3.46    0.45
  -3   3  -9    3.85    0.41
   3  -3   9    3.20    0.35
   3  -3   9    3.03    0.42
   3  -3   9    4.20    0.56
  -4   3  -9   11.55    0.80
  -4   3  -9    9.96    0.75
  -4   3  -9   10.97    0.78
   4  -3   9    9.47    0.97
   4  -3   9   10.33    0.74
  -5   3  -9    7.56    0.65
  -5   3  -9    7.92    0.66
  -5   3  -9    6.99    0.72
   5  -3   9    6.98    0.67
   5  -3   9    8.45    0.96
  -6   3  -9    0.35    0.32
  -6   3  -9   -0.10    0.33
   6  -3   9   -0.25    0.61
   6  -3   9    0.56    0.42
  -7   3  -9    1.24    0.45
   7  -3   9    2.25    0.61
   7  -3   9   -0.44    0.74
   8   2  -9   -0.78    0.35
   8   2  -9   -1.13    0.75
  -8  -2   9    0.22    0.65
  -8  -2   9    0.33    0.49
   7   2  -9   -0.03    0.31
   7   2  -9   -0.03    0.59
  -7  -2   9   -0.52    0.41
  -7  -2   9    0.19    0.54
   6   2  -9    0.34    0.47
   6   2  -9    0.52    0.28
  -6  -2   9    0.21    0.44
  -6  -2   9   -0.02    0.36
   5   2  -9    7.94    0.66
   5   2  -9    8.33    0.78
  -5  -2   9    7.50    0.76
  -5  -2   9    7.39    0.73
   4   2  -9    0.57    0.21
   4   2  -9    0.85    0.31
  -4  -2   9    0.72    0.28
  -4  -2   9    0.95    0.29
  -4  -2   9    0.03    0.22
   3   2  -9   20.26    1.22
   3   2  -9   20.50    1.25
   3   2  -9   18.42    1.19
  -3  -2   9   18.31    1.25
  -3  -2   9   20.22    1.26
   2   2  -9   24.81    1.36
   2   2  -9   21.02    1.38
   2   2  -9   21.30    1.37
   2   2  -9   21.19    1.38
  -2  -2   9   22.82    1.39
  -2  -2   9   23.61    1.41
   1   2  -9    8.92    0.68
   1   2  -9    9.74    0.67
   1   2  -9    9.72    0.67
  -1  -2   9    9.04    0.81
  -1  -2   9   10.56    0.73
  -1  -2   9   10.12    0.66
  -1  -2   9    9.04    0.64
  -1  -2   9   10.45    0.69
   0   2  -9    4.25    0.42
   0   2  -9    5.42    0.42
   0   2  -9    4.88    0.42
   0   2  -9    5.03    0.41
   0  -2   9    5.07    0.42
   0  -2   9    4.76    0.50
   0  -2   9    4.76    0.38
   0  -2   9    3.64    0.38
  -1   2  -9   -0.27    0.13
  -1   2  -9   -0.06    0.20
  -1   2  -9    0.12    0.16
   1  -2   9    0.02    0.16
   1  -2   9   -0.04    0.25
   1  -2   9    0.12    0.18
  -2   2  -9   19.10    1.18
  -2   2  -9   20.52    1.22
  -2   2  -9   17.40    1.16
   2  -2   9   19.01    1.15
   2  -2   9   18.48    1.26
  -3   2  -9    2.73    0.35
  -3   2  -9    2.36    0.29
  -3   2  -9    2.20    0.29
   3  -2   9    2.94    0.49
   3  -2   9    1.35    0.48
   3  -2   9    2.45    0.35
  -4   2  -9    0.53    0.33
  -4   2  -9    0.79    0.24
  -4   2  -9    0.75    0.26
   4  -2   9    0.86    0.41
   4  -2   9    0.73    0.27
  -5   2  -9    0.95    0.28
  -5   2  -9    1.16    0.35
   5  -2   9    0.69    0.52
   5  -2   9    0.78    0.34
  -6   2  -9    0.02    0.36
  -6   2  -9    0.25    0.32
   6  -2   9    0.46    0.42
   6  -2   9   -0.44    0.60
  -7   2  -9    1.90    0.44
  -7   2  -9    3.06    0.50
   7  -2   9    3.80    0.63
   7  -2   9    2.94    0.81
   8   1  -9    1.91    0.79
  -8  -1   9    0.84    0.56
  -8  -1   9    0.50    0.60
   7   1  -9    1.28    0.35
   7   1  -9    1.70    0.67
  -7  -1   9    0.62    0.48
  -7  -1   9    0.65    0.51
   6   1  -9    1.15    0.31
   6   1  -9    1.93    0.56
  -6  -1   9    1.72    0.38
  -6  -1   9    1.34    0.45
   5   1  -9    4.10    0.49
   5   1  -9    4.73    0.43
   5   1  -9    4.83    0.64
  -5  -1   9    4.47    0.60
  -5  -1   9    4.77    0.61
   4   1  -9    0.12    0.19
   4   1  -9    0.34    0.32
   4   1  -9   -0.02    0.14
  -4  -1   9    0.66    0.29
  -4  -1   9    0.16    0.25
  -4  -1   9   -0.01    0.23
   3   1  -9   75.30    4.81
   3   1  -9   81.67    4.89
   3   1  -9   88.17    4.85
  -3  -1   9   88.69    4.89
  -3  -1   9   94.64    4.87
  -3  -1   9   79.15    4.86
   2   1  -9    7.06    0.60
   2   1  -9    6.80    0.52
  -2  -1   9    5.89    0.53
  -2  -1   9    8.09    0.60
  -2  -1   9    7.04    0.56
   1   1  -9    2.12    0.28
   1   1  -9    2.22    0.30
   1   1  -9    2.56    0.28
  -1  -1   9    1.81    0.28
  -1  -1   9    2.82    0.35
  -1  -1   9    2.52    0.35
  -1  -1   9    2.27    0.34
   0   1  -9    2.84    0.32
   0   1  -9    2.19    0.27
   0  -1   9    2.50    0.35
   0  -1   9    2.82    0.40
   0  -1   9    2.38    0.34
  -1   1  -9    6.24    0.45
  -1   1  -9    5.33    0.51
  -1   1  -9    7.81    0.53
   1  -1   9    7.37    0.60
   1  -1   9    6.36    0.51
   1  -1   9    5.69    0.54
  -2   1  -9   14.86    0.95
  -2   1  -9   14.58    0.89
   2  -1   9   13.56    0.94
   2  -1   9   14.42    1.01
  -3   1  -9    3.84    0.57
  -3   1  -9    6.59    0.45
  -3   1  -9    6.25    0.54
   3  -1   9    5.28    0.55
   3  -1   9    5.78    0.64
   3  -1   9    4.07    0.53
  -4   1  -9    9.92    0.70
  -4   1  -9    9.61    0.80
  -4   1  -9    9.89    0.84
   4  -1   9   10.95    0.92
   4  -1   9    8.44    0.77
  -5   1  -9    4.23    0.60
  -5   1  -9    4.02    0.47
   5  -1   9    2.55    0.58
   5  -1   9    2.39    0.45
  -6   1  -9    3.58    0.54
  -6   1  -9    3.53    0.50
   6  -1   9    2.29    0.55
   6  -1   9    3.26    0.70
  -7   1  -9    0.68    0.50
  -7   1  -9    1.50    0.39
   7  -1   9    0.84    0.58
   7  -1   9    2.58    0.73
   8   0  -9    0.83    0.86
  -8   0   9   -0.53    0.54
  -8   0   9    0.20    0.56
   7   0  -9    1.11    0.69
   7   0  -9    2.03    0.37
  -7   0   9    1.55    0.51
  -7   0   9    1.84    0.46
   6   0  -9    0.20    0.28
   6   0  -9   -0.30    0.53
  -6   0   9    0.21    0.39
  -6   0   9   -0.12    0.36
   5   0  -9    2.44    0.52
   5   0  -9    2.73    0.34
   5   0  -9    2.32    0.27
  -5   0   9    2.31    0.38
  -5   0   9    2.43    0.39
   4   0  -9    2.44    0.30
   4   0  -9    2.00    0.23
   4   0  -9    1.90    0.45
  -4   0   9    2.04    0.30
  -4   0   9    1.78    0.35
   3   0  -9    3.30    0.39
   3   0  -9    2.79    0.44
   3   0  -9    3.52    0.28
  -3   0   9    3.43    0.51
  -3   0   9    3.31    0.38
  -3   0   9    3.60    0.44
   2   0  -9    1.71    0.25
   2   0  -9    1.18    0.17
   2   0  -9    1.31    0.36
  -2   0   9    1.57    0.20
  -2   0   9    1.64    0.32
  -2   0   9    0.97    0.29
   1   0  -9   28.10    1.75
   1   0  -9   29.07    1.76
   1   0  -9   31.89    1.83
  -1   0   9   32.41    1.87
  -1   0   9   31.99    1.87
  -1   0   9   30.54    1.86
   0   0  -9    6.05    0.46
   0   0  -9    7.83    0.57
   0   0   9    8.00    0.63
   0   0   9    8.55    0.63
   0   0   9    7.54    0.61
  -1   0  -9    1.72    0.21
  -1   0  -9    1.20    0.25
  -1   0  -9    2.21    0.30
   1   0   9    2.00    0.31
   1   0   9    1.78    0.33
   1   0   9    1.35    0.33
  -2   0  -9    1.63    0.19
  -2   0  -9    1.30    0.28
   2   0   9    1.57    0.25
   2   0   9    1.40    0.32
   2   0   9    0.87    0.36
   2   0   9    1.24    0.31
  -3   0  -9    7.82    0.56
  -3   0  -9    6.73    0.68
  -3   0  -9    8.77    0.76
   3   0   9    7.80    0.66
   3   0   9    9.53    0.75
   3   0   9    8.41    0.73
  -4   0  -9   -0.08    0.32
  -4   0  -9   -0.08    0.17
   4   0   9   -0.05    0.40
   4   0   9    0.33    0.39
  -5   0  -9    5.56    0.53
  -5   0  -9    7.31    0.76
   5   0   9    5.61    0.83
   5   0   9    5.15    0.62
  -6   0  -9   -0.27    0.28
  -6   0  -9   -0.14    0.47
   6   0   9    0.04    0.48
   6   0   9   -0.08    0.60
  -7   0  -9    0.46    0.40
  -7   0  -9   -0.88    0.56
   7   0   9   -0.05    0.56
   7   0   9    1.78    0.68
   7  -1  -9    1.70    0.34
   7  -1  -9    1.57    0.75
  -7   1   9    1.25    0.53
  -7   1   9    0.58    0.45
   6  -1  -9    6.75    0.98
   6  -1  -9    6.28    0.65
  -6   1   9    6.15    0.78
  -6   1   9    5.96    0.68
   5  -1  -9    5.46    0.55
   5  -1  -9    5.09    0.74
   5  -1  -9    4.50    0.38
  -5   1   9    5.16    0.67
  -5   1   9    4.78    0.56
   4  -1  -9    0.32    0.17
   4  -1  -9    0.50    0.25
   4  -1  -9    0.21    0.39
  -4   1   9    0.08    0.31
  -4   1   9   -0.05    0.23
   3  -1  -9   14.45    0.84
   3  -1  -9   16.55    0.97
   3  -1  -9   14.25    1.10
  -3   1   9   12.34    0.86
  -3   1   9   14.42    1.03
   2  -1  -9   -0.08    0.32
  -2   1   9   -0.18    0.30
  -2   1   9   -0.10    0.27
   1  -1  -9   13.44    0.85
  -1   1   9   12.32    0.88
  -1   1   9    9.72    0.88
   0  -1  -9    9.67    0.71
   0   1   9    9.88    0.73
   0   1   9    7.43    0.74
   0   1   9    9.25    0.75
  -1  -1  -9    8.26    0.65
  -1  -1  -9    8.16    0.46
  -1  -1  -9    6.68    0.51
   1   1   9    7.88    0.69
   1   1   9    7.17    0.65
   1   1   9    6.88    0.71
  -2  -1  -9   -0.14    0.11
  -2  -1  -9    0.05    0.26
   2   1   9    0.26    0.27
   2   1   9    0.03    0.28
   2   1   9   -0.26    0.33
  -3  -1  -9    4.67    0.63
  -3  -1  -9    6.34    0.42
   3   1   9    4.39    0.56
   3   1   9    4.19    0.60
   3   1   9    5.35    0.73
  -4  -1  -9    0.71    0.37
   4   1   9    0.56    0.43
   4   1   9    0.67    0.31
   4   1   9    0.48    0.41
  -5  -1  -9   -0.32    0.44
  -5  -1  -9    0.09    0.27
   5   1   9   -0.03    0.50
   5   1   9    0.37    0.49
  -6  -1  -9    3.38    0.65
  -6  -1  -9    5.05    0.67
   6   1   9    3.37    0.69
   6   1   9    3.10    0.65
   7  -2  -9    0.62    0.80
  -7   2   9    3.03    0.65
   6  -2  -9    0.30    0.64
   6  -2  -9    0.74    0.34
  -6   2   9    0.53    0.31
  -6   2   9    0.41    0.45
   5  -2  -9    0.28    0.55
   5  -2  -9    0.06    0.30
  -5   2   9    0.29    0.41
  -5   2   9    0.04    0.25
   4  -2  -9    0.14    0.47
   4  -2  -9    0.39    0.13
   4  -2  -9    1.35    0.33
  -4   2   9    0.39    0.37
  -4   2   9    0.80    0.18
   3  -2  -9    9.08    0.95
   3  -2  -9    9.48    0.75
  -3   2   9    8.50    0.78
   2  -2  -9    1.91    0.35
  -2   2   9    2.29    0.51
  -2   2   9    1.87    0.38
   1  -2  -9    1.53    0.33
  -1   2   9    1.39    0.41
  -1   2   9    1.98    0.39
   0  -2  -9    0.31    0.25
   0   2   9   -0.14    0.34
   0   2   9    0.41    0.30
  -1  -2  -9    5.95    0.64
   1   2   9    5.61    0.75
   1   2   9    6.61    0.65
  -2  -2  -9   20.52    1.40
  -2  -2  -9   20.18    1.22
   2   2   9   22.45    1.44
   2   2   9   20.94    1.39
   2   2   9   19.47    1.24
  -3  -2  -9   10.41    0.90
  -3  -2  -9   10.22    0.67
   3   2   9    9.35    0.92
   3   2   9    8.96    0.88
   3   2   9    9.79    0.71
  -4  -2  -9   -0.07    0.42
  -4  -2  -9    0.62    0.26
   4   2   9    0.24    0.44
   4   2   9    0.21    0.49
  -5  -2  -9    2.03    0.39
  -5  -2  -9    0.83    0.56
   5   2   9    2.32    0.64
   5   2   9    2.39    0.55
  -6  -2  -9    0.42    0.41
  -6  -2  -9    0.23    0.67
   6   2   9    0.34    0.71
   7  -3  -9    1.04    0.80
  -7   3   9    1.31    0.61
   6  -3  -9   -0.35    0.67
   6  -3  -9    0.58    0.36
  -6   3   9    1.09    0.55
   5  -3  -9    0.10    0.36
   5  -3  -9    0.29    0.62
  -5   3   9    1.62    0.51
   4  -3  -9    0.28    0.35
   4  -3  -9    0.49    0.57
  -4   3   9    0.46    0.43
   3  -3  -9   -0.37    0.49
   3  -3  -9   -0.29    0.32
  -3   3   9   -0.03    0.33
   2  -3  -9   -0.46    0.30
  -2   3   9   -0.16    0.44
  -2   3   9    0.10    0.33
   1  -3  -9    0.07    0.29
  -1   3   9   -0.06    0.44
  -1   3   9    0.34    0.31
   0  -3  -9   -0.12    0.33
   0   3   9   -0.20    0.32
   0   3   9   -0.35    0.42
  -1  -3  -9   -0.44    0.32
   1   3   9   -0.49    0.41
   1   3   9    0.17    0.35
  -2  -3  -9    5.40    0.44
  -2  -3  -9    7.60    0.78
   2   3   9    8.51    0.87
  -3  -3  -9    1.10    0.24
  -3  -3  -9    0.82    0.50
   3   3   9    0.83    0.51
   3   3   9    1.29    0.42
  -4  -3  -9    1.69    0.60
  -4  -3  -9    1.63    0.36
   4   3   9    1.38    0.49
   4   3   9    1.33    0.64
  -5  -3  -9    0.78    0.67
   5   3   9    0.56    0.62
   6  -4  -9   -1.14    0.79
  -6   4   9   -0.17    0.54
   5  -4  -9    0.05    0.41
   5  -4  -9    1.08    0.76
  -5   4   9   -0.63    0.53
   4  -4  -9   -0.30    0.41
   4  -4  -9   -0.07    0.65
  -4   4   9   -0.10    0.45
   3  -4  -9    0.58    0.42
  -3   4   9   -0.16    0.58
  -3   4   9    1.14    0.41
   2  -4  -9    0.35    0.41
  -2   4   9    0.34    0.59
  -2   4   9    0.98    0.39
   1  -4  -9    0.18    0.39
  -1   4   9    1.37    0.53
  -1   4   9   -0.32    0.40
   0  -4  -9    1.13    0.43
   0   4   9   -0.04    0.38
   0   4   9    0.53    0.52
  -1  -4  -9    1.79    0.49
   1   4   9    1.29    0.58
   1   4   9    1.40    0.45
  -2  -4  -9    6.39    0.94
   2   4   9    7.91    1.02
   2   4   9    6.68    0.81
  -3  -4  -9    2.25    0.67
   3   4   9    2.04    0.64
   3   4   9    2.12    0.51
  -4  -4  -9   -0.42    0.65
   4   4   9   -1.20    0.72
   5  -5  -9    0.21    0.49
   5  -5  -9   -0.18    0.78
  -5   5   9   -0.14    0.59
   4  -5  -9   -0.27    0.53
   4  -5  -9   -0.13    0.80
  -4   5   9    0.10    0.58
   3  -5  -9   -0.83    0.49
  -3   5   9   -0.49    0.67
  -3   5   9   -0.41    0.50
   2  -5  -9    2.23    0.57
  -2   5   9    1.89    0.74
  -2   5   9    1.23    0.51
   1  -5  -9    3.95    0.68
  -1   5   9    3.96    0.82
  -1   5   9    4.34    0.65
   0  -5  -9   -0.29    0.50
   0   5   9   -0.29    0.62
   0   5   9    0.39    0.46
  -1  -5  -9    0.73    0.57
   1   5   9    1.70    0.69
   1   5   9    0.95    0.51
  -2  -5  -9    3.40    0.76
   2   5   9    2.53    0.56
   2   5   9    3.92    0.82
  -3  -5  -9   -0.73    0.62
   3   5   9   -0.98    0.64
   3  -6  -9    0.56    0.63
  -3   6   9   -0.62    0.58
  -3   6   9    1.37    0.81
   2  -6  -9    0.26    0.61
  -2   6   9    0.03    0.55
  -2   6   9    0.52    0.78
   1  -6  -9    0.35    0.66
  -1   6   9   -0.52    0.81
  -1   6   9    0.42    0.59
   0  -6  -9    0.03    0.63
   0   6   9   -0.06    0.57
   0   6   9   -0.33    0.78
  -1  -6  -9    0.33    0.67
   1   6   9    1.07    0.78
   1   6   9    0.74    0.53
   0  10 -10    0.70    0.72
   0  10 -10   -0.94    0.59
   0 -10  10    0.22    0.68
  -1  10 -10    1.52    0.61
   1 -10  10   -0.08    0.72
   3   9 -10    0.56    0.59
  -3  -9  10   -0.14    0.63
   2   9 -10    0.19    0.58
  -2  -9  10   -0.72    0.61
  -2  -9  10   -0.21    0.48
   1   9 -10   -0.07    0.50
   1   9 -10    0.09    0.59
  -1  -9  10   -0.18    0.57
   0   9 -10   -0.52    0.46
   0   9 -10    0.82    0.64
   0  -9  10    0.07    0.55
  -1   9 -10    0.23    0.45
  -1   9 -10    0.48    0.58
   1  -9  10    1.12    0.60
  -2   9 -10    0.45    0.53
  -2   9 -10    0.62    0.42
   2  -9  10    0.01    0.63
  -3   9 -10    0.49    0.41
  -3   9 -10    1.35    0.51
   3  -9  10    0.60    0.69
   4  -9  10   -0.10    0.78
   4   8 -10    1.53    0.60
  -4  -8  10    1.31    0.74
   3   8 -10    0.57    0.51
  -3  -8  10    0.04    0.44
  -3  -8  10    0.41    0.62
   2   8 -10   -0.21    0.44
  -2  -8  10   -0.16    0.53
  -2  -8  10    0.76    0.48
   1   8 -10   -0.10    0.39
  -1  -8  10    0.56    0.54
  -1  -8  10    0.13    0.47
   0   8 -10   -0.21    0.37
   0   8 -10   -0.13    0.47
   0  -8  10   -0.04    0.50
  -1   8 -10    0.29    0.46
  -1   8 -10    0.16    0.35
   1  -8  10    0.92    0.53
  -2   8 -10    0.15    0.43
  -2   8 -10   -0.18    0.34
   2  -8  10    0.73    0.62
  -3   8 -10    0.04    0.35
  -3   8 -10    0.85    0.46
   3  -8  10   -0.20    0.57
  -4   8 -10    0.45    0.29
  -4   8 -10    0.69    0.42
   4  -8  10    1.40    0.75
  -5   8 -10    3.27    0.56
   5  -8  10    1.46    0.82
   5   7 -10    0.20    0.53
  -5  -7  10   -0.23    0.59
   4   7 -10    0.43    0.47
  -4  -7  10    0.14    0.37
  -4  -7  10    0.61    0.53
   3   7 -10    0.20    0.43
  -3  -7  10    0.39    0.42
  -3  -7  10    0.56    0.45
   2   7 -10   -0.44    0.36
  -2  -7  10   -0.04    0.43
  -2  -7  10   -0.29    0.41
   1   7 -10    0.23    0.34
  -1  -7  10    0.83    0.43
  -1  -7  10    1.16    0.46
   0   7 -10    0.79    0.42
   0   7 -10    0.83    0.34
   0  -7  10    1.99    0.50
  -1   7 -10   -0.03    0.30
  -1   7 -10    0.24    0.36
   1  -7  10    0.58    0.45
  -2   7 -10   -0.11    0.37
  -2   7 -10    0.12    0.28
   2  -7  10    0.22    0.50
  -3   7 -10    0.63    0.30
  -3   7 -10    1.09    0.39
   3  -7  10    1.15    0.63
  -4   7 -10    0.52    0.28
  -4   7 -10   -0.28    0.37
   4  -7  10    0.82    0.64
  -5   7 -10    0.87    0.48
  -5   7 -10    0.38    0.27
   5  -7  10    0.73    0.78
   6   6 -10    0.55    0.49
   6   6 -10   -0.05    0.54
  -6  -6  10    0.70    0.75
   5   6 -10   -0.18    0.38
   5   6 -10   -0.42    0.45
  -5  -6  10   -0.26    0.53
  -5  -6  10   -0.07    0.35
   4   6 -10    0.21    0.36
   4   6 -10   -0.14    0.27
  -4  -6  10    0.14    0.38
  -4  -6  10    0.28    0.48
   3   6 -10    0.74    0.25
   3   6 -10    0.69    0.37
  -3  -6  10    0.99    0.47
  -3  -6  10    0.51    0.37
   2   6 -10    1.33    0.35
  -2  -6  10    1.68    0.45
  -2  -6  10    1.47    0.42
   1   6 -10    0.96    0.32
  -1  -6  10    1.47    0.42
  -1  -6  10    1.97    0.43
   0   6 -10    1.23    0.32
   0   6 -10    1.94    0.42
   0  -6  10    1.77    0.45
  -1   6 -10    0.49    0.32
  -1   6 -10    0.22    0.24
   1  -6  10    0.43    0.39
  -2   6 -10   -0.17    0.31
  -2   6 -10    0.35    0.24
   2  -6  10    0.18    0.45
  -3   6 -10    0.54    0.35
  -3   6 -10    0.30    0.24
   3  -6  10    0.92    0.55
  -4   6 -10   -0.15    0.23
  -4   6 -10   -0.18    0.33
   4  -6  10    0.11    0.59
  -5   6 -10    5.31    0.62
  -5   6 -10    5.82    0.76
   5  -6  10    6.09    0.95
  -6   6 -10    1.23    0.48
   6  -6  10    1.40    0.74
   7   5 -10    0.56    0.49
   7   5 -10    0.22    0.62
  -7  -5  10   -0.05    0.74
   6   5 -10   -0.19    0.50
   6   5 -10    0.16    0.45
  -6  -5  10    0.33    0.62
  -6  -5  10    0.52    0.38
   5   5 -10   -0.21    0.38
   5   5 -10   -0.23    0.36
  -5  -5  10    0.05    0.50
  -5  -5  10   -0.05    0.37
   4   5 -10    2.73    0.44
   4   5 -10    2.80    0.38
  -4  -5  10    2.12    0.42
  -4  -5  10    2.34    0.51
   3   5 -10    2.11    0.38
   3   5 -10    2.11    0.31
  -3  -5  10    2.12    0.27
  -3  -5  10    2.51    0.41
  -3  -5  10    2.14    0.48
   2   5 -10    1.12    0.29
  -2  -5  10    1.15    0.38
  -2  -5  10    0.89    0.33
   1   5 -10    2.33    0.35
  -1  -5  10    2.99    0.48
  -1  -5  10    1.77    0.42
   0   5 -10    2.44    0.34
   0   5 -10    2.56    0.46
   0  -5  10    2.88    0.48
  -1   5 -10    3.05    0.45
  -1   5 -10    2.06    0.31
   1  -5  10    2.97    0.49
  -2   5 -10    7.93    0.59
  -2   5 -10    6.69    0.67
   2  -5  10    5.79    0.77
  -3   5 -10    0.88    0.29
  -3   5 -10    0.21    0.24
   3  -5  10    0.30    0.47
  -4   5 -10    5.33    0.56
  -4   5 -10    6.14    0.63
   4  -5  10    5.39    0.47
   4  -5  10    6.59    0.83
  -5   5 -10    3.55    0.44
  -5   5 -10    4.74    0.65
   5  -5  10    3.48    0.48
   5  -5  10    4.18    0.78
  -6   5 -10    1.41    0.47
  -6   5 -10    1.08    0.44
   6  -5  10    1.73    0.79
   7   4 -10    0.73    0.64
   7   4 -10   -0.80    0.43
  -7  -4  10   -0.58    0.66
   6   4 -10    0.58    0.37
   6   4 -10    0.77    0.52
  -6  -4  10    0.06    0.40
  -6  -4  10   -0.17    0.49
   5   4 -10    2.71    0.50
   5   4 -10    2.88    0.45
  -5  -4  10    3.20    0.51
  -5  -4  10    3.67    0.62
   4   4 -10   -0.09    0.28
   4   4 -10   -0.43    0.29
  -4  -4  10    0.22    0.33
  -4  -4  10    0.34    0.22
  -4  -4  10   -0.06    0.39
   3   4 -10   -0.27    0.24
   3   4 -10    0.13    0.23
  -3  -4  10   -0.02    0.31
  -3  -4  10    0.14    0.35
   2   4 -10    1.02    0.27
   2   4 -10    1.35    0.21
  -2  -4  10    1.34    0.17
  -2  -4  10    1.25    0.35
  -2  -4  10    1.24    0.35
   1   4 -10    2.83    0.40
   1   4 -10    2.23    0.31
  -1  -4  10    3.10    0.42
  -1  -4  10    3.00    0.39
   0   4 -10    5.71    0.51
   0   4 -10    4.55    0.57
   0   4 -10    6.82    0.59
   0  -4  10    6.42    0.67
  -1   4 -10    0.19    0.23
  -1   4 -10    0.06    0.21
   1  -4  10   -0.29    0.31
  -2   4 -10    0.54    0.22
  -2   4 -10    0.49    0.25
   2  -4  10    0.60    0.37
  -3   4 -10    1.86    0.33
  -3   4 -10    2.16    0.35
  -3   4 -10    1.38    0.28
   3  -4  10    1.91    0.53
   3  -4  10    1.42    0.25
  -4   4 -10    4.55    0.57
  -4   4 -10    5.16    0.57
  -4   4 -10    5.97    0.60
   4  -4  10    5.13    0.73
   4  -4  10    4.90    0.46
  -5   4 -10   -0.21    0.30
  -5   4 -10    0.21    0.33
   5  -4  10   -0.14    0.29
   5  -4  10   -0.72    0.60
  -6   4 -10    0.12    0.37
  -6   4 -10    0.92    0.36
   6  -4  10    0.72    0.46
   6  -4  10    0.71    0.76
  -7   4 -10    4.05    0.59
   7  -4  10    2.81    0.96
   7   3 -10    0.55    0.66
   7   3 -10    0.35    0.40
  -7  -3  10    1.05    0.48
  -7  -3  10   -0.41    0.60
   6   3 -10    0.56    0.33
   6   3 -10    2.10    0.57
  -6  -3  10    0.82    0.43
  -6  -3  10    1.76    0.56
   5   3 -10    1.75    0.35
   5   3 -10    2.29    0.49
  -5  -3  10    2.06    0.49
  -5  -3  10    2.03    0.43
   4   3 -10    0.47    0.26
   4   3 -10    0.38    0.35
  -4  -3  10   -0.21    0.34
  -4  -3  10    0.34    0.35
  -4  -3  10    0.42    0.20
   3   3 -10    0.44    0.25
   3   3 -10    0.01    0.21
  -3  -3  10    0.11    0.29
  -3  -3  10    0.06    0.28
  -3  -3  10   -0.24    0.17
   2   3 -10    7.74    0.57
   2   3 -10    6.13    0.57
   2   3 -10    7.04    0.58
  -2  -3  10    7.37    0.67
  -2  -3  10    7.07    0.50
  -2  -3  10    7.78    0.65
   1   3 -10    1.67    0.30
   1   3 -10    1.49    0.28
  -1  -3  10    1.61    0.18
  -1  -3  10    1.47    0.33
   0   3 -10    0.29    0.21
   0   3 -10    0.12    0.24
   0   3 -10    0.01    0.22
   0  -3  10    0.19    0.32
   0  -3  10    0.04    0.10
   0  -3  10    0.34    0.11
  -1   3 -10   14.46    0.94
  -1   3 -10   13.11    0.91
  -1   3 -10   15.23    0.97
   1  -3  10   14.11    1.02
   1  -3  10   13.40    0.87
   1  -3  10   14.07    0.83
  -2   3 -10    9.28    0.69
  -2   3 -10    9.00    0.67
  -2   3 -10    8.34    0.76
   2  -3  10    9.40    0.64
   2  -3  10    9.94    0.61
   2  -3  10    9.35    0.80
  -3   3 -10    0.31    0.26
  -3   3 -10    0.38    0.27
  -3   3 -10    0.60    0.25
   3  -3  10    0.14    0.42
   3  -3  10    0.44    0.18
  -4   3 -10    1.21    0.30
  -4   3 -10    1.37    0.34
  -4   3 -10    0.76    0.29
   4  -3  10    1.63    0.54
   4  -3  10    0.91    0.28
  -5   3 -10    0.40    0.32
  -5   3 -10    0.83    0.34
   5  -3  10    0.62    0.36
   5  -3  10    1.08    0.59
  -6   3 -10    3.90    0.52
  -6   3 -10    4.14    0.54
   6  -3  10    3.69    0.58
   6  -3  10    3.52    0.82
  -7   3 -10    1.97    0.50
   7  -3  10    1.62    0.57
   7  -3  10    1.09    0.88
   7   2 -10   -0.51    0.67
   7   2 -10    0.89    0.41
  -7  -2  10    0.49    0.60
  -7  -2  10    0.69    0.51
   6   2 -10    0.13    0.31
   6   2 -10    0.28    0.55
  -6  -2  10    0.58    0.41
  -6  -2  10    0.41    0.42
   5   2 -10    0.84    0.29
   5   2 -10    0.93    0.49
  -5  -2  10    0.86    0.39
  -5  -2  10    1.14    0.45
   4   2 -10    0.25    0.24
   4   2 -10    0.56    0.35
   4   2 -10   -0.13    0.17
  -4  -2  10    0.00    0.22
  -4  -2  10   -0.17    0.30
  -4  -2  10   -0.17    0.27
   3   2 -10   23.65    1.59
   3   2 -10   27.24    1.63
   3   2 -10   26.15    1.66
  -3  -2  10   26.68    1.62
  -3  -2  10   26.44    1.69
  -3  -2  10   30.45    1.69
   2   2 -10   30.19    1.87
   2   2 -10   36.27    1.88
   2   2 -10   28.60    1.84
  -2  -2  10   28.72    1.91
  -2  -2  10   33.21    1.88
  -2  -2  10   28.90    1.83
   1   2 -10    7.24    0.55
   1   2 -10    7.13    0.54
  -1  -2  10    6.90    0.54
  -1  -2  10    6.65    0.63
  -1  -2  10    6.07    0.51
   0   2 -10    1.23    0.24
   0   2 -10    1.43    0.23
   0  -2  10    1.19    0.24
   0  -2  10    1.29    0.23
   0  -2  10    0.84    0.32
  -1   2 -10    8.87    0.59
  -1   2 -10    8.70    0.72
  -1   2 -10    6.24    0.62
   1  -2  10    7.90    0.57
   1  -2  10    7.42    0.73
   1  -2  10    8.10    0.60
  -2   2 -10   21.80    1.25
  -2   2 -10   19.12    1.28
   2  -2  10   21.00    1.24
   2  -2  10   20.74    1.39
   2  -2  10   18.09    1.29
  -3   2 -10    3.87    0.42
  -3   2 -10    3.76    0.45
  -3   2 -10    4.90    0.49
   3  -2  10    3.66    0.45
   3  -2  10    5.01    0.67
  -4   2 -10    9.61    0.73
  -4   2 -10    9.30    0.77
  -4   2 -10   10.15    0.84
   4  -2  10    9.26    0.97
   4  -2  10    9.78    0.76
  -5   2 -10   -0.28    0.30
  -5   2 -10    0.40    0.37
   5  -2  10   -0.11    0.57
   5  -2  10   -0.20    0.37
  -6   2 -10    0.93    0.43
  -6   2 -10    0.39    0.36
   6  -2  10    1.06    0.71
   6  -2  10    0.01    0.48
  -7   2 -10    0.77    0.37
   7  -2  10   -0.59    0.79
   7  -2  10    0.38    0.59
   7   1 -10    0.52    0.36
   7   1 -10   -0.35    0.69
  -7  -1  10    0.65    0.58
  -7  -1  10   -0.47    0.50
   6   1 -10    1.65    0.60
   6   1 -10    1.39    0.35
  -6  -1  10    1.92    0.48
   5   1 -10    1.31    0.30
   5   1 -10    1.49    0.50
  -5  -1  10    0.94    0.37
  -5  -1  10    1.38    0.39
   4   1 -10    0.88    0.16
   4   1 -10    0.91    0.41
   4   1 -10    1.24    0.27
  -4  -1  10    1.11    0.37
  -4  -1  10    0.82    0.33
   3   1 -10   16.53    1.16
   3   1 -10   14.62    1.00
  -3  -1  10   19.33    1.17
  -3  -1  10   16.89    1.08
   2   1 -10   13.47    0.89
   2   1 -10   11.97    0.81
   2   1 -10   13.26    0.94
  -2  -1  10   14.32    0.97
  -2  -1  10   12.53    0.86
   1   1 -10   23.75    1.41
   1   1 -10   23.38    1.42
   1   1 -10   27.48    1.46
  -1  -1  10   19.59    1.45
  -1  -1  10   22.76    1.46
  -1  -1  10   23.80    1.51
   0   1 -10    1.92    0.27
   0  -1  10    1.60    0.34
   0  -1  10    2.33    0.32
   0  -1  10    2.70    0.43
  -1   1 -10    4.19    0.35
  -1   1 -10    3.64    0.43
  -1   1 -10    5.19    0.46
   1  -1  10    4.87    0.57
   1  -1  10    4.20    0.45
   1  -1  10    3.02    0.43
  -2   1 -10    0.87    0.18
  -2   1 -10    0.84    0.40
  -2   1 -10    0.76    0.25
   2  -1  10    0.80    0.27
   2  -1  10    0.58    0.36
   2  -1  10    0.72    0.33
  -3   1 -10    2.70    0.46
  -3   1 -10    4.46    0.52
   3  -1  10    3.39    0.55
   3  -1  10    3.92    0.51
   3  -1  10    4.27    0.53
  -4   1 -10   12.75    0.94
  -4   1 -10   13.84    1.05
   4  -1  10   14.35    1.14
   4  -1  10   15.89    1.06
  -5   1 -10    0.31    0.26
  -5   1 -10   -0.23    0.39
   5  -1  10   -0.04    0.39
   5  -1  10   -0.97    0.54
  -6   1 -10    1.45    0.52
   6  -1  10    2.71    0.75
   6  -1  10    1.75    0.57
   7   0 -10    0.40    0.35
   7   0 -10    0.53    0.74
  -7   0  10   -0.13    0.50
  -7   0  10   -0.98    0.49
   6   0 -10    1.38    0.35
   6   0 -10    1.05    0.58
  -6   0  10    0.48    0.41
  -6   0  10    0.61    0.45
   5   0 -10    0.90    0.53
   5   0 -10    1.67    0.33
  -5   0  10    1.49    0.36
  -5   0  10    1.83    0.44
   4   0 -10    3.78    0.49
   4   0 -10    2.82    0.31
   4   0 -10    2.77    0.57
  -4   0  10    3.70    0.46
  -4   0  10    2.73    0.45
   3   0 -10   52.31    3.01
   3   0 -10   52.24    3.17
   3   0 -10   55.96    3.09
  -3   0  10   50.85    3.12
  -3   0  10   51.80    3.04
   2   0 -10   12.84    0.81
   2   0 -10   13.70    1.02
   2   0 -10   13.79    0.84
   2   0 -10   14.84    0.96
  -2   0  10   13.84    1.01
   1   0 -10    0.72    0.26
   1   0 -10    0.68    0.12
   1   0 -10    0.45    0.11
  -1   0  10    0.70    0.33
  -1   0  10    0.08    0.30
   0   0 -10    6.05    0.39
   0   0 -10    5.86    0.56
   0   0 -10    6.55    0.44
   0   0  10    4.49    0.58
   0   0  10    6.34    0.63
   0   0  10    6.42    0.62
  -1   0 -10   20.62    1.21
  -1   0 -10   19.94    1.26
  -1   0 -10   21.11    1.33
   1   0  10   19.95    1.38
   1   0  10   22.28    1.36
  -2   0 -10   16.16    1.03
  -2   0 -10   19.13    1.18
  -2   0 -10   17.14    1.13
   2   0  10   15.45    1.19
   2   0  10   17.65    1.17
   2   0  10   18.01    1.22
  -3   0 -10    7.09    0.56
  -3   0 -10    8.39    0.75
   3   0  10    6.91    0.75
   3   0  10    7.95    0.79
   3   0  10    7.74    0.67
  -4   0 -10    0.51    0.39
  -4   0 -10   -0.04    0.21
   4   0  10    0.17    0.43
   4   0  10   -0.11    0.40
  -5   0 -10    0.48    0.27
  -5   0 -10    0.75    0.44
   5   0  10    0.58    0.57
   5   0  10    0.37    0.50
  -6   0 -10    2.56    0.47
  -6   0 -10    3.61    0.67
   6   0  10    3.72    0.77
   6   0  10    3.08    0.67
   7  -1 -10    0.59    0.80
  -7   1  10    0.95    0.58
   6  -1 -10    0.62    0.38
   6  -1 -10    0.07    0.68
  -6   1  10   -0.18    0.48
  -6   1  10   -0.35    0.35
   5  -1 -10    0.39    0.33
   5  -1 -10    0.07    0.51
  -5   1  10    0.38    0.43
  -5   1  10    0.47    0.28
   4  -1 -10    7.81    0.69
   4  -1 -10    7.90    0.91
  -4   1  10    7.21    0.77
  -4   1  10    6.41    0.57
   3  -1 -10   24.17    1.52
   3  -1 -10   25.71    1.69
   3  -1 -10   22.05    1.38
   3  -1 -10   22.54    1.37
  -3   1  10   27.41    1.60
   2  -1 -10    1.55    0.34
  -2   1  10    2.09    0.40
  -2   1  10    2.42    0.47
   1  -1 -10    4.21    0.52
  -1   1  10    4.34    0.62
  -1   1  10    4.78    0.53
   0  -1 -10    0.45    0.26
   0   1  10    0.30    0.34
   0   1  10    0.17    0.33
  -1  -1 -10    3.87    0.24
  -1  -1 -10    2.93    0.42
   1   1  10    2.77    0.47
   1   1  10    2.86    0.45
  -2  -1 -10    1.06    0.36
   2   1  10    1.93    0.42
   2   1  10    1.72    0.48
  -3  -1 -10   17.06    1.20
  -3  -1 -10   14.65    0.96
   3   1  10   16.33    1.20
   3   1  10   15.31    1.17
   3   1  10   15.61    1.18
  -4  -1 -10    8.49    0.88
  -4  -1 -10    8.04    0.61
   4   1  10    6.10    0.91
   4   1  10    7.04    0.89
  -5  -1 -10    0.55    0.31
  -5  -1 -10    0.37    0.52
   5   1  10   -0.45    0.55
   5   1  10   -0.36    0.58
  -6  -1 -10    0.12    0.63
  -6  -1 -10    0.34    0.39
   6   1  10    1.00    0.66
   6   1  10    0.31    0.61
   7  -2 -10    0.09    0.82
  -7   2  10    0.13    0.61
   6  -2 -10    1.09    0.75
   6  -2 -10    0.11    0.36
  -6   2  10   -0.42    0.52
   5  -2 -10   -0.02    0.65
   5  -2 -10   -0.36    0.35
  -5   2  10    0.25    0.45
   4  -2 -10    0.25    0.57
   4  -2 -10    0.43    0.34
  -4   2  10    0.45    0.41
   3  -2 -10    0.64    0.51
   3  -2 -10    0.06    0.29
  -3   2  10    0.40    0.39
   2  -2 -10    0.32    0.28
  -2   2  10   -0.03    0.35
  -2   2  10   -0.71    0.43
   1  -2 -10    1.94    0.37
  -1   2  10    2.18    0.42
  -1   2  10    3.03    0.53
   0  -2 -10    4.48    0.62
   0   2  10    3.57    0.57
   0   2  10    3.18    0.51
  -1  -2 -10    1.98    0.39
   1   2  10    0.54    0.46
   1   2  10    1.05    0.41
  -2  -2 -10    0.94    0.39
  -2  -2 -10    1.16    0.17
   2   2  10    1.17    0.46
   2   2  10    0.67    0.48
  -3  -2 -10    2.56    0.35
  -3  -2 -10    1.86    0.48
   3   2  10    2.34    0.61
   3   2  10    2.61    0.51
  -4  -2 -10    1.10    0.54
  -4  -2 -10    2.25    0.34
   4   2  10    2.22    0.59
   4   2  10    1.00    0.60
  -5  -2 -10   -0.58    0.62
   5   2  10    0.52    0.55
   5   2  10    0.36    0.63
   6  -3 -10    2.37    0.50
   6  -3 -10    1.58    0.89
  -6   3  10    2.28    0.65
   5  -3 -10   -0.03    0.44
   5  -3 -10    0.83    0.74
  -5   3  10    0.85    0.56
   4  -3 -10    1.88    0.48
   4  -3 -10    3.46    0.78
  -4   3  10    2.35    0.53
   3  -3 -10    3.58    0.54
  -3   3  10    4.33    0.76
  -3   3  10    3.33    0.55
   2  -3 -10    1.01    0.44
  -2   3  10    1.10    0.42
  -2   3  10    1.36    0.62
   1  -3 -10    0.87    0.42
  -1   3  10   -0.06    0.50
  -1   3  10    0.48    0.41
   0  -3 -10   -0.08    0.38
   0   3  10    0.27    0.52
   0   3  10    0.75    0.42
  -1  -3 -10    0.35    0.42
   1   3  10    1.40    0.57
   1   3  10    1.51    0.45
  -2  -3 -10    1.43    0.50
   2   3  10    1.64    0.52
   2   3  10    1.11    0.58
  -3  -3 -10    3.11    0.67
   3   3  10    2.69    0.70
   3   3  10    2.93    0.59
  -4  -3 -10   -0.32    0.63
   4   3  10    0.72    0.53
   4   3  10   -0.48    0.69
   5  -4 -10    1.20    0.87
   5  -4 -10    0.53    0.50
  -5   4  10    0.27    0.58
   4  -4 -10    1.00    0.73
   4  -4 -10   -0.10    0.50
  -4   4  10    0.01    0.55
   3  -4 -10    1.12    0.51
  -3   4  10    0.41    0.48
  -3   4  10    1.28    0.71
   2  -4 -10    0.03    0.44
  -2   4  10    0.05    0.46
  -2   4  10   -0.03    0.62
   1  -4 -10    0.33    0.46
  -1   4  10    1.19    0.63
  -1   4  10    0.27    0.47
   0  -4 -10    0.77    0.47
   0   4  10    0.86    0.46
   0   4  10   -0.30    0.59
  -1  -4 -10    1.92    0.59
   1   4  10    1.49    0.65
   1   4  10    1.79    0.54
  -2  -4 -10    5.34    0.82
   2   4  10    4.24    0.67
   2   4  10    4.42    0.81
  -3  -4 -10    1.50    0.69
   3   4  10    1.45    0.79
   3   4  10    0.62    0.53
   4  -5 -10    0.01    0.63
  -4   5  10    1.15    0.63
  -4   5  10    0.37    0.82
   3  -5 -10   -0.14    0.59
  -3   5  10    0.74    0.92
  -3   5  10    1.51    0.65
   2  -5 -10    0.78    0.60
  -2   5  10    0.43    0.84
  -2   5  10    0.82    0.61
   1  -5 -10    0.90    0.63
  -1   5  10    0.99    0.79
  -1   5  10    0.45    0.55
   0  -5 -10   -0.05    0.60
   0   5  10    0.50    0.57
   0   5  10   -0.64    0.78
  -1  -5 -10    0.66    0.66
   1   5  10    1.17    0.59
   1   5  10    1.71    0.81
  -2  -5 -10    1.42    0.70
   2   9 -11    0.19    0.56
  -2  -9  11   -0.15    0.57
  -2  -9  11    1.60    0.72
   1   9 -11   -0.98    0.54
   1   9 -11    0.39    0.65
  -1  -9  11    0.04    0.64
   0   9 -11    0.50    0.63
   0   9 -11    1.08    0.52
   0  -9  11    0.21    0.66
  -1   9 -11    0.49    0.62
  -1   9 -11   -0.23    0.44
   1  -9  11    0.05    0.63
  -2   9 -11   -0.93    0.42
  -2   9 -11   -0.02    0.56
   2  -9  11    0.48    0.75
  -3   9 -11    0.54    0.40
  -3   9 -11    1.52    0.56
   3  -9  11    0.13    0.72
   4   8 -11   -0.75    0.55
  -4  -8  11    0.31    0.64
   3   8 -11    0.65    0.57
  -3  -8  11    0.29    0.68
  -3  -8  11    0.28    0.49
   2   8 -11    0.30    0.48
  -2  -8  11    0.81    0.59
  -2  -8  11    0.83    0.60
   1   8 -11   -0.13    0.47
   1   8 -11    0.68    0.43
  -1  -8  11   -0.46    0.55
   0   8 -11    0.25    0.48
   0   8 -11   -0.35    0.38
   0  -8  11    0.07    0.55
  -1   8 -11   -0.11    0.43
  -1   8 -11   -0.33    0.36
   1  -8  11    0.18    0.60
  -2   8 -11    0.81    0.46
  -2   8 -11    0.34    0.38
   2  -8  11    0.87    0.69
  -3   8 -11    0.58    0.49
  -3   8 -11    1.37    0.38
   3  -8  11    2.50    0.81
  -4   8 -11    0.76    0.46
  -4   8 -11    0.36    0.34
   4  -8  11    0.21    0.76
   5   7 -11    0.37    0.54
  -5  -7  11    0.56    0.68
   4   7 -11    1.63    0.56
  -4  -7  11    0.84    0.47
  -4  -7  11    1.94    0.69
   3   7 -11    0.13    0.41
  -3  -7  11   -0.32    0.55
  -3  -7  11    0.21    0.48
   2   7 -11    0.16    0.38
  -2  -7  11   -0.88    0.47
  -2  -7  11    0.41    0.49
   1   7 -11   -0.40    0.34
  -1  -7  11   -0.01    0.44
  -1  -7  11   -0.13    0.47
   0   7 -11    1.88    0.40
   0   7 -11    1.15    0.50
   0  -7  11    2.43    0.60
  -1   7 -11    1.45    0.37
  -1   7 -11    1.45    0.46
   1  -7  11    0.88    0.52
  -2   7 -11    0.84    0.32
  -2   7 -11    0.17    0.38
   2  -7  11    0.38    0.57
  -3   7 -11    0.48    0.32
  -3   7 -11    0.48    0.38
   3  -7  11    0.51    0.63
  -4   7 -11    0.46    0.31
  -4   7 -11    0.51    0.47
   4  -7  11    0.29    0.71
  -5   7 -11    6.05    0.86
  -5   7 -11    6.87    0.75
   5  -7  11    6.25    1.08
   6   6 -11    0.11    0.52
  -6  -6  11    0.56    0.77
   5   6 -11    0.06    0.47
  -5  -6  11    1.08    0.46
  -5  -6  11   -0.41    0.61
   4   6 -11    2.86    0.51
  -4  -6  11    2.16    0.61
  -4  -6  11    2.91    0.56
   3   6 -11    0.14    0.36
  -3  -6  11    0.37    0.47
  -3  -6  11    0.62    0.46
   2   6 -11    0.48    0.31
  -2  -6  11   -0.18    0.42
  -2  -6  11    0.75    0.42
   1   6 -11   -0.07    0.27
  -1  -6  11    0.00    0.40
  -1  -6  11    0.57    0.43
   0   6 -11    2.60    0.48
   0   6 -11    1.54    0.36
   0  -6  11    1.90    0.52
  -1   6 -11   -0.20    0.25
  -1   6 -11    0.20    0.36
   1  -6  11    0.00    0.47
  -2   6 -11    3.83    0.54
  -2   6 -11    3.74    0.52
   2  -6  11    5.24    0.71
  -3   6 -11    1.23    0.43
  -3   6 -11    1.32    0.30
   3  -6  11    1.66    0.64
  -4   6 -11    2.22    0.35
  -4   6 -11    1.93    0.47
   4  -6  11    3.10    0.79
  -5   6 -11    2.71    0.56
  -5   6 -11    2.52    0.38
   5  -6  11    2.88    0.89
   6   5 -11    0.87    0.53
   6   5 -11    0.77    0.49
  -6  -5  11    0.71    0.46
  -6  -5  11    1.12    0.72
   5   5 -11   -0.35    0.41
   5   5 -11   -0.73    0.39
  -5  -5  11    0.55    0.57
  -5  -5  11   -0.04    0.45
   4   5 -11   -0.20    0.31
   4   5 -11   -0.55    0.32
  -4  -5  11    0.40    0.41
  -4  -5  11    0.31    0.49
   3   5 -11    0.40    0.24
   3   5 -11    0.45    0.31
  -3  -5  11    0.48    0.43
  -3  -5  11    0.36    0.38
   2   5 -11    0.50    0.31
  -2  -5  11   -0.07    0.37
  -2  -5  11    0.68    0.37
   1   5 -11    2.73    0.40
  -1  -5  11    2.98    0.50
   0   5 -11    0.25    0.32
   0   5 -11   -0.07    0.21
   0  -5  11   -0.10    0.38
  -1   5 -11    1.21    0.36
  -1   5 -11    1.26    0.28
   1  -5  11    2.30    0.49
  -2   5 -11    4.10    0.48
  -2   5 -11    3.59    0.47
   2  -5  11    4.09    0.64
  -3   5 -11    2.54    0.35
   3  -5  11    2.38    0.61
  -4   5 -11   -0.21    0.30
  -4   5 -11   -0.58    0.33
   4  -5  11    1.35    0.66
  -5   5 -11    2.81    0.50
  -5   5 -11    3.30    0.45
   5  -5  11    2.50    0.84
  -6   5 -11    0.81    0.46
   6  -5  11    1.31    0.87
   6   4 -11   -0.31    0.40
   6   4 -11   -0.70    0.53
  -6  -4  11   -0.45    0.47
  -6  -4  11   -1.37    0.60
   5   4 -11    0.00    0.34
   5   4 -11    0.50    0.44
  -5  -4  11    0.14    0.49
  -5  -4  11    0.46    0.43
   4   4 -11    2.02    0.42
   4   4 -11    1.34    0.35
  -4  -4  11    1.82    0.51
  -4  -4  11    2.67    0.48
   3   4 -11    2.44    0.37
   3   4 -11    2.74    0.36
  -3  -4  11    2.82    0.49
  -3  -4  11    2.27    0.31
  -3  -4  11    3.24    0.50
   2   4 -11    0.49    0.25
  -2  -4  11    0.57    0.14
  -2  -4  11    0.57    0.38
  -2  -4  11    0.13    0.32
   1   4 -11    0.74    0.23
   1   4 -11    0.79    0.31
  -1  -4  11    0.03    0.36
   0   4 -11    0.51    0.29
   0   4 -11   -0.15    0.23
   0  -4  11   -0.35    0.34
  -1   4 -11    0.02    0.23
  -1   4 -11   -0.37    0.26
   1  -4  11    0.08    0.36
  -2   4 -11    1.52    0.28
  -2   4 -11    0.98    0.31
   2  -4  11    1.77    0.52
  -3   4 -11    1.19    0.33
  -3   4 -11    0.56    0.28
   3  -4  11    0.42    0.18
   3  -4  11    0.52    0.50
  -4   4 -11    4.92    0.60
  -4   4 -11    5.92    0.65
   4  -4  11    3.97    0.46
   4  -4  11    6.25    0.85
  -5   4 -11    4.97    0.69
  -5   4 -11    8.12    0.74
   5  -4  11    7.41    0.94
  -6   4 -11    1.06    0.44
  -6   4 -11    1.74    0.47
   6  -4  11    0.93    0.87
   7   3 -11   -0.76    0.73
   7   3 -11    0.31    0.44
  -7  -3  11    0.43    0.53
  -7  -3  11   -0.29    0.68
   6   3 -11   -0.25    0.61
   6   3 -11    0.31    0.35
  -6  -3  11   -0.25    0.48
  -6  -3  11   -0.53    0.54
   5   3 -11    1.19    0.49
   5   3 -11    0.93    0.34
  -5  -3  11    1.30    0.44
  -5  -3  11    0.45    0.46
   4   3 -11    5.56    0.58
   4   3 -11    4.59    0.65
  -4  -3  11    5.53    0.69
  -4  -3  11    5.40    0.77
  -4  -3  11    4.22    0.47
   3   3 -11   -0.29    0.23
   3   3 -11    0.13    0.27
  -3  -3  11   -0.10    0.18
  -3  -3  11   -0.09    0.32
  -3  -3  11   -0.30    0.33
   2   3 -11    2.41    0.35
   2   3 -11    3.16    0.35
   2   3 -11    2.87    0.36
  -2  -3  11    3.30    0.49
  -2  -3  11    3.76    0.53
  -2  -3  11    2.53    0.30
   1   3 -11    9.02    0.73
   1   3 -11    9.59    0.69
  -1  -3  11    9.15    0.61
  -1  -3  11    8.36    0.58
  -1  -3  11   10.11    0.81
   0   3 -11    2.64    0.35
   0   3 -11    2.78    0.39
   0  -3  11    2.32    0.25
   0  -3  11    3.58    0.48
   0  -3  11    2.13    0.25
  -1   3 -11    0.09    0.23
  -1   3 -11    0.19    0.23
   1  -3  11    0.06    0.13
   1  -3  11    0.03    0.34
  -2   3 -11    0.47    0.23
  -2   3 -11    0.49    0.25
   2  -3  11    0.44    0.45
   2  -3  11    0.91    0.19
   2  -3  11    0.68    0.22
  -3   3 -11    3.09    0.38
  -3   3 -11    2.45    0.36
   3  -3  11    2.51    0.54
   3  -3  11    2.57    0.35
   3  -3  11    2.37    0.34
  -4   3 -11    8.02    0.71
  -4   3 -11    7.80    0.75
   4  -3  11    7.90    0.67
   4  -3  11    8.70    1.00
  -5   3 -11    0.87    0.36
  -5   3 -11    1.35    0.41
   5  -3  11    1.06    0.69
   5  -3  11    1.19    0.37
  -6   3 -11   -0.10    0.45
  -6   3 -11   -0.45    0.45
   6  -3  11    0.29    0.46
   6  -3  11   -0.06    0.80
   7   2 -11    1.03    0.79
   7   2 -11    0.02    0.40
  -7  -2  11    0.08    0.61
  -7  -2  11    0.16    0.56
   6   2 -11    1.11    0.63
   6   2 -11    0.55    0.36
  -6  -2  11    0.35    0.48
  -6  -2  11   -1.11    0.51
   5   2 -11    0.35    0.32
   5   2 -11    0.17    0.48
  -5  -2  11    0.56    0.46
  -5  -2  11    0.98    0.45
   4   2 -11   -0.44    0.38
   4   2 -11    0.18    0.28
   4   2 -11    0.10    0.21
  -4  -2  11    0.12    0.33
  -4  -2  11    1.15    0.41
  -4  -2  11    0.49    0.26
   3   2 -11   -0.05    0.22
   3   2 -11    0.18    0.36
   3   2 -11    0.36    0.17
  -3  -2  11    0.45    0.29
  -3  -2  11    0.25    0.22
  -3  -2  11    0.20    0.32
   2   2 -11    0.20    0.27
   2   2 -11    0.04    0.21
   2   2 -11    0.11    0.23
  -2  -2  11    0.31    0.25
  -2  -2  11    0.53    0.23
  -2  -2  11    0.04    0.33
   1   2 -11    4.07    0.45
   1   2 -11    3.94    0.44
   1   2 -11    4.55    0.46
  -1  -2  11    4.07    0.58
  -1  -2  11    4.47    0.47
  -1  -2  11    4.07    0.42
   0   2 -11    4.49    0.53
   0   2 -11    5.63    0.48
   0   2 -11    5.24    0.52
   0  -2  11    5.89    0.49
   0  -2  11    6.01    0.66
  -1   2 -11    2.68    0.35
  -1   2 -11    2.13    0.31
  -1   2 -11    1.92    0.30
   1  -2  11    2.17    0.32
   1  -2  11    2.47    0.47
   1  -2  11    2.53    0.31
  -2   2 -11    3.81    0.53
  -2   2 -11    4.39    0.49
  -2   2 -11    3.89    0.42
   2  -2  11    4.76    0.67
   2  -2  11    4.01    0.44
   2  -2  11    3.34    0.48
  -3   2 -11    0.85    0.26
  -3   2 -11    1.03    0.33
   3  -2  11    0.35    0.34
   3  -2  11    1.00    0.32
   3  -2  11    0.67    0.49
  -4   2 -11    0.16    0.28
  -4   2 -11   -0.37    0.33
   4  -2  11    0.16    0.33
   4  -2  11    0.54    0.53
  -5   2 -11    1.07    0.45
  -5   2 -11    1.04    0.41
   5  -2  11    1.31    0.45
   5  -2  11    1.44    0.69
  -6   2 -11    2.82    0.56
  -6   2 -11    3.04    0.50
   6  -2  11    3.95    0.88
   6  -2  11    2.04    0.55
   7   1 -11   -0.07    0.38
   7   1 -11    0.34    0.77
  -7  -1  11    0.78    0.58
  -7  -1  11    0.10    0.57
   6   1 -11    1.24    0.37
   6   1 -11    1.28    0.66
  -6  -1  11    0.44    0.49
  -6  -1  11    0.78    0.51
   5   1 -11    1.20    0.56
   5   1 -11    0.30    0.30
  -5  -1  11    0.94    0.42
  -5  -1  11   -0.04    0.39
   4   1 -11    0.82    0.17
   4   1 -11    1.05    0.29
   4   1 -11    1.48    0.46
  -4  -1  11    0.86    0.37
   3   1 -11    4.70    0.42
  -3  -1  11    6.95    0.60
  -3  -1  11    7.22    0.58
   2   1 -11    0.53    0.25
   2   1 -11    0.20    0.19
   2   1 -11    0.15    0.16
  -2  -1  11    0.34    0.31
  -2  -1  11    0.82    0.28
  -2  -1  11    0.69    0.37
   1   1 -11    0.51    0.24
   1   1 -11    0.23    0.18
  -1  -1  11    0.77    0.34
  -1  -1  11    0.25    0.28
  -1  -1  11    0.46    0.32
   0   1 -11    0.89    0.18
   0   1 -11    1.54    0.30
   0   1 -11    1.33    0.24
   0  -1  11    1.31    0.31
   0  -1  11    1.17    0.32
   0  -1  11    1.06    0.39
  -1   1 -11    3.53    0.57
  -1   1 -11    4.30    0.37
  -1   1 -11    3.66    0.48
   1  -1  11    4.37    0.54
   1  -1  11    4.84    0.63
   1  -1  11    4.74    0.52
  -2   1 -11    6.51    0.61
  -2   1 -11    7.68    0.66
  -2   1 -11    6.44    0.52
   2  -1  11    6.38    0.68
   2  -1  11    6.85    0.66
   2  -1  11    8.09    0.77
  -3   1 -11    2.45    0.46
   3  -1  11    2.52    0.44
   3  -1  11    2.85    0.58
  -4   1 -11    6.57    0.60
  -4   1 -11    7.23    0.77
   4  -1  11    6.57    0.82
   4  -1  11    4.70    0.75
  -5   1 -11    0.73    0.48
  -5   1 -11    0.81    0.33
   5  -1  11    1.89    0.68
   5  -1  11    0.40    0.52
  -6   1 -11    2.01    0.41
  -6   1 -11    1.70    0.60
   6  -1  11    4.11    0.66
   6  -1  11    3.16    0.87
   7   0 -11   -0.02    0.83
   7   0 -11   -0.89    0.40
  -7   0  11   -0.54    0.60
   6   0 -11    0.67    0.42
   6   0 -11    1.01    0.72
  -6   0  11    0.43    0.55
  -6   0  11    0.46    0.42
   5   0 -11    0.54    0.35
   5   0 -11   -0.03    0.54
  -5   0  11    0.45    0.34
  -5   0  11   -0.32    0.44
   4   0 -11    3.20    0.58
   4   0 -11    3.03    0.42
  -4   0  11    3.04    0.54
  -4   0  11    2.99    0.36
   3   0 -11   13.45    0.80
   3   0 -11   13.20    0.94
   3   0 -11   11.98    1.07
  -3   0  11   13.08    1.05
   2   0 -11    0.58    0.16
   2   0 -11    0.72    0.11
   2   0 -11    1.07    0.28
  -2   0  11    0.79    0.39
  -2   0  11   -0.22    0.36
   1   0 -11    5.05    0.51
   1   0 -11    4.10    0.29
   1   0 -11    4.41    0.30
  -1   0  11    4.60    0.63
  -1   0  11    4.06    0.50
  -1   0  11    4.17    0.61
   0   0 -11    5.96    0.41
   0   0 -11    5.70    0.60
   0   0 -11    5.51    0.43
   0   0  11    5.78    0.66
   0   0  11    7.31    0.67
   0   0  11    4.86    0.63
  -1   0 -11    0.70    0.21
  -1   0 -11    1.12    0.33
  -1   0 -11    1.03    0.15
   1   0  11    0.47    0.41
   1   0  11    0.94    0.40
   1   0  11    1.44    0.39
  -2   0 -11    0.96    0.27
  -2   0 -11    1.05    0.17
  -2   0 -11    0.82    0.34
   2   0  11    0.99    0.45
   2   0  11    0.62    0.39
  -3   0 -11    2.73    0.36
  -3   0 -11    2.03    0.50
   3   0  11    2.69    0.55
   3   0  11    3.44    0.53
  -4   0 -11    3.81    0.58
  -4   0 -11    4.20    0.45
   4   0  11    3.19    0.67
   4   0  11    3.68    0.61
  -5   0 -11    0.73    0.30
  -5   0 -11    0.31    0.50
   5   0  11    0.74    0.66
   5   0  11   -0.06    0.58
   6  -1 -11    1.02    0.72
   6  -1 -11    0.16    0.46
  -6   1  11    1.08    0.62
   5  -1 -11    1.15    0.66
   5  -1 -11    0.34    0.40
  -5   1  11    1.01    0.52
   4  -1 -11    4.77    0.67
   4  -1 -11    4.95    0.77
  -4   1  11    3.74    0.59
   3  -1 -11    8.37    0.97
   3  -1 -11    9.03    0.78
  -3   1  11    8.91    0.89
   2  -1 -11    2.59    0.43
  -2   1  11    2.46    0.54
  -2   1  11    1.78    0.46
   1  -1 -11    2.52    0.40
  -1   1  11    1.83    0.52
  -1   1  11    1.95    0.47
   0  -1 -11    0.72    0.31
   0   1  11    0.22    0.44
   0   1  11    0.22    0.40
  -1  -1 -11    0.23    0.33
   1   1  11    0.94    0.45
   1   1  11    0.57    0.43
  -2  -1 -11    1.90    0.47
  -2  -1 -11    3.32    0.29
   2   1  11    2.32    0.54
   2   1  11    2.62    0.55
  -3  -1 -11    1.52    0.49
  -3  -1 -11    0.79    0.20
   3   1  11    0.87    0.53
   3   1  11    1.51    0.55
  -4  -1 -11    1.34    0.28
  -4  -1 -11    0.18    0.49
   4   1  11    0.73    0.55
   4   1  11    0.94    0.62
  -5  -1 -11    0.38    0.60
   5   1  11    0.05    0.64
   5   1  11    1.70    0.66
   6  -2 -11   -0.17    0.89
   6  -2 -11    0.46    0.42
  -6   2  11    1.44    0.59
   5  -2 -11    0.69    0.45
   5  -2 -11    1.57    0.76
  -5   2  11    0.89    0.53
   4  -2 -11    4.80    0.61
   4  -2 -11    4.67    0.83
  -4   2  11    6.51    0.87
   3  -2 -11    5.67    0.72
  -3   2  11    7.20    1.00
  -3   2  11    5.46    0.70
   2  -2 -11    1.03    0.41
  -2   2  11    0.43    0.46
  -2   2  11    1.16    0.60
   1  -2 -11    0.30    0.35
  -1   2  11    0.43    0.48
  -1   2  11    0.19    0.44
   0  -2 -11    1.60    0.45
   0   2  11    2.12    0.49
   0   2  11    2.04    0.54
  -1  -2 -11    4.49    0.61
   1   2  11    4.16    0.67
   1   2  11    4.73    0.64
  -2  -2 -11    0.46    0.45
   2   2  11   -0.23    0.48
   2   2  11    1.05    0.57
  -3  -2 -11    1.55    0.53
   3   2  11    0.95    0.61
   3   2  11    0.90    0.56
  -4  -2 -11   -0.77    0.60
   4   2  11    1.26    0.63
   4   2  11   -0.55    0.60
   5  -3 -11   -0.01    0.50
   5  -3 -11    0.81    0.88
  -5   3  11   -0.55    0.56
   4  -3 -11    8.80    1.12
   4  -3 -11    9.56    1.01
  -4   3  11    7.75    1.07
   3  -3 -11    1.18    0.48
  -3   3  11    1.95    0.72
  -3   3  11    0.78    0.57
   2  -3 -11    0.29    0.44
  -2   3  11    0.23    0.63
  -2   3  11    1.45    0.53
   1  -3 -11    0.24    0.44
  -1   3  11   -0.35    0.59
  -1   3  11    0.19    0.45
   0  -3 -11    0.11    0.45
   0   3  11    0.14    0.50
   0   3  11   -0.52    0.57
  -1  -3 -11    0.09    0.48
   1   3  11    1.08    0.62
   1   3  11    1.57    0.54
  -2  -3 -11    2.01    0.61
   2   3  11    1.98    0.75
   2   3  11    2.22    0.62
  -3  -3 -11    3.95    0.79
   3   3  11    3.50    0.67
   3   3  11    2.84    0.78
   4  -4 -11    0.48    0.59
  -4   4  11   -0.14    0.56
  -4   4  11    2.70    0.93
   3  -4 -11   -0.59    0.51
  -3   4  11    0.37    0.60
  -3   4  11    0.15    0.86
   2  -4 -11    1.43    0.59
  -2   4  11    0.69    0.78
  -2   4  11    1.07    0.64
   1  -4 -11   -0.42    0.54
  -1   4  11   -0.44    0.54
  -1   4  11   -1.58    0.67
   0  -4 -11    0.69    0.59
   0   4  11    0.55    0.71
   0   4  11    0.59    0.58
  -1  -4 -11    0.03    0.59
   1   4  11    0.75    0.75
   1   4  11    0.78    0.60
  -2  -4 -11    1.06    0.71
   2   4  11   -0.24    0.79
   2   4  11   -0.12    0.63
   1   9 -12   -0.51    0.52
   1   9 -12    1.01    0.69
  -1  -9  12   -0.44    0.69
   0   9 -12    0.65    0.54
   0   9 -12    0.78    0.66
   0  -9  12    2.23    0.77
  -1   9 -12    0.48    0.53
  -1   9 -12    1.38    0.58
   1  -9  12   -0.07    0.71
   3   8 -12    0.07    0.52
  -3  -8  12    0.57    0.57
  -3  -8  12    1.09    0.71
   2   8 -12   -0.40    0.50
  -2  -8  12    0.78    0.63
  -2  -8  12    0.05    0.68
   1   8 -12    0.35    0.66
   1   8 -12    0.64    0.45
  -1  -8  12   -0.36    0.58
   0   8 -12    0.82    0.44
   0   8 -12    0.84    0.60
   0  -8  12    0.44    0.65
  -1   8 -12   -0.16    0.52
  -1   8 -12    0.54    0.42
   1  -8  12    0.87    0.68
  -2   8 -12   -0.21    0.38
  -2   8 -12   -0.43    0.53
   2  -8  12    0.85    0.75
  -3   8 -12    0.79    0.41
  -3   8 -12    1.43    0.51
   3  -8  12    1.29    0.85
   4   7 -12    0.87    0.54
  -4  -7  12    0.49    0.69
  -4  -7  12    1.06    0.54
   3   7 -12    0.13    0.46
  -3  -7  12   -0.66    0.57
  -3  -7  12   -0.53    0.54
   2   7 -12    0.58    0.44
  -2  -7  12    0.85    0.58
  -2  -7  12    0.33    0.55
   1   7 -12   -0.16    0.51
   1   7 -12    0.08    0.39
  -1  -7  12    0.55    0.54
   0   7 -12   -0.49    0.48
   0   7 -12    0.75    0.37
   0  -7  12    0.22    0.53
  -1   7 -12    0.26    0.43
  -1   7 -12    0.41    0.34
   1  -7  12    0.10    0.55
  -2   7 -12    0.98    0.35
  -2   7 -12    0.20    0.46
   2  -7  12    1.38    0.66
  -3   7 -12    1.42    0.37
  -3   7 -12    0.74    0.48
   3  -7  12    1.02    0.72
  -4   7 -12    1.35    0.55
  -4   7 -12    1.58    0.38
   4  -7  12    1.84    0.85
   5   6 -12   -0.07    0.50
  -5  -6  12    1.07    0.52
  -5  -6  12    0.47    0.73
   4   6 -12    0.04    0.43
  -4  -6  12   -0.02    0.59
  -4  -6  12    0.40    0.55
   3   6 -12    0.27    0.40
  -3  -6  12    0.48    0.56
  -3  -6  12    0.36    0.51
   2   6 -12    0.69    0.37
  -2  -6  12    0.51    0.51
  -2  -6  12    0.86    0.53
   1   6 -12    0.50    0.34
   1   6 -12    0.15    0.44
  -1  -6  12    0.17    0.50
   0   6 -12    0.22    0.42
   0   6 -12    0.39    0.31
   0  -6  12   -0.10    0.47
  -1   6 -12    0.85    0.33
  -1   6 -12   -0.08    0.38
   1  -6  12    1.12    0.57
  -2   6 -12    1.03    0.33
  -2   6 -12    1.24    0.41
   2  -6  12    0.94    0.57
  -3   6 -12    0.72    0.32
  -3   6 -12    1.19    0.42
   3  -6  12    0.91    0.62
  -4   6 -12    0.59    0.43
  -4   6 -12    0.17    0.35
   4  -6  12    0.31    0.78
  -5   6 -12   -0.86    0.49
  -5   6 -12   -0.11    0.37
   5  -6  12    0.35    0.86
   6   5 -12    0.03    0.48
  -6  -5  12   -0.13    0.53
  -6  -5  12   -0.71    0.73
   5   5 -12   -0.28    0.41
  -5  -5  12    0.83    0.57
  -5  -5  12    0.20    0.62
   4   5 -12    1.19    0.43
  -4  -5  12    2.25    0.59
  -4  -5  12    2.10    0.53
   3   5 -12    0.55    0.32
  -3  -5  12    0.45    0.48
  -3  -5  12    0.02    0.43
   2   5 -12    0.38    0.30
  -2  -5  12    0.39    0.43
  -2  -5  12    0.66    0.42
   1   5 -12    1.73    0.34
   1   5 -12    1.90    0.45
  -1  -5  12    1.97    0.53
   0   5 -12    5.76    0.62
   0   5 -12    6.12    0.74
   0  -5  12    6.15    0.76
  -1   5 -12    2.39    0.42
  -1   5 -12    2.38    0.36
   1  -5  12    2.69    0.59
  -2   5 -12    0.37    0.35
  -2   5 -12   -0.12    0.27
   2  -5  12   -1.29    0.50
  -3   5 -12    1.08    0.39
  -3   5 -12    0.06    0.30
   3  -5  12    1.01    0.64
  -4   5 -12    8.67    0.89
  -4   5 -12    8.03    0.81
   4  -5  12    9.48    1.26
  -5   5 -12    5.63    0.80
  -5   5 -12    6.69    0.87
   5  -5  12    7.40    1.07
   6   4 -12    0.38    0.61
   6   4 -12    0.83    0.44
  -6  -4  12    0.79    0.56
  -6  -4  12   -0.42    0.64
   5   4 -12    2.10    0.52
   5   4 -12    2.75    0.46
  -5  -4  12    2.21    0.59
  -5  -4  12    2.83    0.64
   4   4 -12    0.64    0.34
   4   4 -12    0.97    0.41
  -4  -4  12    0.54    0.51
  -4  -4  12    1.31    0.51
   3   4 -12    0.49    0.28
   3   4 -12    0.12    0.28
  -3  -4  12    0.15    0.44
  -3  -4  12    0.25    0.42
   2   4 -12    0.28    0.27
  -2  -4  12   -0.20    0.41
  -2  -4  12    0.48    0.18
  -2  -4  12   -0.42    0.38
   1   4 -12    0.42    0.26
   1   4 -12    0.38    0.36
  -1  -4  12   -0.02    0.39
   0   4 -12    3.69    0.49
   0   4 -12    3.28    0.48
   0  -4  12    3.51    0.61
  -1   4 -12    2.61    0.41
  -1   4 -12    1.59    0.31
   1  -4  12    3.24    0.60
  -2   4 -12    5.83    0.66
  -2   4 -12    5.91    0.61
   2  -4  12    6.55    0.80
  -3   4 -12    2.27    0.41
  -3   4 -12    2.48    0.41
   3  -4  12    1.32    0.62
  -4   4 -12    5.23    0.71
  -4   4 -12    5.09    0.58
   4  -4  12    6.52    0.92
  -5   4 -12    0.85    0.40
  -5   4 -12    0.27    0.44
   5  -4  12    0.35    0.85
   6   3 -12    0.82    0.42
   6   3 -12    0.89    0.65
  -6  -3  12    0.51    0.57
  -6  -3  12   -0.36    0.59
   5   3 -12    0.05    0.37
   5   3 -12    0.64    0.54
  -5  -3  12    0.48    0.53
  -5  -3  12   -0.10    0.49
   4   3 -12    0.13    0.33
   4   3 -12    0.44    0.40
  -4  -3  12    0.56    0.44
  -4  -3  12   -0.78    0.39
   3   3 -12   -0.12    0.28
   3   3 -12   -0.02    0.33
  -3  -3  12    0.20    0.41
  -3  -3  12   -0.11    0.38
   2   3 -12    0.69    0.28
   2   3 -12    0.67    0.31
  -2  -3  12    0.48    0.43
  -2  -3  12    0.79    0.35
  -2  -3  12    1.19    0.29
   1   3 -12   -0.16    0.24
   1   3 -12    0.37    0.29
   1   3 -12    0.22    0.29
  -1  -3  12    0.01    0.40
  -1  -3  12    0.47    0.16
  -1  -3  12    0.23    0.22
   0   3 -12    0.97    0.30
   0   3 -12    0.76    0.27
   0   3 -12    0.70    0.31
   0  -3  12    0.91    0.43
   0  -3  12    1.01    0.19
   0  -3  12    0.92    0.17
  -1   3 -12    1.75    0.32
  -1   3 -12    1.32    0.31
   1  -3  12    1.08    0.45
   1  -3  12    1.68    0.22
   1  -3  12    2.07    0.23
  -2   3 -12    6.78    0.65
  -2   3 -12    6.18    0.61
   2  -3  12    5.79    0.48
   2  -3  12    6.38    0.80
  -3   3 -12    0.11    0.34
  -3   3 -12    0.04    0.30
   3  -3  12    0.11    0.23
   3  -3  12   -0.10    0.56
  -4   3 -12    3.64    0.51
  -4   3 -12    3.80    0.49
   4  -3  12    3.85    0.78
   4  -3  12    3.42    0.43
  -5   3 -12    1.53    0.42
  -5   3 -12    1.88    0.48
   5  -3  12    1.04    0.79
   6   2 -12    0.46    0.42
   6   2 -12    0.33    0.67
  -6  -2  12    0.75    0.55
  -6  -2  12    0.65    0.57
   5   2 -12    0.57    0.36
   5   2 -12    0.75    0.58
  -5  -2  12    0.13    0.50
  -5  -2  12    0.97    0.49
   4   2 -12    2.82    0.54
   4   2 -12    3.03    0.41
  -4  -2  12    2.65    0.53
  -4  -2  12    2.42    0.46
   3   2 -12    1.68    0.24
   3   2 -12    1.54    0.40
   3   2 -12    1.26    0.34
  -3  -2  12    1.58    0.30
  -3  -2  12    1.40    0.36
  -3  -2  12    1.52    0.45
   2   2 -12    0.45    0.29
   2   2 -12    0.34    0.25
   2   2 -12    0.01    0.20
  -2  -2  12   -0.02    0.40
  -2  -2  12   -0.01    0.33
  -2  -2  12    0.43    0.24
   1   2 -12    0.41    0.25
   1   2 -12    0.65    0.27
   1   2 -12    0.99    0.24
  -1  -2  12    1.26    0.43
  -1  -2  12    0.22    0.24
  -1  -2  12    0.85    0.27
   0   2 -12    3.27    0.41
   0   2 -12    3.68    0.43
   0   2 -12    2.54    0.35
   0  -2  12    2.69    0.51
   0  -2  12    3.07    0.41
   0  -2  12    3.10    0.40
  -1   2 -12    1.40    0.33
  -1   2 -12    1.39    0.36
  -1   2 -12    1.72    0.27
   1  -2  12    1.98    0.32
   1  -2  12    2.53    0.52
   1  -2  12    2.03    0.30
  -2   2 -12   -0.42    0.39
  -2   2 -12   -0.07    0.32
  -2   2 -12    0.10    0.23
   2  -2  12    0.32    0.27
   2  -2  12   -0.50    0.45
  -3   2 -12   -0.18    0.32
  -3   2 -12    0.02    0.27
   3  -2  12    0.83    0.59
   3  -2  12    0.61    0.31
  -4   2 -12   12.59    1.08
  -4   2 -12   12.06    0.92
   4  -2  12   13.10    0.96
   4  -2  12   11.93    1.26
  -5   2 -12    0.65    0.54
  -5   2 -12    2.03    0.45
   5  -2  12    0.42    0.75
   5  -2  12    2.02    0.49
   6   1 -12    1.15    0.75
   6   1 -12   -0.14    0.43
  -6  -1  12    0.14    0.47
  -6  -1  12   -0.31    0.57
   5   1 -12    2.61    0.67
   5   1 -12    1.48    0.42
  -5  -1  12    1.70    0.42
  -5  -1  12    2.30    0.56
   4   1 -12    1.47    0.36
   4   1 -12    0.32    0.52
  -4  -1  12    0.59    0.46
  -4  -1  12    0.17    0.35
   3   1 -12    2.00    0.48
  -3  -1  12    1.48    0.45
  -3  -1  12    0.67    0.30
   2   1 -12    4.08    0.44
   2   1 -12    5.34    0.58
  -2  -1  12    5.62    0.73
  -2  -1  12    4.57    0.57
  -2  -1  12    5.13    0.57
   1   1 -12    2.53    0.30
   1   1 -12    2.34    0.40
   1   1 -12    2.40    0.28
  -1  -1  12    1.60    0.37
  -1  -1  12    2.40    0.50
  -1  -1  12    2.38    0.43
   0   1 -12    1.31    0.19
   0   1 -12    0.52    0.23
   0   1 -12    1.54    0.35
   0  -1  12    0.98    0.46
   0  -1  12    1.41    0.38
   0  -1  12    0.75    0.33
  -1   1 -12    0.33    0.31
  -1   1 -12    0.32    0.16
  -1   1 -12    0.23    0.30
   1  -1  12    1.11    0.37
   1  -1  12    0.83    0.46
   1  -1  12   -0.27    0.33
  -2   1 -12    4.09    0.59
  -2   1 -12    4.32    0.43
   2  -1  12    4.49    0.64
   2  -1  12    3.48    0.76
   2  -1  12    4.36    0.64
  -3   1 -12    2.01    0.31
  -3   1 -12    1.04    0.44
   3  -1  12    1.50    0.56
   3  -1  12    1.54    0.45
  -4   1 -12    1.46    0.34
  -4   1 -12    1.64    0.51
   4  -1  12    1.12    0.65
   4  -1  12    1.37    0.51
  -5   1 -12    0.19    0.30
  -5   1 -12   -0.18    0.52
   5  -1  12    0.26    0.52
   5  -1  12   -0.38    0.72
   6   0 -12    1.05    0.76
   6   0 -12    0.79    0.48
  -6   0  12   -0.33    0.62
   5   0 -12   -0.06    0.41
   5   0 -12    1.72    0.72
  -5   0  12   -0.19    0.50
   4   0 -12    1.23    0.40
   4   0 -12    1.46    0.66
  -4   0  12    0.78    0.48
   3   0 -12   -0.37    0.48
   3   0 -12    0.06    0.34
  -3   0  12    0.30    0.43
   2   0 -12    0.29    0.33
  -2   0  12    0.64    0.48
  -2   0  12    0.66    0.44
   1   0 -12    2.70    0.41
  -1   0  12    2.24    0.50
  -1   0  12    2.17    0.49
   0   0 -12    0.12    0.10
   0   0 -12    0.04    0.33
   0   0  12   -0.02    0.41
   0   0  12    0.35    0.40
  -1   0 -12    0.15    0.13
  -1   0 -12    0.27    0.35
   1   0  12   -0.34    0.45
   1   0  12    0.01    0.42
  -2   0 -12    4.29    0.37
  -2   0 -12    4.47    0.59
   2   0  12    4.85    0.70
   2   0  12    4.73    0.62
  -3   0 -12    0.00    0.45
  -3   0 -12   -0.06    0.17
   3   0  12    0.76    0.57
   3   0  12   -0.67    0.48
  -4   0 -12    4.98    0.73
  -4   0 -12    5.58    0.62
   4   0  12    5.55    0.83
   4   0  12    6.89    1.00
  -5   0 -12    0.31    0.63
   5   0  12    0.06    0.66
   5   0  12    1.70    0.77
   6  -1 -12    0.22    0.48
   6  -1 -12   -0.02    0.91
  -6   1  12   -0.88    0.63
   5  -1 -12    2.32    0.82
   5  -1 -12    2.04    0.52
  -5   1  12    0.77    0.63
   4  -1 -12   -0.84    0.65
   4  -1 -12    0.58    0.43
  -4   1  12    0.88    0.50
   3  -1 -12    5.19    0.61
  -3   1  12    3.81    0.62
  -3   1  12    4.44    0.73
   2  -1 -12    0.83    0.38
  -2   1  12    1.76    0.50
  -2   1  12    2.03    0.58
   1  -1 -12    0.93    0.35
  -1   1  12    0.19    0.50
  -1   1  12    1.06    0.47
   0  -1 -12    1.69    0.43
   0   1  12    2.79    0.57
   0   1  12    1.18    0.49
  -1  -1 -12    1.17    0.43
   1   1  12    0.83    0.53
   1   1  12    0.60    0.55
  -2  -1 -12    0.51    0.47
   2   1  12   -0.45    0.50
   2   1  12    1.29    0.58
  -3  -1 -12    2.63    0.59
   3   1  12    1.91    0.64
   3   1  12    1.08    0.63
  -4  -1 -12    2.58    0.67
   4   1  12    2.19    0.68
   4   1  12    1.80    0.73
   5  -2 -12   -0.11    0.87
   5  -2 -12   -0.10    0.51
  -5   2  12    0.33    0.63
   4  -2 -12    2.14    0.84
   4  -2 -12    3.51    0.60
  -4   2  12    2.69    0.69
   3  -2 -12    1.87    0.49
  -3   2  12    1.57    0.61
  -3   2  12    1.77    0.70
   2  -2 -12    0.46    0.43
  -2   2  12    1.09    0.54
  -2   2  12    0.08    0.62
   1  -2 -12    0.94    0.45
  -1   2  12    0.59    0.61
  -1   2  12    1.24    0.58
   0  -2 -12   -0.06    0.47
   0   2  12    0.89    0.56
   0   2  12    0.36    0.58
  -1  -2 -12   -0.11    0.48
   1   2  12    0.32    0.54
   1   2  12   -0.42    0.59
  -2  -2 -12   -0.01    0.51
   2   2  12    0.53    0.58
   2   2  12   -0.80    0.64
  -3  -2 -12    0.10    0.55
   3   2  12    0.13    0.62
   3   2  12    1.60    0.70
   4  -3 -12    2.38    0.65
  -4   3  12    3.67    0.90
  -4   3  12    0.95    0.65
   3  -3 -12    2.68    0.63
  -3   3  12    2.79    0.75
  -3   3  12    3.19    0.90
   2  -3 -12    0.85    0.60
  -2   3  12    0.31    0.72
  -2   3  12    1.18    0.65
   1  -3 -12    0.98    0.54
  -1   3  12    0.08    0.67
  -1   3  12    0.72    0.63
   0  -3 -12    1.50    0.58
   0   3  12    0.54    0.69
   0   3  12    0.37    0.61
   1   3  12   -0.02    0.61
   1   3  12   -0.93    0.68
  -2  -3 -12    0.33    0.61
   2   3  12   -0.56    0.64
   2   3  12   -0.70    0.66
   1  -4 -12   -1.39    0.57
   2   8 -13    0.64    0.49
  -2  -8  13    0.87    0.73
  -2  -8  13    0.24    0.69
   1   8 -13    2.94    0.79
   1   8 -13    2.94    0.57
  -1  -8  13    3.45    0.79
   0   8 -13   -0.40    0.48
   0   8 -13    0.32    0.63
   0  -8  13    1.41    0.74
  -1   8 -13   -0.31    0.58
  -1   8 -13    0.83    0.45
   1  -8  13   -0.13    0.78
  -2   8 -13    0.21    0.43
  -2   8 -13   -1.04    0.49
   2  -8  13   -0.35    0.79
   3   7 -13   -0.06    0.46
  -3  -7  13    0.12    0.66
  -3  -7  13   -0.27    0.63
   2   7 -13    1.01    0.49
  -2  -7  13    0.84    0.62
  -2  -7  13    0.67    0.64
   1   7 -13    1.01    0.57
   1   7 -13    0.75    0.43
  -1  -7  13   -0.40    0.62
   0   7 -13   -0.01    0.51
   0   7 -13    1.91    0.43
   0  -7  13    1.01    0.69
  -1   7 -13    2.71    0.48
  -1   7 -13    3.89    0.65
   1  -7  13    4.40    0.78
  -2   7 -13    0.52    0.48
  -2   7 -13   -0.14    0.37
   2  -7  13    1.17    0.78
  -3   7 -13    1.48    0.41
  -3   7 -13    1.98    0.55
   3  -7  13    0.50    0.74
   4   6 -13   -1.24    0.46
  -4  -6  13   -0.11    0.67
  -4  -6  13   -0.01    0.59
   3   6 -13   -0.05    0.42
  -3  -6  13    1.68    0.62
  -3  -6  13    0.07    0.57
   2   6 -13    1.83    0.45
  -2  -6  13    2.01    0.59
  -2  -6  13    2.41    0.64
   1   6 -13    2.08    0.56
   1   6 -13    1.95    0.43
  -1  -6  13    2.39    0.64
   0   6 -13   -0.14    0.44
   0   6 -13   -0.51    0.31
   0  -6  13   -0.45    0.57
  -1   6 -13   -0.40    0.43
  -1   6 -13    0.27    0.34
   1  -6  13   -0.87    0.59
  -2   6 -13    0.54    0.35
  -2   6 -13    0.77    0.46
   2  -6  13   -0.42    0.65
  -3   6 -13    3.18    0.57
  -3   6 -13    3.25    0.48
   3  -6  13    5.25    0.97
  -4   6 -13    1.92    0.46
  -4   6 -13    1.90    0.54
   4  -6  13    0.91    0.86
   5   5 -13    0.16    0.46
  -5  -5  13    0.74    0.63
  -5  -5  13   -0.40    0.65
   4   5 -13    0.61    0.42
  -4  -5  13    1.24    0.56
  -4  -5  13   -0.41    0.58
   3   5 -13    0.10    0.35
  -3  -5  13    0.75    0.53
  -3  -5  13    0.20    0.51
   2   5 -13    0.92    0.36
  -2  -5  13    1.15    0.52
  -2  -5  13    0.66    0.51
   1   5 -13    0.07    0.43
   1   5 -13    0.25    0.31
  -1  -5  13   -0.23    0.51
   0   5 -13    0.33    0.42
   0   5 -13    0.30    0.31
   0  -5  13    0.79    0.55
  -1   5 -13    1.78    0.46
  -1   5 -13    1.90    0.38
   1  -5  13    2.03    0.62
  -2   5 -13    0.77    0.42
  -2   5 -13    0.99    0.34
   2  -5  13    0.79    0.64
  -3   5 -13    0.38    0.37
  -3   5 -13    0.55    0.41
   3  -5  13    0.63    0.70
  -4   5 -13    3.04    0.55
  -4   5 -13    3.23    0.51
   4  -5  13    2.17    0.94
   5   4 -13    1.55    0.49
  -5  -4  13    0.42    0.62
  -5  -4  13    0.29    0.62
   4   4 -13    0.18    0.36
  -4  -4  13    0.35    0.55
  -4  -4  13    0.27    0.54
   3   4 -13    2.57    0.44
  -3  -4  13    2.46    0.59
  -3  -4  13    1.86    0.53
   2   4 -13    0.00    0.31
   2   4 -13   -0.12    0.41
  -2  -4  13    0.47    0.49
   1   4 -13    0.94    0.39
   1   4 -13    0.94    0.32
  -1  -4  13    0.27    0.45
   0   4 -13    1.91    0.42
   0   4 -13    1.35    0.35
   0  -4  13    2.17    0.58
  -1   4 -13    2.79    0.46
  -1   4 -13    2.56    0.39
   1  -4  13    2.57    0.59
  -2   4 -13    0.56    0.33
  -2   4 -13    0.19    0.36
   2  -4  13    1.13    0.58
  -3   4 -13    0.86    0.42
  -3   4 -13    1.49    0.42
   3  -4  13    0.49    0.67
  -4   4 -13    0.76    0.46
  -4   4 -13    0.36    0.42
   4  -4  13    0.67    0.78
   5   3 -13    0.42    0.53
   5   3 -13    0.24    0.41
  -5  -3  13    1.82    0.60
  -5  -3  13    1.69    0.61
   4   3 -13    0.12    0.44
   4   3 -13   -0.07    0.36
  -4  -3  13   -0.01    0.48
  -4  -3  13   -0.22    0.50
   3   3 -13    0.06    0.34
   3   3 -13    0.83    0.37
  -3  -3  13    0.12    0.43
  -3  -3  13    0.68    0.49
   2   3 -13    2.02    0.37
   2   3 -13    1.35    0.40
  -2  -3  13    2.17    0.53
  -2  -3  13    1.19    0.31
   1   3 -13    3.76    0.47
   1   3 -13    3.82    0.52
  -1  -3  13    4.44    0.64
  -1  -3  13    3.02    0.41
   0   3 -13    3.95    0.57
   0   3 -13    4.35    0.56
   0  -3  13    5.65    0.69
   0  -3  13    4.10    0.46
  -1   3 -13    0.20    0.30
  -1   3 -13    0.94    0.31
   1  -3  13    0.43    0.53
  -2   3 -13    0.80    0.37
  -2   3 -13    1.25    0.34
   2  -3  13    0.64    0.61
  -3   3 -13    4.42    0.56
  -3   3 -13    4.17    0.59
   3  -3  13    3.88    0.78
  -4   3 -13   11.51    0.94
  -4   3 -13   11.60    1.08
   4  -3  13   11.74    1.39
   5   2 -13    1.20    0.62
   5   2 -13    1.73    0.44
  -5  -2  13    1.56    0.60
  -5  -2  13    1.93    0.52
   4   2 -13   -0.01    0.35
   4   2 -13   -0.36    0.57
  -4  -2  13   -0.15    0.50
  -4  -2  13    0.43    0.40
   3   2 -13    2.02    0.41
   3   2 -13    2.49    0.48
  -3  -2  13    1.95    0.54
   2   2 -13   -0.03    0.30
   2   2 -13    0.65    0.29
  -2  -2  13    0.23    0.38
  -2  -2  13   -0.12    0.44
   1   2 -13    0.91    0.32
   1   2 -13    0.76    0.30
  -1  -2  13    0.58    0.30
  -1  -2  13   -0.42    0.47
   0   2 -13    0.52    0.33
   0   2 -13    0.46    0.26
   0  -2  13    0.96    0.52
   0  -2  13    0.46    0.28
  -1   2 -13    4.32    0.53
  -1   2 -13    3.72    0.47
   1  -2  13    4.49    0.63
   1  -2  13    4.03    0.51
  -2   2 -13    1.46    0.42
  -2   2 -13    1.96    0.32
   2  -2  13    2.12    0.39
   2  -2  13    2.26    0.66
  -3   2 -13    1.07    0.46
  -3   2 -13    1.77    0.34
   3  -2  13    2.31    0.41
   3  -2  13    0.98    0.66
  -4   2 -13    2.48    0.44
  -4   2 -13    2.29    0.54
   4  -2  13    1.61    0.77
   5   1 -13    0.67    0.44
   5   1 -13    0.81    0.71
  -5  -1  13   -0.07    0.58
   4   1 -13    0.75    0.61
   4   1 -13    0.42    0.40
  -4  -1  13   -0.19    0.54
   3   1 -13    1.05    0.40
  -3  -1  13    1.86    0.54
  -3  -1  13    1.72    0.60
   2   1 -13    1.06    0.38
   2   1 -13    0.61    0.28
  -2  -1  13   -0.17    0.45
  -2  -1  13   -0.48    0.44
   1   1 -13    1.94    0.41
   1   1 -13    2.45    0.30
  -1  -1  13    2.17    0.49
  -1  -1  13    2.75    0.57
   0   1 -13    2.56    0.30
   0   1 -13    3.24    0.49
   0  -1  13    3.17    0.65
   0  -1  13    2.27    0.48
  -1   1 -13    2.38    0.31
  -1   1 -13    2.90    0.46
   1  -1  13    1.97    0.48
   1  -1  13    2.68    0.62
  -2   1 -13    0.12    0.19
  -2   1 -13   -0.12    0.39
   2  -1  13    0.61    0.60
   2  -1  13   -0.07    0.41
  -3   1 -13    2.48    0.52
  -3   1 -13    1.83    0.30
   3  -1  13    1.51    0.48
   3  -1  13    1.53    0.71
  -4   1 -13    4.01    0.70
   4  -1  13    3.56    0.62
   4  -1  13    4.01    0.85
   5   0 -13    0.79    0.79
   5   0 -13    0.88    0.50
  -5   0  13    1.79    0.69
   4   0 -13    1.28    0.48
   4   0 -13   -0.11    0.67
  -4   0  13    0.95    0.59
   3   0 -13    0.31    0.41
  -3   0  13    0.35    0.54
  -3   0  13   -0.25    0.57
   2   0 -13   -0.06    0.39
  -2   0  13    0.26    0.53
  -2   0  13   -0.49    0.48
   1   0 -13    2.17    0.46
  -1   0  13    2.06    0.57
  -1   0  13    2.61    0.58
   0   0 -13    0.05    0.38
   0   0  13    0.27    0.49
   0   0  13   -0.06    0.49
  -1   0 -13    0.44    0.40
   1   0  13    0.57    0.54
   1   0  13    1.21    0.59
  -2   0 -13    0.64    0.47
   2   0  13    0.09    0.57
   2   0  13    0.34    0.53
  -3   0 -13    7.42    1.02
   3   0  13    6.06    0.77
   3   0  13    7.00    0.93
  -4   0 -13    4.72    0.80
   4  -1 -13   -0.85    0.74
   4  -1 -13    0.11    0.49
  -4   1  13    0.09    0.61
   3  -1 -13    1.47    0.50
  -3   1  13    1.83    0.71
  -3   1  13    1.94    0.66
   2  -1 -13    1.19    0.44
  -2   1  13    0.75    0.60
  -2   1  13    0.67    0.67
   1  -1 -13    0.42    0.43
  -1   1  13   -1.08    0.57
  -1   1  13    0.25    0.60
   0  -1 -13   -0.38    0.42
   0   1  13    0.35    0.58
   0   1  13    0.32    0.59
  -1  -1 -13    1.12    0.53
   1   1  13    0.70    0.63
   1   1  13    0.72    0.65
  -2  -1 -13    0.52    0.56
   2   1  13    0.36    0.62
   2   1  13    0.41    0.64
  -3  -1 -13    2.10    0.63
   3   1  13    0.05    0.71
   3   1  13    0.82    0.73
   3  -2 -13   -1.25    0.52
  -3   2  13    1.03    0.82
  -3   2  13    0.27    0.64
   2  -2 -13    0.37    0.53
  -2   2  13    0.41    0.75
  -2   2  13    0.21    0.67
   1  -2 -13    0.97    0.57
  -1   2  13    1.64    0.70
  -1   2  13   -0.31    0.66
   0  -2 -13    0.84    0.57
   0   2  13    1.12    0.74
   0   2  13    0.56    0.68
  -1  -2 -13    0.78    0.57
   1   2  13   -0.38    0.71
   1   2  13    1.00    0.72
  -2  -2 -13    0.33    0.65
   2   2  13    1.24    0.77
   2   7 -14    0.43    0.46
   2   7 -14    1.90    0.68
  -2  -7  14    0.67    0.73
   1   7 -14    3.00    0.69
   1   7 -14    3.38    0.55
  -1  -7  14    3.14    0.80
   0   7 -14    0.31    0.59
   0   7 -14   -0.25    0.42
   0  -7  14   -0.43    0.75
  -1   7 -14    0.92    0.47
  -1   7 -14   -0.52    0.55
   1  -7  14    0.20    0.78
  -2   7 -14    1.21    0.60
  -2   7 -14    1.19    0.48
   2  -7  14    1.92    0.80
   3   6 -14    0.48    0.43
  -3  -6  14   -0.31    0.64
  -3  -6  14    0.93    0.66
   2   6 -14    1.96    0.48
   2   6 -14    1.78    0.64
  -2  -6  14    1.62    0.66
   1   6 -14    1.94    0.59
   1   6 -14    1.70    0.45
  -1  -6  14    2.18    0.71
   0   6 -14   -0.59    0.38
   0   6 -14    0.86    0.53
   0  -6  14    0.41    0.69
  -1   6 -14    0.81    0.53
  -1   6 -14    1.32    0.43
   1  -6  14    1.24    0.71
  -2   6 -14   -0.07    0.50
  -2   6 -14   -0.01    0.38
   2  -6  14   -0.36    0.73
  -3   6 -14   -0.52    0.45
  -3   6 -14   -0.44    0.41
   3  -6  14   -0.05    0.86
   4   5 -14    0.00    0.43
  -4  -5  14    0.76    0.62
  -4  -5  14    1.43    0.67
   3   5 -14   -0.28    0.42
  -3  -5  14   -0.19    0.58
  -3  -5  14   -0.01    0.58
   2   5 -14    1.52    0.57
   2   5 -14    1.82    0.45
  -2  -5  14    1.89    0.68
   1   5 -14    1.83    0.43
   1   5 -14    1.73    0.55
  -1  -5  14    2.02    0.64
   0   5 -14    1.04    0.40
   0   5 -14    1.88    0.52
   0  -5  14    0.21    0.66
  -1   5 -14    1.67    0.49
  -1   5 -14    1.08    0.38
   1  -5  14    1.91    0.71
  -2   5 -14    0.30    0.45
  -2   5 -14   -0.47    0.38
   2  -5  14    0.63    0.75
  -3   5 -14    1.67    0.51
  -3   5 -14    1.74    0.48
   3  -5  14    1.53    0.79
   4   4 -14   -0.55    0.43
  -4  -4  14   -1.31    0.56
  -4  -4  14   -0.04    0.64
   3   4 -14    1.56    0.45
  -3  -4  14    2.73    0.65
  -3  -4  14    1.99    0.58
   2   4 -14    3.12    0.47
   2   4 -14    2.43    0.56
  -2  -4  14    2.41    0.63
   1   4 -14    1.65    0.40
   1   4 -14    1.22    0.49
  -1  -4  14    1.91    0.59
   0   4 -14   -0.25    0.42
   0   4 -14    0.55    0.36
   0  -4  14    0.04    0.58
  -1   4 -14    0.60    0.38
  -1   4 -14    0.38    0.39
   1  -4  14    1.84    0.67
  -2   4 -14    2.65    0.50
  -2   4 -14    3.28    0.52
   2  -4  14    3.37    0.79
  -3   4 -14    2.08    0.51
  -3   4 -14    1.84    0.48
   3  -4  14    3.30    0.86
   5   3 -14   -0.19    0.45
   4   3 -14    0.87    0.46
  -4  -3  14   -0.29    0.50
  -4  -3  14    0.55    0.60
   3   3 -14    1.23    0.45
   3   3 -14    1.09    0.39
  -3  -3  14    1.24    0.63
   2   3 -14    0.25    0.35
   2   3 -14    0.22    0.38
  -2  -3  14   -0.40    0.56
   1   3 -14    0.28    0.35
   1   3 -14    0.08    0.34
  -1  -3  14    0.43    0.55
   0   3 -14    1.34    0.35
   0   3 -14    0.70    0.37
   0  -3  14    0.49    0.51
  -1   3 -14    2.84    0.49
  -1   3 -14    3.61    0.46
   1  -3  14    3.21    0.78
  -2   3 -14    0.03    0.34
  -2   3 -14    0.74    0.43
   2  -3  14    0.96    0.70
  -3   3 -14    0.09    0.37
  -3   3 -14    0.85    0.50
   3  -3  14    0.62    0.73
   4   2 -14    0.50    0.44
   4   2 -14    0.15    0.59
  -4  -2  14   -0.40    0.65
   3   2 -14    0.53    0.39
  -3  -2  14   -0.02    0.56
   2   2 -14    0.25    0.37
  -2  -2  14   -0.42    0.54
  -2  -2  14    0.63    0.65
   1   2 -14    1.09    0.41
   1   2 -14    1.61    0.43
  -1  -2  14    1.57    0.64
   0   2 -14    0.33    0.26
   0   2 -14    1.18    0.42
   0  -2  14    1.28    0.60
  -1   2 -14    0.65    0.27
  -1   2 -14    0.41    0.45
   1  -2  14    1.73    0.64
  -2   2 -14    0.47    0.32
  -2   2 -14    1.09    0.49
   2  -2  14    0.21    0.67
  -3   2 -14    0.66    0.53
   3  -2  14    1.13    0.82
   4   1 -14    0.23    0.63
   4   1 -14   -0.17    0.49
  -4  -1  14    0.16    0.64
   3   1 -14    1.01    0.48
  -3  -1  14    2.36    0.68
  -3  -1  14    2.10    0.62
   2   1 -14    1.24    0.45
  -2  -1  14    1.90    0.59
  -2  -1  14    2.07    0.67
   1   1 -14    0.95    0.42
  -1  -1  14    0.83    0.61
  -1  -1  14    0.73    0.45
   0   1 -14    0.44    0.44
   0  -1  14    0.20    0.42
   0  -1  14    0.75    0.63
  -1   1 -14   -0.31    0.44
   1  -1  14    0.48    0.42
   1  -1  14   -0.22    0.61
  -2   1 -14    1.14    0.52
   2  -1  14    0.50    0.75
  -3   1 -14    4.93    0.74
   3  -1  14    7.87    1.04
   4   0 -14    1.59    0.56
  -4   0  14    0.37    0.66
  -4   0  14    1.44    0.72
   3   0 -14    0.34    0.50
  -3   0  14    0.73    0.69
  -3   0  14    0.89    0.63
   2   0 -14    0.45    0.50
  -2   0  14   -0.99    0.61
  -2   0  14    0.46    0.62
   1   0 -14   -0.13    0.47
  -1   0  14   -0.67    0.65
  -1   0  14    0.77    0.56
   0   0 -14    4.58    0.65
   0   0  14    2.64    0.61
   0   0  14    3.80    0.78
  -1   0 -14    3.66    0.66
   1   0  14    3.16    0.81
   1   0  14    2.66    0.63
  -2   0 -14    0.18    0.53
   2   0  14    0.34    0.58
   2   0  14    0.34    0.75
   3  -1 -14    0.06    0.53
  -3   1  14    0.52    0.83
  -3   1  14   -1.08    0.69
   2  -1 -14    1.67    0.56
  -2   1  14    1.59    0.76
  -2   1  14    1.01    0.68
   1  -1 -14    0.47    0.55
  -1   1  14   -0.28    0.69
  -1   1  14    0.68    0.72
   0  -1 -14    2.09    0.57
   0   1  14    1.15    0.72
   0   1  14    1.73    0.76
  -1  -1 -14    0.19    0.58
   1   1  14    1.57    0.71
   1   1  14    0.00    0.73
   1   6 -15    0.36    0.62
   1   6 -15    0.48    0.46
  -1  -6  15    0.69    0.77
   0   6 -15    1.14    0.62
   0   6 -15    0.70    0.46
   0  -6  15    1.52    0.75
  -1   6 -15    0.42    0.57
  -1   6 -15   -0.15    0.42
   1  -6  15    0.42    0.76
   2   5 -15    2.30    0.52
   2   5 -15    3.25    0.69
  -2  -5  15    3.53    0.84
   1   5 -15   -1.02    0.55
   1   5 -15    0.32    0.43
  -1  -5  15    0.72    0.76
   0   5 -15   -0.15    0.40
   0   5 -15   -0.32    0.51
   0  -5  15    0.00    0.75
  -1   5 -15    1.68    0.48
  -1   5 -15    1.33    0.55
   1  -5  15    2.20    0.77
  -2   5 -15    3.47    0.61
  -2   5 -15    3.91    0.59
   2  -5  15    4.03    0.93
   3   4 -15    0.98    0.55
   3   4 -15    0.22    0.43
  -3  -4  15    0.64    0.71
   2   4 -15    3.53    0.59
   2   4 -15    2.46    0.48
  -2  -4  15    4.30    0.80
   1   4 -15    0.18    0.42
   1   4 -15   -0.21    0.45
  -1  -4  15    0.35    0.71
   0   4 -15   -0.03    0.42
   0   4 -15    0.42    0.43
   0  -4  15    1.33    0.77
  -1   4 -15    0.45    0.42
  -1   4 -15   -0.32    0.44
   1  -4  15    0.90    0.72
  -2   4 -15    0.62    0.42
  -2   4 -15    1.22    0.54
   2  -4  15    1.41    0.78
   3   3 -15    2.40    0.50
  -3  -3  15    2.88    0.80
   2   3 -15    2.03    0.49
  -2  -3  15    1.75    0.77
   1   3 -15    1.17    0.46
  -1  -3  15    2.07    0.72
   0   3 -15    2.52    0.53
   0  -3  15    2.06    0.72
  -1   3 -15    0.22    0.47
   1  -3  15    0.65    0.71
  -2   3 -15    2.48    0.58
   2  -3  15    1.72    0.83
   3   2 -15    2.31    0.54
  -3  -2  15    2.10    0.71
   2   2 -15    3.29    0.58
  -2  -2  15    2.71    0.79
   1   2 -15    0.23    0.44
  -1  -2  15    0.80    0.67
   0   2 -15   -0.15    0.45
   0  -2  15    0.14    0.72
  -1   2 -15    1.67    0.55
   1  -2  15    2.68    0.77
  -2   2 -15    3.62    0.64
   2  -2  15    6.09    0.97
   2   1 -15   -0.34    0.49
  -2  -1  15   -0.56    0.66
   1   1 -15   -0.19    0.47
  -1  -1  15   -0.16    0.72
   0   1 -15    1.02    0.54
   0  -1  15    2.41    0.76
  -1   1 -15    0.89    0.53
   1  -1  15    0.97    0.73
   0   0   0    0.00    0.00
;
loop_
_space_group_symop_operation_xyz
'x, y, z'
'-x, -y, -z'
loop_
_atom_site_label
_atom_site_type_symbol
_atom_site_fract_x
_atom_site_fract_y
_atom_site_fract_z
_atom_site_U_iso_or_equiv
_atom_site_adp_type
_atom_site_occupancy
_atom_site_site_symmetry_order
_atom_site_calc_flag
_atom_site_refinement_flags_posn
_atom_site_refinement_flags_adp
_atom_site_refinement_flags_occupancy
_atom_site_disorder_assembly
_atom_site_disorder_group
C1 C 0.2951(3) 0.2482(3) 0.9100(2) 0.0498(6) Uani 1 1 d . . . . .
C2 C 0.4437(3) 0.3022(3) 0.85496(19) 0.0438(6) Uani 1 1 d . . . . .
C3 C 0.6218(3) 0.3226(3) 0.89986(18) 0.0407(5) Uani 1 1 d . . . . .
C4 C 0.6629(3) 0.2939(3) 1.0150(2) 0.0452(6) Uani 1 1 d . . . . .
C5 C 0.5144(3) 0.2296(3) 1.0696(2) 0.0458(6) Uani 1 1 d . . . . .
C6 C 0.5497(4) 0.1871(3) 1.1697(2) 0.0588(7) Uani 1 1 d . . . . .
H6 H 0.6681 0.2009 1.2034 0.071 Uiso 1 1 calc R U . . .
C7 C 0.4107(5) 0.1247(4) 1.2195(2) 0.0668(8) Uani 1 1 d . . . . .
H7 H 0.4355 0.0952 1.2860 0.080 Uiso 1 1 calc R U . . .
C8 C 0.2352(4) 0.1062(3) 1.1705(3) 0.0663(8) Uani 1 1 d . . . . .
H8 H 0.1415 0.0636 1.2038 0.080 Uiso 1 1 calc R U . . .
C9 C 0.1975(4) 0.1506(3) 1.0722(2) 0.0570(7) Uani 1 1 d . . . . .
H9 H 0.0781 0.1406 1.0409 0.068 Uiso 1 1 calc R U . . .
C10 C 0.3365(3) 0.2101(3) 1.0195(2) 0.0450(6) Uani 1 1 d . . . . .
C11 C 0.8048(3) 0.4157(3) 0.7568(2) 0.0500(6) Uani 1 1 d . . . . .
H11A H 0.9129 0.4966 0.7747 0.060 Uiso 1 1 calc R U . . .
H11B H 0.7037 0.4747 0.7403 0.060 Uiso 1 1 calc R U . . .
C12 C 0.8273(4) 0.2676(3) 0.6491(2) 0.0546(6) Uani 1 1 d . . . . .
H12A H 0.7180 0.1881 0.6293 0.066 Uiso 1 1 calc R U . . .
H12B H 0.9267 0.2067 0.6656 0.066 Uiso 1 1 calc R U . . .
C13 C 0.8649(4) 0.3257(4) 0.5453(2) 0.0663(8) Uani 1 1 d . . . . .
H13 H 0.9667 0.4161 0.5710 0.080 Uiso 1 1 calc R U . . .
C14 C 0.7050(6) 0.4038(5) 0.5061(3) 0.0935(11) Uani 1 1 d . . . . .
H14A H 0.5996 0.3217 0.4868 0.140 Uiso 1 1 calc R U . . .
H14B H 0.7317 0.4344 0.4388 0.140 Uiso 1 1 calc R U . . .
H14C H 0.6825 0.5048 0.5677 0.140 Uiso 1 1 calc R U . . .
C15 C 0.9208(7) 0.1841(6) 0.4459(3) 0.1187(17) Uani 1 1 d . . . . .
H15A H 0.9412 0.2256 0.3823 0.178 Uiso 1 1 calc R U . . .
H15B H 0.8267 0.0901 0.4215 0.178 Uiso 1 1 calc R U . . .
H15C H 1.0304 0.1455 0.4702 0.178 Uiso 1 1 calc R U . . .
Cl1 Cl 0.37878(9) 0.32735(10) 0.72237(5) 0.0664(3) Uani 1 1 d . . . . .
N1 N 0.7733(3) 0.3660(3) 0.85855(18) 0.0520(6) Uani 1 1 d . . . . .
O1 O 0.1372(2) 0.2296(3) 0.86772(18) 0.0747(6) Uani 1 1 d . . . . .
O2 O 0.8179(2) 0.3235(3) 1.05979(15) 0.0646(5) Uani 1 1 d . . . . .
H16 H 0.860(4) 0.359(4) 0.899(3) 0.061(8) Uiso 1 1 d . . . . .
loop_
_atom_site_aniso_label
_atom_site_aniso_U_11
_atom_site_aniso_U_22
_atom_site_aniso_U_33
_atom_site_aniso_U_23
_atom_site_aniso_U_13
_atom_site_aniso_U_12
C1 0.0385(13) 0.0544(14) 0.0518(14) 0.0105(11) 0.0003(10) 0.0097(10)
C2 0.0374(12) 0.0505(13) 0.0396(12) 0.0095(10) -0.0040(9) 0.0098(10)
C3 0.0331(11) 0.0440(12) 0.0389(11) 0.0052(10) -0.0003(9) 0.0083(9)
C4 0.0376(12) 0.0504(13) 0.0404(12) 0.0044(10) -0.0015(9) 0.0119(10)
C5 0.0479(14) 0.0440(13) 0.0408(12) 0.0066(10) 0.0020(10) 0.0109(10)
C6 0.0650(17) 0.0611(16) 0.0465(14) 0.0128(12) -0.0015(12) 0.0098(13)
C7 0.090(2) 0.0599(17) 0.0534(16) 0.0208(13) 0.0134(15) 0.0115(15)
C8 0.076(2) 0.0550(16) 0.0677(18) 0.0173(14) 0.0219(15) 0.0038(14)
C9 0.0498(15) 0.0494(14) 0.0662(17) 0.0106(13) 0.0101(12) 0.0038(11)
C10 0.0420(13) 0.0378(12) 0.0490(13) 0.0050(10) 0.0043(10) 0.0069(9)
C11 0.0419(13) 0.0575(15) 0.0473(13) 0.0139(11) 0.0028(10) 0.0009(11)
C12 0.0564(15) 0.0589(15) 0.0490(14) 0.0166(12) 0.0042(11) 0.0144(12)
C13 0.0736(19) 0.0798(19) 0.0533(16) 0.0277(15) 0.0122(14) 0.0238(15)
C14 0.106(3) 0.122(3) 0.069(2) 0.049(2) 0.0037(19) 0.041(2)
C15 0.175(5) 0.138(3) 0.063(2) 0.039(2) 0.050(3) 0.081(3)
Cl1 0.0469(4) 0.1026(6) 0.0514(4) 0.0298(4) -0.0081(3) 0.0090(3)
N1 0.0324(11) 0.0769(15) 0.0438(11) 0.0170(10) -0.0019(9) 0.0062(10)
O1 0.0325(10) 0.1175(17) 0.0770(13) 0.0383(12) -0.0065(9) 0.0060(10)
O2 0.0369(9) 0.1030(15) 0.0505(10) 0.0209(10) -0.0053(7) 0.0129(9)
loop_
_atom_type_symbol
_atom_type_description
_atom_type_scat_dispersion_real
_atom_type_scat_dispersion_imag
_atom_type_scat_source
C C 0.0033 0.0016 'International Tables Vol C Tables 4.2.6.8 and 6.1.1.4'
H H 0.0000 0.0000 'International Tables Vol C Tables 4.2.6.8 and 6.1.1.4'
N N 0.0061 0.0033 'International Tables Vol C Tables 4.2.6.8 and 6.1.1.4'
O O 0.0106 0.0060 'International Tables Vol C Tables 4.2.6.8 and 6.1.1.4'
Cl Cl 0.1484 0.1585 'International Tables Vol C Tables 4.2.6.8 and 6.1.1.4'
loop_
_geom_angle_atom_site_label_1
_geom_angle_atom_site_label_2
_geom_angle_atom_site_label_3
_geom_angle
_geom_angle_site_symmetry_1
_geom_angle_site_symmetry_3
O1 C1 C2 122.0(2) . .
O1 C1 C10 119.6(2) . .
C2 C1 C10 118.4(2) . .
C3 C2 C1 123.2(2) . .
C3 C2 Cl1 122.86(19) . .
C1 C2 Cl1 113.80(17) . .
N1 C3 C2 130.6(2) . .
N1 C3 C4 111.09(19) . .
C2 C3 C4 118.3(2) . .
O2 C4 C5 121.7(2) . .
O2 C4 C3 119.1(2) . .
C5 C4 C3 119.27(19) . .
C6 C5 C10 119.7(2) . .
C6 C5 C4 120.8(2) . .
C10 C5 C4 119.5(2) . .
C7 C6 C5 120.6(3) . .
C7 C6 H6 119.7 . .
C5 C6 H6 119.7 . .
C8 C7 C6 119.7(3) . .
C8 C7 H7 120.1 . .
C6 C7 H7 120.1 . .
C7 C8 C9 120.4(3) . .
C7 C8 H8 119.8 . .
C9 C8 H8 119.8 . .
C8 C9 C10 120.5(3) . .
C8 C9 H9 119.7 . .
C10 C9 H9 119.7 . .
C9 C10 C5 119.0(2) . .
C9 C10 C1 120.0(2) . .
C5 C10 C1 121.0(2) . .
N1 C11 C12 114.2(2) . .
N1 C11 H11A 108.7 . .
C12 C11 H11A 108.7 . .
N1 C11 H11B 108.7 . .
C12 C11 H11B 108.7 . .
H11A C11 H11B 107.6 . .
C11 C12 C13 112.5(2) . .
C11 C12 H12A 109.1 . .
C13 C12 H12A 109.1 . .
C11 C12 H12B 109.1 . .
C13 C12 H12B 109.1 . .
H12A C12 H12B 107.8 . .
C15 C13 C14 110.8(3) . .
C15 C13 C12 112.2(3) . .
C14 C13 C12 111.9(3) . .
C15 C13 H13 107.2 . .
C14 C13 H13 107.2 . .
C12 C13 H13 107.2 . .
C13 C14 H14A 109.5 . .
C13 C14 H14B 109.5 . .
H14A C14 H14B 109.5 . .
C13 C14 H14C 109.5 . .
H14A C14 H14C 109.5 . .
H14B C14 H14C 109.5 . .
C13 C15 H15A 109.5 . .
C13 C15 H15B 109.5 . .
H15A C15 H15B 109.5 . .
C13 C15 H15C 109.5 . .
H15A C15 H15C 109.5 . .
H15B C15 H15C 109.5 . .
C3 N1 C11 132.1(2) . .
C3 N1 H16 110(2) . .
C11 N1 H16 118(2) . .
loop_
_geom_bond_atom_site_label_1
_geom_bond_atom_site_label_2
_geom_bond_distance
_geom_bond_site_symmetry_2
C1 O1 1.229(3) .
C1 C2 1.443(4) .
C1 C10 1.486(3) .
C2 C3 1.376(3) .
C2 Cl1 1.737(2) .
C3 N1 1.333(3) .
C3 C4 1.513(3) .
C4 O2 1.215(3) .
C4 C5 1.476(3) .
C5 C6 1.388(4) .
C5 C10 1.396(3) .
C6 C7 1.379(4) .
C6 H6 0.9300 .
C7 C8 1.376(4) .
C7 H7 0.9300 .
C8 C9 1.379(4) .
C8 H8 0.9300 .
C9 C10 1.390(4) .
C9 H9 0.9300 .
C11 N1 1.453(3) .
C11 C12 1.507(4) .
C11 H11A 0.9700 .
C11 H11B 0.9700 .
C12 C13 1.525(4) .
C12 H12A 0.9700 .
C12 H12B 0.9700 .
C13 C15 1.494(5) .
C13 C14 1.517(4) .
C13 H13 0.9800 .
C14 H14A 0.9600 .
C14 H14B 0.9600 .
C14 H14C 0.9600 .
C15 H15A 0.9600 .
C15 H15B 0.9600 .
C15 H15C 0.9600 .
N1 H16 0.80(3) .
loop_
_geom_hbond_atom_site_label_D
_geom_hbond_atom_site_label_H
_geom_hbond_atom_site_label_A
_geom_hbond_distance_DH
_geom_hbond_distance_HA
_geom_hbond_distance_DA
_geom_hbond_angle_DHA
_geom_hbond_site_symmetry_A
C11 H11B Cl1 0.97 2.58 3.165(3) 118.6 .
C12 H12A Cl1 0.97 2.99 3.536(3) 117.0 .
N1 H16 O2 0.80(3) 2.11(3) 2.591(3) 118(3) .
loop_
_geom_torsion_atom_site_label_1
_geom_torsion_atom_site_label_2
_geom_torsion_atom_site_label_3
_geom_torsion_atom_site_label_4
_geom_torsion
_geom_torsion_site_symmetry_1
_geom_torsion_site_symmetry_2
_geom_torsion_site_symmetry_3
_geom_torsion_site_symmetry_4
O1 C1 C2 C3 -179.5(2) . . . .
C10 C1 C2 C3 -1.0(3) . . . .
O1 C1 C2 Cl1 -2.9(3) . . . .
C10 C1 C2 Cl1 175.53(16) . . . .
C1 C2 C3 N1 177.7(2) . . . .
Cl1 C2 C3 N1 1.5(4) . . . .
C1 C2 C3 C4 -2.5(3) . . . .
Cl1 C2 C3 C4 -178.75(15) . . . .
N1 C3 C4 O2 5.1(3) . . . .
C2 C3 C4 O2 -174.8(2) . . . .
N1 C3 C4 C5 -174.5(2) . . . .
C2 C3 C4 C5 5.7(3) . . . .
O2 C4 C5 C6 -5.4(4) . . . .
C3 C4 C5 C6 174.2(2) . . . .
O2 C4 C5 C10 175.1(2) . . . .
C3 C4 C5 C10 -5.4(3) . . . .
C10 C5 C6 C7 0.5(4) . . . .
C4 C5 C6 C7 -179.1(2) . . . .
C5 C6 C7 C8 -0.8(4) . . . .
C6 C7 C8 C9 -0.3(4) . . . .
C7 C8 C9 C10 1.7(4) . . . .
C8 C9 C10 C5 -2.0(4) . . . .
C8 C9 C10 C1 176.6(2) . . . .
C6 C5 C10 C9 0.9(3) . . . .
C4 C5 C10 C9 -179.5(2) . . . .
C6 C5 C10 C1 -177.7(2) . . . .
C4 C5 C10 C1 1.8(3) . . . .
O1 C1 C10 C9 1.3(4) . . . .
C2 C1 C10 C9 -177.2(2) . . . .
O1 C1 C10 C5 179.9(2) . . . .
C2 C1 C10 C5 1.4(3) . . . .
N1 C11 C12 C13 -178.5(2) . . . .
C11 C12 C13 C15 169.4(3) . . . .
C11 C12 C13 C14 -65.4(4) . . . .
C2 C3 N1 C11 4.0(4) . . . .
C4 C3 N1 C11 -175.8(2) . . . .
C12 C11 N1 C3 -90.5(3) . . . .
