#------------------------------------------------------------------------------
#$Date: 2022-03-09 12:38:37 +0200 (Wed, 09 Mar 2022) $
#$Revision: 273567 $
#$URL: file:///home/coder/svn-repositories/cod/cif/8/10/47/8104706.cif $
#------------------------------------------------------------------------------
#
# This file is available in the Crystallography Open Database (COD),
# http://www.crystallography.net/
#
# All data on this site have been placed in the public domain by the
# contributors.
#
data_8104706
loop_
_publ_author_name
'Geng, Lei'
_publ_section_title
;
 The crystal structure of Ba 2 Mn(SeO3)2Cl2 containing 1
 \\infty[Mn(SeO3)2Cl2]4&#x2212; chains
;
_journal_issue                   4
_journal_name_full
'Zeitschrift f\"ur Kristallographie - New Crystal Structures'
_journal_page_first              771
_journal_page_last               772
_journal_paper_doi               10.1515/ncrs-2021-0097
_journal_volume                  236
_journal_year                    2021
_chemical_formula_sum            'Ba2 Cl2 Mn O6 Se2'
_chemical_formula_weight         654.44
_space_group_crystal_system      orthorhombic
_space_group_IT_number           58
_space_group_name_Hall           '-P 2 2n'
_space_group_name_H-M_alt        'P n n m'
_atom_sites_solution_hydrogens   .
_cell_angle_alpha                90
_cell_angle_beta                 90
_cell_angle_gamma                90
_cell_formula_units_Z            2
_cell_length_a                   6.7685(5)
_cell_length_b                   12.8618(10)
_cell_length_c                   5.4685(4)
_cell_measurement_reflns_used    6093
_cell_measurement_temperature    298(2)
_cell_measurement_theta_max      27.47
_cell_measurement_theta_min      3.01
_cell_volume                     476.06(6)
_computing_structure_refinement  'SHELXL-2014/7 (Sheldrick, 2014)'
_diffrn_ambient_temperature      298(2)
_diffrn_measured_fraction_theta_full 1.000
_diffrn_measured_fraction_theta_max 1.000
_diffrn_measurement_device_type  'Bruker D8 QUEST CCD area detector'
_diffrn_radiation_type           MoK\a
_diffrn_radiation_wavelength     0.71073
_diffrn_reflns_av_R_equivalents  0.0473
_diffrn_reflns_av_unetI/netI     0.0221
_diffrn_reflns_Laue_measured_fraction_full 1.000
_diffrn_reflns_Laue_measured_fraction_max 1.000
_diffrn_reflns_limit_h_max       8
_diffrn_reflns_limit_h_min       -8
_diffrn_reflns_limit_k_max       16
_diffrn_reflns_limit_k_min       -16
_diffrn_reflns_limit_l_max       7
_diffrn_reflns_limit_l_min       -7
_diffrn_reflns_number            6943
_diffrn_reflns_point_group_measured_fraction_full 1.000
_diffrn_reflns_point_group_measured_fraction_max 1.000
_diffrn_reflns_theta_full        25.242
_diffrn_reflns_theta_max         27.473
_diffrn_reflns_theta_min         3.168
_exptl_absorpt_coefficient_mu    17.683
_exptl_absorpt_correction_T_max  0.171
_exptl_absorpt_correction_T_min  0.09
_exptl_absorpt_correction_type   multi-scan
_exptl_crystal_colour            colorless
_exptl_crystal_density_diffrn    4.565
_exptl_crystal_description       needle
_exptl_crystal_F_000             574
_exptl_crystal_size_max          0.200
_exptl_crystal_size_mid          0.120
_exptl_crystal_size_min          0.100
_refine_diff_density_max         1.294
_refine_diff_density_min         -0.527
_refine_diff_density_rms         0.237
_refine_ls_extinction_coef       0.0102(13)
_refine_ls_extinction_expression Fc^*^=kFc[1+0.001xFc^2^\l^3^/sin(2\q)]^-1/4^
_refine_ls_extinction_method     'SHELXL-2014/7 (Sheldrick 2014'
_refine_ls_goodness_of_fit_ref   1.077
_refine_ls_hydrogen_treatment    undef
_refine_ls_matrix_type           full
_refine_ls_number_parameters     39
_refine_ls_number_reflns         604
_refine_ls_number_restraints     0
_refine_ls_restrained_S_all      1.077
_refine_ls_R_factor_all          0.0200
_refine_ls_R_factor_gt           0.0191
_refine_ls_shift/su_max          0.001
_refine_ls_shift/su_mean         0.000
_refine_ls_structure_factor_coef Fsqd
_refine_ls_weighting_details
'w=1/[\s^2^(Fo^2^)+(0.0673P)^2^+0.9680P] where P=(Fo^2^+2Fc^2^)/3'
_refine_ls_weighting_scheme      calc
_refine_ls_wR_factor_gt          0.0843
_refine_ls_wR_factor_ref         0.0854
_reflns_Friedel_coverage         0.000
_reflns_Friedel_fraction_full    .
_reflns_Friedel_fraction_max     .
_reflns_number_gt                584
_reflns_number_total             604
_reflns_threshold_expression     'I > 2\s(I)'
_cod_data_source_file            suppl_j_ncrs-2021-0097_suppl.cif
_cod_data_source_block           a
_cod_database_code               8104706
_shelx_space_group_comment
;
The symmetry employed for this shelxl refinement is uniquely defined
by the following loop, which should always be used as a source of
symmetry information in preference to the above space-group names.
They are only intended as comments.
;
_shelx_estimated_absorpt_t_min   0.126
_shelx_estimated_absorpt_t_max   0.271
_shelx_res_file
;

    a.res created by SHELXL-2014/7


TITL a in Pnnm
CELL 0.71073   6.7685  12.8618   5.4685  90.000  90.000  90.000
ZERR    2.00   0.0005   0.0010   0.0004   0.000   0.000   0.000
LATT  1
SYMM -X, -Y, Z
SYMM 0.5-X, 0.5+Y, 0.5-Z
SYMM 0.5+X, 0.5-Y, 0.5-Z
SFAC O CL MN SE BA
UNIT 12 4 2 4 4
TEMP -273.15
size 0.2 0.12 0.1
acta
L.S. 4
BOND
FMAP 2
PLAN 20
WGHT    0.067300    0.968000
EXTI    0.010153
FVAR       0.10713
BA1   5    0.304820    0.269214    0.000000    10.50000    0.01089    0.01322 =
         0.01147    0.00000    0.00000   -0.00133
MN1   3    0.000000    0.000000    0.000000    10.25000    0.01419    0.01150 =
         0.00657    0.00000    0.00000   -0.00180
SE1   4    0.763627    0.421816    0.000000    10.50000    0.01210    0.01029 =
         0.00829    0.00000    0.00000   -0.00134
O1    1    0.610253    0.388488    0.235914    11.00000    0.01670    0.01658 =
         0.00883   -0.00138    0.00459    0.00012
O2    1    0.920830    0.321972    0.000000    10.50000    0.01394    0.02709 =
         0.02235    0.00000    0.00000    0.00311
CL1   2    0.673578    0.104765    0.000000    10.50000    0.01658    0.01959 =
         0.01872    0.00000    0.00000    0.00332

HKLF 4

REM  a in Pnnm
REM R1 =  0.0191 for     584 Fo > 4sig(Fo)  and  0.0200 for all     604 data
REM     39 parameters refined using      0 restraints

END

WGHT      0.0151      1.8905

REM Highest difference peak  1.294,  deepest hole -0.527,  1-sigma level  0.237
Q1    1   0.7650  0.0529  0.0000  10.50000  0.05    1.29
Q2    1   0.7481  0.4940  0.0000  10.50000  0.05    1.16
Q3    1   0.8094  0.3685  0.0000  10.50000  0.05    1.10
Q4    1   0.1954  0.2659  0.0000  10.50000  0.05    1.02
Q5    1   0.2485  0.1686  0.0000  10.50000  0.05    0.97
Q6    1   0.7801  0.1126  0.0000  10.50000  0.05    0.95
Q7    1   1.0972  0.3098  0.0000  10.50000  0.05    0.94
Q8    1   0.4331  0.2349  0.0000  10.50000  0.05    0.77
Q9    1   0.9018  0.4676  0.0000  10.50000  0.05    0.76
Q10   1   0.6142  0.1991  0.0000  10.50000  0.05    0.75
Q11   1   0.5012  0.1422  0.0000  10.50000  0.05    0.73
Q12   1   0.6303 -0.0059  0.0000  10.50000  0.05    0.71
Q13   1   0.4809  0.3470  0.0000  10.50000  0.05    0.68
Q14   1   0.6219  0.3739  0.0000  10.50000  0.05    0.63
Q15   1   0.5801  0.0711  0.0000  10.50000  0.05    0.61
Q16   1   0.9673  0.1970  0.0000  10.50000  0.05    0.59
Q17   1  -0.0888  0.0925  0.0000  10.50000  0.05    0.57
Q18   1   0.4983  0.4471  0.0000  10.50000  0.05    0.51
Q19   1   0.6716  0.2919  0.0000  10.50000  0.05    0.49
Q20   1   0.6221  0.4915  0.0000  10.50000  0.05    0.48
;
_shelx_hkl_file
;
   0   0   1    0.05    0.15
   0   0   1   -0.38    0.14
   0   0  -1   -0.12    0.10
   0   0  -1   -0.46    0.14
   0   0  -2  879.48   55.65
   0   0  -2  977.71   55.69
   0   0   2 1000.00   55.69
   0   0   2  972.14   56.02
   0   0  -3   -0.20    0.12
   0   0   3    0.02    0.17
   0   0   3   -0.17    0.09
   0   0   3   -0.25    0.15
   0   0  -3   -0.17    0.08
   0   0   4  858.75   47.47
   0   0  -4  817.71   47.43
   0   0  -4  806.26   47.45
   0   0   4  780.97   47.43
   0   0   4  818.43   47.50
   0   0   5    0.08    0.14
   0   0   5   -0.21    0.27
   0   0   5    0.19    0.26
   0   0  -5   -0.08    0.17
   0   0   6  304.27   17.89
   0   0   6  301.39   17.82
   0   0   6  303.58   18.00
   0   0  -6  316.52   17.86
   0   0  -7    0.30    0.28
   0   0   7   -0.49    0.47
   1   0   1    2.99    0.30
   1   0  -1    3.87    0.29
  -1   0   1    3.36    0.29
  -1   0   1    3.92    0.36
   1   0   1    3.47    0.29
  -1   0   1    3.12    0.31
   1   0  -1    3.01    0.36
   1   0  -2   -0.13    0.07
   1   0   2   -0.21    0.11
  -1   0   2   -0.14    0.08
  -1   0   2   -0.02    0.15
   1   0   2   -0.20    0.10
   1   0   2   -0.13    0.07
  -1   0  -2   -0.14    0.09
   1   0  -2   -0.23    0.12
   1   0  -3    0.21    0.09
  -1   0   3    0.22    0.18
  -1   0  -3    0.25    0.12
   1   0  -3    0.24    0.17
   1   0   3    0.30    0.15
   1   0   3    0.25    0.10
  -1   0   3    0.25    0.10
  -1   0   3    0.10    0.18
   1   0  -4    0.08    0.19
   1   0   4    0.18    0.24
  -1   0   4    0.10    0.13
   1   0  -4   -0.11    0.11
  -1   0   4    0.28    0.25
   1   0   4    0.34    0.12
  -1   0  -4    0.12    0.16
   1   0   4    0.06    0.23
  -1   0   4    0.16    0.24
  -1   0   5    4.17    0.57
  -1   0  -5    3.68    0.41
   1   0   5    3.08    0.62
   1   0   5    3.62    0.51
  -1   0   5    4.17    0.68
   1   0   5    3.67    0.39
   1   0  -5    3.63    0.44
  -1   0   6   -0.06    0.29
   1   0   6    0.35    0.32
   1   0   6    0.55    0.28
  -1   0  -6    0.21    0.21
   1   0  -6   -0.03    0.22
   1   0   6   -0.06    0.18
  -1   0   6   -0.11    0.31
   1   0  -7    0.66    0.30
   2   0   0  409.29   26.03
  -2   0   0  501.78   26.14
   2   0   0  432.22   26.10
   2   0   1   -0.12    0.13
   2   0   1   -0.03    0.08
  -2   0   1   -0.17    0.08
   2   0  -2  412.99   23.97
   2   0  -2  420.68   24.00
   2   0   2  410.07   24.04
  -2   0   2  414.01   24.01
   2   0   2  439.06   24.04
  -2   0   2  430.08   23.98
   2   0   2  361.46   24.05
   2   0   3    0.15    0.11
  -2   0   4  219.21   13.28
   2   0   4  229.37   13.30
  -2   0   4  223.32   13.32
  -2   0   4  247.46   13.39
   2   0   4  232.78   13.38
   2   0   4  216.12   13.32
   2   0  -4  229.79   13.32
   2   0   5    0.25    0.15
   2   0   5    0.24    0.23
   2   0   5    0.33    0.26
   2   0   6  126.18    7.24
   2   0   6  119.71    7.20
   2   0  -6  127.29    7.24
  -2   0   6  122.62    7.36
   2   0   6  117.55    7.36
   3   0   0    0.24    0.15
  -3   0   0    0.24    0.21
  -3   0   0    0.10    0.15
   3   0   0    0.29    0.17
   3   0   1  311.55   19.19
  -3   0   1  357.78   19.21
   3   0  -1  317.88   19.20
   3   0   1  318.64   19.22
  -3   0   1  346.70   19.21
   3   0  -1  325.70   19.21
  -3   0   1  372.64   19.20
   3   0   1  292.08   19.22
   3   0   2    0.06    0.11
   3   0  -2   -0.14    0.19
  -3   0   2    0.38    0.22
   3   0   2   -0.08    0.14
  -3   0   2   -0.01    0.14
   3   0   2   -0.03    0.12
  -3   0   2    0.16    0.13
   3   0  -3  224.01   12.83
   3   0   3  222.59   12.87
   3   0   3  227.68   12.83
  -3   0   3  202.44   12.87
   3   0   3  220.06   12.86
   3   0   3  216.93   12.88
   3   0  -3  208.72   12.86
  -3   0   3  219.36   12.83
   3   0   3  231.64   12.83
  -3   0   3  230.96   12.87
  -3   0   4    0.30    0.31
   3   0   4   -0.05    0.25
  -3   0   4   -0.02    0.27
   3   0   4    0.20    0.17
   3   0   4   -0.09    0.19
   3   0  -4   -0.13    0.29
   3   0  -4    0.04    0.15
   3   0   4   -0.11    0.21
  -3   0   4    0.01    0.17
   3   0  -5  126.61    7.55
   3   0   5  123.53    7.61
  -3   0   5  135.52    7.63
  -3   0   5  127.35    7.57
   3   0   5  130.05    7.53
   3   0   5  130.85    7.56
   3   0   5  130.20    7.52
  -3   0   5  120.57    7.63
  -3   0   6   -0.39    0.32
   3   0  -6    0.08    0.28
   3   0   6    0.08    0.32
   3   0   6   -0.10    0.25
   3   0   6    0.64    0.29
   3   0   6   -0.24    0.20
   4   0   0   88.11    5.36
  -4   0   0   89.77    5.38
   4   0   0   88.49    5.39
  -4   0   0   98.88    5.41
  -4   0  -1    0.29    0.19
   4   0   1    0.38    0.18
  -4   0   1    0.39    0.25
   4   0  -1   -0.06    0.19
   4   0  -1    0.27    0.23
   4   0   1   -0.04    0.17
   4   0  -2  194.32   10.76
   4   0   2  192.74   10.75
  -4   0   2  176.75   10.81
   4   0  -2  176.69   10.76
   4   0   2  168.21   10.74
  -4   0   2  193.76   10.76
  -4   0   2  199.94   10.74
   4   0   2  175.12   10.81
   4   0   2  179.84   10.73
  -4   0   3    0.86    0.34
  -4   0   3    0.11    0.21
   4   0  -3    0.09    0.28
   4   0   3    0.28    0.16
   4   0   3    0.22    0.21
   4   0  -3    0.36    0.23
   4   0   3   -0.02    0.18
   4   0   3   -0.10    0.19
   4   0   3    0.11    0.23
  -4   0   3    0.08    0.18
  -4   0   3   -0.12    0.18
   4   0   4   60.16    3.80
  -4   0   4   61.95    3.81
   4   0   4   63.27    3.83
   4   0  -4   71.09    3.85
   4   0   4   63.02    3.75
   4   0   4   60.14    3.78
  -4   0   4   67.77    3.81
   4   0   4   64.63    3.73
   4   0  -4   56.64    3.78
  -4   0   4   64.02    3.74
   4   0   4   60.89    3.80
  -4   0   5    0.29    0.36
   4   0   5    0.12    0.25
   4   0   5    0.07    0.21
   4   0  -5   -0.09    0.21
   4   0   5    0.17    0.25
   4   0   5    0.22    0.27
  -4   0   5    0.41    0.20
   4   0   5    0.32    0.24
   4   0  -5    0.08    0.27
  -4   0   5    0.36    0.29
   4   0  -6   58.16    3.59
  -4   0   6   58.90    3.69
   4   0   6   60.24    3.56
   4   0   6   56.97    3.56
   4   0   6   63.23    3.54
   4   0   6   57.88    3.61
   4   0   6   55.90    3.70
  -5   0   0   -0.09    0.24
  -5   0   0    0.52    0.29
   5   0   0    0.50    0.26
   5   0   0   -0.03    0.23
  -5   0   1   94.56    5.44
   5   0   1   90.32    5.40
  -5   0  -1   86.66    5.42
   5   0  -1   88.95    5.44
  -5   0   1  100.85    5.44
   5   0  -1   91.53    5.41
   5   0   1   88.56    5.44
  -5   0   2    0.27    0.14
   5   0  -2    0.00    0.31
   5   0   2    0.03    0.16
   5   0   2    0.11    0.13
   5   0   2    0.16    0.23
   5   0   2    0.31    0.22
   5   0  -2   -0.01    0.28
  -5   0   2    0.08    0.23
  -5   0   2    0.49    0.36
  -5   0   2   -0.03    0.16
   5   0   3   70.71    4.55
   5   0  -3   73.93    4.51
  -5   0   3   78.64    4.50
  -5   0   3   67.53    4.49
   5   0   3   74.29    4.49
   5   0   3   73.69    4.54
   5   0   3   74.12    4.50
  -5   0   3   78.35    4.54
   5   0   3   77.65    4.47
   5   0  -3   75.29    4.52
  -5   0   3   82.84    4.49
   5   0   3   81.26    4.51
   5   0   4    0.06    0.23
  -5   0   4    0.06    0.30
   5   0  -4   -0.09    0.29
   5   0  -4    0.02    0.27
  -5   0   4    0.29    0.21
   5   0   4    0.18    0.22
  -5   0   4   -0.12    0.22
   5   0   4    0.02    0.21
  -5   0   4   -0.25    0.36
   5   0   4    0.01    0.19
   5   0   4    0.37    0.24
   5   0   4    0.16    0.23
   5   0  -5   30.61    2.07
   5   0   5   32.71    2.14
   5   0   5   32.57    2.04
   5   0   5   34.31    2.12
   5   0   5   31.77    2.11
  -5   0   5   30.23    2.12
  -5   0   5   34.46    2.14
   5   0  -5   30.52    2.09
   5   0   5   36.24    2.03
  -5   0   5   31.44    2.17
   5   0   5   34.28    2.12
  -6   0   0    5.25    0.77
   6   0   0    5.48    0.64
   6   0   0    6.07    0.64
  -6   0   0    7.25    0.69
  -6   0   1   -0.17    0.34
   6   0  -1    0.09    0.30
   6   0   1   -0.10    0.24
  -6   0  -1    0.32    0.30
   6   0  -1   -0.02    0.25
   6   0   1    0.01    0.22
   6   0  -2   15.22    1.08
   6   0   2   12.77    0.92
   6   0   2   15.46    1.07
   6   0   2   14.44    0.92
   6   0   2   14.33    1.02
  -6   0   2   15.18    1.14
   6   0  -2   15.64    1.17
   6   0   3    0.17    0.23
   6   0  -3   -0.25    0.28
   6   0   3   -0.05    0.17
  -6   0   3    0.06    0.19
  -6   0   3    0.32    0.22
   6   0   3    0.22    0.18
   6   0   3   -0.23    0.24
  -6   0   3    0.26    0.26
   6   0  -3    0.43    0.38
  -6   0   4    3.61    0.55
  -6   0   4    3.60    0.58
   6   0   4    3.63    0.71
   6   0   4    3.79    0.73
   6   0   4    3.96    0.64
   6   0  -4    2.66    0.53
   6   0   4    3.62    0.53
   6   0  -4    3.60    0.62
  -6   0   4    4.49    0.68
   6   0   5    0.22    0.28
   6   0  -5    0.33    0.36
   6   0   5    0.79    0.36
   6   0   5   -0.22    0.36
  -6   0   5    0.40    0.42
  -6   0   5    0.48    0.30
   7   0   0    1.80    0.35
   7   0   0    2.82    0.57
  -7   0  -1   16.07    1.22
  -7   0   1   13.07    1.14
   7   0  -1   16.11    1.13
   7   0  -1   15.09    1.23
  -7   0   1   17.21    1.22
   7   0   1   15.09    1.14
   7   0   1   16.49    1.15
   7   0   2    1.80    0.38
  -7   0   2    1.05    0.33
  -7   0   2    0.79    0.62
   7   0  -2    1.27    0.32
   7   0   3   11.89    0.82
   7   0   3   11.80    0.95
   7   0   3   10.68    0.80
  -7   0   3   10.63    0.95
   7   0  -3   13.07    0.98
   7   0  -4   -1.52    0.85
   7   0   4    1.02    0.35
   7   0   4    0.82    0.37
   7   0  -4    0.98    0.37
   7   0   4    0.40    0.25
  -7   0   4    0.32    0.32
  -8   0   0   13.95    1.27
   8   0   0   16.17    1.13
   8   0  -1   -0.19    0.28
   8   0   1   -0.28    0.28
  -8   0  -1    0.25    0.46
  -8   0   1   -0.79    0.86
   8   0  -2   28.03    1.73
  -8   0   2   22.10    1.75
   8   0   2   27.07    1.71
   0   1  -1   32.43    2.02
   0   1   1   32.34    2.02
   0  -1  -1   32.73    2.02
   0   1   1   36.64    2.04
   0  -1   1   31.75    2.02
   0  -1   1   36.04    2.05
   0   1   1   35.99    2.02
   0  -1  -1   37.18    2.04
   0  -1  -1   34.88    2.02
   0  -1  -2    0.12    0.11
   0  -1  -2    0.03    0.06
   0   1   2    0.04    0.11
   0   1   2    0.14    0.07
   0   1  -2    0.03    0.10
   0   1   2    0.04    0.12
   0  -1  -2   -0.02    0.10
   0  -1   2    0.05    0.13
   0   1   3   18.21    1.13
   0  -1   3   17.39    1.11
   0   1  -3   15.62    1.02
   0   1   3   16.27    1.04
   0   1   3   16.10    1.00
   0  -1  -3   16.24    1.00
   0  -1  -3   15.96    1.02
   0  -1   3   16.41    1.04
   0   1  -4    0.29    0.17
   0   1   4    0.12    0.30
   0  -1  -4    0.15    0.16
   0  -1  -4   -0.02    0.12
   0   1   4    0.03    0.23
   0  -1   4   -0.16    0.21
   0  -1   4   -0.18    0.24
   0   1   5   18.10    1.21
   0   1   5   18.01    1.32
   0  -1   5   18.56    1.34
   0  -1   5   17.88    1.21
   0   1   5   17.79    1.13
   0  -1  -5   17.15    1.14
   0  -1  -5   18.17    1.14
   0  -1   5   17.29    1.29
   0   1   6    0.24    0.29
   0   1  -6    0.18    0.22
   0  -1   6    0.25    0.29
   0   1   6   -0.02    0.18
   0  -1  -6    0.42    0.21
   0  -1   6   -0.03    0.31
   0   1  -7    3.56    0.59
   0   1   7    3.07    0.48
   0  -1   7    3.16    0.75
   0  -1  -7    4.09    0.57
   0   1   7    3.47    0.71
  -1   1   0   22.16    1.38
   1  -1   0   23.52    1.36
  -1   1   0   24.21    1.36
   1  -1   0   21.90    1.37
   1  -1   1   75.69    4.04
  -1   1   1   61.72    4.03
   1   1  -1   68.93    4.02
  -1   1   1   71.92    4.04
  -1   1   1   72.44    4.02
   1  -1   1   74.27    4.03
  -1  -1  -1   63.92    4.03
   1  -1  -1   66.31    4.03
   1  -1  -1   70.89    4.02
  -1  -1   1   72.05    4.04
   1  -1  -1   66.97    4.03
   1   1   1   70.27    4.02
   1   1   1   58.98    4.03
  -1   1   2    2.78    0.34
  -1   1   2    2.88    0.23
  -1  -1  -2    2.59    0.29
   1   1  -2    2.50    0.28
  -1   1   2    3.42    0.33
   1  -1   2    2.58    0.37
  -1  -1  -2    2.57    0.23
   1  -1   2    2.99    0.31
   1  -1   2    2.78    0.23
  -1  -1  -2    2.34    0.23
   1   1   2    2.23    0.25
   1  -1  -2    2.77    0.28
   1  -1  -2    2.83    0.23
   1   1   2    2.81    0.24
   1  -1  -2    2.44    0.30
  -1  -1   2    2.64    0.30
   1   1   2    2.49    0.30
   1  -1   3   62.95    3.46
  -1   1   3   62.00    3.46
   1   1  -3   57.26    3.40
  -1  -1  -3   55.78    3.39
   1  -1   3   55.63    3.38
   1  -1   3   55.70    3.40
  -1   1   3   60.85    3.42
  -1   1   3   55.20    3.38
  -1  -1  -3   54.52    3.38
  -1  -1   3   57.73    3.46
   1   1   3   57.27    3.39
   1  -1  -3   59.37    3.41
   1  -1  -3   57.97    3.38
  -1  -1   3   57.47    3.41
   1   1   3   59.66    3.46
   1   1   3   54.63    3.39
  -1   1  -3   56.73    3.39
   1  -1   4    6.75    0.46
  -1  -1  -4    6.46    0.49
  -1   1   4    6.53    0.68
   1  -1   4    6.65    0.67
   1   1  -4    6.67    0.54
  -1  -1  -4    5.87    0.49
  -1   1   4    6.81    0.48
   1  -1   4    5.64    0.57
  -1   1   4    6.47    0.63
  -1  -1   4    6.92    0.69
   1  -1  -4    6.10    0.47
  -1  -1   4    6.79    0.62
   1  -1  -4    6.46    0.55
   1   1   4    6.72    0.66
  -1   1  -4    5.37    0.51
   1   1   4    6.51    0.48
   1   1   4    5.96    0.57
  -1  -1  -5   24.03    1.53
  -1   1   5   25.32    1.52
   1  -1   5   25.91    1.71
  -1   1   5   26.39    1.72
   1  -1   5   25.00    1.70
  -1   1   5   25.57    1.66
   1   1  -5   24.73    1.56
   1  -1   5   25.46    1.58
   1  -1  -5   25.11    1.53
   1   1   5   24.63    1.69
   1   1   5   25.57    1.58
  -1  -1   5   24.47    1.68
  -1  -1   5   24.65    1.60
   1  -1  -5   24.48    1.66
  -1   1  -5   22.79    1.58
   1   1   5   24.44    1.53
  -1  -1   5   23.80    1.71
  -1   1   6    0.04    0.33
  -1  -1  -6    0.08    0.20
   1   1  -6    0.25    0.23
   1  -1   6    0.13    0.30
  -1   1   6   -0.03    0.18
   1  -1   6   -0.45    0.27
  -1  -1   6    0.08    0.31
   1   1   6    0.67    0.26
  -1   1  -6   -0.05    0.22
   1  -1  -6   -0.27    0.23
   1  -1  -6    0.18    0.22
  -1  -1  -7   15.52    1.09
  -1   1   7   15.46    1.77
   1   1  -7   15.88    1.13
   1  -1  -7   15.72    1.12
   1   1   7   13.44    1.03
  -1  -1   7   14.26    1.78
   2  -1   0   76.27    4.41
   2   1   0   71.40    4.40
  -2   1   0   83.93    4.42
   2  -1   0   69.64    4.41
   2   1   0   79.11    4.42
  -2   1   0   71.33    4.41
   2   1  -1  143.63    8.37
   2  -1   1  137.63    8.36
  -2   1   1  150.32    8.37
   2  -1   1  150.53    8.39
   2  -1   1  150.21    8.38
   2   1  -1  147.16    8.37
   2  -1  -1  131.79    8.38
  -2   1  -1  139.96    8.36
   2  -1  -1  144.28    8.37
   2   1   1  120.15    8.36
   2  -1  -1  127.57    8.36
  -2  -1   1  155.19    8.37
  -2  -1   1  150.05    8.37
  -2  -1   1  163.44    8.38
   2  -1   2  165.82    9.82
   2  -1   2  152.56    9.80
   2   1  -2  163.42    9.77
  -2  -1  -2  161.96    9.81
   2  -1   2  170.42    9.78
  -2   1   2  175.47    9.81
  -2   1   2  168.63    9.78
   2  -1   2  172.20    9.81
   2   1  -2  168.92    9.80
  -2  -1   2  181.06    9.83
   2  -1  -2  162.09    9.80
   2   1   2  168.66    9.77
   2  -1  -2  168.41    9.78
   2  -1  -2  162.13    9.80
   2   1   2  170.13    9.80
  -2  -1   2  183.24    9.82
   2   1   2  154.50    9.81
  -2  -1   2  177.07    9.84
   2   1  -3  113.73    6.69
   2  -1   3  114.33    6.68
  -2   1   3  115.98    6.73
  -2   1   3  117.78    6.70
   2  -1   3  112.01    6.68
   2  -1   3  115.28    6.70
   2  -1   3  116.41    6.75
  -2   1   3  108.89    6.66
   2  -1  -3  112.08    6.67
  -2  -1   3  121.35    6.73
   2   1   3  113.71    6.68
  -2  -1   3  113.95    6.69
   2  -1  -3  109.72    6.69
  -2  -1   3  118.01    6.73
   2   1   3  112.69    6.67
   2   1   3  111.60    6.74
   2   1  -4   43.02    2.61
   2  -1   4   46.04    2.69
  -2   1   4   43.00    2.64
  -2   1   4   44.29    2.69
   2  -1   4   41.82    2.67
   2  -1   4   42.52    2.57
   2  -1   4   44.36    2.61
  -2   1   4   41.51    2.57
   2  -1   4   42.64    2.60
   2  -1  -4   41.53    2.56
   2   1   4   43.69    2.59
  -2  -1   4   42.67    2.62
  -2  -1   4   44.35    2.67
   2   1   4   44.68    2.59
   2  -1  -4   43.54    2.62
  -2  -1   4   43.00    2.70
   2   1   4   41.83    2.66
  -2   1   5   55.10    3.47
   2  -1   5   58.60    3.47
   2  -1   5   54.66    3.46
   2  -1   5   52.94    3.40
  -2   1   5   55.69    3.31
   2   1  -5   56.20    3.36
   2  -1   5   54.08    3.31
   2  -1   5   57.38    3.36
  -2   1   5   55.57    3.39
   2   1   5   55.83    3.33
   2   1   5   55.36    3.35
  -2  -1   5   56.80    3.50
  -2  -1   5   58.69    3.47
   2   1   5   56.76    3.45
  -2  -1   5   56.16    3.38
   2  -1  -5   55.30    3.36
  -2   1   6   37.70    2.22
   2  -1   6   40.31    2.32
   2  -1   6   33.48    2.21
   2  -1   6   35.10    2.42
   2  -1   6   37.98    2.29
   2   1  -6   36.96    2.29
   2  -1  -6   37.54    2.28
   2   1   6   37.65    2.24
   2   1   6   36.68    2.28
  -2  -1   6   35.14    2.41
   2  -1  -6   35.24    2.24
  -3  -1   0   42.37    2.25
  -3  -1   0   34.63    2.22
  -3   1   0   34.45    2.23
   3   1   0   34.70    2.20
  -3   1   0   41.19    2.23
   3  -1   0   37.97    2.23
   3  -1   0   34.17    2.22
   3   1   0   36.81    2.23
   3   1  -1   28.66    1.82
   3  -1   1   25.62    1.78
   3  -1   1   28.42    1.80
   3  -1   1   31.61    1.84
   3  -1   1   31.08    1.80
  -3   1   1   30.39    1.84
  -3   1   1   32.33    1.81
   3   1  -1   30.69    1.82
  -3   1  -1   29.40    1.81
   3  -1  -1   28.83    1.83
  -3  -1   1   30.27    1.82
   3   1   1   31.03    1.83
   3  -1  -1   30.74    1.82
  -3  -1   1   31.89    1.79
   3   1  -2   62.10    3.63
   3   1  -2   59.57    3.64
   3  -1   2   64.66    3.65
   3  -1   2   61.58    3.62
  -3   1   2   63.48    3.63
   3  -1   2   61.43    3.66
  -3   1   2   64.34    3.66
   3  -1   2   54.35    3.63
   3  -1  -2   56.30    3.65
   3   1   2   63.39    3.66
   3  -1  -2   63.09    3.63
   3   1   2   53.57    3.63
  -3  -1   2   67.27    3.64
  -3  -1   2   64.15    3.65
   3   1   2   60.12    3.65
  -3  -1   2   64.77    3.63
   3  -1   3   11.94    0.84
   3  -1   3   12.46    0.87
   3  -1   3   12.15    0.83
  -3   1   3   10.17    0.87
  -3   1   3   12.67    0.93
  -3   1   3   12.72    0.82
   3   1  -3   13.07    0.80
   3  -1   3   12.55    0.88
   3   1  -3   10.94    0.86
   3  -1   3   10.80    0.85
   3  -1   3   12.67    0.80
   3   1   3   10.92    0.86
  -3  -1   3   13.17    0.81
  -3  -1   3   11.17    0.89
   3   1   3   12.42    0.81
   3  -1  -3   11.18    0.89
   3   1   3   12.63    0.78
  -3  -1   3   12.96    0.87
   3   1   3   13.05    0.84
  -3  -1   3   12.01    0.89
   3  -1  -3   13.83    0.83
   3  -1   4   17.39    1.20
  -3   1   4   16.08    1.21
   3  -1   4   17.32    1.10
   3  -1   4   17.13    1.13
   3  -1   4   17.54    1.16
  -3   1   4   17.09    1.08
  -3   1   4   17.36    1.21
   3   1  -4   15.91    1.30
   3  -1   4   17.33    1.19
   3   1   4   15.32    1.17
  -3  -1   4   16.60    1.23
   3   1   4   18.01    1.12
   3  -1  -4   15.52    1.22
  -3  -1   4   18.54    1.20
   3   1   4   16.75    1.10
   3  -1  -4   15.99    1.08
  -3  -1   4   17.30    1.18
   3  -1   5    9.98    0.75
   3  -1   5    8.91    0.68
   3   1  -5    9.61    0.76
   3  -1   5    8.77    0.84
   3  -1   5    8.48    0.74
   3  -1   5    9.22    0.84
  -3   1   5    9.00    0.65
  -3   1   5    8.17    0.83
  -3   1   5    9.01    0.93
  -3  -1   5    8.35    0.81
  -3  -1   5    8.85    0.85
   3   1   5    9.23    0.72
   3   1   5    8.89    0.83
   3  -1  -5    8.29    0.68
  -3  -1   5    8.44    0.96
   3  -1  -5    8.59    0.76
   3  -1   6   14.97    1.03
  -3   1   6   14.58    0.95
  -3   1   6   13.42    1.16
   3   1  -6   14.54    1.06
   3  -1   6   14.48    1.05
   3  -1   6   13.86    1.20
   3  -1   6   14.74    1.00
   3   1   6   14.38    1.02
   3  -1  -6   14.71    1.06
   3   1   6   13.36    1.02
  -3  -1   6   12.69    1.19
   3   1   6   13.91    0.99
   3  -1  -6   11.43    1.00
   4   1   0  162.66    9.84
  -4  -1   0  180.27    9.89
  -4   1   0  169.48    9.87
   4   1   0  168.21    9.88
  -4  -1   0  175.18    9.86
   4  -1   0  156.59    9.87
  -4   1   0  179.62    9.88
   4  -1   0  156.43    9.85
   4  -1   1   24.29    1.60
   4  -1   1   25.87    1.69
   4   1  -1   27.12    1.69
   4  -1   1   27.81    1.62
   4   1  -1   26.11    1.67
  -4   1   1   28.69    1.71
  -4  -1  -1   24.25    1.66
   4  -1   1   25.61    1.65
  -4   1   1   28.59    1.68
  -4  -1   1   30.12    1.69
   4  -1  -1   26.42    1.69
  -4   1  -1   24.36    1.67
  -4  -1   1   28.66    1.69
   4   1   1   26.96    1.65
   4   1   1   26.76    1.69
   4  -1  -1   27.45    1.70
  -4   1  -1   28.47    1.72
   4  -1   2  122.94    6.99
   4   1  -2  125.94    7.00
   4  -1   2  119.48    6.97
  -4   1   2  101.49    6.97
   4  -1   2  112.53    6.97
   4   1  -2  119.36    6.99
  -4   1   2  122.76    6.99
  -4   1   2  129.02    7.02
  -4  -1   2  102.12    6.97
   4   1   2  108.73    6.98
  -4  -1   2  134.38    7.00
   4   1   2  119.87    7.02
  -4  -1   2  130.10    6.98
   4  -1  -2  123.29    7.00
   4  -1  -2  115.88    7.00
   4  -1   3   27.18    1.64
   4  -1   3   23.79    1.63
   4  -1   3   24.28    1.61
  -4   1   3   28.07    1.70
   4   1  -3   27.91    1.61
   4   1  -3   24.00    1.63
   4  -1   3   26.27    1.58
  -4   1   3   26.42    1.59
  -4   1   3   22.68    1.63
   4  -1   3   24.68    1.65
  -4  -1   3   23.78    1.63
  -4  -1   3   28.41    1.63
  -4  -1   3   27.39    1.67
   4   1   3   24.22    1.63
   4   1   3   25.99    1.65
  -4  -1   3   27.68    1.60
   4  -1  -3   24.78    1.66
   4   1   3   24.47    1.64
   4  -1   4  100.18    5.86
   4  -1   4   95.79    5.83
   4  -1   4  101.43    5.79
   4   1  -4   95.11    5.76
   4  -1   4   96.44    5.83
   4  -1   4   95.32    5.81
  -4   1   4   98.29    5.77
  -4   1   4   93.96    5.85
  -4   1   4  101.92    5.85
   4   1  -4   93.00    5.80
   4  -1   4  104.36    5.77
  -4  -1   4  102.89    5.78
   4   1   4   98.38    5.84
   4  -1  -4  101.19    5.79
   4   1   4   95.00    5.84
  -4  -1   4   89.82    5.84
  -4  -1   4  107.65    5.85
   4  -1  -4   89.03    5.81
  -4  -1   4   96.49    5.82
   4   1   4  106.63    5.76
   4  -1   5   11.43    0.92
  -4   1   5   10.49    1.03
   4  -1   5   10.85    0.87
   4  -1   5   10.92    0.81
  -4   1   5   11.09    0.79
   4  -1   5   11.75    0.86
   4   1  -5   11.71    0.91
   4  -1   5   11.11    0.87
  -4   1   5   11.34    0.95
   4  -1   5    9.57    0.93
   4   1   5   11.03    0.86
   4   1   5   11.26    0.89
  -4  -1   5   10.36    1.03
   4  -1  -5    9.64    0.89
  -4  -1   5   11.67    0.96
   4   1   5   10.93    0.93
   4   1   5   11.48    0.83
   4   1   5   12.07    0.80
   4  -1   6   45.26    2.79
   4  -1   6   49.44    2.78
  -4   1   6   45.79    2.76
  -4   1   6   46.01    2.93
   4  -1   6   45.54    2.83
   4  -1   6   49.07    2.90
   4   1  -6   43.49    2.83
   4  -1   6   41.12    2.93
   4  -1  -6   43.70    2.84
   4   1   6   44.81    2.79
   4   1   6   47.32    2.81
   4   1   6   42.16    2.92
  -4  -1   6   44.82    2.93
   4   1   6   50.28    2.76
   4  -1  -6   42.39    2.76
  -5   1   0    2.63    0.60
  -5   1   0    2.20    0.36
   5  -1   0    1.87    0.33
   5   1   0    2.58    0.45
   5  -1   0    3.25    0.53
   5   1   0    3.44    0.52
   5   1  -1   20.08    1.30
  -5  -1  -1   18.61    1.29
  -5   1   1   18.65    1.30
  -5   1   1   22.54    1.36
   5  -1   1   19.70    1.31
   5   1  -1   19.51    1.33
   5  -1   1   19.41    1.28
  -5  -1   1   19.95    1.31
  -5   1  -1   18.74    1.31
   5   1   1   18.76    1.30
  -5   1  -1   18.31    1.34
   5  -1  -1   20.50    1.32
   5  -1  -1   18.62    1.34
   5   1   1   20.51    1.27
   5   1  -2    2.48    0.40
   5  -1   2    2.45    0.32
   5  -1   2    2.52    0.42
   5   1  -2    1.85    0.34
  -5   1   2    1.92    0.42
  -5   1   2    1.52    0.30
  -5   1   2    2.04    0.38
   5  -1   2    1.74    0.31
  -5   1   2    2.24    0.28
   5   1   2    2.86    0.44
  -5  -1   2    1.74    0.31
   5  -1  -2    1.61    0.37
  -5  -1   2    2.44    0.40
   5   1   2    1.93    0.29
   5   1   2    1.61    0.30
  -5  -1   2    1.36    0.31
   5  -1  -2    2.01    0.38
  -5  -1   2    2.40    0.34
   5   1   2    1.47    0.25
   5  -1   3   15.15    1.01
  -5   1   3   13.33    1.01
   5  -1   3   14.97    0.98
  -5   1   3   14.25    1.00
  -5   1   3   16.00    1.14
   5   1  -3   14.71    1.08
   5  -1   3   14.24    0.99
  -5   1   3   16.14    0.99
   5   1  -3   14.82    1.04
   5  -1   3   14.52    1.06
  -5  -1   3   14.43    1.10
   5   1   3   14.43    1.01
   5  -1  -3   13.86    1.07
  -5  -1   3   15.04    1.02
  -5  -1   3   15.87    1.01
   5  -1  -3   14.43    1.09
   5   1   3   15.13    1.06
  -5  -1   3   12.90    0.99
   5   1   3   14.62    1.06
   5   1  -4    1.11    0.32
  -5   1   4    1.50    0.30
  -5   1   4    1.14    0.35
  -5   1   4    1.28    0.25
   5  -1   4    0.87    0.28
   5  -1   4    0.96    0.28
   5  -1   4    1.06    0.25
  -5   1   4    1.38    0.44
   5  -1   4    1.49    0.30
   5  -1   4    1.15    0.29
   5   1   4    0.76    0.29
   5   1   4    0.96    0.30
   5  -1  -4    1.16    0.32
  -5  -1   4    1.22    0.30
   5   1   4    1.00    0.29
  -5  -1   4    1.16    0.37
   5   1   4    1.97    0.46
   5  -1  -4    0.71    0.33
  -5  -1   4    0.50    0.39
  -5  -1   4    1.14    0.33
   5  -1   5    8.71    0.73
   5  -1   5    9.06    0.80
  -5   1   5    9.87    0.74
   5  -1   5    9.43    0.81
  -5   1   5   10.11    1.00
   5   1  -5    9.33    0.84
   5  -1   5    7.80    0.84
   5  -1   5    7.30    0.80
   5  -1   5    8.81    0.80
  -5   1   5    8.98    0.88
   5  -1  -5    7.84    0.84
   5   1   5    9.35    0.83
  -5  -1   5    9.92    0.75
   5   1   5    9.41    0.84
  -5  -1   5    8.59    0.88
  -5  -1   5    9.45    0.95
   5   1   5    8.76    0.84
   6  -1   0  139.93    8.93
   6   1   0  148.83    8.93
   6   1   0  157.20    8.88
  -6   1   0  163.84    8.92
   6  -1   0  147.59    8.90
  -6  -1   0  173.20    8.92
  -6   1   0  130.91    8.93
   6  -1   1   78.34    4.63
   6   1  -1   75.05    4.67
  -6   1   1   89.18    4.68
   6  -1   1   75.94    4.66
   6   1  -1   79.27    4.62
  -6   1   1   68.64    4.69
   6  -1  -1   75.84    4.68
  -6  -1   1   72.98    4.67
  -6   1  -1   76.55    4.66
   6   1   1   74.67    4.66
   6  -1  -1   79.08    4.64
  -6  -1   1   87.20    4.67
   6   1   1   79.49    4.61
  -6   1   2  102.79    5.58
   6  -1   2   88.42    5.55
   6  -1   2   89.21    5.51
   6  -1   2   85.74    5.46
  -6   1   2   84.00    5.54
   6   1  -2  101.27    5.59
   6   1  -2   98.84    5.53
   6  -1   2   91.93    5.47
   6   1   2  103.21    5.51
  -6  -1   2   89.45    5.56
   6   1   2   93.43    5.46
   6   1   2   94.06    5.56
   6   1   2   86.82    5.47
  -6  -1   2  101.77    5.57
   6  -1  -2   92.27    5.54
   6  -1  -2   89.86    5.58
   6   1  -3   55.54    3.24
   6  -1   3   52.40    3.27
   6  -1   3   54.14    3.21
   6   1  -3   52.23    3.30
   6  -1   3   57.10    3.22
  -6   1   3   53.00    3.24
   6  -1   3   52.61    3.20
  -6   1   3   55.05    3.32
  -6   1   3   47.56    3.19
  -6   1   3   54.60    3.18
   6   1   3   55.09    3.30
   6   1   3   51.90    3.21
   6  -1  -3   51.03    3.30
  -6  -1   3   52.95    3.19
   6   1   3   51.51    3.27
  -6  -1   3   48.24    3.18
   6   1   3   58.26    3.21
   6  -1  -3   55.02    3.26
  -6  -1   3   55.33    3.30
   6   1  -4   84.50    5.15
   6   1  -4   87.04    5.13
   6  -1   4   88.12    5.13
  -6   1   4   75.15    5.12
   6  -1   4   89.86    5.10
   6  -1   4   78.93    5.10
   6  -1   4   82.88    5.17
   6  -1   4   86.07    5.14
  -6   1   4   92.95    5.10
  -6   1   4   82.43    5.11
   6  -1  -4   79.48    5.15
  -6  -1   4   91.35    5.11
   6   1   4   84.95    5.18
  -6  -1   4   87.50    5.12
   6   1   4   96.57    5.14
   6   1   4   91.06    5.16
  -6  -1   4   79.91    5.11
   6  -1  -4   83.08    5.13
   6  -1   5   38.20    2.32
   6   1  -5   35.29    2.33
  -6   1   5   38.72    2.36
   6  -1   5   37.98    2.36
   6  -1   5   32.09    2.36
   6  -1   5   36.67    2.26
   6  -1   5   34.47    2.29
  -6   1   5   37.08    2.28
   6   1   5   37.01    2.34
   6   1   5   33.09    2.38
   6  -1  -5   35.93    2.36
  -6  -1   5   39.95    2.30
   6  -1  -5   31.81    2.39
   6   1   5   37.95    2.34
  -6  -1   5   36.41    2.38
  -7  -1   0   15.37    1.11
   7  -1   0   12.50    1.07
   7   1   0   14.22    1.06
  -7   1   0   16.27    1.14
   7  -1   0   13.98    1.05
   7   1   0   13.94    1.03
  -7   1   0   11.46    1.05
  -7   1   1   61.36    4.23
  -7  -1  -1   72.06    4.23
   7   1  -1   69.06    4.25
   7   1  -1   61.55    4.27
   7  -1   1   63.76    4.22
   7  -1   1   72.70    4.21
  -7   1   1   78.86    4.26
  -7   1  -1   72.87    4.25
   7   1   1   73.51    4.18
   7  -1  -1   66.51    4.25
   7  -1  -1   72.36    4.21
  -7  -1   1   78.40    4.25
   7   1   1   67.16    4.23
  -7   1   2    9.46    0.88
   7   1  -2   12.22    0.88
   7  -1   2   10.36    0.89
  -7   1   2    9.66    1.04
   7   1  -2   11.20    1.09
   7   1   2   10.27    0.86
   7  -1  -2   11.43    0.90
  -7  -1   2    8.74    1.04
   7  -1  -2   11.99    1.21
  -7  -1   2    9.88    0.89
   7   1  -3   46.00    3.19
   7  -1   3   51.54    2.98
  -7   1   3   47.56    3.06
   7  -1   3   50.56    2.98
   7  -1   3   53.05    3.03
   7   1  -3   52.98    3.05
   7  -1  -3   44.67    3.18
   7   1   3   50.59    3.11
   7   1   3   51.72    2.97
   7  -1  -3   52.93    3.07
  -7  -1   3   48.91    3.07
   7   1   3   43.33    2.99
   7  -1   4    9.29    0.92
   7  -1   4    7.55    0.74
   7  -1   4    7.91    0.82
   7   1  -4    9.02    0.86
  -7   1   4    8.34    0.85
   7  -1   4    7.41    0.86
  -7  -1   4    9.15    1.12
   7   1   4    9.37    0.93
   7   1   4    8.61    0.73
   7  -1  -4    9.92    0.92
   8  -1   0   28.45    1.85
  -8   1   0   26.64    1.94
   8   1   0   29.98    1.82
  -8  -1   0   28.06    1.91
   8  -1   1    3.41    0.65
  -8  -1  -1    3.35    0.54
  -8   1   1    2.80    0.48
   8  -1  -1    3.24    0.64
   8   1   1    4.27    0.60
  -8   1  -1    3.32    0.59
  -8  -1   1    2.96    0.56
  -8   1   2   30.80    2.23
   8  -1   2   30.24    2.21
   8   1  -2   36.29    2.18
   8  -1  -2   35.56    2.20
   8   1   2   37.66    2.19
   0  -2   0   57.28    3.34
   0   2   1    0.27    0.16
   0  -2   1    0.16    0.13
   0   2   1    0.51    0.15
   0  -2  -1   -0.06    0.14
   0   2   2   66.13    4.05
   0   2   2   70.81    4.06
   0  -2  -2   71.30    4.10
   0  -2  -2   65.80    4.06
   0   2   2   74.25    4.10
   0   2  -2   65.42    4.05
   0  -2  -2   69.94    4.05
   0  -2   2   67.40    4.05
   0  -2   2   72.40    4.10
   0  -2  -3    0.16    0.13
   0   2   3    0.21    0.10
   0  -2  -3    0.07    0.15
   0  -2   3    0.20    0.15
   0   2  -3    0.01    0.12
   0   2   3    0.02    0.17
   0  -2  -3   -0.05    0.09
   0   2   3   -0.22    0.26
   0  -2   3    0.01    0.16
   0   2   4   23.67    1.49
   0  -2  -4   23.55    1.44
   0   2   4   24.38    1.44
   0   2  -4   23.07    1.46
   0  -2   4   24.66    1.49
   0   2   4   24.34    1.58
   0  -2  -4   23.35    1.44
   0  -2   4   22.94    1.56
   0  -2   4   22.01    1.57
   0  -2   5    0.11    0.26
   0   2   5    0.32    0.26
   0   2  -5    0.27    0.19
   0  -2  -5    0.16    0.28
   0  -2   5    0.47    0.32
   0  -2  -5    0.33    0.18
   0  -2   5    0.58    0.24
   0   2   5    0.01    0.16
   0   2   5    0.09    0.28
   0  -2   6   13.14    1.15
   0   2   6   12.83    1.02
   0   2  -6   13.71    0.97
   0  -2  -6   14.17    0.99
   0  -2   6   14.31    1.09
   0   2   6   13.31    0.93
   0  -2  -6   13.83    0.94
   0   2   7   -0.19    0.22
   0  -2  -7    0.10    0.27
   0   2  -7    0.06    0.29
  -1   2   0   25.59    1.66
   1  -2   0   27.45    1.60
   1   2   0   27.76    1.58
   1  -2   0   28.22    1.59
  -1  -2   0   22.98    1.69
  -1   2   0   28.96    1.59
   1  -2   1   80.54    4.70
   1   2  -1   79.92    4.72
   1   2  -1   79.58    4.69
  -1  -2  -1   69.95    4.71
  -1  -2  -1   80.29    4.69
  -1   2   1   79.60    4.72
  -1   2   1   77.60    4.71
   1  -2   1   82.05    4.73
  -1   2   1   81.94    4.69
   1  -2  -1   73.67    4.71
   1   2   1   83.52    4.70
  -1   2  -1   84.02    4.72
   1  -2  -1   79.98    4.71
  -1  -2   1   88.07    4.73
   1   2   1   75.33    4.72
   1  -2  -1   82.59    4.69
  -1   2  -1   89.97    4.71
   1  -2   2    1.31    0.22
  -1   2   2    1.56    0.28
  -1   2   2    2.03    0.32
  -1  -2  -2    1.59    0.19
   1  -2   2    1.59    0.28
   1  -2   2    1.53    0.23
   1   2  -2    1.44    0.24
  -1  -2  -2    1.58    0.27
   1  -2  -2    1.58    0.28
   1   2   2    1.77    0.19
   1   2   2    1.38    0.28
  -1  -2   2    1.79    0.28
  -1  -2   2    1.53    0.25
   1  -2  -2    1.68    0.25
  -1   2   3   61.86    3.49
  -1   2   3   61.37    3.45
   1   2  -3   56.42    3.43
  -1  -2  -3   54.33    3.40
  -1  -2  -3   58.20    3.48
  -1   2   3   55.44    3.41
   1  -2   3   60.46    3.50
   1  -2   3   58.43    3.43
  -1  -2  -3   55.53    3.42
  -1   2  -3   57.06    3.42
   1   2   3   57.02    3.42
   1  -2  -3   57.92    3.41
  -1  -2   3   55.19    3.43
   1  -2  -3   58.79    3.47
  -1  -2   3   61.27    3.49
   1   2   3   61.12    3.49
   1  -2  -3   57.89    3.43
  -1   2   4   10.54    0.80
  -1  -2  -4    9.85    0.68
   1  -2   4    9.39    0.84
   1  -2   4    9.60    0.74
   1   2  -4    9.76    0.72
  -1  -2  -4    9.78    0.67
  -1   2   4   10.18    0.85
   1  -2   4    9.66    0.82
  -1   2   4   10.46    0.68
  -1   2  -4    9.42    0.70
  -1  -2   4    9.06    0.76
   1  -2  -4   10.08    0.67
  -1  -2   4   10.35    0.83
  -1  -2   4    9.47    0.87
   1   2   4   10.25    0.84
   1  -2  -4   10.21    0.72
   1   2   4   10.58    0.68
   1   2   4   10.01    0.74
  -1  -2  -5   27.95    1.72
   1   2  -5   27.41    1.73
  -1  -2  -5   27.93    1.69
   1  -2   5   26.63    1.86
  -1   2   5   27.02    1.69
   1  -2   5   25.19    1.84
   1  -2   5   29.37    1.86
  -1   2   5   28.88    1.88
  -1   2   5   28.29    1.77
   1   2   5   28.12    1.70
  -1  -2   5   26.54    1.89
  -1  -2   5   26.67    1.85
  -1   2  -5   27.93    1.72
   1   2   5   29.30    1.74
  -1  -2   5   28.21    1.76
   1  -2  -5   26.60    1.70
   1   2   5   29.10    1.87
   1  -2   6    0.20    0.33
   1   2  -6    0.60    0.26
  -1  -2  -6    0.48    0.21
  -1   2   6   -0.22    0.32
  -1   2   6    0.27    0.20
   1  -2   6    0.85    0.31
   1   2   6    0.43    0.26
   1  -2  -6    0.22    0.25
   1   2   6    0.13    0.21
   1  -2  -6    0.61    0.30
  -1  -2   6    0.46    0.34
  -1  -2  -7   14.85    1.06
   1   2  -7   14.32    1.13
   1  -2  -7   15.05    1.08
  -2   2   0  109.04    6.15
   2   2   0   95.14    6.16
  -2   2   0  112.86    6.15
  -2   2   0  101.27    6.15
   2  -2   0  114.73    6.15
   2  -2   0  107.71    6.15
   2   2   0  103.81    6.15
   2  -2   0   97.17    6.16
   2   2  -1   85.16    5.11
  -2   2   1   92.98    5.11
   2  -2   1   95.84    5.14
   2   2  -1   87.08    5.11
  -2   2   1   86.51    5.13
   2  -2   1   91.83    5.12
   2   2  -1   84.30    5.12
   2  -2   1   85.08    5.10
  -2   2  -1   84.79    5.11
  -2  -2   1   85.38    5.10
  -2  -2   1   90.79    5.13
   2  -2  -1   89.66    5.12
   2   2   1   88.00    5.12
   2  -2  -1   78.18    5.11
  -2  -2   1   90.59    5.11
   2  -2  -1   82.84    5.13
   2  -2   2   86.11    4.82
  -2   2   2   77.30    4.84
   2  -2   2   88.61    4.86
   2   2  -2   81.38    4.82
   2  -2   2   89.00    4.84
  -2  -2  -2   70.36    4.84
  -2   2   2   84.88    4.81
  -2   2   2   87.24    4.85
  -2  -2   2   79.61    4.82
  -2  -2   2   86.03    4.85
   2   2   2   82.94    4.83
   2  -2  -2   86.00    4.84
   2  -2  -2   85.58    4.81
   2  -2  -2   77.29    4.83
   2   2   2   71.56    4.84
   2  -2   3   70.11    3.85
  -2   2   3   62.77    3.80
  -2  -2  -3   62.43    3.86
   2   2  -3   61.97    3.82
   2  -2   3   65.09    3.83
   2  -2   3   68.78    3.88
   2  -2   3   61.78    3.80
  -2   2   3   67.74    3.87
   2  -2   3   66.62    3.87
  -2   2   3   67.13    3.85
   2   2   3   61.19    3.87
   2  -2  -3   65.64    3.80
  -2  -2   3   60.56    3.82
   2  -2  -3   63.44    3.83
  -2  -2   3   65.55    3.86
   2  -2  -3   66.29    3.85
  -2  -2   3   65.09    3.87
   2   2   3   61.53    3.81
   2  -2   4   51.26    2.96
   2   2  -4   48.14    2.96
   2  -2   4   49.98    2.95
   2  -2   4   51.55    3.03
   2  -2   4   50.62    2.92
  -2   2   4   46.87    2.91
  -2   2   4   51.76    3.04
   2  -2   4   50.89    3.04
  -2   2   4   52.15    3.00
   2  -2  -4   48.69    2.92
   2   2   4   48.74    3.02
  -2  -2   4   42.49    3.04
   2  -2  -4   49.26    2.96
  -2  -2   4   47.41    2.96
  -2  -2   4   50.73    3.03
   2   2   4   46.82    2.92
   2   2   4   48.58    2.93
  -2   2   5   17.97    1.10
   2   2  -5   16.47    1.15
  -2   2   5   19.72    1.34
   2  -2   5   17.24    1.17
   2  -2   5   16.44    1.08
   2  -2   5   16.26    1.25
  -2   2   5   18.03    1.23
   2  -2   5   18.83    1.15
   2  -2   5   17.17    1.28
   2   2   5   17.40    1.26
  -2  -2   5   16.31    1.35
   2   2   5   16.95    1.12
   2  -2  -5   17.37    1.15
  -2  -2   5   16.26    1.26
  -2  -2   5   16.07    1.19
   2  -2  -5   16.41    1.10
   2   2   5   16.18    1.12
   2  -2   6   23.79    1.51
  -2   2   6   24.02    1.43
   2  -2   6   21.83    1.67
   2   2  -6   24.05    1.51
   2  -2  -6   23.85    1.49
  -2  -2   6   19.82    1.62
   2   2   6   21.62    1.47
   2   2   6   22.74    1.45
   2  -2  -6   21.90    1.47
   3  -2   0    0.40    0.13
  -3   2   0    0.43    0.15
  -3   2   0    0.56    0.19
   3  -2   0    0.50    0.17
  -3   2   0    0.67    0.15
   3  -2   0    0.61    0.20
   3  -2   1  106.91    6.20
  -3   2   1  104.31    6.20
  -3   2   1  110.19    6.18
   3  -2   1  101.38    6.17
   3   2  -1  104.07    6.17
   3  -2   1  105.78    6.19
   3   2  -1  108.32    6.20
   3  -2  -1  104.87    6.19
  -3   2  -1  119.93    6.23
  -3  -2   1  118.46    6.20
   3  -2  -1   98.81    6.20
   3  -2  -1   94.84    6.16
   3   2   1  112.87    6.20
   3   2   1   87.53    6.17
  -3  -2   1  106.58    6.18
  -3   2  -1  101.08    6.18
  -3  -2   1  109.99    6.18
  -3   2   2   44.32    2.50
   3  -2   2   40.32    2.58
   3   2  -2   39.22    2.49
   3  -2   2   42.92    2.49
   3  -2   2   44.57    2.53
  -3   2   2   35.89    2.51
   3   2  -2   41.29    2.51
  -3  -2  -2   37.79    2.51
  -3   2   2   43.92    2.54
  -3  -2   2   46.20    2.52
  -3  -2   2   46.76    2.50
   3  -2  -2   39.47    2.53
   3  -2  -2   43.61    2.50
   3   2   2   37.85    2.51
   3   2   2   42.49    2.52
  -3  -2   2   43.61    2.51
   3  -2  -2   41.90    2.50
   3  -2   3   79.25    4.59
   3   2  -3   75.39    4.61
   3  -2   3   76.77    4.63
  -3  -2  -3   79.08    4.65
   3  -2   3   78.34    4.60
  -3   2   3   77.70    4.59
  -3   2   3   72.26    4.64
   3  -2   3   78.24    4.66
   3  -2   3   76.74    4.63
  -3   2   3   82.34    4.65
  -3  -2   3   84.33    4.65
  -3  -2   3   81.67    4.65
   3  -2  -3   71.93    4.63
  -3  -2   3   79.27    4.62
   3  -2  -3   78.92    4.60
   3   2   3   75.48    4.64
   3   2   3   79.59    4.62
  -3   2   4    4.10    0.64
   3  -2   4    3.86    0.50
  -3   2   4    3.39    0.40
   3  -2   4    3.62    0.53
   3  -2   4    4.00    0.54
  -3   2   4    3.66    0.62
   3  -2   4    3.54    0.40
   3  -2  -4    3.69    0.58
  -3  -2   4    3.78    0.54
   3   2   4    3.38    0.54
  -3  -2   4    3.65    0.54
  -3  -2   4    3.43    0.62
   3   2   4    4.02    0.44
   3  -2  -4    2.95    0.40
   3  -2   5   42.82    2.70
  -3   2   5   43.72    2.74
   3  -2   5   42.84    2.61
  -3   2   5   41.65    2.66
   3   2  -5   42.96    2.62
   3  -2   5   41.71    2.71
   3  -2   5   44.01    2.57
  -3   2   5   42.42    2.56
   3  -2   5   44.40    2.62
   3  -2  -5   41.96    2.57
  -3  -2   5   41.01    2.75
  -3  -2   5   43.18    2.70
   3  -2  -5   43.38    2.62
   3   2   5   44.89    2.60
   3   2   5   41.97    2.69
  -3  -2   5   41.12    2.63
   3   2   5   40.29    2.57
   3  -2   6   13.26    0.92
  -3   2   6   11.81    0.84
   3  -2   6   14.25    0.99
   3  -2   6   10.65    1.09
   3   2  -6   11.66    0.95
   3   2   6   11.63    0.89
   3  -2  -6   10.18    0.92
   3   2   6   11.71    0.89
   3  -2  -6   13.24    0.96
  -3  -2   6   10.40    1.10
  -4   2   0   21.88    1.39
   4  -2   0   22.50    1.40
   4   2   0   19.63    1.39
   4   2   0   21.08    1.36
   4  -2   0   23.68    1.41
  -4  -2   0   23.76    1.39
  -4   2   0   21.14    1.40
   4  -2   1   57.83    3.65
  -4   2   1   65.32    3.73
  -4   2   1   52.10    3.67
   4  -2   1   64.48    3.72
  -4   2   1   65.48    3.70
   4   2  -1   62.99    3.69
   4   2  -1   65.46    3.72
  -4  -2  -1   52.13    3.65
   4  -2   1   60.98    3.69
   4  -2   1   64.65    3.68
   4   2   1   64.48    3.72
   4  -2  -1   64.28    3.71
  -4   2  -1   68.19    3.75
   4  -2  -1   62.73    3.72
  -4  -2   1   65.24    3.70
   4  -2  -1   60.08    3.64
  -4  -2   1   59.32    3.68
  -4   2  -1   58.36    3.70
  -4  -2   1   69.86    3.74
   4  -2   2   24.41    1.54
  -4   2   2   26.41    1.55
   4   2  -2   23.57    1.57
   4  -2   2   24.53    1.53
  -4   2   2   26.73    1.63
   4   2  -2   23.93    1.58
   4  -2   2   26.04    1.56
   4  -2  -2   24.97    1.62
   4   2   2   25.53    1.59
  -4  -2   2   27.73    1.58
  -4  -2   2   20.56    1.71
   4   2   2   24.87    1.59
   4  -2  -2   28.78    1.69
  -4  -2   2   25.40    1.55
   4   2   2   21.56    1.55
  -4   2   3   44.79    2.60
   4  -2   3   43.63    2.56
   4  -2   3   41.87    2.56
   4   2  -3   39.88    2.53
   4  -2   3   40.88    2.53
  -4   2   3   42.77    2.51
  -4   2   3   35.16    2.54
   4  -2   3   43.08    2.52
   4   2  -3   43.04    2.51
   4  -2   3   43.12    2.50
   4  -2  -3   43.14    2.53
   4   2   3   41.09    2.55
   4   2   3   38.98    2.55
  -4  -2   3   44.40    2.52
  -4  -2   3   45.28    2.55
   4  -2  -3   38.82    2.56
  -4  -2   3   35.22    2.53
   4   2   3   41.89    2.55
  -4  -2   3   44.76    2.56
   4  -2   4   10.96    0.85
   4   2  -4   10.94    0.85
   4  -2   4   11.24    0.87
   4  -2   4   10.69    0.89
   4  -2   4   11.39    0.84
   4  -2   4   11.89    0.80
  -4   2   4   10.38    0.93
   4  -2   4   11.94    0.84
  -4   2   4   12.18    0.97
  -4   2   4   11.76    0.78
   4   2   4   11.08    0.84
   4   2   4   10.41    0.84
   4  -2  -4   11.81    0.85
   4  -2  -4   10.93    0.88
  -4  -2   4    9.73    0.92
  -4  -2   4   11.12    0.89
   4   2   4   10.43    0.88
  -4  -2   4   10.90    0.90
   4  -2   5   29.83    1.89
   4  -2   5   30.12    1.95
   4  -2   5   30.31    1.90
   4  -2   5   28.98    1.89
   4  -2   5   28.86    1.98
   4  -2   5   32.41    1.86
  -4   2   5   30.38    2.03
   4   2  -5   27.94    1.90
   4   2   5   30.02    1.91
   4   2   5   30.90    1.96
  -4  -2   5   31.59    2.04
   4  -2  -5   26.45    1.86
   4   2   5   30.04    1.89
  -4  -2   5   30.40    1.97
   4  -2  -5   27.66    1.91
   4   2  -6    7.36    0.81
   4  -2   6    7.86    0.71
   4  -2   6    6.40    0.67
  -4   2   6    8.79    0.65
   4  -2   6    6.28    0.93
  -4   2   6    8.16    0.90
  -4  -2   6    5.56    0.92
   4   2   6    7.79    0.74
   4  -2  -6    8.14    0.83
   4  -2  -6    6.78    0.73
   5   2   0   66.31    3.88
  -5  -2   0   75.52    3.91
   5  -2   0   63.34    3.91
   5  -2   0   62.50    3.93
  -5   2   0   60.74    3.93
  -5   2   0   65.00    3.92
   5   2   0   65.23    3.92
  -5   2   1  247.48   14.59
   5   2  -1  249.71   14.60
  -5   2   1  273.31   14.61
  -5  -2  -1  229.68   14.56
   5   2  -1  250.95   14.56
   5  -2   1  240.47   14.60
   5  -2   1  242.38   14.57
  -5  -2   1  269.76   14.60
  -5  -2   1  276.96   14.58
   5  -2  -1  251.21   14.59
  -5   2  -1  237.84   14.61
   5   2   1  243.42   14.60
  -5   2  -1  244.06   14.59
   5  -2  -1  240.82   14.60
   5  -2   2   70.70    4.57
  -5   2   2   83.30    4.51
   5  -2   2   73.53    4.44
   5  -2   2   74.56    4.42
  -5   2   2   75.90    4.46
   5  -2   2   76.17    4.44
   5   2  -2   77.03    4.45
   5   2  -2   73.53    4.49
  -5  -2   2   82.61    4.48
   5  -2  -2   75.98    4.49
   5   2   2   68.02    4.43
   5   2   2   73.69    4.48
  -5  -2   2   65.67    4.40
   5  -2  -2   72.86    4.48
  -5  -2   2   80.03    4.47
  -5  -2   2   75.73    4.42
  -5   2   3  162.04   10.94
   5  -2   3  185.80   10.98
   5  -2   3  183.54   10.95
   5  -2   3  187.18   10.97
   5   2  -3  178.29   10.96
   5   2  -3  187.56   10.95
  -5   2   3  206.20   11.00
  -5   2   3  187.92   10.94
   5  -2   3  190.00   10.93
  -5  -2   3  199.36   10.97
   5   2   3  182.84   10.99
  -5  -2   3  173.78   10.94
  -5  -2   3  193.70   10.95
   5  -2  -3  183.28   10.97
   5   2   3  181.17   10.96
  -5  -2   3  207.10   10.96
   5  -2  -3  186.62   10.96
   5   2   3  191.08   10.99
   5  -2   4   32.88    2.26
   5   2  -4   36.09    2.24
   5  -2   4   36.51    2.24
  -5   2   4   35.79    2.21
   5  -2   4   36.72    2.25
  -5   2   4   32.40    2.27
   5   2  -4   32.16    2.21
  -5   2   4   35.38    2.31
   5  -2   4   35.75    2.24
   5  -2   4   38.51    2.28
   5  -2   4   37.26    2.20
   5  -2  -4   35.48    2.25
   5  -2  -4   34.78    2.27
  -5  -2   4   34.42    2.28
   5   2   4   36.33    2.26
  -5  -2   4   39.19    2.22
   5   2   4   37.36    2.27
  -5  -2   4   39.50    2.27
  -5  -2   4   33.02    2.26
   5   2   4   35.55    2.27
   5  -2   5  106.43    6.67
   5   2  -5  112.66    6.69
  -5   2   5  102.31    6.74
   5  -2   5  113.37    6.76
   5  -2   5  111.98    6.70
   5  -2   5  123.06    6.66
  -5   2   5  125.55    6.74
   5  -2   5  114.03    6.72
   5  -2   5  110.75    6.70
  -5   2   5  113.58    6.65
   5   2   5  118.23    6.75
  -5  -2   5  118.63    6.75
  -5  -2   5  108.73    6.74
   5  -2  -5  106.24    6.70
   5   2   5  108.22    6.71
   5  -2  -5  109.48    6.67
  -6  -2   0   32.10    1.92
   6  -2   0   27.36    1.87
   6   2   0   27.46    1.85
  -6   2   0   31.86    1.89
  -6   2   0   27.09    1.92
   6   2   0   29.52    1.80
   6  -2   0   28.33    1.85
   6  -2   1   35.67    2.11
   6   2  -1   33.87    2.13
  -6   2   1   37.83    2.16
   6  -2   1   33.36    2.12
   6   2  -1   34.42    2.07
  -6  -2  -1   35.92    2.11
  -6   2   1   31.19    2.11
   6   2   1   33.27    2.11
   6  -2  -1   32.79    2.15
   6  -2  -1   29.21    2.31
  -6   2  -1   33.12    2.14
  -6  -2   1   36.59    2.13
  -6   2  -1   29.55    2.13
   6   2  -2   19.98    1.68
  -6   2   2   26.03    1.61
   6  -2   2   23.46    1.53
   6  -2   2   22.02    1.48
  -6   2   2   20.85    1.50
   6  -2   2   22.71    1.42
   6   2  -2   22.42    1.58
   6   2   2   22.15    1.51
   6   2   2   24.00    1.40
  -6  -2   2   23.96    1.56
   6  -2  -2   23.26    1.53
  -6  -2   2   22.97    1.52
   6  -2  -2   22.81    1.60
   6  -2   3   21.81    1.47
  -6   2   3   22.55    1.49
   6   2  -3   23.50    1.49
   6  -2   3   22.30    1.51
  -6   2   3   23.66    1.62
  -6   2   3   24.48    1.42
   6  -2   3   23.34    1.44
   6   2  -3   22.32    1.61
   6  -2   3   23.14    1.46
  -6   2   3   20.47    1.47
   6   2   3   25.01    1.45
  -6  -2   3   21.90    1.47
   6   2   3   22.68    1.46
  -6  -2   3   21.80    1.58
  -6  -2   3   19.77    1.43
   6  -2  -3   22.21    1.54
   6  -2  -3   21.19    1.61
  -6  -2   3   24.86    1.52
   6   2   3   22.41    1.52
   6   2   3   22.36    1.54
  -6   2   4   19.36    1.24
   6  -2   4   18.11    1.22
  -6   2   4   19.95    1.25
   6   2  -4   14.99    1.36
   6  -2   4   19.88    1.23
   6  -2   4   18.50    1.27
  -6   2   4   16.49    1.33
   6  -2   4   17.18    1.26
   6  -2   4   17.16    1.31
   6   2  -4   18.52    1.27
   6   2   4   18.04    1.26
   6  -2  -4   17.78    1.31
  -6  -2   4   16.78    1.27
  -6  -2   4   17.78    1.41
   6   2   4   19.32    1.25
  -6  -2   4   17.02    1.28
   6  -2  -4   14.30    1.42
   6   2   4   18.02    1.33
   6  -2   5   17.80    1.25
   6  -2   5   17.88    1.23
  -6   2   5   17.76    1.23
   6   2  -5   17.64    1.32
  -6   2   5   19.61    1.33
   6  -2   5   14.85    1.32
   6  -2   5   17.00    1.32
  -6  -2   5   16.32    1.36
   6   2   5   18.95    1.30
   6   2   5   17.28    1.28
   6  -2  -5   18.08    1.67
   6   2   5   14.78    1.36
   7  -2   0   77.12    5.10
  -7  -2   0   92.18    5.07
  -7   2   0   92.68    5.11
   7   2   0   78.17    5.08
   7  -2   0   84.14    5.07
   7   2   0   85.73    5.03
   7   2  -1   36.03    2.31
  -7   2   1   32.08    2.28
  -7   2   1   40.01    2.35
   7  -2   1   31.82    2.28
   7   2  -1   38.17    2.23
   7  -2   1   35.93    2.26
   7  -2  -1   33.99    2.33
   7   2   1   38.42    2.22
  -7   2  -1   37.30    2.34
   7  -2  -1   36.92    2.28
  -7  -2   1   37.97    2.31
   7   2   1   34.37    2.27
   7   2  -2   38.97    2.34
  -7   2   2   34.51    2.37
   7  -2   2   39.34    2.37
  -7   2   2   39.13    2.50
   7   2  -2   38.25    2.45
   7  -2  -2   38.42    2.38
   7  -2  -2   36.05    2.48
  -7  -2   2   36.52    2.42
   7  -2   3   28.16    1.82
   7  -2   3   25.73    1.77
   7  -2   3   30.70    1.76
  -7   2   3   25.65    1.84
   7   2  -3   29.75    1.83
   7   2  -3   26.08    2.01
   7  -2  -3   28.50    1.87
   7   2   3   28.80    1.83
   7   2   3   29.51    1.79
  -7  -2   3   28.25    1.85
   7   2   3   27.50    1.88
   7   2  -4   47.10    2.95
   7  -2   4   48.05    2.94
   7  -2   4   47.95    2.94
  -7   2   4   45.17    2.95
   7  -2   4   46.19    3.02
   7  -2  -4   46.91    3.00
  -7  -2   4   47.63    2.95
   7   2   4   47.61    3.04
   7   2   4   50.86    2.92
   8   2   0  134.31    7.71
  -8  -2   0  126.75    7.73
   8  -2   0  131.78    7.75
   8  -2   1    5.10    0.75
  -8  -2  -1    5.55    0.91
   8   2  -1    7.31    0.67
  -8   2   1    5.89    0.76
   8   2   1    6.67    0.66
  -8   2  -1    6.19    0.99
   8  -2  -1    6.10    0.76
  -8  -2   1    4.73    0.70
  -8   2   2   95.15    6.29
   8  -2   2  105.61    6.25
   8   2  -2  111.59    6.24
   8   2   2  103.12    6.29
   8  -2  -2  109.51    6.27
   0  -3   0    0.51    0.14
   0   3   0    0.56    0.15
   0  -3  -1  104.70    6.27
   0  -3   1  111.67    6.33
   0  -3  -1  109.62    6.32
   0   3   1  102.41    6.27
   0   3   1  109.21    6.32
   0  -3   1  106.51    6.27
   0  -3  -2   -0.10    0.11
   0  -3   2   -0.23    0.11
   0   3   2    0.03    0.09
   0   3   2    0.18    0.15
   0  -3  -2   -0.13    0.13
   0  -3   2   -0.12    0.14
   0   3  -2   -0.07    0.11
   0   3   2    0.15    0.17
   0   3  -2    0.02    0.15
   0  -3  -2   -0.17    0.08
   0   3   3   57.53    3.21
   0  -3  -3   53.39    3.20
   0   3   3   53.56    3.15
   0  -3   3   53.87    3.21
   0   3  -3   50.41    3.13
   0  -3  -3   53.17    3.13
   0  -3   3   51.03    3.14
   0  -3  -3   52.43    3.13
   0   3   3   51.51    3.13
   0  -3  -4    0.03    0.13
   0   3   4    0.21    0.16
   0  -3  -4    0.03    0.16
   0  -3  -4    0.06    0.21
   0  -3   4   -0.13    0.25
   0   3   4    0.47    0.25
   0   3  -4    0.03    0.18
   0  -3   4    0.03    0.23
   0   3   4    0.00    0.25
   0  -3   4   -0.01    0.21
   0  -3   5   27.65    1.95
   0   3   5   31.54    1.95
   0  -3   5   29.29    1.81
   0   3   5   29.13    1.77
   0  -3  -5   28.66    1.78
   0   3  -5   28.73    1.79
   0  -3  -5   28.73    1.76
   0  -3   5   26.98    1.92
   0   3   5   28.96    1.82
   0  -3  -6    0.36    0.24
   0   3  -6    0.25    0.24
   0   3   6    0.21    0.31
   0  -3   6   -0.09    0.32
   0  -3  -6    0.16    0.20
   0   3   6    0.00    0.20
  -1  -3   0   10.58    1.00
  -1  -3   0   10.16    0.69
   1   3   0   10.11    0.93
   1   3   0   10.36    0.69
  -1   3   0   10.45    0.70
   1  -3   0   12.07    0.71
   1   3  -1  704.97   44.59
  -1   3   1  815.42   44.54
  -1   3   1  792.97   44.51
   1  -3   1  810.52   44.45
  -1  -3  -1  791.84   44.50
   1  -3   1  711.28   44.61
  -1   3   1  774.43   44.43
   1  -3   1  734.59   44.43
   1   3  -1  804.10   44.43
  -1  -3  -1  663.53   44.54
   1  -3  -1  794.55   44.51
   1  -3  -1  817.06   44.57
   1  -3  -1  694.36   44.44
  -1   3  -1  752.03   44.47
   1   3   1  732.92   44.55
   1   3   1  792.64   44.50
  -1   3  -1  738.83   44.61
  -1  -3   1  807.41   44.43
  -1  -3   1  784.91   44.63
   1  -3   2   35.39    2.18
   1   3  -2   34.43    2.18
  -1  -3  -2   34.94    2.17
   1   3  -2   33.18    2.12
  -1   3   2   37.06    2.18
  -1   3   2   33.99    2.12
  -1  -3  -2   34.79    2.12
  -1   3   2   34.63    2.14
   1  -3   2   41.02    2.13
  -1  -3   2   32.88    2.12
   1   3   2   35.05    2.12
   1   3   2   36.59    2.18
   1  -3  -2   35.20    2.14
   1  -3  -2   35.79    2.16
  -1  -3   2   36.41    2.18
   1  -3  -2   35.45    2.12
  -1   3   3  525.70   30.23
   1  -3   3  538.88   30.26
  -1  -3  -3  511.09   30.27
   1  -3   3  494.62   30.28
  -1   3   3  560.36   30.28
  -1  -3  -3  521.72   30.29
  -1  -3  -3  493.34   30.23
   1   3  -3  515.72   30.27
  -1   3   3  492.40   30.25
   1  -3  -3  547.97   30.25
  -1  -3   3  498.11   30.21
   1   3   3  513.70   30.29
   1   3   3  515.07   30.25
   1  -3  -3  534.74   30.33
  -1  -3   3  514.89   30.28
   1   3   3  531.49   30.27
   1  -3  -3  532.59   30.24
  -1  -3  -4    2.54    0.51
  -1   3   4    3.62    0.56
  -1  -3  -4    2.66    0.32
  -1   3   4    2.82    0.58
  -1  -3  -4    2.70    0.34
   1   3  -4    2.46    0.40
   1  -3  -4    2.89    0.42
   1   3   4    2.74    0.49
  -1  -3   4    2.33    0.52
   1  -3  -4    2.75    0.34
  -1  -3   4    2.33    0.40
   1   3   4    3.46    0.36
  -1  -3   4    2.60    0.47
   1  -3  -4    3.39    0.48
   1   3   4    2.45    0.56
   1  -3   5  289.93   17.91
  -1   3   5  305.09   17.92
  -1  -3  -5  308.79   17.80
   1   3  -5  306.20   17.81
  -1  -3  -5  303.55   17.78
  -1   3   5  313.64   17.83
  -1   3   5  300.20   17.78
   1  -3   5  314.94   17.82
   1  -3   5  285.49   17.91
   1   3   5  313.14   17.79
   1  -3  -5  314.96   17.80
  -1  -3   5  322.95   17.82
   1   3   5  298.99   17.80
  -1  -3   5  297.54   17.93
   1  -3  -5  291.97   17.88
  -1  -3   5  305.55   17.92
   1   3   5  322.57   17.92
   1   3  -6    4.51    0.56
  -1   3   6    4.50    0.48
  -1   3   6    3.47    0.68
  -1  -3  -6    4.37    0.46
   1   3   6    3.21    0.49
   1  -3  -6    3.30    0.54
   1  -3  -6    4.52    0.52
   1   3   6    3.50    0.55
  -1  -3   6    3.07    0.74
   2   3   0  242.88   14.95
  -2  -3   0  224.09   14.94
   2  -3   0  278.77   15.00
   2  -3   0  251.86   14.91
  -2   3   0  275.70   14.92
   2   3   0  258.77   14.91
  -2   3   0  270.16   14.94
  -2   3   0  248.69   14.91
   2   3  -1    6.37    0.47
   2   3  -1    5.74    0.43
  -2   3   1    6.04    0.43
   2  -3   1    5.68    0.60
   2   3  -1    5.94    0.44
   2  -3   1    6.31    0.51
  -2   3   1    6.07    0.51
   2  -3   1    5.72    0.43
   2  -3  -1    4.87    0.45
   2   3   1    6.51    0.43
   2  -3  -1    6.22    0.44
   2  -3  -1    5.93    0.54
  -2  -3   1    6.37    0.51
   2   3   1    4.77    0.49
  -2  -3   1    6.19    0.43
  -2   3  -1    6.41    0.45
  -2   3  -1    6.21    0.46
  -2  -3  -2   60.31    3.78
   2  -3   2   65.45    3.74
   2  -3   2   65.63    3.80
  -2   3   2   63.95    3.78
  -2   3   2   63.52    3.77
   2  -3   2   65.24    3.75
  -2   3   2   64.16    3.74
   2   3  -2   62.68    3.75
   2  -3  -2   58.84    3.76
  -2  -3   2   62.76    3.74
   2  -3  -2   65.59    3.74
   2  -3  -2   64.01    3.77
   2   3   2   68.18    3.75
   2   3   2   55.23    3.77
  -2  -3   2   68.38    3.79
  -2   3   3    1.84    0.44
  -2  -3  -3    1.46    0.27
  -2   3   3    1.76    0.30
   2   3  -3    1.75    0.26
   2  -3   3    1.46    0.31
  -2   3   3    1.87    0.32
   2  -3   3    1.95    0.41
   2  -3   3    1.97    0.24
   2  -3  -3    1.98    0.36
  -2  -3   3    2.12    0.40
   2   3   3    1.51    0.28
   2  -3  -3    1.82    0.29
   2  -3  -3    1.93    0.29
   2   3   3    2.16    0.29
  -2   3   4   99.61    5.63
   2  -3   4   85.43    5.55
   2  -3   4   95.35    5.58
   2  -3   4   95.83    5.59
  -2   3   4   90.79    5.56
   2  -3   4   93.02    5.68
   2  -3   4   91.19    5.65
  -2  -3  -4   98.72    5.67
  -2   3   4  102.32    5.68
   2   3  -4   95.64    5.59
   2  -3  -4   94.43    5.59
  -2  -3   4   99.16    5.67
   2   3   4   95.22    5.66
  -2  -3   4   93.68    5.59
   2   3   4   97.20    5.58
  -2  -3   4   94.72    5.68
   2  -3  -4   95.88    5.64
   2  -3  -4   89.23    5.57
  -2   3   5    0.83    0.37
   2  -3   5    0.83    0.27
   2   3  -5    0.74    0.25
   2  -3   5    0.77    0.31
  -2   3   5    0.29    0.32
   2  -3   5    0.52    0.29
   2  -3  -5    0.94    0.25
   2   3   5    0.44    0.29
   2   3   5    0.94    0.23
   2  -3  -5    0.39    0.21
  -2  -3   5    0.69    0.33
  -2  -3   5    0.71    0.39
  -2  -3   5    1.00    0.32
   2  -3   6   20.08    1.58
  -2   3   6   20.94    1.32
   2   3  -6   21.65    1.38
   2  -3  -6   21.67    1.37
   2   3   6   20.60    1.35
   2   3   6   21.34    1.35
   2  -3  -6   18.95    1.36
  -2  -3   6   18.63    1.54
   3   3   0   67.48    3.96
  -3   3   0   63.12    3.96
  -3   3   0   72.09    3.95
  -3   3   0   68.15    3.95
   3  -3   0   64.67    3.96
   3   3   0   66.15    3.96
   3  -3   0   67.56    3.95
   3  -3   0   66.78    3.96
   3  -3   1  285.25   16.04
  -3   3   1  291.86   16.03
   3   3  -1  256.15   16.02
   3   3  -1  273.14   16.01
  -3   3   1  231.04   16.04
   3   3  -1  264.10   16.03
  -3   3   1  285.69   16.05
   3  -3   1  276.73   16.02
   3  -3   1  281.22   16.06
  -3   3  -1  303.51   16.06
  -3   3  -1  283.88   16.03
  -3  -3   1  277.05   16.01
   3   3   1  263.99   16.03
  -3  -3   1  274.20   16.05
   3  -3  -1  273.40   16.05
   3  -3  -1  284.56   16.03
   3  -3  -1  258.89   16.01
  -3   3  -1  293.73   16.02
   3  -3   2   33.73    1.97
  -3  -3  -2   27.27    1.99
   3   3  -2   31.67    1.98
  -3   3   2   33.90    1.97
   3  -3   2   35.72    2.03
   3  -3   2   34.31    1.99
  -3   3   2   34.22    2.03
   3  -3  -2   31.07    2.02
  -3  -3   2   33.00    2.00
  -3  -3   2   33.87    1.97
   3   3   2   27.51    1.99
  -3   3  -2   35.75    2.04
   3   3   2   33.44    1.99
   3  -3  -2   33.82    1.98
  -3  -3   2   32.11    1.98
   3  -3  -2   32.50    1.98
  -3   3   3  234.96   12.99
   3  -3   3  229.50   12.92
   3  -3   3  227.79   13.00
  -3  -3  -3  218.97   12.98
   3  -3   3  231.12   12.95
  -3   3   3  225.09   12.92
  -3   3   3  236.97   12.97
   3   3  -3  217.15   12.94
   3  -3   3  226.84   12.93
   3  -3  -3  207.62   12.96
   3  -3  -3  222.77   13.04
   3   3   3  208.75   12.97
  -3  -3   3  226.45   12.98
   3   3   3  214.42   12.94
   3  -3  -3  207.10   12.95
  -3  -3   3  213.74   12.93
   3   3  -4   26.43    1.86
   3  -3   4   30.48    1.81
   3  -3   4   30.95    1.82
   3  -3   4   30.00    1.85
   3  -3   4   30.33    1.83
   3  -3   4   29.68    1.92
   3  -3   4   30.62    1.89
  -3   3   4   27.52    1.92
  -3   3   4   31.21    1.92
  -3   3   4   29.80    1.80
   3   3   4   28.70    1.83
   3   3   4   28.16    1.90
  -3  -3   4   29.89    1.94
   3  -3  -4   30.01    1.81
  -3  -3   4   29.14    1.90
  -3  -3   4   28.40    1.85
   3  -3   5  109.55    6.43
   3  -3   5  110.89    6.31
   3  -3   5  108.15    6.31
  -3   3   5  107.10    6.27
   3  -3   5  108.87    6.39
   3   3  -5  101.47    6.31
   3  -3   5  104.09    6.27
  -3   3   5  109.78    6.36
  -3   3   5  113.24    6.43
   3   3   5  109.92    6.30
  -3  -3   5   97.79    6.31
  -3  -3   5   96.89    6.41
   3  -3  -5  106.59    6.32
  -3  -3   5  105.84    6.40
   3  -3  -5  110.38    6.28
   3   3   5  106.69    6.39
   3  -3   6    9.47    0.74
   3  -3   6    9.42    1.05
   3   3  -6   10.02    0.87
  -3   3   6   11.29    0.77
   3   3   6   10.00    0.82
  -3  -3   6    9.41    1.04
   3  -3  -6    9.01    0.85
   3  -3  -6   11.88    0.89
   4   3   0  140.77    8.37
   4  -3   0  138.87    8.37
  -4   3   0  154.16    8.32
   4   3   0  151.34    8.34
  -4   3   0  140.41    8.37
  -4   3   0  137.47    8.37
   4  -3   0  136.48    8.37
   4  -3   1    7.93    0.63
   4   3  -1    7.86    0.54
   4   3  -1    7.60    0.61
   4   3  -1    8.22    0.64
   4  -3   1    7.47    0.65
  -4   3   1    8.31    0.68
   4  -3   1    9.30    0.66
  -4   3   1    8.42    0.61
  -4   3   1    6.49    0.98
  -4   3  -1    8.12    0.66
  -4   3  -1    7.75    0.67
  -4  -3   1    9.06    0.63
   4  -3  -1    8.25    0.73
  -4  -3   1    7.43    0.71
   4  -3  -1    7.05    0.76
   4  -3  -1    6.96    0.52
   4   3   1    7.47    0.65
   4  -3   2  144.33    8.74
   4  -3   2  143.87    8.70
   4   3  -2  149.74    8.71
   4   3  -2  156.45    8.73
  -4  -3  -2  128.70    8.71
  -4   3   2  151.00    8.71
  -4   3   2  161.80    8.76
   4  -3   2  144.09    8.87
  -4  -3   2  161.31    8.73
   4  -3  -2  143.60    8.75
   4  -3  -2  146.24    8.70
  -4  -3   2  169.35    8.73
   4   3   2  133.19    8.72
  -4   3  -2  155.03    8.78
   4   3   2  151.59    8.74
  -4  -3   2  137.49    8.75
   4   3   2  152.13    8.74
   4  -3  -2  151.38    8.72
   4   3  -3    6.68    0.67
  -4  -3  -3    7.16    0.66
  -4   3   3    7.15    0.60
   4  -3   3    7.87    0.68
   4   3  -3    7.60    0.63
  -4   3   3    8.25    0.82
   4  -3   3    7.65    0.60
   4  -3   3    7.28    0.62
   4  -3   3    6.43    0.65
   4  -3   3    7.34    0.66
  -4  -3   3    7.49    0.68
  -4  -3   3    7.65    0.67
   4   3   3    6.77    0.67
   4  -3  -3    7.39    0.68
   4  -3  -3    6.27    0.75
  -4  -3   3    7.87    0.72
   4   3   3    7.37    0.64
   4  -3   4   78.11    4.67
   4  -3   4   75.00    4.62
   4  -3   4   73.86    4.60
  -4   3   4   80.24    4.66
   4   3  -4   75.84    4.60
  -4   3   4   72.52    4.65
   4  -3   4   77.29    4.59
  -4   3   4   76.21    4.56
   4  -3   4   77.23    4.61
   4   3   4   76.18    4.65
  -4  -3   4   79.73    4.66
  -4  -3   4   79.21    4.61
  -4  -3   4   80.83    4.65
   4  -3  -4   80.02    4.59
   4  -3  -4   72.43    4.61
   4   3   4   80.00    4.62
   4  -3   5    3.60    0.49
  -4   3   5    3.18    0.42
   4  -3   5    2.94    0.58
  -4   3   5    3.55    0.80
   4   3  -5    3.28    0.57
   4  -3   5    2.93    0.57
   4  -3   5    2.23    0.46
   4  -3   5    2.75    0.61
   4  -3  -5    2.67    0.43
   4   3   5    2.44    0.42
   4   3   5    2.50    0.51
  -4  -3   5    2.63    0.63
  -4  -3   5    2.04    0.49
  -4   3   6   47.31    2.82
   4  -3   6   46.42    2.82
   4  -3   6   48.37    2.85
   4  -3   6   50.86    2.91
   4   3  -6   44.74    2.89
   4  -3   6   45.68    3.04
   4  -3  -6   45.02    2.90
  -4  -3   6   44.27    3.00
   4   3   6   48.28    2.88
   4  -3  -6   42.80    2.85
   5  -3   0    1.79    0.34
   5   3   0    1.36    0.27
   5   3   0    1.66    0.27
  -5   3   0    1.65    0.33
  -5   3   0    1.39    0.30
   5  -3   1   10.27    0.76
   5   3  -1    8.18    0.71
   5  -3   1    9.06    0.59
  -5   3   1    8.92    0.72
   5  -3   1    8.18    0.77
   5   3  -1    7.78    0.77
  -5   3   1   10.12    0.86
   5  -3   1    8.73    0.74
  -5  -3   1    9.55    0.76
   5  -3  -1    9.89    0.82
  -5   3  -1    7.62    0.78
   5   3   1    8.47    0.73
   5   3   1    8.17    0.70
   5  -3  -1   10.93    0.85
  -5   3   2   10.22    0.90
  -5   3   2    9.28    0.71
   5  -3   2    8.70    0.64
   5   3  -2    9.20    1.08
   5   3  -2    7.97    0.72
   5  -3   2    8.87    0.77
   5  -3   2    9.21    0.71
   5  -3   2    9.61    0.73
   5   3   2    8.31    0.74
   5   3   2    8.11    0.84
   5  -3  -2    9.65    0.92
   5  -3  -2   10.31    0.83
  -5  -3   2    9.18    0.80
  -5  -3   2    8.98    0.75
  -5   3   3    7.45    0.83
   5  -3   3    7.25    0.60
   5  -3   3    7.28    0.65
  -5   3   3    6.63    0.72
   5  -3   3    7.47    0.62
   5   3  -3    5.35    1.01
   5  -3   3    8.41    0.69
   5   3  -3    7.28    0.66
   5  -3  -3    7.89    0.76
   5  -3  -3    7.04    0.74
   5   3   3    6.89    0.67
  -5  -3   3    7.63    0.66
   5   3   3    7.26    0.70
  -5  -3   3    5.69    0.64
  -5  -3   3    6.99    0.69
   5   3   3    7.71    0.67
  -5  -3   3    6.56    0.75
   5   3  -4    0.81    0.29
   5  -3   4    1.01    0.25
   5  -3   4    0.91    0.29
  -5   3   4    1.32    0.41
  -5   3   4    1.02    0.46
   5  -3   4    1.18    0.27
   5  -3   4    0.94    0.28
  -5   3   4    1.08    0.24
   5  -3   4    0.97    0.30
  -5  -3   4    0.68    0.38
  -5  -3   4    1.28    0.33
   5   3   4    0.63    0.29
   5  -3  -4    0.69    0.34
   5   3   4    1.18    0.31
   5   3   4    1.11    0.29
   5  -3  -4    0.93    0.36
  -5  -3   4    1.17    0.35
   5  -3   5    5.00    0.59
   5  -3   5    3.92    0.61
  -5   3   5    5.63    0.52
  -5   3   5    5.56    0.92
   5  -3   5    4.73    0.63
   5   3  -5    4.71    0.66
   5  -3   5    3.66    0.69
   5  -3   5    5.54    0.71
  -5  -3   5    4.08    0.84
   5  -3  -5    4.34    0.72
   5   3   5    5.85    0.68
  -5  -3   5    3.03    0.72
   5   3   5    4.26    0.66
   5  -3  -5    3.44    0.76
   6   3   0   28.61    1.77
   6   3   0   29.26    1.71
  -6  -3   0   32.11    1.77
   6  -3   0   25.59    1.79
  -6   3   0   22.97    1.76
  -6   3   0   26.98    1.80
  -6   3   1    7.50    0.76
   6  -3   1    6.80    0.66
   6  -3   1    6.45    0.83
  -6   3   1    5.99    0.63
   6   3  -1    7.16    0.68
   6   3  -1    6.72    0.59
  -6   3  -1    6.54    0.77
   6  -3  -1    5.77    0.71
  -6  -3   1    6.19    0.70
   6   3   1    7.11    0.64
   6  -3  -1    6.32    0.73
  -6   3  -1    5.54    0.67
   6  -3   2   49.75    2.91
   6  -3   2   48.37    2.87
   6  -3   2   47.97    2.97
   6  -3   2   45.33    2.96
  -6   3   2   47.14    2.95
  -6   3   2   55.27    3.03
   6   3  -2   48.18    3.00
   6   3   2   49.17    2.98
   6  -3  -2   48.34    2.97
   6  -3  -2   46.62    3.00
   6   3   2   43.49    2.91
  -6  -3   2   50.18    2.98
   6   3   2   48.78    2.97
   6  -3   3    6.30    0.61
   6  -3   3    6.75    0.54
   6  -3   3    6.12    0.65
   6   3  -3    6.41    0.89
  -6   3   3    4.58    0.88
  -6   3   3    5.93    0.73
  -6   3   3    6.29    0.61
   6  -3   3    7.25    0.67
   6   3  -3    6.88    0.64
   6   3   3    5.77    0.69
  -6  -3   3    4.20    0.81
   6  -3  -3    6.12    0.75
   6   3   3    6.60    0.64
   6  -3  -3    4.29    0.88
  -6  -3   3    5.76    0.70
  -6  -3   3    5.97    0.59
   6   3   3    6.53    0.68
   6  -3   4   15.59    1.13
   6  -3   4   17.26    1.24
   6   3  -4   14.33    1.28
   6  -3   4   15.17    1.18
  -6   3   4   15.74    1.13
  -6   3   4   18.96    1.16
  -6   3   4   15.71    1.30
   6  -3   4   15.07    1.18
   6   3  -4   17.84    1.19
   6  -3   4   16.21    1.15
   6  -3  -4   13.45    1.36
   6  -3  -4   16.76    1.25
   6   3   4   18.89    1.20
   6   3   4   16.39    1.24
  -6  -3   4   15.77    1.23
  -6  -3   4   14.79    1.21
   6  -3   5    4.96    0.62
   6  -3   5    3.33    0.71
  -6   3   5    4.37    0.72
   6  -3   5    3.00    0.51
   6  -3   5    3.65    0.63
   6   3  -5    4.30    0.73
  -6   3   5    4.35    0.58
  -6  -3   5    2.74    0.54
   6   3   5    4.16    0.69
   7  -3   0   13.14    1.05
   7   3   0   13.28    1.03
  -7   3   0   11.13    1.03
   7   3   0   13.63    0.93
  -7  -3   0   14.17    1.05
  -7   3   0   14.43    1.13
   7  -3   0   12.76    1.05
   7   3  -1   17.69    1.22
   7  -3   1   16.21    1.18
  -7   3   1   16.91    1.27
   7  -3   1   18.07    1.29
  -7   3   1   13.70    1.17
   7  -3  -1   15.26    1.24
  -7   3  -1   13.01    1.19
   7   3   1   16.70    1.16
  -7   3  -1   16.75    1.30
   7  -3  -1   16.79    1.20
  -7  -3   1   16.01    1.24
   7  -3   2   11.76    1.01
   7   3  -2   13.27    0.95
  -7   3   2   12.98    1.01
   7   3  -2   13.79    1.14
  -7  -3   2   11.79    1.14
   7  -3  -2   13.02    1.06
   7   3   2   13.25    1.01
   7  -3   3   15.77    1.04
  -7   3   3   14.34    1.14
   7   3  -3   15.88    1.11
   7   3  -3   14.42    1.39
   7  -3   3   14.41    1.14
   7  -3   3   15.70    1.15
   7   3   3   16.36    1.02
   7   3   3   16.09    1.20
   7  -3  -3   15.59    1.20
   7   3   3   13.31    1.10
   7   3  -4    9.74    0.89
   7  -3   4    8.05    0.86
   7  -3   4    8.78    0.94
  -7   3   4    9.39    0.85
   7  -3   4    7.82    0.87
   7  -3  -4    9.20    1.29
   7   3   4    8.10    0.99
   7   3   4    9.84    0.77
   8   3   0    0.30    0.37
  -8   3   0    0.75    0.34
  -8  -3   0    0.27    0.39
   8  -3   0    0.08    0.35
   8  -3   1    1.70    0.42
  -8   3   1    2.16    0.43
   8   3  -1    2.66    0.51
  -8  -3   1    1.49    0.51
   8  -3  -1    1.61    0.42
   8   3  -2    2.80    0.55
   8  -3   2    2.51    0.49
  -8   3   2    2.46    0.46
   8   3   2    2.04    0.40
   8  -3  -2    2.48    0.47
   0  -4   0   37.81    2.23
   0  -4   0   38.93    2.24
   0   4   0   37.39    2.23
   0  -4   1    0.27    0.20
   0   4   1    0.20    0.08
   0  -4   1    0.08    0.10
   0  -4  -1    0.05    0.20
   0  -4  -2  182.89   10.62
   0   4  -2  175.05   10.69
   0   4  -2  182.51   10.62
   0  -4   2  189.60   10.70
   0   4   2  178.11   10.62
   0  -4   2  176.62   10.63
   0   4   2  181.89   10.68
   0  -4  -2  193.47   10.69
   0   4   3    0.10    0.13
   0   4  -3   -0.13    0.15
   0  -4   3   -0.19    0.16
   0  -4  -3    0.14    0.18
   0   4   3    0.09    0.21
   0  -4  -3    0.00    0.14
   0  -4  -3   -0.02    0.10
   0   4   3    0.16    0.19
   0  -4   3    0.03    0.19
   0  -4  -4   33.91    2.09
   0  -4  -4   35.20    2.10
   0   4   4   36.46    2.11
   0   4   4   36.20    2.24
   0  -4   4   34.32    2.13
   0   4  -4   33.25    2.11
   0   4   4   35.46    2.14
   0  -4  -4   34.72    2.20
   0  -4   4   33.92    2.23
   0  -4  -5    0.13    0.26
   0   4   5    0.57    0.27
   0   4   5    0.15    0.30
   0   4   5   -0.19    0.18
   0  -4   5   -0.17    0.33
   0   4  -5   -0.02    0.21
   0  -4   5    0.04    0.25
   0  -4   5   -0.10    0.28
   0  -4  -5    0.26    0.17
   0  -4  -5    0.03    0.19
   0  -4  -6   46.55    2.66
   0   4  -6   44.07    2.66
   0  -4   6   38.64    2.81
   0  -4  -6   43.75    2.62
   0   4   6   45.21    2.64
   0   4   6   41.70    2.68
  -1  -4   0  224.28   13.03
  -1  -4   0  215.68   13.11
  -1   4   0  242.37   13.04
   1   4   0  188.57   13.08
   1   4   0  230.47   13.03
  -1   4   0  228.09   13.00
  -1   4   0  207.49   13.08
   1  -4   0  243.81   13.03
   1  -4   0  232.38   13.01
  -1   4   1    0.17    0.16
  -1  -4  -1    0.04    0.07
   1  -4   1    0.33    0.22
  -1  -4  -1   -0.01    0.18
   1  -4   1   -0.01    0.10
  -1   4   1    0.11    0.10
   1  -4   1    0.18    0.09
   1   4  -1   -0.04    0.09
   1   4   1    0.10    0.08
   1  -4  -1    0.34    0.10
  -1   4  -1    0.14    0.26
   1   4   1    0.24    0.22
  -1  -4   1    0.36    0.20
   1  -4  -1    0.50    0.20
  -1  -4   1   -0.08    0.09
   1  -4  -1    0.20    0.19
  -1   4  -1    0.02    0.09
  -1   4   2  164.59    9.22
  -1  -4  -2  157.46    9.16
  -1   4   2  150.42    9.15
   1   4  -2  151.54    9.15
   1  -4   2  157.22    9.16
  -1   4   2  154.48    9.17
   1  -4   2  160.95    9.23
  -1  -4  -2  160.51    9.22
   1   4  -2  156.35    9.23
   1  -4  -2  172.16    9.23
   1  -4  -2  157.34    9.17
   1  -4  -2  154.91    9.16
   1   4   2  161.77    9.21
  -1   4  -2  152.09    9.21
   1   4   2  151.43    9.16
  -1  -4   2  159.52    9.22
  -1  -4   2  149.64    9.15
  -1  -4  -3    1.13    0.25
   1  -4   3    0.96    0.26
   1   4  -3    1.19    0.20
  -1   4   3    1.20    0.29
   1  -4   3    1.09    0.21
  -1   4   3    1.71    0.26
  -1   4   3    1.53    0.27
  -1  -4  -3    1.23    0.23
   1  -4  -3    1.30    0.22
  -1  -4   3    0.99    0.25
  -1  -4   3    1.35    0.22
   1  -4  -3    1.51    0.24
   1   4   3    1.29    0.28
   1   4   3    1.45    0.25
   1  -4  -3    1.09    0.24
   1  -4   4  121.36    7.28
  -1  -4  -4  127.60    7.37
  -1  -4  -4  118.79    7.24
  -1   4   4  121.73    7.27
  -1  -4  -4  127.15    7.28
  -1   4   4  122.08    7.30
   1   4  -4  121.57    7.28
   1  -4   4  118.69    7.38
  -1   4   4  132.43    7.39
   1  -4  -4  127.18    7.28
  -1  -4   4  124.27    7.29
   1  -4  -4  125.02    7.36
   1   4   4  128.38    7.28
   1   4   4  120.49    7.27
   1  -4  -4  128.40    7.27
   1   4   4  129.29    7.38
  -1  -4   4  117.55    7.37
  -1  -4  -5    0.11    0.15
  -1   4   5    0.04    0.31
  -1  -4  -5    0.24    0.19
   1  -4   5    0.62    0.27
  -1   4   5   -0.03    0.17
   1  -4   5   -0.19    0.27
   1  -4   5   -0.19    0.30
  -1  -4  -5    0.28    0.27
   1   4  -5    0.24    0.22
   1  -4  -5    0.08    0.24
  -1  -4   5    0.28    0.24
   1  -4  -5    0.43    0.26
  -1  -4   5    0.06    0.28
  -1  -4   5   -0.19    0.35
   1  -4  -5    0.03    0.19
   1   4   5    0.34    0.23
   1   4   5    0.23    0.29
  -1   4   6   56.24    3.27
   1  -4   6   48.05    3.45
   1   4  -6   55.00    3.30
  -1   4   6   49.31    3.32
  -1  -4  -6   56.99    3.25
  -1  -4  -6   56.87    3.31
   1   4   6   57.94    3.28
   1  -4  -6   56.63    3.27
   1   4   6   53.87    3.29
   1  -4  -6   53.59    3.29
  -1  -4   6   53.48    3.46
   2  -4   0    9.27    0.59
   2   4   0    8.93    0.74
  -2   4   0    8.57    0.60
   2   4   0    8.34    0.57
  -2  -4   0    8.25    0.79
  -2   4   0    9.32    0.71
   2  -4   0    8.72    0.63
  -2   4   0    8.87    0.59
   2   4  -1   11.79    0.75
   2   4  -1   12.00    0.74
   2  -4   1   11.94    0.75
  -2   4   1   12.66    0.76
  -2   4   1   11.77    0.81
   2   4  -1   10.50    0.73
   2  -4   1   11.13    0.75
   2  -4   1   11.92    0.88
  -2   4  -1   12.39    0.96
   2   4   1   10.61    0.85
  -2  -4   1   12.26    0.87
  -2  -4   1   11.29    0.76
  -2   4  -1   12.61    0.77
   2  -4  -1   11.53    0.84
   2   4   1   12.80    0.76
   2  -4  -1   11.09    0.80
   2  -4  -1   12.64    0.76
   2  -4   2    2.57    0.39
   2   4  -2    1.73    0.34
  -2   4   2    1.91    0.42
  -2   4   2    2.62    0.43
  -2  -4  -2    2.02    0.36
   2   4  -2    2.17    0.30
   2  -4   2    2.69    0.29
  -2  -4  -2    2.11    0.26
   2  -4   2    2.26    0.29
   2   4   2    1.71    0.37
   2  -4  -2    2.31    0.34
  -2   4  -2    2.84    0.35
   2  -4  -2    2.36    0.47
   2   4   2    2.22    0.28
  -2  -4   2    2.52    0.39
   2  -4  -2    2.59    0.30
  -2  -4   2    1.91    0.30
  -2   4  -2    2.71    0.39
  -2  -4  -3    4.83    0.45
  -2  -4  -3    4.69    0.54
  -2   4   3    4.93    0.60
   2  -4   3    5.16    0.56
  -2   4   3    4.80    0.43
   2   4  -3    4.57    0.46
   2  -4   3    4.31    0.42
   2  -4   3    4.62    0.47
  -2   4   3    5.19    0.59
  -2  -4   3    3.48    0.48
   2   4   3    5.10    0.43
   2  -4  -3    4.50    0.54
  -2  -4   3    5.00    0.56
   2  -4  -3    5.07    0.43
   2   4   3    4.33    0.62
   2  -4  -3    4.79    0.49
  -2  -4  -4    3.62    0.41
  -2   4   4    4.52    0.64
   2   4  -4    3.51    0.47
   2  -4   4    3.57    0.60
   2  -4   4    4.07    0.56
  -2   4   4    3.50    0.67
  -2   4   4    3.51    0.42
  -2  -4  -4    3.94    0.58
   2  -4  -4    3.40    0.40
   2  -4  -4    3.56    0.51
   2  -4  -4    3.75    0.51
   2   4   4    3.96    0.42
  -2  -4   4    3.63    0.53
  -2  -4   4    3.18    0.59
   2   4   4    3.63    0.73
   2   4  -5    2.95    0.50
  -2   4   5    2.88    0.44
   2  -4   5    3.06    0.66
   2  -4   5    3.77    0.52
   2  -4   5    3.04    0.64
  -2   4   5    2.34    0.43
  -2   4   5    3.59    0.72
   2   4   5    3.32    0.62
   2   4   5    3.62    0.44
   2  -4  -5    3.71    0.49
  -2  -4   5    3.03    0.58
  -2  -4   5    2.28    0.50
  -2  -4   5    3.04    0.62
   2  -4  -5    3.40    0.46
   2  -4   6    0.64    0.40
  -2   4   6    1.09    0.23
   2   4  -6    1.29    0.33
  -2  -4   6    0.89    0.41
   2   4   6    0.62    0.25
   2   4   6    0.87    0.29
   2  -4  -6    1.12    0.28
  -3   4   0  147.10    8.95
   3  -4   0  157.32    8.94
   3  -4   0  150.22    8.95
   3  -4   0  144.38    8.97
   3   4   0  167.65    8.99
  -3  -4   0  136.04    8.96
  -3   4   0  171.56    8.97
   3   4   0  150.09    8.94
   3   4   0  149.69    8.94
  -3   4   0  156.04    8.94
  -3  -4  -1  131.10    8.78
   3   4  -1  163.72    8.75
   3  -4   1  147.76    8.78
  -3   4   1  147.35    8.79
  -3   4   1  155.03    8.77
   3  -4   1  140.30    8.82
  -3   4   1  139.25    8.89
   3  -4   1  134.86    8.76
   3   4  -1  166.72    8.78
  -3   4  -1  141.73    8.80
  -3  -4   1  171.52    8.84
   3  -4  -1  126.31    8.76
   3   4   1  161.27    8.78
   3  -4  -1  137.75    8.80
   3   4   1  173.37    8.83
  -3   4  -1  140.90    8.77
   3  -4  -1  151.38    8.79
  -3  -4   1  165.73    8.75
  -3   4  -1  155.57    8.79
   3   4  -2  169.18    9.54
   3   4  -2  157.38    9.58
   3  -4   2  167.25    9.56
  -3   4   2  143.71    9.58
  -3  -4  -2  141.63    9.57
   3  -4   2  164.52    9.54
   3  -4   2  161.34    9.60
  -3   4   2  167.29    9.55
  -3   4   2  168.15    9.59
   3  -4  -2  155.91    9.58
  -3  -4   2  168.56    9.54
   3   4   2  154.96    9.58
   3   4   2  174.19    9.57
  -3   4  -2  186.62    9.61
   3  -4  -2  153.55    9.56
  -3  -4   2  174.85    9.60
   3  -4  -2  171.16    9.55
  -3   4   3  114.99    7.04
   3  -4   3  115.82    7.05
   3  -4   3  113.89    6.97
  -3   4   3  113.14    6.97
   3  -4   3  119.09    6.99
  -3  -4  -3  128.21    7.05
  -3   4   3  118.20    7.02
   3  -4   3  113.65    6.97
   3   4  -3  124.43    6.99
   3   4   3  126.66    7.00
   3  -4  -3  115.45    6.98
  -3  -4   3  127.25    6.98
   3  -4  -3  103.86    7.00
   3  -4  -3  117.60    7.01
  -3  -4   3  133.01    7.05
  -3   4   4   87.47    4.90
   3  -4   4   77.59    4.78
   3  -4   4   78.81    4.79
  -3  -4  -4   85.20    4.87
  -3   4   4   78.58    4.77
   3  -4   4   78.30    4.78
   3   4  -4   81.92    4.80
   3  -4   4   78.17    4.84
   3  -4   4   79.91    4.89
  -3   4   4   78.74    4.84
   3  -4  -4   82.78    4.84
   3  -4  -4   76.37    4.85
   3  -4  -4   80.87    4.78
  -3  -4   4   81.76    4.80
  -3  -4   4   83.44    4.89
   3   4   4   82.05    4.87
  -3  -4   4   83.30    4.88
   3  -4   5   57.98    3.60
   3   4  -5   64.74    3.67
  -3   4   5   62.73    3.80
   3  -4   5   57.25    3.65
  -3   4   5   57.63    3.71
   3  -4   5   62.48    3.65
   3  -4   5   55.17    3.72
  -3   4   5   53.74    3.66
   3  -4   5   55.36    3.77
  -3  -4   5   66.45    3.68
   3   4   5   69.22    3.66
   3  -4  -5   59.49    3.67
  -3  -4   5   62.70    3.83
   3  -4  -5   57.44    3.63
  -3  -4   5   69.31    3.79
  -3   4   6   47.69    2.85
   3  -4   6   43.91    3.07
   3   4  -6   49.20    2.91
   3  -4  -6   48.91    2.91
   3  -4  -6   45.87    2.88
   3   4   6   48.61    2.88
  -3  -4   6   44.50    3.05
   4   4   0   34.30    1.99
  -4   4   0   32.81    2.00
   4   4   0   31.05    2.00
   4  -4   0   30.13    1.98
  -4   4   0   34.12    1.97
   4  -4   0   33.88    2.03
  -4   4   1    2.10    0.35
  -4   4   1    1.54    0.32
   4   4  -1    1.50    0.27
   4  -4   1    1.53    0.32
   4   4  -1    0.86    0.22
  -4   4   1    0.76    0.20
  -4  -4  -1    1.23    0.22
   4   4  -1    1.43    0.23
   4   4   1    1.05    0.22
   4  -4  -1    1.76    0.35
   4   4   1    1.23    0.31
  -4  -4   1    1.56    0.26
   4  -4  -1    1.28    0.18
  -4   4  -1    0.80    0.26
  -4  -4   1    0.98    0.35
   4  -4  -1    1.14    0.26
   4   4   1    0.74    0.21
  -4   4   2    0.49    0.20
  -4   4   2    1.38    0.36
  -4  -4  -2    0.57    0.22
   4  -4   2    0.60    0.24
  -4   4   2    0.81    0.33
   4   4  -2    0.99    0.25
   4  -4   2    1.04    0.22
   4   4  -2    0.57    0.24
   4  -4   2    1.13    0.27
   4   4   2    0.87    0.21
  -4   4  -2    0.67    0.31
  -4  -4   2    0.67    0.39
   4  -4  -2    0.93    0.36
   4  -4  -2    1.15    0.26
   4  -4  -2    0.78    0.19
   4   4   2    0.72    0.27
  -4   4   3    1.28    0.37
   4   4  -3    1.12    0.29
   4  -4   3    1.95    0.45
   4  -4   3    1.17    0.27
   4  -4   3    1.54    0.25
   4  -4   3    1.89    0.30
  -4   4   3    1.88    0.42
  -4  -4  -3    1.10    0.27
  -4   4   3    1.13    0.24
  -4  -4   3    1.81    0.32
   4   4   3    1.25    0.31
  -4  -4   3    1.41    0.30
   4  -4  -3    1.28    0.25
   4  -4  -3    1.47    0.29
   4   4   3    1.38    0.30
  -4   4   4   11.17    1.04
  -4   4   4   12.76    1.04
   4  -4   4   12.91    0.87
  -4   4   4   12.26    0.85
   4  -4   4   11.62    0.90
   4  -4   4   10.68    0.88
   4   4  -4   11.40    0.89
   4  -4   4   13.23    0.88
  -4  -4  -4   12.19    1.02
   4  -4   4   12.32    0.99
   4  -4   4   12.06    0.92
   4   4   4   12.51    0.90
   4   4   4   11.69    0.97
   4  -4  -4   11.62    0.92
  -4  -4   4   11.46    1.00
   4  -4  -4   10.93    0.96
  -4  -4   4   11.61    0.97
  -4  -4   4   10.60    0.92
   4  -4   5    1.21    0.30
   4  -4   5    1.06    0.37
  -4   4   5    0.72    0.46
  -4   4   5    0.97    0.24
   4  -4   5    0.70    0.29
   4   4  -5    0.86    0.31
   4  -4   5    1.11    0.25
   4  -4   5    1.09    0.38
  -4  -4   5    1.03    0.44
   4   4   5    0.79    0.28
   4  -4  -5    1.23    0.34
   4   4   5    1.31    0.35
  -4  -4   5    0.77    0.36
   4  -4   6    0.37    0.32
   4  -4   6    0.11    0.22
  -4   4   6    0.63    0.26
   4  -4   6    0.19    0.43
   4   4  -6    0.43    0.45
  -4  -4   6    0.17    0.45
   4  -4  -6    0.90    0.38
   4   4   6    0.30    0.31
  -5   4   0   34.68    1.97
   5  -4   0   30.61    2.08
   5   4   0   37.99    1.99
   5  -4   0   32.62    2.09
  -5  -4   0   38.18    1.99
   5  -4   0   28.05    1.97
  -5   4   0   29.17    2.05
  -5   4   0   33.03    2.09
  -5  -4  -1   53.28    3.46
  -5   4   1   60.94    3.55
   5   4  -1   61.57    3.53
   5  -4   1   58.79    3.52
  -5   4   1   60.82    3.47
  -5   4   1   58.66    3.52
   5  -4   1   55.62    3.52
   5  -4   1   56.81    3.54
   5   4  -1   59.71    3.48
  -5  -4   1   63.38    3.50
   5  -4  -1   60.00    3.44
   5  -4  -1   60.39    3.56
  -5   4  -1   58.88    3.54
  -5   4  -1   55.60    3.55
   5  -4  -1   59.00    3.54
  -5  -4   1   51.77    3.48
   5   4   1   58.87    3.53
   5   4   1   59.85    3.53
  -5   4   2   35.36    2.11
  -5   4   2   30.60    2.07
  -5  -4  -2   34.09    2.01
   5  -4   2   33.59    2.04
   5  -4   2   31.65    2.05
  -5   4   2   29.01    2.06
   5  -4   2   31.23    2.01
  -5   4  -2   29.75    2.08
   5  -4  -2   30.96    2.09
   5   4   2   34.76    2.07
   5  -4  -2   31.92    2.05
   5  -4  -2   33.03    1.97
   5   4   2   36.82    2.06
  -5   4   3   36.26    2.51
  -5  -4  -3   39.67    2.48
   5   4  -3   40.88    2.46
  -5   4   3   38.48    2.47
   5  -4   3   42.25    2.51
  -5   4   3   44.01    2.56
   5  -4   3   39.29    2.50
   5  -4   3   40.62    2.49
   5   4  -3   38.32    2.48
   5  -4   3   41.19    2.45
   5  -4  -3   38.91    2.52
   5  -4  -3   38.56    2.50
  -5  -4   3   39.59    2.47
   5   4   3   40.65    2.50
  -5  -4   3   42.20    2.51
  -5  -4   3   42.14    2.49
   5   4   3   41.25    2.51
   5   4   3   39.48    2.50
   5  -4   4   19.73    1.35
   5  -4   4   21.21    1.35
  -5   4   4   18.69    1.49
   5  -4   4   20.46    1.32
  -5   4   4   18.13    1.29
   5  -4   4   17.67    1.34
   5   4   4   22.64    1.39
   5  -4  -4   18.55    1.40
   5   4   4   22.18    1.40
   5  -4  -4   18.79    1.42
  -5   4   5   32.90    2.25
   5  -4   5   33.53    2.05
   5  -4   5   31.57    2.08
  -5   4   5   31.62    2.02
   5  -4   5   31.87    2.10
   5  -4   5   34.24    2.08
   5   4  -5   32.84    2.09
   5  -4   5   33.35    2.19
   5   4   5   31.96    2.14
  -5  -4   5   32.80    2.18
   5   4   5   32.58    2.12
   5  -4  -5   30.91    2.14
  -5  -4   5   31.35    2.20
   6  -4   0   56.41    3.35
   6   4   0   57.02    3.35
  -6   4   0   59.46    3.37
  -6   4   0   49.72    3.35
   6  -4   0   53.29    3.37
   6   4  -1    2.88    0.54
   6  -4   1    2.59    0.42
  -6   4   1    1.67    0.32
  -6   4   1    2.22    0.41
   6   4  -1    1.96    0.28
  -6  -4   1    1.77    0.38
   6   4   1    1.73    0.27
  -6   4  -1    1.60    0.35
   6  -4  -1    1.99    0.40
   6   4   1    2.25    0.46
  -6   4  -1    2.07    0.40
   6   4   1    2.80    0.46
   6  -4  -1    1.89    0.39
   6   4  -2   31.88    2.03
   6  -4   2   31.83    1.99
  -6   4   2   34.23    2.07
   6  -4   2   31.51    2.01
   6  -4   2   31.98    1.98
   6  -4   2   32.22    1.90
  -6   4   2   29.95    1.98
  -6   4   2   31.33    1.95
   6   4  -2   30.53    2.01
   6   4   2   27.58    1.98
   6  -4  -2   32.16    2.04
   6   4   2   31.06    2.01
  -6  -4   2   30.08    1.99
   6   4   2   32.88    2.01
  -6  -4   2   32.82    2.02
   6  -4  -2   30.51    2.05
   6  -4   3    1.64    0.32
  -6   4   3    1.55    0.30
  -6   4   3    1.00    0.44
   6   4  -3    2.32    0.45
   6   4  -3    1.79    0.32
   6  -4   3    2.03    0.36
  -6  -4   3    2.06    0.47
   6  -4  -3    1.53    0.40
   6   4   3    1.93    0.37
  -6  -4   3    1.51    0.45
  -6  -4   3    1.79    0.40
   6  -4  -3    1.54    0.46
  -6   4   4   30.68    2.22
   6   4  -4   32.87    2.09
   6  -4   4   34.59    2.09
   6  -4   4   35.56    2.49
   6  -4   4   34.84    2.10
  -6   4   4   32.66    2.08
   6   4   4   33.52    2.15
   6   4   4   30.74    2.16
  -6  -4   4   29.23    2.12
  -6  -4   4   33.87    2.17
   6  -4  -4   34.36    2.18
   7  -4   0    4.40    0.70
  -7   4   0    4.37    0.62
  -7   4   0    4.78    0.79
   7   4   0    5.17    0.64
  -7   4   1   68.31    4.69
  -7   4   1   83.20    4.74
   7   4  -1   80.40    4.64
   7   4  -1   77.44    4.70
   7  -4   1   78.05    4.69
   7   4   1   84.79    4.87
   7  -4  -1   78.92    4.71
  -7   4  -1   71.13    4.75
   7   4   1   77.08    4.70
  -7  -4   1   82.07    4.69
   7   4  -2    1.53    0.29
  -7   4   2    2.13    0.38
   7  -4   2    1.27    0.38
  -7  -4   2    1.26    0.50
   7  -4  -2    1.25    0.39
   7   4   2    1.33    0.33
   7   4  -3   62.17    3.60
   7   4  -3   57.70    3.71
   7  -4   3   61.79    3.61
   7  -4   3   59.26    3.63
  -7   4   3   56.58    3.63
   7   4   3   60.21    3.68
   7  -4  -3   59.53    3.66
  -7  -4   3   58.30    3.62
  -8   4   0   29.93    2.20
   8  -4   0   37.55    2.22
  -8   4   1    0.31    0.34
   8  -4   1   -0.25    0.37
   8   4  -1    0.07    0.21
   8  -4  -1    0.09    0.36
  -8   4  -1    0.02    0.31
  -8   4   2   17.80    1.44
   8  -4   2   19.07    1.45
   8   4  -2   21.42    1.34
   8  -4  -2   19.27    1.47
   8   4   2   19.79    1.45
   0   5   0    0.20    0.28
   0   5   0    0.05    0.08
   0  -5   0    0.63    0.42
   0  -5   0    0.04    0.10
   0  -5   0    0.14    0.07
   0   5   1   13.95    0.85
   0  -5   1   14.13    1.04
   0   5   1   13.86    1.01
   0  -5   1   13.98    0.84
   0  -5  -1   13.85    0.84
   0  -5  -1   13.09    1.00
   0   5  -1   13.26    0.99
   0   5   2    0.18    0.22
   0   5  -2    0.39    0.20
   0  -5  -2    0.09    0.09
   0  -5  -2    0.09    0.20
   0   5   2    0.05    0.10
   0  -5   2   -0.08    0.12
   0  -5   2    0.01    0.19
   0   5   3   10.08    0.66
   0  -5   3   10.28    0.82
   0   5  -3    9.62    0.69
   0  -5  -3    9.59    0.65
   0   5   3    9.76    0.88
   0  -5   3    8.31    0.74
   0  -5  -3   10.18    0.78
   0  -5  -3    9.53    0.66
   0   5   4    0.31    0.18
   0  -5   4    0.19    0.29
   0  -5   4    0.03    0.22
   0  -5  -4    0.05    0.25
   0  -5  -4   -0.06    0.15
   0  -5  -4   -0.09    0.17
   0   5  -4    0.05    0.20
   0   5   4    0.41    0.26
   0   5   4   -0.05    0.29
   0  -5  -5    0.54    0.28
   0   5  -5    0.47    0.23
   0   5   5    0.41    0.20
   0  -5   5    0.98    0.31
   0  -5   5    0.20    0.31
   0   5   5    0.59    0.28
   0  -5  -5    0.55    0.21
   0  -5   5    0.43    0.37
   0   5   5    0.70    0.34
   0  -5  -6   -0.04    0.29
   0  -5  -6    0.14    0.20
   0   5   6   -0.03    0.22
   0   5   6    0.01    0.28
   0  -5   6   -0.02    0.37
  -1  -5   0   27.48    1.83
   1   5   0   23.96    1.75
  -1   5   0   25.53    1.58
  -1  -5   0   26.41    1.57
  -1   5   0   25.70    1.74
   1  -5   0   27.68    1.60
  -1   5   0   28.13    1.58
   1   5   0   26.76    1.57
  -1   5   1   58.43    3.47
  -1  -5  -1   59.52    3.46
  -1   5   1   57.71    3.57
   1   5  -1   60.68    3.45
   1   5  -1   56.84    3.57
   1  -5   1   59.94    3.45
  -1   5   1   59.88    3.46
   1  -5   1   58.36    3.46
  -1  -5  -1   56.98    3.55
   1  -5   1   58.80    3.59
   1  -5  -1   54.73    3.50
  -1   5  -1   59.07    3.55
  -1  -5   1   60.62    3.59
   1   5   1   59.73    3.57
   1  -5  -1   57.67    3.55
   1  -5  -1   62.56    3.47
   1   5   1   60.16    3.46
  -1   5  -1   59.55    3.45
  -1   5   2  108.52    5.94
   1   5  -2   94.09    5.94
  -1  -5  -2   99.68    5.85
  -1  -5  -2  101.62    5.93
  -1   5   2   95.01    5.85
  -1   5   2   97.07    5.87
   1  -5   2  100.63    5.85
   1   5  -2   97.98    5.85
   1  -5   2  100.15    5.95
   1  -5  -2  104.18    5.86
  -1  -5   2   95.92    5.84
  -1   5  -2  100.72    5.93
   1   5   2   97.06    5.85
   1  -5  -2   96.26    5.87
   1  -5  -2  105.22    5.92
   1   5   2  104.93    5.93
  -1  -5   2  102.39    5.94
   1  -5   3   34.36    2.15
  -1   5   3   33.45    2.02
  -1  -5  -3   35.15    2.12
  -1  -5  -3   28.48    2.11
   1   5  -3   34.02    2.03
   1  -5   3   33.05    2.03
  -1   5   3   34.20    2.07
   1  -5  -3   31.41    2.11
   1   5   3   35.06    2.14
  -1  -5   3   32.41    2.04
   1   5   3   35.37    2.03
   1  -5  -3   35.07    2.11
   1  -5  -3   35.02    2.04
  -1  -5   3   33.80    2.14
  -1   5   4   20.63    1.28
   1  -5   4   18.82    1.44
  -1  -5  -4   21.34    1.41
  -1   5   4   21.73    1.46
   1   5  -4   20.11    1.30
  -1   5   4   20.80    1.35
  -1  -5  -4   20.85    1.27
   1  -5   4   18.04    1.29
   1  -5  -4   20.56    1.39
  -1  -5   4   19.17    1.31
   1  -5  -4   20.91    1.28
   1   5   4   19.15    1.42
  -1  -5   4   19.50    1.43
   1   5   4   20.43    1.28
   1  -5  -4   19.48    1.28
  -1  -5  -5   18.90    1.23
  -1   5   5   19.90    1.44
   1   5  -5   19.06    1.25
  -1  -5  -5   19.50    1.37
   1  -5   5   18.38    1.26
   1  -5   5   17.01    1.42
  -1   5   5   19.07    1.21
   1  -5   5   17.80    1.42
  -1   5   5   17.82    1.29
   1  -5  -5   18.81    1.36
   1  -5  -5   19.36    1.23
   1   5   5   18.69    1.27
  -1  -5   5   17.85    1.40
  -1  -5   5   15.88    1.48
   1   5   5   20.64    1.64
   1  -5  -5   19.61    1.35
  -1  -5   5   18.67    1.27
  -1  -5  -6   24.82    1.44
   1  -5   6   19.86    1.71
   1   5  -6   24.93    1.52
  -1  -5  -6   23.18    1.53
  -1   5   6   23.46    1.48
  -1   5   6   21.33    1.55
   1  -5  -6   23.22    1.53
   1   5   6   20.39    1.48
  -1  -5   6   21.17    1.71
   1   5   6   23.57    1.49
   1  -5  -6   24.42    1.47
   2  -5   0   94.35    6.33
  -2   5   0  115.90    6.31
   2   5   0  108.83    6.32
   2  -5   0  104.84    6.21
  -2   5   0  109.12    6.21
   2   5   0  100.23    6.20
  -2   5   0  105.91    6.22
   2  -5   0  103.05    6.23
  -2  -5   0  114.53    6.34
  -2  -5  -1   25.78    1.43
   2  -5   1   22.57    1.43
   2   5  -1   24.36    1.41
   2  -5   1   21.44    1.43
  -2  -5  -1   22.45    1.52
   2  -5   1   21.93    1.59
  -2   5   1   23.27    1.43
  -2   5   1   21.32    1.58
  -2   5   1   21.92    1.46
  -2   5  -1   22.85    1.43
   2  -5  -1   23.72    1.44
   2  -5  -1   21.44    1.51
  -2  -5   1   27.67    1.61
  -2  -5   1   26.20    1.42
  -2   5  -1   23.88    1.50
   2   5   1   26.29    1.44
  -2   5   2   52.29    3.19
   2  -5   2   53.75    3.14
  -2  -5  -2   54.73    3.16
   2  -5   2   52.26    3.15
   2   5  -2   54.59    3.15
   2   5  -2   53.58    3.25
   2  -5   2   53.40    3.26
  -2  -5  -2   49.82    3.22
  -2   5   2   52.99    3.15
  -2   5   2   55.40    3.25
   2  -5  -2   56.38    3.16
  -2   5  -2   54.20    3.22
   2  -5  -2   52.34    3.21
   2  -5  -2   45.65    3.19
   2   5   2   55.82    3.16
   2   5   2   51.83    3.23
  -2   5  -2   56.25    3.19
  -2  -5   2   55.53    3.25
  -2  -5   2   52.36    3.15
  -2  -5  -3   13.53    0.84
   2   5  -3   12.18    0.86
  -2   5   3   11.13    0.84
  -2  -5  -3   12.76    0.94
   2  -5   3   11.48    0.85
   2  -5   3   11.70    0.98
  -2  -5   3   14.14    0.98
   2   5   3   14.80    0.99
   2  -5  -3   12.12    0.84
   2  -5  -3   12.05    0.91
  -2  -5   3   12.98    0.87
   2   5   3   13.62    0.85
   2  -5  -3   10.91    0.92
   2  -5   4   49.29    3.22
  -2  -5  -4   53.70    3.22
  -2  -5  -4   55.42    3.35
   2  -5   4   50.93    3.36
  -2   5   4   51.98    3.21
  -2   5   4   51.56    3.27
  -2   5   4   58.19    3.37
   2  -5  -4   54.86    3.22
   2  -5  -4   54.13    3.30
  -2  -5   4   54.43    3.23
  -2  -5   4   53.47    3.33
   2  -5  -4   52.40    3.23
   2   5   4   56.53    3.23
   2   5   4   57.62    3.34
  -2  -5  -5    8.85    0.80
   2  -5   5    5.74    0.69
  -2   5   5    7.80    0.95
   2  -5   5    6.65    0.83
  -2  -5  -5    8.77    0.66
  -2   5   5    6.62    0.62
   2  -5   5    6.15    0.84
   2   5  -5    8.07    0.70
   2  -5  -5    6.99    0.64
   2   5   5    8.29    0.64
  -2  -5   5    7.16    0.99
  -2  -5   5    7.93    0.74
  -2  -5   5    8.13    0.85
   2  -5  -5    7.10    0.66
   2  -5  -5    7.23    0.75
   2   5  -6   20.39    1.32
  -2   5   6   18.28    1.23
   2  -5   6   18.28    1.55
   2  -5  -6   18.97    1.27
   2   5   6   19.73    1.27
   2  -5  -6   17.65    1.30
  -2  -5   6   16.63    1.50
  -3   5   0   71.47    3.87
   3  -5   0   61.78    3.83
   3   5   0   70.60    3.89
   3   5   0   63.93    3.81
   3  -5   0   65.74    3.82
   3  -5   0   60.78    3.89
  -3   5   0   65.31    3.81
  -3   5   0   61.57    3.82
  -3  -5   0   60.04    3.88
   3  -5   1    0.44    0.17
  -3  -5  -1    0.19    0.20
   3   5  -1    0.28    0.12
   3  -5   1    0.42    0.30
  -3   5   1    0.15    0.15
   3   5  -1    0.03    0.15
   3   5  -1    0.09    0.16
  -3   5   1    0.46    0.34
  -3   5   1    0.33    0.22
   3   5  -1    0.20    0.15
   3   5   1    0.14    0.28
  -3   5  -1    0.33    0.17
  -3   5  -1    0.40    0.17
   3  -5  -1    0.70    0.29
   3  -5  -1    0.25    0.16
  -3  -5   1    0.07    0.31
  -3  -5   1    0.32    0.15
   3   5   1    0.22    0.13
  -3  -5  -2   84.09    5.56
  -3   5   2   97.78    5.52
   3  -5   2   98.26    5.53
  -3   5   2   94.92    5.60
   3  -5   2   93.59    5.52
  -3   5   2   91.42    5.58
   3  -5   2   95.91    5.61
   3   5  -2   91.06    5.65
   3   5  -2   96.10    5.51
  -3  -5   2   94.72    5.51
   3   5   2   90.59    5.58
   3   5   2   99.30    5.54
   3  -5  -2   88.05    5.54
  -3   5  -2   96.26    5.55
  -3  -5   2   94.51    5.59
   3  -5  -2   89.40    5.57
   3  -5  -2   96.44    5.53
  -3   5  -2   98.72    5.57
   3  -5   3    0.09    0.20
   3  -5   3    0.49    0.26
  -3   5   3    0.22    0.20
   3  -5   3    0.27    0.19
  -3  -5  -3   -0.08    0.23
   3  -5   3    0.24    0.20
  -3   5   3    0.66    0.36
   3   5  -3   -0.04    0.22
   3  -5  -3    0.12    0.20
   3  -5  -3    0.44    0.21
  -3  -5   3    0.28    0.25
   3   5   3   -0.04    0.27
   3  -5  -3   -0.27    0.32
  -3  -5   3   -0.11    0.38
   3  -5   4   36.79    2.19
  -3   5   4   36.56    2.34
   3   5  -4   35.65    2.21
   3  -5   4   34.92    2.18
   3  -5   4   36.17    2.18
  -3   5   4   35.80    2.28
   3  -5   4   34.37    2.20
  -3  -5   4   35.42    2.30
   3  -5  -4   34.44    2.25
  -3  -5   4   36.02    2.21
   3  -5  -4   38.74    2.26
   3   5   4   37.15    2.21
   3   5   4   35.90    2.30
   3  -5  -4   34.34    2.19
   3   5  -5   -0.08    0.24
  -3   5   5   -0.35    0.39
   3  -5   5    0.19    0.26
   3  -5   5    0.69    0.25
   3  -5   5    0.03    0.32
  -3   5   5    0.24    0.43
   3  -5   5    0.11    0.28
  -3  -5  -5    0.34    0.31
  -3   5   5    0.47    0.21
   3  -5  -5    0.56    0.29
   3  -5  -5   -0.18    0.23
   3  -5  -5    0.20    0.24
   3   5   5    0.76    0.33
   3   5   5    0.07    0.21
  -3  -5   5    0.14    0.45
  -3  -5   5    0.24    0.33
   3  -5   6   26.01    1.99
  -3   5   6   26.48    1.70
   3   5  -6   28.00    1.77
   3  -5  -6   27.50    1.76
  -3  -5   6   25.46    1.94
   3   5   6   26.37    1.74
  -4   5   0  172.91    9.92
   4   5   0  172.78    9.90
   4  -5   0  154.98    9.90
   4   5   0  173.47    9.91
   4   5   0  188.75    9.93
   4  -5   0  168.93    9.91
  -4   5   0  181.41    9.92
  -4  -5   0  148.98    9.90
  -4   5   0  164.22    9.90
   4  -5   0  166.95    9.92
  -4   5   1   65.35    3.90
   4  -5   1   62.20    3.91
   4  -5   1   63.54    3.91
   4   5  -1   67.63    3.87
  -4   5   1   70.16    3.97
  -4   5   1   67.16    3.93
   4   5  -1   68.48    3.91
   4   5  -1   69.43    3.91
   4  -5   1   69.82    4.01
  -4  -5   1   61.80    3.99
   4  -5  -1   58.00    3.88
   4  -5  -1   65.14    3.95
   4   5   1   59.09    3.96
   4   5   1   65.81    3.91
  -4   5  -1   64.67    3.91
   4  -5  -1   62.72    3.91
  -4  -5   1   70.19    3.88
  -4   5  -1   64.27    3.92
  -4   5  -1   72.17    3.90
  -4   5   2  158.82    8.92
   4   5  -2  149.33    8.92
  -4   5   2  157.46    8.99
   4  -5   2  153.00    8.93
   4  -5   2  151.07    8.91
   4   5  -2  158.54    8.90
  -4   5   2  165.50    8.97
   4  -5   2  153.85    8.99
  -4  -5  -2  139.00    8.93
   4   5  -2  148.71    8.93
   4   5   2  138.93    8.96
   4  -5  -2  153.71    8.92
  -4   5  -2  155.85    8.98
   4   5   2  155.63    8.94
   4  -5  -2  139.09    8.91
  -4  -5   2  158.10    8.98
   4  -5  -2  152.93    8.97
  -4   5   3   57.16    3.32
   4  -5   3   53.71    3.32
  -4  -5  -3   54.45    3.29
   4  -5   3   53.95    3.25
   4   5  -3   54.12    3.23
  -4   5   3   54.73    3.25
   4   5   3   55.44    3.27
  -4  -5   3   55.94    3.31
   4  -5  -3   52.16    3.24
   4  -5  -3   49.46    3.30
   4   5   3   52.73    3.31
   4  -5  -3   52.96    3.25
  -4  -5   3   54.78    3.24
   4  -5   4  100.23    5.58
   4   5  -4   93.84    5.59
  -4   5   4   99.82    5.66
   4  -5   4   92.37    5.59
  -4   5   4   90.39    5.56
   4  -5   4   89.02    5.62
  -4   5   4   99.41    5.70
   4  -5   4   91.79    5.75
  -4  -5  -4  101.13    5.67
   4  -5   4   94.11    5.58
   4   5   4   94.46    5.61
  -4  -5   4   91.30    5.68
   4  -5  -4   87.30    5.62
   4  -5  -4   98.60    5.62
  -4  -5   4   90.82    5.58
   4   5   4   94.69    5.66
   4  -5  -4   91.86    5.58
  -4  -5   4   96.19    5.67
   4  -5   5   22.44    1.49
   4  -5   5   22.78    1.59
  -4   5   5   23.06    1.48
  -4   5   5   24.45    1.80
   4  -5   5   23.10    1.68
   4  -5   5   24.81    1.50
   4   5  -5   23.34    1.54
   4  -5   5   23.96    1.52
  -4  -5   5   22.30    1.78
   4  -5  -5   20.09    1.55
   4   5   5   24.52    1.56
  -4  -5   5   22.13    1.66
   4  -5  -5   23.31    1.59
   4   5   5   23.25    1.62
  -5   5   0  222.23   13.49
  -5   5   0  237.77   13.45
   5   5   0  237.81   13.49
   5   5   0  221.00   13.49
   5  -5   0  230.31   13.50
   5  -5   0  247.46   13.51
   5  -5   0  218.64   13.44
  -5   5   0  239.77   13.51
   5   5   0  223.03   13.48
   5  -5   1   31.85    1.94
   5  -5   1   32.28    1.92
  -5   5   1   26.44    1.93
  -5  -5  -1   26.06    1.85
   5   5  -1   28.88    1.95
   5   5  -1   29.79    1.84
   5   5  -1   30.59    1.90
  -5   5   1   33.30    1.96
  -5   5   1   32.62    1.98
   5  -5   1   34.03    1.97
  -5  -5   1   31.59    1.88
  -5   5  -1   28.82    1.92
   5  -5  -1   30.96    2.08
  -5   5  -1   29.84    1.93
   5   5   1   29.89    1.90
   5  -5  -1   31.75    1.93
   5   5   1   29.93    1.91
  -5  -5   1   26.12    1.90
   5   5   1   30.03    1.92
   5  -5  -1   31.21    1.83
  -5   5   2  117.75    7.37
  -5  -5  -2  111.23    7.31
   5  -5   2  131.44    7.35
  -5   5   2  124.50    7.32
   5   5  -2  128.46    7.30
  -5   5   2  138.60    7.38
  -5  -5   2  126.93    7.38
   5   5   2  114.87    7.35
   5  -5  -2  118.57    7.48
   5  -5  -2  136.39    7.30
  -5  -5   2  129.35    7.31
   5   5   2  122.06    7.34
   5  -5  -2  128.30    7.34
  -5   5  -2  115.81    7.37
   5   5   2  121.62    7.35
   5  -5   3   24.62    1.63
  -5  -5  -3   21.50    1.57
   5  -5   3   23.58    1.55
   5  -5   3   25.44    1.55
   5   5  -3   24.23    1.55
  -5   5   3   26.31    1.70
  -5   5   3   23.87    1.54
   5  -5   3   25.62    1.59
  -5   5   3   22.82    1.83
   5  -5  -3   23.76    1.61
   5  -5  -3   27.02    1.55
  -5  -5   3   24.04    1.64
   5   5   3   22.78    1.58
  -5  -5   3   24.43    1.59
   5   5   3   22.99    1.58
   5  -5  -3   24.79    1.66
   5   5   3   22.69    1.61
  -5   5   4  139.36    7.68
   5  -5   4  135.97    7.58
   5   5  -4  127.94    7.56
   5  -5   4  137.96    7.56
   5  -5   4  138.47    7.60
  -5   5   4  125.70    7.55
   5  -5   4  119.17    7.56
   5  -5   4  132.30    7.65
  -5  -5   4  126.33    7.61
  -5  -5   4  115.47    7.56
   5  -5  -4  122.62    7.61
   5  -5  -4  123.18    7.58
   5   5   4  128.19    7.63
   5   5   4  125.09    7.60
  -5  -5   4  124.72    7.66
   5  -5   5   13.31    1.08
   5  -5   5   14.65    1.09
  -5   5   5   16.54    1.45
   5  -5   5   14.78    1.24
   5   5  -5   14.19    1.12
  -5   5   5   15.33    1.03
   5   5   5   13.35    1.16
   5  -5  -5   15.18    1.21
  -5  -5   5   13.94    1.30
  -5  -5   5   13.45    1.25
   6   5   0   78.85    4.56
  -6  -5   0   71.77    4.56
   6  -5   0   80.05    4.67
   6  -5   0   75.09    4.67
   6   5   0   79.70    4.65
   6   5   0   81.17    4.65
  -6   5   0   72.12    4.66
  -6   5   0   83.79    4.68
   6  -5   1   42.33    2.53
  -6  -5  -1   38.46    2.44
   6  -5   1   39.64    2.55
   6   5  -1   42.74    2.46
   6  -5   1   36.90    2.44
  -6   5   1   39.77    2.52
   6   5  -1   44.83    2.55
  -6   5   1   44.18    2.57
  -6  -5   1   35.33    2.43
  -6   5  -1   35.99    2.54
   6  -5  -1   43.53    2.57
  -6   5  -1   41.07    2.57
   6   5   1   42.26    2.54
   6   5   1   41.77    2.45
   6  -5  -1   39.72    2.55
   6   5   1   42.86    2.53
  -6  -5   1   42.77    2.51
   6  -5   2   84.75    4.97
  -6   5   2   79.99    4.97
   6  -5   2   82.73    4.91
   6  -5   2   86.94    5.00
   6   5  -2   87.04    4.97
   6  -5   2   85.47    5.00
  -6   5   2   91.64    5.04
  -6  -5  -2   80.27    4.93
  -6   5   2   85.91    4.95
   6   5  -2   82.72    4.99
   6   5   2   85.30    5.00
   6  -5  -2   88.43    4.90
   6   5   2   74.79    4.98
  -6  -5   2   88.22    4.97
   6  -5  -2   87.73    5.02
  -6   5  -2   71.85    5.00
   6   5   2   79.93    4.99
  -6  -5   2   80.02    4.98
   6  -5  -2   79.13    5.00
  -6   5   3   27.74    1.99
   6   5  -3   26.93    1.92
  -6   5   3   28.55    1.83
   6  -5   3   28.99    1.85
   6  -5   3   30.48    1.88
   6  -5   3   29.47    1.79
   6   5  -3   30.53    1.81
   6  -5   3   30.35    1.86
  -6  -5   3   28.50    1.85
   6   5   3   27.36    1.87
  -6  -5   3   27.82    1.90
   6  -5  -3   28.89    1.91
   6   5   3   28.94    1.88
  -6  -5   3   29.18    1.95
   6  -5  -3   23.53    1.93
   6  -5   4   50.64    2.96
  -6   5   4   47.83    2.94
   6  -5   4   50.40    2.96
   6  -5   4   49.32    3.03
  -6   5   4   47.55    3.11
   6   5  -4   48.13    2.94
   6   5   4   47.66    3.02
  -6  -5   4   45.11    3.05
  -6  -5   4   45.72    2.98
   6   5   4   46.34    3.02
   6  -5  -4   48.41    3.03
   7   5   0   14.27    1.05
   7  -5   0   15.73    1.13
  -7   5   0   12.43    1.06
  -7   5   0   14.29    1.27
   7   5   0   12.90    1.02
   7  -5   1   78.15    4.37
   7   5  -1   72.37    4.27
   7   5  -1   74.59    4.36
  -7   5   1   66.56    4.35
  -7  -5   1   77.08    4.34
   7   5   1   71.29    4.35
  -7   5  -1   61.07    4.36
   7  -5  -1   79.69    4.38
  -7   5  -1   67.97    4.42
   7   5  -2   10.28    0.78
   7  -5   2    9.37    0.76
  -7   5   2   11.22    0.88
   7   5  -2   11.30    0.99
  -7  -5   2    7.85    1.00
   7   5   2    9.45    0.87
  -7   5   3   55.20    3.52
   7   5  -3   59.85    3.49
   7  -5   3   58.69    3.54
   7   5  -3   56.52    3.58
   7  -5   3   58.78    3.54
   7   5   3   56.58    3.57
   7  -5  -3   59.74    3.58
  -7  -5   3   55.31    3.58
   8  -5   0   14.42    1.25
   8   5   0   15.85    1.15
  -8   5   0   14.73    1.21
   8  -5   1   90.98    5.33
  -8   5   1   77.27    5.33
   8   5  -1   93.00    5.24
  -8  -5   1   89.28    5.29
   8   5   1   88.84    5.33
   8  -5  -1   91.32    5.34
  -8   5   2   10.82    1.19
   8  -5   2   10.11    1.09
   8   5  -2   11.93    0.87
   8  -5  -2   10.54    1.35
   0   6   0  325.50   20.64
   0  -6   0  298.14   20.66
   0  -6   0  382.80   20.57
   0  -6   0  405.51   20.57
   0   6   1    0.05    0.31
   0   6   1   -0.03    0.10
   0  -6   1    0.17    0.32
   0  -6   1   -0.03    0.10
   0   6  -1    0.04    0.23
   0  -6  -1    0.12    0.32
   0  -6  -1   -0.01    0.08
   0   6  -2  237.41   14.64
   0  -6   2  249.47   14.53
   0  -6   2  247.53   14.65
   0  -6  -2  248.72   14.53
   0   6   2  264.58   14.63
   0  -6  -2  257.62   14.63
   0   6   2  242.91   14.53
   0  -6  -3    0.16    0.13
   0  -6  -3    0.14    0.24
   0  -6   3    0.04    0.18
   0   6   3    0.00    0.29
   0  -6   3    0.28    0.27
   0   6   3    0.53    0.22
   0   6  -3   -0.02    0.23
   0   6   4  240.35   13.21
   0  -6   4  218.70   13.09
   0  -6  -4  230.31   13.09
   0   6   4  211.34   13.08
   0   6   4  219.75   13.08
   0  -6  -4  225.69   13.06
   0   6   5   -0.17    0.25
   0   6   5   -0.05    0.19
   0  -6  -5    0.26    0.17
   0  -6  -5    0.21    0.21
   0  -6  -5   -0.05    0.28
   0  -6   5   -0.23    0.33
   0  -6   5    0.26    0.27
   0   6   5    0.35    0.34
   0   6   6   96.95    5.44
   0  -6  -6   96.47    5.60
   0   6   6   87.68    5.45
   0  -6   6   82.63    5.62
   0  -6  -6   94.08    5.40
  -1   6   0   50.60    3.07
  -1   6   0   54.09    3.07
   1  -6   0   54.00    3.07
  -1  -6   0   51.83    3.06
   1  -6   0   52.98    3.09
   1   6   0   52.24    3.24
  -1   6   0   48.48    3.23
   1   6   0   52.89    3.06
  -1  -6  -1   83.32    5.14
  -1   6   1   87.09    5.02
   1   6  -1   80.09    5.14
  -1   6   1   80.41    5.16
  -1  -6  -1   90.52    5.02
   1  -6   1   86.11    5.02
  -1   6   1   84.94    5.02
   1  -6   1   87.05    5.28
  -1  -6   1   89.90    5.19
   1  -6  -1   76.49    5.06
   1   6   1   88.23    5.16
  -1   6  -1   83.69    5.13
   1  -6  -1   94.47    5.03
  -1  -6   1   89.26    5.01
   1   6   1   86.54    5.02
  -1   6  -1   84.85    5.01
   1  -6  -1   84.58    5.14
  -1   6   2    9.87    0.71
  -1  -6  -2   12.16    0.89
   1   6  -2   11.38    0.72
   1  -6   2    9.02    0.70
  -1   6   2    9.92    0.76
   1  -6   2    9.65    0.90
  -1  -6  -2   12.45    0.71
   1   6  -2   12.99    0.89
  -1   6   2    9.86    0.89
   1  -6  -2   10.36    0.71
  -1  -6   2   11.24    0.71
  -1   6  -2    9.32    0.84
   1   6   2   11.89    0.71
   1  -6  -2    9.97    0.84
   1  -6  -2    9.98    0.80
   1  -6   3   46.87    2.92
   1  -6   3   47.52    3.05
  -1   6   3   48.36    2.94
  -1   6   3   51.45    3.04
   1   6  -3   44.94    3.03
   1   6  -3   48.28    2.92
  -1  -6  -3   51.56    2.92
  -1   6   3   47.91    2.91
  -1  -6  -3   50.96    3.03
  -1  -6   3   48.21    2.92
   1  -6  -3   49.83    2.93
   1  -6  -3   52.18    3.02
  -1  -6   3   48.42    3.04
   1  -6  -3   50.80    2.92
   1   6   3   51.28    3.04
   1   6   3   50.49    2.92
  -1   6  -3   43.42    3.02
  -1   6   4   24.17    1.55
   1  -6   4   22.74    1.86
   1  -6   4   22.94    1.57
  -1  -6  -4   27.19    1.56
  -1   6   4   22.92    1.60
  -1   6   4   25.26    1.74
  -1  -6  -4   22.78    1.79
  -1  -6   4   25.97    1.58
   1  -6  -4   24.70    1.55
   1   6   4   28.91    1.73
   1   6   4   26.31    1.57
   1  -6  -4   24.82    1.55
   1  -6   5   25.81    1.78
  -1   6   5   26.41    1.81
   1   6  -5   28.74    1.78
  -1   6   5   30.35    1.96
   1  -6   5   25.11    1.94
  -1  -6  -5   29.19    1.77
  -1   6   5   28.33    1.75
  -1  -6  -5   29.68    1.92
   1  -6  -5   28.22    1.76
   1   6   5   28.60    1.76
   1   6   5   28.94    1.92
  -1  -6   5   25.86    1.93
   1  -6  -5   29.55    1.90
  -1  -6   5   27.05    1.78
   1   6  -6    5.51    0.65
   1  -6   6    5.00    0.94
  -1   6   6    4.53    0.60
  -1  -6  -6    6.70    0.84
   1  -6  -6    5.80    0.55
  -1  -6   6    5.42    0.92
   1  -6  -6    5.15    0.80
   1   6   6    4.97    0.62
  -2  -6   0  480.66   27.85
  -2   6   0  489.16   27.77
  -2  -6   0  500.57   27.77
   2  -6   0  496.95   27.79
   2   6   0  470.62   27.83
  -2   6   0  477.14   27.73
   2  -6   0  424.95   27.84
   2   6   0  480.26   27.78
   2  -6   0  461.88   27.74
  -2   6   0  490.64   27.82
  -2   6   1   25.27    1.81
   2   6  -1   25.17    1.72
  -2   6   1   26.90    1.62
   2  -6   1   25.30    1.60
  -2  -6  -1   27.48    1.59
   2  -6   1   27.07    1.59
  -2   6   1   27.94    1.60
   2  -6   1   25.42    1.83
   2   6  -1   27.45    1.58
  -2  -6  -1   26.23    1.73
  -2   6  -1   26.56    1.60
  -2  -6   1   25.64    1.57
   2   6   1   27.70    1.60
   2  -6  -1   27.74    1.60
   2  -6  -1   23.91    1.70
   2  -6  -1   24.17    1.69
  -2  -6   1   26.63    1.82
  -2   6  -1   27.32    1.69
   2   6   1   24.84    1.77
  -2   6   2  411.97   23.36
   2  -6   2  404.17   23.38
   2  -6   2  418.85   23.25
  -2   6   2  410.07   23.31
  -2   6   2  414.36   23.29
   2  -6   2  406.92   23.27
   2   6  -2  415.12   23.26
  -2  -6  -2  359.14   23.33
   2   6  -2  370.14   23.35
   2  -6  -2  397.09   23.33
   2  -6  -2  359.27   23.29
  -2   6  -2  403.96   23.28
  -2   6  -2  395.79   23.34
  -2  -6   2  416.38   23.25
  -2  -6   2  406.10   23.36
   2   6   2  403.66   23.35
   2   6   2  412.51   23.27
   2  -6   3   12.11    0.89
  -2   6   3   14.31    1.11
  -2   6   3   13.32    0.88
   2  -6   3   12.81    1.05
   2  -6   3   12.22    0.89
  -2   6   3   13.65    1.00
   2   6  -3   12.68    0.89
  -2  -6  -3   13.09    0.87
   2   6  -3   12.75    1.01
  -2  -6  -3   13.07    1.01
   2  -6  -3   12.49    0.98
  -2  -6   3   11.92    0.89
   2  -6  -3   13.93    0.88
  -2  -6   3   13.73    1.05
   2   6   3   13.40    1.05
   2   6   3   13.20    0.88
   2  -6  -3   12.57    0.96
  -2   6   4  275.37   15.14
   2  -6   4  243.24   15.01
  -2   6   4  258.83   15.05
   2  -6   4  242.08   15.15
   2   6  -4  262.17   15.02
  -2  -6  -4  256.52   15.02
  -2  -6  -4  259.77   15.12
   2   6   4  265.61   15.12
   2  -6  -4  259.68   15.02
   2  -6  -4  259.45   15.01
  -2  -6   4  252.97   15.01
   2   6   4  254.06   15.02
  -2  -6  -5   13.32    1.10
   2  -6   5   11.41    1.14
  -2   6   5   12.78    1.21
   2  -6   5   11.96    0.95
  -2  -6  -5   12.20    0.94
  -2   6   5   12.68    0.90
   2   6  -5   13.49    0.97
   2   6   5   14.23    1.11
   2   6   5   13.13    0.93
   2  -6  -5   13.11    0.94
  -2  -6   5   12.14    0.98
  -2  -6   5   11.38    1.10
   2  -6  -5   12.66    0.93
   2  -6  -5   13.50    1.05
  -2   6   6  134.55    7.83
   2  -6   6  122.17    8.04
   2   6  -6  137.72    7.87
   2   6   6  143.93    7.86
  -2  -6   6  122.38    8.02
   2  -6  -6  137.62    7.85
  -3   6   0    1.92    0.37
   3  -6   0    1.65    0.41
   3  -6   0    1.48    0.23
  -3   6   0    1.57    0.23
  -3   6   0    1.61    0.31
   3  -6   0    1.66    0.29
  -3   6   1   37.68    2.41
   3  -6   1   36.74    2.44
  -3  -6  -1   32.85    2.29
   3  -6   1   35.16    2.23
   3   6  -1   38.67    2.20
  -3   6   1   32.46    2.34
   3   6  -1   39.19    2.22
  -3   6   1   38.31    2.22
   3   6  -1   40.05    2.31
   3  -6   1   38.70    2.23
  -3   6  -1   37.83    2.23
   3  -6  -1   33.70    2.27
  -3   6  -1   41.31    2.29
   3   6   1   34.95    2.37
   3   6   1   39.08    2.23
  -3   6  -1   32.07    2.29
  -3  -6   1   39.11    2.44
   3  -6  -1   35.85    2.31
   3  -6   2   24.12    1.49
   3   6  -2   24.00    1.47
  -3  -6  -2   22.50    1.57
   3  -6   2   22.96    1.64
  -3   6   2   23.33    1.55
  -3   6   2   23.47    1.48
   3  -6   2   22.33    1.48
   3   6  -2   24.83    1.55
  -3   6   2   24.32    1.68
  -3  -6   2   25.73    1.64
   3   6   2   24.79    1.61
  -3   6  -2   22.59    1.53
   3  -6  -2   20.28    1.69
   3  -6  -2   22.65    1.62
   3   6   2   26.13    1.49
   3  -6  -2   23.61    1.49
  -3  -6   2   25.68    1.47
  -3   6  -2   23.25    1.53
  -3  -6  -3   21.88    1.63
   3   6  -3   24.74    1.56
   3  -6   3   23.88    1.70
  -3   6   3   27.46    1.67
   3  -6   3   24.62    1.56
   3  -6   3   23.87    1.57
  -3   6   3   24.23    1.73
   3  -6   3   25.73    1.56
  -3   6   3   25.05    1.56
   3  -6  -3   22.78    1.67
   3   6   3   25.04    1.69
   3  -6  -3   24.58    1.61
   3   6   3   26.23    1.58
  -3  -6   3   25.65    1.57
  -3  -6   3   26.43    1.70
   3  -6  -3   26.09    1.57
   3  -6   4    1.27    0.35
   3  -6   4    1.21    0.27
  -3   6   4    1.21    0.30
   3   6  -4    2.26    0.44
  -3   6   4    1.13    0.44
  -3   6   4    0.80    0.41
   3  -6   4    1.40    0.27
  -3  -6  -4    1.41    0.34
  -3  -6   4    1.56    0.46
   3  -6  -4    1.31    0.34
   3  -6  -4    1.17    0.26
   3   6   4    1.25    0.24
  -3  -6  -5   16.36    1.24
  -3   6   5   15.38    1.04
  -3   6   5   16.39    1.39
   3  -6   5   13.97    1.19
   3  -6   5   13.64    1.26
   3   6  -5   15.53    1.11
  -3   6   5   13.53    1.23
   3  -6   5   15.98    1.08
   3  -6  -5   13.91    1.10
  -3  -6   5   12.67    1.40
   3  -6  -5   16.32    1.16
   3  -6  -5   16.73    1.13
   3   6   5   17.64    1.29
  -3  -6   5   13.58    1.40
   3   6   5   15.37    1.08
   3  -6   6    4.60    0.99
   3  -6   6    5.52    0.70
   3   6  -6    7.35    0.79
  -3   6   6    5.60    0.62
   3   6   6    4.92    0.71
   3  -6  -6    7.07    0.76
  -3  -6   6    6.06    1.01
  -4   6   0   24.38    1.57
   4  -6   0   23.04    1.63
   4  -6   0   24.90    1.63
  -4   6   0   27.93    1.61
   4   6   0   25.13    1.56
  -4  -6   0   22.37    1.64
   4   6   0   27.81    1.63
   4  -6   0   24.94    1.59
  -4   6   0   24.94    1.61
   4  -6   1   36.86    2.24
  -4   6   1   36.31    2.22
   4   6  -1   36.25    2.20
   4   6  -1   39.23    2.25
   4  -6   1   37.56    2.43
  -4   6   1   41.31    2.35
   4   6  -1   37.81    2.23
  -4   6   1   37.66    2.27
  -4  -6  -1   31.98    2.25
   4  -6   1   34.72    2.24
   4  -6  -1   33.35    2.23
  -4   6  -1   40.22    2.24
   4  -6  -1   34.23    2.23
  -4   6  -1   35.68    2.25
   4  -6  -1   36.06    2.31
  -4  -6   1   38.50    2.41
   4   6   1   36.02    2.23
  -4   6  -1   34.92    2.24
   4   6   1   35.02    2.34
  -4   6   2   44.67    2.66
   4   6  -2   40.25    2.50
   4   6  -2   41.28    2.46
   4   6  -2   39.50    2.44
  -4   6   2   42.70    2.49
   4  -6   2   40.92    2.50
   4  -6   2   40.11    2.48
  -4  -6  -2   37.41    2.52
  -4   6   2   41.49    2.55
   4  -6   2   42.54    2.61
   4  -6  -2   41.55    2.50
   4  -6  -2   38.33    2.49
  -4  -6   2   44.39    2.63
   4  -6  -2   40.71    2.59
   4   6   2   38.48    2.58
   4   6   2   41.18    2.50
  -4  -6   2   41.35    2.53
  -4   6  -2   38.91    2.54
  -4   6  -2   41.26    2.50
  -4   6   3   31.80    2.00
  -4  -6  -3   31.29    1.98
   4  -6   3   31.51    1.92
   4   6  -3   31.52    1.90
  -4   6   3   30.54    1.89
   4  -6   3   32.05    2.03
   4  -6   3   30.80    1.90
  -4   6   3   27.29    2.33
   4  -6  -3   30.30    1.92
   4  -6  -3   30.24    1.93
  -4  -6   3   31.62    2.02
   4  -6  -3   28.81    2.01
   4   6   3   29.10    2.00
  -4  -6   3   31.22    1.92
   4   6   3   31.67    1.93
   4  -6   4   15.92    1.29
   4  -6   4   17.00    1.12
  -4  -6  -4   17.13    1.22
  -4   6   4   15.20    1.08
   4  -6   4   16.66    1.11
   4  -6   4   16.41    1.14
  -4   6   4   19.15    1.40
  -4   6   4   18.16    1.29
   4   6  -4   16.35    1.12
   4  -6  -4   14.68    1.23
   4   6   4   14.99    1.23
   4   6   4   15.73    1.14
  -4  -6   4   15.62    1.16
   4  -6  -4   14.40    1.15
  -4  -6   4   15.22    1.28
  -4   6   5   15.50    1.05
  -4  -6  -5   15.80    1.23
   4  -6   5   14.00    1.06
   4  -6   5   15.89    1.11
   4  -6   5   16.95    1.07
   4   6  -5   15.31    1.13
  -4   6   5   15.85    1.51
   4  -6   5   14.62    1.28
  -4  -6   5   13.57    1.28
   4  -6  -5   16.02    1.20
   4   6   5   15.39    1.14
   4  -6  -5   16.39    1.16
  -4  -6   5   13.23    1.41
  -5  -6   0    2.43    0.45
  -5   6   0    2.39    0.38
   5  -6   0    1.97    0.42
  -5   6   0    2.81    0.38
   5   6   0    2.61    0.46
   5  -6   0    2.34    0.38
   5   6   0    3.05    0.40
   5   6   0    2.56    0.42
   5  -6   1   57.50    3.77
  -5   6   1   63.25    3.77
   5   6  -1   65.09    3.73
   5   6  -1   63.66    3.72
  -5   6   1   66.04    3.79
   5   6  -1   68.30    3.76
  -5  -6  -1   56.11    3.73
   5  -6   1   62.20    3.76
  -5   6   1   68.28    3.76
   5  -6   1   62.48    3.81
   5   6   1   62.71    3.76
  -5   6  -1   55.93    3.82
  -5   6  -1   68.55    3.72
   5  -6  -1   63.94    3.80
   5  -6  -1   57.36    3.70
   5   6   1   63.57    3.78
   5  -6  -1   59.29    3.76
  -5  -6   1   62.48    3.79
  -5   6  -1   61.60    3.77
   5   6  -2    0.20    0.19
   5   6  -2    0.66    0.19
   5  -6   2    0.13    0.30
  -5   6   2    0.36    0.42
  -5  -6  -2    0.46    0.23
   5  -6   2    0.67    0.26
  -5   6   2    0.31    0.21
   5  -6   2    0.25    0.25
  -5   6   2    0.80    0.37
   5  -6  -2    0.41    0.18
   5   6   2    0.10    0.31
  -5  -6   2    0.26    0.41
   5  -6  -2    0.08    0.26
   5   6   2    0.35    0.22
   5   6   2    0.27    0.21
  -5  -6   2    0.52    0.28
   5  -6  -2    0.21    0.37
  -5   6   3   48.35    3.29
   5  -6   3   52.20    3.25
  -5  -6  -3   52.38    3.19
   5  -6   3   53.64    3.18
  -5   6   3   56.48    3.26
  -5   6   3   50.52    3.14
   5  -6   3   52.37    3.15
   5   6  -3   54.34    3.14
   5  -6  -3   52.42    3.15
   5  -6  -3   48.19    3.18
  -5  -6   3   54.36    3.26
   5  -6  -3   50.65    3.24
   5   6   3   50.92    3.24
  -5  -6   3   53.41    3.16
   5   6   3   51.02    3.19
  -5  -6  -4    1.44    0.35
   5   6  -4    1.41    0.31
   5  -6   4    1.25    0.31
  -5   6   4    2.04    0.41
   5  -6   4    1.18    0.28
  -5   6   4    1.19    0.58
   5  -6   4    1.43    0.38
   5  -6  -4    1.31    0.44
   5   6   4    1.38    0.38
   5  -6  -4   -0.14    0.65
   5   6   4    0.84    0.30
  -5  -6   4    0.74    0.41
  -5  -6   4    1.00    0.45
  -5  -6   4    1.61    0.44
  -5   6   5   25.76    1.73
   5  -6   5   26.39    1.93
   5   6  -5   28.28    1.80
   5  -6   5   25.45    1.77
   5  -6   5   28.51    1.79
   5  -6   5   29.55    1.76
  -5   6   5   28.63    2.10
  -5  -6   5   26.56    1.98
  -5  -6   5   26.81    1.95
   5   6   5   25.10    1.84
   5  -6  -5   26.34    1.89
  -6   6   0    2.34    0.37
  -6   6   0    1.70    0.40
   6   6   0    2.71    0.49
   6   6   0    1.94    0.29
   6  -6   0    2.38    0.30
  -6  -6   0    2.17    0.37
   6   6   0    2.43    0.44
   6  -6   0    1.96    0.42
   6  -6   0    3.00    0.61
  -6   6   1   31.04    2.02
   6   6  -1   30.53    1.92
   6  -6   1   32.19    1.98
   6  -6   1   33.53    2.05
   6   6  -1   33.62    2.03
   6  -6   1   33.26    2.06
  -6   6   1   35.41    1.97
  -6  -6  -1   28.64    1.95
  -6   6   1   32.98    2.08
   6  -6  -1   35.09    1.93
  -6   6  -1   31.37    2.08
   6   6   1   32.36    2.04
   6  -6  -1   36.16    2.10
   6  -6  -1   31.50    2.05
  -6  -6   1   27.54    1.96
   6   6   1   30.59    1.96
  -6   6  -1   28.31    2.04
   6   6   1   30.95    2.02
   6  -6   2    0.75    0.32
  -6   6   2    0.11    0.33
  -6  -6  -2    0.71    0.24
  -6   6   2    0.74    0.26
   6   6  -2    0.55    0.26
   6  -6   2    1.02    0.31
   6  -6   2    0.19    0.34
  -6   6   2    0.04    0.40
   6   6  -2    1.16    0.32
   6  -6  -2    0.95    0.41
  -6  -6   2    0.44    0.40
   6  -6  -2    0.77    0.19
   6   6   2    0.09    0.31
   6   6   2    0.53    0.26
   6   6   2    0.56    0.27
   6  -6  -2    0.42    0.35
  -6  -6   2    0.38    0.38
  -6   6  -2    0.69    0.33
  -6   6   3   27.16    1.77
   6   6  -3   27.05    1.74
  -6   6   3   22.35    2.32
   6  -6   3   28.77    1.81
  -6  -6  -3   25.95    1.78
   6   6  -3   25.29    1.86
   6  -6   3   30.18    1.82
   6  -6   3   29.17    1.87
   6  -6   3   30.97    1.76
  -6  -6   3   25.49    1.87
   6  -6  -3   31.31    1.74
  -6  -6   3   26.92    1.79
   6   6   3   25.94    1.88
   6   6   3   26.06    1.82
   6  -6  -3   28.41    1.89
  -6  -6   3   27.90    1.96
   6   6  -4    1.66    0.34
   6  -6   4    1.90    0.33
  -6   6   4    1.62    0.67
   6  -6   4    1.58    0.42
   6  -6   4    1.47    0.39
  -6  -6   4    0.87    0.53
  -6  -6   4    1.25    0.42
   6   6   4    0.91    0.37
   6  -6  -4    1.44    0.46
   6   6   4    1.61    0.45
  -7   6   0    7.18    0.80
   7   6   0    9.38    0.76
   7   6   0    9.61    0.81
   7  -6   0    7.22    0.89
   7   6  -1    0.41    0.23
   7  -6   1   -0.40    0.34
  -7   6   1    0.07    0.28
   7   6  -1    0.30    0.32
   7  -6  -1   -0.34    0.37
   7   6   1    0.17    0.26
  -7   6  -1    0.21    0.30
   7   6  -2   24.64    1.52
  -7   6   2   20.01    1.45
   7   6  -2   21.88    1.36
   7  -6   2   21.54    1.38
   7  -6   2   21.69    1.49
   7  -6   2   17.49    1.38
   7   6   2   21.47    1.42
   7   6   2   22.26    1.48
  -7   6  -2   18.53    1.49
  -7  -6   2   19.68    1.35
   7  -6  -2   22.24    1.54
  -7  -6   2   20.83    1.53
   7  -6   3   -0.06    0.37
   7   6  -3    0.95    0.42
   7   6  -3    0.34    0.26
   7  -6   3   -0.22    0.34
  -7   6   3    0.43    0.29
   7  -6  -3   -0.19    0.41
   7   6   3   -0.46    0.33
  -7  -6   3    0.16    0.90
   8  -6   0   12.55    1.17
   8   6   0   13.72    1.04
  -8   6   0   11.61    1.08
   8  -6   1    9.68    1.10
   8   6  -1   13.02    0.98
  -8   6   1   11.73    1.23
  -8   6  -1   10.92    1.05
   8  -6  -1   11.73    1.13
   8   6   1   12.27    1.03
   0  -7   0   10.45    0.70
   0  -7  -1  366.02   25.09
   0   7   1  458.45   25.03
   0  -7  -1  448.40   25.02
   0  -7   1  469.49   25.03
   0  -7   1  486.75   25.00
   0   7   1  412.07   25.14
   0  -7   1  418.31   25.16
   0   7  -1  379.67   25.10
   0  -7  -2    9.98    0.96
   0  -7   2   11.99    1.02
   0  -7   3  349.21   19.84
   0  -7  -3  361.03   19.96
   0   7   3  334.35   19.84
   0   7   3  354.93   19.96
   0  -7  -3  356.66   19.85
   0  -7   3  334.34   19.98
   0   7  -3  297.01   19.95
   0   7   4    5.80    0.73
   0  -7   4    5.54    0.75
   0  -7  -4    5.29    0.64
   0  -7  -4    4.12    0.46
   0   7   4    3.79    0.46
   0  -7  -5  217.85   11.72
   0   7   5  200.18   11.86
   0  -7   5  196.37   11.72
   0   7   5  204.21   11.70
   0  -7  -5  211.41   11.85
   0   7   5  189.60   11.70
   0  -7   5  172.54   11.84
   0  -7  -5  208.61   11.67
   0  -7   6    2.12    0.54
   0   7   6    1.84    0.33
   0   7   6    1.63    0.39
  -1   7   0    0.82    0.15
  -1  -7   0    0.71    0.47
  -1  -7   0    0.48    0.11
  -1   7   0    1.14    0.38
   1  -7   0    0.59    0.13
   1   7   0    0.57    0.12
   1  -7   0    0.76    0.50
   1  -7   0    0.91    0.20
   1   7   0    0.78    0.35
  -1   7   1   14.52    1.31
   1  -7   1   16.57    0.97
   1   7  -1   13.09    1.19
  -1  -7  -1   16.33    0.98
  -1  -7  -1   15.57    1.29
   1  -7   1   16.06    1.01
  -1   7   1   16.38    1.00
  -1   7   1   15.88    0.99
   1  -7   1   15.67    1.39
   1  -7  -1   17.41    1.00
   1  -7  -1   14.92    1.28
  -1  -7   1   15.98    1.38
   1   7   1   16.54    1.00
  -1   7  -1   16.03    1.19
   1  -7  -1   14.48    1.12
   1   7   1   15.65    1.29
  -1  -7   1   17.00    0.98
  -1   7  -1   15.69    0.98
  -1  -7  -2   -0.02    0.14
  -1  -7  -2   -0.04    0.31
   1  -7   2    0.52    0.34
  -1   7   2    0.09    0.43
   1  -7   2   -0.03    0.23
  -1   7   2    0.15    0.14
   1  -7  -2    0.01    0.15
  -1  -7   2    0.02    0.31
  -1  -7   2   -0.17    0.15
   1   7   2    0.26    0.15
   1  -7  -2   -0.30    0.29
   1  -7  -2    0.71    0.29
  -1  -7  -3   15.15    0.97
   1  -7   3   13.69    0.98
  -1   7   3   15.15    1.22
   1   7  -3   14.76    0.99
  -1   7   3   14.88    0.98
  -1  -7  -3   15.01    1.14
  -1   7   3   15.27    1.04
   1  -7   3   15.38    1.22
   1   7  -3   12.90    1.15
  -1   7  -3   13.44    1.15
   1  -7  -3   14.99    1.01
   1  -7  -3   15.08    1.13
   1   7   3   15.88    1.20
  -1  -7   3   14.81    0.99
   1  -7  -3   15.52    0.97
  -1  -7   3   14.82    1.20
   1   7   3   15.07    0.98
   1  -7   4    0.57    0.41
  -1  -7  -4    0.43    0.28
  -1   7   4   -0.05    0.32
  -1   7   4    0.12    0.18
   1   7  -4   -0.03    0.21
  -1   7   4    0.23    0.27
   1  -7   4    0.35    0.21
  -1  -7  -4    0.02    0.17
   1  -7  -4    0.28    0.27
  -1  -7   4   -0.13    0.23
   1   7   4    0.12    0.19
  -1  -7   4   -0.14    0.29
   1   7   4    0.69    0.33
   1  -7  -4    0.11    0.17
  -1   7   5    3.36    0.64
   1  -7   5    5.82    0.65
   1  -7   5    4.06    0.78
   1   7  -5    5.16    0.58
  -1   7   5    5.43    0.81
  -1  -7  -5    5.11    0.58
  -1  -7  -5    4.89    0.73
  -1   7   5    4.42    0.54
   1  -7  -5    4.20    0.56
  -1  -7   5    4.21    0.78
   1  -7  -5    5.66    0.72
   1   7   5    4.96    0.57
   1   7   5    6.19    0.87
  -1  -7   5    5.74    0.66
  -1  -7  -6    0.42    0.39
  -1   7   6   -0.01    0.25
   1  -7   6   -0.50    0.39
  -1  -7   6   -0.01    0.42
   1  -7  -6    0.22    0.23
   1  -7  -6    0.58    0.39
  -2  -7   0    0.37    0.46
   2  -7   0    0.17    0.15
   2  -7   0    0.73    0.45
  -2   7   0    0.82    0.34
   2   7   0    0.35    0.12
   2   7   0    0.94    0.34
  -2  -7   0    0.19    0.11
   2  -7   0    0.63    0.23
  -2   7   0    0.30    0.16
  -2   7   0    0.12    0.15
  -2   7   1  172.29   10.09
   2  -7   1  160.09   10.29
   2   7  -1  192.02   10.25
  -2  -7  -1  173.87   10.09
  -2  -7  -1  177.99   10.22
  -2   7   1  170.20   10.10
   2  -7   1  176.36   10.08
   2  -7   1  163.58   10.10
  -2   7   1  159.98   10.25
   2   7  -1  163.77   10.07
  -2  -7   1  188.66   10.31
   2  -7  -1  159.67   10.14
   2   7   1  183.30   10.30
  -2   7  -1  166.47   10.09
   2  -7  -1  169.45   10.20
   2  -7  -1  176.05   10.10
  -2   7  -1  177.49   10.20
   2   7   1  180.13   10.10
  -2  -7   1  176.76   10.07
  -2   7   2   23.63    1.58
   2  -7   2   24.06    1.55
  -2  -7  -2   27.20    1.73
   2   7  -2   25.77    1.54
   2  -7   2   23.89    1.78
  -2   7   2   24.68    1.55
  -2  -7  -2   25.29    1.54
   2  -7   2   26.10    1.53
  -2   7   2   24.54    1.91
   2  -7  -2   25.72    1.68
   2  -7  -2   22.66    1.68
  -2  -7   2   25.77    1.76
  -2   7  -2   25.23    1.57
   2  -7  -2   26.41    1.56
   2   7   2   25.46    1.82
  -2  -7   2   24.50    1.53
   2   7   2   26.30    1.55
  -2   7   3  124.66    7.55
  -2  -7  -3  133.76    7.67
   2   7  -3  134.21    7.56
   2  -7   3  123.11    7.56
   2   7  -3  126.61    7.68
   2  -7   3  123.79    7.71
  -2   7   3  128.28    7.59
   2  -7   3  124.66    7.56
  -2  -7  -3  130.44    7.56
  -2   7   3  137.17    7.70
   2  -7  -3  130.86    7.56
  -2   7  -3  110.69    7.64
  -2  -7   3  133.58    7.55
   2  -7  -3  127.10    7.59
   2  -7  -3  130.26    7.64
  -2  -7   3  131.10    7.69
   2   7   3  138.90    7.69
   2   7   3  132.51    7.57
  -2   7   4    1.33    0.35
   2  -7   4    0.85    0.24
   2   7  -4    1.09    0.26
  -2  -7  -4    0.81    0.21
  -2  -7  -4    0.99    0.31
   2  -7   4    0.62    0.35
   2  -7  -4    0.87    0.29
   2   7   4    0.87    0.22
  -2  -7   4    0.93    0.72
  -2  -7   4    1.06    0.26
   2   7   4    1.21    0.36
  -2  -7  -5   80.36    4.65
  -2   7   5   72.42    4.54
   2   7  -5   77.95    4.51
  -2  -7  -5   77.66    4.52
  -2   7   5   74.16    4.68
  -2   7   5   75.11    4.48
   2  -7   5   66.14    4.65
   2  -7  -5   79.13    4.61
   2  -7  -5   77.96    4.49
   2  -7  -5   72.02    4.54
  -2  -7   5   69.53    4.64
   2   7   5   81.40    4.51
   2  -7   6    7.19    1.10
  -2  -7  -6    8.00    1.01
  -2   7   6    9.05    0.76
   2   7  -6    9.13    0.86
   2   7   6    8.11    0.80
  -2  -7   6    6.46    1.08
   2  -7  -6    9.84    0.77
   2  -7  -6    9.22    0.97
  -3  -7   0   74.30    4.71
  -3   7   0   84.68    4.68
   3  -7   0   76.76    4.74
  -3   7   0   73.81    4.59
   3   7   0   79.42    4.57
  -3   7   0   75.79    4.58
   3   7   0   82.06    4.70
   3  -7   0   74.10    4.61
   3   7  -1    0.51    0.15
  -3  -7  -1    0.41    0.32
   3  -7   1    0.49    0.21
  -3   7   1    0.41    0.43
   3   7  -1    0.59    0.16
   3   7  -1    0.84    0.27
  -3   7   1    0.36    0.19
  -3   7   1    0.80    0.24
   3  -7   1    0.53    0.22
   3  -7   1    0.80    0.51
   3  -7  -1    0.78    0.37
   3  -7  -1    0.59    0.22
  -3  -7   1    0.18    0.49
   3   7   1    0.84    0.40
  -3   7  -1    0.36    0.24
   3   7   1    0.57    0.18
   3  -7  -1    0.54    0.38
  -3   7  -1    0.60    0.21
  -3   7   2   73.19    4.41
  -3  -7  -2   59.24    4.14
  -3   7   2   68.76    4.11
   3  -7   2   67.04    4.08
  -3   7   2   71.23    4.08
   3  -7   2   73.16    4.07
   3   7  -2   68.59    4.06
   3  -7   2   69.04    4.25
  -3   7  -2   60.64    4.17
  -3  -7   2   72.33    4.24
  -3   7  -2   69.58    4.11
   3   7   2   73.53    4.09
   3  -7  -2   65.63    4.17
  -3  -7   2   70.69    4.06
   3   7   2   69.64    4.22
   3  -7  -2   68.72    4.08
   3  -7  -2   68.05    4.13
   3   7  -3    0.32    0.24
   3   7  -3    0.04    0.19
   3  -7   3    0.18    0.32
  -3   7   3   -0.39    0.32
  -3   7   3    0.24    0.41
   3  -7   3    0.10    0.20
   3  -7   3    0.01    0.19
  -3   7   3    0.04    0.22
  -3  -7  -3    0.09    0.25
   3  -7   3    0.21    0.19
   3  -7  -3    0.03    0.20
   3   7   3    0.08    0.17
  -3  -7   3    0.00    0.31
  -3   7  -3   -0.07    0.29
   3   7   3    0.07    0.32
   3  -7  -3    0.37    0.36
   3  -7  -3    0.07    0.20
   3   7  -4   39.61    2.46
  -3   7   4   43.19    2.67
   3  -7   4   38.22    2.62
  -3  -7  -4   39.57    2.56
  -3   7   4   40.01    2.44
   3  -7   4   37.38    2.45
  -3   7   4   40.25    2.53
   3  -7   4   40.26    2.46
   3  -7  -4   42.77    2.54
  -3  -7   4   36.88    2.59
   3  -7  -4   38.94    2.46
  -3  -7   4   40.93    2.47
   3   7   4   40.78    2.47
   3   7   4   44.21    2.62
   3  -7  -4   39.12    2.51
   3  -7   5    0.35    0.39
  -3   7   5    1.24    0.70
  -3   7   5    1.04    0.26
  -3  -7  -5    1.11    0.39
   3  -7   5    1.25    0.30
   3   7  -5    1.46    0.34
   3   7   5    0.89    0.28
   3  -7  -5    0.20    0.44
   3  -7  -5    1.39    0.34
   3  -7  -5    1.53    0.35
  -3  -7   5    0.92    0.42
   4   7   0   64.10    3.72
   4   7   0   61.97    3.72
  -4   7   0   60.34    3.72
   4  -7   0   61.59    3.80
   4  -7   0   59.42    3.72
  -4   7   0   62.07    3.74
  -4  -7   0   55.79    3.79
  -4   7   0   70.09    3.78
   4  -7   0   60.04    3.76
   4   7   0   68.54    3.79
   4  -7   1  110.98    6.91
  -4   7   1  119.25    6.93
   4  -7   1  118.24    7.08
   4   7  -1  120.32    6.90
  -4   7   1  128.80    7.01
  -4   7   1  114.82    6.91
   4   7  -1  116.60    6.88
   4  -7   1  118.00    6.91
  -4  -7  -1  104.28    6.94
   4   7  -1  128.54    6.96
   4   7   1  118.76    6.91
   4  -7  -1  112.28    6.91
  -4  -7   1  132.00    7.07
   4  -7  -1  106.84    6.92
  -4   7  -1  123.97    6.94
   4   7   1  116.02    7.01
  -4   7  -1  114.51    6.92
   4  -7  -1  117.86    6.97
  -4   7  -1  110.22    6.91
   4  -7   2   35.97    2.20
  -4   7   2   35.26    2.58
   4  -7   2   35.54    2.37
  -4   7   2   38.37    2.21
   4   7  -2   40.42    2.16
  -4   7   2   36.95    2.26
  -4  -7  -2   31.23    2.23
   4  -7   2   32.81    2.21
  -4  -7   2   40.18    2.17
   4   7   2   34.05    2.32
  -4   7  -2   33.20    2.23
  -4  -7   2   39.19    2.39
   4  -7  -2   34.30    2.20
   4  -7  -2   34.16    2.20
  -4   7  -2   33.41    2.23
  -4   7   3   85.15    5.17
   4  -7   3   83.90    5.03
  -4  -7  -3   82.58    5.08
   4  -7   3   85.69    5.02
  -4   7   3   83.92    5.01
   4  -7   3   86.78    5.01
  -4   7   3   91.08    5.09
   4   7  -3   81.56    5.08
   4  -7   3   83.38    5.15
  -4   7  -3   81.96    5.09
  -4  -7   3   86.64    5.01
   4  -7  -3   84.46    5.03
   4  -7  -3   80.04    5.09
   4  -7  -3   85.44    5.05
   4   7   3   85.42    5.13
  -4  -7   3   83.65    5.13
   4   7   3   86.65    5.04
  -4  -7  -4   34.53    2.19
   4  -7   4   31.43    2.11
  -4   7   4   32.08    2.19
   4  -7   4   34.91    2.10
   4  -7   4   33.86    2.07
  -4   7   4   35.81    2.34
   4  -7   4   31.87    2.25
  -4   7   4   32.46    2.07
   4   7  -4   37.00    2.10
   4  -7  -4   30.38    2.10
   4   7   4   34.46    2.12
   4   7   4   35.70    2.24
   4  -7  -4   34.99    2.14
  -4  -7   4   32.19    2.25
   4  -7  -4   30.50    2.18
   4  -7   5   52.28    3.19
  -4   7   5   52.87    3.21
   4   7  -5   52.69    3.25
   4  -7   5   53.06    3.24
   4  -7   5   51.80    3.42
  -4  -7  -5   55.95    3.37
  -4  -7   5   49.47    3.40
   4  -7  -5   52.41    3.30
   4  -7  -5   57.30    3.31
   4   7   5   52.71    3.26
  -5  -7   0   12.01    1.03
  -5   7   0   14.01    1.02
   5   7   0   14.57    1.00
   5   7   0   14.51    1.03
   5  -7   0   14.53    1.03
   5  -7   0   14.21    1.05
  -5   7   0   15.34    1.01
   5  -7   0   16.07    1.12
   5   7   0   15.67    1.01
  -5   7   0   14.91    1.08
  -5   7   1    0.39    0.21
   5   7  -1    0.61    0.23
  -5  -7  -1    0.75    0.25
   5   7  -1    0.73    0.20
   5  -7   1    0.39    0.34
   5  -7   1    0.66    0.27
   5   7  -1    0.39    0.18
  -5   7   1    0.09    0.29
  -5   7   1    0.23    0.27
   5  -7   1    0.31    0.27
   5  -7  -1    0.07    0.25
  -5   7  -1    0.52    0.22
   5  -7  -1    0.59    0.20
   5   7   1    0.17    0.21
   5  -7  -1    0.47    0.36
  -5   7  -1    0.35    0.29
   5   7   1    0.38    0.21
   5   7   1    0.21    0.25
  -5   7  -1    0.61    0.26
  -5  -7   1    0.20    0.33
  -5  -7  -2    7.87    0.73
   5   7  -2    9.05    0.67
  -5   7   2    9.20    0.88
   5  -7   2    9.88    0.78
   5  -7   2   10.31    0.98
   5   7  -2   10.02    1.06
   5   7  -2    8.34    0.67
  -5   7   2    8.97    0.70
  -5   7   2    9.63    1.09
   5  -7   2    8.61    0.76
  -5  -7   2    8.76    0.77
   5   7   2    7.01    0.88
  -5  -7   2    8.06    1.05
   5  -7  -2    8.83    0.68
   5  -7  -2    8.89    0.95
  -5   7  -2    8.45    0.80
   5   7   2    8.37    0.73
   5  -7  -2    7.88    0.79
  -5   7   3    0.39    0.24
  -5   7   3    0.51    0.57
   5   7  -3    0.43    0.24
  -5   7   3    0.01    0.39
  -5  -7  -3    0.20    0.27
   5  -7   3    0.39    0.34
   5  -7   3    0.25    0.26
   5  -7   3    0.64    0.25
   5  -7  -3   -0.21    0.29
  -5  -7   3    0.31    0.31
   5   7   3    0.34    0.37
  -5  -7   3    0.19    0.42
   5  -7  -3    0.25    0.21
   5   7   3    0.43    0.26
   5  -7  -3    0.03    0.40
   5   7  -4    8.53    0.76
  -5   7   4    9.67    1.25
  -5  -7  -4    8.57    0.85
   5  -7   4    8.92    0.80
   5  -7   4    8.05    0.94
  -5   7   4    8.77    0.72
   5  -7   4   10.48    0.76
   5  -7  -4    8.71    0.97
   5  -7  -4    9.16    0.76
  -5  -7   4    7.03    1.01
   5   7   4    8.02    0.95
   5   7   4    8.12    0.81
   5  -7   5    0.19    0.26
   5  -7   5    0.45    0.33
   5   7  -5    0.78    0.37
  -5   7   5    0.75    0.28
   5  -7   5   -0.03    0.43
  -5  -7  -5    0.68    0.40
   5  -7  -5    1.15    0.50
  -5  -7   5   -0.01    0.49
   5   7   5    0.39    0.39
  -6   7   0   43.72    2.87
   6  -7   0   43.47    2.88
   6   7   0   48.37    2.80
  -6   7   0   50.78    2.80
   6  -7   0   48.89    2.91
   6  -7   0   43.16    2.79
   6   7   0   48.72    2.85
  -6  -7   0   42.91    2.81
   6   7   0   47.46    2.86
  -6   7   0   48.56    2.91
   6   7  -1    0.19    0.14
  -6   7   1   -0.05    0.34
  -6   7   1   -0.05    0.23
  -6   7   1    0.42    0.26
   6  -7   1    0.39    0.30
   6  -7   1    0.14    0.32
   6  -7   1    0.38    0.25
   6   7  -1    0.13    0.21
  -6  -7  -1    0.54    0.22
   6   7  -1    0.48    0.26
   6  -7  -1    0.37    0.37
   6  -7  -1    0.27    0.17
  -6   7  -1    0.41    0.32
  -6  -7   1    0.15    0.28
   6  -7  -1    0.03    0.30
  -6   7  -1    0.27    0.29
   6   7   1    0.01    0.22
   6   7   1    0.53    0.26
   6   7   1   -0.09    0.19
   6  -7   2   18.00    1.46
  -6   7   2   20.28    1.44
   6   7  -2   22.45    1.38
   6   7  -2   19.96    1.28
  -6   7   2   18.65    1.31
   6  -7   2   19.44    1.36
   6   7  -2   20.48    1.31
   6  -7   2   20.01    1.37
  -6  -7  -2   17.93    1.29
   6  -7  -2   20.25    1.25
   6  -7  -2   19.26    1.46
  -6  -7   2   17.88    1.36
   6   7   2   19.20    1.35
  -6  -7   2   20.13    1.48
  -6   7  -2   16.82    1.38
   6   7   2   17.63    1.38
   6  -7   3    0.21    0.32
  -6  -7  -3    0.28    0.34
  -6   7   3    0.74    0.26
   6  -7   3   -0.15    0.35
   6  -7   3    0.73    0.28
  -6   7   3   -0.97    0.62
   6   7  -3    0.16    0.23
  -6  -7   3   -0.49    0.44
  -6  -7   3   -0.32    0.52
   6  -7  -3    0.22    0.20
   6   7   3    0.06    0.27
   6  -7  -3    0.35    0.41
   6  -7   4   29.57    1.88
  -6  -7  -4   28.96    1.89
  -6   7   4   26.24    1.80
   6  -7   4   27.91    1.97
   6  -7   4   28.78    1.83
   6   7  -4   27.80    1.81
   6   7   4   26.90    1.90
   6   7   4   26.12    1.98
   6  -7  -4   28.25    1.99
  -6  -7   4   27.33    2.09
  -6  -7   4   29.40    2.00
   7  -7   0   11.52    1.06
   7   7   0   11.35    0.93
   7   7   0   11.86    0.76
  -7  -7   0   11.41    0.79
  -7   7   0   12.24    0.98
   7   7  -1   13.55    1.05
   7  -7   1   12.96    1.13
   7  -7   1   13.88    0.85
  -7   7   1   12.89    1.02
   7   7  -1   12.70    0.97
  -7  -7  -1   11.92    0.88
   7  -7  -1   12.91    1.14
   7   7   1   12.38    1.00
   7   7   1   12.57    0.85
  -7  -7   1   12.09    0.86
  -7   7  -1   11.75    1.04
  -7  -7  -2    8.92    0.78
   7   7  -2   10.31    0.75
   7   7  -2   10.44    0.82
   7  -7   2    9.76    0.97
  -7   7   2   10.47    0.88
   7  -7   2    9.24    0.84
  -7  -7   2    9.75    0.86
   7   7   2    9.57    0.91
   7  -7  -2   10.13    0.80
  -7  -7   2    7.45    1.01
   7  -7  -2   10.48    1.02
  -7   7  -2    9.12    0.95
   7   7  -3    8.04    0.77
   7   7  -3    8.04    0.73
  -7   7   3    8.21    0.81
   7  -7   3    8.56    0.98
   0  -8   0   53.52    3.75
   0   8   0   60.02    3.43
   0  -8   0   62.26    3.45
   0   8   0   57.91    3.66
   0  -8   0   56.79    3.42
   0  -8   1    0.07    0.13
   0   8   1    0.22    0.13
   0   8  -1    0.39    0.38
   0  -8  -1    0.07    0.45
   0  -8   1    0.08    0.49
   0   8   1    0.59    0.54
   0  -8   1    0.16    0.08
   0  -8   1    0.23    0.15
   0  -8  -1    0.04    0.10
   0   8  -1    0.02    0.12
   0   8   2   10.60    1.09
   0   8  -2    9.08    0.96
   0  -8  -2   10.04    1.02
   0  -8  -2   10.38    0.69
   0  -8   2   10.09    1.11
   0   8   2   10.13    0.70
   0   8   3    0.22    0.17
   0   8  -3   -0.14    0.31
   0  -8   3    0.73    0.42
   0   8   3    0.14    0.40
   0  -8   3    0.24    0.21
   0  -8  -3    0.11    0.15
   0  -8  -3    0.00    0.32
   0  -8  -4   29.63    1.91
   0   8   4   28.24    1.74
   0  -8   4   26.49    1.74
   0  -8   4   23.50    1.93
   0   8   4   29.84    1.96
   0  -8  -4   29.84    1.75
   0   8   5   -0.18    0.21
   0  -8  -5   -0.10    0.23
   0  -8   5    0.14    0.36
   0  -8  -5   -0.09    0.30
   0  -8  -6    5.46    0.91
   0   8   6    3.58    0.62
   0  -8   6    4.81    1.00
   0  -8  -6    5.33    0.52
  -1  -8   0   40.62    2.61
   1   8   0   41.59    2.85
  -1   8   0   47.63    2.64
   1   8   0   38.82    2.62
   1  -8   0   48.83    2.63
   1  -8   0   50.52    2.67
  -1   8   0   42.31    2.85
  -1  -8   0   43.66    2.99
  -1  -8  -1    6.01    0.43
  -1  -8  -1    6.33    0.97
   1  -8   1    5.83    0.43
   1   8  -1    5.28    0.95
   1  -8   1    5.45    0.49
  -1   8   1    5.45    0.47
  -1   8   1    5.58    0.45
   1  -8   1    5.81    1.20
  -1   8   1    5.40    1.04
   1  -8  -1    5.92    0.74
  -1   8  -1    4.77    0.45
   1  -8  -1    5.51    1.00
  -1  -8   1    6.59    0.44
  -1   8  -1    5.04    0.94
   1   8   1    6.49    0.47
   1   8   1    4.68    0.95
   1  -8  -1    5.64    0.46
  -1  -8  -2   60.55    3.73
   1  -8   2   63.20    3.73
  -1   8   2   65.01    3.74
   1  -8   2   64.19    3.74
  -1   8   2   67.30    3.96
   1   8  -2   53.07    3.88
  -1  -8  -2   58.51    3.90
  -1   8   2   64.04    3.73
   1  -8   2   71.19    4.01
  -1   8  -2   60.30    3.89
   1  -8  -2   64.74    3.81
  -1  -8   2   59.33    3.72
  -1  -8   2   59.09    3.95
   1   8   2   62.76    3.93
   1   8   2   59.24    3.73
   1  -8  -2   71.32    3.93
   1  -8  -2   69.41    3.74
  -1   8   3    2.51    0.49
   1  -8   3    2.00    0.40
  -1   8   3    2.15    0.38
   1  -8   3    3.54    0.79
  -1   8   3    2.42    0.52
  -1  -8  -3    2.19    0.33
  -1  -8  -3    2.22    0.44
   1  -8  -3    2.04    0.42
  -1  -8   3    1.65    0.45
  -1  -8   3    2.80    0.42
  -1   8  -3    1.53    0.39
   1  -8  -3    2.21    0.32
   1  -8  -3    1.96    0.35
   1   8   3    3.01    0.40
   1   8   3    2.07    0.45
   1  -8   4   24.70    1.75
  -1   8   4   25.96    1.75
  -1   8   4   24.59    1.50
  -1  -8  -4   21.81    1.50
  -1  -8  -4   21.39    1.65
   1  -8   4   23.38    1.52
  -1   8   4   23.95    1.54
  -1  -8   4   20.97    1.51
   1  -8  -4   25.52    1.49
   1  -8  -4   26.47    1.52
   1   8   4   22.35    1.70
   1   8   4   21.35    1.50
   1  -8  -4   26.68    1.68
   1  -8   5    2.02    0.49
  -1  -8  -5    1.88    0.42
  -1   8   5    1.78    0.31
  -1   8   5    1.95    0.39
   1  -8  -5    2.79    0.41
   1   8   5    2.11    0.33
   1  -8  -5    1.85    0.41
   1  -8  -5    1.94    0.33
  -1  -8   5    3.36    0.79
  -1  -8  -6   15.26    1.39
   1  -8   6   14.09    1.46
  -1   8   6   18.54    1.17
   1   8   6   15.09    1.16
  -1  -8   6   12.73    1.44
   1  -8  -6   17.88    1.10
   2   8   0    3.47    0.74
  -2   8   0    2.04    0.34
  -2   8   0    2.32    0.36
   2  -8   0    2.63    0.61
   2  -8   0    2.80    0.53
   2   8   0    2.74    0.32
  -2   8   0    3.03    0.73
  -2  -8   0    2.14    0.59
  -2  -8   0    2.60    0.29
   2  -8   0    2.59    0.34
   2  -8   1   97.14    5.22
   2   8  -1   83.77    5.19
   2  -8   1   83.92    5.54
  -2   8   1   86.50    5.22
  -2   8   1   91.72    5.23
  -2   8   1   83.03    5.51
  -2  -8  -1   92.16    5.40
   2  -8   1   85.81    5.23
   2  -8  -1   87.73    5.39
   2  -8  -1   84.20    5.30
   2   8   1   91.04    5.22
  -2   8  -1   89.16    5.22
  -2  -8   1   94.53    5.52
  -2   8  -1   87.51    5.46
  -2  -8   1   88.85    5.20
   2  -8  -1   94.43    5.23
   2  -8   2    0.76    0.21
  -2   8   2    1.09    0.50
   2   8  -2    1.04    0.34
  -2   8   2    0.87    0.21
  -2  -8  -2    0.51    0.38
   2   8  -2    0.93    0.22
   2  -8   2    1.54    0.32
  -2  -8  -2    0.77    0.18
   2  -8   2    1.73    0.50
   2  -8  -2    1.27    0.42
  -2  -8   2    0.75    0.21
   2  -8  -2    0.88    0.20
  -2   8  -2    0.75    0.23
  -2   8  -2    0.79    0.33
  -2  -8   2    1.45    0.47
   2   8   2    0.90    0.19
   2  -8  -2    0.72    0.36
   2   8   2    0.81    0.42
  -2  -8  -3   75.04    4.27
  -2   8   3   74.38    4.30
  -2   8   3   67.71    4.30
   2  -8   3   66.48    4.28
   2   8  -3   73.78    4.26
   2   8  -3   66.78    4.40
  -2   8   3   78.44    4.46
  -2  -8  -3   75.56    4.46
   2  -8   3   70.92    4.26
   2  -8   3   68.03    4.46
   2  -8  -3   79.15    4.39
   2   8   3   74.10    4.42
  -2  -8   3   73.58    4.26
   2  -8  -3   77.28    4.27
  -2   8  -3   61.78    4.37
   2  -8  -3   72.36    4.31
  -2  -8   3   67.76    4.42
   2   8   3   71.95    4.28
  -2   8   4    0.86    0.35
  -2   8   4    1.42    0.25
   2  -8   4    2.21    0.30
  -2  -8  -4    1.58    0.26
   2  -8   4    1.59    0.28
  -2  -8  -4    1.37    0.38
   2   8  -4    1.41    0.29
  -2   8   4    1.58    0.52
   2  -8   4    1.28    0.43
   2  -8  -4    1.48    0.35
   2   8   4    1.49    0.26
   2  -8  -4    1.25    0.25
  -2  -8   4    1.40    0.30
   2  -8  -4    1.73    0.36
  -2  -8   4    1.45    0.42
   2   8   4    1.30    0.41
  -2   8   5   32.00    2.22
   2  -8   5   32.70    2.41
  -2  -8  -5   38.21    2.36
   2   8  -5   35.25    2.19
  -2   8   5   34.86    2.16
   2   8   5   36.17    2.18
  -2  -8   5   30.40    2.36
   2  -8  -5   36.02    2.16
   2  -8  -5   37.14    2.32
  -2  -8  -6    0.96    0.80
   2  -8   6   -0.41    0.60
  -2   8   6    0.31    0.29
   2  -8  -6    0.87    0.41
   2   8   6    0.14    0.32
  -2  -8   6   -0.47    0.49
  -3   8   0    1.28    0.25
  -3   8   0    1.15    0.24
   3   8   0    1.80    0.33
   3  -8   0    1.36    0.51
  -3  -8   0    1.28    0.50
   3  -8   0    1.16    0.32
   3   8   0    1.38    0.38
  -3   8   0    1.38    0.38
   3  -8   0    1.44    0.25
  -3   8   1  126.80    7.52
   3  -8   1  120.54    7.52
  -3   8   1  126.46    7.80
   3  -8   1  123.76    7.77
  -3  -8  -1  135.19    7.63
  -3   8   1  129.24    7.51
   3   8  -1  127.98    7.49
  -3  -8   1  142.99    7.76
   3  -8  -1  127.84    7.61
   3  -8  -1  124.25    7.51
   3   8   1  127.65    7.76
   3  -8  -1  126.00    7.58
   3   8   1  131.31    7.51
  -3   8  -1  124.07    7.51
   3  -8   2    1.39    0.51
  -3   8   2    0.95    0.55
  -3   8   2    1.30    0.26
   3   8  -2    1.27    0.32
   3  -8   2    1.01    0.25
  -3   8   2    1.35    0.31
   3  -8   2    1.49    0.25
  -3  -8  -2    1.06    0.37
   3   8  -2    1.28    0.23
  -3   8  -2    0.87    0.32
   3   8   2    1.51    0.48
  -3   8  -2    1.58    0.31
   3  -8  -2    2.05    0.48
  -3  -8   2    1.33    0.50
   3  -8  -2    1.41    0.27
   3   8   2    2.06    0.39
   3  -8  -2    1.14    0.33
   3  -8   3   90.82    5.18
  -3   8   3   91.03    5.21
  -3  -8  -3   87.97    5.21
   3   8  -3   91.16    5.20
  -3   8   3   89.36    5.25
   3  -8   3   80.21    5.77
   3  -8   3   85.55    5.21
  -3   8   3   95.18    5.41
   3  -8   3   89.88    5.21
   3   8  -3   82.45    5.31
  -3   8  -3   78.55    5.28
   3  -8  -3   92.93    5.22
  -3   8  -3   82.48    5.26
  -3  -8   3   88.99    5.19
   3  -8  -3   95.65    5.29
  -3  -8   3   81.09    5.35
   3   8   3   87.98    5.34
   3   8   3   92.67    5.22
  -3  -8  -4    0.46    0.31
  -3   8   4   -0.12    0.37
  -3   8   4    1.04    0.53
   3   8  -4    0.59    0.25
   3  -8   4    0.85    0.40
   3  -8   4    0.83    0.27
  -3   8   4    0.68    0.24
   3  -8   4    0.71    0.26
  -3  -8   4    0.52    0.39
   3  -8  -4    0.42    0.24
   3   8   4    0.83    0.39
   3   8   4    0.32    0.22
   3  -8  -4    0.34    0.27
  -3  -8   4    0.91    0.30
   3  -8  -4    1.15    0.35
   3   8  -5   54.25    3.36
  -3  -8  -5   58.79    3.51
  -3   8   5   56.20    3.33
   3  -8   5   53.33    3.35
   3  -8   5   51.16    3.56
   3  -8  -5   58.91    3.46
  -3  -8   5   48.72    3.53
   3   8   5   56.65    3.37
   3  -8  -5   57.81    3.38
   4   8   0    8.30    0.64
   4   8   0    7.64    0.83
   4  -8   0    7.94    0.90
  -4   8   0    7.63    0.64
  -4  -8   0    7.17    0.90
  -4   8   0    8.23    0.70
   4  -8   0    8.07    0.93
   4  -8   0    7.46    0.69
  -4   8   0    8.00    0.79
  -4  -8  -1  159.36    9.94
   4  -8   1  166.69    9.89
  -4   8   1  177.26   10.12
   4   8  -1  167.25    9.87
   4  -8   1  174.57   10.08
   4  -8   1  156.79    9.93
  -4   8   1  164.50    9.91
   4   8  -1  171.87    9.89
   4   8   1  174.28   10.01
  -4  -8   1  193.90   10.06
   4  -8  -1  165.67    9.89
  -4   8  -1  160.21    9.90
   4  -8  -1  160.31    9.93
   4   8   1  173.11    9.90
   4  -8   2    0.03    0.39
  -4   8   2   -0.06    0.54
  -4  -8  -2    0.18    0.26
   4  -8   2   -0.09    0.21
  -4   8   2    0.17    0.20
  -4   8   2    0.28    0.29
   4  -8   2    0.25    0.22
   4   8  -2    0.12    0.21
   4   8  -2    0.07    0.18
  -4   8  -2    0.07    0.25
   4  -8  -2   -0.09    0.20
   4   8   2   -0.24    0.38
   4  -8  -2   -0.17    0.40
  -4  -8   2    0.61    0.36
   4  -8  -2    0.19    0.22
  -4  -8   2   -0.06    0.43
   4   8   2    0.19    0.19
  -4   8  -2    0.20    0.26
   4  -8   3  115.32    7.19
  -4   8   3  131.14    7.25
   4  -8   3  125.76    7.18
   4   8  -3  117.86    7.25
  -4   8   3  122.74    7.19
  -4   8   3  135.94    7.41
  -4  -8  -3  115.19    7.26
   4   8  -3  119.79    7.18
   4  -8   3  126.08    7.20
   4  -8  -3  118.95    7.23
   4  -8  -3  118.55    7.20
  -4   8  -3  117.09    7.26
   4   8   3  126.90    7.22
   4  -8  -3  115.57    7.27
  -4  -8   3  116.72    7.42
  -4  -8   3  123.44    7.17
   4   8   3  128.50    7.34
   4   8  -4    4.32    0.69
  -4   8   4    4.96    1.11
  -4   8   4    3.35    0.67
  -4   8   4    4.08    0.51
   4  -8   4    4.10    0.59
   4  -8   4    3.25    0.59
   4  -8   4    4.76    0.53
  -4  -8  -4    5.38    0.67
  -4  -8   4    3.99    0.67
   4  -8  -4    4.17    0.78
  -4  -8   4    3.37    0.59
   4   8   4    4.23    0.80
   4   8   4    3.47    0.55
   4   8  -5   78.67    4.68
  -4   8   5   74.23    4.64
  -4  -8  -5   87.95    4.83
   4  -8   5   78.60    4.68
   4  -8   5   73.53    4.87
  -4  -8   5   71.31    4.83
   4  -8  -5   76.94    4.73
   4   8   5   76.17    4.69
   4  -8  -5   82.13    4.74
   5  -8   0   35.30    2.32
  -5   8   0   40.81    2.33
   5   8   0   39.25    2.32
  -5   8   0   37.70    2.33
   5   8   0   38.02    2.33
  -5  -8   0   34.53    2.34
   5  -8   0   36.94    2.31
   5   8   0   38.79    2.38
  -5   8   0   34.91    2.29
   5  -8   0   35.88    2.35
  -5   8   1   31.33    2.01
   5   8  -1   33.18    2.02
  -5   8   1   33.89    2.08
   5  -8   1   33.59    2.15
   5  -8   1   31.92    2.04
  -5   8   1   33.97    2.12
   5   8  -1   33.52    2.00
   5  -8   1   31.54    2.05
  -5  -8  -1   29.33    2.04
  -5   8  -1   30.64    2.04
   5   8   1   33.74    2.03
   5   8   1   34.73    2.10
   5   8   1   34.14    2.04
   5  -8  -1   30.85    2.01
  -5  -8   1   32.04    2.13
  -5   8  -1   31.01    2.06
   5  -8  -1   30.13    2.04
   5  -8  -1   32.39    2.12
   5   8  -2   42.37    2.41
   5  -8   2   39.54    2.40
   5   8  -2   38.54    2.35
  -5   8   2   38.20    2.39
   5  -8   2   37.14    2.41
   5  -8   2   38.95    2.61
  -5   8   2   42.13    2.46
  -5   8   2   42.69    2.62
  -5  -8  -2   35.74    2.42
   5   8  -2   38.83    2.35
   5   8  -2   38.82    2.40
   5   8   2   38.33    2.42
  -5   8  -2   39.31    2.41
  -5   8  -2   36.08    2.44
   5  -8  -2   39.38    2.52
   5  -8  -2   35.88    2.41
   5  -8  -2   37.41    2.39
  -5  -8   2   39.25    2.62
  -5  -8   2   40.11    2.38
   5   8   2   37.19    2.54
  -5   8   3   29.22    2.21
   5  -8   3   28.63    1.84
   5  -8   3   27.76    2.04
   5  -8   3   27.66    1.81
  -5  -8  -3   29.74    1.89
   5   8  -3   28.71    1.79
  -5   8   3   27.85    1.81
  -5  -8   3   29.63    1.84
  -5  -8   3   31.25    2.66
   5  -8  -3   29.23    1.83
   5   8   3   27.93    1.85
   5   8   3   28.76    2.00
   5  -8  -3   27.22    1.98
  -5   8  -3   26.43    1.92
  -5  -8  -4   23.30    1.56
   5  -8   4   21.85    1.69
   5   8  -4   22.71    1.46
  -5   8   4   21.45    1.44
  -5   8   4   21.05    1.97
   5  -8   4   22.12    1.50
   5  -8   4   21.79    1.45
   5   8   4   20.63    1.64
   5  -8  -4   22.56    1.65
  -5  -8   4   19.79    1.72
   5  -8  -4   23.61    1.49
   5   8   4   20.61    1.50
   6   8   0   78.97    4.49
  -6   8   0   81.05    4.47
   6  -8   0   77.12    4.54
  -6   8   0   69.08    4.50
  -6  -8   0   70.58    4.47
   6   8   0   77.75    4.51
   6  -8   0   70.64    4.52
   6  -8   0   70.26    4.45
   6   8   0   79.11    4.47
   6   8  -1   85.89    4.78
   6   8  -1   79.75    4.74
   6   8  -1   81.32    4.72
   6  -8   1   81.09    4.77
  -6  -8  -1   70.94    4.71
   6  -8   1   76.08    4.75
   6  -8   1   74.66    4.74
  -6   8   1   87.61    4.74
  -6   8   1   75.54    4.74
   6  -8  -1   76.66    4.69
   6  -8  -1   85.38    4.81
  -6   8  -1   72.51    4.76
  -6  -8   1   73.46    4.74
  -6   8  -1   79.45    4.72
   6   8   1   87.02    4.78
   6   8   1   79.72    4.75
   6   8   1   79.93    4.77
   6  -8   2   82.26    5.07
   6   8  -2   92.36    4.98
   6  -8   2   80.51    4.99
   6   8  -2   81.61    4.93
   6  -8   2   77.59    4.97
  -6   8   2   90.71    5.06
  -6  -8  -2   79.06    4.96
  -6   8   2   77.67    4.97
   6  -8  -2   83.32    4.93
   6   8   2   85.92    5.04
   6   8   2   81.92    4.99
  -6  -8   2   87.23    5.06
   6  -8  -2   86.43    5.06
  -6   8  -2   75.14    5.01
  -6  -8   2   84.94    4.96
  -6  -8  -3   61.60    3.66
  -6   8   3   56.35    3.57
   6  -8   3   61.53    3.62
  -6   8   3   59.68    3.84
   6  -8   3   60.51    3.76
   6   8  -3   57.87    3.53
   6   8   3   58.57    3.73
  -6  -8   3   66.20    4.34
   6  -8  -3   59.57    3.69
   6   8   3   57.35    3.62
   6  -8  -3   52.59    3.66
  -6  -8   3   56.81    3.61
   7  -8   0   89.99    5.24
   7   8   0   91.94    5.20
  -7   8   0   80.69    5.22
   7  -8   0   89.51    5.11
  -7  -8   0   81.63    5.12
   7   8  -1   39.85    2.44
   7  -8   1   37.74    2.35
   7   8  -1   41.01    2.42
   7  -8   1   38.97    2.51
  -7   8   1   36.85    2.45
  -7  -8  -1   37.05    2.36
   7  -8  -1   40.85    2.53
   7  -8  -1   40.39    2.34
  -7   8  -1   36.38    2.48
   7   8   1   38.84    2.45
  -7  -8   1   36.30    2.36
   7   8  -2   58.01    3.50
   7  -8   2   59.17    3.64
  -7   8   2   55.19    3.59
  -7  -8  -2   64.63    3.62
   7   8  -2   60.78    3.55
   7   8  -2   64.44    3.60
   7  -8   2   56.60    3.63
  -7  -8   2   56.15    3.65
   7  -8  -2   59.72    3.67
  -7   8  -2   52.12    3.64
   7   8   2   57.73    3.62
   0  -9   1   10.65    0.68
   0   9   1   11.49    1.28
   0  -9   1   10.83    0.75
   0   9  -1    8.30    1.05
   0  -9   1   11.22    0.72
   0   9  -1   10.85    0.72
   0  -9  -1   10.84    0.72
   0  -9  -1    9.82    1.33
   0   9   1   11.35    0.73
   0  -9  -3    7.53    0.87
   0   9   3    5.88    0.54
   0   9  -3    6.73    0.86
   0   9   3    7.88    0.94
   0  -9   3    6.69    0.98
   0  -9   3    6.40    0.57
   0  -9  -3    5.64    0.52
   0  -9  -4    0.23    0.19
   0  -9   5    6.71    1.02
   0   9   5    7.81    0.69
   0  -9  -5    8.38    0.94
   1  -9   0   66.54    3.88
  -1  -9   0   66.81    3.83
  -1   9   0   62.76    4.07
  -1   9   0   65.70    3.84
   1   9   0   66.22    4.08
   1  -9   0   67.78    3.83
   1   9   0   65.11    3.83
  -1  -9   0   69.44    4.24
   1  -9   0   54.56    4.20
  -1  -9  -1  209.65   11.57
   1  -9   1  197.96   11.34
  -1   9   1  205.73   11.32
   1   9  -1  185.49   11.30
  -1   9   1  193.27   11.57
  -1  -9  -1  197.56   11.33
   1  -9   1  198.71   11.31
  -1   9   1  200.08   11.33
   1   9  -1  179.28   11.50
   1  -9   1  185.31   11.66
   1   9   1  193.32   11.55
   1   9   1  199.55   11.33
  -1   9  -1  201.51   11.52
   1  -9  -1  164.08   11.37
   1  -9  -1  174.66   11.52
   1  -9  -1  205.36   11.33
  -1  -9   1  204.53   11.31
  -1  -9   1  192.01   11.30
  -1   9  -1  190.12   11.31
  -1  -9   1  207.07   11.66
   1  -9   2   16.84    1.61
  -1  -9  -2   16.17    1.41
  -1   9   2   17.08    1.08
   1  -9   2   15.20    1.08
   1  -9   2   16.53    1.06
   1   9  -2   13.94    1.33
  -1   9   2   16.65    1.05
  -1   9   2   16.37    1.50
  -1  -9  -2   17.27    1.06
  -1   9  -2   13.43    1.30
  -1  -9   2   16.59    1.06
   1  -9  -2   16.82    1.23
   1   9   2   16.48    1.44
   1   9   2   17.53    1.08
  -1  -9   2   16.98    1.55
   1  -9  -2   17.13    1.43
   1  -9  -2   17.32    1.06
   1  -9   3  142.63    8.78
   1  -9   3  137.12    8.98
  -1   9   3  146.94    8.78
   1   9  -3  127.90    8.94
  -1   9   3  158.38    8.98
  -1  -9  -3  158.91    8.80
  -1  -9  -3  157.91    8.97
  -1  -9   3  144.53    8.77
  -1  -9   3  138.51    8.96
   1  -9  -3  157.77    8.79
   1  -9  -3  157.27    8.96
   1   9   3  158.44    8.89
   1   9   3  155.20    8.96
   1  -9  -3  159.02    8.80
  -1   9   4   32.87    2.18
  -1   9   4   31.06    1.91
  -1   9   4   28.84    1.92
  -1  -9  -4   31.29    1.91
   1  -9   4   27.66    2.16
   1  -9   4   28.50    1.91
  -1  -9  -4   32.05    2.10
  -1  -9   4   29.51    1.92
   1  -9  -4   32.69    1.89
  -1  -9   4   26.55    2.13
   1   9   4   29.46    2.19
   1   9   4   33.45    1.93
   1  -9  -4   31.88    2.08
   1  -9  -4   32.22    1.92
  -1   9   5   91.20    5.24
  -1   9   5   85.54    5.24
   1  -9   5   76.53    5.44
  -1  -9  -5   94.77    5.45
  -1  -9   5   77.48    5.44
   1   9   5   89.41    5.25
   1  -9  -5   93.31    5.21
   1  -9  -5   96.58    5.43
  -2  -9   0   10.10    1.32
  -2   9   0    9.79    0.71
   2  -9   0   10.87    0.72
   2   9   0    8.86    0.69
   2   9   0    9.69    1.05
  -2   9   0   10.80    1.06
  -2  -9   0    8.24    0.66
  -2   9   0   11.15    0.72
  -2   9   1   72.90    3.81
   2  -9   1   73.53    3.79
   2  -9   1   68.88    3.82
  -2   9   1   59.74    4.07
  -2  -9  -1   64.55    4.02
  -2   9   1   62.15    3.81
  -2  -9  -1   59.16    3.79
   2   9  -1   61.29    3.98
   2   9  -1   55.53    3.76
  -2  -9   1   63.81    4.16
  -2   9  -1   69.16    3.98
  -2  -9   1   57.93    3.76
  -2   9  -1   67.17    3.80
   2   9   1   58.38    3.79
   2   9   1   57.28    4.03
   2  -9  -1   74.02    3.81
  -2   9   2   10.91    0.76
  -2  -9  -2    8.38    1.08
  -2   9   2   11.49    0.76
   2  -9   2   10.82    0.77
  -2   9   2   10.93    1.29
   2  -9   2   11.24    0.71
   2  -9  -2   10.17    1.04
  -2   9  -2   10.20    0.74
  -2  -9   2    7.77    1.25
   2   9   2    7.25    1.15
  -2   9  -2    9.67    0.96
   2  -9  -2   10.86    0.74
   2   9   2    7.81    0.73
  -2  -9  -3   45.35    2.91
   2  -9   3   49.52    2.91
  -2   9   3   54.67    3.19
  -2   9   3   53.40    2.92
  -2   9   3   50.32    2.94
  -2  -9  -3   45.68    3.07
   2  -9   3   51.18    2.93
   2   9   3   45.49    3.09
  -2  -9   3   42.00    3.14
   2  -9  -3   55.12    2.93
   2  -9  -3   51.79    2.98
  -2   9  -3   42.39    3.04
  -2  -9   3   45.65    2.90
   2   9   3   45.04    2.92
   2   9  -4    4.98    0.59
   2  -9   4    5.70    0.58
  -2  -9  -4    4.90    0.74
  -2  -9  -4    4.68    0.53
   2  -9   4    6.68    0.60
   2  -9   4    6.66    0.98
  -2   9   4    5.28    0.69
  -2   9   4    7.01    1.05
  -2   9   4    5.95    0.56
  -2  -9   4    5.17    0.62
  -2  -9   4    3.69    0.88
   2   9   4    5.52    0.86
   2  -9  -4    6.11    0.57
   2   9   4    4.46    0.56
   2  -9  -4    6.43    0.64
   2  -9   5   26.85    2.03
   2   9  -5   25.10    1.74
  -2  -9  -5   24.63    1.89
   2  -9   5   26.75    1.73
  -2   9   5   26.74    1.78
  -2   9   5   29.59    1.71
   2  -9  -5   28.51    1.71
   2   9   5   23.82    1.71
   3   9   0   30.26    1.84
  -3  -9   0   33.07    2.17
   3  -9   0   29.05    1.86
   3   9   0   32.00    2.04
  -3   9   0   30.61    2.04
   3  -9   0   28.26    1.93
   3  -9   0   31.15    2.19
  -3   9   0   29.02    1.86
  -3   9   0   27.89    1.87
  -3   9   1   78.34    4.65
   3  -9   1   80.96    4.64
  -3   9   1   77.18    4.64
   3  -9   1   76.74    5.00
   3  -9   1   72.55    4.66
   3   9  -1   75.95    4.61
  -3  -9  -1   74.85    4.78
   3   9  -1   84.07    4.79
  -3   9   1   81.22    4.86
  -3   9  -1   80.05    4.76
  -3   9  -1   72.96    4.64
   3  -9  -1   77.56    4.78
   3   9   1   76.77    4.83
   3   9   1   82.34    4.65
   3  -9  -1   78.41    4.65
   3  -9  -1   76.73    4.75
  -3  -9   1   87.70    4.95
  -3   9   2    9.95    0.82
   3  -9   2   10.22    0.77
   3   9  -2   10.29    0.93
  -3   9   2   11.03    0.78
   3  -9   2    9.98    1.27
  -3   9   2   10.33    1.33
   3   9  -2   10.65    0.74
  -3  -9  -2   10.33    0.98
   3  -9   2   10.10    0.79
  -3  -9  -2   10.51    0.75
  -3  -9   2   11.51    1.27
   3   9   2   11.69    0.78
   3  -9  -2   10.49    0.92
   3  -9  -2    9.12    1.06
  -3   9  -2   10.53    0.80
  -3  -9   2   10.71    0.74
   3  -9  -2   10.22    0.78
  -3   9  -2   10.34    0.93
   3   9   2    9.77    1.10
  -3  -9  -3   63.76    3.67
  -3   9   3   60.40    3.52
   3   9  -3   57.08    3.65
  -3   9   3   63.86    3.81
   3  -9   3   58.84    3.53
  -3  -9  -3   58.49    3.52
   3  -9   3   53.78    3.52
  -3   9   3   61.02    3.56
   3  -9   3   66.94    3.52
   3  -9   3   56.47    3.76
   3  -9  -3   52.15    3.61
   3   9   3   61.98    3.72
  -3  -9   3   56.66    3.73
  -3   9  -3   52.76    3.57
   3  -9  -3   58.04    3.53
   3  -9  -3   62.90    3.63
  -3   9  -3   49.92    3.61
   3   9   3   62.69    3.54
  -3  -9   3   58.14    3.51
   3  -9   4   15.14    1.14
   3  -9   4   15.08    1.44
  -3   9   4   16.32    1.13
   3   9  -4   16.43    1.13
  -3  -9  -4   18.54    1.33
  -3   9   4   16.81    1.61
  -3   9   4   15.70    1.23
  -3  -9   4   13.93    1.43
  -3  -9   4   16.85    1.19
   3  -9  -4   16.93    1.24
   3  -9  -4   18.12    1.26
   3   9   4   16.67    1.15
   3   9   4   16.72    1.38
  -3  -9  -5   38.38    2.45
   3  -9   5   33.86    2.26
   3   9  -5   35.17    2.27
   3  -9   5   35.05    2.55
  -3   9   5   36.19    2.24
   3   9   5   36.84    2.28
   3  -9  -5   38.10    2.38
   3  -9  -5   37.57    2.29
  -3  -9   5   31.07    2.49
   4  -9   0   17.20    1.31
   4  -9   0   16.24    1.13
   4  -9   0   15.67    1.20
  -4   9   0   15.90    1.14
   4   9   0   16.83    1.09
   4   9   0   17.07    1.21
  -4   9   0   16.16    1.25
  -4  -9   0   16.87    1.32
   4   9  -1    1.18    0.28
   4  -9   1    1.24    0.52
  -4  -9  -1    1.61    0.37
  -4   9   1    0.74    0.28
  -4   9   1    1.64    0.47
  -4   9   1    1.36    0.26
   4  -9   1    1.34    0.28
   4   9  -1    0.98    0.21
   4  -9   1    1.55    0.32
   4   9  -1    1.19    0.29
   4   9   1    0.99    0.38
  -4   9  -1    1.30    0.34
   4  -9  -1    1.99    0.46
  -4   9  -1    1.14    0.25
   4  -9  -1    1.16    0.27
  -4  -9   1    1.45    0.50
   4   9  -2   13.53    1.01
  -4   9   2   12.52    0.91
  -4  -9  -2   14.25    1.08
   4  -9   2   12.35    0.95
   4  -9   2   13.20    0.93
  -4   9   2   12.88    1.01
   4   9  -2   12.96    0.88
   4  -9   2   12.79    1.35
  -4   9   2   13.09    1.41
   4  -9  -2   13.49    1.00
   4   9   2   12.90    0.94
  -4  -9   2   12.92    0.91
   4  -9  -2   13.32    1.22
  -4  -9   2   12.42    1.35
   4  -9  -2   12.09    0.95
  -4   9  -2   13.76    0.98
  -4   9  -2   12.46    1.04
   4   9   2   12.07    1.22
   4  -9   3    0.37    0.23
  -4   9   3    0.41    0.23
   4  -9   3    0.36    0.24
  -4   9   3    0.55    0.65
  -4   9   3   -0.05    0.34
  -4  -9  -3    0.43    0.30
   4   9  -3    0.34    0.25
   4   9  -3    0.74    0.46
   4  -9   3    0.39    0.26
   4  -9   3    0.20    0.43
   4  -9  -3    0.01    0.25
  -4   9  -3    0.27    0.36
  -4  -9   3    0.59    0.27
   4  -9  -3    0.61    0.26
  -4   9  -3    0.59    0.32
   4  -9  -3    0.17    0.45
  -4  -9   3    0.11    0.48
   4   9   3   -0.05    0.40
   4   9   3    0.43    0.24
   4  -9   4    7.96    1.11
   4  -9   4    7.87    0.78
  -4   9   4   10.43    1.51
  -4  -9  -4    9.11    0.91
   4  -9   4    8.19    0.73
   4   9  -4    8.15    0.75
  -4   9   4    9.37    0.75
   4   9   4    8.66    0.78
  -4  -9   4    6.74    1.07
  -4  -9   4   10.45    1.19
   4  -9  -4    8.40    0.99
   4  -9  -4   10.05    0.83
   4   9   4    9.94    1.54
   4   9  -5    1.80    0.38
  -4  -9  -5    1.16    0.45
   4  -9   5    0.87    0.56
   4  -9  -5    1.28    0.37
  -4  -9   5    0.08    0.54
   4  -9  -5    2.08    0.50
   5   9   0   61.20    3.63
  -5   9   0   59.92    3.66
  -5   9   0   62.67    3.68
  -5  -9   0   57.84    3.69
   5  -9   0   59.91    3.68
   5  -9   0   60.14    3.69
   5   9   0   62.26    3.65
  -5   9   0   56.03    3.64
   5  -9   0   56.63    3.65
   5   9   0   67.23    3.69
   5   9  -1   14.72    0.98
  -5  -9  -1   12.49    1.01
   5   9  -1   14.43    0.94
   5   9  -1   14.09    0.97
  -5   9   1   12.84    1.03
   5  -9   1   12.16    1.00
   5  -9   1   11.73    1.02
   5  -9   1   13.17    1.16
  -5   9   1   13.00    0.95
  -5   9   1   13.08    1.13
  -5  -9   1   13.15    1.19
  -5   9  -1   13.32    1.02
   5   9   1   13.56    1.06
   5  -9  -1   12.24    1.04
   5   9   1   13.13    0.97
   5  -9  -1   11.78    1.00
   5  -9  -1   13.15    1.14
  -5   9  -1   12.03    0.97
   5   9  -2   93.86    5.46
   5  -9   2   91.79    5.50
  -5   9   2   93.88    5.54
   5  -9   2   90.30    5.52
  -5  -9  -2   81.91    5.77
  -5   9   2   88.27    5.50
   5   9  -2   94.12    5.53
  -5   9   2   99.42    5.67
   5   9  -2   91.71    5.45
   5  -9   2   93.80    5.71
   5  -9  -2   91.61    5.51
   5   9   2   89.40    5.51
  -5   9  -2   84.09    5.53
   5  -9  -2   98.45    5.62
  -5  -9   2  105.72    5.76
  -5   9  -2   89.06    5.53
  -5  -9   2   97.21    5.47
   5   9   2   92.32    5.65
   5   9  -3   11.63    0.79
  -5   9   3   10.44    1.53
   5  -9   3   10.66    0.83
  -5  -9  -3   11.64    0.93
  -5   9   3   10.22    0.81
   5  -9   3    9.82    1.17
   5  -9   3    9.81    0.89
   5   9   3    8.09    1.10
  -5  -9   3   10.17    1.33
   5  -9  -3    8.55    1.13
   5  -9  -3   11.70    0.86
   5   9   3    9.61    0.87
  -5  -9   3   10.36    0.91
  -5   9  -3    9.36    1.00
   5  -9   4   36.62    2.40
  -5  -9  -4   41.74    2.50
  -5   9   4   41.57    2.88
   5  -9   4   37.79    2.34
  -5   9   4   37.23    2.36
   5  -9   4   34.35    2.62
   5   9  -4   38.65    2.36
  -5  -9   4   36.51    2.65
   5  -9  -4   40.24    2.54
   5  -9  -4   33.66    2.53
   5   9   4   36.38    2.42
   6  -9   0    1.42    0.28
   6   9   0    1.27    0.26
  -6   9   0    1.04    0.36
  -6   9   0    0.86    0.30
   6   9   0    1.07    0.28
   6  -9   0    1.19    0.42
   6   9   0    1.54    0.34
  -6   9   1    3.66    0.72
  -6  -9  -1    3.66    0.58
   6  -9   1    2.99    0.50
   6   9  -1    3.65    0.54
  -6   9   1    4.02    0.54
   6  -9   1    3.87    0.65
   6   9  -1    3.80    0.47
   6   9  -1    5.30    0.62
   6   9   1    3.92    0.60
   6   9   1    3.92    0.55
   6  -9  -1    4.60    0.49
   6  -9  -1    3.87    0.59
  -6  -9   1    4.19    0.72
  -6   9  -1    4.61    0.63
  -6   9  -1    4.28    0.61
   6  -9   2    0.79    0.44
  -6   9   2    0.15    0.47
   6   9  -2    1.41    0.35
   6  -9   2    0.85    0.38
  -6   9   2    0.95    0.28
  -6  -9   2    0.51    0.41
  -6  -9   2    0.64    0.51
   6  -9  -2    0.60    0.47
  -6   9  -2    1.44    0.37
   6   9   2    0.63    0.30
   6   9   2    0.30    0.36
  -6  -9  -3    4.65    0.67
   6  -9   3    3.49    0.66
   6  -9   3    2.73    0.51
  -6   9   3    4.56    0.58
   6   9  -3    3.28    0.64
  -6   9   3    2.65    0.78
  -6   9  -3    3.90    0.81
   6   9   3    3.68    0.67
  -6  -9   3    3.36    0.81
   6  -9  -3    3.89    0.65
  -6  -9   3    3.04    0.54
   6   9   3    2.94    0.64
   7  -9   0   18.29    1.46
  -7   9   0   19.28    1.37
   7   9   0   19.32    1.34
   7  -9   0   17.32    1.31
  -7  -9   0   18.91    1.27
  -7  -9  -1    0.48    0.39
   7  -9   1   -0.21    0.44
  -7   9   1    0.38    0.31
   7   9  -1    0.26    0.27
   7   9   1   -0.17    0.28
   7  -9  -1   -0.02    0.47
  -7  -9   1    0.87    0.33
  -7   9  -1    1.25    0.39
   0 -10   0   17.32    1.13
   0 -10   0   18.64    1.23
   0  10   0   18.72    1.16
   0  10   0   18.32    1.56
   0 -10   0   18.20    1.95
   0  10   1    0.21    0.18
   0 -10  -1   -0.57    0.61
   0 -10   1    0.58    0.75
   0  10   1    0.29    0.57
   0 -10   1   -0.10    0.19
   0 -10   1   -0.07    0.23
   0 -10   1   -0.02    0.11
   0  10  -1   -0.10    0.17
   0  10  -1    0.35    0.40
   0 -10  -1    0.04    0.13
   0 -10   2    0.92    0.22
   0 -10  -2    0.75    0.18
   0 -10   2    0.54    0.21
   0  10   2    0.72    0.20
   0  10   2    0.52    0.55
   0  10  -2    0.63    0.43
   0 -10  -3    0.24    0.37
   0  10   3   -0.29    0.45
   0 -10  -3   -0.03    0.17
   0  10   3   -0.03    0.17
   0 -10   3    0.10    0.20
   0 -10   3    0.17    0.43
   0 -10   4    7.65    0.68
   0  10   4    7.35    0.64
   0  10   4    7.73    1.12
   0 -10  -4    7.15    0.64
   0 -10  -4    7.40    0.92
   0  10  -4    5.61    0.95
   0 -10   4    6.16    1.02
   0 -10   5   -0.07    0.47
   0  10   5   -0.28    0.23
   0 -10  -5    0.10    0.37
  -1 -10   0  303.01   17.99
   1  10   0  325.01   18.22
   1 -10   0  283.88   18.01
   1  10   0  305.29   17.99
   1 -10   0  312.42   18.03
  -1  10   0  313.23   18.21
  -1 -10   0  344.70   18.32
   1 -10   0  287.32   18.29
  -1  10   0  310.05   18.00
  -1 -10  -1    8.17    1.41
   1  10  -1    9.44    1.10
   1 -10   1   11.27    0.68
  -1  10   1   11.02    0.74
  -1  10   1    9.91    1.33
  -1 -10  -1    8.93    0.69
   1  10  -1    9.55    0.69
  -1  10   1   11.58    0.70
   1 -10   1   11.57    0.77
   1 -10  -1   11.00    0.71
   1  10   1    9.92    1.27
   1  10   1    8.85    0.72
  -1 -10   1   10.87    1.64
  -1 -10   1    9.56    0.74
  -1  10  -1   10.11    0.71
  -1 -10   1    9.62    0.69
  -1  10  -1    9.43    1.13
  -1 -10   1    8.46    0.65
  -1  10   2  341.39   18.25
  -1  10   2  321.55   18.51
   1  10  -2  264.83   18.42
  -1 -10  -2  325.29   18.26
   1 -10   2  327.20   18.25
   1 -10   2  307.89   18.26
  -1 -10   2  338.50   18.24
   1  10   2  301.80   18.29
   1 -10  -2  312.52   18.30
   1 -10  -2  322.37   18.26
  -1  10  -2  277.81   18.42
   1  10   2  321.19   18.48
   1  10  -3    8.12    0.99
  -1  10   3    8.89    0.69
  -1 -10  -3    8.46    1.02
  -1 -10  -3    8.53    0.69
   1 -10   3   10.19    0.72
  -1  10   3    9.46    0.71
   1 -10   3    9.39    1.19
  -1  10   3   11.02    1.22
   1 -10   3    9.71    0.74
   1 -10  -3   10.33    1.00
   1  10   3    8.33    1.11
   1 -10  -3    9.77    0.70
  -1 -10   3   10.43    0.73
  -1  10  -3    8.38    1.01
   1 -10  -3   10.26    0.78
   1  10   3    8.52    0.72
  -1 -10   3    7.89    1.15
   1 -10   4  182.90   11.04
   1 -10   4  164.15   11.24
   1  10  -4  164.07   11.24
  -1  10   4  198.82   11.28
  -1 -10  -4  197.49   11.23
  -1  10   4  189.48   11.04
  -1 -10   4  165.90   11.22
   1  10   4  197.71   11.05
   1 -10  -4  201.79   11.22
   1 -10  -4  204.77   11.02
   1 -10  -4  206.54   11.08
  -1 -10   4  187.45   11.03
  -1  10   5    3.81    0.54
  -1  10   5    2.88    0.42
  -1 -10  -5    2.95    0.58
   1 -10   5    4.43    1.03
   1  10   5    2.89    0.40
  -1 -10   5    2.36    0.64
   2 -10   0    8.34    1.49
   2 -10   0    9.32    0.70
  -2 -10   0    9.47    1.31
   2  10   0    9.67    1.05
   2 -10   0    9.04    0.85
  -2  10   0   10.00    1.10
  -2  10   0    8.46    0.70
   2  10   0    9.48    0.68
  -2 -10  -1   34.36    2.20
   2 -10   1   27.45    2.52
   2 -10   1   27.20    1.83
   2  10  -1   26.91    1.77
   2  10  -1   30.12    2.06
  -2  10   1   30.39    1.80
  -2  10   1   29.02    1.81
  -2 -10  -1   29.85    1.79
  -2  10   1   28.36    2.19
   2  10   1   30.73    1.81
  -2 -10   1   27.34    1.76
  -2  10  -1   28.30    1.80
  -2  10  -1   29.72    2.03
   2 -10  -1   27.87    1.99
   2  10   1   30.00    2.14
  -2 -10   1   32.23    2.39
   2 -10  -1   29.42    2.16
   2 -10  -1   29.50    1.81
   2 -10   2    5.15    0.46
  -2 -10  -2    5.33    0.47
  -2  10   2    3.91    0.78
  -2  10   2    5.05    0.51
  -2 -10  -2    6.30    1.09
   2 -10   2    4.86    0.54
   2 -10   2    5.39    0.52
   2  10  -2    4.66    0.80
  -2  10   2    4.99    0.51
   2 -10  -2    5.13    0.50
  -2  10  -2    5.55    0.51
   2  10   2    4.64    0.99
   2  10   2    5.91    0.52
   2 -10  -2    4.57    0.84
  -2 -10   2    5.25    0.48
  -2  10  -2    4.10    0.79
  -2 -10  -3   26.88    1.59
   2 -10   3   23.06    1.58
   2 -10   3   22.91    1.59
   2 -10   3   24.74    1.99
  -2  10   3   26.47    1.99
   2  10  -3   23.32    1.80
  -2  10   3   25.34    1.58
  -2 -10  -3   28.14    1.84
  -2  10   3   24.16    1.60
   2  10   3   24.28    1.88
   2  10   3   25.93    1.59
  -2 -10   3   22.46    1.91
   2 -10  -3   25.80    1.59
   2 -10  -3   26.16    1.70
  -2 -10   3   25.86    1.58
   2 -10  -3   27.98    1.80
  -2  10  -3   20.88    1.77
  -2  10   4    4.45    0.54
  -2 -10  -4    4.85    0.80
   2 -10   4    4.45    0.57
   2 -10   4    4.06    0.74
  -2  10   4    4.61    0.87
   2  10  -4    5.69    1.00
   2  10   4    4.82    0.56
  -2 -10   4    6.05    0.64
   2 -10  -4    5.66    0.78
   2 -10  -4    5.28    0.63
  -2 -10   4    4.23    0.97
   2 -10   5   10.02    1.37
  -2  10   5   12.15    0.93
  -2 -10  -5   13.19    1.22
   2 -10   5   12.12    0.97
  -2  10   5    9.38    1.00
   2  10   5   11.90    0.95
   2 -10  -5   13.25    0.92
  -2 -10   5    8.95    1.32
   2 -10  -5   13.83    1.17
   3  10   0  153.91    9.35
   3  10   0  161.09    9.51
   3 -10   0  155.33    9.36
  -3 -10   0  177.36    9.57
  -3  10   0  148.22    9.36
   3 -10   0  151.45    9.48
  -3  10   0  163.91    9.51
  -3  10   0  148.52    9.36
   3 -10   0  180.69    9.60
   3 -10   1    4.65    0.49
  -3  10   1    2.85    0.49
   3 -10   1    4.79    0.57
  -3  10   1    3.57    0.46
   3 -10  -1    4.33    0.49
  -3  10  -1    3.49    0.44
  -3 -10  -2   90.71    5.56
  -3 -10  -2  103.96    5.74
  -3  10   2   94.59    5.87
   3  10  -2   95.91    5.71
  -3  10   2   92.77    5.57
  -3  10   2   95.57    5.57
   3 -10   2  104.44    5.55
   3 -10   2   90.76    5.57
   3 -10   2   97.77    6.01
  -3  10  -2   87.45    5.67
  -3  10  -2   89.08    5.57
   3 -10  -2   97.65    5.57
   3  10   2   93.70    5.57
   3  10   2   87.05    5.77
  -3 -10   2   90.19    5.53
  -3 -10   2   95.49    6.01
  -3  10   3    1.09    0.32
  -3  10   3    1.52    0.72
   3 -10   3    1.61    0.27
  -3  10  -3    1.41    0.38
  -3  10  -3    1.27    0.42
   3 -10  -3    2.35    0.45
   3 -10  -3    1.83    0.50
   3 -10   4   87.69    5.60
  -3  10   4   88.44    5.35
  -3 -10  -4   99.07    5.50
  -3  10   4   89.04    5.32
   3  10  -4   86.53    5.32
   3 -10   4   83.26    5.32
   3 -10  -4   90.15    5.37
   3 -10  -4  103.44    5.46
  -3 -10   4   75.61    5.51
   3  10   4   89.54    5.34
  -3 -10   4   91.43    5.36
  -3  10   5    1.94    0.35
   3 -10   5    2.35    0.46
   3 -10   5    1.90    0.67
   3 -10  -5    2.17    0.42
  -4  10   0    0.23    0.24
   4 -10   0    0.36    0.33
   4  10   0    0.15    0.28
  -4  10   0    0.05    0.36
   4 -10   0    0.67    0.41
   4  10   0    0.18    0.20
  -4  10   0    0.35    0.22
  -4 -10   0    0.68    0.43
   4 -10   0    0.06    0.24
  -4 -10  -1   69.29    4.51
   4  10  -1   74.45    4.38
  -4  10   1   76.77    4.57
   4 -10   1   73.96    4.40
  -4  10   1   72.28    4.41
   4  10  -1   71.95    4.39
   4  10  -1   79.08    4.51
   4 -10   1   66.25    4.42
   4 -10   1   76.13    4.66
  -4  10   1   75.73    4.43
  -4  10  -1   72.53    4.49
  -4 -10   1   80.50    4.63
   4 -10  -1   73.44    4.51
   4 -10  -1   73.25    4.49
   4  10   1   77.41    4.56
  -4  10  -1   69.49    4.43
   4 -10  -1   70.03    4.40
   4  10   1   78.88    4.41
  -4  10   2    6.22    0.57
  -4  10   2    6.69    0.67
  -4  10   2    5.81    1.23
  -4 -10  -2    7.42    0.83
   4 -10   2    5.92    1.21
   4 -10   2    5.75    0.67
   4  10  -2    6.41    0.54
   4 -10   2    5.31    0.61
   4  10  -2    6.91    0.71
   4  10   2    6.08    0.63
   4  10   2    5.84    0.93
  -4  10  -2    5.61    0.75
  -4 -10   2    5.04    1.17
  -4 -10   2    6.48    0.60
   4 -10  -2    4.79    0.97
   4 -10  -2    4.64    0.62
  -4 -10  -3   53.71    3.22
  -4  10   3   51.58    3.14
   4 -10   3   50.99    3.41
   4  10  -3   52.66    3.19
   4 -10   3   52.90    3.07
   4  10  -3   50.96    3.07
  -4  10   3   51.25    3.09
   4 -10   3   47.71    3.10
  -4  10   3   55.86    3.54
  -4  10  -3   44.76    3.18
   4  10   3   53.34    3.12
  -4 -10   3   51.70    3.39
   4 -10  -3   44.06    3.25
  -4  10  -3   45.55    3.18
  -4 -10   3   50.82    3.08
   4 -10  -3   56.10    3.18
   4  10   3   52.15    3.34
  -4  10   4    0.47    0.27
   4  10  -4    0.49    0.26
   4 -10   4    0.52    0.29
   4 -10   4   -0.41    0.50
  -4 -10  -4    0.54    0.37
   4 -10  -4   -0.13    0.45
   4  10   4    0.33    0.27
  -4 -10   4   -0.14    0.54
   4 -10  -4    0.29    0.30
  -5  10   0   18.25    1.31
   5  10   0   17.91    1.24
   5 -10   0   15.25    1.20
   5 -10   0   19.14    1.30
   5  10   0   18.32    1.18
   5  10   0   17.15    1.20
   5 -10   0   16.58    1.31
  -5  10   0   15.55    1.17
  -5 -10   0   15.41    1.30
  -5  10   0   16.58    1.25
   5  10  -1   17.73    1.19
  -5  10   1   17.29    1.38
  -5  10   1   18.91    1.38
   5 -10   1   15.95    1.20
  -5 -10  -1   15.34    1.63
  -5  10   1   16.01    1.16
   5  10  -1   17.41    1.21
   5 -10   1   17.89    1.40
   5  10  -1   19.03    1.17
   5 -10   1   14.80    1.23
   5 -10  -1   17.36    1.21
  -5  10  -1   14.99    1.17
  -5 -10   1   17.59    1.43
  -5  10  -1   16.02    1.26
   5  10   1   17.85    1.29
   5 -10  -1   14.50    1.31
   5  10   1   16.62    1.18
   5 -10  -1   17.69    1.37
   5 -10   2    8.89    1.92
   5 -10   2   10.02    0.86
  -5  10   2   11.03    0.83
  -5  10   2   10.72    1.32
  -5 -10  -2   11.46    0.96
   5  10  -2   11.52    0.86
   5 -10   2    8.84    0.91
   5  10   2    8.24    1.05
  -5  10  -2   10.38    0.90
  -5 -10   2   10.66    0.89
  -5 -10   2   11.95    1.34
   5 -10  -2   11.57    0.97
  -5  10  -2    9.80    0.95
   5 -10  -2   10.98    1.20
   5  10   2   10.21    0.87
   5 -10   3   10.89    0.97
  -5  10   3    9.24    1.62
   5 -10   3   10.30    0.89
  -5 -10  -3   11.46    1.00
   5  10  -3   12.64    0.93
   5  10  -3   11.47    0.84
  -5  10   3   11.26    0.87
   5 -10   3   11.42    1.35
   5 -10  -3    8.14    1.26
   5  10   3   10.44    0.94
   5 -10  -3   12.37    0.92
  -5  10  -3   12.07    1.06
  -5 -10   3    9.22    1.44
  -5 -10   3   11.73    0.98
  -5 -10  -4   10.69    1.04
   5 -10   4    7.73    1.35
   5 -10  -4   11.49    0.92
   6 -10   0   -0.69    0.38
   6  10   0   -0.22    0.24
  -6  10   0   -0.34    0.33
   6  10   0    0.69    0.32
  -6 -10   0    0.57    0.33
  -6  10   0   -0.10    0.26
   6 -10   0    0.42    0.25
   6  10  -1   21.59    1.41
   6 -10   1   21.80    1.53
  -6  10   1   20.50    1.44
   6  10  -1   22.18    1.46
  -6  10   1   21.40    1.56
   6  10  -1   20.52    1.41
   6 -10   1   21.09    1.53
   6 -10  -1   21.16    1.41
   6  10   1   21.38    1.47
   6 -10  -1   21.70    1.59
   6  10   1   20.71    1.46
  -6  10  -1   21.31    1.49
  -6 -10   1   23.28    1.62
  -6  10  -1   18.30    1.46
  -6  10   2    1.24    0.31
   6  10  -2    0.57    0.24
   6 -10   2    0.61    0.68
  -6 -10  -2    1.11    0.35
   6  10  -2    0.95    0.30
  -6  10   2   -0.03    0.50
   6 -10   2    0.39    0.40
   6  10   2    0.19    0.31
   6  10   2    0.25    0.38
  -6 -10   2    0.42    0.54
  -6  10  -2    0.97    0.38
   6 -10  -2    0.29    0.50
  -7  10   0    7.76    0.93
  -7 -10   0    7.20    1.11
   7  10   0    5.77    0.79
   0  11   0    0.16    0.44
   0 -11   0    0.07    0.13
   0 -11   0    0.13    0.28
   0  11   0   -0.06    0.18
   0 -11   0    0.60    0.99
   0  11  -1   72.62    5.02
   0 -11  -1   84.70    4.79
   0 -11   1   80.33    4.76
   0  11   1   82.13    5.10
   0 -11   1   85.95    5.60
   0  11  -1   77.58    4.77
   0 -11  -1   75.15    5.35
   0 -11   1   86.38    4.78
   0 -11   1   81.92    4.81
   0  11   1   84.67    4.80
   0 -11   2    0.40    0.22
   0 -11  -2    0.03    0.16
   0  11   2   -0.08    0.18
   0 -11   2    0.03    0.19
   0  11   2    0.21    0.56
   0 -11   2    0.42    0.62
   0 -11  -2   -0.21    0.46
   0  11   3   63.40    4.12
   0  11   3   65.45    3.82
   0 -11  -3   67.64    3.83
   0 -11   3   57.06    4.14
   0 -11   3   64.34    3.81
   0 -11  -3   64.89    4.07
   0 -11   4    0.12    0.47
   0  11   4   -0.02    0.21
   0 -11  -4    0.07    0.40
   0 -11  -5   40.64    2.72
   0  11   5   38.07    2.45
   1 -11   0    9.30    0.67
   1  11   0   10.56    1.13
   1 -11   0    9.56    0.87
  -1  11   0    9.39    0.72
  -1 -11   0    9.69    0.66
   1  11   0    9.43    0.70
  -1  11   0    9.41    1.14
   1 -11   0    9.37    1.85
   1 -11   1    0.86    0.16
  -1 -11  -1    0.83    0.18
  -1 -11  -1    0.85    0.63
   1 -11   1    0.99    0.26
   1 -11   1    1.15    0.85
  -1  11   1    0.95    0.23
  -1  11   1    0.89    0.55
   1  11  -1    1.12    0.46
   1  11   1    0.85    0.53
   1  11   1    1.31    0.22
  -1 -11   1    0.70    0.26
   1 -11  -1    0.95    0.44
   1 -11  -1    0.68    0.19
  -1 -11   1    0.85    0.82
  -1 -11   1    0.85    0.14
  -1  11  -1    0.94    0.21
  -1  11  -1    0.77    0.45
  -1 -11  -2   10.16    0.70
  -1 -11  -2   10.82    1.25
   1 -11   2    8.90    0.78
  -1  11   2    8.96    1.34
   1 -11   2   10.28    0.73
   1 -11   2    9.62    1.49
  -1  11   2   10.19    0.71
  -1  11   2   10.30    0.74
   1 -11  -2    9.68    0.70
   1  11   2    7.33    1.22
   1  11   2    9.95    0.74
  -1  11  -2    8.27    1.05
  -1 -11   2    9.93    0.72
   1 -11  -2    9.73    0.93
  -1 -11   2    8.57    1.40
   1 -11  -2   10.12    1.23
  -1  11   3    2.01    0.40
  -1 -11  -3    1.76    0.37
  -1  11   3    1.71    0.25
   1  11  -3    1.52    0.47
  -1  11   3    0.46    0.63
   1 -11   3    1.65    0.29
  -1 -11  -3    1.07    0.47
   1 -11   3    1.53    0.29
   1 -11   3    1.46    0.64
  -1 -11   3    1.90    0.30
  -1  11  -3    0.84    0.46
   1  11   3    1.31    0.26
   1 -11  -3    1.54    0.49
  -1 -11   3    1.28    0.60
   1  11   3    1.36    0.58
   1 -11  -3    1.31    0.25
  -1  11   4    4.68    0.55
   1 -11   4    4.96    0.60
   1 -11   4    3.98    0.75
  -1 -11  -4    4.55    0.89
   1 -11  -4    6.40    0.90
  -1 -11   4    3.85    0.76
   1  11   4    4.70    0.54
  -1  11   5    0.43    0.28
  -1 -11  -5    0.53    0.49
   1 -11   5   -0.12    0.57
   1  11   5   -0.17    0.26
   1 -11  -5    0.77    0.48
   2  11   0   36.17    2.22
   2  11   0   37.70    2.48
   2 -11   0   36.89    2.32
  -2  11   0   36.03    2.23
  -2  11   0   35.90    2.50
  -2 -11   0   36.56    2.21
   2 -11   0   37.51    2.23
  -2  11   1    8.56    0.64
   2 -11   1    8.23    0.61
  -2  11   1    7.82    1.19
   2  11  -1    7.16    0.59
  -2  11   1    7.60    0.68
  -2 -11  -1    9.29    1.17
   2 -11   1    9.17    1.57
   2  11  -1    7.93    0.98
  -2 -11  -1    8.07    0.60
   2 -11  -1    7.54    0.63
   2 -11  -1    7.86    1.25
  -2 -11   1    9.64    1.43
   2 -11  -1    7.69    0.98
  -2  11  -1    8.11    0.99
   2  11   1    8.34    0.65
   2  11   1    7.55    1.06
  -2  11  -1    8.01    0.63
   2 -11   2    7.11    0.59
   2 -11   2    7.78    0.63
  -2  11   2    5.70    1.32
  -2  11   2    7.66    0.61
  -2 -11  -2    7.82    1.05
  -2 -11  -2    5.59    0.56
  -2  11   2    7.89    0.61
   2  11  -2    6.01    0.90
  -2  11  -2    7.97    0.61
  -2 -11   2    6.15    0.58
  -2  11  -2    7.28    0.93
  -2 -11   2    6.43    1.30
   2 -11  -2    7.23    0.60
   2 -11  -2    6.02    0.95
   2  11   2    6.28    0.62
   2  11  -3    5.30    0.85
  -2  11   3    6.03    0.56
   2 -11   3    4.42    0.60
  -2 -11  -3    6.84    0.93
  -2  11   3    5.72    0.57
   2 -11   3    5.34    1.28
  -2  11   3    5.73    1.32
   2 -11   3    6.07    0.60
  -2 -11  -3    5.16    0.53
  -2 -11   3    6.08    0.59
  -2 -11   3    3.97    0.78
   2  11   3    4.35    1.02
   2 -11  -3    5.66    0.55
   2  11   3    5.50    0.58
  -2  11  -3    4.97    0.91
  -2  11   4   15.69    1.24
  -2  11   4   19.77    1.24
   2 -11   4   15.39    1.73
  -2 -11  -4   20.15    1.52
   2 -11   4   17.59    1.26
  -2 -11   4   16.68    1.65
   2  11   4   19.13    1.26
   2 -11  -4   20.25    1.30
  -2 -11  -5    4.09    0.94
  -2  11   5    3.22    0.48
  -2  11   5    3.11    0.60
   2  11   5    3.46    0.54
   2 -11  -5    4.46    0.89
   2 -11  -5    4.26    0.62
  -3  11   0  172.52    9.85
   3 -11   0  152.42    9.72
   3  11   0  167.46    9.67
  -3  11   0  159.27    9.69
   3  11   0  180.02    9.85
   3 -11   0  160.11    9.67
   3 -11   1   12.13    1.55
   3  11  -1   12.01    1.07
   3 -11   1   11.12    0.83
  -3  11   1   11.28    0.84
  -3  11   1   10.33    1.28
   3  11  -1   11.44    0.79
  -3 -11  -1   12.88    1.19
  -3  11   1   10.95    0.82
   3 -11   1   10.04    0.90
   3 -11  -1   10.97    0.84
   3  11   1   11.50    0.83
  -3 -11   1   12.93    1.43
  -3  11  -1   10.00    1.07
  -3  11  -1   10.56    0.81
   3 -11  -1   11.19    1.16
   3  11   1   12.17    1.16
   3 -11  -1   10.18    1.13
  -3  11   2  144.49    8.51
  -3 -11  -2  144.36    8.51
   3 -11   2  138.92    8.87
   3  11  -2  158.91    8.69
  -3  11   2  144.65    8.51
   3 -11   2  147.16    8.48
  -3  11   2  149.95    8.82
   3 -11   2  132.17    8.52
  -3  11  -2  127.62    8.62
   3  11   2  148.42    8.76
  -3  11  -2  133.86    8.51
  -3 -11   2  153.54    8.83
   3 -11  -2  139.89    8.51
   3  11   2  153.11    8.52
  -3 -11   2  142.24    8.47
   3 -11  -2  160.15    8.68
  -3  11   3    5.17    1.00
  -3  11   3    5.99    0.66
   3  11  -3    6.77    0.85
  -3  11   3    6.93    0.62
   3 -11   3    5.46    0.64
   3 -11   3    6.11    0.92
  -3 -11  -3    8.13    0.91
   3  11   3    6.35    0.65
  -3  11  -3    5.36    0.96
  -3 -11   3    7.14    0.64
   3 -11  -3    5.68    0.73
   3  11   3    5.90    1.08
  -3 -11   3    4.79    0.85
   3 -11  -3    6.98    0.83
   3 -11   4   87.63    5.92
   3 -11   4   88.20    5.61
  -3  11   4   95.15    5.60
  -3  11   4   94.24    5.63
   3  11   4  100.01    5.63
  -3 -11   4   83.02    5.85
   3 -11  -4   97.28    5.66
   3 -11  -4  107.28    5.76
   4 -11   0   21.80    1.51
  -4  11   0   21.38    1.49
  -4 -11   0   25.27    1.76
   4 -11   0   24.42    1.83
  -4  11   0   24.13    1.70
   4 -11   0   22.02    1.61
   4  11   0   24.19    1.64
  -4  11   0   22.12    1.51
  -4  11   1    0.60    0.24
   4  11  -1    0.16    0.23
   4 -11   1    0.46    0.26
   4 -11   1    0.95    0.34
  -4 -11  -1    0.03    0.35
  -4  11   1    0.69    0.28
  -4  11   1    0.27    0.47
   4  11   1   -0.09    0.35
  -4  11  -1    0.46    0.37
   4  11   1    0.17    0.22
   4 -11  -1    0.79    0.27
   4 -11  -1    1.83    0.51
  -4  11  -1    0.68    0.24
  -4  11   2   28.84    2.21
  -4 -11  -2   29.75    1.95
   4 -11   2   27.93    2.28
  -4  11   2   27.14    1.77
   4  11  -2   28.95    1.89
   4 -11   2   26.35    1.81
  -4  11   2   28.03    1.80
   4 -11   2   29.04    1.77
   4  11   2   29.41    1.80
   4 -11  -2   29.96    1.89
  -4 -11   2   27.99    1.75
  -4  11  -2   24.94    1.90
   4  11   2   26.64    2.04
   4 -11  -2   24.85    2.02
  -4  11  -2   26.70    1.81
  -4 -11   2   29.67    2.24
  -4  11   3   -0.86    0.88
  -4 -11  -3    0.27    0.34
   4 -11   3    0.10    0.24
   4  11  -3   -0.08    0.28
   4 -11   3    1.14    0.62
   4 -11   3    0.12    0.28
   4  11   3   -0.06    0.25
  -4 -11   3   -0.08    0.31
   4 -11  -3   -0.42    0.52
  -4  11  -3    0.40    0.56
  -4  11  -3    0.57    0.42
   4 -11   4   11.78    1.06
   4 -11   4   12.47    1.61
   4  11  -4   13.32    0.99
  -4  11   4   13.29    1.00
   4  11   4   13.17    1.06
   4 -11  -4   12.41    1.28
   5  11   0   73.23    4.45
   5  11   0   75.93    4.43
  -5 -11   0   75.38    4.54
  -5  11   0   76.27    4.53
   5 -11   0   70.83    4.51
   5 -11   0   74.42    4.54
   5  11   0   78.15    4.51
  -5  11   0   68.16    4.44
   5  11  -1   30.90    1.89
  -5  11   1   26.54    1.84
  -5 -11  -1   32.66    1.98
   5 -11   1   24.65    1.85
   5  11  -1   30.23    1.86
  -5  11   1   30.01    2.07
   5  11  -1   32.30    1.91
   5 -11   1   29.86    2.16
   5 -11   1   24.61    1.90
   5 -11  -1   27.76    2.01
   5  11   1   29.59    1.86
  -5 -11   1   31.32    2.06
   5  11   1   29.29    1.95
  -5  11  -1   26.68    1.94
   5 -11  -1   29.30    1.91
  -5  11  -1   26.42    1.85
   5 -11   2   60.34    3.84
   5 -11   2   58.66    3.54
   5  11  -2   58.56    3.59
  -5  11   2   55.44    3.54
  -5  11   2   65.20    3.80
  -5 -11  -2   55.52    3.62
   5 -11   2   54.26    3.58
  -5  11  -2   52.68    3.57
   5  11   2   59.39    3.57
   5 -11  -2   60.20    3.59
   5  11   2   59.55    3.72
  -5 -11   2   65.26    3.82
   5 -11  -2   59.10    3.72
  -5  11  -2   54.53    3.62
  -5  11   3   20.46    1.41
  -5 -11  -3   24.86    1.58
  -5  11   3   21.57    2.10
   5 -11   3   18.16    1.48
   5 -11   3   19.25    1.92
   5  11  -3   23.23    1.38
   5 -11   3   18.29    1.40
  -5 -11   3   21.36    1.46
  -5 -11   3   21.21    1.94
  -5  11  -3   20.14    1.58
   5 -11  -3   17.49    1.78
   5 -11  -3   21.65    1.74
   5  11   3   21.58    1.47
   6  11   0    6.81    0.72
   6 -11   0    5.57    0.95
  -6  11   0    6.31    0.85
   6 -11   0    7.46    0.76
  -6 -11   0    7.69    0.88
  -6  11   0    7.37    0.73
   6  11   0    5.53    0.70
  -6 -11  -1   71.34    4.45
   6  11  -1   74.00    4.39
  -6  11   1   78.46    4.49
   6 -11   1   78.55    4.58
   6 -11   1   68.39    4.47
  -6  11   1   68.93    4.43
   6  11  -1   76.06    4.42
   6  11  -1   73.44    4.40
   6  11   1   73.42    4.43
   6 -11  -1   77.06    4.53
  -6  11  -1   71.62    4.44
  -6  11  -1   65.91    4.43
   6  11   1   74.82    4.46
   6 -11  -1   74.48    4.46
  -6 -11   1   72.44    4.50
  -6 -11  -2   17.49    1.25
   6 -11   2   15.09    2.00
   6 -11   2   15.19    1.60
   6  11  -2   14.85    1.15
   6  11   2   15.53    1.24
  -6 -11   2   16.91    1.53
   6  11   2   13.29    1.30
  -6  11  -2   14.98    1.27
   6 -11  -2   15.89    1.51
   6 -11  -2   18.22    1.17
  -6  11  -2   17.14    1.31
   0 -12   0   78.93    5.19
   0 -12   0   82.87    4.75
   0  12   0   81.36    4.75
   0 -12   0   80.77    4.74
   0 -12   0   75.12    4.80
   0  12   0   84.14    5.04
   0  12  -1    0.31    0.44
   0  12   1    0.12    0.23
   0 -12   1   -0.11    0.71
   0  12  -1    0.16    0.18
   0 -12   1    0.14    0.19
   0 -12  -1   -0.24    0.60
   0 -12  -1    0.10    0.15
   0  12   1   -0.08    0.53
   0  12   2   90.75    5.79
   0 -12   2   87.64    5.45
   0 -12  -2   80.51    5.72
   0  12   2   98.01    5.44
   0 -12   2   90.15    5.90
   0 -12   2   97.30    5.42
   0 -12  -2   98.45    5.44
   0 -12  -3    0.46    0.48
   0 -12   3   -0.15    0.23
   0 -12   3   -0.21    0.57
   0 -12  -3   -0.17    0.23
   0  12   3   -0.08    0.21
   0 -12  -4   47.95    3.05
   0 -12   4   37.96    3.14
   0  12   4   48.12    2.77
   1  12   0   39.76    2.42
   1  12   0   43.76    2.74
   1 -12   0   37.95    2.51
  -1 -12   0   44.31    2.96
   1 -12   0   38.06    2.41
  -1 -12   0   39.94    2.41
  -1  12   0   38.54    2.73
   1 -12   0   39.21    2.99
  -1  12   0   40.07    2.43
   1 -12   1    6.45    0.58
   1 -12   1    6.07    0.48
   1  12  -1    6.02    0.52
  -1 -12  -1    6.27    0.52
   1 -12   1    5.90    0.63
  -1  12   1    5.70    1.16
  -1 -12  -1    7.31    1.30
   1 -12   1    6.17    1.08
  -1  12   1    6.64    0.57
   1  12  -1    7.33    1.00
  -1 -12   1    5.88    0.51
  -1 -12   1    7.15    1.50
  -1  12  -1    5.62    1.00
  -1 -12   1    5.55    0.60
   1  12   1    5.98    0.62
   1 -12  -1    5.11    0.67
   1  12   1    7.24    1.11
  -1  12  -1    5.72    0.53
  -1 -12   1    5.68    0.49
   1 -12  -1    5.78    0.51
   1 -12  -1    6.29    1.33
  -1  12   2   19.61    1.14
   1 -12   2   16.82    1.21
  -1 -12  -2   17.96    1.17
   1 -12   2   18.99    1.19
  -1 -12  -2   19.26    1.67
  -1  12   2   17.04    1.77
  -1  12   2   18.78    1.19
   1 -12   2   16.72    1.98
  -1 -12   2   15.58    1.23
  -1 -12   2   18.54    1.17
   1 -12  -2   17.59    1.36
   1 -12  -2   18.13    1.17
   1  12   2   18.11    1.19
   1  12   2   16.18    1.74
  -1  12  -2   15.67    1.52
  -1 -12   2   15.91    1.84
   1 -12  -2   19.22    1.70
   1 -12   3    3.49    0.82
  -1  12   3    4.04    0.51
  -1 -12  -3    4.36    0.99
   1 -12   3    3.85    0.55
   1 -12   3    4.42    0.56
   1  12   3    3.94    0.51
  -1 -12   3    4.23    0.55
   1 -12  -3    5.40    0.97
  -1 -12   3    2.75    0.80
  -1 -12  -4   22.95    1.76
   1 -12   4   17.74    1.94
   1 -12   4   21.06    1.47
  -1  12   4   22.46    1.44
   1 -12  -4   24.67    1.76
   1  12   4   22.55    1.45
  -1 -12   4   18.38    1.89
  -2  12   0   19.79    1.64
   2  12   0   19.55    1.28
   2 -12   0   19.99    1.90
  -2 -12   0   21.82    1.83
  -2 -12   0   19.62    1.26
   2  12   0   19.98    1.59
   2 -12   0   19.10    1.27
  -2  12   1   20.24    1.27
   2  12  -1   21.64    1.61
  -2  12   1   19.80    1.29
  -2  12   1   19.72    1.76
   2 -12   1   17.95    2.06
   2  12  -1   19.69    1.25
   2 -12   1   19.70    1.26
  -2 -12  -1   19.97    1.26
   2 -12   1   17.84    1.34
   2  12   1   21.24    1.30
   2 -12  -1   17.42    1.55
  -2  12  -1   18.40    1.27
   2  12   1   22.52    1.68
   2 -12  -1   20.99    1.78
  -2  12  -1   18.57    1.59
   2 -12  -1   19.88    1.28
  -2  12   2   15.34    1.02
   2 -12   2   13.46    1.07
  -2  12   2   13.04    1.69
   2  12  -2   16.52    1.35
  -2 -12  -2   18.32    1.53
   2 -12   2   13.74    1.88
  -2 -12  -2   15.24    1.02
   2 -12   2   14.56    0.98
  -2  12   2   14.62    1.04
   2 -12   2   14.67    1.06
   2 -12  -2   17.11    1.48
  -2  12  -2   14.48    1.03
   2  12   2   16.53    1.07
   2 -12  -2   14.12    1.03
  -2 -12   2   14.18    1.73
  -2  12  -2   13.65    1.38
   2  12   2   13.95    1.53
  -2 -12   2   16.29    1.02
   2 -12   3   11.23    0.99
   2 -12   3   11.27    1.69
  -2  12   3   12.71    0.93
  -2  12   3   12.25    0.94
   2  12   3   13.75    0.98
   2 -12  -3   13.36    1.16
   2 -12  -3   14.75    1.31
  -2 -12   3   14.45    1.61
  -2 -12   3   14.42    0.98
  -2 -12  -4   14.29    1.29
  -2  12   4   11.86    0.92
   2 -12   4   11.55    0.97
  -2  12   4   10.25    0.92
   2 -12   4    9.30    1.61
   2 -12  -4   13.12    1.25
   2 -12  -4   13.36    1.01
   2  12   4   12.07    0.97
  -3 -12   0    1.04    0.57
  -3  12   0    0.98    0.48
   3  12   0    0.70    0.40
   3  12   0    0.92    0.25
   3  12  -1    2.38    0.50
   3 -12   1    3.24    0.61
   3  12  -1    1.77    0.28
   3 -12   1    2.89    0.46
  -3  12   1    1.59    0.61
  -3 -12  -1    1.89    0.55
  -3  12  -1    1.62    0.50
  -3 -12   1    2.01    0.68
   3  12   1    1.70    0.51
   3  12   1    1.76    0.30
   3 -12  -1    2.19    0.46
   3  12  -2    7.91    0.92
  -3  12   2    6.88    1.50
  -3 -12  -2    7.75    0.64
  -3  12   2    8.74    0.69
   3 -12   2    8.47    0.76
   3 -12   2    8.20    0.67
  -3  12   2    7.78    0.71
   3  12   2    7.12    0.71
   3  12   2    5.88    1.14
  -3 -12   2    6.14    1.40
  -3 -12   2    7.82    0.67
   3 -12  -2    8.34    1.13
  -3  12  -2    8.37    0.73
  -3  12  -2    6.77    1.24
  -3 -12  -3    1.93    0.49
   3 -12   3    1.92    0.75
  -3  12   3    2.43    0.47
  -3 -12   3    0.35    0.64
   3  12   3    1.44    0.33
   3 -12  -3    1.28    0.53
  -3 -12   3    1.77    0.34
   3 -12   4    1.06    0.74
   3 -12   4    1.61    0.36
  -3 -12  -4    1.00    0.47
  -3  12   4    1.42    0.32
  -3 -12   4   -0.09    0.68
   3 -12  -4    0.91    0.43
   3  12   4    0.50    0.32
  -4  12   0   43.46    2.83
   4 -12   0   48.89    3.09
   4  12   0   48.55    2.83
  -4  12   0   46.50    3.02
   4  12   0   49.69    2.99
  -4 -12   0   49.77    3.06
   4 -12   0   41.96    2.93
   4 -12   0   42.94    2.83
  -4 -12  -1   58.69    3.53
  -4  12   1   55.08    3.37
   4 -12   1   55.64    3.35
   4  12  -1   50.59    3.34
  -4  12   1   57.68    3.60
   4  12  -1   54.78    3.32
  -4  12   1   53.90    3.36
   4  12  -1   57.78    3.49
   4 -12   1   49.34    3.40
   4 -12   1   56.68    3.67
   4  12   1   56.67    3.53
   4 -12  -1   56.30    3.52
   4 -12  -1   59.91    3.53
  -4  12  -1   50.70    3.35
  -4 -12   1   62.49    3.67
   4  12   1   56.90    3.37
  -4  12  -1   51.55    3.50
   4 -12   2   24.62    2.27
   4 -12   2   26.42    1.71
  -4  12   2   25.84    2.24
   4 -12   2   24.24    1.77
  -4  12   2   25.39    1.72
   4  12  -2   30.49    1.87
   4 -12  -2   25.37    2.02
   4 -12  -2   31.32    1.89
  -4  12  -2   25.30    1.76
   4  12   2   28.40    1.76
   4  12   2   27.04    2.01
  -4  12  -2   22.79    1.91
  -4 -12   2   31.56    2.24
   4 -12   3   43.05    3.24
  -4  12   3   43.59    2.68
   4 -12   3   42.70    2.64
   4 -12   3   38.88    2.70
  -4 -12   3   43.55    2.66
  -4 -12   3   41.70    3.13
  -4  12  -3   41.57    2.79
   4 -12  -3   50.04    2.82
   4  12   3   44.58    2.71
   5 -12   0    4.50    0.87
   5  12   0    3.48    0.67
  -5  12   0    3.24    0.58
  -5 -12   0    3.57    0.58
   5  12   0    3.94    0.66
   5  12   0    2.54    0.38
   5  12  -1    4.46    0.66
  -5  12   1    5.91    0.63
  -5 -12  -1    5.50    0.81
   5  12  -1    6.65    0.69
   5  12  -1    4.48    0.62
   5 -12   1    6.37    0.98
   5 -12   1    4.81    0.80
  -5  12   1    5.54    1.05
   5 -12  -1    5.98    0.71
   5 -12  -1    5.95    0.75
   5  12   1    4.62    0.67
  -5 -12   1    6.71    1.01
  -5  12  -1    4.25    0.90
  -5  12  -1    5.52    0.64
  -5  12   2    0.60    0.68
   5  12  -2    1.51    0.33
  -5 -12  -2    1.12    0.42
  -5 -12   2    1.13    0.67
  -5  12  -2    2.30    0.42
   5  12   2    1.12    0.36
  -5  12  -2    1.73    0.48
   6  12   0    1.65    0.38
  -6 -12   0    2.58    0.51
   6 -12   0    1.64    0.76
   6  12   0    1.48    0.41
   0 -13   0   -0.15    0.16
   0 -13   0    0.03    0.19
   0 -13   0   -0.30    0.72
   0 -13   0   -0.36    0.34
   0  13   0    0.00    0.21
   0  13   0    0.30    0.48
   0 -13   1  203.14   12.49
   0  13  -1  199.57   12.03
   0  13   1  213.35   12.06
   0 -13   1  201.69   12.02
   0  13  -1  196.64   12.30
   0 -13  -1  205.77   12.42
   0 -13   1  217.47   12.03
   0  13   1  218.52   12.36
   0 -13   1  199.84   12.07
   0 -13  -1  206.79   12.05
   0  13   2    0.02    0.22
   0 -13   2   -0.18    0.75
   0 -13  -2   -0.14    0.18
   0 -13   2    0.14    0.23
   0  13   2   -0.34    0.71
   0 -13  -2   -0.48    0.57
   0  13  -2   -0.05    0.51
   0 -13   2   -0.24    0.25
   0  13   3  180.41    9.57
   0 -13   3  146.00    9.95
   0 -13   3  153.24    9.55
   0 -13  -3  156.64    9.85
   0 -13   3  176.29    9.57
   0 -13   4   -0.50    0.70
   0  13   4   -0.22    0.26
   0 -13  -4   -0.41    0.46
   0 -13   4   -0.02    0.29
   1 -13   0   17.53    1.40
   1 -13   0   18.28    1.20
  -1 -13   0   20.94    1.21
  -1  13   0   17.28    1.29
   1  13   0   20.75    1.25
  -1  13   0   16.85    1.63
   1 -13   0   17.44    2.00
   1  13   0   20.73    1.65
   1 -13   1    4.68    0.65
   1  13  -1    5.88    1.02
   1  13  -1    3.91    0.50
   1 -13   1    4.26    0.44
   1 -13   1    6.41    1.09
  -1 -13  -1    4.81    0.47
  -1  13   1    5.45    1.21
  -1 -13  -1    7.05    1.28
   1 -13   1    5.20    0.54
  -1  13   1    5.09    0.55
  -1 -13   1    4.79    0.42
   1 -13  -1    3.63    0.65
   1  13   1    5.31    1.12
  -1 -13   1    5.44    0.62
   1 -13  -1    4.59    0.91
  -1  13  -1    4.27    0.50
  -1 -13   1    5.56    0.50
   1 -13  -1    4.04    0.48
  -1 -13   1    6.34    1.48
   1  13   1    4.90    0.56
  -1  13  -1    5.11    1.04
   1 -13   2   35.76    2.20
   1 -13   2   31.43    2.89
  -1  13   2   36.49    2.91
  -1 -13  -2   37.38    2.19
  -1  13   2   34.86    2.20
   1  13  -2   36.55    2.81
   1 -13   2   31.64    2.21
  -1 -13   2   37.65    2.21
   1  13   2   37.58    2.21
  -1 -13   2   40.44    2.89
   1 -13  -2   35.18    2.66
  -1  13  -2   31.83    3.13
   1 -13  -2   33.72    2.18
  -1 -13   2   38.00    2.17
   1 -13  -2   32.98    2.32
   1 -13   3    2.51    0.85
  -1  13   3    2.63    0.51
   1 -13   3    3.69    0.57
  -1 -13   3    4.20    0.59
   1  13   3    2.57    0.52
  -1 -13   3    1.83    0.76
  -1 -13   3    3.75    0.57
   1 -13   4    9.77    0.95
   1 -13   4    7.67    1.68
  -1 -13  -4   12.72    1.36
  -1  13   4   11.70    0.91
   1  13   4   11.84    0.93
  -1 -13   4   10.39    1.63
   1 -13  -4   12.35    1.33
  -2 -13   0    0.81    0.20
   2 -13   0    0.78    0.71
   2  13   0    0.94    0.47
  -2  13   0    0.70    0.55
   2 -13   0    0.49    0.20
  -2 -13   0    0.37    0.66
   2 -13   0    0.31    0.39
  -2  13   0    0.84    0.25
   2  13  -1  236.54   13.56
  -2 -13  -1  237.90   13.33
   2  13  -1  226.59   13.30
   2 -13   1  214.31   13.36
   2 -13   1  223.58   13.74
   2 -13   1  237.25   13.31
  -2  13   1  223.88   13.59
  -2  13   1  229.79   13.33
  -2 -13   1  240.98   13.68
  -2  13  -1  211.24   13.53
   2 -13  -1  237.98   13.64
   2 -13  -1  210.31   13.43
  -2  13  -1  211.88   13.35
   2  13   1  244.22   13.59
   2  13   1  243.02   13.34
   2 -13  -1  221.06   13.32
  -2 -13  -2   -0.12    0.20
  -2  13   2   -0.10    0.21
  -2 -13  -2    0.23    0.51
   2 -13   2    0.24    0.26
   2 -13   2    0.24    0.26
   2 -13   2   -0.90    0.75
  -2  13   2   -0.02    0.22
  -2 -13   2    0.40    0.26
  -2  13  -2    0.30    0.23
   2  13   2   -0.17    0.23
   2 -13  -2    0.20    0.51
  -2 -13   2    0.15    0.28
  -2 -13   2    0.42    0.76
   2 -13   3  157.28   10.21
  -2  13   3  171.94   10.20
  -2  13   3  191.63   10.19
   2 -13   3  158.63   10.63
  -2 -13   3  149.68   10.54
  -2 -13   3  168.57   10.17
   2 -13  -3  187.62   10.27
   2 -13  -3  194.17   10.48
   2  13   3  183.93   10.22
  -2 -13  -4    0.71    0.52
  -2  13   4   -0.21    0.28
   2 -13   4   -0.93    0.76
  -2  13   4    0.32    0.43
   2 -13   4    0.41    0.34
   2 -13  -4    0.68    0.49
   2 -13  -4    0.75    0.36
  -2 -13   4   -0.81    0.73
   2  13   4   -0.04    0.41
  -3  13   0   26.28    1.75
   3  13   0   29.61    1.76
   3 -13   0   29.69    2.24
  -3  13   0   27.26    2.10
   3 -13   0   25.35    1.74
   3 -13   0   26.02    1.95
   3  13   0   29.46    2.01
   3  13  -1    1.50    0.28
   3  13  -1    2.58    0.50
   3  13   1    1.79    0.31
   3  13   1    1.44    0.52
  -3  13   2   33.95    2.16
  -3  13   2   35.24    2.15
   3 -13   2   29.79    2.20
   3 -13   2   34.18    2.91
   3 -13   2   34.88    2.12
   3 -13  -2   38.84    2.44
   3  13   2   36.54    2.19
  -3 -13   2   35.50    2.12
  -3 -13   2   36.69    2.73
  -3  13  -2   30.28    2.17
  -3 -13  -3    1.97    0.52
   3 -13  -3    0.49    0.42
  -3 -13   3    2.61    0.87
   3  13   3    1.06    0.35
  -4 -13   0    1.85    0.56
  -4  13   0    1.02    0.59
   4  13   0    0.93    0.40
   4  13   0    1.26    0.30
   4 -13   0    2.28    0.49
  -4  13   1   20.41    1.41
   4 -13   1   18.87    1.40
  -4  13   1   20.32    1.84
   4  13  -1   23.50    1.69
  -4 -13  -1   25.02    1.70
   4 -13   1   22.72    1.90
   4 -13   1   18.40    1.52
  -4  13  -1   19.50    1.40
   4 -13  -1   23.59    1.67
   4 -13  -1   20.11    1.71
  -4 -13   1   22.04    1.83
  -4  13  -1   18.54    1.70
   4  13   1   21.34    1.43
   4 -13   2    2.17    0.44
   4 -13   2    2.88    0.81
   4 -13   2    1.21    0.31
  -4 -13  -2    1.99    0.52
   4  13   2    1.34    0.36
   4 -13  -2    2.11    0.66
  -4 -13   2    1.34    0.73
   4 -13   3   10.91    2.06
  -4 -13  -3   17.01    1.39
   4  13   3   13.92    1.24
   4 -13  -3   16.63    1.30
  -4  13  -3   14.64    1.32
  -4 -13   3   15.57    1.15
   5  13   0   77.32    4.37
   5 -13   0   71.15    4.41
  -5 -13   0   79.71    4.45
   5 -13   0   67.51    4.38
   5  13   0   70.82    4.26
  -5  13   0   64.86    4.39
  -5  13   0   64.09    4.26
   5  13  -1    0.59    0.30
  -5 -13  -1   -0.09    0.40
   5 -13   1    0.17    0.49
   5 -13   1   -0.33    0.42
  -5  13   1    0.68    0.29
  -5 -13   1   -0.55    0.53
   5  13   1   -0.19    0.30
   5 -13  -1    0.02    0.33
   5 -13  -1   -0.87    0.55
  -5  13  -1    0.48    0.31
   0 -14   0   15.53    1.07
   0 -14   0   17.69    1.10
   0 -14   0   16.86    1.31
   0  14   0   15.92    1.11
   0  14  -1    0.61    0.23
   0  14   1    0.63    0.25
   0 -14   2   41.24    3.11
   0  14   2   35.92    2.28
   0 -14  -2   37.06    2.80
   0 -14   2   35.71    2.27
   0 -14   2   34.86    2.31
   0  14   3    0.44    0.28
   0 -14   3    0.94    0.75
   0 -14   3    1.59    0.35
  -1 -14   0   36.41    2.65
   1 -14   0   29.05    2.16
   1 -14   0   31.64    1.98
  -1 -14   0   32.29    1.97
   1  14   0   32.98    2.00
  -1  14   0   31.43    2.00
   1 -14   0   33.30    2.70
   1 -14   1    5.45    0.58
   1  14  -1    3.78    0.51
  -1 -14  -1    4.17    0.48
   1 -14   1    4.87    1.00
   1 -14   1    3.83    0.69
   1 -14   1    3.92    0.44
  -1  14   1    4.95    0.61
  -1 -14  -1    6.32    1.33
   1 -14  -1    4.66    0.78
   1 -14  -1    3.93    0.49
   1  14   1    4.49    0.58
  -1 -14   1    5.66    0.54
  -1 -14   1    4.40    0.98
   1 -14  -1    5.16    0.94
  -1 -14   1    4.07    0.68
  -1 -14   1    4.73    0.42
  -1  14  -1    4.55    0.56
   1 -14   2   21.76    1.46
   1 -14   2   18.95    2.36
  -1  14   2   22.97    1.45
   1 -14   2   19.60    1.48
   1 -14  -2   24.72    2.03
   1  14   2   22.11    1.45
  -1 -14   2   22.97    1.42
  -1 -14   2   21.15    2.25
  -1 -14   2   20.79    1.47
   1 -14   3    1.50    0.89
  -1 -14  -3    2.87    0.69
   1 -14   3    2.01    0.41
  -1  14   3    2.36    0.38
  -1 -14   3    2.92    0.43
   1  14   3    2.65    0.40
  -1 -14   3    2.55    0.94
   2 -14   0    9.26    1.65
   2 -14   0    7.84    1.01
   2 -14   0    8.05    0.66
  -2  14   0    8.43    0.71
  -2 -14  -1   39.28    2.33
   2 -14   1   34.31    2.44
  -2  14   1   37.20    2.35
   2  14  -1   38.88    2.32
   2 -14   1   35.57    2.30
   2 -14   1   37.59    3.02
   2  14   1   40.68    2.36
   2 -14  -1   37.69    2.42
  -2  14  -1   36.75    2.33
   2 -14  -1   33.31    2.55
   2 -14  -1   40.65    2.84
  -2 -14   1   45.19    2.94
  -2  14   2    7.20    0.60
   2 -14   2    4.52    0.74
  -2  14   2    6.04    0.66
   2 -14  -2    7.37    1.29
  -2  14  -2    6.91    0.65
   2 -14   3   22.96    2.66
  -2  14   3   29.79    1.80
  -2  14   3   28.06    1.84
  -2 -14   3   27.14    2.57
   2  14   3   28.76    1.86
   2 -14  -3   29.97    2.00
   2 -14  -3   30.78    2.25
  -3  14   0    1.10    0.29
  -3 -14   0    0.82    0.62
   3 -14   0    1.06    0.68
   3  14   0    0.76    0.28
   3 -14   0    0.37    0.46
   3 -14   1   -0.14    0.64
  -3  14   1    0.57    0.26
   3 -14   1    0.01    0.37
   3  14  -1   -0.32    0.28
   3  14   1    0.11    0.27
   3 -14  -1   -0.33    0.53
   3 -14  -1   -0.30    0.53
  -3  14  -1    0.40    0.24
  -3 -14   1    0.37    0.67
   3 -14   2    1.78    0.94
   3 -14   2    1.80    0.43
   3 -14   2    1.52    0.29
   3  14   2    2.04    0.39
  -3 -14   2    1.39    0.83
  -3  14  -2    3.02    0.58
   3 -14  -2    2.85    0.61
   3 -14  -2    0.78    0.63
   3 -14   3    0.33    0.38
  -3 -14  -3    0.30    0.50
   3 -14   3    0.95    1.03
   3 -14  -3    0.50    0.50
   3 -14  -3   -0.67    0.59
  -3 -14   3   -1.14    0.83
   4 -14   0   44.61    3.14
   4 -14   0   56.46    3.35
   4  14   0   49.55    3.00
  -4  14   0   45.70    3.00
  -4  14   1   69.23    4.40
   4 -14   1   76.14    4.75
   4  14  -1   72.97    4.38
   4 -14   1   63.23    4.47
   4 -14  -1   72.74    4.59
  -4  14  -1   65.68    4.39
   4 -14  -1   82.65    4.63
   4  14   1   75.01    4.41
  -4 -14   1   81.86    4.71
  -4  14   2   25.26    1.67
   4 -14   2   18.42    2.22
   4 -14   2   20.49    1.69
  -4  14  -2   23.20    1.60
  -4 -14   2   26.03    2.19
   4  14   2   24.17    1.61
   4 -14  -2   22.62    1.98
   0 -15   0   -0.29    0.18
   0 -15   0    0.18    0.24
   0  15   0    0.03    0.24
   0 -15   0   -0.80    0.73
   0 -15   1   28.56    2.02
   0 -15   1   29.48    2.69
   0  15  -1   27.79    1.97
   0 -15   1   31.81    1.93
   0 -15   1   31.01    1.89
   0  15   1   32.02    1.96
   0 -15  -1   35.90    2.65
   0 -15   2   -0.12    0.86
   0  15   2   -0.23    0.27
   0 -15   2    0.26    0.31
   0 -15  -2    0.57    0.71
   0 -15   2   -0.16    0.31
   0  15   3   22.93    1.53
   0 -15   3   21.07    1.57
  -1 -15   0    0.15    0.73
   1 -15   0    0.30    0.20
  -1  15   0    0.80    0.26
  -1 -15   0    0.63    0.20
   1 -15   0    0.95    0.29
   1 -15   0    0.70    0.48
   1  15   0    0.18    0.26
   1 -15   0    0.66    0.80
   1 -15   1    2.95    0.50
  -1  15   1    3.00    0.56
   1 -15   1    3.64    0.63
   1 -15   1    3.55    0.98
  -1 -15   1    3.95    0.69
   1 -15  -1    2.12    0.63
  -1  15  -1    3.90    0.52
  -1 -15   1    4.85    0.99
   1  15   1    2.94    0.58
  -1 -15   1    4.42    0.41
   1 -15  -1    3.69    0.91
  -1  15   2    0.07    0.27
   1 -15   2   -0.03    0.88
   1 -15   2    0.32    0.33
  -1 -15  -2    1.00    0.71
   1 -15  -2    0.83    0.72
  -1 -15   2    0.12    0.84
   1  15   2   -0.25    0.30
  -1 -15   2   -0.03    0.33
  -1 -15   2    0.52    0.29
   1 -15   3    2.70    0.46
  -1 -15   3    3.21    0.47
   2  15   0    7.98    0.76
  -2  15   0    9.29    0.75
   2 -15   0    9.86    1.77
  -2 -15   0    9.72    0.69
  -2 -15   0   11.94    1.59
   2 -15   0    6.96    0.70
   2 -15   0    6.87    1.14
  -2 -15  -1    1.39    0.69
   2 -15   1    0.37    0.81
  -2  15   1    1.06    0.29
   2 -15   1    0.70    0.24
   2 -15   1    0.56    0.43
   2 -15  -1    1.38    0.61
   2 -15  -1    1.45    0.77
   2  15   1    0.73    0.31
  -2 -15   1    1.39    0.80
  -2  15   2    1.47    0.34
   2 -15   2    1.51    1.04
   2 -15   2    0.92    0.39
  -2 -15  -2    2.69    0.75
  -2 -15   2    1.32    0.40
   2  15   2    0.99    0.35
   2 -15  -2    1.71    0.71
  -2 -15   2    1.56    0.89
  -2  15  -2    1.69    0.38
   2 -15  -2    0.25    0.58
   3 -15   0   53.85    3.57
  -3  15   0   44.07    3.06
   3  15   0   50.03    3.07
  -3 -15   0   58.58    3.50
   3 -15   0   45.92    3.24
  -3  15   1   10.42    0.82
  -3 -15  -1   11.98    1.43
   3  15  -1    6.80    1.11
   3 -15   1    8.68    0.84
   3 -15   1    7.09    1.71
   3 -15   1    7.22    1.05
  -3  15  -1    9.70    0.80
   3 -15  -1   12.12    1.47
   3 -15  -1    6.10    1.29
  -3 -15   1   10.26    1.59
   3  15   1    8.21    0.84
   0 -16   0    2.03    0.31
   0  16   0    2.33    0.36
   0  16  -1    0.22    0.27
   0 -16  -1    1.02    0.83
   0 -16   1    0.18    0.29
   0  16   1   -0.19    0.28
   0 -16   1   -0.32    0.40
   0 -16   1    0.20    0.89
   0  16   2    3.21    0.47
   0 -16   2    3.33    0.50
   1 -16   0  118.26    7.84
   1 -16   0  137.90    7.71
   1 -16   0  138.46    8.27
  -1 -16   0  127.92    7.70
   1  16   0  130.52    7.72
  -1  16   0  125.81    7.72
  -1 -16   0  138.70    8.20
   1  16  -1    6.38    0.70
   1 -16   1    5.95    1.01
  -1 -16  -1    7.54    1.64
   1 -16   1    5.66    0.59
   1 -16   1    7.11    1.29
  -1  16   1    7.22    0.74
   1  16   1    6.19    0.74
  -1 -16   1    5.53    0.90
  -1 -16   1    7.07    1.69
  -1  16  -1    7.46    0.69
   1 -16  -1    8.72    1.79
  -1 -16   1    7.33    0.82
   2 -16   0   13.14    1.50
  -2 -16   0   14.86    1.09
   2  16   0   13.20    1.11
  -2  16   0   13.89    1.09
   2 -16   0   18.41    2.08
  -2 -16   0   17.49    1.84
  -2  16   1   22.51    1.49
   2 -16   1   18.98    1.69
   2 -16   1   22.36    2.48
   2 -16   1   19.68    1.41
   2  16  -1   22.08    1.46
  -2 -16   1   24.86    2.26
   2  16   1   23.44    1.53
   2 -16  -1   19.51    1.88
   2 -16  -1   25.66    2.31
  -2  16  -1   20.73    1.46
   0   0   0    0.00    0.00
;
loop_
_space_group_symop_operation_xyz
'x, y, z'
'-x, -y, z'
'-x+1/2, y+1/2, -z+1/2'
'x+1/2, -y+1/2, -z+1/2'
'-x, -y, -z'
'x, y, -z'
'x-1/2, -y-1/2, z-1/2'
'-x-1/2, y-1/2, z-1/2'
loop_
_atom_site_label
_atom_site_type_symbol
_atom_site_fract_x
_atom_site_fract_y
_atom_site_fract_z
_atom_site_U_iso_or_equiv
_atom_site_adp_type
_atom_site_occupancy
_atom_site_site_symmetry_order
_atom_site_calc_flag
_atom_site_refinement_flags_posn
_atom_site_refinement_flags_adp
_atom_site_refinement_flags_occupancy
_atom_site_disorder_assembly
_atom_site_disorder_group
Ba1 Ba 0.30482(6) 0.26921(3) 0.0000 0.0119(2) Uani 1 2 d S T P . .
Mn1 Mn 0.0000 0.0000 0.0000 0.0108(3) Uani 1 4 d S T P . .
Se1 Se 0.76363(10) 0.42182(4) 0.0000 0.0102(3) Uani 1 2 d S T P . .
O1 O 0.6103(5) 0.3885(2) 0.2359(5) 0.0140(6) Uani 1 1 d . . . . .
O2 O 0.9208(8) 0.3220(4) 0.0000 0.0211(10) Uani 1 2 d S T P . .
Cl1 Cl 0.6736(2) 0.10477(14) 0.0000 0.0183(4) Uani 1 2 d S T P . .
loop_
_atom_site_aniso_label
_atom_site_aniso_U_11
_atom_site_aniso_U_22
_atom_site_aniso_U_33
_atom_site_aniso_U_23
_atom_site_aniso_U_13
_atom_site_aniso_U_12
Ba1 0.0109(3) 0.0132(3) 0.0115(3) 0.000 0.000 -0.00133(12)
Mn1 0.0142(7) 0.0115(6) 0.0066(6) 0.000 0.000 -0.0018(5)
Se1 0.0121(4) 0.0103(4) 0.0083(4) 0.000 0.000 -0.0013(2)
O1 0.0167(16) 0.0166(15) 0.0088(14) -0.0014(14) 0.0046(13) 0.0001(11)
O2 0.014(2) 0.027(3) 0.022(2) 0.000 0.000 0.003(2)
Cl1 0.0166(8) 0.0196(8) 0.0187(9) 0.000 0.000 0.0033(6)
loop_
_atom_type_symbol
_atom_type_description
_atom_type_scat_dispersion_real
_atom_type_scat_dispersion_imag
_atom_type_scat_source
O O 0.0106 0.0060 'International Tables Vol C Tables 4.2.6.8 and 6.1.1.4'
Cl Cl 0.1484 0.1585 'International Tables Vol C Tables 4.2.6.8 and 6.1.1.4'
Mn Mn 0.3368 0.7283 'International Tables Vol C Tables 4.2.6.8 and 6.1.1.4'
Se Se -0.0929 2.2259 'International Tables Vol C Tables 4.2.6.8 and 6.1.1.4'
Ba Ba -0.3244 2.2819 'International Tables Vol C Tables 4.2.6.8 and 6.1.1.4'
loop_
_geom_angle_atom_site_label_1
_geom_angle_atom_site_label_2
_geom_angle_atom_site_label_3
_geom_angle
_geom_angle_site_symmetry_1
_geom_angle_site_symmetry_3
O2 Ba1 O1 74.31(11) 1_455 7_565
O2 Ba1 O1 74.31(11) 1_455 4_455
O1 Ba1 O1 61.69(11) 7_565 4_455
O2 Ba1 O1 124.06(11) 1_455 .
O1 Ba1 O1 161.62(10) 7_565 .
O1 Ba1 O1 119.31(5) 4_455 .
O2 Ba1 O1 124.06(11) 1_455 6
O1 Ba1 O1 119.31(5) 7_565 6
O1 Ba1 O1 161.62(10) 4_455 6
O1 Ba1 O1 53.23(11) . 6
O2 Ba1 O2 110.07(12) 1_455 7_565
O1 Ba1 O2 52.36(11) 7_565 7_565
O1 Ba1 O2 107.48(10) 4_455 7_565
O1 Ba1 O2 114.71(11) . 7_565
O1 Ba1 O2 67.77(10) 6 7_565
O2 Ba1 O2 110.07(12) 1_455 7_566
O1 Ba1 O2 107.48(10) 7_565 7_566
O1 Ba1 O2 52.36(11) 4_455 7_566
O1 Ba1 O2 67.77(10) . 7_566
O1 Ba1 O2 114.71(11) 6 7_566
O2 Ba1 O2 125.40(18) 7_565 7_566
O2 Ba1 Cl1 154.35(11) 1_455 .
O1 Ba1 Cl1 83.75(7) 7_565 .
O1 Ba1 Cl1 83.75(7) 4_455 .
O1 Ba1 Cl1 78.27(7) . .
O1 Ba1 Cl1 78.27(7) 6 .
O2 Ba1 Cl1 63.83(9) 7_565 .
O2 Ba1 Cl1 63.83(9) 7_566 .
O2 Ba1 Cl1 67.39(5) 1_455 7_566
O1 Ba1 Cl1 130.74(7) 7_565 7_566
O1 Ba1 Cl1 78.64(7) 4_455 7_566
O1 Ba1 Cl1 63.92(6) . 7_566
O1 Ba1 Cl1 107.62(7) 6 7_566
O2 Ba1 Cl1 172.77(9) 7_565 7_566
O2 Ba1 Cl1 61.29(9) 7_566 7_566
Cl1 Ba1 Cl1 121.52(4) . 7_566
O2 Ba1 Cl1 67.39(5) 1_455 7_565
O1 Ba1 Cl1 78.64(7) 7_565 7_565
O1 Ba1 Cl1 130.74(7) 4_455 7_565
O1 Ba1 Cl1 107.62(7) . 7_565
O1 Ba1 Cl1 63.92(6) 6 7_565
O2 Ba1 Cl1 61.29(9) 7_565 7_565
O2 Ba1 Cl1 172.77(9) 7_566 7_565
Cl1 Ba1 Cl1 121.52(4) . 7_565
Cl1 Ba1 Cl1 111.88(6) 7_566 7_565
O2 Ba1 Se1 133.07(11) 1_455 .
O1 Ba1 Se1 141.25(6) 7_565 .
O1 Ba1 Se1 141.25(6) 4_455 .
O1 Ba1 Se1 26.93(6) . .
O1 Ba1 Se1 26.93(6) 6 .
O2 Ba1 Se1 89.31(9) 7_565 .
O2 Ba1 Se1 89.31(9) 7_566 .
Cl1 Ba1 Se1 72.57(3) . .
Cl1 Ba1 Se1 88.00(3) 7_566 .
Cl1 Ba1 Se1 88.00(3) 7_565 .
O2 Ba1 Se1 95.46(7) 1_455 7_565
O1 Ba1 Se1 26.42(6) 7_565 7_565
O1 Ba1 Se1 82.24(6) 4_455 7_565
O1 Ba1 Se1 137.87(6) . 7_565
O1 Ba1 Se1 94.42(6) 6 7_565
O2 Ba1 Se1 26.65(9) 7_565 7_565
O2 Ba1 Se1 115.11(9) 7_566 7_565
Cl1 Ba1 Se1 68.09(2) . 7_565
Cl1 Ba1 Se1 157.13(3) 7_566 7_565
Cl1 Ba1 Se1 72.09(3) 7_565 7_565
Se1 Ba1 Se1 114.835(16) . 7_565
O1 Mn1 O1 180.00(16) 8_655 4_455
O1 Mn1 O1 96.46(15) 8_655 7_565
O1 Mn1 O1 83.54(15) 4_455 7_565
O1 Mn1 O1 83.54(15) 8_655 3_545
O1 Mn1 O1 96.46(15) 4_455 3_545
O1 Mn1 O1 180.00(16) 7_565 3_545
O1 Mn1 Cl1 87.10(9) 8_655 5_655
O1 Mn1 Cl1 92.90(9) 4_455 5_655
O1 Mn1 Cl1 92.90(9) 7_565 5_655
O1 Mn1 Cl1 87.10(9) 3_545 5_655
O1 Mn1 Cl1 92.90(9) 8_655 1_455
O1 Mn1 Cl1 87.10(9) 4_455 1_455
O1 Mn1 Cl1 87.10(9) 7_565 1_455
O1 Mn1 Cl1 92.90(9) 3_545 1_455
Cl1 Mn1 Cl1 180.00(8) 5_655 1_455
O1 Mn1 Ba1 138.12(8) 8_655 .
O1 Mn1 Ba1 41.88(8) 4_455 .
O1 Mn1 Ba1 41.88(8) 7_565 .
O1 Mn1 Ba1 138.12(8) 3_545 .
Cl1 Mn1 Ba1 90.59(4) 5_655 .
Cl1 Mn1 Ba1 89.41(4) 1_455 .
O1 Mn1 Ba1 41.88(8) 8_655 5
O1 Mn1 Ba1 138.12(8) 4_455 5
O1 Mn1 Ba1 138.12(8) 7_565 5
O1 Mn1 Ba1 41.88(8) 3_545 5
Cl1 Mn1 Ba1 89.41(4) 5_655 5
Cl1 Mn1 Ba1 90.59(4) 1_455 5
Ba1 Mn1 Ba1 180.0 . 5
O2 Se1 O1 101.20(15) . 6
O2 Se1 O1 101.20(15) . .
O1 Se1 O1 97.9(2) 6 .
O2 Se1 Ba1 97.35(19) . .
O1 Se1 Ba1 49.69(10) 6 .
O1 Se1 Ba1 49.69(10) . .
O2 Se1 Ba1 55.84(8) . 7_665
O1 Se1 Ba1 47.12(10) 6 7_665
O1 Se1 Ba1 115.99(10) . 7_665
Ba1 Se1 Ba1 73.013(10) . 7_665
O2 Se1 Ba1 55.84(8) . 7_666
O1 Se1 Ba1 115.99(10) 6 7_666
O1 Se1 Ba1 47.12(10) . 7_666
Ba1 Se1 Ba1 73.013(10) . 7_666
Ba1 Se1 Ba1 95.750(16) 7_665 7_666
Se1 O1 Mn1 123.06(16) . 3
Se1 O1 Ba1 106.46(14) . 7_666
Mn1 O1 Ba1 107.21(11) 3 7_666
Se1 O1 Ba1 103.37(12) . .
Mn1 O1 Ba1 113.82(12) 3 .
Ba1 O1 Ba1 100.47(9) 7_666 .
Se1 O2 Ba1 144.3(3) . 1_655
Se1 O2 Ba1 97.51(13) . 7_665
Ba1 O2 Ba1 98.66(10) 1_655 7_665
Se1 O2 Ba1 97.51(13) . 7_666
Ba1 O2 Ba1 98.66(10) 1_655 7_666
Ba1 O2 Ba1 125.39(18) 7_665 7_666
Mn1 Cl1 Ba1 171.10(7) 1_655 .
Mn1 Cl1 Ba1 91.49(4) 1_655 7_666
Ba1 Cl1 Ba1 83.56(3) . 7_666
Mn1 Cl1 Ba1 91.49(4) 1_655 7_665
Ba1 Cl1 Ba1 83.56(3) . 7_665
Ba1 Cl1 Ba1 111.88(6) 7_666 7_665
loop_
_geom_bond_atom_site_label_1
_geom_bond_atom_site_label_2
_geom_bond_distance
_geom_bond_site_symmetry_2
Ba1 O2 2.686(5) 1_455
Ba1 O1 2.817(3) 7_565
Ba1 O1 2.817(3) 4_455
Ba1 O1 2.880(3) .
Ba1 O1 2.880(3) 6
Ba1 O2 3.077(2) 7_565
Ba1 O2 3.077(2) 7_566
Ba1 Cl1 3.2716(17) .
Ba1 Cl1 3.3004(11) 7_566
Ba1 Cl1 3.3004(11) 7_565
Ba1 Se1 3.6737(8) .
Ba1 Se1 3.6866(5) 7_565
Mn1 O1 2.168(3) 8_655
Mn1 O1 2.168(3) 4_455
Mn1 O1 2.168(3) 7_565
Mn1 O1 2.168(3) 3_545
Mn1 Cl1 2.5878(16) 5_655
Mn1 Cl1 2.5878(16) 1_455
Mn1 Ba1 4.0306(4) 5
Se1 O2 1.668(5) .
Se1 O1 1.710(3) 6
Se1 O1 1.710(3) .
Se1 Ba1 3.6866(5) 7_665
Se1 Ba1 3.6866(5) 7_666
O1 Mn1 2.168(3) 3
O1 Ba1 2.817(3) 7_666
O2 Ba1 2.686(5) 1_655
O2 Ba1 3.077(2) 7_665
O2 Ba1 3.077(2) 7_666
Cl1 Mn1 2.5879(16) 1_655
Cl1 Ba1 3.3004(11) 7_666
Cl1 Ba1 3.3004(11) 7_665
