#------------------------------------------------------------------------------
#$Date: 2022-03-22 11:09:49 +0200 (Tue, 22 Mar 2022) $
#$Revision: 273888 $
#$URL: file:///home/coder/svn-repositories/cod/cif/8/10/48/8104825.cif $
#------------------------------------------------------------------------------
#
# This file is available in the Crystallography Open Database (COD),
# http://www.crystallography.net/
#
# All data on this site have been placed in the public domain by the
# contributors.
#
data_8104825
loop_
_publ_author_name
'Zhao, Han-Lin'
'Jiang, Jin-Ke'
'Chu, Yu-Tong'
'Li, Gang-Mei'
'Li, Xi-Xi'
'Jin, Xin'
_publ_section_title
;
 Crystal structure of
 poly[diammine-bis(\m4-4-hydroxypyridine-3-sulfonato-\k5 N:O,
 O&#x2032;:O&#x2032;&#x2032;:O&#x2032;&#x2032;)(\m2-pyrazinyl-\k2
 N:N&#x2032;)tetrasilver(I)], C7H8Ag2N3O4S
;
_journal_issue                   2
_journal_name_full
'Zeitschrift f\"ur Kristallographie - New Crystal Structures'
_journal_page_first              341
_journal_page_last               342
_journal_paper_doi               10.1515/ncrs-2020-0537
_journal_volume                  236
_journal_year                    2021
_chemical_formula_moiety         'C7 H8 Ag2 N3 O4 S'
_chemical_formula_sum            'C7 H8 Ag2 N3 O4 S'
_chemical_formula_weight         445.96
_space_group_crystal_system      triclinic
_space_group_IT_number           2
_space_group_name_Hall           '-P 1'
_space_group_name_H-M_alt        'P -1'
_atom_sites_solution_hydrogens   mixed
_cell_angle_alpha                112.877(4)
_cell_angle_beta                 90.054(4)
_cell_angle_gamma                102.568(4)
_cell_formula_units_Z            2
_cell_length_a                   7.3758(3)
_cell_length_b                   8.7361(4)
_cell_length_c                   9.2906(4)
_cell_measurement_reflns_used    4030
_cell_measurement_temperature    293(2)
_cell_measurement_theta_max      29.4960
_cell_measurement_theta_min      5.0600
_cell_volume                     535.90(4)
_computing_cell_refinement       'CrysAlisPro 1.171.39.7e (Rigaku OD, 2015)'
_computing_data_collection       'CrysAlisPro 1.171.39.7e (Rigaku OD, 2015)'
_computing_data_reduction        'CrysAlisPro 1.171.39.7e (Rigaku OD, 2015)'
_computing_structure_refinement  'SHELXL-2017/1 (Sheldrick, 2017)'
_computing_structure_solution    'SHELXT 2014/5 (Sheldrick, 2014)'
_diffrn_ambient_temperature      293(2)
_diffrn_measured_fraction_theta_full 0.991
_diffrn_measured_fraction_theta_max 0.886
_diffrn_measurement_device       'four-circle diffractometer'
_diffrn_measurement_device_type  'XtaLAB Pro: Kappa dual offset/far'
_diffrn_measurement_method       '\w scans'
_diffrn_radiation_type           MoK\a
_diffrn_radiation_wavelength     0.71073
_diffrn_reflns_av_R_equivalents  0.0298
_diffrn_reflns_av_unetI/netI     0.0298
_diffrn_reflns_Laue_measured_fraction_full 0.991
_diffrn_reflns_Laue_measured_fraction_max 0.886
_diffrn_reflns_limit_h_max       10
_diffrn_reflns_limit_h_min       -10
_diffrn_reflns_limit_k_max       11
_diffrn_reflns_limit_k_min       -11
_diffrn_reflns_limit_l_max       11
_diffrn_reflns_limit_l_min       -12
_diffrn_reflns_number            8872
_diffrn_reflns_point_group_measured_fraction_full 0.991
_diffrn_reflns_point_group_measured_fraction_max 0.886
_diffrn_reflns_theta_full        25.000
_diffrn_reflns_theta_max         29.713
_diffrn_reflns_theta_min         5.033
_diffrn_source                   'fine-focus sealed X-ray tube'
_diffrn_source_type              'Enhance (Mo) X-ray Source'
_exptl_absorpt_coefficient_mu    3.854
_exptl_absorpt_correction_T_max  1.00000
_exptl_absorpt_correction_T_min  0.45903
_exptl_absorpt_correction_type   multi-scan
_exptl_absorpt_process_details
;
CrysAlisPro 1.171.39.7e (Rigaku Oxford Diffraction, 2015)
Empirical absorption correction using spherical harmonics,
 implemented in SCALE3 ABSPACK scaling algorithm.
;
_exptl_crystal_colour            colorless
_exptl_crystal_density_diffrn    2.764
_exptl_crystal_description       block
_exptl_crystal_F_000             426
_exptl_crystal_size_max          0.130
_exptl_crystal_size_mid          0.110
_exptl_crystal_size_min          0.040
_refine_diff_density_max         0.462
_refine_diff_density_min         -0.635
_refine_diff_density_rms         0.109
_refine_ls_extinction_coef       .
_refine_ls_extinction_method     none
_refine_ls_goodness_of_fit_ref   1.072
_refine_ls_hydrogen_treatment    constr
_refine_ls_matrix_type           full
_refine_ls_number_parameters     155
_refine_ls_number_reflns         2695
_refine_ls_number_restraints     0
_refine_ls_restrained_S_all      1.072
_refine_ls_R_factor_all          0.0319
_refine_ls_R_factor_gt           0.0235
_refine_ls_shift/su_max          0.000
_refine_ls_shift/su_mean         0.000
_refine_ls_structure_factor_coef Fsqd
_refine_ls_weighting_details
'w=1/[\s^2^(Fo^2^)+(0.0275P)^2^+0.1797P] where P=(Fo^2^+2Fc^2^)/3'
_refine_ls_weighting_scheme      calc
_refine_ls_wR_factor_gt          0.0571
_refine_ls_wR_factor_ref         0.0600
_reflns_Friedel_coverage         0.000
_reflns_Friedel_fraction_full    .
_reflns_Friedel_fraction_max     .
_reflns_number_gt                2260
_reflns_number_total             2695
_reflns_threshold_expression     'I > 2\s(I)'
_cod_data_source_file            suppl_j_ncrs-2020-0537_suppl.cif
_cod_data_source_block           shelx
_cod_database_code               8104825
_shelx_space_group_comment
;
The symmetry employed for this shelxl refinement is uniquely defined
by the following loop, which should always be used as a source of
symmetry information in preference to the above space-group names.
They are only intended as comments.
;
_shelx_estimated_absorpt_t_min   0.634
_shelx_estimated_absorpt_t_max   0.861
_shelx_res_file
;
TITL p-1_a.res in P-1
    shelx.res
    created by SHELXL-2017/1 at 08:37:22 on 08-Oct-2020
CELL  0.71073   7.3758   8.7361   9.2906  112.877   90.054  102.568
ZERR     2.00   0.0003   0.0004   0.0004    0.004    0.004    0.004
LATT   1
SFAC  C    H    AG   N    O    S
UNIT  14   16   4    6    8    2
MERG   2
EQIV $1 +X,1+Y,1+Z
EQIV $2 -X,1-Y,1-Z
EQIV $3 +X,1+Y,+Z
HTAB N3 O4_$1
HTAB N3 O3_$2
HTAB N3 O1_$3
MORE -1
FMAP   2   53   53
PLAN    1
SIZE     0.040   0.110   0.130
ACTA    50.00
BOND   $H
CONF
LIST   4
L.S.  20
WGHT    0.027500    0.179700
FVAR       0.42429
C1    1    0.219375    0.418671    0.375753    11.00000    0.03113    0.02408 =
         0.01984    0.00602    0.00138    0.00943
AFIX  43
H1    2    0.264188    0.456009    0.480280    11.00000   -1.20000
AFIX   0
C2    1    0.251061    0.266210    0.270134    11.00000    0.02461    0.02212 =
         0.01963    0.00919    0.00361    0.00927
C3    1    0.189748    0.204822    0.106965    11.00000    0.02405    0.01855 =
         0.02295    0.00688    0.00347    0.00672
C4    1    0.081570    0.306006    0.073026    11.00000    0.02788    0.02485 =
         0.02156    0.00871   -0.00424    0.00668
AFIX  43
H4    2    0.026056    0.269344   -0.028346    11.00000   -1.20000
AFIX   0
C5    1    0.057549    0.455413    0.185794    11.00000    0.02824    0.02415 =
         0.03372    0.01177    0.00091    0.01168
AFIX  43
H5    2   -0.010949    0.518109    0.156554    11.00000   -1.20000
AFIX   0
C6    1    0.481030   -0.367416    0.128947    11.00000    0.02665    0.02145 =
         0.02106    0.00559    0.00322    0.00568
AFIX  43
H6    2    0.469433   -0.276960    0.220765    11.00000   -1.20000
AFIX   0
C7    1    0.434236   -0.508679   -0.138193    11.00000    0.03221    0.02566 =
         0.01979    0.00781    0.00238    0.00748
AFIX  43
H7    2    0.389562   -0.518549   -0.235817    11.00000   -1.20000
AFIX   0
AG1   3    0.139355    0.769054    0.503522    11.00000    0.04161    0.02447 =
         0.03116    0.00475    0.00271    0.01557
AG2   3    0.331618   -0.148234   -0.017346    11.00000    0.07168    0.03228 =
         0.03404    0.01415    0.01234    0.03161
N1    4    0.127247    0.516779    0.336383    11.00000    0.03251    0.02270 =
         0.02923    0.00752    0.00646    0.01284
N2    4    0.415748   -0.375216   -0.008946    11.00000    0.02768    0.02229 =
         0.02039    0.00801    0.00107    0.00698
N3    4    0.134402    1.021151    0.661524    11.00000    0.03849    0.02430 =
         0.02721    0.00680   -0.00128    0.00996
AFIX   7
H3A   2    0.163851    1.034211    0.754794    11.00000   -1.50000
H3B   2    0.023312    1.033832    0.662323    11.00000   -1.50000
H3C   2    0.207193    1.105651    0.648564    11.00000   -1.50000
AFIX   0
O1    5    0.391521    0.241076    0.512584    11.00000    0.05675    0.03587 =
         0.01697    0.00902    0.00170    0.01712
O2    5    0.564241    0.183131    0.285001    11.00000    0.03332    0.07947 =
         0.03396    0.03052    0.00809    0.02814
O3    5    0.278849   -0.020778    0.282112    11.00000    0.05702    0.02406 =
         0.03372    0.00895   -0.00101    0.01804
O4    5    0.227065    0.075840   -0.003283    11.00000    0.04439    0.02400 =
         0.02039    0.00316   -0.00025    0.01754
S1    6    0.381471    0.158755    0.343214    11.00000    0.03161    0.02948 =
         0.01705    0.00926    0.00261    0.01486
HKLF    4




REM  p-1_a.res in P-1
REM R1 =  0.0235 for    2260 Fo > 4sig(Fo)  and  0.0319 for all    2695 data
REM    155 parameters refined using      0 restraints

END

WGHT      0.0275      0.1797

REM Highest difference peak  0.462,  deepest hole -0.635,  1-sigma level  0.109
Q1    1   0.3003  0.1984  0.3016  11.00000  0.05    0.46
;
_shelx_hkl_file
;
   0   0   3  373.32   10.75
   0   0  -3  406.41   10.72
   0   0   3  402.72   10.18
   0   0   4 2328.11   57.84
   0   0  -4 2332.30   57.63
   0   0   4 2360.04   56.91
   0   0  -5  156.82    5.71
   0   0   5  165.70    5.96
   0   0  -6 2097.44   52.67
   0   0  -7   34.77    3.04
   0   0  -7   29.37    2.98
   0   0  -8  542.02   19.17
   0   0  -8  572.48   17.83
   0   0  -9    1.41    1.70
   0   0  -9    3.00    3.55
   0   0  -9   -0.58    2.37
   0   0 -10   85.43    5.21
   0   0 -10   92.03    7.23
   0   0 -10   92.76    5.26
   0   1 -11   22.27    5.56
   0   1 -11   28.77    3.52
   0   1 -10   36.60    3.40
   0   1 -10   35.70    3.79
   0   1 -10   42.63    5.42
   0   1  -9  161.66    6.57
   0   1  -9  161.53    8.81
   0   1  -8   74.77    5.80
   0   1  -8   77.57    4.09
   0   1  -7  249.31   10.21
   0   1  -7  257.44    8.26
   0  -1   6  433.01   12.19
   0   1  -6  411.94   13.27
   0   1  -6  443.21   11.46
   0   1  -5  185.40    7.46
   0   1  -5  200.00    6.06
   0  -1   5  186.49    6.54
   0   1  -4 2068.62   50.37
   0  -1   4 2051.27   50.83
   0   1  -4 2083.21   51.73
   0   1  -4 2046.29   50.35
   0   1  -3 1662.65   40.75
   0   1  -3 1677.70   40.76
   0   1  -3 1652.22   41.61
   0  -1  -2  397.53   10.58
   0  -1  -2  399.89   10.78
   0   1   2  400.29   10.94
   0   1   2  425.24   11.11
   0   1   3  334.81    9.85
   0  -1  -3  343.89   10.05
   0  -1  -3  336.37    9.39
   0  -1  -3  343.03    9.81
   0  -1  -4   26.10    2.06
   0  -1  -4   23.92    2.27
   0  -1  -4   23.61    2.95
   0  -1  -5   22.60    2.56
   0  -1  -5   18.63    1.96
   0  -1  -6   14.19    2.71
   0  -1  -6   13.10    1.99
   0  -1  -7   31.70    3.51
   0  -1  -7   28.52    2.77
   0   1   8    0.18    0.94
   0  -1  -8    5.25    1.82
   0   1   9    7.58    2.73
   0  -1  -9    5.80    2.86
   0  -1  -9    9.25    2.16
   0  -1 -10    2.01    3.09
   0  -1 -10    2.93    1.94
   0   1  10    0.48    2.74
   0   2 -11   62.65    6.75
   0   2 -10   -1.38    1.80
   0   2 -10   -3.04    4.30
   0   2  -9  420.35   15.23
   0   2  -9  395.73   11.87
   0   2  -8  114.13    4.47
   0   2  -8   98.60    6.48
   0   2  -7  766.72   22.65
   0   2  -7  770.25   20.12
   0   2  -6  128.18    4.79
   0   2  -6  126.81    4.38
   0   2  -6  124.73    6.11
   0   2  -5  838.95   20.84
   0   2  -5  808.48   21.15
   0   2  -4  481.58   13.17
   0  -2   4  500.42   13.87
   0   2  -4  501.64   14.06
   0   2  -3 1450.34   36.31
   0  -2   3 1447.81   36.19
   0   2  -2 2294.38   55.03
   0  -2   2 2242.42   54.73
   0   2  -2 2225.54   54.76
   0   2   0 1452.84   35.55
   0  -2   0 1411.81   35.47
   0   2   1  193.24    6.05
   0  -2  -1  192.33    5.93
   0  -2  -2 2087.04   51.52
   0  -2  -2 2086.55   51.44
   0  -2  -2 2105.42   52.15
   0   2   2 2050.24   51.69
   0  -2  -3  245.78    7.82
   0  -2  -3  246.59    7.83
   0  -2  -3  247.11    8.60
   0   2   3  262.07    8.44
   0  -2  -4 1795.87   45.73
   0  -2  -4 1753.44   44.82
   0  -2  -4 1777.09   44.62
   0  -2  -4 1775.69   45.97
   0  -2  -5  290.43    9.64
   0  -2  -5  292.80   11.03
   0  -2  -5  304.94   10.53
   0  -2  -6  358.94    7.76
   0  -2  -6  372.69    9.11
   0  -2  -7   11.16    2.03
   0  -2  -7   12.28    3.18
   0   2   7   16.33    2.75
   0  -2  -7   15.79    3.76
   0  -2  -8  192.88    7.81
   0  -2  -8  204.87   10.27
   0   2   8  210.04    9.01
   0  -2  -9    1.18    2.28
   0   2   9    2.84    2.78
   0  -2  -9    1.02    1.52
   0  -2  -9    4.22    3.34
   0  -2  -9    3.14    3.81
   0   3 -11    5.36    4.43
   0   3 -10    1.71    1.28
   0   3 -10   -1.04    3.85
   0   3  -9    5.43    3.66
   0   3  -9    5.82    1.31
   0   3  -8   65.14    3.66
   0   3  -8   63.65    2.94
   0   3  -8   55.95    5.25
   0   3  -7   23.10    2.20
   0   3  -7   24.68    1.80
   0   3  -7   18.00    3.63
   0   3  -6  244.61    9.19
   0   3  -6  239.51    8.18
   0   3  -6  256.65    7.69
   0   3  -5   42.91    3.44
   0   3  -4  572.39   15.13
   0  -3   4  552.61   15.38
   0   3  -4  554.83   15.58
   0   3  -3  120.68    4.71
   0   3  -3  121.53    4.45
   0  -3   3  116.66    4.19
   0   3  -2  963.17   24.63
   0  -3   2  938.70   23.77
   0   3  -2  959.69   23.86
   0  -3   2  945.47   24.75
   0   3  -1  230.46    7.36
   0   3  -1  219.81    7.35
   0  -3   1  235.47    7.76
   0   3   0 2083.86   51.43
   0  -3   0 2048.09   51.28
   0   3   1    5.20    1.18
   0  -3  -1    4.46    1.54
   0  -3  -1    4.18    1.07
   0  -3  -2  631.44   18.36
   0  -3  -2  629.26   17.31
   0   3   2  635.31   17.65
   0  -3  -2  636.64   17.65
   0  -3  -3  192.14    7.70
   0   3   3  182.00    7.02
   0  -3  -3  188.22    6.65
   0  -3  -3  176.84    6.78
   0  -3  -4  194.27    5.64
   0  -3  -4  198.49    6.89
   0  -3  -4  190.15    5.39
   0  -3  -5   17.64    2.14
   0   3   5   17.63    2.63
   0  -3  -5   17.41    3.48
   0  -3  -5   15.97    3.36
   0   3   6  708.02   20.08
   0  -3  -6  594.98   20.03
   0  -3  -6  671.28   18.94
   0  -3  -6  585.05   20.67
   0  -3  -6  647.88   20.81
   0  -3  -7    1.11    3.07
   0   3   7    2.53    2.33
   0  -3  -7    0.80    3.37
   0  -3  -7    2.14    1.68
   0  -3  -7    2.83    2.20
   0  -3  -8  103.71    7.56
   0  -3  -8  102.78    6.85
   0  -3  -8   99.61    6.85
   0  -3  -8   94.28    5.23
   0   3   8  111.70    6.67
   0   3   9   13.46    3.51
   0  -3  -9   15.52    3.48
   0  -3  -9   15.79    2.64
   0  -3  -9   17.25    4.40
   0  -3  -9   18.48    4.85
   0   4 -12    9.85    4.94
   0   4 -11  179.68   10.00
   0   4 -10    1.50    1.39
   0   4 -10    0.73    3.58
   0   4 -10    0.81    0.90
   0   4  -9  622.82   16.64
   0   4  -9  647.83   18.63
   0   4  -9  665.60   20.57
   0   4  -8   -2.55    3.47
   0   4  -8    0.28    1.09
   0   4  -8    0.13    1.54
   0   4  -7  949.28   24.81
   0   4  -7  948.17   24.94
   0   4  -7  956.80   25.99
   0   4  -7  969.57   26.87
   0   4  -6   25.88    3.52
   0   4  -6   24.27    2.61
   0   4  -5 1736.45   41.93
   0   4  -5 1558.50   41.41
   0   4  -4   10.02    2.16
   0  -4   4    7.79    1.62
   0   4  -4    6.83    1.62
   0   4  -4    9.96    2.01
   0   4  -3 2793.58   67.72
   0  -4   3 2746.98   67.55
   0   4  -3 2767.93   68.62
   0   4  -2    0.11    1.21
   0  -4   2   -0.22    2.29
   0  -4   2    1.98    1.60
   0   4  -2    0.80    1.70
   0   4  -1 4221.62  103.89
   0  -4   1 4248.77  104.37
   0   4   0   98.92    4.58
   0  -4   0   93.09    4.31
   0   4   1 1019.85   27.63
   0  -4  -1 1050.30   27.80
   0  -4  -1 1027.96   27.36
   0   4   2   35.13    2.83
   0  -4  -2   35.54    3.02
   0  -4  -2   39.66    3.94
   0  -4  -2   33.17    2.56
   0   4   3  993.28   28.02
   0   4   3 1008.80   28.21
   0  -4  -3 1051.73   29.13
   0  -4  -3 1035.95   27.88
   0  -4  -3 1020.52   27.41
   0   4   4  136.21    5.87
   0  -4  -4  142.95    5.08
   0  -4  -4  144.33    6.88
   0  -4  -4  140.30    5.42
   0   4   4  149.90    5.98
   0   4   5  717.51   21.66
   0  -4  -5  712.94   20.57
   0  -4  -5  711.26   22.14
   0  -4  -5  700.09   22.48
   0  -4  -5  723.87   22.51
   0  -4  -6   23.85    2.69
   0   4   6   29.62    3.47
   0  -4  -6   29.22    4.45
   0  -4  -6   27.94    3.67
   0  -4  -6   30.96    4.65
   0   4   7   66.60    2.83
   0  -4  -7   68.35    4.48
   0  -4  -7   74.29    5.86
   0   4   7   90.83    5.97
   0  -4  -7   87.50    6.66
   0  -4  -7   74.67    6.54
   0  -4  -8   10.77    4.07
   0   4   8    9.49    3.19
   0  -4  -8    5.75    1.95
   0  -4  -8    4.48    4.05
   0  -4  -8    6.02    2.81
   0  -4  -9   49.77    6.23
   0   4   9   53.55    5.56
   0   5 -12   46.83    6.16
   0   5 -11   19.35    4.68
   0  -5  10   24.16    1.69
   0   5 -10   30.26    1.70
   0   5 -10   26.08    1.93
   0   5  -9  241.79   10.03
   0   5  -9  232.15    8.94
   0   5  -9  231.44    7.08
   0   5  -8    4.96    3.44
   0   5  -8    4.62    1.66
   0   5  -8   10.92    2.17
   0   5  -8    2.14    2.02
   0   5  -7  509.10   15.67
   0   5  -7  490.50   14.36
   0   5  -7  498.99   15.55
   0   5  -6   20.18    3.19
   0   5  -6   16.80    2.59
   0   5  -6   15.58    2.37
   0   5  -5  363.32   11.57
   0  -5   5  373.56   11.13
   0   5  -5  378.57   11.65
   0   5  -5  383.70   12.55
   0  -5   4   94.96    4.06
   0   5  -4  102.19    4.25
   0   5  -4  102.20    4.93
   0  -5   3  250.87    8.99
   0   5  -3  250.71    8.67
   0  -5   3  237.61    7.28
   0   5  -2  165.36    6.82
   0   5  -2  153.32    6.66
   0  -5   2  175.83    6.00
   0  -5   2  165.39    7.31
   0  -5   1  696.53   19.82
   0  -5   1  690.90   20.61
   0   5  -1  693.06   19.94
   0  -5   0  242.21    9.77
   0   5   0  249.28    9.16
   0  -5   0  253.27    8.83
   0   5   1   85.69    4.73
   0  -5  -1   88.18    4.48
   0  -5  -2   18.47    3.71
   0  -5  -2   19.02    2.83
   0   5   2   15.11    2.42
   0   5   2   16.69    2.67
   0  -5  -2   11.18    2.04
   0   5   3   15.38    2.78
   0  -5  -3   12.35    2.11
   0   5   3   11.68    2.36
   0  -5  -3   12.76    2.67
   0  -5  -3   14.40    3.99
   0  -5  -4  291.14   10.38
   0  -5  -4  289.08   12.27
   0  -5  -4  271.32   11.72
   0   5   4  295.03   11.23
   0  -5  -4  296.55   11.40
   0  -5  -4  287.43   10.84
   0   5   4  297.63   11.38
   0  -5  -5   67.26    6.16
   0  -5  -5   58.43    5.35
   0  -5  -5   62.86    5.26
   0  -5  -5   58.82    4.68
   0  -5  -5   64.41    4.22
   0   5   5   58.56    4.80
   0  -5  -6  170.96    9.33
   0   5   6  166.46    8.35
   0  -5  -6  148.07    8.61
   0  -5  -6  165.41    7.32
   0  -5  -6  162.91    9.25
   0  -5  -7    1.66    1.74
   0   5   7    1.59    2.47
   0  -5  -7    1.27    2.51
   0  -5  -7    2.15    4.23
   0  -5  -7    1.84    3.70
   0   5   8   48.76    5.45
   0  -5  -8   51.47    6.63
   0   6 -12   33.18    4.26
   0   6 -12   28.78    5.38
   0   6 -11   13.36    2.66
   0   6 -11   17.61    4.37
   0  -6  10  124.47    4.87
   0   6 -10  118.56    4.30
   0   6 -10  129.34    7.54
   0   6  -9  111.34    6.40
   0   6  -9  113.51    6.11
   0   6  -9  110.62    6.72
   0   6  -9   99.73    4.53
   0   6  -9  105.38    4.68
   0   6  -8  136.32    7.00
   0   6  -8  128.07    6.75
   0   6  -8  127.10    6.57
   0   6  -8  127.62    5.49
   0   6  -7   64.36    4.69
   0   6  -7   71.91    4.92
   0   6  -7   64.58    4.05
   0   6  -6   31.12    3.10
   0   6  -6   31.26    3.30
   0   6  -5  165.45    6.01
   0  -6   5  153.27    5.62
   0   6  -4  214.01    9.84
   0  -6   4  232.87    7.38
   0   6  -4  235.15    8.79
   0   6  -3  965.79   27.48
   0  -6   3  985.51   25.26
   0   6  -3  967.93   27.08
   0   6  -3  942.20   28.53
   0  -6   3 1000.40   27.65
   0  -6   2  117.27    5.03
   0   6  -2  107.36    5.73
   0  -6   2  113.40    6.90
   0   6  -2  119.99    6.12
   0   6  -1  404.06    9.65
   0  -6   1  409.40   10.88
   0   6  -1  392.50    9.47
   0  -6   0   28.74    4.77
   0   6   0   23.27    2.93
   0  -6   0   19.71    2.57
   0  -6   0   22.96    3.12
   0   6   1  699.31   21.08
   0  -6  -1  705.08   20.50
   0  -6  -1  677.45   20.99
   0   6   2   41.78    3.91
   0   6   2   38.35    3.69
   0  -6  -2   42.27    5.12
   0  -6  -2   37.36    3.85
   0  -6  -2   38.71    3.42
   0  -6  -3  528.06   18.62
   0   6   3  514.62   17.27
   0  -6  -3  514.13   17.10
   0   6   3  503.97   17.39
   0  -6  -3  553.72   16.74
   0  -6  -4   17.25    3.17
   0   6   4   12.29    3.08
   0  -6  -4   13.15    3.41
   0  -6  -4   16.98    3.31
   0   6   4   14.35    2.89
   0  -6  -4   19.72    4.76
   0  -6  -4   18.32    2.64
   0  -6  -5  126.05    7.00
   0  -6  -5  120.53    6.31
   0  -6  -5  124.87    8.54
   0   6   5  119.12    7.22
   0  -6  -5  124.10    7.83
   0  -6  -5  109.75    7.56
   0  -6  -6   11.33    4.62
   0  -6  -6    5.59    2.21
   0  -6  -6   11.96    4.00
   0   6   6    6.71    2.80
   0  -6  -6    5.90    2.88
   0   6   7   85.26    6.65
   0   7 -12    2.75    4.45
   0   7 -11   60.82    4.97
   0   7 -11   58.24    5.36
   0   7 -11   62.26    6.09
   0   7 -10    6.29    2.50
   0   7 -10    5.61    1.63
   0   7 -10    7.57    2.49
   0   7 -10    6.48    1.71
   0  -7  10    7.58    2.03
   0   7 -10   12.75    4.07
   0   7  -9   77.54    4.16
   0   7  -9   82.42    5.92
   0   7  -9   82.84    5.54
   0   7  -9   77.91    5.66
   0   7  -8   17.38    2.61
   0   7  -8   18.73    3.67
   0   7  -8   16.15    3.02
   0   7  -8   18.70    3.11
   0   7  -7  189.87    7.49
   0   7  -7  172.60    8.34
   0   7  -7  164.83    7.10
   0   7  -6   12.11    2.58
   0   7  -6   16.67    2.82
   0   7  -5  391.42   15.14
   0  -7   5  388.18   11.26
   0   7  -5  390.44   13.04
   0   7  -4    2.58    1.99
   0   7  -4   -1.29    2.77
   0   7  -4    2.00    2.64
   0  -7   4    3.39    1.98
   0   7  -3 1037.72   30.23
   0   7  -3 1062.67   30.05
   0   7  -3 1027.47   31.67
   0  -7   3 1094.93   30.68
   0  -7   3 1071.61   27.69
   0   7  -2    1.96    1.89
   0   7  -2    2.67    2.37
   0  -7   2    1.34    2.24
   0  -7   2    1.36    3.87
   0   7  -2    1.00    2.41
   0   7  -1  384.60   13.24
   0   7  -1  367.91   13.17
   0  -7   1  347.61   14.00
   0  -7   1  365.60   12.72
   0   7   0    2.76    2.12
   0  -7   0    6.29    2.07
   0  -7   0    5.70    4.24
   0   7   0    5.21    2.59
   0  -7   0    1.05    2.42
   0  -7  -1  227.19   10.00
   0  -7  -1  229.34    9.44
   0   7   1  249.00   10.26
   0  -7  -2   37.25    3.48
   0   7   2   34.42    4.09
   0   7   2   37.31    3.94
   0  -7  -2   29.63    5.24
   0  -7  -2   30.85    3.85
   0  -7  -3  294.60   11.87
   0   7   3  296.75   12.22
   0   7   3  285.77   11.94
   0  -7  -3  292.93   13.55
   0  -7  -3  277.87   11.30
   0  -7  -3  309.13   11.40
   0  -7  -4   10.08    4.85
   0  -7  -4    9.12    3.52
   0  -7  -4    4.55    2.04
   0   7   4    7.02    2.56
   0   7   4    4.23    2.64
   0  -7  -4    8.49    3.05
   0  -7  -4    6.79    3.03
   0   7   5  127.45    7.97
   0  -7  -5  136.67    7.21
   0  -7  -5  122.68    8.70
   0  -7  -5  149.73   10.12
   0  -7  -5  160.22    8.87
   0  -7  -6   10.52    4.20
   0   8 -11    6.79    2.81
   0   8 -11    2.38    2.47
   0   8 -10  124.50    7.38
   0   8 -10  108.85    7.17
   0   8 -10  110.85    6.92
   0  -8  10  104.16    5.60
   0   8  -9   44.59    4.60
   0   8  -9   49.47    4.81
   0   8  -9   50.17    4.72
   0   8  -9   49.09    3.69
   0   8  -8  206.63    8.23
   0   8  -8  196.69    9.55
   0   8  -8  206.59    8.16
   0   8  -8  194.93    9.47
   0   8  -7   39.87    4.18
   0   8  -7   36.96    3.68
   0   8  -7   33.23    4.78
   0   8  -6  431.10   14.28
   0   8  -6  401.63   16.40
   0   8  -5   16.54    3.66
   0   8  -5   11.93    3.18
   0  -8   5   14.56    1.84
   0  -8   4  391.59   11.47
   0   8  -4  384.24   15.76
   0   8  -4  411.24   14.77
   0   8  -4  429.37   14.46
   0   8  -3    1.17    2.40
   0  -8   3    6.15    4.15
   0  -8   3    2.94    2.32
   0   8  -3    2.95    2.40
   0   8  -3   -0.45    2.06
   0   8  -2   93.49    6.64
   0   8  -2   94.46    6.04
   0   8  -2   85.98    5.87
   0  -8   2   99.63    7.38
   0   8  -1    1.94    2.11
   0   8  -1    1.83    2.31
   0  -8   1    0.63    1.82
   0  -8   1    1.14    4.28
   0  -8   0  147.88    7.47
   0   8   0  156.27    8.02
   0  -8   0  140.22    7.79
   0   8   0  145.56    7.81
   0  -8  -1   43.92    4.73
   0  -8  -1   52.10    4.38
   0   8   1   43.93    4.66
   0   8   2   76.50    5.88
   0   8   2   81.21    6.18
   0  -8  -2   74.47    5.34
   0  -8  -2   93.57    6.34
   0  -8  -2   96.71    5.86
   0  -8  -2   86.27    8.07
   0   8   3   40.51    4.66
   0  -8  -3   35.57    4.58
   0   8   3   39.34    4.52
   0  -8  -3   42.70    6.62
   0  -8  -3   39.57    4.59
   0  -8  -3   37.77    3.95
   0  -8  -4   14.06    3.57
   0  -8  -4    9.78    3.97
   0  -8  -4   12.66    2.84
   0   8   4   10.88    3.12
   0  -8  -5   15.20    4.31
   0   9 -11    1.75    2.65
   0   9 -10  114.16    7.52
   0   9  -9   19.26    3.67
   0   9  -9   15.92    2.80
   0   9  -9   15.54    3.35
   0   9  -9   18.48    4.61
   0  -9   9   14.26    3.03
   0  -9   8   44.91    4.47
   0   9  -8   53.00    4.28
   0   9  -8   46.25    4.83
   0   9  -8   42.11    4.63
   0   9  -8   47.84    5.91
   0   9  -7   11.82    2.84
   0   9  -7    9.35    3.52
   0   9  -7    9.63    2.84
   0   9  -6   58.49    5.98
   0   9  -6   52.55    4.53
   0  -9   6   47.80    2.70
   0   9  -5   44.85    4.33
   0   9  -5   48.23    5.46
   0  -9   5   44.03    4.58
   0   9  -5   51.32    4.78
   0  -9   5   44.20    2.40
   0   9  -4   46.67    4.56
   0   9  -4   34.76    4.68
   0  -9   4   37.10    4.45
   0  -9   4   36.08    2.55
   0   9  -4   37.36    4.15
   0   9  -3  291.46   11.96
   0   9  -3  291.88   12.34
   0  -9   3  307.81   13.29
   0  -9   3  271.02   12.03
   0   9  -3  285.52   13.17
   0   9  -2   28.63    4.48
   0   9  -2   39.02    4.48
   0  -9   2   29.75    5.70
   0   9  -2   38.94    4.43
   0   9  -1  217.20   10.37
   0  -9   1  234.55   12.09
   0  -9   1  211.89   10.38
   0   9  -1  212.68   11.24
   0   9  -1  221.44   10.66
   0   9   0    2.90    2.48
   0  -9   0   -1.63    2.79
   0  -9   0    0.24    2.01
   0  -9   0    2.15    3.14
   0  -9   0    5.22    4.98
   0   9   0   -0.27    2.69
   0  -9  -1   88.28    6.69
   0  -9  -1  102.59    6.45
   0  -9  -1   92.84    5.65
   0   9   1   95.19    6.91
   0  -9  -2   14.89    3.05
   0   9   2   15.39    3.55
   0  -9  -2   18.65    3.88
   0  -9  -2   13.11    3.50
   0   9   3  133.44    8.46
   0  -9  -3  134.91    7.72
   0  10  -9    0.32    2.70
   0 -10   9    1.92    2.63
   0 -10   8   27.74    4.14
   0  10  -8   43.63    6.01
   0  10  -8   38.93    4.73
   0  10  -8   44.00    4.15
   0 -10   7    2.07    2.65
   0  10  -7   -0.40    3.24
   0  10  -7    1.92    2.43
   0  10  -6  132.01    8.09
   0  10  -6  127.77    9.14
   0  10  -6  146.70    7.60
   0 -10   6  119.28    7.60
   0  10  -5   19.61    3.59
   0  10  -5   12.65    3.65
   0 -10   5   11.87    3.53
   0  10  -5   21.42    3.51
   0  10  -4  151.33    8.81
   0 -10   4  154.25    8.89
   0  10  -4  159.04    9.79
   0  10  -4  155.17    8.43
   0  10  -3    0.37    2.74
   0 -10   3    1.69    4.74
   0  10  -3    1.55    2.41
   0 -10   3    1.15    2.84
   0  10  -3    0.81    2.82
   0  10  -2   48.91    5.22
   0  10  -2   36.23    5.18
   0  10  -2   39.91    4.82
   0 -10   2   42.22    6.56
   0  10  -1    7.08    2.90
   0 -10   1    9.86    3.48
   0  10  -1    7.68    3.29
   0 -10   1    4.04    4.97
   0  10  -1    7.86    3.23
   0  10   0   86.49    7.02
   0  10   1    1.70    2.73
   0 -11   9    4.31    3.02
   0 -11   8   58.91    5.83
   0  11  -7    4.52    2.85
   0 -11   7   -0.29    2.94
   0  11  -6  129.93    7.73
   0  11  -5   14.92    3.63
   0  11  -4  143.56    8.56
  -1  11  -3   40.34    5.20
  -1  11  -4   12.73    3.74
  -1  11  -5   25.60    4.51
  -1  11  -5   27.01    4.58
   1 -11   5   31.40    4.75
   1 -11   6    4.54    3.26
  -1  11  -6    2.78    2.97
  -1  11  -7   21.35    4.16
   1 -11   7   22.16    4.00
  -1  11  -8   -3.73    3.57
   1 -11   8    2.09    2.84
  -1  10   1   61.44    6.08
   1 -10  -1   70.28    5.77
   1 -10   0   13.61    3.19
   1 -10   0   19.11    4.36
  -1  10   0   11.77    3.35
  -1  10   0   15.75    3.84
  -1  10  -1  112.40    8.14
   1 -10   1  105.37    7.00
  -1  10  -1  103.20    7.40
   1 -10   1  112.02    9.04
  -1  10  -1  105.03    7.36
  -1  10  -2   72.51    6.11
  -1  10  -2   73.92    6.01
   1 -10   2   63.20    5.80
  -1  10  -2   69.92    6.36
  -1  10  -3  105.55    7.27
  -1  10  -3   90.86    7.26
   1 -10   3  102.49    7.14
  -1  10  -3  112.79    7.41
   1 -10   4   97.82    6.85
  -1  10  -4   89.80    7.07
  -1  10  -4   96.46    6.82
  -1  10  -4  101.66    7.12
  -1  10  -5   14.71    3.70
   1 -10   5   17.66    3.65
  -1  10  -5   13.16    3.95
  -1  10  -5   14.89    3.32
  -1  10  -6   47.04    5.74
  -1  10  -6   45.42    4.95
   1 -10   6   46.56    4.83
  -1  10  -7    2.22    3.20
  -1  10  -7    1.15    2.23
   1 -10   7    2.64    2.65
  -1  10  -7   -0.23    2.93
  -1  10  -8  100.20    6.54
  -1  10  -8  111.62    7.28
  -1  10  -8  107.87    8.47
   1 -10   8  117.86    6.84
  -1  10  -9   21.42    3.73
   1 -10   9   19.93    3.48
  -1  10  -9   18.39    4.71
  -1  10 -10   71.78    6.38
   1  -9  -4   -1.08    2.72
   1  -9  -3    9.04    2.79
  -1   9   3    8.25    3.19
   1  -9  -2    2.42    2.73
  -1   9   2    1.78    2.67
   1  -9  -2    6.34    3.35
  -1   9   2    0.63    2.57
   1  -9  -2    1.56    2.28
   1  -9  -2    4.86    4.85
   1  -9  -2    3.10    3.18
   1  -9  -1   65.66    5.27
   1  -9  -1   66.11    6.52
   1  -9  -1   62.24    4.60
   1  -9  -1   61.83    5.57
  -1   9   1   49.28    5.19
  -1   9   0    1.67    2.53
   1  -9   0    5.26    2.22
  -1   9   0   -0.58    2.36
   1  -9   0    0.36    2.86
   1  -9   0    2.98    4.70
   1  -9   0    1.22    2.01
   1  -9   0   -1.06    2.65
   1  -9   1   77.96    5.59
  -1   9  -1   81.85    6.25
  -1   9  -1   78.19    5.98
  -1   9  -1   83.15    6.45
   1  -9   1   80.74    7.28
   1  -9   1   66.11    3.63
  -1   9  -2   82.28    6.02
   1  -9   2   79.16    5.96
  -1   9  -2   92.86    6.77
  -1   9  -2   99.25    6.70
   1  -9   2   73.27    3.39
   1  -9   2   74.49    5.50
   1  -9   2   68.08    2.93
  -1   9  -3  135.07    8.41
  -1   9  -3  135.60    8.07
  -1   9  -3  133.99    7.75
   1  -9   3  139.43    7.77
  -1   9  -4  139.89    7.61
  -1   9  -4  127.03    8.01
   1  -9   4  121.09    7.28
  -1   9  -4  128.26    7.74
   1  -9   5  161.57    8.15
  -1   9  -5  149.66    9.11
  -1   9  -5  152.30    8.16
  -1   9  -6   43.47    4.38
  -1   9  -6   45.54    5.27
   1  -9   6   41.92    4.33
  -1   9  -6   40.50    4.55
  -1   9  -7  121.21    7.04
  -1   9  -7  123.16    7.28
  -1   9  -7  118.96    8.24
   1  -9   7  126.90    6.91
   1  -9   8   88.47    5.54
  -1   9  -8   81.87    5.73
  -1   9  -8   83.82    6.16
  -1   9  -8   97.89    7.72
   1  -9   9   23.71    3.25
  -1   9  -9   20.59    3.61
  -1   9  -9   19.60    4.52
  -1   9  -9   24.65    3.62
  -1   9 -10  110.47    7.26
  -1   9 -10  116.05    7.47
  -1   9 -11   39.67    4.60
   1  -8  -5  196.88    9.42
   1  -8  -5  190.51   10.01
  -1   8   4    0.31    2.62
   1  -8  -4    4.87    5.18
   1  -8  -4   -0.98    2.21
   1  -8  -4    3.12    3.43
  -1   8   4    1.17    2.76
   1  -8  -3  207.23    9.89
   1  -8  -3  183.24   10.66
  -1   8   3  199.90   10.05
   1  -8  -3  192.42    8.96
   1  -8  -3  188.72    9.01
   1  -8  -3  203.51   11.63
  -1   8   3  176.38    9.52
   1  -8  -2    8.70    2.54
   1  -8  -2   10.00    4.96
   1  -8  -2   11.38    3.14
   1  -8  -2    9.57    2.90
   1  -8  -2   15.44    3.93
  -1   8   2   11.15    3.13
  -1   8   2    7.71    2.79
  -1   8   1  641.45   21.50
   1  -8  -1  663.50   19.20
   1  -8  -1  624.56   20.52
   1  -8  -1  635.14   20.99
   1  -8  -1  666.16   22.90
   1  -8   0    0.31    2.79
  -1   8   0    1.00    2.19
   1  -8   0    1.04    1.97
  -1   8   0   -0.87    2.65
   1  -8   0   -0.22    2.08
   1  -8   0    0.23    2.50
   1  -8   1 1387.41   38.42
  -1   8  -1 1378.15   37.71
   1  -8   1 1238.20   38.45
   1  -8   1 1301.37   33.60
   1  -8   1 1254.87   36.65
  -1   8  -1 1319.02   38.26
  -1   8  -1 1342.55   37.46
   1  -8   2    9.70    2.56
   1  -8   2    5.27    1.16
  -1   8  -2    6.94    2.49
   1  -8   2    9.41    4.14
   1  -8   2    7.37    2.78
  -1   8  -2    7.77    2.76
   1  -8   2    5.48    1.58
  -1   8  -2    0.92    3.21
  -1   8  -3  289.56   11.68
  -1   8  -3  291.96   12.32
   1  -8   3  282.48   11.26
  -1   8  -3  272.63   11.35
   1  -8   4   35.90    3.88
  -1   8  -4   39.97    4.62
  -1   8  -4   35.44    4.34
   1  -8   5  480.55   15.08
  -1   8  -5  485.55   16.80
  -1   8  -6   11.44    3.39
  -1   8  -6   15.27    3.66
   1  -8   6   11.52    2.70
  -1   8  -6   10.74    2.51
  -1   8  -7  636.65   22.48
  -1   8  -7  636.05   20.73
  -1   8  -7  659.04   20.33
   1  -8   7  661.39   19.85
  -1   8  -8    2.61    2.43
  -1   8  -8    0.24    2.03
   1  -8   8    2.61    2.10
  -1   8  -8    1.95    2.72
   1  -8   9  148.26    6.61
  -1   8  -9  144.91    7.89
  -1   8  -9  158.51    7.46
  -1   8  -9  150.05    7.18
  -1   8 -10   16.30    3.15
  -1   8 -10   16.69    3.99
  -1   8 -10   14.19    2.98
   1  -8  10   15.71    2.41
  -1   8 -10   16.61    3.16
  -1   8 -10   12.82    2.97
  -1   8 -11   30.34    3.83
  -1   8 -11   30.68    4.09
   1  -7  -6   30.30    3.78
  -1   7   6   25.59    4.19
   1  -7  -6   38.10    5.37
   1  -7  -5   63.39    5.95
   1  -7  -5   59.07    4.78
   1  -7  -5   60.18    7.36
  -1   7   5   55.21    5.28
   1  -7  -4   76.22    5.80
   1  -7  -4   64.90    6.12
   1  -7  -4   66.27    4.91
  -1   7   4   70.19    5.51
   1  -7  -4   63.64    7.00
  -1   7   4   69.86    5.67
  -1   7   3  125.21    7.43
   1  -7  -3  114.42    7.11
   1  -7  -3  149.22    7.30
   1  -7  -3  141.40    8.63
  -1   7   3  129.04    7.47
   1  -7  -3  125.88    6.94
   1  -7  -3  147.39    9.46
   1  -7  -2  193.51    9.08
   1  -7  -2  198.86    8.42
  -1   7   2  190.27    9.20
  -1   7   2  205.61    9.49
   1  -7  -2  211.03   10.82
   1  -7  -2  189.14    8.62
   1  -7  -2  213.19   10.57
   1  -7  -1    2.13    1.79
   1  -7  -1    0.14    2.22
   1  -7  -1    3.33    2.44
  -1   7   1   -0.23    2.54
   1  -7  -1    4.22    2.89
  -1   7   1    0.90    1.96
  -1   7   1    1.04    2.22
   1  -7   0   77.24    6.01
   1  -7   0   63.49    4.94
   1  -7   0   67.98    3.88
  -1   7   0   69.93    5.31
   1  -7   0   76.45    4.93
  -1   7   0   68.49    5.00
  -1   7  -1  142.70    7.52
   1  -7   1  129.99    6.50
  -1   7  -1  136.25    6.90
   1  -7   1  148.76    8.02
   1  -7   1  149.85    8.20
   1  -7   1  129.01    4.70
  -1   7  -2   15.82    3.34
   1  -7   2   23.83    3.18
  -1   7  -2   23.32    2.97
   1  -7   2   15.52    1.73
  -1   7  -2   23.62    3.37
   1  -7   2   27.72    4.68
   1  -7   2   18.42    1.33
  -1   7  -3  118.66    7.03
  -1   7  -3  103.15    6.38
   1  -7   4  138.13    6.78
  -1   7  -4  134.55    7.33
  -1   7  -4  126.79    7.38
  -1   7  -5   -0.98    2.48
   1  -7   5   -0.33    2.11
  -1   7  -5    5.04    3.18
  -1   7  -5    1.34    1.73
  -1   7  -6   10.61    3.35
  -1   7  -6    4.02    1.57
  -1   7  -6    3.30    1.94
  -1   7  -6    7.00    2.86
   1  -7   6    3.40    2.05
  -1   7  -7   18.19    3.01
   1  -7   7   14.65    2.47
  -1   7  -7   15.58    2.65
  -1   7  -7   19.87    3.59
  -1   7  -8   29.05    3.36
  -1   7  -8   31.57    3.81
  -1   7  -8   30.31    3.68
   1  -7   8   33.07    2.95
  -1   7  -9    7.86    3.29
  -1   7  -9    5.02    2.84
  -1   7  -9    2.88    2.09
   1  -7   9    4.32    1.76
   1  -7  10   23.38    2.25
  -1   7 -10   28.86    4.28
  -1   7 -10   26.27    3.48
  -1   7 -10   23.40    3.34
  -1   7 -10   28.28    3.46
  -1   7 -10   20.23    2.96
  -1   7 -11    2.22    3.65
  -1   7 -11    6.45    2.38
  -1   7 -11    5.99    2.61
  -1   7 -12    9.57    2.87
  -1   6   7   34.18    4.34
   1  -6  -7   43.00    5.79
   1  -6  -7   26.90    3.56
   1  -6  -7   43.18    6.58
   1  -6  -6  145.56    9.55
   1  -6  -6  144.66    8.58
  -1   6   6  138.31    7.86
   1  -6  -6  144.74    7.32
   1  -6  -5   62.28    6.62
   1  -6  -5   53.76    4.27
  -1   6   5   62.98    5.09
   1  -6  -5   45.45    5.03
   1  -6  -4  163.59    7.52
  -1   6   4  151.63    8.19
  -1   6   4  153.16    7.98
   1  -6  -4  173.69    9.77
   1  -6  -4  156.83    8.04
  -1   6   3   71.97    5.34
   1  -6  -3   86.16    5.49
   1  -6  -3   75.83    5.84
  -1   6   3   83.23    5.56
   1  -6  -3   86.21    7.04
   1  -6  -3   71.77    4.72
   1  -6  -3   73.99    5.21
  -1   6   2  176.41    8.22
   1  -6  -2  149.00    7.20
   1  -6  -2  174.94    7.57
   1  -6  -2  185.66    8.05
   1  -6  -2  195.72    9.75
   1  -6  -2  132.30    8.12
  -1   6   2  183.90    8.20
  -1   6   1  395.92   12.64
   1  -6  -1  420.30   13.99
   1  -6  -1  389.03   12.07
  -1   6   1  383.83   13.16
   1  -6  -1  393.35   12.35
   1  -6  -1  406.62   11.10
   1  -6   0  441.36   12.64
  -1   6   0  432.29   15.08
  -1   6   0  459.10   14.77
   1  -6   0  422.09   14.15
   1  -6   0  443.96   15.61
   1  -6   1  439.99    9.62
   1  -6   1  459.44   11.10
  -1   6  -1  445.63   10.75
  -1   6  -1  460.98   10.17
   1  -6   2   15.56    2.60
   1  -6   2   11.89    3.55
   1  -6   2   12.25    1.26
  -1   6  -2   20.09    3.33
  -1   6  -2   12.00    2.51
  -1   6  -2   14.84    2.31
  -1   6  -3  577.55   18.20
  -1   6  -3  588.76   17.68
   1  -6   4   79.64    4.56
  -1   6  -4   74.15    5.17
  -1   6  -4   83.92    5.42
  -1   6  -4   80.56    4.72
   1  -6   5  711.98   20.32
  -1   6  -5  685.69   20.90
  -1   6  -5  707.45   21.16
  -1   6  -5  730.61   18.80
   1  -6   6   21.54    2.54
  -1   6  -6   27.30    2.92
  -1   6  -6   22.24    3.87
  -1   6  -6   32.97    3.17
  -1   6  -7  214.74    8.83
  -1   6  -7  199.08    8.62
  -1   6  -7  216.37    8.12
   1  -6   7  223.88    7.77
   1  -6   8    5.74    1.59
  -1   6  -8    8.45    3.00
  -1   6  -8    5.41    2.97
  -1   6  -8    2.27    1.83
  -1   6  -9  412.91   13.84
  -1   6  -9  410.24   13.39
   1  -6   9  362.69   10.97
  -1   6  -9  371.33   13.27
  -1   6  -9  371.12   12.66
  -1   6  -9  388.20   12.59
  -1   6 -10   18.73    3.05
  -1   6 -10   17.37    2.38
  -1   6 -10   23.96    2.93
  -1   6 -10   16.96    3.05
  -1   6 -10   21.92    4.24
  -1   6 -11  152.84    8.56
  -1   6 -11  153.81    7.88
  -1   6 -11  143.58    6.94
  -1   6 -12    5.74    4.45
  -1   6 -12    1.76    2.35
   1  -5  -8   11.35    4.96
  -1   5   8   19.71    3.73
   1  -5  -8   18.48    3.04
   1  -5  -7    5.15    4.57
  -1   5   7    7.49    2.73
   1  -5  -7   10.25    3.98
   1  -5  -7    9.79    2.46
  -1   5   6    3.13    2.38
   1  -5  -6    8.09    4.22
   1  -5  -6    2.16    1.87
   1  -5  -6   -0.51    3.32
   1  -5  -5  111.52    6.00
   1  -5  -5  116.15    6.95
  -1   5   5  111.83    6.49
   1  -5  -5  118.10    7.91
  -1   5   4   41.44    4.11
   1  -5  -4   47.17    5.55
  -1   5   4   49.19    4.21
   1  -5  -4   44.79    4.46
   1  -5  -4   49.80    3.83
   1  -5  -3  115.56    5.71
   1  -5  -3  119.62    6.15
  -1   5   3  110.07    6.05
   1  -5  -3  102.73    7.14
   1  -5  -3  108.76    5.88
  -1   5   3  117.13    6.18
   1  -5  -2  268.97   10.06
   1  -5  -2  276.28   10.93
   1  -5  -2  268.86    9.80
   1  -5  -2  299.40    9.99
  -1   5   2  265.06   10.22
   1  -5  -2  278.93   11.37
  -1   5   2  281.92   10.53
   1  -5  -1  482.80   12.55
   1  -5  -1  508.24   11.37
  -1   5   1  483.72   12.79
   1  -5  -1  479.33   12.35
  -1   5   1  490.30   13.38
   1  -5   0  118.10    5.54
  -1   5   0  128.66    6.14
  -1   5   0  129.52    5.82
   1  -5   0  116.87    4.49
  -1   5  -1 1160.33   31.52
   1  -5   1 1128.48   31.45
  -1   5  -1 1165.51   31.02
  -1   5  -2  246.22    9.32
  -1   5  -2  243.83    9.46
  -1   5  -3  340.67   11.88
   1  -5   3  337.79   10.91
  -1   5  -3  347.11   11.75
  -1   5  -4  361.49   11.28
  -1   5  -4  366.89   11.79
   1  -5   4  357.57   10.77
  -1   5  -5  946.59   26.23
  -1   5  -5  934.22   24.71
  -1   5  -5  963.61   26.34
   1  -5   5  982.34   25.41
  -1   5  -6  135.41    6.04
  -1   5  -6  132.84    5.66
  -1   5  -6  134.63    6.24
  -1   5  -7  906.34   25.19
   1  -5   7  876.55   23.15
  -1   5  -7  883.39   24.60
  -1   5  -8   73.50    4.54
   1  -5   8   69.99    3.07
  -1   5  -8   76.23    4.54
  -1   5  -9  136.73    7.47
  -1   5  -9  140.59    6.30
  -1   5  -9  142.61    6.86
  -1   5  -9  143.29    6.06
  -1   5 -10   23.06    2.64
  -1   5 -10   29.67    3.33
  -1   5 -10   25.58    4.43
  -1   5 -10   21.24    2.35
  -1   5 -11   25.70    3.37
  -1   5 -11   27.97    4.88
  -1   5 -12    0.59    4.38
  -1   5 -12    1.64    2.19
   1  -4  -9   -5.33    4.72
  -1   4   9   -0.27    2.63
   1  -4  -8  361.61   15.05
  -1   4   8  365.03   13.57
   1  -4  -8  331.12   14.47
   1  -4  -8  326.67   12.46
   1  -4  -8  348.71   14.33
   1  -4  -7    4.33    4.01
   1  -4  -7    3.47    1.87
  -1   4   7    8.44    2.58
   1  -4  -7    6.53    3.59
  -1   4   6  561.89   17.76
   1  -4  -6  555.60   18.82
   1  -4  -6  546.46   18.78
   1  -4  -6  542.47   17.33
   1  -4  -5   34.15    4.31
  -1   4   5   34.47    3.57
   1  -4  -5   43.42    4.78
   1  -4  -5   45.07    3.53
   1  -4  -4  899.48   25.42
   1  -4  -4  929.85   26.11
  -1   4   4  893.49   25.64
   1  -4  -4  916.67   26.71
  -1   4   4  900.50   26.38
  -1   4   3   24.86    2.66
   1  -4  -3   22.35    2.34
   1  -4  -3   30.25    4.04
   1  -4  -3   23.71    2.67
   1  -4  -3   25.32    3.21
   1  -4  -2 2387.87   61.11
   1  -4  -2 2396.27   61.13
  -1   4   2 2398.69   61.53
   1  -4  -2 2493.26   60.98
   1  -4  -2 2438.46   62.19
   1  -4  -1   29.10    2.35
   1  -4  -1   23.72    2.48
  -1   4   1   28.56    2.53
   1  -4  -1   27.09    2.31
   1  -4  -1   25.06    3.62
  -1   4   1   24.25    2.58
  -1   4   0 2794.68   71.28
  -1   4   0 2823.59   71.00
   1  -4   0 2880.29   69.35
   1  -4   1  105.33    4.69
  -1   4  -1  108.74    5.01
   1  -4   1  102.89    5.31
  -1   4  -2 1457.32   39.54
  -1   4  -2 1584.73   39.77
   1  -4   2 1533.85   38.89
  -1   4  -3  256.19    8.55
  -1   4  -3  250.02    7.01
   1  -4   3  258.86    8.23
  -1   4  -4 1862.35   47.90
   1  -4   4 1924.99   47.14
  -1   4  -4 1875.45   46.67
   1  -4   5   69.87    3.24
  -1   4  -5   74.28    3.93
  -1   4  -5   80.47    4.07
  -1   4  -6  874.54   23.80
   1  -4   6  870.44   22.17
  -1   4  -6  841.44   23.57
  -1   4  -7    1.06    1.88
   1  -4   7    2.32    0.89
  -1   4  -7    2.72    2.60
  -1   4  -8   31.51    4.06
  -1   4  -8   34.49    2.91
  -1   4  -8   32.20    2.63
  -1   4  -9    1.49    1.40
  -1   4  -9   -1.03    3.64
  -1   4  -9   -0.79    1.42
  -1   4 -10   58.47    5.78
  -1   4 -10   56.67    3.35
  -1   4 -11   72.13    6.79
  -1   4 -12   17.30    5.31
   1  -3  -9   27.27    5.32
   1  -3  -9   16.92    4.56
   1  -3  -9   22.63    3.22
   1  -3  -9   20.35    3.95
  -1   3   9   26.66    3.93
   1  -3  -8  170.07    7.87
  -1   3   8  173.46    8.35
   1  -3  -8  180.81    9.53
   1  -3  -8  174.17    9.81
   1  -3  -8  186.16    9.29
   1  -3  -7    5.51    3.38
  -1   3   7   -0.91    1.94
   1  -3  -7    5.54    3.48
   1  -3  -7    1.61    1.74
   1  -3  -6  254.17   11.01
   1  -3  -6  268.68   10.07
   1  -3  -6  286.50   11.04
  -1   3   6  278.95   10.19
   1  -3  -5  187.88    8.42
   1  -3  -5  183.03    8.37
   1  -3  -5  183.37    7.52
   1  -3  -4  179.77    7.14
   1  -3  -4  176.61    7.72
   1  -3  -4  186.79    7.99
   1  -3  -3   74.81    4.67
  -1   3   3   73.48    4.24
   1  -3  -3   65.70    3.76
   1  -3  -3   67.06    4.16
   1  -3  -2  532.88   15.53
  -1   3   2  556.85   15.90
   1  -3  -2  519.86   16.11
   1  -3  -2  543.07   15.46
   1  -3  -2  556.05   15.50
   1  -3  -1  168.72    6.00
   1  -3  -1  187.04    7.23
   1  -3  -1  186.42    6.50
   1  -3  -1  184.98    6.46
  -1   3   1  196.67    6.72
  -1   3   0  734.24   19.85
  -1   3   0  709.23   19.66
   1  -3   1  225.78    7.76
   1  -3   1  230.50    7.38
   1  -3   2   73.09    3.34
  -1   3  -2   69.98    3.93
   1  -3   2   70.86    3.10
  -1   3  -2   66.93    3.22
  -1   3  -2   73.95    3.60
   1  -3   3    2.77    0.97
  -1   3  -3    4.90    1.18
  -1   3  -3    6.84    1.20
   1  -3   4    0.68    0.86
  -1   3  -4    1.10    1.41
  -1   3  -4    0.17    0.95
   1  -3   5  888.90   22.14
  -1   3  -5  874.40   23.88
  -1   3  -5  885.05   23.64
  -1   3  -6  142.71    5.98
  -1   3  -6  144.56    6.26
  -1   3  -7  398.92   12.20
  -1   3  -7  389.51   13.11
  -1   3  -7  393.28   11.47
  -1   3  -8   24.79    3.85
  -1   3  -8   33.02    2.70
  -1   3  -8   31.62    2.30
  -1   3  -9  112.86    6.98
  -1   3  -9  110.24    4.93
  -1   3 -10    5.23    1.78
  -1   3 -10    6.97    3.61
  -1   3 -11  154.69    9.50
   1  -2 -10   34.95    3.81
   1  -2  -9  251.58   10.75
  -1   2   9  270.35   10.59
   1  -2  -9  245.62   10.21
   1  -2  -9  248.49   12.19
   1  -2  -8   75.74    6.46
  -1   2   8   85.25    5.21
   1  -2  -8   86.74    5.77
   1  -2  -8   75.27    5.06
  -1   2   7   96.48    2.69
   1  -2  -7   88.62    4.74
   1  -2  -7   94.29    6.24
   1  -2  -6   19.60    3.70
   1  -2  -6   19.61    2.59
   1  -2  -6   20.07    3.40
   1  -2  -5   87.09    5.46
   1  -2  -5   92.03    4.81
   1  -2  -5   96.29    5.29
   1  -2  -4  503.26   15.11
   1  -2  -4  508.76   15.50
   1  -2  -4  506.89   15.06
   1  -2  -3  434.00   12.98
   1  -2  -3  440.52   12.91
   1  -2  -3  423.43   13.06
  -1   2   2 2066.17   51.92
   1  -2  -2 2075.03   51.74
   1  -2  -2 2054.51   51.80
   1  -2  -2 2047.31   51.53
  -1   2   2 2097.58   51.54
  -1   2   2 2073.44   51.35
  -1   2   1  128.20    4.76
   1  -2  -1  122.63    4.57
  -1   2   1  137.45    5.06
   1  -2  -1  130.84    5.25
   1  -2  -1  134.35    4.88
   1  -2  -1  128.58    4.45
  -1   2   1  131.33    4.62
  -1   2   0  807.40   19.73
  -1   2   0  782.34   20.45
   1  -2   0  790.70   20.61
  -1   2  -1  518.92   13.77
   1  -2   1  533.12   13.76
   1  -2   2 1817.57   44.67
   1  -2   2 1810.53   44.18
  -1   2  -2 1800.28   44.54
  -1   2  -3  209.82    6.29
   1  -2   3  201.92    5.62
  -1   2  -4 1875.20   47.92
  -1   2  -4 1926.03   47.58
  -1   2  -5    0.69    1.90
  -1   2  -5    0.10    1.41
  -1   2  -6  203.45    8.09
  -1   2  -6  192.33    6.02
  -1   2  -6  207.68    7.26
  -1   2  -7  138.63    5.57
  -1   2  -7  141.03    4.49
  -1   2  -7  146.83    7.05
  -1   2  -8  370.13   11.62
  -1   2  -8  375.87   13.72
  -1   2  -9   12.34    2.13
  -1   2  -9   15.47    3.74
  -1   2 -10  147.18    8.70
  -1   2 -10  147.31    6.39
  -1   2 -11    2.56    4.00
  -1   2 -11   -0.20    1.87
   1  -1 -10   35.35    3.89
  -1   1   9    0.72    1.74
   1  -1  -9    4.09    2.82
   1  -1  -9    1.90    2.02
   1  -1  -8   88.71    5.17
   1  -1  -8   81.67    6.39
   1  -1  -8   74.03    5.02
   1  -1  -7    0.18    1.64
  -1   1   7    0.25    0.71
   1  -1  -7    5.40    3.44
   1  -1  -7    5.13    2.61
   1  -1  -6  555.27   17.22
   1  -1  -6  530.45   17.72
   1  -1  -6  570.40   16.52
  -1   1   6  575.97   15.13
   1  -1  -5   99.80    5.59
   1  -1  -5   97.83    4.99
   1  -1  -5   95.37    4.57
  -1   1   4 1082.53   27.33
   1  -1  -4 1041.72   28.51
   1  -1  -4 1078.33   28.51
  -1   1   4 1081.78   27.31
  -1   1   4 1048.67   26.41
   1  -1  -4 1058.76   27.61
   1  -1  -3  380.73   11.10
   1  -1  -3  389.19   11.72
  -1   1   3  394.34   10.89
   1  -1  -3  391.92   11.74
  -1   1   3  395.87   10.96
   1  -1  -2 2505.43   60.73
   1  -1  -2 2466.13   60.84
   1  -1  -2 2546.24   60.40
  -1   1   2 2563.07   60.23
  -1   1  -2 1202.67   29.25
  -1   1  -2 1217.57   29.60
  -1   1  -3   38.32    2.54
  -1   1  -4 2559.83   63.20
   1  -1   4 2534.91   63.51
  -1   1  -5    2.86    0.47
  -1   1  -5    2.38    1.30
  -1   1  -5    2.96    0.66
  -1   1  -6  489.32   15.58
  -1   1  -6  489.08   14.27
  -1   1  -7   -2.41    3.08
  -1   1  -7    1.18    1.65
  -1   1  -8  118.84    5.54
  -1   1  -8  120.31    7.29
  -1   1  -9   34.57    3.19
  -1   1  -9   28.53    4.66
  -1   1  -9   28.50    2.91
  -1   1 -10  128.18    6.10
  -1   1 -10  141.91    8.58
  -1   1 -10  121.64    6.22
   1   0 -11  124.93    7.33
   1   0 -10    0.47    1.94
   1   0 -10   -4.09    4.82
   1   0 -10    0.93    2.54
   1   0  -9  332.75   12.87
   1   0  -9  342.55   11.15
   1   0  -8   93.43    5.80
   1   0  -8   94.04    4.80
   1   0  -7  852.20   22.90
  -1   0   6   65.51    2.90
  -1   0   6   64.12    3.15
   1   0  -6   58.99    3.40
  -1   0   6   63.70    3.26
   1   0  -5 1126.89   28.35
  -1   0   5 1148.95   28.30
  -1   0   5 1067.72   28.19
   1   0  -4    1.96    1.25
  -1   0   4    1.32    0.78
  -1   0   4    1.50    0.87
   1   0  -3 1730.65   42.89
  -1   0   3 1777.80   42.73
  -1   0   2   56.11    2.31
   1   0  -2   58.49    2.32
  -1   0  -2  316.80    8.34
   1   0   2  319.37    8.31
   1   0   2  310.87    8.98
  -1   0  -3  490.80   13.71
   1   0   3  494.75   13.93
  -1   0  -4    1.46    1.21
  -1   0  -5    3.24    1.05
  -1   0  -5    4.16    1.61
  -1   0  -6   40.21    2.61
  -1   0  -6   39.34    3.08
  -1   0  -6   34.46    3.98
  -1   0  -7   28.38    2.45
  -1   0  -7   32.86    4.47
  -1   0  -7   32.85    3.19
  -1   0  -8   53.07    3.87
  -1   0  -8   50.21    3.09
  -1   0  -8   45.18    5.15
  -1   0  -9    7.71    3.60
  -1   0  -9    6.76    2.53
  -1   0  -9    4.87    1.68
   1   0   9    7.06    2.87
  -1   0 -10   91.16    5.86
  -1   0 -10   95.29    7.55
  -1   0 -10   79.36    4.61
   1   0  10   95.73    6.50
   1   1 -11   98.09    8.33
   1   1 -11   95.51    6.65
   1   1 -10    1.31    2.24
   1   1 -10    3.26    4.10
   1   1 -10    2.12    1.83
   1   1  -9  182.54    9.64
  -1  -1   9  172.79    5.76
   1   1  -9  176.62    6.26
   1   1  -8   38.42    2.62
   1   1  -8   35.57    4.98
  -1  -1   8   38.88    2.44
   1   1  -7  109.77    6.79
   1   1  -7  118.03    4.37
  -1  -1   6    2.44    1.11
   1   1  -6   -0.19    1.09
   1   1  -5   74.98    4.81
  -1  -1   5   86.88    3.48
   1   1  -5   83.94    3.16
  -1  -1   5   84.91    2.86
   1   1  -4  285.46    8.10
   1   1  -4  274.98    9.49
  -1  -1   4  283.40    8.40
  -1  -1   3  612.34   16.21
   1   1  -3  584.03   16.85
  -1  -1   3  628.15   16.86
   1   1  -3  623.70   16.38
  -1  -1   2 3422.79   82.60
  -1  -1   2 3439.24   82.83
   1   1  -2 3339.48   82.64
   1   1   1   29.73    1.50
  -1  -1  -1   30.54    1.27
   1   1   1   31.91    1.92
  -1  -1  -1   31.13    1.81
  -1  -1  -2  915.16   25.31
  -1  -1  -2  991.49   25.35
  -1  -1  -2  997.89   24.20
   1   1   2  986.98   24.20
   1   1   2  946.25   25.36
   1   1   2  996.48   24.39
  -1  -1  -3  210.34    6.06
   1   1   3  210.13    6.29
  -1  -1  -3  204.44    7.18
  -1  -1  -4 1807.85   44.04
  -1  -1  -4 1721.63   45.33
   1   1   4 1746.58   43.92
  -1  -1  -4 1824.60   44.09
  -1  -1  -5   15.05    2.38
  -1  -1  -5   14.20    1.50
  -1  -1  -6  747.22   20.38
  -1  -1  -6  780.69   21.97
  -1  -1  -7   71.01    3.74
  -1  -1  -7   79.06    4.95
   1   1   7   76.31    5.06
   1   1   8  344.70   12.93
  -1  -1  -8  321.01   10.66
  -1  -1  -8  341.18   12.29
  -1  -1  -9    1.86    1.45
   1   1   9   -1.24    2.87
  -1  -1  -9   -3.10    3.07
  -1  -1 -10  204.59    9.49
   1   1  10  219.38   10.59
   1   2 -12   38.35    4.86
   1   2 -11   76.12    7.15
  -1  -2  10    9.49    1.08
   1   2 -10    7.51    0.79
  -1  -2   9    7.88    1.37
   1   2  -9    2.74    0.92
   1   2  -9    5.65    3.79
   1   2  -8    3.16    0.83
   1   2  -8   -1.28    3.79
   1   2  -7  211.05    8.43
   1   2  -7  208.17    5.40
   1   2  -6    4.25    3.04
   1   2  -5 1052.14   27.95
   1   2  -5 1087.14   28.97
   1   2  -4    6.97    2.48
   1   2  -4    7.66    1.36
   1   2  -3  941.21   23.98
   1   2  -3  897.90   22.47
   1   2  -3  928.80   24.21
  -1  -2   3  933.90   24.08
   1   2  -2    4.20    0.90
  -1  -2   2    3.18    1.15
  -1  -2   2    5.48    2.09
   1   2  -2    3.06    1.92
   1   2  -1   92.79    4.13
  -1  -2   1  103.68    3.78
   1   2  -1   96.34    3.55
  -1  -2   1   97.83    4.14
  -1  -2   0  384.25   11.48
   1   2   0  398.81   11.63
   1   2   0  398.43   10.83
  -1  -2   0  400.27   11.26
   1   2   1 1447.30   35.85
  -1  -2  -1 1447.14   35.70
  -1  -2  -1 1436.71   36.72
   1   2   1 1434.68   36.89
  -1  -2  -2   52.25    2.31
  -1  -2  -2   49.16    3.04
   1   2   2   50.52    2.47
  -1  -2  -3 1018.39   25.36
  -1  -2  -3  963.32   26.76
   1   2   3  993.79   24.95
  -1  -2  -3  983.24   26.83
   1   2   3  991.94   25.82
  -1  -2  -4  293.92   10.01
  -1  -2  -4  298.54    8.48
  -1  -2  -4  292.02   10.01
  -1  -2  -4  292.70    8.83
  -1  -2  -5  149.02    5.99
  -1  -2  -5  147.12    5.97
   1   2   5  134.82    3.70
  -1  -2  -5  136.73    4.29
  -1  -2  -5  141.89    4.16
  -1  -2  -6   40.10    3.78
  -1  -2  -6   46.98    4.19
  -1  -2  -6   39.75    2.72
   1   2   6   44.82    3.91
  -1  -2  -7   98.60    6.14
   1   2   7   97.03    6.00
  -1  -2  -7   95.87    4.56
  -1  -2  -7   98.43    6.31
  -1  -2  -7   96.79    6.75
  -1  -2  -8    1.29    2.07
  -1  -2  -8   -0.62    3.67
  -1  -2  -8    1.53    2.93
  -1  -2  -8   -0.25    1.44
   1   2   8    4.26    2.72
  -1  -2  -9   18.02    4.74
  -1  -2  -9   17.87    3.51
  -1  -2  -9   15.32    2.31
   1   2   9   19.22    3.83
  -1  -2  -9   16.18    3.84
   1   2  10   15.81    3.96
  -1  -2 -10    7.72    3.93
   1   3 -11  201.11   10.77
   1   3 -10   24.76    4.90
   1   3  -9  216.72   10.00
   1   3  -9  198.52    6.63
   1   3  -8  115.46    7.11
   1   3  -7  388.12   13.34
   1   3  -7  375.63   11.98
  -1  -3   7  351.87   12.56
   1   3  -6   25.69    3.76
   1   3  -6   28.67    2.57
   1   3  -5 1059.59   25.67
   1   3  -5 1073.72   25.31
   1   3  -4   17.19    1.34
   1   3  -4   18.92    2.07
   1   3  -4   18.47    2.71
  -1  -3   3 1522.28   38.82
   1   3  -3 1531.69   39.63
   1   3  -3 1614.35   38.61
  -1  -3   3 1529.69   39.35
  -1  -3   2    3.71    2.27
  -1  -3   2    6.36    1.63
   1   3  -2    3.65    1.19
   1   3  -1 1465.71   37.00
  -1  -3   1 1451.24   37.05
   1   3  -1 1441.43   37.91
   1   3  -1 1458.53   36.89
   1   3   0    1.56    0.96
  -1  -3   0    2.60    1.85
   1   3   0    1.47    1.38
  -1  -3   0    0.59    0.86
   1   3   1 1288.77   32.80
  -1  -3  -1 1285.43   32.50
   1   3   1 1263.82   33.93
  -1  -3  -2  530.88   14.31
   1   3   2  500.70   14.55
  -1  -3  -3 1213.08   30.81
  -1  -3  -3 1188.93   31.50
  -1  -3  -3 1208.44   32.70
   1   3   3 1196.81   31.31
  -1  -3  -3 1180.35   32.49
  -1  -3  -4   54.28    3.01
  -1  -3  -4   51.84    4.56
   1   3   4   56.16    4.02
  -1  -3  -4   56.68    3.58
   1   3   4   50.86    2.54
  -1  -3  -4   53.81    4.04
  -1  -3  -5   32.75    2.47
  -1  -3  -5   29.70    2.87
  -1  -3  -5   25.91    3.19
  -1  -3  -5   24.51    3.79
   1   3   5   28.00    1.60
   1   3   6   64.07    4.88
   1   3   6   59.61    3.14
  -1  -3  -6   52.78    4.59
  -1  -3  -6   53.84    3.36
  -1  -3  -6   63.88    5.18
  -1  -3  -7  146.31    6.07
  -1  -3  -7  134.33    7.69
  -1  -3  -7  143.80    7.93
  -1  -3  -7  140.52    8.49
   1   3   7  159.71    8.03
  -1  -3  -8  244.16    8.80
   1   3   8  259.76   11.27
  -1  -3  -8  245.72   12.27
  -1  -3  -8  233.56   10.90
  -1  -3  -8  237.73   11.12
  -1  -3  -9   46.24    5.69
  -1  -3  -9   53.55    5.50
   1   3   9   48.56    5.34
   1   4 -12  100.90    8.31
   1   4 -11   16.50    4.81
   1   4 -10   42.41    2.82
   1   4 -10   41.93    5.38
   1   4  -9   72.50    6.08
   1   4  -8  247.28   10.47
   1   4  -8  242.00    9.26
  -1  -4   8  249.43    9.91
   1   4  -7    2.71    3.44
   1   4  -7    2.30    0.52
   1   4  -7    2.70    0.51
   1   4  -7    2.39    1.87
   1   4  -6  259.46    7.32
   1   4  -6  259.59    9.85
   1   4  -6  259.35    9.34
   1   4  -5   61.14    2.84
   1   4  -5   62.47    3.87
   1   4  -5   54.82    4.31
   1   4  -4  120.96    5.63
  -1  -4   4  130.13    5.13
   1   4  -4  123.27    4.65
  -1  -4   3    5.20    2.26
   1   4  -3    5.81    1.43
  -1  -4   3    1.90    2.05
   1   4  -3    2.88    1.29
   1   4  -2    3.89    1.40
  -1  -4   2    0.22    2.38
  -1  -4   2    4.75    2.23
   1   4  -1    4.10    1.63
  -1  -4   1    4.48    2.23
   1   4  -1    4.27    1.44
   1   4  -1    3.94    1.92
   1   4   0  177.10    6.63
  -1  -4   0  173.70    6.36
   1   4   0  162.69    7.26
  -1  -4   0  176.83    7.25
  -1  -4  -1  215.17    7.39
   1   4   1  207.05    7.64
   1   4   1  218.84    8.70
  -1  -4  -2   20.42    2.04
   1   4   2   23.32    2.32
   1   4   2   17.29    2.35
  -1  -4  -2   24.20    2.92
   1   4   3    0.27    1.41
  -1  -4  -3    0.58    1.86
  -1  -4  -3    0.38    1.71
  -1  -4  -3    0.11    1.21
   1   4   3    0.84    1.88
  -1  -4  -3   -1.50    2.78
  -1  -4  -4  245.50   10.47
   1   4   4  263.24   10.36
   1   4   4  270.76    9.68
  -1  -4  -4  266.52    8.98
  -1  -4  -4  263.52    9.63
  -1  -4  -4  261.23   10.90
   1   4   5  113.70    6.51
  -1  -4  -5  110.11    7.01
  -1  -4  -5  121.21    5.33
   1   4   5  117.31    4.37
  -1  -4  -5  106.90    6.58
  -1  -4  -5  103.05    5.69
  -1  -4  -6    0.26    2.14
   1   4   6    0.24    2.28
  -1  -4  -6   -0.65    1.99
  -1  -4  -6   -0.75    3.25
  -1  -4  -6   -0.54    1.39
  -1  -4  -6   -1.27    3.40
  -1  -4  -7   66.02    4.02
   1   4   7   62.21    5.48
  -1  -4  -7   64.05    6.18
  -1  -4  -7   49.86    5.62
  -1  -4  -7   67.05    5.64
  -1  -4  -8   22.38    4.95
  -1  -4  -8   24.16    5.39
  -1  -4  -8   23.15    4.04
   1   4   8   20.91    3.91
   1   4   9   -2.25    3.45
   1   5 -12   59.68    6.76
   1   5 -11   27.92    5.02
   1   5 -10   10.20    4.28
   1   5  -9   21.45    4.19
   1   5  -9   16.05    2.72
  -1  -5   8   18.63    3.18
   1   5  -8   17.58    1.06
   1   5  -8   13.56    0.93
   1   5  -8   20.73    2.89
   1   5  -7  319.58   11.59
   1   5  -7  304.91   10.98
   1   5  -7  289.99    8.49
   1   5  -6   82.05    3.59
   1   5  -6   76.71    5.31
   1   5  -6   76.10    4.81
   1   5  -5  761.21   22.43
   1   5  -5  789.03   20.81
   1   5  -5  766.65   21.86
   1   5  -4    1.20    1.51
  -1  -5   4    1.80    2.57
   1   5  -4    0.32    1.55
   1   5  -3 1008.12   26.95
   1   5  -3 1031.20   27.96
  -1  -5   3  985.86   27.61
   1   5  -2    1.48    1.74
  -1  -5   2    3.99    2.74
   1   5  -2    2.59    1.58
   1   5  -1 1007.73   27.94
   1   5  -1 1015.67   27.80
   1   5  -1 1003.17   29.15
  -1  -5   1 1047.33   28.53
   1   5   0    7.36    2.05
   1   5   0    8.67    1.92
  -1  -5   0    0.19    1.22
  -1  -5   0    8.24    1.74
   1   5   0    5.79    2.26
  -1  -5   0    9.94    3.31
   1   5   1 1530.27   17.42
  -1  -5  -1 1520.89   15.95
   1   5   1 1497.93   20.37
  -1  -5  -2    1.31    2.25
  -1  -5  -2    4.36    1.60
   1   5   2    0.18    0.75
   1   5   2    3.85    1.70
  -1  -5  -3  717.60   20.29
  -1  -5  -3  695.72   21.16
   1   5   3  719.59   21.77
   1   5   3  695.66   20.92
  -1  -5  -3  720.38   22.59
  -1  -5  -3  717.47   22.51
   1   5   4    1.43    1.82
  -1  -5  -4    0.49    2.00
  -1  -5  -4    2.27    3.62
   1   5   4    1.07    2.29
  -1  -5  -4    2.53    1.64
  -1  -5  -4    1.96    2.23
   1   5   5  315.84   12.43
  -1  -5  -5  332.75   11.61
  -1  -5  -5  321.85   12.89
  -1  -5  -5  325.91   10.74
  -1  -5  -6    1.93    3.30
  -1  -5  -6    3.70    1.69
  -1  -5  -6   -0.29    2.35
   1   5   6    2.65    2.64
  -1  -5  -6    3.49    2.46
  -1  -5  -6    6.58    3.97
  -1  -5  -7  209.99   11.43
  -1  -5  -7  218.65   11.49
   1   5   7  224.19   11.01
  -1  -5  -7  216.41   10.92
   1   6 -12   19.27    5.37
   1   6 -11   14.66    4.65
   1   6 -10    7.78    2.44
   1   6 -10   12.78    4.31
   1   6  -9   43.58    1.68
   1   6  -9   47.70    5.36
   1   6  -9   54.04    4.40
  -1  -6   9   45.03    4.31
   1   6  -8  287.61    8.38
   1   6  -8  276.45   11.33
  -1  -6   8  273.88   10.74
   1   6  -8  293.61   11.29
   1   6  -7   59.80    3.15
   1   6  -7   54.37    4.40
   1   6  -6  343.45   11.41
   1   6  -6  314.69   10.20
   1   6  -6  325.18   12.02
   1   6  -5  279.96    9.42
   1   6  -4   49.79    3.60
   1   6  -4   52.15    4.13
  -1  -6   4   50.11    4.55
   1   6  -3  194.01    8.35
   1   6  -3  193.86    7.82
  -1  -6   3  206.45    8.92
   1   6  -2  279.26   10.40
   1   6  -2  293.91   10.89
  -1  -6   2  311.31   11.62
   1   6  -1  165.14    7.32
   1   6  -1  149.33    8.00
   1   6  -1  162.14    7.31
   1   6   0   78.77    4.55
  -1  -6   0  188.17    7.89
  -1  -6   0  171.36    6.00
   1   6   0  111.34    6.29
   1   6   0  177.74    6.67
  -1  -6  -1  165.99    7.16
   1   6   1  164.13    8.59
   1   6   1  170.96    7.64
  -1  -6  -1  163.78    8.53
  -1  -6  -2   19.93    3.45
   1   6   2   20.87    2.85
  -1  -6  -2   23.16    3.40
  -1  -6  -2   22.76    2.71
  -1  -6  -3  106.52    5.47
   1   6   3   90.57    6.08
   1   6   3  103.50    5.87
  -1  -6  -3   96.91    6.09
  -1  -6  -3  104.56    7.00
  -1  -6  -3  102.42    7.44
   1   6   4    9.49    2.45
  -1  -6  -4    6.52    2.66
  -1  -6  -4    7.60    2.03
  -1  -6  -4    9.79    4.28
  -1  -6  -4    7.79    3.03
   1   6   4    7.34    2.58
  -1  -6  -5    8.35    4.19
   1   6   5    7.97    2.72
  -1  -6  -5    7.61    2.76
  -1  -6  -5    9.00    2.09
  -1  -6  -5    8.46    3.26
   1   6   6    8.00    3.17
  -1  -6  -6    2.00    2.83
  -1  -6  -6    5.49    4.48
  -1  -6  -6    0.30    3.51
   1   7 -12  125.58    8.71
   1   7 -11    1.49    2.35
   1   7 -11   -0.30    2.53
   1   7 -10  157.06    8.73
   1   7 -10  150.40    8.59
   1   7 -10  140.84    7.86
   1   7  -9   34.23    4.72
  -1  -7   9   31.56    3.74
   1   7  -9   35.34    2.14
   1   7  -9   33.82    4.19
   1   7  -9   35.91    4.03
   1   7  -8  119.51    6.67
   1   7  -8  116.05    6.73
   1   7  -8  118.33    7.07
   1   7  -8  127.28    4.81
   1   7  -7   23.64    3.70
   1   7  -7   32.68    2.74
   1   7  -7   25.11    3.45
   1   7  -7   34.46    3.78
   1   7  -6  419.30   13.10
   1   7  -6  416.08   14.93
   1   7  -5   27.20    2.93
   1   7  -5   23.11    3.33
   1   7  -4  298.92   10.73
   1   7  -4  295.97   11.72
  -1  -7   4  303.97   11.89
   1   7  -3    4.73    2.28
   1   7  -3    4.80    2.23
   1   7  -2  255.81   10.10
  -1  -7   2  261.70   11.36
   1   7  -2  251.74   10.39
   1   7  -1  137.72    7.18
   1   7  -1  128.28    6.81
  -1  -7   1  132.75    8.04
   1   7  -1  141.28    8.09
  -1  -7   0  205.37   10.09
   1   7   0  208.42   10.27
   1   7   0  191.33    9.02
   1   7   0  212.05    9.35
  -1  -7  -1  122.43    8.05
  -1  -7  -1  109.22    7.28
  -1  -7  -1  115.29    6.86
  -1  -7  -1  121.01    6.18
   1   7   1  118.18    6.61
   1   7   1  118.25    7.61
  -1  -7  -2  137.80    8.28
  -1  -7  -2  124.52    7.43
   1   7   2  146.83    7.49
  -1  -7  -2  149.04    7.06
  -1  -7  -3   52.49    4.89
   1   7   3   57.81    4.16
  -1  -7  -3   62.56    4.33
  -1  -7  -3   61.66    6.60
   1   7   3   56.11    5.02
  -1  -7  -3   53.90    5.42
   1   7   3   48.24    4.54
   1   7   4   19.11    3.53
   1   7   4   16.85    2.95
  -1  -7  -4   14.58    3.61
  -1  -7  -4   22.67    5.48
   1   7   4   18.37    2.56
  -1  -7  -4   15.30    3.36
  -1  -7  -5   42.60    5.34
  -1  -7  -5   48.12    4.96
   1   8 -11    1.68    2.46
   1   8 -10   -3.93    3.99
   1   8 -10    1.26    2.50
   1   8 -10    0.56    2.37
   1   8  -9   27.33    4.09
  -1  -8   9   20.02    3.24
   1   8  -9   23.15    2.25
   1   8  -9   21.00    3.59
   1   8  -9   19.34    3.75
  -1  -8   8   -0.16    0.67
   1   8  -8   -0.85    1.61
   1   8  -8    1.42    2.33
   1   8  -8   -1.04    2.28
   1   8  -7   -0.76    2.30
   1   8  -7    3.78    1.91
   1   8  -7    1.03    2.89
   1   8  -6   26.98    3.16
   1   8  -6   24.09    4.43
   1   8  -6   25.43    3.66
   1   8  -6   30.74    3.85
   1   8  -5   46.43    3.92
   1   8  -5   49.01    4.61
   1   8  -4   10.73    2.63
  -1  -8   4   12.50    4.23
   1   8  -4    8.58    2.52
  -1  -8   3    0.26    3.93
   1   8  -3   -0.24    2.00
   1   8  -3   -0.39    2.01
   1   8  -2    2.15    2.19
  -1  -8   2    1.41    4.07
   1   8  -2    1.25    2.27
  -1  -8   1   16.61    4.96
   1   8  -1   16.37    3.12
   1   8  -1   17.07    3.26
   1   8  -1   13.34    3.34
  -1  -8   0    7.47    2.86
   1   8   0    7.74    3.05
  -1  -8   0    9.89    4.79
   1   8   0    4.03    2.50
   1   8   0    6.28    2.59
  -1  -8   0    4.72    2.81
   1   8   1  108.93    6.86
  -1  -8  -1  105.13    6.93
   1   8   1  107.52    7.78
  -1  -8  -1  113.40    8.47
  -1  -8  -1  108.55    7.65
  -1  -8  -2    4.45    3.14
  -1  -8  -2    2.71    2.88
   1   8   2    2.34    2.28
  -1  -8  -2    5.08    2.36
  -1  -8  -3   74.86    5.18
   1   8   3   68.33    5.89
   1   8   3   66.32    5.57
  -1  -8  -3   53.38    5.38
  -1  -8  -3   67.88    6.51
   1   8   3   72.24    4.95
  -1  -8  -3   77.81    7.71
  -1  -8  -4   10.20    3.64
  -1  -8  -4    9.37    3.32
   1   9 -10   42.44    5.07
   1   9  -9    1.48    2.64
   1   9  -9   -0.85    3.63
   1   9  -9   -0.32    2.44
   1   9  -8  260.66    8.26
   1   9  -8  265.87   11.13
   1   9  -8  243.17   12.37
   1   9  -7    6.34    2.31
   1   9  -7    4.51    3.38
   1   9  -7    6.78    2.78
   1   9  -6  146.94    8.53
   1   9  -6  152.14    8.50
   1   9  -6  147.20    7.15
   1   9  -6  144.27    9.35
   1   9  -5    4.75    2.41
   1   9  -5    2.28    2.35
   1   9  -4   88.34    5.69
  -1  -9   4   91.06    7.29
   1   9  -4   80.43    6.15
   1   9  -3    1.58    2.50
   1   9  -3   -0.27    2.35
  -1  -9   3    3.94    4.46
   1   9  -2  434.75   15.74
  -1  -9   2  436.24   17.46
   1   9  -2  415.85   16.18
  -1  -9   1    1.11    3.01
   1   9  -1    2.33    2.68
  -1  -9   1   -2.42    4.80
   1   9  -1    2.29    2.61
   1   9  -1    0.71    2.95
  -1  -9   1   -1.83    3.05
   1   9   0  344.68   15.36
  -1  -9   0  317.78   13.80
   1   9   0  351.42   14.09
  -1  -9   0  340.86   15.66
   1   9   0  321.20   13.59
  -1  -9  -1    4.42    3.29
  -1  -9  -1    3.76    3.23
   1   9   1    4.16    2.79
   1   9   1    4.75    2.42
   1   9   1    4.98    3.03
  -1  -9  -1    6.48    5.20
   1   9   2   61.03    4.96
   1   9   2   58.87    5.53
   1  10  -7    4.70    2.88
   1  10  -7    3.74    2.60
   1  10  -7    9.05    2.73
   1  10  -7    2.89    3.29
   1  10  -6   72.96    6.33
   1  10  -6   73.75    5.26
   1  10  -6   78.24    7.58
   1  10  -5    4.52    2.73
   1  10  -5    7.30    2.99
   1  10  -5   10.09    3.09
  -1 -10   4  106.74    8.52
   1  10  -4   93.48    6.70
   1  10  -4   89.91    6.90
   1  10  -4   92.31    6.41
  -1 -10   3   27.33    4.70
   1  10  -3   23.64    3.81
  -1 -10   3   35.18    6.18
   1  10  -3   25.96    4.24
   1  10  -2   40.45    5.03
   1  10  -2   31.96    4.48
  -1 -10   2   38.28    6.63
   1  10  -1    0.32    2.61
   1  10  -1   -0.28    2.31
   1  10  -1    0.30    2.79
   1  10   0   55.55    5.27
   1  10   0   63.63    6.09
   1  10   1   -0.66    2.69
   1  10   1    0.54    2.31
   1  11  -6    4.81    2.81
   1  11  -5   29.49    4.18
   1  11  -4    8.04    3.33
  -2  11  -3    0.71    2.62
  -2  11  -3    2.67    3.71
   2 -11   4   17.99    3.89
  -2  11  -4   15.38    3.63
  -2  11  -4    8.97    4.10
   2 -11   5    5.41    3.45
  -2  11  -5    3.80    2.96
  -2  11  -5    1.82    4.00
   2 -11   6   82.87    6.31
  -2  11  -6   64.07    6.26
  -2  11  -6   71.77    6.67
  -2  11  -7    3.86    3.65
   2 -11   7    8.61    3.19
  -2  11  -7   10.51    3.65
  -2  11  -8   50.78    5.57
   2 -11   8   57.48    5.22
   2 -10  -1  106.17    7.16
  -2  10   0    1.00    2.34
   2 -10   0    2.43    3.28
   2 -10   0    2.72    3.07
   2 -10   0    3.47    2.34
  -2  10  -1  107.80    7.55
  -2  10  -1  114.21    7.95
  -2  10  -1  119.18    8.08
   2 -10   1  107.46    7.12
   2 -10   2    0.28    2.07
  -2  10  -2    0.30    2.20
   2 -10   2    2.52    2.70
  -2  10  -2    0.31    3.89
  -2  10  -2    2.57    2.68
  -2  10  -3  251.73   11.74
   2 -10   3  260.77   11.58
  -2  10  -3  268.09   12.35
  -2  10  -3  274.53   12.48
   2 -10   3  241.95   11.35
   2 -10   4   12.23    3.22
  -2  10  -4    9.29    3.82
  -2  10  -4   14.84    3.42
   2 -10   5  313.19   12.71
  -2  10  -5  307.47   13.35
  -2  10  -5  306.81   13.48
  -2  10  -6    0.27    3.41
   2 -10   6   -0.48    2.47
  -2  10  -6    1.66    2.30
  -2  10  -6    0.33    2.88
  -2  10  -7  129.45    7.89
  -2  10  -7  122.93    7.44
   2 -10   7  132.01    7.19
  -2  10  -8   22.14    4.39
  -2  10  -8   30.21    4.62
   2 -10   8   33.18    3.92
  -2  10  -8   25.61    3.75
  -2  10  -9  124.73    7.64
   2 -10   9  131.04    6.92
  -2  10  -9  125.70    7.71
  -2  10  -9  133.80    9.26
  -2   9   3  132.54    8.81
   2  -9  -3  143.39    8.17
   2  -9  -2    5.48    3.32
   2  -9  -2    6.26    5.16
  -2   9   2    3.57    2.73
   2  -9  -2    2.70    2.21
  -2   9   2    4.59    3.09
  -2   9   1  289.44   12.99
   2  -9  -1  296.26   12.42
  -2   9   1  315.53   13.40
   2  -9  -1  301.27   14.30
   2  -9  -1  321.30   13.13
   2  -9  -1  286.38   10.45
  -2   9   0   -0.29    2.36
   2  -9   0    1.42    3.08
   2  -9   0   -0.39    2.06
   2  -9   0   -0.26    1.97
   2  -9   0    0.27    2.65
  -2   9   0   -0.31    2.51
   2  -9   1  302.35    8.58
   2  -9   1  330.75   14.31
   2  -9   1  337.05   12.81
  -2   9  -1  332.98   13.15
  -2   9  -1  341.91   13.57
  -2   9  -1  343.25   13.74
  -2   9  -2    6.50    3.39
   2  -9   2    7.56    2.52
  -2   9  -2    7.94    2.83
   2  -9   2    5.61    2.94
  -2   9  -2   12.18    2.94
   2  -9   3  292.95   12.05
  -2   9  -3  301.25   12.71
  -2   9  -3  281.63   12.12
  -2   9  -3  310.16   12.98
  -2   9  -4   18.63    4.15
  -2   9  -4   29.90    4.06
   2  -9   4   30.46    3.95
  -2   9  -5  512.33   18.24
  -2   9  -5  504.65   17.69
  -2   9  -5  536.16   18.98
   2  -9   5  515.56   17.35
   2  -9   6    2.05    2.40
  -2   9  -6   -0.59    2.97
  -2   9  -6   -1.19    2.13
  -2   9  -6    2.71    3.41
   2  -9   7  216.87    9.12
  -2   9  -7  202.39    9.99
  -2   9  -7  200.76    9.55
  -2   9  -7  222.68   10.96
  -2   9  -8   11.75    3.76
  -2   9  -8    4.70    2.28
   2  -9   8    4.11    2.20
  -2   9  -8    6.44    3.27
  -2   9  -9   46.28    4.60
  -2   9  -9   51.56    5.07
  -2   9  -9   47.61    5.70
   2  -9   9   47.15    3.92
  -2   9 -10   -0.53    2.18
  -2   9 -10    3.18    3.27
  -2   9 -11   78.98    6.14
   2  -8  -5    0.81    2.06
   2  -8  -4  151.81    8.53
   2  -8  -4  153.29    8.30
  -2   8   4  165.90    8.98
   2  -8  -4  163.59   10.24
  -2   8   4  149.68    9.19
   2  -8  -4  156.40   10.42
   2  -8  -3    6.80    2.38
  -2   8   3    9.84    3.27
   2  -8  -3    4.05    2.99
  -2   8   3    3.61    2.66
   2  -8  -3    1.99    3.15
   2  -8  -3    4.73    4.72
   2  -8  -2  296.07   12.09
   2  -8  -2  324.12   14.20
   2  -8  -2  306.50   11.01
  -2   8   2  328.26   13.19
  -2   8   2  318.86   13.05
   2  -8  -1    1.93    2.50
   2  -8  -1   -0.33    2.90
  -2   8   1    1.06    2.06
  -2   8   1    0.54    2.75
   2  -8  -1   -0.91    4.36
   2  -8  -1    0.49    2.67
   2  -8  -1   -0.70    1.93
   2  -8   0  284.15   11.61
   2  -8   0  279.23    9.22
  -2   8   0  298.41   12.43
  -2   8   0  300.57   12.23
   2  -8   0  314.70   13.43
   2  -8   1    2.64    2.92
   2  -8   1    1.98    1.85
  -2   8  -1    0.24    1.86
   2  -8   1    1.88    1.18
  -2   8  -1    0.99    2.14
  -2   8  -2  504.54   17.65
   2  -8   2  477.79   16.53
  -2   8  -2  520.10   17.48
  -2   8  -2  468.19   16.75
   2  -8   3   45.89    4.26
  -2   8  -3   44.14    5.10
  -2   8  -3   35.53    4.05
   2  -8   4  211.58    9.10
  -2   8  -4  218.89   10.16
  -2   8  -4  217.04   10.12
  -2   8  -4  205.55    9.24
  -2   8  -5   28.39    3.82
  -2   8  -5   25.70    3.05
  -2   8  -5   28.03    4.35
   2  -8   5   17.80    3.03
  -2   8  -6   17.15    3.45
  -2   8  -6   15.18    4.11
   2  -8   6   14.56    2.69
  -2   8  -6   14.21    2.73
  -2   8  -7   39.61    4.63
   2  -8   7   40.71    3.64
  -2   8  -7   44.04    5.13
  -2   8  -7   41.97    3.91
  -2   8  -8   35.24    3.75
  -2   8  -8   37.62    4.84
  -2   8  -8   35.47    3.17
   2  -8   8   41.90    3.47
  -2   8  -9  100.26    5.61
  -2   8  -9   96.88    6.09
   2  -8   9  103.49    5.07
  -2   8  -9   90.95    6.54
  -2   8 -10    2.83    2.02
  -2   8 -10    4.98    3.04
  -2   8 -10    0.20    3.37
  -2   8 -11   71.79    5.37
  -2   8 -11   67.64    5.38
  -2   8 -12    5.99    2.52
  -2   7   6   63.86    5.71
   2  -7  -6   52.09    4.92
   2  -7  -6   50.30    6.30
   2  -7  -5   10.59    4.95
   2  -7  -5    3.06    3.81
   2  -7  -5    6.80    2.35
   2  -7  -5    4.24    3.08
  -2   7   5    8.18    3.00
   2  -7  -4   72.07    5.37
   2  -7  -4   81.65    5.91
  -2   7   4   80.41    5.91
   2  -7  -4   82.63    6.59
   2  -7  -4   78.95    7.23
  -2   7   4   76.61    6.27
   2  -7  -3  126.00    6.79
   2  -7  -3  114.57    6.71
  -2   7   3  143.01    7.81
   2  -7  -3  133.16    8.24
  -2   7   3  123.24    7.40
   2  -7  -3  136.70    8.81
  -2   7   2  273.13   11.70
   2  -7  -2  275.80   10.99
   2  -7  -2  262.13   10.00
   2  -7  -2  278.85   12.53
   2  -7  -2  299.19   12.88
  -2   7   2  262.74   11.39
   2  -7  -1  421.92   14.95
  -2   7   1  440.48   15.41
  -2   7   1  451.75   15.88
   2  -7  -1  426.81   13.15
   2  -7  -1  426.62   14.82
   2  -7  -1  451.68   16.38
  -2   7   0   35.56    3.77
   2  -7   0   36.11    3.55
  -2   7   0   41.33    3.93
   2  -7   0   34.41    4.28
   2  -7   0   30.41    2.80
   2  -7   1   63.56    5.12
  -2   7  -1   68.90    4.71
   2  -7   1   57.49    2.29
   2  -7   1   60.14    4.45
   2  -7   2   13.34    2.81
  -2   7  -2    8.79    2.36
  -2   7  -2   11.24    3.75
  -2   7  -3  921.90   18.43
   2  -7   3  888.36   16.34
  -2   7  -3  906.43   17.78
   2  -7   4  154.77    7.24
   2  -7   4  145.76    6.75
  -2   7  -4  150.17    6.99
  -2   7  -4  146.30    8.11
   2  -7   5  836.81   23.51
  -2   7  -5  852.10   25.36
  -2   7  -5  813.77   25.06
  -2   7  -5  804.98   24.14
  -2   7  -6   23.37    1.64
  -2   7  -6   24.95    2.97
  -2   7  -6   24.15    3.71
   2  -7   6   27.08    2.89
  -2   7  -6   28.30    4.54
  -2   7  -7  403.63   11.91
  -2   7  -7  398.19   13.81
   2  -7   7  401.09   12.63
  -2   7  -7  391.30   14.33
  -2   7  -8   46.21    4.96
   2  -7   8   52.73    3.41
  -2   7  -8   52.30    4.15
  -2   7  -8   51.09    4.02
  -2   7  -9  261.72    9.85
  -2   7  -9  271.33   11.12
  -2   7  -9  238.33   10.33
  -2   7  -9  246.67   10.15
  -2   7 -10    4.24    3.05
  -2   7 -10    8.43    3.56
  -2   7 -10    7.53    2.73
  -2   7 -10    7.66    2.44
  -2   7 -11  167.85    8.70
  -2   7 -11  176.02    8.48
  -2   7 -11  172.38    7.99
  -2   7 -12    5.01    2.36
   2  -6  -7    1.57    4.85
   2  -6  -7    7.05    4.83
   2  -6  -7    1.99    2.08
  -2   6   7    5.50    2.74
   2  -6  -6   79.17    6.86
   2  -6  -6   79.81    7.38
   2  -6  -6   69.71    5.28
   2  -6  -6   84.23    6.77
  -2   6   6   73.12    5.60
   2  -6  -5    9.27    3.43
   2  -6  -5    3.48    4.11
   2  -6  -5    4.06    2.61
  -2   6   5    4.37    2.41
   2  -6  -5    3.59    1.87
  -2   6   4  407.88   15.02
  -2   6   4  442.77   16.05
   2  -6  -4  410.26   14.71
   2  -6  -4  433.96   16.41
   2  -6  -4  443.32   16.43
   2  -6  -4  420.29   14.87
   2  -6  -3   32.41    3.38
  -2   6   3   37.26    4.00
   2  -6  -3   46.10    5.32
   2  -6  -3   33.87    3.78
  -2   6   3   35.14    3.99
   2  -6  -3   30.84    3.89
  -2   6   2  196.65    9.13
   2  -6  -2  197.33    9.36
   2  -6  -2  175.76    8.07
  -2   6   2  183.76    8.60
   2  -6  -2  187.53    9.57
   2  -6  -2  190.64    7.68
   2  -6  -1   57.20    3.69
   2  -6  -1   62.29    4.35
   2  -6  -1   49.84    4.15
   2  -6  -1   64.69    5.21
   2  -6  -1   52.84    5.52
  -2   6   1   53.80    4.90
  -2   6   1   56.13    4.34
  -2   6   0  288.57    8.39
   2  -6   0  308.43    9.65
  -2   6   0  281.29    8.32
   2  -6   0  291.43    5.55
   2  -6   1    9.95    1.25
   2  -6   1   12.79    2.49
   2  -6   2 1682.86   44.37
  -2   6  -2 1729.91   44.97
  -2   6  -2 1688.60   45.65
  -2   6  -3   29.67    4.44
   2  -6   3   23.47    2.78
  -2   6  -3   27.99    2.80
  -2   6  -3   28.10    3.19
   2  -6   3   23.20    2.73
   2  -6   4  640.62   19.40
   2  -6   4  654.98   18.55
  -2   6  -4  620.91   18.94
  -2   6  -4  644.90   19.67
  -2   6  -4  640.39   20.13
  -2   6  -5  132.27    4.37
  -2   6  -5  128.22    6.77
  -2   6  -5  139.13    6.31
  -2   6  -5  142.11    7.50
   2  -6   5  140.34    5.87
  -2   6  -6  215.33    7.23
  -2   6  -6  212.85    8.52
  -2   6  -6  230.70    9.59
   2  -6   6  215.09    7.67
  -2   6  -7    1.31    2.42
   2  -6   7    0.99    1.47
  -2   6  -7    0.16    1.56
  -2   6  -8  136.67    6.43
  -2   6  -8  125.21    6.25
  -2   6  -9    5.15    3.18
  -2   6  -9    6.43    1.99
  -2   6  -9    9.76    2.92
  -2   6 -10   94.70    6.35
  -2   6 -10   87.74    5.34
  -2   6 -10   88.87    5.40
  -2   6 -10   91.46    5.09
  -2   6 -11    6.20    3.94
  -2   6 -11   11.43    2.48
  -2   6 -12    0.83    4.27
   2  -5  -8  148.53    8.08
   2  -5  -8  140.53    9.11
  -2   5   8  160.94    8.31
   2  -5  -7    9.72    4.50
   2  -5  -7   12.22    2.71
   2  -5  -7   12.59    4.71
   2  -5  -7   11.50    3.30
  -2   5   7   12.42    2.96
   2  -5  -6  237.10   10.86
   2  -5  -6  225.92   11.22
  -2   5   6  222.10    9.75
   2  -5  -6  233.51    9.91
   2  -5  -6  235.64   11.20
  -2   5   5   28.93    3.43
   2  -5  -5   25.21    3.17
   2  -5  -5   28.32    4.15
   2  -5  -5   34.79    5.04
   2  -5  -5   25.05    3.65
   2  -5  -4  869.08   25.90
  -2   5   4  904.84   27.15
  -2   5   4  907.14   26.14
   2  -5  -4  884.52   27.31
   2  -5  -4  915.02   27.24
   2  -5  -4  886.14   26.04
   2  -5  -3   45.25    4.05
  -2   5   3   34.25    3.56
   2  -5  -3   42.96    3.65
   2  -5  -3   49.81    5.29
  -2   5   3   42.76    3.95
   2  -5  -3   43.24    4.12
   2  -5  -2 1423.77   38.67
   2  -5  -2 1385.40   36.55
   2  -5  -2 1353.47   37.58
  -2   5   2 1381.25   38.03
  -2   5   2 1444.45   38.08
   2  -5  -2 1423.65   38.51
   2  -5  -1   12.69    2.27
   2  -5  -1   15.93    3.66
   2  -5  -1   18.34    2.57
  -2   5   1   17.14    2.40
   2  -5  -1   15.11    2.18
   2  -5   0 1284.75   32.40
  -2   5   0 1262.11   34.48
  -2   5   0 1317.49   34.55
   2  -5   1   59.77    3.81
  -2   5  -1   58.89    3.74
  -2   5  -2 1740.07   42.79
   2  -5   2 1648.67   42.12
  -2   5  -3  344.36   11.08
   2  -5   3  329.51   10.65
  -2   5  -3  331.00   11.95
  -2   5  -3  351.04   11.51
  -2   5  -4  820.39   21.17
  -2   5  -4  898.28   23.67
  -2   5  -4  865.32   24.14
   2  -5   4  892.98   22.98
  -2   5  -5   57.42    3.16
   2  -5   5   62.19    3.34
  -2   5  -5   57.17    3.65
  -2   5  -6  174.73    6.54
   2  -5   6  180.92    6.17
  -2   5  -6  171.31    7.02
  -2   5  -7  139.53    6.29
  -2   5  -7  145.18    7.24
  -2   5  -7  143.84    6.28
  -2   5  -8  255.08    9.38
  -2   5  -8  249.06    9.65
  -2   5  -8  265.08   10.38
  -2   5  -9  194.71    8.75
  -2   5  -9  190.51    8.31
  -2   5  -9  201.99    8.06
  -2   5 -10   50.34    5.25
  -2   5 -10   61.03    4.27
  -2   5 -10   54.64    4.03
  -2   5 -10   56.62    3.52
  -2   5 -11   31.73    5.13
  -2   5 -11   30.93    3.33
  -2   5 -11   30.94    3.08
  -2   5 -12   -2.42    4.54
   2  -4  -9   25.22    3.63
   2  -4  -8   27.35    5.50
   2  -4  -8   27.94    3.57
   2  -4  -8   29.19    4.79
  -2   4   8   32.56    3.85
   2  -4  -8   34.24    4.86
   2  -4  -7  180.58    9.69
   2  -4  -7  167.62    9.56
  -2   4   7  172.90    8.01
   2  -4  -7  172.95    8.29
   2  -4  -7  181.40    9.21
  -2   4   7  171.09    5.99
   2  -4  -6    8.51    3.74
   2  -4  -6    3.84    2.43
   2  -4  -6    3.30    1.98
  -2   4   6    2.37    2.05
   2  -4  -6    5.14    3.86
  -2   4   5  249.11    9.78
   2  -4  -5  252.20   11.03
   2  -4  -5  261.80   10.91
   2  -4  -5  268.76   10.29
   2  -4  -5  256.29   10.62
  -2   4   4   20.11    2.67
  -2   4   4   16.39    2.50
   2  -4  -4   24.19    3.68
   2  -4  -4   24.63    2.86
   2  -4  -4   18.46    4.02
   2  -4  -4   19.59    3.15
   2  -4  -3  106.91    5.63
   2  -4  -3  104.15    5.52
   2  -4  -3  120.11    6.59
   2  -4  -3  102.18    5.84
  -2   4   3  111.04    5.92
   2  -4  -2   19.62    2.39
  -2   4   2   21.54    2.54
   2  -4  -2   23.91    3.61
   2  -4  -2   19.48    2.73
   2  -4  -1   83.28    4.01
  -2   4   1   89.16    4.62
   2  -4  -1   94.92    5.41
   2  -4   0  105.90    3.94
  -2   4   0  101.95    4.66
   2  -4   1  217.93    7.68
  -2   4  -1  224.47    7.61
   2  -4   2  402.62   11.82
  -2   4  -2  377.66   11.73
  -2   4  -2  388.67   11.98
  -2   4  -2  422.56   12.21
  -2   4  -3   76.12    2.63
  -2   4  -3   80.97    3.87
  -2   4  -3   77.42    4.05
   2  -4   3   81.20    3.67
  -2   4  -4   62.91    3.00
  -2   4  -4   65.67    3.54
  -2   4  -5  216.05    7.31
  -2   4  -5  211.48    7.47
  -2   4  -6  530.74   15.30
  -2   4  -6  528.95   15.45
  -2   4  -6  508.46   16.42
  -2   4  -7   26.83    2.49
  -2   4  -7   28.99    3.42
  -2   4  -7   27.79    3.36
  -2   4  -8  176.52    7.00
  -2   4  -8  180.55    8.03
  -2   4  -8  175.67    7.76
  -2   4  -9   97.76    4.92
  -2   4  -9   84.17    3.99
  -2   4  -9   92.28    6.08
  -2   4  -9   88.60    5.21
  -2   4 -10    8.02    3.44
  -2   4 -10    8.85    2.12
  -2   4 -10    5.97    1.98
  -2   4 -10    4.99    1.23
  -2   4 -10    7.92    1.35
  -2   4 -11   40.26    5.38
  -2   4 -11   35.64    3.42
  -2   4 -11   44.91    3.69
  -2   4 -12   59.65    6.92
   2  -3 -10   40.75    4.49
  -2   3   9   34.68    4.00
   2  -3  -9   38.50    4.83
   2  -3  -9   32.70    6.03
   2  -3  -9   35.11    4.08
   2  -3  -8   69.20    5.20
  -2   3   8   74.14    4.83
   2  -3  -8   64.87    5.95
   2  -3  -8   62.62    5.54
  -2   3   8   70.34    3.58
   2  -3  -8   72.69    6.88
  -2   3   7   80.02    3.13
  -2   3   7  104.15    5.40
   2  -3  -7   99.16    5.90
   2  -3  -7   95.79    6.31
   2  -3  -7   86.67    6.83
   2  -3  -6  548.02   11.81
  -2   3   6  555.33    7.81
  -2   3   6   98.60    4.80
   2  -3  -6  532.97   12.71
   2  -3  -6  540.21   11.91
   2  -3  -5  135.13    7.07
   2  -3  -5  136.05    6.71
   2  -3  -5  135.29    7.32
   2  -3  -4  923.03   25.77
   2  -3  -4  906.11   25.62
   2  -3  -4  886.11   25.45
  -2   3   3   38.14    3.31
   2  -3  -3   38.88    3.65
   2  -3  -3   41.47    3.27
   2  -3  -3   38.88    3.80
   2  -3  -2 2301.55   57.80
  -2   3   2 2302.45   58.62
   2  -3  -2 2325.76   58.50
  -2   3   1  227.95    7.12
   2  -3  -1  210.98    7.10
   2  -3   0 2659.92   65.98
  -2   3   0 2721.19   64.87
  -2   3   0 2629.27   65.60
   2  -3   0 2631.17   64.93
   2  -3   1   62.89    3.12
  -2   3  -1   70.09    2.99
  -2   3  -1   62.70    3.16
  -2   3  -1   62.49    3.17
  -2   3  -1   64.65    2.46
   2  -3   2 5362.21  130.08
  -2   3  -2 5406.66  129.98
  -2   3  -2 5503.86  129.80
  -2   3  -2 5169.48  129.72
   2  -3   3  285.08    8.70
  -2   3  -3  276.93    8.14
  -2   3  -3  262.42    8.34
  -2   3  -4 2219.80   55.07
  -2   3  -5   90.93    3.90
  -2   3  -5   88.51    5.10
  -2   3  -6  976.89   25.52
  -2   3  -6  952.20   27.17
  -2   3  -6  973.74   26.51
  -2   3  -7   10.56    2.95
  -2   3  -7   16.99    1.91
  -2   3  -7   16.50    2.71
  -2   3  -8  914.78   26.92
  -2   3  -8  973.65   25.10
  -2   3  -8  986.62   25.86
  -2   3  -8  929.60   24.64
  -2   3  -9    0.69    3.00
  -2   3  -9    1.59    0.82
  -2   3  -9    1.62    1.38
  -2   3  -9    2.50    1.86
  -2   3 -10  263.59    9.10
  -2   3 -10  264.32   11.72
  -2   3 -10  230.91    9.27
  -2   3 -11    1.83    3.90
  -2   3 -11    2.97    2.06
   2  -2 -10   25.77    3.76
   2  -2  -9   25.74    5.38
   2  -2  -9   28.01    3.69
   2  -2  -9   28.84    3.92
  -2   2   8   13.16    1.77
   2  -2  -8   15.02    2.85
   2  -2  -8   14.36    4.36
   2  -2  -8   16.79    3.50
   2  -2  -7  380.75   14.75
   2  -2  -7  394.87   14.17
   2  -2  -7  390.16   13.19
  -2   2   7  404.00   12.27
   2  -2  -6   69.16    5.85
  -2   2   6   81.05    3.41
   2  -2  -6   79.05    5.04
   2  -2  -6   78.76    5.14
  -2   2   5  206.84    6.84
   2  -2  -5  211.81    8.14
   2  -2  -5  202.15    8.89
   2  -2  -5  206.38    8.57
   2  -2  -4  195.32    8.05
   2  -2  -4  183.57    7.27
   2  -2  -4  198.77    7.90
   2  -2  -3  208.81    8.12
   2  -2  -3  222.88    7.82
  -2   2   3  230.70    8.25
   2  -2  -2  454.36   13.33
  -2   2   2  467.60   13.29
  -2   2   2  470.41   13.40
  -2   2   2  430.12   13.65
   2  -2  -1  871.36   23.00
   2  -2  -1  909.04   23.25
  -2   2   1  871.78   23.00
  -2   2   1  904.63   23.68
  -2   2   0  174.93    5.57
   2  -2   0  171.51    5.67
   2  -2   0  175.19    5.96
   2  -2   0  176.11    5.50
  -2   2  -1 1606.04   39.33
  -2   2  -1 1628.98   40.03
  -2   2  -1 1576.71   39.85
   2  -2   1 1642.04   40.17
   2  -2   2  263.44    7.60
  -2   2  -2  254.12    7.46
  -2   2  -3   33.32    1.78
  -2   2  -3   32.24    1.71
  -2   2  -4  453.94   11.91
  -2   2  -4  432.40   11.24
  -2   2  -4  439.82   13.81
  -2   2  -5  277.16    8.05
  -2   2  -5  256.95    9.73
  -2   2  -6    2.72    1.93
  -2   2  -6    1.66    1.08
  -2   2  -7   60.11    4.69
  -2   2  -7   64.15    4.19
  -2   2  -7   60.53    2.91
  -2   2  -7   51.14    2.04
  -2   2  -8   61.21    5.35
  -2   2  -8   56.94    4.03
  -2   2  -9    0.26    3.29
  -2   2  -9   -1.15    2.05
  -2   2 -10    5.35    2.21
  -2   2 -10    9.62    3.90
  -2   2 -10    5.18    1.71
  -2   2 -11    2.63    4.03
  -2   2 -11   -0.56    2.15
   2  -1 -11  205.59   10.37
   2  -1 -10   -1.64    2.59
   2  -1 -10   -0.33    4.53
   2  -1  -9  187.43   10.34
   2  -1  -9  185.48    7.47
   2  -1  -9  190.04    9.35
   2  -1  -8    2.05    2.40
   2  -1  -8   -2.59    3.77
  -2   1   8   -0.09    1.23
   2  -1  -8   -1.18    2.13
  -2   1   7  420.68   12.50
   2  -1  -7  399.20   12.66
   2  -1  -7  419.47   14.79
   2  -1  -7  407.03   15.11
   2  -1  -6  233.26   10.16
   2  -1  -6  228.19    8.24
   2  -1  -6  253.47   10.05
  -2   1   6  255.19    8.54
   2  -1  -5 1775.30   43.81
  -2   1   5 1829.78   43.51
   2  -1  -5 1785.81   45.90
   2  -1  -5 1833.11   46.16
   2  -1  -4  220.82    8.66
  -2   1   4  233.78    7.26
  -2   1   4  226.36    7.34
   2  -1  -3 1978.59   50.84
  -2   1   3 2023.16   49.84
  -2   1   3 1998.77   49.61
   2  -1  -2    8.00    2.27
  -2   1   2    8.73    1.85
  -2   1   2    3.71    2.12
  -2   1   1 1186.85   30.04
   2  -1  -1 1178.86   30.21
   2  -1  -1 1163.84   30.09
  -2   1   0 1236.83   30.94
   2  -1   0 1254.39   31.13
  -2   1   0 1162.46   31.42
   2  -1   0 1269.16   31.09
  -2   1  -1 3418.75   82.37
   2  -1   1 3398.25   82.46
   2  -1   2 1501.80   36.18
  -2   1  -2 1466.08   36.10
  -2   1  -3  874.52   22.38
  -2   1  -3  869.04   23.66
  -2   1  -3  849.19   21.15
  -2   1  -4  305.57   10.34
  -2   1  -4  294.80    8.07
  -2   1  -4  317.29    9.22
  -2   1  -5  123.45    5.97
  -2   1  -5  134.05    4.93
  -2   1  -6  659.56   19.29
  -2   1  -7  267.12    7.52
   2  -1   7    0.39    1.02
  -2   1  -8  411.75   13.53
  -2   1  -8  440.88   15.32
  -2   1  -9    3.86    1.35
  -2   1  -9    3.23    3.68
  -2   1  -9    2.14    2.14
  -2   1 -10   49.01    4.34
  -2   1 -10   46.33    3.09
   2   0 -11   19.58    3.83
   2   0 -10    1.15    2.31
   2   0  -9    8.90    2.87
  -2   0   9    6.28    1.69
   2   0  -8   35.72    4.19
  -2   0   8   29.57    2.43
  -2   0   8   30.99    2.50
  -2   0   7    0.07    1.19
  -2   0   7    0.85    1.29
  -2   0   6    1.26    0.92
  -2   0   6    1.55    1.39
  -2   0   5   52.38    2.28
  -2   0   5   54.78    3.27
  -2   0   4  177.23    5.24
  -2   0   3   99.48    4.12
  -2   0   3   96.37    3.51
  -2   0   2   11.72    1.59
   2   0  -2    1.88    1.23
  -2   0   1    5.04    1.24
  -2   0   1    4.28    1.38
   2   0   0  551.56   15.35
  -2   0   0  569.56   15.41
  -2   0  -1   65.95    2.38
  -2   0  -1   62.35    3.27
   2   0   1   66.97    3.32
  -2   0  -2 1427.93   35.30
  -2   0  -2 1416.42   36.26
   2   0   2 1423.65   36.16
  -2   0  -3  604.39   15.67
  -2   0  -3  611.29   17.60
  -2   0  -4  423.77   10.73
  -2   0  -4  415.55   10.76
  -2   0  -5  264.58    7.38
  -2   0  -5  265.83    7.35
  -2   0  -5  285.32    9.80
  -2   0  -6  145.87    5.81
  -2   0  -6  151.04    3.35
   2   0   7   27.62    3.62
  -2   0  -7   25.76    3.19
  -2   0  -7   24.87    1.84
  -2   0  -8  344.35   13.30
   2   0   8  330.81   12.77
  -2   0  -8  317.96   11.59
  -2   0  -9    2.92    1.31
  -2   0  -9    2.52    3.76
  -2   0  -9    2.25    2.48
  -2   0 -10   37.81    4.35
  -2   0 -10   45.87    6.21
   2   0  10   50.72    5.48
   2   1 -12   16.75    3.86
   2   1 -11   51.10    5.57
   2   1 -10    1.51    4.17
   2   1  -9  298.86   12.96
   2   1  -8   64.88    5.92
   2   1  -7 1273.01   36.07
  -2  -1   7 1344.25   36.03
  -2  -1   7 1270.12   33.72
  -2  -1   6   56.43    3.37
   2   1  -6   52.38    5.17
  -2  -1   6   54.73    4.62
   2   1  -5  870.45   23.30
  -2  -1   5  867.65   23.51
   2   1  -4   56.70    3.16
  -2  -1   4   51.58    3.15
   2   1  -3 3025.03   74.75
  -2  -1   3 3035.59   74.99
   2   1  -2   53.21    2.38
  -2  -1   2   41.99    2.09
   2   1  -2   49.66    2.80
  -2  -1   2   47.71    2.96
   2   1  -1 9831.40  238.42
  -2  -1   1 9999.00  238.33
  -2  -1   0  206.66    6.90
   2   1   0  207.45    6.88
   2   1   0  212.08    7.08
  -2  -1   0  217.52    7.01
   2   1   0  214.61    6.69
   2   1   1 3725.04   90.99
  -2  -1  -1 3817.85   91.96
   2   1   1 3854.93   92.50
   2   1   1 3783.90   92.03
  -2  -1  -1 3784.11   91.96
  -2  -1  -2   23.14    1.87
  -2  -1  -2   25.75    1.68
   2   1   2   24.90    2.15
  -2  -1  -3 1371.55   33.13
  -2  -1  -3 1421.81   32.39
   2   1   3 1400.55   32.24
  -2  -1  -4    4.27    1.42
  -2  -1  -4    3.99    0.61
   2   1   4    5.24    1.44
  -2  -1  -4    5.27    2.09
  -2  -1  -5 1462.97   14.04
  -2  -1  -5 1459.81   18.45
  -2  -1  -5 1427.62   12.06
  -2  -1  -5 1434.40   19.05
  -2  -1  -6   53.51    2.74
   2   1   6   52.36    4.48
  -2  -1  -6   53.06    2.49
  -2  -1  -6   61.71    4.24
  -2  -1  -6   49.24    4.16
   2   1   7  653.63   20.60
  -2  -1  -7  621.97   16.90
  -2  -1  -7  634.79   19.83
  -2  -1  -7  648.78   19.98
  -2  -1  -8   -0.70    1.90
  -2  -1  -8    0.21    2.47
  -2  -1  -8    0.90    1.05
   2   1   8   -1.26    2.63
  -2  -1  -9   59.57    5.19
   2   1   9   65.94    5.87
  -2  -1  -9   46.37    4.70
   2   1  10   -1.56    3.24
  -2  -1 -10   -1.18    2.45
  -2  -1 -10   -1.04    3.63
   2   2 -12    3.21    3.08
   2   2 -11   74.39    7.29
   2   2 -10   73.69    6.82
   2   2  -9   27.35    4.89
   2   2  -8   59.80    5.75
  -2  -2   8   69.08    5.38
   2   2  -7  523.97   17.27
  -2  -2   7  550.59   17.30
   2   2  -7  490.55   14.93
   2   2  -6   31.18    4.37
   2   2  -6   33.26    2.55
   2   2  -5  993.96   27.40
  -2  -2   5  963.15   26.27
   2   2  -4  505.43   15.49
  -2  -2   4  509.38   14.68
   2   2  -4  474.18   14.64
  -2  -2   3 1026.88   26.63
   2   2  -3 1083.45   28.92
   2   2  -3 1104.43   26.76
  -2  -2   3 1120.68   28.51
   2   2  -2  242.49    8.39
   2   2  -2  257.86    7.44
  -2  -2   2  242.58    7.29
   2   2  -1  397.62   10.98
  -2  -2   1  387.28   10.93
   2   2  -1  396.75   11.62
  -2  -2   1  365.86   11.92
   2   2   0    2.97    1.23
  -2  -2   0    1.66    1.41
   2   2   0    3.62    1.21
  -2  -2   0    0.64    1.32
   2   2   0    4.01    1.39
   2   2   1  789.00   20.31
   2   2   1  790.24   21.59
  -2  -2  -1  804.83   21.48
   2   2   1  780.28   20.94
   2   2   2   22.30    1.54
  -2  -2  -2   22.99    2.22
   2   2   2   24.04    1.81
  -2  -2  -3  279.27    7.71
   2   2   3  281.86    8.05
  -2  -2  -3  259.11    9.75
  -2  -2  -3  272.66    9.47
  -2  -2  -4    0.60    1.60
  -2  -2  -4    1.46    2.14
   2   2   4    1.85    1.71
  -2  -2  -4    1.94    0.78
  -2  -2  -5    8.70    1.16
  -2  -2  -5    8.91    2.83
  -2  -2  -5    7.16    1.76
  -2  -2  -5    6.51    2.01
   2   2   5    4.69    2.27
  -2  -2  -6   70.70    3.71
  -2  -2  -6   67.50    3.05
  -2  -2  -6   63.57    4.97
   2   2   6   64.39    5.00
  -2  -2  -6   68.72    4.79
   2   2   7   75.42    5.67
  -2  -2  -7   77.40    5.55
  -2  -2  -7   69.17    3.25
  -2  -2  -7   68.61    5.10
  -2  -2  -8   20.59    1.85
  -2  -2  -8   26.98    4.09
   2   2   8   22.55    3.91
  -2  -2  -8   18.63    4.46
  -2  -2  -8   21.63    3.37
  -2  -2  -9    5.69    3.48
   2   2   9   15.85    3.88
  -2  -2  -9    9.61    2.83
  -2  -2 -10   -2.84    3.67
   2   2  10    3.38    3.43
   2   3 -11   17.81    5.02
   2   3 -10  195.62   10.34
  -2  -3   9   30.42    4.26
   2   3  -9   36.39    5.09
   2   3  -9   35.54    2.81
  -2  -3   8  473.61   16.83
   2   3  -8  498.15   14.85
   2   3  -8  486.07   16.92
  -2  -3   7   25.87    3.77
   2   3  -7   25.03    4.46
   2   3  -6  464.26   15.58
   2   3  -6  468.39   14.72
   2   3  -5  149.95    6.38
   2   3  -5  133.13    7.00
   2   3  -4  891.57   22.21
   2   3  -4  898.92   24.88
  -2  -3   4  860.30   22.41
   2   3  -3  266.52    7.81
  -2  -3   3  262.27    8.03
   2   3  -3  259.66    9.10
   2   3  -2  374.70   11.00
  -2  -3   2  384.66   11.27
   2   3  -1  690.90   18.80
  -2  -3   1  679.59   18.96
   2   3  -1  691.54   19.87
  -2  -3   0  573.85   17.10
   2   3   0  567.86   17.21
   2   3   0  593.26   16.19
  -2  -3   0  592.25   16.90
   2   3   1  931.93   24.20
   2   3   1  923.55   25.69
  -2  -3  -1  942.06   25.51
  -2  -3  -1  894.02   25.41
   2   3   2   33.90    3.17
   2   3   2   35.20    2.27
  -2  -3  -3  491.62   13.30
   2   3   3  487.69   13.73
   2   3   3  474.58   15.45
   2   3   3  485.84   13.74
  -2  -3  -3  472.13   15.19
  -2  -3  -3  466.91   15.69
  -2  -3  -4  184.67    8.29
  -2  -3  -4  176.36    5.78
   2   3   4  170.20    5.85
  -2  -3  -4  171.22    7.63
  -2  -3  -5  208.98    6.93
   2   3   5  218.82    9.61
  -2  -3  -5  228.61    8.26
  -2  -3  -5  213.43    9.20
  -2  -3  -5  211.68    9.62
  -2  -3  -6   63.55    4.07
   2   3   6   69.48    5.35
  -2  -3  -6   73.11    5.63
  -2  -3  -6   62.14    4.93
  -2  -3  -6   67.01    3.28
  -2  -3  -7   86.23    3.78
   2   3   7   81.11    6.14
  -2  -3  -7   80.74    5.88
  -2  -3  -7   83.84    6.53
   2   3   8    7.06    3.47
  -2  -3  -8   -3.12    3.79
  -2  -3  -8   -0.57    2.39
  -2  -3  -8   -0.65    3.89
   2   3   9  100.46    7.77
  -2  -3  -9   90.13    7.31
   2   4 -11    2.39    4.32
   2   4 -10    5.15    4.07
   2   4 -10    1.91    1.66
  -2  -4   9   20.22    3.82
   2   4  -9   20.83    4.70
   2   4  -9   14.09    2.18
  -2  -4   8   65.48    5.28
   2   4  -8   70.06    6.14
  -2  -4   7  149.19    7.46
   2   4  -7  152.12    8.23
   2   4  -7  151.94    7.11
   2   4  -6   11.42    0.78
   2   4  -6   13.82    2.44
   2   4  -6   15.03    3.86
   2   4  -5  306.16    8.55
   2   4  -5  318.66   10.99
   2   4  -4   17.92    1.70
   2   4  -4   16.83    2.74
  -2  -4   4   18.06    2.46
   2   4  -3  504.79   13.21
  -2  -4   3  398.29   13.19
   2   4  -2   25.32    2.37
   2   4  -2   24.97    2.51
  -2  -4   2   18.59    2.54
   2   4  -1 1144.92   30.41
  -2  -4   1 1154.72   30.79
   2   4  -1 1130.71   30.37
   2   4  -1 1136.26   31.72
   2   4   0   45.30    3.11
   2   4   0   42.81    3.39
  -2  -4   0   49.91    3.98
   2   4   0   42.65    3.71
  -2  -4   0   42.19    3.64
  -2  -4  -1  556.25   17.32
   2   4   1  549.95   15.99
   2   4   1  558.05   17.55
  -2  -4  -1  542.14   17.17
   2   4   2   28.55    2.49
   2   4   2   22.76    3.20
  -2  -4  -2   26.71    3.29
  -2  -4  -3  101.32    4.37
  -2  -4  -3   98.40    5.83
   2   4   3   96.17    5.75
  -2  -4  -3  101.34    6.41
   2   4   3   96.45    4.70
  -2  -4  -4   -1.18    3.55
   2   4   4   -0.64    2.19
  -2  -4  -4   -1.10    2.00
  -2  -4  -4    0.10    1.11
   2   4   4    2.02    1.50
  -2  -4  -4    4.47    2.17
  -2  -4  -5  498.78   14.24
   2   4   5  509.79   17.56
  -2  -4  -5  487.20   17.68
  -2  -4  -5  479.01   16.94
  -2  -4  -5  490.73   15.63
   2   4   6    4.80    2.76
  -2  -4  -6    2.49    3.43
  -2  -4  -6    0.52    2.18
  -2  -4  -6    3.75    2.10
  -2  -4  -6    5.22    1.44
   2   4   7  138.96    8.29
  -2  -4  -7  115.74    8.06
  -2  -4  -7  129.89    7.86
  -2  -4  -8    3.52    4.06
   2   4   8   -1.92    3.35
   2   5 -11    4.22    4.64
   2   5 -10  247.13   11.73
  -2  -5  10  238.66   10.77
   2   5 -10  243.06    9.32
  -2  -5   9    9.54    3.36
   2   5  -9    6.55    2.39
   2   5  -9   14.63    4.30
  -2  -5   8  490.36   16.20
   2   5  -8  474.13   16.79
   2   5  -8  459.18   15.95
  -2  -5   7   45.62    4.31
   2   5  -7   37.53    3.71
   2   5  -7   36.58    4.85
   2   5  -7   39.12    1.67
   2   5  -6  430.53   14.06
   2   5  -6  424.39   11.00
   2   5  -5   33.49    2.42
   2   5  -5   27.95    3.49
  -2  -5   5   34.80    3.36
   2   5  -5   32.24    3.45
   2   5  -4 1050.97   27.81
  -2  -5   4 1062.60   28.62
   2   5  -3    7.75    2.64
  -2  -5   3   11.66    2.89
   2   5  -3    4.25    2.02
   2   5  -3    4.91    1.75
  -2  -5   2 1491.74   38.97
   2   5  -2 1481.85   38.31
   2   5  -2 1387.29   38.78
   2   5  -2 1437.84   38.83
   2   5  -2 1505.98   40.38
   2   5  -1    1.05    2.18
   2   5  -1    0.75    1.60
  -2  -5   1    0.99    2.82
   2   5  -1   -0.15    1.80
   2   5  -1   -0.16    0.85
   2   5   0  345.09   12.13
  -2  -5   0  345.09   12.63
   2   5   0  343.58   13.03
   2   5   0  354.98   11.84
  -2  -5   0  366.57   12.96
  -2  -5  -1   21.16    3.24
  -2  -5  -1   24.16    3.89
   2   5   1   24.99    2.67
   2   5   1   24.78    3.30
   2   5   2  362.50   11.98
  -2  -5  -2  343.31   13.29
   2   5   2  368.51   13.79
  -2  -5  -3   17.13    4.12
   2   5   3   23.02    2.71
  -2  -5  -3   23.55    3.52
  -2  -5  -3   21.45    2.32
   2   5   3   24.55    3.32
  -2  -5  -4  428.89   13.03
   2   5   4  415.27   15.43
  -2  -5  -4  419.15   14.52
   2   5   4  427.13   13.73
  -2  -5  -4  427.92   15.88
  -2  -5  -4  415.74   16.04
  -2  -5  -5    7.79    3.90
   2   5   5    4.17    2.98
  -2  -5  -5   13.04    2.85
  -2  -5  -5   10.11    1.89
  -2  -5  -5   11.87    3.07
   2   5   6   55.83    5.58
  -2  -5  -6   55.58    4.55
  -2  -5  -6   64.65    6.57
  -2  -5  -6   53.19    5.31
   2   5   7    1.28    2.78
   2   6 -12   30.39    6.19
   2   6 -11   26.68    5.68
   2   6 -10   85.30    7.12
  -2  -6  10   85.76    6.17
   2   6 -10   74.44    5.61
  -2  -6   9    0.90    3.03
   2   6  -9    5.58    3.90
   2   6  -9    9.60    2.82
   2   6  -8  388.54   14.19
  -2  -6   8  380.56   13.30
   2   6  -8  412.37   14.11
   2   6  -7    1.16    2.96
  -2  -6   7    3.29    2.79
   2   6  -7   -0.22    2.22
   2   6  -7    1.06    1.11
   2   6  -6  107.85    5.46
   2   6  -6  120.45    6.04
   2   6  -6  114.03    3.96
   2   6  -5   44.99    3.16
   2   6  -5   38.30    4.11
   2   6  -5   35.08    3.64
  -2  -6   5   47.31    4.34
   2   6  -4  260.06    9.27
   2   6  -4  257.73   10.71
   2   6  -4  262.99   11.45
  -2  -6   4  276.84   10.49
   2   6  -3  130.60    7.68
   2   6  -3  132.42    6.94
   2   6  -3  141.38    7.13
   2   6  -3  142.92    6.41
  -2  -6   3  142.49    7.27
   2   6  -2  322.33   11.53
   2   6  -2  330.62   12.06
  -2  -6   2  337.19   12.48
   2   6  -2  340.14   13.45
   2   6  -2  330.98   12.17
   2   6  -1   92.05    5.41
   2   6  -1   77.80    5.12
   2   6  -1   87.74    6.03
   2   6  -1   83.61    5.20
  -2  -6   1   97.10    6.41
   2   6   0  130.19    6.80
  -2  -6   0  131.45    7.54
   2   6   0  135.70    6.61
   2   6   0  131.67    7.61
  -2  -6   0  134.66    7.74
   2   6   0  138.93    6.71
   2   6   1   35.49    3.28
   2   6   1   26.72    3.41
  -2  -6  -1   34.68    4.06
  -2  -6  -1   35.22    4.65
   2   6   1   34.96    4.13
   2   6   1   21.91    3.01
  -2  -6  -2   69.69    5.60
   2   6   2   65.67    4.30
   2   6   2   64.69    4.46
   2   6   3   84.10    5.77
  -2  -6  -3   71.87    5.29
  -2  -6  -3   83.79    6.08
   2   6   3   79.15    4.78
   2   6   4   43.36    4.59
  -2  -6  -4   54.72    5.30
  -2  -6  -4   49.91    4.42
  -2  -6  -4   48.95    5.91
   2   6   4   49.45    3.82
   2   6   5   81.16    6.58
  -2  -6  -5  108.91    7.48
  -2  -6  -5   98.61    6.16
  -2  -6  -5   65.19    7.13
   2   7 -12    0.99    4.93
   2   7 -11   44.38    6.28
   2   7 -10   54.07    6.00
  -2  -7  10   50.67    4.97
   2   7 -10   51.41    5.11
  -2  -7   9   67.39    5.42
   2   7  -9   65.81    5.70
   2   7  -9   67.29    5.55
  -2  -7   8    2.33    2.82
   2   7  -8    0.77    2.24
   2   7  -8    0.08    1.07
  -2  -7   7   -0.55    2.94
   2   7  -7    0.31    1.35
   2   7  -7   -0.25    2.06
   2   7  -6   19.72    3.93
   2   7  -6   23.27    3.59
   2   7  -6   26.84    2.62
   2   7  -6   22.46    3.36
   2   7  -5  139.09    7.80
   2   7  -5  142.46    6.34
   2   7  -5  137.22    8.32
  -2  -7   5  138.56    7.44
   2   7  -4  175.39    7.53
   2   7  -4  175.76    8.71
   2   7  -4  186.85    8.75
   2   7  -4  177.35    9.57
  -2  -7   4  186.51    9.05
   2   7  -3   21.97    3.85
   2   7  -3   15.10    2.80
   2   7  -3   18.30    2.83
   2   7  -3   18.46    3.04
  -2  -7   3   25.37    4.38
   2   7  -2   52.65    4.09
   2   7  -2   59.38    5.05
   2   7  -2   54.70    4.46
   2   7  -2   48.84    4.15
  -2  -7   2   52.71    5.24
  -2  -7   1    4.81    3.74
   2   7  -1    0.85    1.94
   2   7  -1    3.05    2.30
   2   7  -1   -0.21    2.00
   2   7  -1    1.13    2.43
   2   7   0  160.43    7.86
   2   7   0  151.94    7.87
  -2  -7   0  164.12    9.12
  -2  -7   0  149.64    8.55
   2   7   0  152.56    7.53
   2   7   0  151.36    8.66
  -2  -7  -1    5.56    4.03
  -2  -7  -1    3.13    2.59
   2   7   1    0.43    1.99
   2   7   1    3.08    2.45
   2   7   1    2.50    1.96
   2   7   1    2.61    2.43
  -2  -7  -2   99.47    6.55
   2   7   2  105.90    5.78
  -2  -7  -2  102.64    7.18
   2   7   2   97.27    6.01
   2   7   3   11.01    2.74
  -2  -7  -3   10.73    3.15
  -2  -7  -3   15.24    3.67
   2   7   3   14.88    3.42
   2   7   3   12.10    2.42
  -2  -7  -4   37.22    5.05
   2   7   4   48.60    5.23
  -2  -7  -4   41.57    4.76
  -2  -7  -5    3.33    2.68
   2   8 -11    0.91    2.55
   2   8 -10   21.14    4.35
   2   8 -10   25.64    4.05
  -2  -8  10   21.86    3.99
   2   8  -9   41.87    4.66
   2   8  -9   39.80    4.74
  -2  -8   9   49.91    4.73
   2   8  -9   44.77    5.38
  -2  -8   8   61.93    4.95
   2   8  -8   59.80    3.53
   2   8  -8   69.59    5.74
  -2  -8   7   -1.31    3.14
   2   8  -7   -1.21    2.66
   2   8  -7   -0.53    1.67
   2   8  -7    1.36    2.48
   2   8  -6  126.82    7.42
   2   8  -6  137.43    5.65
   2   8  -6  130.49    7.29
   2   8  -5    0.33    2.83
   2   8  -5    0.54    2.59
  -2  -8   5   -0.70    3.73
   2   8  -5   -0.17    2.09
  -2  -8   5    0.19    0.76
   2   8  -4  310.20    8.88
   2   8  -4  302.24   10.41
   2   8  -4  320.10   10.38
  -2  -8   4  318.68   11.02
   2   8  -4  338.45   12.23
  -2  -8   3    0.74    2.25
   2   8  -3    4.58    2.36
   2   8  -3    5.82    3.04
   2   8  -3    4.65    2.42
   2   8  -3    5.35    2.63
  -2  -8   3    3.81    4.24
   2   8  -2  176.94    9.89
   2   8  -2  174.25    8.85
   2   8  -2  181.19    8.59
   2   8  -2  170.89    8.69
  -2  -8   2  178.90    9.93
  -2  -8   2  179.03    9.12
  -2  -8   1    4.68    3.34
   2   8  -1    9.83    3.41
   2   8  -1   10.54    2.83
   2   8  -1    7.42    2.62
   2   8  -1    8.44    2.80
  -2  -8   1   11.41    4.63
   2   8   0  139.54    7.72
   2   8   0  138.71    7.39
  -2  -8   0  131.70    8.94
   2   8   0  130.63    8.50
   2   8   0  135.92    7.71
   2   8   1   16.75    3.28
  -2  -8  -1   13.21    3.46
  -2  -8  -1   13.74    3.65
   2   8   1   17.48    3.00
  -2  -8  -1   18.40    5.04
   2   8   1   15.90    3.75
   2   8   1   11.56    3.15
  -2  -8  -2   90.19    6.84
   2   8   2   91.64    5.81
  -2  -8  -2   94.43    7.32
   2   8   2   98.55    6.37
  -2  -8  -3    8.99    3.42
   2   9  -9   52.87    5.71
  -2  -9   8   31.17    4.04
   2   9  -8   32.96    4.55
   2   9  -8   26.68    4.50
  -2  -9   7   80.44    5.75
   2   9  -7   88.91    5.08
   2   9  -7   90.53    6.72
   2   9  -7   88.96    6.96
  -2  -9   6   -1.49    3.05
   2   9  -6   -1.27    2.33
   2   9  -6   -0.32    2.62
   2   9  -5  118.14    7.37
  -2  -9   5  120.76    7.82
   2   9  -5  120.05    7.26
   2   9  -5  127.06    8.60
   2   9  -5  117.46    6.10
  -2  -9   4    2.04    3.64
   2   9  -4    0.37    2.94
   2   9  -4    0.88    2.44
  -2  -9   4    7.58    4.67
   2   9  -4    1.51    2.33
   2   9  -4    1.38    2.37
  -2  -9   3   48.80    5.93
   2   9  -3   38.73    5.02
   2   9  -3   34.37    4.46
   2   9  -3   36.03    4.14
   2   9  -3   33.78    4.17
  -2  -9   3   27.47    5.69
  -2  -9   2    1.58    4.49
   2   9  -2    8.59    2.91
   2   9  -2    6.88    2.68
  -2  -9   2   14.18    5.23
   2   9  -2   11.22    3.06
   2   9  -2    7.54    3.18
   2   9  -1   25.67    3.89
  -2  -9   1    8.20    3.80
   2   9  -1   21.65    3.81
   2   9  -1   17.63    3.97
   2   9  -1   22.51    3.63
  -2  -9   1   20.18    5.65
  -2  -9   0    1.13    4.87
   2   9   0    1.72    2.30
  -2  -9   0    1.50    3.08
   2   9   0    2.02    2.34
   2   9   0    1.71    2.48
   2   9   0    1.53    2.98
   2   9   1   28.03    4.16
   2   9   1   22.96    3.55
   2  10  -7   16.45    2.95
   2  10  -6    1.47    2.30
   2  10  -5   26.38    4.43
  -2 -10   5   38.07    6.38
   2  10  -5   27.67    3.79
   2  10  -4  130.06    8.47
   2  10  -4  121.32    7.34
   2  10  -4  135.92    8.39
  -2 -10   4  148.79   10.01
   2  10  -3   35.05    4.87
  -2 -10   3   36.18    6.64
   2  10  -3   33.18    4.50
   2  10  -3   36.83    4.49
   2  10  -2   69.01    5.88
   2  10  -2   68.00    6.37
   2  10  -2   70.37    6.00
   2  10  -1    1.30    2.66
   2  10  -1   -0.29    2.43
   2  10   0   23.79    4.18
   2  10   0   20.98    3.70
   2  11  -5   37.96    4.54
  -3  11  -2    0.34    2.81
  -3  11  -3  295.59   13.33
  -3  11  -4    4.22    4.13
   3 -11   4    2.65    3.01
  -3  11  -4    2.86    2.58
  -3  11  -5  166.38    9.96
  -3  11  -5  170.33    9.42
   3 -11   5  161.93    9.08
  -3  11  -6   11.64    4.37
   3 -11   6   16.17    3.68
  -3  11  -6   15.26    3.59
  -3  11  -7  163.08    9.56
  -3  11  -7  166.77    9.81
  -3  11  -8    2.42    3.91
  -3  11  -8   -0.34    3.08
  -3  11  -9  241.06   11.66
   3 -10  -1   20.79    4.59
  -3  10   0  125.65    8.30
   3 -10   0  116.03    7.56
   3 -10   0  118.09    8.89
  -3  10   0  129.28    8.94
   3 -10   1   33.26    4.25
  -3  10  -1   31.58    4.47
  -3  10  -1   34.86    4.48
  -3  10  -2  100.73    6.95
  -3  10  -2   98.96    6.89
   3 -10   2   81.80    6.38
  -3  10  -2   98.88    7.48
  -3  10  -3   66.35    6.67
   3 -10   3   71.45    5.98
  -3  10  -3   69.98    5.72
  -3  10  -4   14.62    4.49
  -3  10  -4   13.89    3.16
   3 -10   4   15.79    3.47
   3 -10   4   14.12    3.12
  -3  10  -4   13.67    3.19
  -3  10  -5   92.86    6.51
  -3  10  -5   99.07    6.77
  -3  10  -5  101.68    7.67
   3 -10   5  112.14    6.84
  -3  10  -6   60.61    5.28
  -3  10  -6   73.27    5.85
  -3  10  -6   79.55    6.77
   3 -10   6   60.62    5.17
  -3  10  -7    0.30    2.65
  -3  10  -7    0.27    2.19
  -3  10  -7    4.62    3.92
  -3  10  -8    9.65    3.43
  -3  10  -8   10.43    2.73
  -3  10  -8   15.88    4.42
  -3  10  -9   29.34    4.63
  -3  10  -9   33.76    4.16
  -3  10  -9   33.86    5.17
  -3  10 -10    5.54    3.28
   3  -9  -3   -0.30    2.46
  -3   9   2  158.03    9.32
  -3   9   2  161.82    9.44
   3  -9  -2  160.84    8.84
   3  -9  -2  164.23   10.22
  -3   9   1   -2.21    3.85
   3  -9  -1    1.54    2.52
  -3   9   1    1.24    2.21
   3  -9  -1    0.83    2.19
   3  -9  -1    1.47    2.84
   3  -9   0  185.73    6.49
   3  -9   0  201.92   10.94
   3  -9   0  197.10    9.63
  -3   9   0  210.44   10.70
  -3   9   0  190.05    9.87
  -3   9  -1   99.92    6.80
   3  -9   1  109.84    7.82
   3  -9   1  106.65    6.78
  -3   9  -1  111.19    6.95
  -3   9  -2  401.47   14.93
  -3   9  -2  366.21   15.63
   3  -9   2  416.91   15.11
   3  -9   3  125.21    7.53
   3  -9   3  136.24    7.60
  -3   9  -3  136.52    7.55
  -3   9  -3  130.88    8.43
  -3   9  -4   40.53    4.15
  -3   9  -4   35.68    4.04
   3  -9   4   35.61    4.03
   3  -9   4   33.60    4.05
  -3   9  -4   40.96    5.43
  -3   9  -5   20.71    3.15
   3  -9   5   22.94    3.34
  -3   9  -5   29.73    3.70
  -3   9  -5   26.29    4.88
  -3   9  -6   17.55    3.42
   3  -9   6   20.80    3.15
  -3   9  -6   14.64    4.46
  -3   9  -6   16.51    2.96
  -3   9  -7  212.92    9.72
  -3   9  -7  214.57   10.81
  -3   9  -7  228.54   10.55
  -3   9  -8   73.28    5.38
  -3   9  -8   96.65    7.34
  -3   9  -8   85.65    6.51
  -3   9  -9  111.84    6.64
  -3   9  -9  110.24    7.60
  -3   9  -9  101.40    7.63
  -3   9 -10   12.51    3.73
  -3   9 -10    7.85    2.54
  -3   9 -10    6.78    3.84
  -3   9 -10    7.90    4.26
  -3   9 -11   31.17    3.93
  -3   8   4    4.85    3.18
  -3   8   4    3.52    3.00
   3  -8  -4    0.84    2.24
   3  -8  -4    1.60    3.02
   3  -8  -4   -0.23    3.76
  -3   8   3   29.13    4.08
   3  -8  -3   27.52    4.26
  -3   8   3   26.97    4.32
   3  -8  -3   27.15    3.68
   3  -8  -3   31.01    4.91
   3  -8  -2    7.96    3.39
  -3   8   2    5.48    3.68
   3  -8  -2    9.69    3.21
  -3   8   2    6.97    2.83
   3  -8  -2    5.19    2.28
  -3   8   1    0.55    3.66
   3  -8  -1    5.89    2.54
  -3   8   1    4.88    2.24
   3  -8  -1    2.01    2.04
   3  -8  -1    1.61    2.92
  -3   8   0   51.60    4.76
   3  -8   0   57.69    3.37
   3  -8   0   58.39    4.84
  -3   8   0   64.93    6.09
   3  -8   0   67.36    5.94
  -3   8  -1  110.99    6.86
  -3   8  -1  132.03    7.14
   3  -8   1  132.36    8.04
  -3   8  -2   59.74    5.91
  -3   8  -2   58.19    4.70
   3  -8   2   60.30    4.89
   3  -8   3  407.99   14.39
   3  -8   3  402.25   14.83
  -3   8  -3  398.20   14.60
  -3   8  -3  421.10   16.05
  -3   8  -3  433.48   14.73
  -3   8  -4  123.57    6.81
   3  -8   4  130.83    7.20
   3  -8   4  124.20    6.69
  -3   8  -4  120.22    8.13
  -3   8  -4  138.43    7.12
   3  -8   5  124.23    6.53
  -3   8  -5  132.45    6.97
  -3   8  -5  139.58    8.57
  -3   8  -5  132.09    7.18
  -3   8  -6  140.48    7.18
  -3   8  -6  147.43    8.80
  -3   8  -6  144.73    7.71
  -3   8  -7  189.01    8.50
  -3   8  -7  196.52    9.35
  -3   8  -7  179.45    9.65
  -3   8  -8   20.46    3.62
  -3   8  -8   21.55    2.41
  -3   8  -8   16.91    2.75
  -3   8  -8   18.86    4.62
  -3   8  -9  252.45   10.46
  -3   8  -9  266.32    9.20
  -3   8  -9  243.82   11.33
  -3   8 -10   32.99    3.72
  -3   8 -10   32.64    5.05
  -3   8 -10   37.56    5.25
  -3   8 -11   38.94    4.10
   3  -7  -6  197.54   10.51
  -3   7   6  184.28    9.58
   3  -7  -6  184.17    9.54
   3  -7  -5    6.87    4.16
  -3   7   5   12.46    3.27
   3  -7  -5    8.86    2.55
   3  -7  -5    9.70    3.24
  -3   7   4  272.87   11.63
   3  -7  -4  263.99   11.18
   3  -7  -4  256.50   11.18
   3  -7  -4  259.73   12.44
  -3   7   4  244.68   11.91
   3  -7  -3    9.00    3.15
  -3   7   3   15.86    3.64
   3  -7  -3   14.18    3.66
   3  -7  -3   13.56    2.74
  -3   7   3   14.27    3.16
   3  -7  -2  712.86   20.83
   3  -7  -2  695.18   22.39
   3  -7  -2  753.41   24.34
  -3   7   2  695.40   22.93
  -3   7   2  730.08   23.19
   3  -7  -1    3.35    2.66
  -3   7   1    5.39    3.34
  -3   7   1    1.41    2.11
   3  -7  -1    1.78    1.81
   3  -7  -1    4.47    2.46
  -3   7   0 1690.34   46.14
   3  -7   0 1742.89   47.30
  -3   7   0 1803.18   47.31
   3  -7   0 1658.47   42.58
   3  -7   1   38.14    4.29
  -3   7  -1   32.21    3.33
  -3   7  -2  551.72   12.83
  -3   7  -2  544.02   12.32
  -3   7  -3   36.86    3.58
   3  -7   3   44.72    3.90
  -3   7  -3   41.00    5.57
  -3   7  -3   43.70    3.74
   3  -7   4  681.46   21.47
  -3   7  -4  695.47   21.13
  -3   7  -4  680.28   22.54
  -3   7  -4  723.15   21.32
  -3   7  -5   -0.18    1.71
  -3   7  -5    4.53    3.85
  -3   7  -5   -0.96    2.12
  -3   7  -6  856.18   23.77
  -3   7  -6  857.62   25.26
  -3   7  -6  886.63   24.55
  -3   7  -7    4.08    1.96
  -3   7  -7    0.90    1.53
  -3   7  -7    1.83    3.59
  -3   7  -8  300.32   10.07
  -3   7  -8  299.04   11.08
  -3   7  -9   19.35    4.04
  -3   7  -9   18.65    2.71
  -3   7  -9   17.63    3.37
  -3   7 -10   50.37    4.17
  -3   7 -10   50.60    4.85
  -3   7 -10   49.68    5.15
  -3   7 -11    0.61    1.87
   3  -6  -7   26.55    3.84
  -3   6   7   25.79    3.93
  -3   6   6  147.17    7.83
   3  -6  -6  145.32    8.82
   3  -6  -6  148.45    9.27
   3  -6  -6  138.78    7.97
   3  -6  -5   23.21    4.54
  -3   6   5   33.20    3.98
   3  -6  -5   25.33    3.60
   3  -6  -5   28.47    4.42
   3  -6  -4  307.08   12.10
   3  -6  -4  306.97   11.93
   3  -6  -4  325.33   13.26
  -3   6   4  295.18   12.68
   3  -6  -3  169.83    8.38
   3  -6  -3  181.44    8.17
  -3   6   3  183.54    8.99
  -3   6   3  178.93    8.95
   3  -6  -3  185.94    9.22
   3  -6  -2  103.84    6.05
   3  -6  -2   94.57    5.45
  -3   6   2   94.47    6.04
   3  -6  -2  108.79    6.65
  -3   6   2  103.05    6.64
   3  -6  -1   58.27    3.71
  -3   6   1   63.88    5.33
   3  -6  -1   65.06    5.05
  -3   6   1   56.41    4.21
   3  -6   0  305.74    5.85
  -3   6   0  326.90   10.17
   3  -6   1   18.40    1.31
  -3   6  -1   22.52    2.53
   3  -6   2  447.61   14.62
  -3   6  -2  440.83   13.98
  -3   6  -2  437.12   14.38
  -3   6  -3   10.78    2.09
   3  -6   3   13.90    2.27
  -3   6  -3   13.74    4.12
  -3   6  -3   13.38    2.31
   3  -6   4  103.18    5.80
  -3   6  -4  114.75    7.10
  -3   6  -4  120.28    5.81
  -3   6  -4  115.69    5.75
  -3   6  -5    3.89    2.08
  -3   6  -5    1.38    1.22
  -3   6  -5    0.30    1.44
  -3   6  -6   24.17    2.33
  -3   6  -6   18.60    2.41
  -3   6  -7   65.95    4.24
  -3   6  -7   74.09    4.13
  -3   6  -8  124.30    6.09
  -3   6  -8  132.81    6.20
  -3   6  -8  144.56    8.15
  -3   6  -9   56.55    4.64
  -3   6 -10    1.90    2.63
  -3   6 -10    3.10    3.39
  -3   6 -10    3.08    1.77
  -3   6 -11    4.47    1.94
  -3   6 -11    7.42    2.64
  -3   6 -11    0.49    4.18
   3  -5  -8   15.40    3.27
  -3   5   8   19.03    3.37
   3  -5  -7  226.89   10.55
  -3   5   7  237.64   10.06
   3  -5  -7  210.15   11.26
   3  -5  -7  231.85   11.87
   3  -5  -6   32.48    5.03
   3  -5  -6   30.06    3.82
  -3   5   6   31.96    3.72
   3  -5  -6   27.62    4.22
   3  -5  -5  192.13    9.15
   3  -5  -5  190.65    9.38
  -3   5   5  205.30    8.91
   3  -5  -5  191.82    9.80
  -3   5   4   26.22    3.70
   3  -5  -4   23.76    3.95
   3  -5  -4   23.65    3.23
  -3   5   4   25.04    3.29
   3  -5  -4   26.21    3.65
   3  -5  -3  235.11    9.52
  -3   5   3  240.51    9.78
   3  -5  -3  250.87   10.18
   3  -5  -3  258.10   10.67
  -3   5   3  238.93   10.32
  -3   5   3  245.69   10.10
   3  -5  -2  172.88    5.98
  -3   5   2  167.71    6.47
  -3   5   2  162.48    6.63
   3  -5  -2  174.50    7.01
  -3   5   2  173.14    7.28
   3  -5  -1  310.50    7.19
  -3   5   1  317.72    9.80
   3  -5   0  472.05    9.66
  -3   5   0  123.02    9.05
  -3   5  -1  270.00    9.78
  -3   5  -1  289.44    9.95
  -3   5  -1  267.54    9.17
  -3   5  -2  626.83   18.43
  -3   5  -2  629.59   18.39
  -3   5  -2  638.24   17.87
  -3   5  -3    1.30    1.39
  -3   5  -3    2.85    0.84
  -3   5  -3    1.59    1.32
  -3   5  -3    1.97    1.59
  -3   5  -4  232.12    8.35
  -3   5  -4  226.40    8.31
  -3   5  -5   73.27    3.96
  -3   5  -5   66.73    3.36
  -3   5  -6  375.83   12.17
  -3   5  -6  422.42   12.64
  -3   5  -7   19.71    3.72
  -3   5  -7   17.62    2.85
  -3   5  -7   19.46    2.27
  -3   5  -8  242.90    9.59
  -3   5  -8  249.80   10.84
  -3   5  -9   63.79    5.17
  -3   5  -9   65.93    3.98
  -3   5  -9   68.86    5.25
  -3   5 -10  149.94    8.10
  -3   5 -10  140.12    6.33
  -3   5 -10  156.42    7.83
  -3   5 -10  155.86    6.09
  -3   5 -11    0.62    2.09
  -3   5 -11    0.54    3.54
  -3   5 -12   80.05    7.19
   3  -4  -9   22.04    3.81
   3  -4  -8   19.21    5.10
   3  -4  -8   13.87    3.22
   3  -4  -8   17.18    3.88
  -3   4   8   12.75    2.82
  -3   4   7   41.08    3.89
   3  -4  -7   36.12    5.45
   3  -4  -7   39.41    4.20
  -3   4   7   38.91    2.99
   3  -4  -7   37.90    4.73
   3  -4  -6  135.76    7.60
  -3   4   6  151.18    6.97
   3  -4  -6  150.54    8.49
   3  -4  -6  149.74    8.45
   3  -4  -5    2.29    3.51
  -3   4   5    6.11    2.30
   3  -4  -5    6.72    2.50
  -3   4   5    5.13    2.46
   3  -4  -5    4.04    2.27
   3  -4  -4  239.58    9.14
  -3   4   4  229.50    8.60
   3  -4  -4  224.91    9.37
   3  -4  -4  249.24    9.41
   3  -4  -3   72.66    4.83
   3  -4  -3   75.17    5.07
  -3   4   3   73.73    4.65
  -3   4   3   72.15    5.01
   3  -4  -3   68.05    4.68
   3  -4  -2  629.93   12.19
  -3   4   2  654.71   11.95
   3  -4  -1  110.04    5.05
  -3   4   1  125.22    5.07
  -3   4   0 1228.02   31.06
   3  -4   0 1223.25   31.40
   3  -4   1    0.21    1.29
  -3   4  -1    1.01    1.44
  -3   4  -1    0.24    1.16
  -3   4  -1   -0.32    0.90
  -3   4  -2 1183.31   30.18
  -3   4  -2 1170.08   30.92
  -3   4  -2 1181.01   29.71
  -3   4  -2 1176.98   31.00
  -3   4  -3  192.68    7.05
  -3   4  -3  188.79    6.92
  -3   4  -3  205.24    6.77
  -3   4  -4  688.00   19.32
  -3   4  -4  718.21   19.15
  -3   4  -5  126.26    5.17
  -3   4  -6 1629.79   45.17
  -3   4  -6 1692.95   42.59
  -3   4  -7    3.33    2.57
  -3   4  -7    4.98    1.46
  -3   4  -7    5.70    2.75
  -3   4  -8  305.17   11.70
  -3   4  -8  305.79   11.94
  -3   4  -8  297.53    9.73
  -3   4  -9   38.79    2.84
  -3   4  -9   48.46    4.93
  -3   4  -9   43.98    4.25
  -3   4  -9   37.12    3.00
  -3   4 -10   67.97    5.83
  -3   4 -10   61.49    3.58
  -3   4 -10   62.12    3.46
  -3   4 -10   64.72    4.81
  -3   4 -10   52.65    2.52
  -3   4 -11    3.80    3.86
  -3   4 -11    1.01    2.02
   3  -3  -9  269.47   13.36
   3  -3  -9  267.60   12.15
   3  -3  -8    9.23    4.49
   3  -3  -8    2.48    2.28
  -3   3   8    5.33    2.37
  -3   3   8    2.45    1.88
  -3   3   8    1.18    1.87
   3  -3  -7  397.04   13.78
  -3   3   7  434.98   12.11
  -3   3   7  423.37    9.96
   3  -3  -7  398.56   13.32
   3  -3  -6   81.75    6.08
  -3   3   6   89.84    4.91
  -3   3   6   80.48    3.90
   3  -3  -6   81.27    5.34
   3  -3  -5  658.48   20.66
   3  -3  -5  662.95   20.84
  -3   3   5  653.12   19.57
   3  -3  -4   45.70    4.35
  -3   3   4   43.33    3.85
   3  -3  -4   44.50    3.74
   3  -3  -3 1556.35   40.10
  -3   3   3 1488.78   40.03
  -3   3   2   57.63    3.71
   3  -3  -2   60.73    4.10
   3  -3  -1 2479.41   63.22
  -3   3   1 2599.75   63.16
   3  -3   0  122.37    4.70
  -3   3   0  108.46    4.96
  -3   3   0  121.70    4.82
   3  -3   0  114.45    4.78
  -3   3  -1 1087.19   27.62
  -3   3  -1 1062.60   26.73
   3  -3   1 1062.97   27.12
  -3   3  -1 1047.62   27.87
  -3   3  -2  731.31   19.53
  -3   3  -2  726.67   19.41
  -3   3  -2  710.66   18.43
   3  -3   3 1483.74   37.78
  -3   3  -3 1480.06   37.63
  -3   3  -3 1496.96   37.59
  -3   3  -4   45.91    2.56
  -3   3  -4   44.62    2.47
  -3   3  -5 1316.51   32.43
  -3   3  -5 1256.52   31.85
  -3   3  -5 1242.86   35.19
  -3   3  -6    6.47    2.82
  -3   3  -6   11.91    1.47
  -3   3  -7    8.16    2.73
  -3   3  -7    6.74    1.69
  -3   3  -7    8.94    1.40
  -3   3  -8   25.09    2.05
  -3   3  -8   22.28    3.73
  -3   3  -8   22.56    3.31
  -3   3  -8   27.03    2.57
  -3   3  -9   78.44    6.32
  -3   3  -9   67.71    4.98
  -3   3  -9   69.25    3.46
  -3   3  -9   70.50    3.62
  -3   3 -10   49.80    2.97
  -3   3 -10   41.81    4.09
  -3   3 -11   35.21    5.36
  -3   3 -11   27.73    3.82
   3  -2 -10   13.13    3.38
   3  -2  -9  152.58    9.75
   3  -2  -9  163.72    9.04
  -3   2   9  156.00    7.31
   3  -2  -8    1.66    2.34
  -3   2   8    1.10    1.80
   3  -2  -8    5.35    4.20
  -3   2   8    1.52    2.02
   3  -2  -7  358.49   14.24
  -3   2   7  371.15   12.47
   3  -2  -7  357.20   14.07
   3  -2  -6   50.26    5.38
   3  -2  -6   46.75    4.30
  -3   2   6   50.00    3.21
   3  -2  -5  275.11   11.19
  -3   2   5  296.62   11.20
  -3   2   5  286.82    9.71
   3  -2  -5  295.04   11.48
  -3   2   4   40.18    3.96
   3  -2  -4   42.50    4.47
  -3   2   4   39.29    2.90
   3  -2  -4   41.68    3.66
   3  -2  -3  879.61   24.93
  -3   2   3  917.52   24.93
   3  -2  -2  134.61    6.00
  -3   2   2  131.99    5.91
   3  -2  -1  928.50   24.62
  -3   2   1  925.45   24.44
  -3   2   1  884.26   24.64
   3  -2   0  185.91    6.52
  -3   2   0  181.34    6.52
  -3   2   0  182.75    6.97
   3  -2   0  191.96    5.73
   3  -2   1  579.02   15.56
  -3   2  -1  558.22   15.94
  -3   2  -1  545.86   15.23
   3  -2   2   32.02    2.00
  -3   2  -2   36.81    2.02
   3  -2   3  137.71    4.56
  -3   2  -3  121.64    6.06
  -3   2  -3  127.09    4.32
  -3   2  -4  544.57   14.07
  -3   2  -4  508.37   16.76
  -3   2  -5  292.76    7.78
  -3   2  -5  255.59    7.45
  -3   2  -5  282.65   10.72
  -3   2  -5  278.41    9.12
  -3   2  -6  518.38   13.56
  -3   2  -6  515.85   16.82
  -3   2  -6  495.09   14.98
  -3   2  -7   11.22    1.27
  -3   2  -7   12.94    1.98
  -3   2  -8  108.86    6.22
  -3   2  -8  113.02    4.09
  -3   2  -9   -2.67    3.63
  -3   2  -9    0.61    0.89
  -3   2  -9   -0.42    2.10
  -3   2  -9    0.08    0.96
  -3   2 -10  122.01    6.94
  -3   2 -10  131.76    8.88
  -3   2 -11   21.75    3.54
   3  -1 -10  135.82    8.61
   3  -1  -9   44.15    5.85
   3  -1  -9   45.38    5.09
  -3   1   9   46.18    3.73
  -3   1   9   51.11    3.50
   3  -1  -8  108.70    7.64
  -3   1   8  105.27    5.47
  -3   1   8  116.33    5.66
   3  -1  -8  102.90    7.04
   3  -1  -7   13.69    3.01
   3  -1  -7   10.39    4.24
  -3   1   7   10.49    3.40
  -3   1   7    0.15    0.71
  -3   1   7    8.84    2.13
  -3   1   6   28.61    2.18
   3  -1  -6   23.10    3.34
   3  -1  -6   22.24    4.54
   3  -1  -5  109.20    6.53
  -3   1   5   91.62    5.66
   3  -1  -5  110.16    6.27
  -3   1   5   98.30    4.87
  -3   1   5  108.26    4.46
   3  -1  -4  451.01   14.44
  -3   1   4  431.92   14.09
  -3   1   4  425.54   13.25
  -3   1   4  433.64   12.50
  -3   1   3  685.92   19.56
   3  -1  -3  706.30   20.23
  -3   1   3  699.40   18.97
   3  -1  -2    4.98    2.73
  -3   1   2    3.69    2.53
  -3   1   2    2.06    1.38
   3  -1  -1  166.83    6.53
  -3   1   1  162.14    6.84
  -3   1   1  174.26    6.53
   3  -1   0    6.24    1.25
  -3   1   0    4.45    2.52
  -3   1  -1  844.76   23.62
  -3   1  -1  799.91   23.25
  -3   1  -2    1.68    0.44
   3  -1   2    3.11    0.74
  -3   1  -2    2.57    1.39
  -3   1  -3  504.33   15.32
  -3   1  -3  525.17   14.33
  -3   1  -4    1.17    1.36
  -3   1  -4    1.54    2.09
  -3   1  -5  239.00    9.86
  -3   1  -5  244.35    8.53
  -3   1  -6   40.54    1.55
  -3   1  -6   44.59    1.60
  -3   1  -7   64.63    2.27
  -3   1  -7   65.62    2.32
  -3   1  -8    1.52    0.60
  -3   1  -8    0.73    0.54
  -3   1  -9   53.03    2.24
  -3   1  -9   78.85    5.40
  -3   1  -9   84.10    6.67
  -3   1  -9   55.53    2.17
  -3   1 -10    0.35    4.11
  -3   1 -10    2.78    2.55
   3   0 -11    5.90    2.92
   3   0 -10   -2.33    2.67
  -3   0  10   -0.15    1.83
  -3   0   9   84.00    4.37
   3   0  -9   82.97    6.34
  -3   0   8   81.00    3.05
   3   0  -8   85.64    6.41
  -3   0   7  407.66   11.07
  -3   0   7  433.56   13.73
  -3   0   6   71.23    2.74
  -3   0   6   72.36    4.53
  -3   0   5  539.24   16.62
  -3   0   5  543.81   14.27
  -3   0   4   33.34    2.38
   3   0  -3 1869.31   49.99
  -3   0   3 1998.31   49.62
   3   0  -2    1.85    2.73
  -3   0   2   -0.13    1.50
  -3   0   2    5.06    1.39
   3   0  -2    3.78    1.72
   3   0  -1 1257.58   34.05
  -3   0   1 1327.30   33.76
  -3   0   1 1345.11   34.55
  -3   0   0   21.65    2.40
   3   0   0   20.29    1.39
  -3   0  -1 1917.46   50.32
  -3   0  -1 1914.17   50.28
   3   0   1 1996.08   48.13
   3   0   1 1979.18   48.33
  -3   0  -2    6.56    1.87
  -3   0  -2    6.17    1.05
  -3   0  -3  877.74   26.39
  -3   0  -3  945.51   24.57
  -3   0  -3  955.21   24.26
  -3   0  -4    1.50    1.03
  -3   0  -4    0.20    1.14
  -3   0  -4    1.90    2.10
  -3   0  -5  984.90   28.62
   3   0   5 1015.14   29.18
  -3   0  -5 1025.64   27.32
  -3   0  -6   76.89    4.44
   3   0   6   75.44    5.61
  -3   0  -6   63.67    2.74
  -3   0  -6   68.85    4.96
  -3   0  -7  109.53    6.50
  -3   0  -7  112.68    5.95
   3   0   7  109.39    6.97
   3   0   8    3.47    3.01
  -3   0  -8    2.03    2.45
  -3   0  -8   -1.26    1.98
  -3   0  -9  114.39    8.02
  -3   0  -9   96.08    6.49
   3   0   9  120.70    7.68
  -3   0  -9  101.58    6.46
  -3   0 -10   43.82    4.74
  -3   0 -10   40.21    4.85
   3   1 -11    0.73    2.74
   3   1 -10  220.62   10.24
  -3  -1  10    4.75    1.72
   3   1  -9   57.62    6.09
  -3  -1   8  318.54   12.81
  -3  -1   8  309.48   10.89
   3   1  -8  287.85   12.72
  -3  -1   7  207.50    9.77
  -3  -1   7  226.75    8.70
   3   1  -6  537.66    9.81
  -3  -1   6  574.20   10.88
   3   1  -5    1.13    1.80
  -3  -1   5   -0.15    1.56
  -3  -1   4  685.55   17.47
   3   1  -4  672.86   19.83
  -3  -1   4  709.21   20.17
  -3  -1   3  314.80    9.04
   3   1  -3  306.97   10.52
  -3  -1   3  316.45   10.79
  -3  -1   2  300.97    9.21
  -3  -1   1   38.89    2.79
   3   1  -1   36.45    2.83
   3   1   0  668.06   17.12
  -3  -1   0  659.34   17.13
  -3  -1  -1   26.92    2.80
   3   1   1   28.45    2.10
  -3  -1  -1   29.40    2.12
  -3  -1  -1   23.11    2.28
  -3  -1  -2  148.13    5.71
  -3  -1  -2  155.53    5.65
  -3  -1  -3    1.90    1.13
  -3  -1  -3    2.72    1.13
  -3  -1  -4   71.10    4.75
  -3  -1  -4   59.10    3.67
   3   1   4   66.12    4.87
   3   1   5    4.37    2.54
  -3  -1  -5    7.61    1.96
  -3  -1  -5    5.35    2.63
  -3  -1  -6    4.49    1.49
   3   1   6    5.33    2.83
  -3  -1  -6    5.78    2.74
  -3  -1  -6    2.40    1.85
  -3  -1  -7    0.33    1.13
  -3  -1  -7   -0.23    2.60
   3   1   7    1.03    2.71
  -3  -1  -7    0.40    1.82
   3   1   8   19.53    3.97
  -3  -1  -8   18.95    3.64
  -3  -1  -8   17.57    3.09
  -3  -1  -9   47.04    5.20
  -3  -1  -9   47.69    5.96
   3   1   9   43.62    5.37
  -3  -1  -9   44.02    4.62
   3   1  10    3.04    3.61
  -3  -1 -10    4.38    2.72
  -3  -1 -10    2.99    3.20
   3   2 -10  192.01   10.71
  -3  -2   9   39.84    4.94
   3   2  -9   41.78    5.56
  -3  -2   8  128.59    7.53
   3   2  -8  115.37    7.69
   3   2  -8  115.58    5.56
   3   2  -7   15.06    4.47
  -3  -2   7    9.80    3.44
   3   2  -7   11.57    2.40
  -3  -2   7    4.80    2.02
   3   2  -6  108.19    7.03
  -3  -2   6  105.11    6.47
   3   2  -6  109.74    5.51
  -3  -2   6  102.18    5.55
   3   2  -5  135.78    5.53
  -3  -2   5  138.84    5.81
   3   2  -5  137.94    7.01
   3   2  -4  660.97   19.61
  -3  -2   4  611.97   16.13
   3   2  -4  646.80   18.60
  -3  -2   4  657.23   18.85
   3   2  -3 1161.13   31.76
  -3  -2   3 1190.19   29.73
   3   2  -3 1185.31   30.09
   3   2  -3 1163.67   31.47
  -3  -2   3 1140.63   31.62
   3   2  -2  106.82    4.50
  -3  -2   2   99.00    4.26
  -3  -2   1  264.93    9.01
   3   2  -1  281.24    9.15
   3   2  -1  289.75    9.37
  -3  -2   1  275.88    9.65
  -3  -2   0   52.15    3.42
   3   2   0   49.65    3.34
  -3  -2   0   50.08    3.32
   3   2   0   44.88    3.13
  -3  -2  -1  299.29   10.54
   3   2   1  303.79    8.86
  -3  -2  -1  301.43    9.91
   3   2   1  308.88   10.07
  -3  -2  -1  310.12    9.94
   3   2   2  254.65    7.27
  -3  -2  -2  253.98    8.87
  -3  -2  -3  944.41   14.94
   3   2   3  854.73    9.94
  -3  -2  -4  138.83    7.26
   3   2   4  144.09    7.35
  -3  -2  -4  141.85    6.43
  -3  -2  -5  398.85   14.61
   3   2   5  412.89   14.87
  -3  -2  -5  417.97   13.88
   3   2   6   14.41    3.32
  -3  -2  -6   17.29    3.56
  -3  -2  -6   15.60    2.22
  -3  -2  -6   17.71    2.92
  -3  -2  -7  152.35    8.40
  -3  -2  -7  147.43    5.81
   3   2   7  149.85    8.64
  -3  -2  -7  154.85    7.84
  -3  -2  -8    8.30    3.52
   3   2   8    7.04    3.41
  -3  -2  -8    4.15    2.42
  -3  -2  -9  162.49    9.52
   3   2   9  152.68    9.61
  -3  -2  -9  149.82    8.58
   3   3 -11   23.98    5.53
   3   3 -10    5.81    4.43
  -3  -3  10   -0.84    3.38
   3   3  -9    8.97    4.73
  -3  -3   9   -0.27    3.63
   3   3  -9    2.23    1.87
   3   3  -8    3.62    4.11
   3   3  -8    1.96    1.81
  -3  -3   8    1.65    3.16
   3   3  -7   16.23    4.75
   3   3  -7   11.62    2.44
  -3  -3   7   11.99    3.61
   3   3  -6  287.60   12.00
  -3  -3   6  285.82   11.62
   3   3  -6  301.58   10.66
   3   3  -5   -3.77    4.01
  -3  -3   5   -0.93    2.25
  -3  -3   5    2.96    1.12
   3   3  -4  183.69    7.99
   3   3  -4  180.67    6.03
   3   3  -4  173.77    7.54
  -3  -3   4  179.10    6.06
  -3  -3   3   21.25    2.12
   3   3  -3   20.45    2.02
   3   3  -2   17.71    2.51
  -3  -3   2   21.01    2.29
   3   3  -2   20.88    2.25
  -3  -3   1   97.16    4.88
   3   3  -1  101.06    4.93
   3   3  -1   96.75    5.21
   3   3   0  277.19    9.08
   3   3   0  284.69   10.10
   3   3   0  286.40   10.07
  -3  -3   0  276.32    9.97
   3   3   1   34.21    2.38
  -3  -3  -1   32.18    3.06
   3   3   1   33.61    3.23
   3   3   1   42.55    3.67
  -3  -3  -1   39.58    3.61
   3   3   2  215.84    7.11
   3   3   2  229.96    9.05
  -3  -3  -2  229.72    8.76
  -3  -3  -3  153.17    6.16
   3   3   3  149.61    3.82
  -3  -3  -4   16.28    3.38
   3   3   4   12.48    2.94
  -3  -3  -4   15.58    2.59
  -3  -3  -5   60.30    5.37
   3   3   5   52.95    4.99
  -3  -3  -5   59.81    4.56
  -3  -3  -6    8.53    2.67
  -3  -3  -6   14.08    2.47
   3   3   6    9.12    3.25
  -3  -3  -7   -1.83    3.04
   3   3   7   -0.30    2.99
  -3  -3  -7    2.55    1.92
  -3  -3  -7    1.03    2.29
  -3  -3  -8    4.86    2.67
   3   3   8    4.32    3.32
  -3  -3  -8   -1.64    4.34
   3   4 -11   11.70    5.21
  -3  -4  10  133.22    8.20
   3   4 -10  143.94    6.74
   3   4  -9   10.84    4.81
  -3  -4   9    2.85    3.28
   3   4  -9    7.10    2.10
   3   4  -8  159.22    9.23
  -3  -4   8  173.43    8.77
   3   4  -8  166.43    7.59
   3   4  -7   -0.97    4.03
  -3  -4   7    3.25    3.33
   3   4  -6  336.80   12.90
  -3  -4   6  313.11   12.49
   3   4  -6  317.39   11.99
   3   4  -5   72.09    3.29
   3   4  -5   79.70    5.46
   3   4  -5   72.55    4.90
  -3  -4   5   81.14    3.88
  -3  -4   4  704.56   19.58
   3   4  -4  715.25   19.33
   3   4  -3    0.75    2.00
  -3  -4   3   -2.18    2.44
   3   4  -3   -0.23    1.74
   3   4  -2  507.24   15.47
   3   4  -2  508.85   14.19
  -3  -4   2  486.83   14.30
   3   4  -1    3.20    1.98
  -3  -4   1    3.09    2.19
   3   4  -1    3.17    1.74
   3   4  -1    3.02    2.17
  -3  -4   0  699.34   20.49
   3   4   0  692.67   20.60
   3   4   0  655.91   20.06
   3   4   0  658.55   19.16
  -3  -4  -1  190.13    7.39
   3   4   1  186.32    6.02
  -3  -4  -1  204.65    8.00
   3   4   1  187.60    7.58
   3   4   2  477.57   14.14
   3   4   2  494.84   16.43
  -3  -4  -2  481.02   15.93
  -3  -4  -3   10.85    2.62
   3   4   3    8.58    1.58
  -3  -4  -4   86.93    6.53
   3   4   4   90.89    6.30
  -3  -4  -4   95.60    6.10
   3   4   4  104.42    4.28
  -3  -4  -5   46.79    5.33
   3   4   5   53.68    4.95
  -3  -4  -5   49.18    3.96
  -3  -4  -5   55.15    4.69
  -3  -4  -6   90.41    6.07
   3   4   6   88.15    6.43
  -3  -4  -6   84.12    4.80
  -3  -4  -6   81.90    6.89
   3   4   7   83.58    7.07
  -3  -4  -7   82.10    7.51
  -3  -4  -7   89.48    6.59
   3   5 -11   32.67    6.02
  -3  -5  11   24.22    4.56
   3   5 -10   49.04    6.43
  -3  -5  10   48.29    5.73
   3   5 -10   60.37    4.60
   3   5  -9   23.60    5.11
  -3  -5   9   23.09    4.20
   3   5  -9   28.44    3.32
   3   5  -8   14.81    4.32
  -3  -5   8   18.25    3.87
   3   5  -7   98.75    6.87
  -3  -5   7  101.77    6.91
   3   5  -7   95.95    6.08
   3   5  -6    9.75    3.32
  -3  -5   6   11.76    4.12
  -3  -5   6   13.41    2.42
   3   5  -6   13.80    2.67
   3   5  -6   13.03    1.60
   3   5  -5   23.00    2.27
  -3  -5   5   20.71    4.48
  -3  -5   5   21.71    3.19
   3   5  -5   17.56    2.81
  -3  -5   4  119.19    5.45
   3   5  -4  117.57    6.53
   3   5  -4  120.65    4.76
   3   5  -3    1.37    1.91
   3   5  -3    3.75    2.26
  -3  -5   3   -0.15    2.71
   3   5  -3    2.54    1.77
  -3  -5   3    0.49    1.33
   3   5  -3    1.69    1.91
   3   5  -2    4.94    2.12
  -3  -5   2    4.42    2.83
   3   5  -2    2.47    2.39
  -3  -5   2    0.45    1.58
   3   5  -2    3.15    1.96
   3   5  -2    2.67    1.90
   3   5  -1   49.93    3.88
   3   5  -1   52.21    4.02
   3   5  -1   57.05    4.62
  -3  -5   1   56.06    4.88
   3   5  -1   50.23    4.07
  -3  -5   1   44.70    4.65
   3   5   0    0.74    1.99
   3   5   0    0.31    1.64
  -3  -5   0   -1.92    3.36
   3   5   0    0.35    1.69
   3   5   0    0.22    2.22
  -3  -5  -1    9.42    2.64
   3   5   1   10.11    2.64
  -3  -5  -1    8.20    3.41
   3   5   1    8.51    2.03
   3   5   1   13.12    2.89
   3   5   1   11.34    2.14
  -3  -5  -2   14.01    2.88
  -3  -5  -2    9.83    3.73
   3   5   2   15.64    2.19
   3   5   2   13.96    3.06
   3   5   3  116.58    4.70
  -3  -5  -3  118.60    6.55
  -3  -5  -4    7.48    3.09
  -3  -5  -4    8.31    4.09
   3   5   4   10.35    2.00
   3   5   4    8.38    3.18
   3   5   4    5.59    2.33
  -3  -5  -5   17.41    3.66
  -3  -5  -5    8.61    4.39
  -3  -5  -5   12.78    2.95
   3   5   5    8.88    2.58
   3   5   5   14.29    3.61
  -3  -5  -6    3.80    2.86
  -3  -5  -6    2.43    2.54
   3   5   6    3.55    3.12
   3   6 -11   36.82    6.31
  -3  -6  11   32.30    4.92
   3   6 -10    3.11    4.51
  -3  -6  10   14.42    4.13
   3   6 -10   13.96    2.86
   3   6  -9    0.82    4.01
  -3  -6   9    5.76    3.44
   3   6  -8   25.01    4.30
   3   6  -8   21.06    3.47
  -3  -6   8   25.16    4.28
  -3  -6   7   48.00    5.33
   3   6  -7   46.19    2.56
   3   6  -7   47.01    4.70
   3   6  -7   40.58    4.37
  -3  -6   6  268.65   11.09
   3   6  -6  223.76    8.09
  -3  -6   6  242.69    9.06
   3   6  -6  250.90   10.83
   3   6  -5   30.41    4.21
   3   6  -5   33.03    2.85
  -3  -6   5   42.91    5.18
  -3  -6   5   33.57    4.06
  -3  -6   4  239.59   11.25
   3   6  -4  220.46   10.10
  -3  -6   4  238.57    9.66
   3   6  -4  242.92   10.84
   3   6  -4  222.56    8.59
   3   6  -3    3.10    2.60
   3   6  -3    2.38    1.88
  -3  -6   3    1.86    4.63
   3   6  -3    2.65    2.01
  -3  -6   3    2.75    3.20
   3   6  -3    5.54    2.39
   3   6  -2  212.71    9.33
   3   6  -2  217.91    9.04
  -3  -6   2  213.16   10.35
  -3  -6   2  222.35    9.83
   3   6  -2  226.60    9.77
   3   6  -2  243.98   10.83
  -3  -6   1    2.44    3.28
  -3  -6   1   -0.44    3.22
   3   6  -1    4.04    2.31
   3   6  -1    0.19    1.95
   3   6  -1    0.20    1.99
   3   6  -1    2.78    2.48
   3   6   0  410.03   13.02
   3   6   0  381.10   13.44
  -3  -6   0  409.06   14.47
  -3  -6  -1    5.80    2.77
  -3  -6  -1   10.92    4.06
   3   6   1    8.39    2.78
   3   6   1    6.78    2.08
   3   6   1    9.13    2.42
   3   6   1    5.71    2.75
   3   6   2  330.82   11.93
  -3  -6  -2  361.28   14.66
   3   6   2  370.88   12.56
  -3  -6  -2  331.41   13.75
  -3  -6  -3    5.62    2.89
   3   6   3    4.97    1.97
   3   6   3    5.88    1.92
   3   6   4   91.64    6.96
  -3  -6  -4   74.82    5.79
  -3  -6  -4   92.60    7.79
  -3  -6  -4   86.38    6.68
  -3  -6  -5    0.66    2.90
  -3  -6  -5    2.12    2.74
   3   7 -11   -1.56    4.92
  -3  -7  11   -1.74    3.79
   3   7 -10   40.17    5.47
  -3  -7  10   33.80    5.12
   3   7  -9   32.56    4.74
  -3  -7   9   33.92    4.60
   3   7  -9   29.27    4.30
   3   7  -8    5.61    1.26
   3   7  -8    2.98    3.04
  -3  -7   8    9.13    3.62
   3   7  -8    6.44    2.93
  -3  -7   7   68.06    6.09
   3   7  -7   75.08    3.99
   3   7  -7   67.66    5.59
  -3  -7   6  106.51    7.21
   3   7  -6   99.72    4.96
   3   7  -6   93.43    6.81
   3   7  -6   95.43    7.15
  -3  -7   6   93.78    6.07
   3   7  -6   94.21    6.60
   3   7  -5    1.81    1.90
  -3  -7   5    5.80    4.36
   3   7  -5    5.69    3.08
   3   7  -5    0.55    2.71
  -3  -7   5    3.38    3.64
  -3  -7   4   78.58    7.14
   3   7  -4   78.73    4.95
   3   7  -4   85.08    6.11
   3   7  -4   81.94    6.04
  -3  -7   4   85.25    6.30
   3   7  -4   81.63    6.42
  -3  -7   3   22.88    5.54
   3   7  -3   17.11    3.16
   3   7  -3   18.94    2.94
   3   7  -3   16.39    3.14
  -3  -7   3   19.22    4.36
   3   7  -3   16.99    3.72
   3   7  -2   70.83    5.39
   3   7  -2   77.47    5.32
   3   7  -2   78.93    5.63
   3   7  -2   87.16    6.40
  -3  -7   2   83.47    6.51
  -3  -7   2   89.63    6.92
   3   7  -1   30.43    3.74
  -3  -7   1   17.92    4.20
   3   7  -1   24.60    3.44
   3   7  -1   26.84    3.64
  -3  -7   1   23.15    4.72
   3   7  -1   30.87    4.31
   3   7   0   45.89    4.54
  -3  -7   0   46.52    5.70
   3   7   0   48.59    4.42
   3   7   0   50.71    5.21
   3   7   0   56.69    4.57
  -3  -7  -1    1.17    2.60
  -3  -7  -1    0.96    4.08
   3   7   1    0.52    2.56
   3   7   1    1.05    2.08
   3   7   1    0.31    2.56
   3   7   1   -0.43    1.98
  -3  -7  -2   62.04    6.87
   3   7   2   59.77    5.59
   3   7   2   61.98    4.67
  -3  -7  -2   61.80    5.74
   3   7   2   61.84    4.70
  -3  -7  -3    6.75    3.09
  -3  -7  -3    8.46    3.18
   3   7   3    6.80    2.21
  -3  -7  -4   10.74    3.45
   3   8 -10   13.77    4.06
  -3  -8  10   11.23    4.13
   3   8  -9   19.87    4.00
  -3  -8   9   19.18    4.30
   3   8  -8    7.18    3.43
  -3  -8   8    9.98    4.04
   3   8  -8    8.61    3.42
   3   8  -8    3.09    2.73
  -3  -8   7  135.77    8.15
   3   8  -7  127.58    8.63
   3   8  -7  129.89    5.93
   3   8  -7  121.84    7.92
   3   8  -7  135.15    9.03
   3   8  -6   16.11    4.02
   3   8  -6   25.18    2.94
  -3  -8   6   19.35    4.71
   3   8  -6   15.87    3.77
  -3  -8   6   22.13    4.47
  -3  -8   5   95.29    7.37
   3   8  -5   88.34    6.72
   3   8  -5  101.00    5.60
   3   8  -5   86.86    6.56
  -3  -8   5  100.78    7.33
   3   8  -5  101.67    7.45
   3   8  -4    1.77    2.10
   3   8  -4    1.01    2.97
  -3  -8   4    2.02    4.69
   3   8  -4    0.28    2.52
  -3  -8   4    8.72    4.62
   3   8  -4    2.20    2.62
   3   8  -3   52.58    5.08
   3   8  -3   66.73    4.97
  -3  -8   3   60.33    6.94
   3   8  -3   60.84    5.40
  -3  -8   3   67.64    6.42
   3   8  -3   66.06    6.01
   3   8  -2   24.09    3.63
  -3  -8   2   26.84    5.25
  -3  -8   2   29.76    5.15
   3   8  -2   21.73    3.55
   3   8  -2   27.14    3.72
   3   8  -2   22.65    4.09
  -3  -8   1   71.75    6.99
   3   8  -1   70.78    5.57
   3   8  -1   78.36    5.77
  -3  -8   1   75.44    6.29
   3   8  -1   83.93    5.89
   3   8   0   58.13    5.03
  -3  -8   0   58.55    6.72
   3   8   0   54.28    5.07
   3   8   0   56.39    5.79
   3   8   1   62.99    5.81
   3   8   1   53.29    4.90
   3   8   1   60.63    5.04
   3   8   1   68.74    6.43
  -3  -8  -1   60.24    7.12
  -3  -8  -2    4.43    3.19
   3   8   2    9.47    2.62
  -3  -9   7    6.63    4.06
   3   9  -7    7.60    3.68
   3   9  -7   10.85    3.40
   3   9  -6   18.01    2.91
  -3  -9   6   21.19    5.04
   3   9  -6   22.45    4.53
   3   9  -6   13.66    3.75
  -3  -9   6   19.74    5.11
   3   9  -5    4.90    3.14
   3   9  -5    4.14    2.24
   3   9  -5    0.98    2.54
  -3  -9   5    3.74    4.65
  -3  -9   5   -2.12    4.50
   3   9  -5    6.26    2.92
   3   9  -4    4.28    2.33
  -3  -9   4   13.91    5.31
   3   9  -4    4.38    2.68
  -3  -9   4    4.59    4.97
   3   9  -4    2.71    2.60
   3   9  -4    3.28    3.01
   3   9  -3   -0.97    2.40
  -3  -9   3    2.93    5.11
   3   9  -3    0.60    2.58
  -3  -9   3    1.02    4.76
   3   9  -3    0.29    2.55
   3   9  -3    2.51    2.77
  -3  -9   2   -5.10    5.20
   3   9  -2    1.82    2.72
   3   9  -2    2.90    2.65
   3   9  -2    0.26    2.53
   3   9  -2    2.86    2.57
  -3  -9   2    1.07    4.67
   3   9  -1   20.53    3.71
  -3  -9   1   20.70    4.82
   3   9  -1   13.55    3.27
   3   9  -1   16.19    3.46
  -3  -9   1   21.34    5.64
  -3  -9   0   27.71    5.08
   3   9   0   36.63    4.42
   3   9   0   42.39    4.79
   3   9   1    1.57    2.30
   3  10  -5    7.79    2.74
  -3 -10   5   11.10    5.83
   3  10  -4   -0.51    2.58
  -3 -10   4   -3.36    5.41
   3  10  -3   79.76    6.94
   3  10  -2    1.64    2.83
  -4  11  -3   12.85    3.22
  -4  11  -4  278.48   12.22
  -4  11  -5    7.25    2.70
  -4  11  -6  140.40    9.58
  -4  11  -6  141.35    8.19
  -4  11  -7    1.36    4.04
  -4  11  -7    0.83    2.27
  -4  11  -8    7.09    2.95
   4 -10  -1   11.74    4.02
   4 -10   0   82.93    7.41
  -4  10  -1   24.54    4.06
  -4  10  -2   71.44    7.03
  -4  10  -2   72.25    5.70
  -4  10  -3    8.58    2.79
  -4  10  -3    5.78    2.38
   4 -10   3   11.73    2.95
  -4  10  -3    9.41    4.45
  -4  10  -4   10.22    2.75
   4 -10   4    7.10    2.74
  -4  10  -4   17.86    4.70
  -4  10  -4   11.17    2.69
  -4  10  -5  115.50    7.29
  -4  10  -5  130.35    9.05
  -4  10  -5  125.55    7.12
  -4  10  -6   63.90    5.37
  -4  10  -6   62.28    6.75
  -4  10  -6   65.01    5.27
  -4  10  -7  110.83    6.92
  -4  10  -7   91.04    6.63
  -4  10  -7  108.30    8.53
  -4  10  -8    2.44    2.62
  -4  10  -8    1.85    2.21
  -4  10  -8    9.47    4.99
  -4  10  -9   23.64    3.96
  -4  10  -9   26.49    3.85
  -4  10  -9   27.37    5.88
   4  -9  -2  108.43    8.38
   4  -9  -2  117.11    7.62
  -4   9   2  111.49    8.37
  -4   9   2  117.34    8.12
  -4   9   1    7.28    3.87
  -4   9   1    8.25    2.70
   4  -9  -1    6.10    3.28
   4  -9  -1   10.89    3.04
   4  -9   0  100.69    6.93
  -4   9   0  104.50    7.85
   4  -9   0  104.76    7.76
  -4   9   0  107.60    7.16
   4  -9   1    1.57    2.85
   4  -9   2  203.36    9.96
  -4   9  -2  189.44    9.71
  -4   9  -2  212.88    9.47
  -4   9  -3    3.10    2.07
   4  -9   3    0.55    2.08
  -4   9  -3    6.22    4.28
  -4   9  -3    0.43    1.97
  -4   9  -4  376.18   14.46
   4  -9   4  387.30   15.13
  -4   9  -4  399.34   14.09
  -4   9  -4  386.39   16.23
  -4   9  -5   -0.24    1.96
   4  -9   5    1.09    2.29
  -4   9  -5   -0.94    4.32
  -4   9  -5   -0.21    2.12
  -4   9  -6  146.95    7.60
  -4   9  -6  125.02    8.97
  -4   9  -6  127.06    7.19
  -4   9  -7   48.47    4.62
  -4   9  -7   58.00    6.55
  -4   9  -7   44.31    4.33
  -4   9  -8  117.04    6.81
  -4   9  -8  116.33    8.63
  -4   9  -8  123.33    7.11
  -4   9  -9    5.96    2.74
  -4   9  -9   -1.87    2.10
  -4   9  -9   -0.30    4.31
  -4   9 -10   82.04    5.77
  -4   9 -10  101.90    8.67
  -4   9 -10   86.77    7.80
  -4   9 -10   85.48    6.58
  -4   8   4  183.23    9.92
   4  -8  -4  182.91    9.70
   4  -8  -4  177.76   10.85
  -4   8   3    3.35    3.51
   4  -8  -3   11.41    3.70
  -4   8   3    1.64    2.40
   4  -8  -3    1.46    2.11
   4  -8  -3    5.87    3.32
   4  -8  -2  520.58   16.39
   4  -8  -2  495.21   18.41
   4  -8  -2  568.09   20.29
  -4   8   2  506.62   18.95
  -4   8   2  552.37   19.44
   4  -8  -1    5.02    2.91
   4  -8  -1    8.92    2.73
  -4   8   1    9.78    2.76
   4  -8  -1    9.55    2.66
  -4   8   1   12.30    4.26
  -4   8   0  666.31   22.56
   4  -8   0  638.14   17.75
   4  -8   0  673.49   22.25
   4  -8   1   11.66    3.20
   4  -8   1    5.65    2.49
   4  -8   2  462.09   16.39
  -4   8  -2  458.88   15.27
  -4   8  -2  443.75   16.09
  -4   8  -3   31.15    3.55
   4  -8   3   28.50    3.63
  -4   8  -3   33.07    5.78
  -4   8  -3   31.28    3.35
  -4   8  -4  706.51   22.29
   4  -8   4  714.77   22.85
  -4   8  -4  708.81   24.21
  -4   8  -4  746.72   21.74
  -4   8  -5   -0.43    1.89
   4  -8   5   -1.21    2.11
  -4   8  -5    3.39    4.45
  -4   8  -5    1.12    1.83
  -4   8  -6  552.78   18.05
  -4   8  -6  578.04   18.06
  -4   8  -6  524.53   19.71
  -4   8  -7    0.41    1.90
  -4   8  -7    0.21    2.12
  -4   8  -8   95.17    4.22
  -4   8  -8   99.18    5.78
  -4   8  -8   93.96    7.68
  -4   8  -8  106.25    6.26
  -4   8  -9    2.91    2.73
  -4   8  -9    3.26    1.99
  -4   8  -9    2.28    4.06
  -4   8 -10  128.29    6.81
  -4   8 -10  151.28    9.78
   4  -7  -6   25.48    5.41
  -4   7   6   31.16    4.35
   4  -7  -5  147.86    8.73
   4  -7  -5  136.00    8.31
  -4   7   5  139.75    8.15
   4  -7  -5  149.03    9.39
   4  -7  -4    1.99    2.58
  -4   7   4    4.95    3.14
   4  -7  -4    0.43    3.43
   4  -7  -4    1.16    2.11
   4  -7  -3  375.66   14.61
   4  -7  -3  377.03   15.24
  -4   7   3  354.81   14.76
  -4   7   3  372.27   14.67
   4  -7  -3  371.21   13.19
  -4   7   2   20.50    4.46
   4  -7  -2   22.74    3.52
  -4   7   2   16.45    3.13
   4  -7  -2   16.87    3.55
   4  -7  -2   18.70    3.32
   4  -7  -1  245.94    9.06
   4  -7  -1  267.24   11.62
  -4   7   1  262.81   11.79
  -4   7   1  235.01   10.67
   4  -7   0   25.89    3.81
   4  -7   0   22.09    2.57
   4  -7   1  397.62   14.56
  -4   7  -1  403.87   15.86
   4  -7   1  421.98   14.70
  -4   7  -1  387.31   14.23
  -4   7  -2    1.24    1.72
   4  -7   2    3.74    2.05
  -4   7  -2    2.60    1.61
  -4   7  -3  235.79    9.76
   4  -7   3  242.62   10.11
  -4   7  -3  237.23    8.97
  -4   7  -3  244.05   11.47
  -4   7  -4   10.52    2.36
   4  -7   4   11.62    2.68
  -4   7  -4   12.25    4.45
  -4   7  -4    9.85    2.07
   4  -7   5   74.84    5.18
  -4   7  -5   67.28    4.70
  -4   7  -5   80.39    4.76
  -4   7  -6   -1.72    1.26
  -4   7  -6   -0.85    1.14
  -4   7  -6    1.18    1.82
  -4   7  -6    0.54    1.63
  -4   7  -7    2.75    2.10
  -4   7  -7    1.64    1.79
  -4   7  -7    3.20    1.93
  -4   7  -8   20.24    2.86
  -4   7  -8   13.01    2.37
  -4   7  -8   19.07    4.36
  -4   7  -9   33.85    3.79
  -4   7  -9   31.34    5.05
  -4   7  -9   30.97    3.26
  -4   7 -10   81.79    5.02
  -4   7 -10   84.77    5.95
  -4   6   7   69.68    5.77
   4  -6  -7   82.00    7.70
   4  -6  -6   -1.44    2.87
   4  -6  -6    0.55    4.16
  -4   6   6    0.74    2.46
   4  -6  -6   -1.22    2.28
  -4   6   5  138.78    7.72
   4  -6  -5  131.18    7.95
   4  -6  -5  132.74    8.05
   4  -6  -5  138.23    8.55
   4  -6  -4  146.56    8.25
   4  -6  -4  142.00    7.81
  -4   6   4  148.21    7.96
   4  -6  -4  147.75    8.61
  -4   6   4  162.86    8.55
   4  -6  -3  451.84   16.27
   4  -6  -3  447.44   14.87
  -4   6   3  456.43   16.63
  -4   6   3  396.25   15.30
   4  -6  -3  462.10   16.57
  -4   6   3  456.81   16.13
   4  -6  -2  321.38   11.43
   4  -6  -2  306.64   12.69
  -4   6   2  348.66   13.48
   4  -6  -2  352.71   13.30
  -4   6   2  331.30   12.94
   4  -6  -1   87.38    4.92
  -4   6   1   85.74    6.68
   4  -6  -1   68.23    5.29
   4  -6   0   85.02    4.38
   4  -6   0   91.07    5.63
  -4   6   0   87.60    7.03
   4  -6   1  198.92    7.98
  -4   6  -1  173.96    7.46
  -4   6  -1  178.99    7.46
  -4   6  -2  645.29   19.09
   4  -6   2  663.86   19.58
  -4   6  -2  674.43   19.20
  -4   6  -2  646.73   17.78
  -4   6  -3  175.96    7.25
  -4   6  -3  139.22    4.14
   4  -6   3  173.00    7.46
  -4   6  -3  120.96    6.46
  -4   6  -3  176.80    6.35
  -4   6  -4  837.13   23.78
  -4   6  -4  823.84   21.25
   4  -6   4  861.65   24.41
  -4   6  -4  811.90   22.94
  -4   6  -5   36.73    3.20
  -4   6  -5   35.94    2.30
   4  -6   5   44.65    3.73
  -4   6  -5   43.48    3.33
  -4   6  -6  476.46   15.29
  -4   6  -6  500.20   14.22
  -4   6  -6  504.34   15.38
  -4   6  -7   55.18    3.72
  -4   6  -7   56.21    3.80
  -4   6  -7   52.33    5.54
  -4   6  -8  175.04    7.27
  -4   6  -8  177.04    7.61
  -4   6  -8  184.98   10.02
  -4   6  -9   17.30    3.33
  -4   6  -9   19.70    2.47
  -4   6  -9   21.74    4.15
  -4   6 -10  264.40    9.67
  -4   6 -10  283.81   11.32
  -4   6 -10  276.96   12.23
  -4   6 -11   31.76    4.78
  -4   6 -11   22.84    3.96
   4  -5  -7   18.16    5.37
   4  -5  -7   16.69    3.60
  -4   5   7   13.03    2.98
   4  -5  -7   16.81    3.80
   4  -5  -6    6.82    4.34
  -4   5   6    2.15    2.46
   4  -5  -6    1.45    2.40
  -4   5   6    0.72    2.58
  -4   5   6    3.66    1.95
   4  -5  -6    2.24    2.53
   4  -5  -5  237.78   11.19
   4  -5  -5  254.75   11.27
  -4   5   5  243.26   10.72
   4  -5  -5  263.17   11.81
  -4   5   5  282.64   10.98
  -4   5   4    5.76    3.08
   4  -5  -4    8.61    3.62
   4  -5  -4    5.31    2.28
  -4   5   4    4.47    2.37
   4  -5  -4    5.87    2.35
  -4   5   3   43.32    4.65
   4  -5  -3   42.60    4.09
   4  -5  -3   41.44    4.36
  -4   5   3   38.36    3.97
   4  -5  -2   50.43    4.37
  -4   5   2   42.27    3.53
  -4   5   2   44.55    4.00
  -4   5   2   53.87    5.17
   4  -5  -1   91.15    4.67
  -4   5   1   96.15    4.31
  -4   5   1  106.11    6.84
   4  -5   0   56.44    3.52
   4  -5   0   57.26    4.32
  -4   5   0   57.31    3.32
  -4   5   0   54.26    5.41
  -4   5   0   50.57    3.88
  -4   5  -1  808.55   20.14
  -4   5  -1  834.90   22.34
  -4   5  -1  820.29   22.27
  -4   5  -2   64.73    4.15
  -4   5  -2   71.18    3.50
  -4   5  -2   64.04    4.21
  -4   5  -2   69.48    3.37
  -4   5  -3  607.71   18.03
  -4   5  -3  631.11   17.11
  -4   5  -3  618.26   16.82
  -4   5  -3  591.25   17.99
  -4   5  -4  141.78    6.10
  -4   5  -4  138.96    6.10
  -4   5  -4  144.13    5.56
  -4   5  -5   56.68    3.62
  -4   5  -5   57.64    3.69
  -4   5  -5   61.87    3.56
  -4   5  -6  100.75    4.83
  -4   5  -6  103.74    7.02
  -4   5  -7   90.82    4.57
  -4   5  -7  110.58    7.32
  -4   5  -8   11.92    2.98
  -4   5  -8    9.91    1.81
  -4   5  -8   12.76    3.50
  -4   5  -9   84.73    4.35
  -4   5  -9   86.12    6.17
  -4   5 -10   21.41    4.25
  -4   5 -10   20.61    2.34
  -4   5 -10   24.86    4.05
  -4   5 -10   23.82    3.09
  -4   5 -11    0.78    2.60
  -4   5 -11    1.41    3.57
   4  -4  -8    4.46    4.81
   4  -4  -8    4.54    2.80
  -4   4   8    2.57    2.62
   4  -4  -8    5.98    3.20
   4  -4  -7  218.88   10.87
  -4   4   7  211.33    8.95
   4  -4  -7  203.51   10.83
  -4   4   7  220.68    9.70
  -4   4   7  219.33    8.49
   4  -4  -7  218.48   11.39
   4  -4  -6   16.29    3.41
   4  -4  -6   17.67    4.47
  -4   4   6   20.37    3.06
   4  -4  -6   16.82    3.55
  -4   4   6   15.53    3.16
  -4   4   6   16.96    2.59
   4  -4  -5  623.67   21.14
   4  -4  -5  603.41   20.21
  -4   4   5  626.84   19.89
   4  -4  -5  644.58   21.28
  -4   4   5  663.70   19.77
  -4   4   4   27.45    3.60
   4  -4  -4   36.44    4.45
  -4   4   4   40.95    3.96
   4  -4  -4   28.83    3.61
  -4   4   4   35.75    3.70
   4  -4  -4   34.92    3.82
   4  -4  -3 1233.96   20.51
  -4   4   3 1240.97   21.07
   4  -4  -2    3.23    3.03
  -4   4   2    3.49    2.27
  -4   4   2    1.56    1.96
   4  -4  -1 1647.26   42.01
  -4   4   1 1545.24   40.12
  -4   4   1 1515.30   41.28
   4  -4  -1 1531.26   40.52
   4  -4   0   16.49    2.32
  -4   4   0   20.04    2.73
  -4   4   0   17.29    2.40
  -4   4  -1 1334.07   34.29
  -4   4  -1 1329.26   35.40
   4  -4   1 1347.07   34.08
  -4   4  -1 1302.90   35.13
  -4   4  -2  112.06    5.48
  -4   4  -2  110.64    5.31
  -4   4  -2  112.34    3.91
  -4   4  -2  107.36    5.00
  -4   4  -3 1112.33   29.83
  -4   4  -3 1129.31   29.67
  -4   4  -3 1105.80   29.48
  -4   4  -3 1123.71   28.18
  -4   4  -4   94.95    4.56
  -4   4  -4  103.98    4.58
  -4   4  -4   99.09    3.99
  -4   4  -5  408.81   12.25
  -4   4  -5  413.82   12.14
  -4   4  -5  401.52   14.91
  -4   4  -6   88.52    4.09
  -4   4  -6   82.21    6.17
  -4   4  -7  185.63    6.57
  -4   4  -7  179.07    9.34
  -4   4  -8  123.08    4.83
  -4   4  -8  111.73    7.14
  -4   4  -8  114.86    5.89
  -4   4  -9   98.62    4.29
  -4   4  -9  115.27    7.05
  -4   4  -9  115.65    7.20
  -4   4  -9  105.03    5.58
  -4   4 -10   39.69    4.69
  -4   4 -10   54.91    5.72
  -4   4 -11   17.76    4.69
  -4   4 -11   14.39    3.25
  -4   3   9   60.27    5.12
   4  -3  -9   65.06    6.28
   4  -3  -8   62.28    6.52
   4  -3  -8   47.95    5.42
  -4   3   8   54.08    4.55
   4  -3  -7   18.86    4.76
   4  -3  -7   16.29    3.51
  -4   3   7   14.60    2.97
  -4   3   7   13.68    2.46
   4  -3  -6  155.13    8.08
  -4   3   6  180.65    7.33
  -4   3   6  168.39    6.45
   4  -3  -6  174.89    8.38
   4  -3  -5   34.83    4.78
   4  -3  -5   37.08    4.06
  -4   3   5   30.58    4.11
  -4   3   5   40.31    3.86
  -4   3   5   41.74    3.50
   4  -3  -4   86.61    6.07
  -4   3   4   94.65    5.88
  -4   3   4   93.04    5.49
  -4   3   4   89.65    4.98
   4  -3  -3   70.70    5.32
  -4   3   3   76.74    4.91
   4  -3  -2   12.68    3.25
  -4   3   2    7.69    2.81
   4  -3  -1    0.52    2.55
  -4   3   1    6.31    1.77
  -4   3   1    1.01    2.56
   4  -3   0  125.94    5.51
  -4   3   0  141.94    6.15
   4  -3   0  135.20    4.90
  -4   3   0  133.98    5.83
  -4   3  -1   11.42    3.04
  -4   3  -1   12.43    1.79
  -4   3  -2   45.11    3.58
  -4   3  -2   51.40    2.97
  -4   3  -3    7.19    1.28
  -4   3  -3    5.18    0.66
  -4   3  -4  200.10    6.52
   4  -3   4  197.13    6.79
  -4   3  -5  117.50    4.41
  -4   3  -5  117.89    4.64
  -4   3  -5  110.07    6.85
  -4   3  -6    1.91    2.79
  -4   3  -6    0.67    0.97
  -4   3  -6    2.00    1.09
  -4   3  -6    0.30    1.60
  -4   3  -7   37.45    2.10
  -4   3  -7   33.01    3.18
  -4   3  -7   39.11    4.44
  -4   3  -8   19.04    3.66
  -4   3  -8   21.26    2.67
  -4   3  -8   18.40    1.49
  -4   3  -9    0.51    2.61
  -4   3  -9   -2.35    3.41
  -4   3  -9    0.22    0.69
  -4   3 -10   61.14    6.22
  -4   3 -10   49.67    4.92
  -4   3 -11    2.34    2.77
   4  -2  -9   51.94    6.57
   4  -2  -9   42.45    5.32
  -4   2   9   46.88    4.36
   4  -2  -8   50.33    6.12
   4  -2  -8   48.79    5.39
  -4   2   8   50.63    4.32
  -4   2   8   52.90    4.45
   4  -2  -7  111.69    7.68
  -4   2   7  104.34    6.97
  -4   2   7  104.16    6.07
   4  -2  -7  105.07    7.16
   4  -2  -6  132.64    7.99
  -4   2   6  150.34    8.15
  -4   2   6  153.40    6.83
   4  -2  -6  141.68    8.10
   4  -2  -5  681.41   17.80
  -4   2   5  677.56   16.29
  -4   2   5  686.42   17.66
   4  -2  -4  209.95    9.43
  -4   2   4  211.76    9.08
  -4   2   4  222.01    8.58
   4  -2  -3  848.64   24.57
  -4   2   3  820.73   24.27
  -4   2   3  865.86   24.02
   4  -2  -2   28.17    3.71
  -4   2   2   37.60    3.89
  -4   2   2   32.58    2.96
   4  -2  -1 1105.52   29.99
  -4   2   1 1126.32   30.35
   4  -2   0   27.02    1.57
  -4   2   0   27.63    3.89
  -4   2  -1 2843.73   71.91
  -4   2  -1 2849.41   70.44
   4  -2   2  123.33    4.79
  -4   2  -2  118.20    5.62
  -4   2  -2  124.87    4.64
   4  -2   3 1357.10   24.25
  -4   2  -3 1307.20   23.93
  -4   2  -4    7.49    0.96
  -4   2  -4    7.83    2.75
  -4   2  -4    7.16    2.00
  -4   2  -5  456.67   15.36
  -4   2  -5  452.97   13.80
  -4   2  -5  409.11   10.83
  -4   2  -6    1.81    1.69
  -4   2  -6    2.55    2.66
  -4   2  -7  490.72   17.59
  -4   2  -7  509.93   15.71
  -4   2  -8   29.52    4.06
  -4   2  -9  284.91   11.95
  -4   2 -10   -0.97    3.96
  -4   2 -10   -0.79    2.76
  -4   2 -11   37.87    4.67
   4  -1 -10    1.47    2.77
   4  -1  -9   40.82    5.98
   4  -1  -9   31.30    4.65
  -4   1   9   37.38    3.83
  -4   1   9   38.55    3.79
   4  -1  -8   85.00    7.20
  -4   1   8   86.84    6.61
  -4   1   8  103.27    4.06
  -4   1   8  111.35    6.14
   4  -1  -8   78.82    6.54
   4  -1  -7    9.89    4.14
   4  -1  -7    7.59    2.81
  -4   1   7    7.24    3.32
  -4   1   7   11.27    2.68
   4  -1  -6  105.29    7.26
  -4   1   6  101.05    6.63
   4  -1  -6  100.12    6.78
   4  -1  -5  294.78   12.16
  -4   1   5  300.39   11.80
  -4   1   5  313.84   11.02
   4  -1  -4   13.99    3.95
  -4   1   4    4.62    3.39
  -4   1   4    9.14    2.24
   4  -1  -3  278.59   11.10
  -4   1   3  297.39   11.14
  -4   1   3  304.89   10.65
   4  -1  -2  483.32   15.12
  -4   1   2  478.91   15.27
  -4   1   2  448.97   14.72
   4  -1  -1  143.85    6.35
  -4   1   1  139.12    6.43
  -4   1   1  145.43    7.44
  -4   1   0  151.59    7.63
  -4   1   0  152.12    6.57
   4  -1   1  382.53   11.12
  -4   1  -1  381.26   12.63
  -4   1  -1  380.61   12.72
  -4   1  -1  354.06   12.32
   4  -1   2    4.45    1.03
  -4   1  -2    5.68    1.92
  -4   1  -3  283.13    9.74
  -4   1  -3  267.69    7.20
  -4   1  -4    6.71    2.12
  -4   1  -4    7.23    2.70
  -4   1  -4    8.42    1.29
  -4   1  -5   78.62    5.70
  -4   1  -5   75.05    3.77
  -4   1  -5   79.64    4.77
  -4   1  -6   28.50    3.95
  -4   1  -6   32.54    2.15
  -4   1  -6   35.50    2.90
  -4   1  -7   18.26    3.38
  -4   1  -7   20.09    2.58
  -4   1  -8    1.77    2.51
  -4   1  -8    0.56    1.84
  -4   1  -9   65.70    5.66
  -4   1  -9   69.28    5.14
  -4   1 -10   -1.40    3.03
  -4   1 -10    4.50    2.45
  -4   0  10  109.46    6.14
   4   0 -10  101.07    7.96
   4   0  -9   16.51    3.88
  -4   0   9   19.89    3.09
  -4   0   8  168.08    7.89
   4   0  -8  154.47    9.16
   4   0  -7  131.82    8.19
  -4   0   7  141.64    6.92
   4   0  -6 1036.09   30.65
  -4   0   6 1048.37   25.94
  -4   0   6 1086.42   29.75
  -4   0   6  992.89   25.84
   4   0  -5   77.51    6.41
  -4   0   5   79.09    3.45
  -4   0   5   88.76    5.45
  -4   0   5   86.27    3.88
   4   0  -4  510.20   17.25
  -4   0   4  520.29   14.41
   4   0  -3   11.44    3.46
  -4   0   3   16.49    1.97
   4   0  -2  915.76   25.76
  -4   0   2  921.13   24.66
   4   0  -2  900.58   26.01
  -4   0   1  611.96   17.71
  -4   0   1  597.97   18.42
  -4   0   0 1160.29   31.79
   4   0   0 1181.28   29.53
  -4   0  -1  254.32    9.77
  -4   0  -1  261.76    9.83
   4   0   1  262.96    7.95
   4   0   1  254.73    7.40
   4   0   2  530.87   14.13
  -4   0  -2  577.56   14.69
  -4   0  -3  139.33    5.81
  -4   0  -3  130.42    4.91
  -4   0  -4  122.76    6.88
   4   0   4  117.23    6.82
  -4   0  -4  109.63    4.95
  -4   0  -4  115.75    4.77
  -4   0  -5  160.95    7.98
   4   0   5  153.79    8.10
  -4   0  -5  152.03    5.34
  -4   0  -6  192.23    9.26
   4   0   6  191.87    9.59
  -4   0  -6  197.04    7.81
  -4   0  -7  215.28    9.85
   4   0   7  232.36   10.55
  -4   0  -7  241.67    8.75
   4   0   8   31.36    4.77
  -4   0  -8   23.38    4.05
  -4   0  -8   28.66    3.46
  -4   0  -9   18.52    3.92
  -4   0  -9   20.74    3.36
  -4   0 -10    4.59    3.24
  -4   0 -10    3.49    2.45
   4   1 -10   42.80    6.40
   4   1 -10   41.23    5.46
  -4  -1   9    3.02    3.38
  -4  -1   9    4.75    2.26
  -4  -1   8    2.45    3.63
  -4  -1   8    5.56    2.28
  -4  -1   7    3.26    2.25
  -4  -1   6   88.26    5.65
  -4  -1   5  118.61    4.04
   4   1  -5  138.41    6.57
  -4  -1   5  106.73    4.20
  -4  -1   5  134.29    6.74
  -4  -1   4   15.74    1.74
  -4  -1   4   16.29    2.68
   4   1  -4   13.28    2.55
  -4  -1   3    8.96    1.66
   4   1  -3   10.85    2.43
  -4  -1   3   15.18    2.57
  -4  -1   2   23.81    2.48
  -4  -1   1  187.49    7.51
   4   1  -1  194.43    7.58
  -4  -1   1  186.16    7.95
  -4  -1   0   22.09    2.81
   4   1   0   24.49    2.98
  -4  -1   0   24.09    2.76
   4   1   0   25.75    2.13
  -4  -1  -1  436.26   14.92
   4   1   1  443.21   14.99
  -4  -1  -1  483.88   14.74
   4   1   1  471.83   13.30
  -4  -1  -2   36.62    3.73
   4   1   2   33.23    1.56
  -4  -1  -2   28.93    2.90
   4   1   2   38.76    1.65
  -4  -1  -2   44.85    2.75
  -4  -1  -3  393.63   12.43
  -4  -1  -3  409.77   12.33
  -4  -1  -4   21.56    3.40
   4   1   4   18.24    3.36
  -4  -1  -4   23.83    2.46
  -4  -1  -5   71.30    5.67
   4   1   5   77.00    5.93
  -4  -1  -5   84.09    4.65
   4   1   6    3.49    2.77
  -4  -1  -6    1.81    2.84
  -4  -1  -6    0.52    1.80
  -4  -1  -7  197.67    9.94
  -4  -1  -7  211.12    8.88
  -4  -1  -7  187.91    6.57
   4   1   7  196.74   10.21
   4   1   8    0.64    3.12
  -4  -1  -8    0.29    2.95
  -4  -1  -8    2.33    2.23
   4   1   9   61.19    6.41
  -4  -1  -9   54.64    5.99
  -4  -1  -9   58.99    5.32
   4   2 -10  105.05    8.57
  -4  -2  10   88.67    7.20
   4   2  -9   10.75    5.05
  -4  -2   9   10.12    3.76
  -4  -2   8  263.52   11.99
   4   2  -8  279.17   12.95
  -4  -2   8  288.49   11.29
  -4  -2   7   56.03    5.54
   4   2  -7   56.93    6.28
   4   2  -7   62.80    4.67
  -4  -2   7   56.75    4.60
  -4  -2   6  311.95   13.24
   4   2  -6  339.20   12.26
   4   2  -6  334.46   13.81
  -4  -2   6  334.89   12.42
   4   2  -5   -4.14    4.44
  -4  -2   5   -0.45    3.90
  -4  -2   5    1.10    0.88
   4   2  -5    0.18    1.98
  -4  -2   5   -0.40    1.96
   4   2  -4  451.22   15.36
  -4  -2   4  452.90   15.93
  -4  -2   4  443.30   12.51
   4   2  -4  444.61   14.83
  -4  -2   4  442.90   15.05
   4   2  -3    2.42    2.81
  -4  -2   3    5.40    3.71
   4   2  -3    5.09    2.06
  -4  -2   3    5.92    1.60
  -4  -2   2 2125.54   54.13
   4   2  -2 2153.76   54.50
   4   2  -1    3.00    1.75
  -4  -2   1    5.12    2.07
   4   2  -1    5.20    1.99
  -4  -2   1    1.02    1.84
  -4  -2   0 1138.68   32.10
   4   2   0 1244.54   31.42
   4   2   0 1167.95   32.28
  -4  -2   0 1152.72   32.18
   4   2   1   14.31    2.90
   4   2   1   15.85    1.66
  -4  -2  -1   16.38    2.49
  -4  -2  -1   14.70    2.76
   4   2   1   15.38    2.24
  -4  -2  -2  397.46   10.40
  -4  -2  -2  386.04    8.48
  -4  -2  -2  400.07    8.26
  -4  -2  -3    1.01    1.83
   4   2   3    0.36    0.67
  -4  -2  -4  478.85   12.55
   4   2   4  484.08   12.59
  -4  -2  -4  507.02   10.45
  -4  -2  -5    5.02    2.11
   4   2   5    5.23    2.87
  -4  -2  -5    5.20    3.11
   4   2   5   -0.18    1.16
  -4  -2  -6  274.05   12.42
   4   2   6  277.00   12.64
  -4  -2  -6  308.59   11.39
  -4  -2  -7   -0.31    3.07
  -4  -2  -7    1.84    1.73
   4   2   7    1.25    3.09
  -4  -2  -7   -0.69    2.06
   4   2   8   39.46    5.17
  -4  -2  -8   36.12    5.18
  -4  -2  -8   33.51    4.20
  -4  -2  -9    1.16    2.52
   4   3 -10   23.80    5.77
  -4  -3  10   10.70    4.30
   4   3  -9    8.03    4.63
  -4  -3   9    4.07    3.54
   4   3  -9    5.81    2.39
   4   3  -8   89.24    7.45
  -4  -3   8   83.48    6.53
   4   3  -8   91.40    5.71
   4   3  -7    0.28    4.28
  -4  -3   7    1.78    3.84
   4   3  -7    3.58    2.17
   4   3  -6  545.45   18.78
  -4  -3   6  534.42   18.53
   4   3  -6  504.75   17.14
  -4  -3   6  536.05   17.64
  -4  -3   5   -2.02    1.66
   4   3  -5   -1.49    3.21
  -4  -3   5    0.24    4.32
   4   3  -5   -1.17    2.25
  -4  -3   5    1.46    2.29
   4   3  -4  313.34   12.19
  -4  -3   4  337.74   10.31
  -4  -3   4  348.11   13.76
   4   3  -4  333.53   12.27
   4   3  -4  337.81   10.52
  -4  -3   4  332.28   12.43
  -4  -3   3  164.99    6.50
   4   3  -3  162.36    6.61
   4   3  -3  156.57    7.53
  -4  -3   3  169.79    9.80
  -4  -3   2  149.02    9.25
  -4  -3   2  151.69    6.58
   4   3  -2  162.76    6.81
   4   3  -2  158.74    7.04
  -4  -3   2  149.24    7.40
  -4  -3   1   48.82    3.96
  -4  -3   1   54.95    5.43
   4   3  -1   47.28    3.71
  -4  -3   1   41.79    3.77
   4   3  -1   53.91    3.97
  -4  -3   0  570.70   17.98
   4   3   0  539.80   16.38
   4   3   0  565.50   17.87
   4   3   0  600.78   18.36
   4   3   0  607.67   17.58
   4   3   1   35.20    3.35
   4   3   1   35.33    2.51
   4   3   1   28.72    3.42
  -4  -3  -1   40.11    4.15
   4   3   1   31.45    3.63
   4   3   2  140.30    4.38
  -4  -3  -2  154.79    7.43
   4   3   2  148.67    6.48
   4   3   2  145.92    6.80
  -4  -3  -2  138.83    6.14
  -4  -3  -3   -0.18    1.92
   4   3   3    2.56    0.73
   4   3   3    0.97    2.03
  -4  -3  -4   27.00    3.31
   4   3   4   23.72    3.76
  -4  -3  -4   28.45    4.32
   4   3   4   29.13    3.47
   4   3   5   40.87    4.92
  -4  -3  -5   45.61    5.30
   4   3   5   36.95    3.86
  -4  -3  -5   52.11    4.52
   4   3   6   31.13    4.76
  -4  -3  -6   33.65    4.86
  -4  -3  -6   36.09    3.48
   4   3   6   22.48    2.99
  -4  -3  -6   30.37    3.89
  -4  -3  -7   24.79    4.82
   4   3   7   26.31    4.55
  -4  -3  -7   26.49    3.86
  -4  -3  -8   45.50    5.09
   4   4 -10   -2.09    4.78
  -4  -4  10    1.89    3.71
   4   4 -10    1.06    2.20
  -4  -4   9  121.69    8.05
   4   4  -9  116.25    6.68
   4   4  -9  102.19    8.40
   4   4  -8   13.52    4.90
  -4  -4   8   22.88    4.37
   4   4  -8   21.13    3.24
   4   4  -7  272.04   12.26
  -4  -4   7  273.11   12.38
   4   4  -7  279.06   11.25
   4   4  -6    6.47    3.46
  -4  -4   6   14.29    4.47
   4   4  -6    8.20    2.73
  -4  -4   6    6.24    1.70
   4   4  -5   93.38    6.24
   4   4  -5   89.94    4.35
  -4  -4   5   98.83    4.65
  -4  -4   4   -2.39    2.38
  -4  -4   4    2.68    4.79
   4   4  -4    1.22    1.68
  -4  -4   3  216.74    8.26
  -4  -4   3  197.24   11.09
   4   4  -3  201.81    7.95
   4   4  -3  197.47    8.96
   4   4  -3  211.11    9.05
  -4  -4   2  250.05    9.54
  -4  -4   2  242.95   11.70
   4   4  -2  239.21    9.31
   4   4  -2  255.17   10.07
   4   4  -2  241.40   10.05
  -4  -4   1  162.37    8.71
  -4  -4   1  167.19    7.76
   4   4  -1  165.74    7.10
   4   4  -1  170.30    7.60
   4   4  -1  166.44    7.71
   4   4  -1  144.30    7.47
  -4  -4   0   97.17    6.13
   4   4   0   91.28    4.72
   4   4   0   88.24    5.61
   4   4   0   94.71    5.60
  -4  -4  -1    5.51    2.86
   4   4   1    4.51    1.57
   4   4   1    3.43    2.37
   4   4   1    6.15    2.20
   4   4   2  105.54    4.69
  -4  -4  -2  111.87    7.13
   4   4   2  108.06    6.69
   4   4   2  115.32    6.57
   4   4   2  119.93    6.59
  -4  -4  -2  116.39    6.34
   4   4   3   49.65    4.46
  -4  -4  -3   51.08    4.41
   4   4   3   51.96    2.71
  -4  -4  -4   21.20    3.43
   4   4   4   24.90    3.42
   4   4   4   29.62    4.32
   4   4   5   44.64    5.14
  -4  -4  -5   41.14    5.42
   4   4   5   49.23    4.49
  -4  -4  -5   53.85    4.90
  -4  -4  -6   21.36    3.93
   4   4   6   16.71    4.11
  -4  -4  -6   20.48    4.81
  -4  -4  -6   21.55    3.22
  -4  -4  -7    1.88    3.00
   4   5 -10   -4.17    5.21
  -4  -5  10    3.43    3.80
   4   5 -10    0.70    2.33
   4   5  -9   21.75    5.31
  -4  -5   9   35.30    5.08
   4   5  -9   24.92    3.67
   4   5  -8   36.67    5.15
  -4  -5   8   29.55    5.14
   4   5  -8   32.14    3.92
   4   5  -7   72.90    6.05
  -4  -5   7   71.83    6.66
   4   5  -6  117.32    7.01
  -4  -5   6  114.85    8.03
   4   5  -6  113.28    4.76
  -4  -5   6  109.87    5.34
   4   5  -5    0.73    1.68
  -4  -5   5    5.12    4.60
  -4  -5   5    2.91    2.46
  -4  -5   4  111.01    8.50
   4   5  -4   96.04    5.08
   4   5  -4  100.76    6.44
  -4  -5   4   94.15    5.49
   4   5  -3   -1.15    2.61
  -4  -5   3   -2.15    3.00
  -4  -5   3   -2.12    5.25
   4   5  -3    1.13    1.98
   4   5  -3    1.56    2.12
  -4  -5   2  431.14   16.47
   4   5  -2  401.98   14.26
   4   5  -2  402.22   14.11
  -4  -5   2  428.76   14.66
   4   5  -2  400.18   14.70
   4   5  -2  443.02   15.31
  -4  -5   1   63.11    5.89
   4   5  -1   62.66    4.40
   4   5  -1   63.39    4.81
  -4  -5   1   68.33    5.44
   4   5  -1   65.41    4.89
   4   5  -1   69.74    5.11
   4   5   0  156.38    7.01
   4   5   0  179.29    8.46
   4   5   0  167.42    7.90
   4   5   0  178.94    8.42
  -4  -5  -1    0.27    2.88
   4   5   1    0.58    1.45
   4   5   1    1.95    2.63
   4   5   1    1.52    1.95
   4   5   1   -0.71    2.15
  -4  -5  -2   40.01    4.20
   4   5   2   44.40    3.21
  -4  -5  -2   43.74    5.27
   4   5   2   45.67    4.86
   4   5   2   42.82    4.31
  -4  -5  -3   20.69    3.48
   4   5   3   15.88    2.09
   4   5   3   13.74    2.99
   4   5   4  157.83    9.38
   4   5   4  182.02    8.70
  -4  -5  -4  159.31    8.74
  -4  -5  -5   10.88    3.40
  -4  -5  -5    7.52    2.93
   4   5   5   12.02    3.07
   4   5   5    7.63    3.65
  -4  -5  -6   90.84    7.13
   4   6 -10    5.08    4.29
  -4  -6  10    6.20    4.13
   4   6 -10    3.36    2.58
   4   6  -9  116.43    7.91
  -4  -6   9  117.44    8.07
   4   6  -9  112.86    7.19
   4   6  -8    4.68    3.45
  -4  -6   8    2.30    4.21
  -4  -6   7   75.77    6.96
   4   6  -7   69.97    3.51
   4   6  -7   74.38    5.88
   4   6  -6   21.50    3.73
   4   6  -6   25.65    2.62
  -4  -6   6   27.57    5.37
  -4  -6   6   22.98    3.64
  -4  -6   5  174.83   10.06
   4   6  -5  174.11    7.24
  -4  -6   5  172.95    8.11
   4   6  -5  170.81    9.17
  -4  -6   4    0.60    3.10
  -4  -6   4    3.46    5.22
   4   6  -4    0.27    2.56
   4   6  -4    3.73    2.23
   4   6  -4    2.78    2.46
   4   6  -4    3.29    2.45
  -4  -6   3  299.62   14.14
  -4  -6   3  293.01   11.78
   4   6  -3  290.48   12.04
   4   6  -3  331.25   11.72
   4   6  -3  296.99   12.30
   4   6  -3  272.49   12.29
  -4  -6   2   -0.92    3.14
  -4  -6   2   -8.21    5.18
   4   6  -2    1.07    2.22
   4   6  -2    1.69    2.05
   4   6  -2    0.24    2.24
   4   6  -2    2.11    2.54
   4   6  -1   53.08    4.41
  -4  -6   1   50.78    5.56
  -4  -6   1   55.28    5.74
   4   6  -1   64.96    5.19
   4   6  -1   51.70    4.70
   4   6  -1   63.27    5.26
  -4  -6   0   11.80    4.19
   4   6   0   17.71    3.46
   4   6   0   13.46    2.57
   4   6   0   15.20    3.03
   4   6   0   15.46    3.33
   4   6   1   50.20    3.87
  -4  -6  -1   47.45    5.88
   4   6   1   42.21    4.80
   4   6   1   47.32    4.28
   4   6   1   46.80    4.82
  -4  -6  -2   -2.01    4.45
   4   6   2    2.47    1.76
  -4  -6  -2    0.54    2.66
   4   6   2    1.74    2.73
  -4  -6  -3  127.76    7.85
   4   6   3  131.36    7.61
  -4  -6  -4    2.16    2.79
   4   6   4   -0.26    2.40
   4   7 -10    1.19    3.85
  -4  -7  10    2.78    3.94
   4   7 -10    2.01    2.61
   4   7  -9   92.04    7.11
  -4  -7   9  108.31    7.87
  -4  -7   8    2.37    4.30
   4   7  -8    1.24    2.52
   4   7  -7   40.01    5.24
  -4  -7   7   55.70    6.42
   4   7  -7   49.26    3.39
   4   7  -7   41.95    4.93
   4   7  -6    2.21    2.84
  -4  -7   6    8.02    4.96
   4   7  -6    0.32    2.89
   4   7  -6   -2.56    1.93
  -4  -7   6   -1.02    3.54
  -4  -7   5   93.08    8.02
   4   7  -5   88.55    6.74
   4   7  -5   86.85    5.27
  -4  -7   5   84.27    6.39
   4   7  -5   91.71    6.95
   4   7  -4   20.44    3.85
  -4  -7   4   27.84    6.26
   4   7  -4   24.22    3.84
   4   7  -4   25.66    3.38
   4   7  -4   17.04    3.44
  -4  -7   4   22.51    4.42
   4   7  -3   76.37    5.84
  -4  -7   3   74.24    8.07
   4   7  -3   85.47    5.81
   4   7  -3   79.99    6.11
   4   7  -3   90.00    6.74
  -4  -7   3   92.28    6.87
  -4  -7   2   55.96    5.93
   4   7  -2   50.23    4.65
  -4  -7   2   60.48    6.85
   4   7  -2   54.05    4.90
   4   7  -2   53.73    4.98
   4   7  -2   52.25    5.12
  -4  -7   1   89.15    7.08
   4   7  -1   75.66    5.47
   4   7  -1   86.91    6.38
  -4  -7   1   94.14    7.25
   4   7  -1   83.14    6.11
   4   7  -1   88.15    6.53
  -4  -7   0   12.71    4.46
   4   7   0   17.19    3.18
   4   7   0   16.20    3.55
   4   7   0   19.50    2.99
   4   7   0   25.89    4.02
  -4  -7  -1   30.49    5.51
   4   7   1   36.81    3.79
   4   7   1   43.20    5.01
   4   7   1   34.13    3.96
   4   7   1   32.70    4.58
   4   7   2   13.50    3.58
  -4  -7  -3   25.59    4.26
   4   7   3   36.13    4.45
  -4  -8  10   18.49    4.67
  -4  -8   9    1.21    3.86
  -4  -8   8   -2.13    4.77
   4   8  -7   -0.36    2.93
  -4  -8   7    3.98    4.66
   4   8  -7    0.75    2.82
   4   8  -7    1.64    2.83
  -4  -8   6   11.55    5.22
   4   8  -6   12.58    3.81
   4   8  -6   16.47    2.91
   4   8  -6   19.03    4.04
  -4  -8   6   19.86    4.90
  -4  -8   5   15.38    5.70
   4   8  -5    7.59    3.25
   4   8  -5    8.98    2.62
   4   8  -5    6.72    2.99
  -4  -8   5    6.31    4.29
   4   8  -5   13.70    3.44
  -4  -8   4   15.73    4.69
  -4  -8   4   18.38    5.99
   4   8  -4   10.04    2.89
   4   8  -4    8.60    3.14
   4   8  -4    8.74    3.21
   4   8  -4    5.14    3.18
  -4  -8   3    9.41    5.53
   4   8  -3    4.82    2.68
   4   8  -3    9.53    3.24
   4   8  -3   10.74    3.31
   4   8  -3    6.74    3.05
  -4  -8   3   13.20    4.62
  -4  -8   2   -2.06    5.14
   4   8  -2   -0.27    2.61
   4   8  -2    2.65    2.38
   4   8  -2    1.13    2.30
   4   8  -2    3.59    2.60
  -4  -8   2    0.99    4.24
  -4  -8   1    5.63    4.50
  -4  -8   1    1.88    4.15
   4   8  -1    2.07    2.71
   4   8  -1    3.53    2.43
   4   8  -1    4.12    2.47
   4   8  -1    0.34    2.73
  -4  -8   0   -2.70    4.17
   4   8   0   -1.89    2.96
   4   8   0    0.24    2.28
   4   8   0   -0.26    2.32
   4   8   0    0.68    2.73
   4   8   1   10.39    2.93
  -4  -9   6    2.91    5.51
   4   9  -5   47.10    4.68
   4   9  -5   38.96    5.26
  -4  -9   5   33.90    6.29
  -4  -9   4   15.12    6.12
   4   9  -4    5.00    2.53
   4   9  -4    8.15    3.23
  -4  -9   4    1.73    5.19
  -4  -9   3   66.34    8.03
   4   9  -3   38.10    4.97
   4   9  -3   53.33    5.59
  -4  -9   3   78.16    7.82
  -4  -9   2    4.52    5.82
   4   9  -2    7.64    3.26
   4   9  -2   10.72    3.14
  -4  -9   1   22.66    5.50
  -4  -9   0    0.33    4.20
  -5  11  -4    2.51    2.37
  -5  11  -5   25.92    3.57
   5 -10  -1    5.39    3.54
   5 -10   0  133.55    9.05
   5 -10   2  411.51   16.42
  -5  10  -2  387.60   15.79
  -5  10  -3   21.25    3.70
   5 -10   3   27.91    4.15
  -5  10  -3   25.32    5.56
  -5  10  -3   26.53    3.41
  -5  10  -4  168.42    9.15
   5 -10   4  168.42    9.70
  -5  10  -4  178.51   11.13
  -5  10  -4  173.41    8.23
  -5  10  -5    8.35    2.59
   5 -10   5   10.29    3.17
  -5  10  -5   15.78    5.57
  -5  10  -5   12.48    2.58
  -5  10  -6  137.89    7.83
  -5  10  -6  125.75    9.90
  -5  10  -6  121.95    6.72
  -5  10  -7    2.38    2.23
  -5  10  -7    0.37    5.22
  -5  10  -7    2.31    2.15
  -5  10  -8  290.70   12.31
  -5  10  -8  309.27   15.02
   5  -9  -2   71.82    6.86
  -5   9   1  101.08    8.08
   5  -9  -1   84.16    7.09
  -5   9   1   85.65    6.81
  -5   9   0   50.66    6.27
   5  -9   0   58.48    5.71
   5  -9   1   63.91    5.67
  -5   9  -1   62.89    6.79
  -5   9  -1   66.82    5.55
   5  -9   2  137.25    8.32
  -5   9  -2  154.67    8.39
  -5   9  -3    1.60    2.18
   5  -9   3    0.29    2.39
  -5   9  -3    0.69    4.65
  -5   9  -3    5.16    2.03
  -5   9  -4  200.29    9.55
   5  -9   4  221.70   10.42
  -5   9  -4  204.77    8.44
  -5   9  -5   48.33    4.51
   5  -9   5   45.00    4.77
  -5   9  -5   38.16    6.54
  -5   9  -5   39.71    3.60
  -5   9  -6   18.46    3.27
  -5   9  -6   16.96    5.49
  -5   9  -6   21.60    2.88
  -5   9  -7   11.47    2.68
  -5   9  -7   24.94    5.71
  -5   9  -7   21.47    2.99
  -5   9  -8   41.62    3.98
  -5   9  -8   42.93    4.18
  -5   9  -8   30.70    6.15
  -5   9  -9    6.46    4.67
  -5   9  -9    3.65    2.19
  -5   9  -9    7.41    5.31
  -5   9 -10   42.74    6.92
  -5   9 -10   31.62    6.18
  -5   8   4    3.19    3.43
   5  -8  -4   -1.89    3.21
   5  -8  -3  150.72    9.01
   5  -8  -3  158.89    9.70
  -5   8   3  155.17    9.40
  -5   8   3  142.97    9.03
   5  -8  -2   11.77    3.48
  -5   8   2    7.51    3.97
   5  -8  -2   11.00    3.53
  -5   8   2    5.66    2.63
   5  -8  -2    8.05    2.85
   5  -8  -1  285.48   10.23
  -5   8   1  301.60   13.65
   5  -8  -1  299.71   13.01
   5  -8   0   81.54    6.29
  -5   8   0   93.77    7.52
   5  -8   0   92.28    6.49
  -5   8   0   88.85    6.30
   5  -8   1  468.57   17.11
  -5   8  -1  450.20   18.07
   5  -8   1  480.53   16.60
  -5   8  -1  433.03   16.34
  -5   8  -2   38.36    3.98
   5  -8   2   39.31    4.27
  -5   8  -3  103.61    6.34
   5  -8   3  103.80    6.64
  -5   8  -3  101.47    5.31
  -5   8  -4   21.91    3.18
   5  -8   4   25.75    3.57
  -5   8  -4   29.43    5.70
  -5   8  -4   22.92    2.66
  -5   8  -5   43.77    3.97
   5  -8   5   53.34    4.75
  -5   8  -5   47.99    3.56
  -5   8  -6   96.12    5.87
  -5   8  -6  109.10    5.45
  -5   8  -7   92.72    5.47
  -5   8  -7   74.27    3.18
  -5   8  -7   74.35    2.85
  -5   8  -7   92.25    5.10
  -5   8  -8   99.85    5.91
  -5   8  -8  111.85    5.98
  -5   8  -9    5.38    4.52
  -5   8  -9    0.20    1.78
  -5   8 -10   23.30    5.22
  -5   7   6    3.70    2.99
   5  -7  -5   53.50    6.05
  -5   7   5   41.88    5.05
   5  -7  -5   48.66    5.68
  -5   7   4   45.30    5.48
   5  -7  -4   50.13    5.43
   5  -7  -4   44.15    5.08
  -5   7   4   37.55    4.71
   5  -7  -4   49.52    5.37
  -5   7   3    7.89    3.77
   5  -7  -3    5.29    3.57
   5  -7  -3    8.05    2.85
  -5   7   3    6.05    3.10
   5  -7  -3    7.75    2.94
   5  -7  -2    4.05    3.01
  -5   7   2    6.35    2.81
  -5   7   2    9.78    3.99
   5  -7  -2   -0.29    2.66
   5  -7  -1    1.15    2.69
   5  -7  -1    2.49    2.37
  -5   7   1    1.44    3.87
   5  -7  -1    1.03    2.58
   5  -7   0  131.39    5.58
   5  -7   0  140.63    7.79
  -5   7   0  129.20    7.43
  -5   7   0  131.63    8.81
   5  -7   0  149.19    7.65
  -5   7   0  118.31    7.08
   5  -7   1    0.20    0.66
  -5   7  -1    1.13    1.82
  -5   7  -1    2.95    2.39
   5  -7   1    0.75    2.14
  -5   7  -1    6.20    4.24
   5  -7   2  332.44   12.89
  -5   7  -2  331.09   12.56
  -5   7  -2  313.84   12.25
  -5   7  -3   26.10    2.47
  -5   7  -3   26.45    3.21
   5  -7   3   24.27    3.36
  -5   7  -4  301.29   11.09
   5  -7   4  274.42   11.26
  -5   7  -4  284.83   10.98
  -5   7  -4  270.49    9.39
  -5   7  -5   25.20    2.17
  -5   7  -5   16.09    1.43
  -5   7  -5   19.34    2.77
   5  -7   5   22.25    3.20
  -5   7  -5   17.54    2.18
  -5   7  -6  142.11    6.87
  -5   7  -6  144.89    5.79
  -5   7  -6  132.21    5.19
  -5   7  -6  147.59    6.20
  -5   7  -7   24.59    2.75
  -5   7  -7   19.93    2.55
  -5   7  -7   28.18    3.07
  -5   7  -8  296.34   10.78
  -5   7  -8  280.68   10.17
  -5   7  -8  299.01   10.68
  -5   7  -9    2.37    3.76
  -5   7  -9    1.48    2.64
  -5   7  -9    0.34    1.70
  -5   7 -10   81.05    7.59
   5  -6  -6   28.32    5.52
  -5   6   6   25.92    3.95
  -5   6   6   27.75    4.38
   5  -6  -6   20.61    4.11
   5  -6  -5  173.56    9.76
   5  -6  -5  165.35    9.26
  -5   6   5  168.48    9.08
   5  -6  -5  170.43    9.81
  -5   6   5  178.99    9.34
  -5   6   4    2.74    3.36
   5  -6  -4    6.10    3.72
   5  -6  -4    4.30    2.61
  -5   6   4    3.64    2.80
   5  -6  -4    2.60    2.47
   5  -6  -3  387.10   14.09
  -5   6   3  396.02   14.80
   5  -6  -3  384.67   14.85
  -5   6   3  397.16   15.27
   5  -6  -2    2.47    3.02
  -5   6   2    1.89    2.44
  -5   6   2    3.93    3.72
   5  -6  -2    2.07    2.30
   5  -6  -1 1053.91   27.43
   5  -6  -1 1096.01   30.26
  -5   6   1 1071.32   26.97
  -5   6   1 1088.51   30.81
  -5   6   1  998.94   29.25
   5  -6   0   44.67    3.38
   5  -6   0   44.75    4.29
  -5   6   0   43.58    3.26
  -5   6   0   48.52    4.09
  -5   6   0   41.89    4.20
  -5   6   0   54.17    6.09
   5  -6   1  550.79   17.70
  -5   6  -1  514.87   14.63
  -5   6  -1  517.01   17.08
  -5   6  -1  505.08   18.55
  -5   6  -1  512.28   16.99
  -5   6  -2    3.56    2.09
  -5   6  -2    4.09    1.76
  -5   6  -2    4.76    2.41
   5  -6   2    3.17    1.96
  -5   6  -3  569.56   15.53
   5  -6   3  559.69   18.00
  -5   6  -3  547.82   17.53
  -5   6  -3  541.65   15.45
  -5   6  -3  557.90   17.47
  -5   6  -4   10.06    2.95
  -5   6  -4   11.72    2.17
  -5   6  -4    8.71    2.57
   5  -6   4   12.02    2.49
  -5   6  -4    9.01    1.50
  -5   6  -5  480.96   14.42
  -5   6  -5  463.01   13.52
   5  -6   5  482.00   15.14
  -5   6  -5  374.72   13.74
  -5   6  -5  406.81   12.65
  -5   6  -6    5.02    1.66
  -5   6  -6   10.01    2.00
  -5   6  -7  378.21   12.19
  -5   6  -7  380.43   16.04
  -5   6  -7  349.95   11.62
  -5   6  -8   -1.07    3.65
  -5   6  -8    0.17    2.45
  -5   6  -8    1.72    1.46
  -5   6  -9   28.14    5.09
  -5   6  -9   25.11    3.96
  -5   6  -9   25.58    2.67
  -5   6 -10    9.25    3.74
  -5   6 -10   10.14    3.76
  -5   6 -11   37.03    5.11
  -5   5   8   13.04    3.43
  -5   5   7  122.79    6.95
   5  -5  -7  104.49    8.30
  -5   5   7  100.47    7.04
   5  -5  -7  124.38    8.65
   5  -5  -6   10.22    4.52
  -5   5   6    3.66    2.55
   5  -5  -6    9.32    2.75
  -5   5   6    3.12    2.77
  -5   5   6    2.48    2.26
   5  -5  -6    0.97    2.70
   5  -5  -5  386.69   15.40
   5  -5  -5  352.06   14.29
  -5   5   5  383.04   14.35
  -5   5   5  364.10   13.16
   5  -5  -5  364.66   14.79
  -5   5   5  376.23   14.00
  -5   5   4   40.17    4.88
   5  -5  -4   41.12    4.94
   5  -5  -4   38.76    4.48
  -5   5   4   43.96    4.52
   5  -5  -4   37.44    4.11
   5  -5  -3  158.11    8.14
  -5   5   3  177.15    7.98
  -5   5   3  164.63    8.34
   5  -5  -3  147.98    7.90
  -5   5   3  183.39    9.02
  -5   5   2   56.37    4.15
   5  -5  -2   45.94    4.53
   5  -5  -2   55.94    4.65
  -5   5   2   49.00    4.37
  -5   5   2   48.50    5.51
   5  -5  -1  310.55   11.09
   5  -5  -1  341.61   12.77
  -5   5   1  310.39   10.71
  -5   5   1  309.88   13.13
  -5   5   1  294.82   11.80
   5  -5   0   68.72    4.93
  -5   5   0   56.08    4.17
  -5   5   0   67.46    6.38
  -5   5   0   63.08    4.50
   5  -5   1  644.80   19.34
  -5   5  -1  589.27   17.28
  -5   5  -1  590.04   18.73
  -5   5  -1  584.05   18.43
  -5   5  -2    2.73    1.65
  -5   5  -2    4.66    2.23
   5  -5   2    5.81    1.92
  -5   5  -3  231.65    7.36
  -5   5  -3  242.01    7.37
  -5   5  -3  237.80    4.19
  -5   5  -3  238.81    6.96
  -5   5  -4    1.56    1.50
  -5   5  -4    0.74    1.84
  -5   5  -4    0.95    0.76
  -5   5  -5   47.00    3.30
  -5   5  -5   49.43    3.63
  -5   5  -5   42.93    2.51
  -5   5  -6   64.98    3.74
  -5   5  -6   59.26    5.89
  -5   5  -6   52.49    3.65
  -5   5  -6   63.73    3.28
  -5   5  -7  201.73    7.41
  -5   5  -7  200.74   10.70
  -5   5  -8   85.31    4.18
  -5   5  -8   79.68    6.94
  -5   5  -9   49.53    3.05
  -5   5  -9   57.30    5.19
  -5   5  -9   51.84    4.57
  -5   5  -9   45.16    5.47
  -5   5 -10   -1.13    3.78
  -5   5 -10    1.29    3.04
  -5   5 -11   -0.62    3.09
  -5   5 -11    1.85    3.83
  -5   4   8  145.44    8.22
   5  -4  -7   16.64    4.97
   5  -4  -7   15.74    3.72
  -5   4   7   19.05    3.10
  -5   4   7   16.92    3.36
   5  -4  -7   16.74    3.87
   5  -4  -6  178.74   10.11
   5  -4  -6  195.29   10.23
  -5   4   6  175.88    9.01
  -5   4   6  207.86    8.83
   5  -4  -6  195.51   10.17
  -5   4   6  211.88    9.05
  -5   4   5    0.58    2.83
   5  -4  -5    4.37    3.83
  -5   4   5    2.03    2.88
   5  -4  -5    1.20    2.34
  -5   4   5    1.39    2.55
  -5   4   5   -0.59    2.04
   5  -4  -5    0.26    2.23
   5  -4  -4   80.67    6.16
  -5   4   4   67.90    5.30
  -5   4   4   65.19    5.23
  -5   4   4   66.74    4.69
   5  -4  -4   57.16    4.88
  -5   4   4   69.32    5.50
   5  -4  -3    4.78    3.61
  -5   4   3    4.68    2.76
   5  -4  -3    3.29    2.41
  -5   4   3    4.57    2.63
  -5   4   3    4.06    3.63
   5  -4  -3    2.30    1.54
   5  -4  -2  330.74   12.54
   5  -4  -2  299.73   11.67
  -5   4   2  310.16   11.26
  -5   4   2  308.63   12.50
   5  -4  -1  416.17   14.44
   5  -4  -1  407.10   13.26
  -5   4   1  384.20   13.30
  -5   4   1  397.36   13.85
   5  -4   0  213.48    8.96
  -5   4   0  201.20    8.40
   5  -4   0  215.33    7.39
  -5   4   0  188.29    8.27
  -5   4  -1   77.81    5.41
  -5   4  -1   80.67    4.64
  -5   4  -2    3.91    3.50
  -5   4  -2    2.31    1.53
  -5   4  -3   86.88    5.26
  -5   4  -3   86.90    4.44
  -5   4  -4   77.15    4.34
  -5   4  -4   68.10    5.66
  -5   4  -4   81.56    3.91
  -5   4  -5  120.43    5.47
  -5   4  -5  122.17    7.83
  -5   4  -5  117.36    4.23
  -5   4  -5  135.42    5.27
  -5   4  -6   50.63    3.21
  -5   4  -6   43.77    4.00
  -5   4  -6   45.06    5.15
  -5   4  -6   51.31    2.94
  -5   4  -7  135.74    5.06
  -5   4  -7  117.98    7.93
  -5   4  -7  132.75    6.88
  -5   4  -8   29.11    2.00
  -5   4  -8   26.68    3.36
  -5   4  -8   34.85    4.76
  -5   4  -9   49.42    5.47
  -5   4  -9   40.13    3.87
  -5   4 -10   11.38    3.64
  -5   4 -10    8.49    4.04
  -5   4 -11   34.39    4.71
  -5   3   9    6.40    3.01
   5  -3  -8   39.85    6.30
   5  -3  -8   35.39    5.09
  -5   3   8   32.52    4.23
  -5   3   8   34.18    4.25
  -5   3   7   65.28    5.66
   5  -3  -7   68.66    6.48
  -5   3   7   81.58    5.56
  -5   3   7   68.72    4.52
   5  -3  -7   71.90    6.06
   5  -3  -6   43.47    5.41
   5  -3  -6   48.35    4.87
  -5   3   6   44.17    4.94
  -5   3   6   46.15    4.45
  -5   3   6   38.13    3.74
   5  -3  -5  226.28    9.33
  -5   3   5  234.37    8.87
  -5   3   5  254.19    8.25
   5  -3  -4   28.11    4.72
  -5   3   4   28.77    3.94
   5  -3  -3  208.27    9.64
  -5   3   3  213.79    9.29
  -5   3   3  214.29    8.95
   5  -3  -3  206.26    9.56
   5  -3  -2   -1.42    3.36
  -5   3   2    3.00    3.40
   5  -3  -2    0.21    1.95
  -5   3   2    1.60    2.09
   5  -3  -1 1110.95   29.29
  -5   3   1 1106.42   29.79
  -5   3   1 1103.35   29.82
   5  -3  -1 1171.27   28.02
  -5   3   0   94.36    6.19
   5  -3   0   91.34    3.60
  -5   3  -1  480.07   16.06
  -5   3  -1  459.45   14.28
  -5   3  -2   48.84    4.51
  -5   3  -2   46.85    3.10
  -5   3  -3  536.66   17.21
  -5   3  -3  554.44   15.57
  -5   3  -4    1.20    2.89
  -5   3  -4    2.08    1.16
  -5   3  -4    1.98    2.06
  -5   3  -5  926.77   28.68
  -5   3  -5  962.96   27.10
  -5   3  -5  888.85   23.62
  -5   3  -5 1007.32   24.25
  -5   3  -6    5.67    3.21
  -5   3  -6    7.19    0.95
  -5   3  -6    6.48    1.69
  -5   3  -6    7.23    2.43
  -5   3  -7  303.28   12.57
  -5   3  -7  296.92   10.77
  -5   3  -8   -1.21    2.92
  -5   3  -8   -2.10    2.15
  -5   3  -9   71.71    6.22
  -5   3 -10   -2.88    4.20
  -5   3 -10   -0.30    2.68
  -5   2   9    1.64    2.55
   5  -2  -8  200.54   11.23
  -5   2   8  216.13   10.98
  -5   2   8  214.55    9.75
  -5   2   8  215.95   10.01
   5  -2  -8  208.95   11.41
   5  -2  -7   26.96    5.29
   5  -2  -7   23.25    3.96
  -5   2   7   26.77    4.46
   5  -2  -6  186.66    9.94
  -5   2   6  201.54    9.80
  -5   2   6  209.67    8.82
   5  -2  -6  175.31    9.73
   5  -2  -5   94.02    6.95
  -5   2   5   92.16    6.48
  -5   2   5  103.51    5.92
   5  -2  -4  415.61   15.63
  -5   2   4  439.54   15.47
  -5   2   4  427.76   14.66
   5  -2  -4  442.88   15.80
   5  -2  -3   -4.15    4.08
  -5   2   3   -0.80    3.55
   5  -2  -3    0.86    2.00
  -5   2   3    0.19    1.97
   5  -2  -2 1029.91   28.85
  -5   2   2 1053.67   29.42
  -5   2   2 1024.80   28.98
   5  -2  -2  972.31   28.95
  -5   2   1  183.45    8.53
  -5   2   1  113.06    6.40
  -5   2   0  159.22    8.60
   5  -2   0  144.93    4.38
  -5   2  -1  245.05   10.24
  -5   2  -1  223.83    9.38
  -5   2  -2  792.03   23.13
  -5   2  -2  765.39   23.50
  -5   2  -2  784.09   23.10
   5  -2   3    1.33    1.12
  -5   2  -3   -0.18    1.97
  -5   2  -4  393.18   13.35
  -5   2  -4  393.21   12.10
  -5   2  -5   53.22    5.13
  -5   2  -5   50.21    4.08
  -5   2  -5   42.14    2.30
  -5   2  -6   30.25    4.16
  -5   2  -6   25.24    3.17
  -5   2  -6   24.30    2.12
  -5   2  -7   14.08    1.38
  -5   2  -7   19.07    2.05
  -5   2  -7   19.75    2.28
  -5   2  -8   18.45    3.67
  -5   2  -8   13.43    1.18
  -5   2  -8   19.02    2.63
  -5   2  -9    0.38    1.81
  -5   2  -9   -0.60    2.86
  -5   2 -10    7.79    3.30
   5  -1  -9    6.54    5.15
   5  -1  -9   -0.75    2.73
  -5   1   9   -4.50    3.99
  -5   1   9    0.92    2.67
  -5   1   9   -3.85    2.93
   5  -1  -8  207.64   11.35
  -5   1   8  197.85   10.71
  -5   1   8  192.61    6.25
  -5   1   8  233.35   10.16
   5  -1  -8  210.46   11.12
   5  -1  -7    3.22    4.51
   5  -1  -7    2.23    2.53
  -5   1   7    2.23    3.30
  -5   1   7    2.77    2.40
   5  -1  -6  227.31   11.21
  -5   1   6  223.69   10.56
   5  -1  -5   13.57    4.70
   5  -1  -5   17.04    3.23
  -5   1   5   22.21    4.56
   5  -1  -4  357.92   13.60
  -5   1   4  335.33   13.24
   5  -1  -4  362.51   13.28
  -5   1   3   49.38    5.48
  -5   1   3   50.80    4.32
   5  -1  -3   41.36    3.97
   5  -1  -2  697.02   20.67
  -5   1   2  708.70   21.84
  -5   1   2  664.87   20.76
  -5   1   2  658.65   19.47
  -5   1   1  167.21    9.27
  -5   1   1  155.84    7.05
  -5   1   1  178.78    7.91
  -5   1   0  387.43   14.28
  -5   1   0  389.53   12.42
  -5   1  -1   19.40    3.70
  -5   1  -1   15.83    3.02
  -5   1  -1   19.00    2.88
   5  -1   2  253.09    7.80
  -5   1  -2  232.64   10.08
  -5   1  -2  235.77    9.77
   5  -1   3  147.43    4.64
  -5   1  -3  177.35    7.79
  -5   1  -4  190.94    8.41
  -5   1  -4  180.39    5.87
  -5   1  -5  262.63   11.55
  -5   1  -5  256.67    9.04
  -5   1  -5  249.11    8.09
  -5   1  -6   74.61    5.93
  -5   1  -6   76.29    3.96
  -5   1  -6   79.84    4.10
  -5   1  -7  103.28    3.95
  -5   1  -7  112.34    5.41
  -5   1  -8    3.85    2.97
  -5   1  -8    4.42    1.92
  -5   1  -9   44.84    5.40
  -5   1  -9   42.89    4.13
   5   0  -9   55.36    7.08
   5   0  -9   53.18    5.88
  -5   0   9   51.06    4.94
   5   0  -8   16.42    5.03
   5   0  -8    9.89    3.12
  -5   0   8   10.62    4.15
  -5   0   8    3.65    2.68
   5   0  -7   12.85    4.79
  -5   0   7    6.60    3.81
  -5   0   7    7.32    0.88
  -5   0   7    8.27    0.93
  -5   0   7   11.15    2.90
   5   0  -6    2.79    4.12
  -5   0   6    2.06    1.27
  -5   0   6    8.03    3.71
  -5   0   6    1.46    2.40
  -5   0   6    2.64    1.59
   5   0  -5   87.59    7.14
  -5   0   5   80.41    6.80
  -5   0   5   88.34    4.12
  -5   0   5   82.47    5.85
   5   0  -4  102.25    6.72
  -5   0   4  102.39    4.20
  -5   0   4  110.98    6.05
   5   0  -3   26.44    3.68
  -5   0   3   32.18    2.90
  -5   0   2   11.77    3.93
  -5   0   2   17.44    2.68
  -5   0   1    2.70    1.98
  -5   0   1   -0.79    4.61
  -5   0   0   24.99    4.35
   5   0   0   21.75    1.71
  -5   0   0   22.40    3.16
  -5   0  -1   13.93    3.43
   5   0   1   14.71    1.74
  -5   0  -1   12.75    2.81
   5   0   1   13.31    1.27
   5   0   2  112.55    4.10
  -5   0  -2  114.38    6.64
  -5   0  -2  111.64    5.84
  -5   0  -3    2.77    1.23
  -5   0  -3   -0.47    1.75
   5   0   4   61.82    5.32
  -5   0  -4   56.85    3.86
  -5   0  -4   51.17    3.13
  -5   0  -5   28.33    4.14
  -5   0  -5   25.08    2.56
  -5   0  -5   33.35    2.71
   5   0   6   10.08    3.25
  -5   0  -6   12.23    3.47
  -5   0  -6    9.96    2.06
  -5   0  -7   13.41    3.54
  -5   0  -7   13.62    2.44
  -5   0  -8    8.57    3.53
  -5   0  -8   10.78    2.55
  -5  -1   9   79.27    5.97
  -5  -1   8  170.78    8.74
  -5  -1   7   -0.76    2.29
  -5  -1   6  145.37    4.59
  -5  -1   6  138.02    4.78
  -5  -1   5   21.89    2.10
   5   1  -5   24.73    3.74
  -5  -1   5   25.12    3.72
  -5  -1   4  446.68   13.43
   5   1  -4  458.50   15.73
  -5  -1   4  440.01   15.81
  -5  -1   3   43.79    3.47
   5   1  -3   48.98    4.57
  -5  -1   2  915.28   13.48
   5   1  -2   -0.21    0.97
  -5  -1   1   48.15    4.10
  -5  -1   1   45.41    4.20
   5   1  -1   46.45    3.09
   5   1   0  445.32   15.06
   5   1   0  451.34   14.68
  -5  -1   0  438.06   14.62
   5   1   0  450.84   12.51
   5   1   1    3.51    2.32
   5   1   1    2.24    2.57
  -5  -1  -1    4.07    2.31
   5   1   1    2.91    1.44
  -5  -1  -2  399.48   12.31
   5   1   2  338.98    7.35
   5   1   2  395.02   11.94
  -5  -1  -2  340.39   10.63
   5   1   2  375.27    7.53
   5   1   3   47.62    4.18
  -5  -1  -3   37.84    3.36
  -5  -1  -3   40.83    3.02
   5   1   4  506.41   18.51
  -5  -1  -4  521.66   16.07
  -5  -1  -4  564.13   16.09
  -5  -1  -5   39.45    4.74
  -5  -1  -5   42.30    3.46
   5   1   5   34.56    4.66
   5   1   6   64.60    6.01
  -5  -1  -6   69.65    4.47
  -5  -1  -7    1.60    2.98
   5   1   7    2.91    3.36
  -5  -1  -7    4.79    2.11
  -5  -1  -8   43.82    5.66
   5   1   8   56.99    6.25
  -5  -1  -8   48.74    4.52
   5   2  -9  105.14    8.71
  -5  -2   9  101.28    7.79
  -5  -2   9  104.40    6.87
  -5  -2   8   83.32    7.01
   5   2  -8   79.75    7.60
  -5  -2   8   85.36    6.19
   5   2  -7   55.08    6.55
  -5  -2   7   62.61    6.46
   5   2  -7   61.15    5.05
  -5  -2   7   67.38    5.41
  -5  -2   6   21.09    1.41
   5   2  -6   30.92    5.18
  -5  -2   6   42.68    5.72
   5   2  -6   38.29    4.10
  -5  -2   6   20.14    1.68
  -5  -2   6   37.13    4.18
   5   2  -5  143.63    8.29
  -5  -2   5  159.64    9.59
  -5  -2   5  145.13    5.44
   5   2  -5  161.95    8.11
  -5  -2   5  142.53    7.87
   5   2  -4   19.77    3.97
  -5  -2   4   19.49    5.63
   5   2  -4   21.64    3.46
  -5  -2   4   28.29    3.81
  -5  -2   4   21.96    2.46
  -5  -2   3  115.44    5.34
   5   2  -3  111.95    6.45
  -5  -2   2  146.96    5.86
   5   2  -2  164.95    6.38
  -5  -2   2  155.08    7.15
   5   2  -2  152.43    5.65
   5   2  -1   15.63    2.33
   5   2  -1   19.21    3.20
  -5  -2   1   14.91    2.93
  -5  -2   1   13.85    2.80
   5   2   0   19.30    3.38
   5   2   0   17.58    3.14
  -5  -2   0   21.82    3.16
  -5  -2   0   20.74    3.36
   5   2   0   22.11    2.50
  -5  -2  -1   80.42    5.70
   5   2   1   83.31    5.81
   5   2   1   80.39    5.68
  -5  -2  -1   88.32    5.48
   5   2   1   92.96    4.72
   5   2   2    0.70    2.53
   5   2   2    0.63    0.73
   5   2   2    0.22    2.20
  -5  -2  -2    3.21    2.24
  -5  -2  -2    2.85    2.69
  -5  -2  -3    3.20    1.91
   5   2   3   -0.22    2.15
   5   2   4   43.67    4.26
  -5  -2  -4   44.20    3.62
  -5  -2  -5    2.45    1.97
   5   2   5    3.89    3.09
  -5  -2  -5    7.59    3.45
   5   2   6    7.47    3.56
  -5  -2  -6   12.65    3.95
  -5  -2  -6   10.72    2.69
  -5  -2  -7    6.26    3.80
   5   2   7    5.96    3.64
  -5  -2  -7    4.90    2.58
  -5  -3  10    7.75    4.41
   5   3  -9   49.07    6.91
  -5  -3   9   52.80    6.22
   5   3  -9   56.15    4.86
   5   3  -8   -4.67    4.84
  -5  -3   8    1.87    3.71
   5   3  -8   -0.96    2.36
   5   3  -7   55.44    6.06
  -5  -3   7   54.61    6.57
   5   3  -7   51.82    4.74
  -5  -3   7   56.34    5.01
  -5  -3   6    2.63    1.25
   5   3  -6    8.67    3.69
  -5  -3   6    6.83    4.83
   5   3  -6    2.36    2.39
  -5  -3   6    3.37    2.57
  -5  -3   5  171.99    6.44
   5   3  -5  161.87    8.79
  -5  -3   5  194.42   10.65
   5   3  -5  170.62    8.58
  -5  -3   5  187.09    9.06
  -5  -3   4  370.14   15.75
  -5  -3   4  357.22   11.48
   5   3  -4  350.97   13.58
  -5  -3   3  130.85    9.83
  -5  -3   3  112.62    5.73
   5   3  -3  112.56    6.80
   5   3  -3  121.44    6.03
  -5  -3   2   70.91    4.82
   5   3  -2   67.55    4.77
  -5  -3   2   71.75    5.42
   5   3  -2   85.83    5.01
  -5  -3   1    1.91    4.09
   5   3  -1    1.82    2.32
  -5  -3   1    5.01    2.67
   5   3  -1    9.48    2.71
  -5  -3   1    5.11    2.44
   5   3  -1    6.24    2.16
  -5  -3   0   49.28    4.55
  -5  -3   0   35.67    4.90
   5   3   0   44.56    4.32
   5   3   0   45.26    4.42
   5   3   0   49.32    3.76
  -5  -3  -1  203.48    9.82
   5   3   1  206.88    7.38
   5   3   1  215.66    9.90
   5   3   1  233.29   10.07
   5   3   1  230.15    8.83
   5   3   2  250.69    7.92
  -5  -3  -2  296.47   12.14
   5   3   2  273.76   11.72
   5   3   2  283.27   11.40
  -5  -3  -3   75.17    6.36
   5   3   3   83.40    5.83
  -5  -3  -3   78.77    4.98
   5   3   4   99.65    6.46
  -5  -3  -4  103.10    5.91
  -5  -3  -5   -0.44    2.30
  -5  -3  -5   -1.34    3.23
   5   3   5    1.61    2.24
   5   3   5    1.28    3.14
  -5  -3  -6   58.65    6.55
   5   3   6   50.00    5.96
  -5  -4  10    0.35    4.02
   5   4 -10   -0.24    2.32
   5   4  -9   -0.34    4.84
  -5  -4   9    8.28    4.40
   5   4  -9   -1.79    2.69
   5   4  -8    9.30    4.28
  -5  -4   8    2.58    4.56
   5   4  -8    7.13    2.74
   5   4  -7    9.51    3.90
  -5  -4   7   13.59    4.96
   5   4  -7   20.53    3.53
   5   4  -6   -2.03    3.63
  -5  -4   6    5.29    4.72
   5   4  -6   -0.50    2.32
  -5  -4   6   -0.56    1.71
  -5  -4   5   36.86    3.47
  -5  -4   5   42.04    6.26
   5   4  -5   46.21    4.62
  -5  -4   4   12.65    5.71
  -5  -4   4    7.29    2.33
   5   4  -4    6.27    2.24
   5   4  -4    7.10    2.80
  -5  -4   3   87.38    5.26
  -5  -4   3   76.43    7.98
   5   4  -3   83.42    5.09
   5   4  -3   78.18    5.36
   5   4  -2   25.21    3.38
  -5  -4   2   21.39    5.54
   5   4  -2   31.72    3.65
  -5  -4   2   32.63    3.73
  -5  -4   1   10.73    4.31
   5   4  -1   10.91    2.89
  -5  -4   1    9.31    3.21
   5   4  -1    7.09    2.99
   5   4  -1    7.94    2.18
   5   4  -1    8.19    2.33
   5   4   0    7.45    2.83
  -5  -4   0    0.78    3.45
  -5  -4   0    2.65    2.84
   5   4   0    4.15    1.70
   5   4   0    5.03    2.52
   5   4   0    5.67    2.26
   5   4   1   19.23    3.74
  -5  -4  -1   24.26    4.11
   5   4   1   18.36    2.22
   5   4   1   19.93    3.59
   5   4   1   19.17    3.01
   5   4   2   46.85    2.75
   5   4   2   38.48    4.77
  -5  -4  -2   42.45    5.21
   5   4   2   44.49    4.61
  -5  -4  -3    2.39    2.31
   5   4   3    0.23    0.52
  -5  -4  -3    0.97    3.33
   5   4   3    2.01    2.35
  -5  -4  -4   25.01    3.58
   5   4   4   24.46    3.90
  -5  -4  -5    3.10    2.60
   5   4   5   -1.40    3.16
   5   4   5   -1.01    2.44
  -5  -4  -6    7.68    3.16
   5   5 -10    3.24    2.75
   5   5  -9   43.92    5.96
  -5  -5   9   58.36    6.60
   5   5  -9   42.39    4.76
   5   5  -8   -0.29    3.84
  -5  -5   8    0.67    4.70
   5   5  -8    2.98    2.63
   5   5  -7   40.49    5.05
  -5  -5   7   53.35    6.75
   5   5  -7   55.18    5.11
  -5  -5   6   23.02    5.94
   5   5  -6    8.95    2.99
  -5  -5   6   16.50    2.94
  -5  -5   5  126.54    9.36
   5   5  -5  119.24    5.93
   5   5  -5  131.64    7.91
  -5  -5   5  125.28    6.39
   5   5  -5  128.55    7.55
   5   5  -4   17.64    3.41
  -5  -5   4   13.03    3.33
  -5  -5   4   20.27    6.24
   5   5  -4   16.66    2.92
   5   5  -4   19.72    3.61
  -5  -5   3  172.73    8.36
  -5  -5   3  163.96   10.95
   5   5  -3  168.71    8.07
   5   5  -3  183.30    8.85
   5   5  -2    1.50    2.59
  -5  -5   2   -4.99    5.59
  -5  -5   2    0.70    2.75
   5   5  -2   -0.27    2.68
   5   5  -2    1.25    2.15
   5   5  -2    0.48    2.39
  -5  -5   1  113.56    7.28
  -5  -5   1  111.05    8.06
   5   5  -1  110.33    6.06
   5   5  -1  115.13    7.00
   5   5  -1  114.28    7.28
   5   5  -1  131.03    7.04
  -5  -5   0   24.89    4.56
  -5  -5   0   35.91    4.75
   5   5   0   29.28    3.11
   5   5   0   39.22    4.56
   5   5   0   27.21    3.60
   5   5   0   32.88    4.29
  -5  -5  -1  129.01    8.34
   5   5   1  114.28    5.63
   5   5   1  125.68    7.85
   5   5   1  140.36    8.05
   5   5   1  137.19    7.40
   5   5   2    5.06    3.10
  -5  -5  -2    9.42    3.97
   5   5   2    7.71    1.75
   5   5   2    6.81    2.93
  -5  -5  -3   55.67    6.59
   5   5   3   68.23    6.31
   5   5   3   62.80    5.53
  -5  -5  -3   76.96    5.78
  -5  -5  -4   13.36    3.31
   5   5   4   10.69    3.26
  -5  -5  -5   23.41    4.00
   5   6 -10   -1.75    2.87
   5   6  -9    4.31    3.90
  -5  -6   9   15.64    5.02
   5   6  -9    9.17    3.12
  -5  -6   8    5.20    4.98
   5   6  -8    6.95    3.20
  -5  -6   7   10.38    5.42
   5   6  -7    9.01    3.34
   5   6  -6    3.27    2.87
  -5  -6   6    2.42    5.05
   5   6  -6    2.19    1.87
   5   6  -6    2.97    2.77
  -5  -6   6    5.95    3.26
  -5  -6   5   24.43    3.98
   5   6  -5   34.92    4.43
  -5  -6   5   34.64    6.60
   5   6  -5   24.82    3.19
   5   6  -4   -1.11    2.76
  -5  -6   4    3.28    3.27
   5   6  -4    3.36    2.39
  -5  -6   4    5.25    5.71
   5   6  -4    0.27    2.43
   5   6  -3   31.09    4.23
  -5  -6   3   30.88    4.38
  -5  -6   3   25.06    6.22
   5   6  -3   27.70    3.77
   5   6  -3   27.08    3.81
  -5  -6   2   -3.50    3.84
  -5  -6   2   -2.09    5.09
   5   6  -2    1.11    1.95
   5   6  -2    0.24    2.43
   5   6  -2    0.26    2.17
  -5  -6   1   10.68    4.19
  -5  -6   1    5.97    3.97
   5   6  -1    6.92    2.33
   5   6  -1    5.72    2.86
   5   6  -1    7.82    2.73
  -5  -6   0   -2.37    3.74
  -5  -6   0   -4.88    4.54
   5   6   0    2.21    1.86
   5   6   0    1.46    2.63
   5   6   0    1.68    2.74
   5   6   0    2.39    2.33
  -5  -6  -1   13.14    4.96
   5   6   1   12.12    2.27
   5   6   1   16.76    3.67
   5   6   1   17.52    4.04
   5   6   1   21.98    3.69
  -5  -6  -2   39.45    6.50
   5   6   2   53.86    5.88
   5   6   2   53.60    5.44
   5   6   3    1.75    2.65
  -5  -6  -4   16.30    3.77
  -5  -7   9    6.75    4.96
   5   7  -9    1.66    2.86
  -5  -7   8    7.87    5.57
   5   7  -8   13.06    3.68
   5   7  -7   21.30    4.28
  -5  -7   7   27.35    6.19
   5   7  -7   24.94    4.40
   5   7  -6   16.57    3.93
  -5  -7   6   15.55    5.88
   5   7  -6   12.90    2.61
   5   7  -6   13.71    3.72
  -5  -7   6   15.09    4.38
   5   7  -5   51.51    5.48
  -5  -7   5   59.55    7.79
   5   7  -5   54.34    4.49
   5   7  -5   45.03    5.32
  -5  -7   5   61.38    5.93
   5   7  -4   13.13    3.48
  -5  -7   4   13.50    4.22
  -5  -7   4   20.85    6.48
   5   7  -4   12.54    3.41
   5   7  -4    8.64    3.17
   5   7  -4   13.61    3.12
  -5  -7   3   17.58    4.60
  -5  -7   3   11.37    5.79
   5   7  -3   14.19    3.18
   5   7  -3   15.43    3.22
   5   7  -3   14.64    3.46
   5   7  -3   16.26    3.54
  -5  -7   2   -0.91    3.85
  -5  -7   2   -1.86    5.39
   5   7  -2   -1.46    2.24
   5   7  -2    2.12    2.69
   5   7  -2    0.58    2.35
   5   7  -2    0.29    2.55
  -5  -7   1   63.68    6.74
   5   7  -1   44.48    4.40
  -5  -7   1   67.58    6.87
   5   7  -1   50.97    5.27
   5   7  -1   53.86    5.34
  -5  -7   0   13.20    5.16
  -5  -7   0    6.07    3.97
   5   7   0    8.88    3.40
   5   7   0   11.98    3.53
   5   7   0    7.80    3.11
   5   7   1  116.53    8.13
   5   7   1  128.31    8.26
   5   7   2    1.29    2.97
  -5  -8   8   -0.37    5.63
  -5  -8   7   19.71    6.01
  -5  -8   6    4.90    5.76
   5   8  -5   19.39    4.29
  -5  -8   5   23.59    6.94
   5   8  -5   15.84    3.91
  -5  -8   5   25.38    5.27
   5   8  -5   11.36    3.06
  -5  -8   4   11.89    6.45
   5   8  -4    0.92    2.50
   5   8  -4    1.25    2.59
  -5  -8   4   12.97    4.97
   5   8  -4    1.38    2.79
  -5  -8   3   16.81    6.59
   5   8  -3   15.48    3.54
   5   8  -3   20.10    3.65
   5   8  -3   16.01    3.87
   5   8  -3   20.29    4.18
  -5  -8   3   18.98    5.26
  -5  -8   2   -0.73    4.82
   5   8  -2    3.29    2.89
  -5  -8   2   -6.79    6.42
   5   8  -2    3.46    2.57
   5   8  -2    4.39    3.23
   5   8  -2    2.79    2.77
  -5  -8   1    5.81    4.96
  -5  -9   4   21.52    7.30
   5   9  -4    7.49    2.94
  -5  -9   3    2.56    6.07
   6 -10   0   23.76    4.31
  -6  10  -4    0.29    2.22
   6 -10   4    0.69    2.72
  -6  10  -5  125.68    7.86
   6 -10   5  145.12    9.00
  -6  10  -6    7.80    2.64
  -6  10  -7   14.55    3.17
   6  -9  -2    7.94    3.31
   6  -9  -1  192.84   10.30
   6  -9   0   47.06    5.15
   6  -9   0   49.80    5.47
  -6   9   0   44.98    6.54
   6  -9   1  138.51    8.79
  -6   9  -1  139.82    9.92
  -6   9  -1  124.21    7.92
  -6   9  -2    1.44    2.01
   6  -9   2    1.96    2.33
  -6   9  -2    6.08    5.17
   6  -9   3   66.03    5.90
  -6   9  -3   57.28    5.08
   6  -9   4  107.83    7.51
  -6   9  -4  106.58    9.32
  -6   9  -4  111.44    6.92
  -6   9  -5   77.04    5.71
   6  -9   5   81.79    6.42
  -6   9  -5   80.17    8.53
  -6   9  -5   83.42    4.57
  -6   9  -6  114.58    6.88
  -6   9  -6  126.17   10.25
  -6   9  -7    9.31    2.76
  -6   9  -7   10.25    5.99
  -6   9  -8   42.87    4.28
   6  -8  -4   17.41    4.02
  -6   8   3   73.49    7.03
   6  -8  -3   65.83    6.43
   6  -8  -2    8.00    3.21
  -6   8   2    9.15    4.38
  -6   8   2    8.51    3.53
   6  -8  -1   28.06    4.03
  -6   8   1   18.14    3.52
   6  -8  -1   20.96    3.78
  -6   8   1   24.49    5.24
   6  -8   0    4.63    2.60
  -6   8   0    1.43    2.21
   6  -8   0    1.90    2.29
  -6   8   0   -0.59    2.91
  -6   8   0    5.92    4.97
   6  -8   1   69.62    5.90
  -6   8  -1   51.11    5.26
  -6   8  -1   74.28    7.76
  -6   8  -1   67.64    5.62
  -6   8  -2    4.12    2.05
  -6   8  -2   -1.87    2.90
   6  -8   2    2.38    2.20
  -6   8  -2   -0.36    4.82
   6  -8   3  219.70   10.59
  -6   8  -3  224.48   10.29
  -6   8  -3  214.64    9.91
  -6   8  -4   -0.23    1.87
   6  -8   4    2.73    2.27
  -6   8  -4   -0.73    4.95
  -6   8  -5  100.69    6.10
   6  -8   5   96.47    6.54
  -6   8  -5   93.61    4.44
  -6   8  -6   19.00    3.03
  -6   8  -6   19.52    2.22
  -6   8  -7   37.94    3.84
  -6   8  -8   14.40    2.64
  -6   8  -8   15.79    5.40
   6  -7  -5   97.09    7.55
  -6   7   5  114.56    8.05
  -6   7   4   -1.77    3.76
   6  -7  -4    1.29    4.03
  -6   7   4    0.63    3.03
   6  -7  -4    0.63    2.52
   6  -7  -3  434.54   15.77
  -6   7   3  436.51   16.93
   6  -7  -3  432.48   16.50
  -6   7   3  452.44   17.51
   6  -7  -2   31.85    4.13
   6  -7  -2   29.37    4.34
  -6   7   2   29.89    4.44
   6  -7  -2   39.80    4.48
   6  -7  -1  575.14   17.03
   6  -7  -1  575.39   20.11
  -6   7   1  568.44   20.76
  -6   7   1  546.52   19.40
   6  -7   0    2.61    1.89
  -6   7   0    1.82    1.98
  -6   7   0   -0.25    2.20
   6  -7   0    3.19    2.44
  -6   7   0    2.38    2.70
  -6   7   0   -1.65    4.74
   6  -7   1  355.04   14.13
  -6   7  -1  349.84   10.91
  -6   7  -1  351.57   13.71
  -6   7  -1  351.14   15.59
  -6   7  -1  339.01   13.36
  -6   7  -2   13.95    2.87
  -6   7  -2   12.12    2.09
  -6   7  -2   13.40    3.20
   6  -7   2   13.21    2.99
  -6   7  -2   13.84    5.34
  -6   7  -3  502.29   14.48
   6  -7   3  542.14   18.16
  -6   7  -3  519.84   17.52
  -6   7  -3  512.20   17.21
  -6   7  -4    5.73    2.39
  -6   7  -4    3.08    1.92
  -6   7  -4    4.56    2.63
   6  -7   4    7.85    2.57
  -6   7  -5  602.05   17.21
   6  -7   5  581.97   19.07
  -6   7  -5  571.24   18.45
  -6   7  -5  556.31   15.61
  -6   7  -5  567.87   18.25
  -6   7  -6   -1.64    3.17
  -6   7  -6    3.76    2.06
  -6   7  -6    2.44    1.15
  -6   7  -7  112.37    5.88
  -6   7  -7  105.54    5.59
  -6   7  -7   97.72    4.43
  -6   7  -8    5.32    1.94
  -6   7  -8    6.39    4.41
  -6   7  -9  107.16    9.38
   6  -6  -6   48.43    6.65
  -6   6   6   48.42    5.37
   6  -6  -6   51.92    5.73
  -6   6   5    1.34    3.48
   6  -6  -5    6.79    4.67
  -6   6   5    5.43    3.26
  -6   6   5    5.85    2.54
   6  -6  -5    3.45    2.69
   6  -6  -4  195.56   10.04
  -6   6   4  208.37   10.43
   6  -6  -4  208.82   10.05
  -6   6   4  183.04   10.07
   6  -6  -3   15.98    4.08
  -6   6   3   22.92    3.57
   6  -6  -3   26.35    4.11
  -6   6   3   24.15    4.15
  -6   6   3   23.93    4.73
   6  -6  -3   26.07    3.61
   6  -6  -2  129.86    7.12
   6  -6  -2  133.11    8.16
  -6   6   2  116.18    6.68
  -6   6   2  135.18    8.00
  -6   6   2  129.61    8.83
   6  -6  -2  147.39    7.39
   6  -6  -1   81.21    4.76
   6  -6  -1   92.38    6.21
  -6   6   1   86.36    4.79
  -6   6   1   78.39    7.26
  -6   6   1   89.65    5.73
   6  -6   0  108.58    6.91
  -6   6   0   99.69    5.37
  -6   6   0  101.19    6.54
  -6   6   0   94.87    7.91
  -6   6   0   94.91    6.16
  -6   6  -1   28.86    3.44
  -6   6  -1   28.45    3.55
  -6   6  -1   32.34    3.95
   6  -6   1   28.11    3.61
  -6   6  -2  185.33    7.69
   6  -6   2  183.68    8.84
  -6   6  -2  184.27    8.82
  -6   6  -2  192.13    8.46
  -6   6  -3    2.06    3.01
  -6   6  -3    0.19    1.79
  -6   6  -3    1.03    2.21
   6  -6   3    3.53    2.29
  -6   6  -4   34.87    4.35
  -6   6  -4   32.43    3.70
   6  -6   4   33.22    3.59
  -6   6  -4   39.45    3.54
  -6   6  -5   25.16    3.59
  -6   6  -5   24.06    2.84
  -6   6  -5   24.73    3.23
   6  -6   5   24.69    3.11
  -6   6  -5   19.26    1.29
  -6   6  -6   -0.38    3.71
  -6   6  -6   -0.47    1.64
  -6   6  -6   -1.35    2.25
  -6   6  -6    1.01    0.77
  -6   6  -7   -0.24    1.12
  -6   6  -7    2.82    1.67
  -6   6  -7    4.42    3.90
  -6   6  -8   26.08    2.73
  -6   6  -8   26.98    5.38
  -6   6  -8   27.98    4.24
  -6   6  -9   13.88    4.55
  -6   6  -9   22.73    3.98
  -6   6  -9   16.97    3.76
   6  -5  -6  113.98    8.50
  -6   5   6  111.43    7.59
  -6   5   6  117.41    6.96
   6  -5  -6  112.95    7.83
  -6   5   6  119.58    7.40
  -6   5   5   40.24    4.83
   6  -5  -5   32.30    5.35
  -6   5   5   36.34    4.54
  -6   5   5   32.16    4.54
  -6   5   5   34.72    4.09
   6  -5  -5   40.13    4.61
   6  -5  -4  264.63   11.96
  -6   5   4  281.55   11.75
  -6   5   4  258.07   11.90
  -6   5   4  259.36   11.03
   6  -5  -4  285.41   11.69
  -6   5   4  284.06   12.14
   6  -5  -3  201.92   10.21
  -6   5   3  203.42    9.15
  -6   5   3  210.49   10.01
  -6   5   3  195.48   10.30
   6  -5  -3  192.94    8.81
   6  -5  -2  172.28    8.14
   6  -5  -2  163.45    6.98
  -6   5   2  157.81    6.66
  -6   5   2  160.79    8.68
   6  -5  -1   49.38    4.22
   6  -5  -1   53.20    4.88
  -6   5   1   41.47    4.41
  -6   5   1   48.98    5.90
   6  -5   0  133.55    7.50
  -6   5   0  138.21    7.04
  -6   5   0  142.18    7.75
  -6   5   0  129.25    6.99
   6  -5   1  207.01    9.28
  -6   5  -1  200.72    8.77
  -6   5  -1  199.38    9.30
  -6   5  -1  187.75    8.50
  -6   5  -2  279.69   10.96
   6  -5   2  276.52   10.88
  -6   5  -2  267.76   11.00
  -6   5  -2  264.09   10.27
  -6   5  -3  502.49   17.26
   6  -5   3  521.20   16.77
  -6   5  -3  534.29   17.08
  -6   5  -3  520.45   16.27
  -6   5  -4   53.74    4.57
  -6   5  -4   53.98    4.09
  -6   5  -5  166.58    7.43
  -6   5  -5  181.34   10.27
  -6   5  -5  181.52    7.20
  -6   5  -6    2.45    3.57
  -6   5  -6    2.43    1.50
  -6   5  -6    2.76    1.89
  -6   5  -6    0.49    2.36
  -6   5  -6    1.33    0.49
  -6   5  -7  129.15    5.58
  -6   5  -7  126.71    8.83
  -6   5  -7  127.10    7.33
  -6   5  -7  108.26    4.27
  -6   5  -7  133.26    5.38
  -6   5  -8   17.37    4.43
  -6   5  -8   13.40    3.28
  -6   5  -9  118.47    8.64
  -6   5  -9  118.73    7.37
  -6   5 -10   19.72    4.38
   6  -4  -7    3.32    4.96
  -6   4   7    0.29    2.86
   6  -4  -7   -0.34    2.65
  -6   4   6   36.51    4.35
   6  -4  -6   35.17    5.81
   6  -4  -6   30.21    4.50
  -6   4   6   28.93    4.62
  -6   4   6   38.47    4.76
  -6   4   6   36.94    4.19
   6  -4  -6   38.19    4.69
   6  -4  -5    2.22    4.08
  -6   4   5    1.57    3.40
  -6   4   5    3.62    2.94
  -6   4   5    5.64    2.55
   6  -4  -5    3.10    2.36
  -6   4   5    1.99    3.18
   6  -4  -4   14.44    4.41
  -6   4   4   10.84    3.52
   6  -4  -4   16.16    3.53
  -6   4   4   15.67    3.78
  -6   4   4   10.04    2.77
  -6   4   4   20.68    4.33
   6  -4  -4   17.87    3.09
   6  -4  -3    9.92    3.81
  -6   4   3   17.72    3.68
   6  -4  -3   12.04    3.13
  -6   4   3   12.91    2.92
  -6   4   3   16.68    4.50
   6  -4  -3    1.47    1.38
   6  -4  -2   25.61    3.67
  -6   4   2   24.90    4.31
   6  -4  -2   29.70    3.79
  -6   4   2   27.79    4.96
  -6   4   2   28.80    3.60
   6  -4  -1   80.86    5.70
  -6   4   1   89.66    6.30
  -6   4   1   85.14    5.72
   6  -4   0  269.76   10.81
  -6   4   0  260.58   10.87
   6  -4   0  252.21    8.07
  -6   4  -1   12.28    4.71
   6  -4   1   11.13    2.60
  -6   4  -2  148.19    7.80
  -6   4  -2  145.81    5.57
  -6   4  -3  173.61    8.62
  -6   4  -3  191.75    8.90
  -6   4  -3  185.31    7.39
  -6   4  -4   -2.58    3.14
  -6   4  -4    0.49    1.33
  -6   4  -4   -0.45    2.29
  -6   4  -5   56.31    5.67
  -6   4  -5   59.29    4.08
  -6   4  -5   61.43    4.94
  -6   4  -5   54.26    3.28
  -6   4  -6   20.49    1.93
  -6   4  -6   18.40    4.27
  -6   4  -6   22.11    2.61
  -6   4  -6   14.10    3.06
  -6   4  -7    1.97    3.13
  -6   4  -7    4.95    1.71
  -6   4  -7    2.87    2.34
  -6   4  -7    2.59    0.91
  -6   4  -8   13.71    2.89
  -6   4  -8   10.86    3.77
  -6   4  -9    5.37    3.81
  -6   3   8  124.37    7.93
  -6   3   8  135.13    8.33
   6  -3  -7    5.24    4.78
   6  -3  -7    2.56    2.74
  -6   3   7    2.76    3.62
  -6   3   7    3.65    2.97
   6  -3  -6  153.33    9.40
  -6   3   6  140.24    8.49
  -6   3   6  158.90    7.99
  -6   3   6  128.11    6.82
   6  -3  -5   17.84    4.71
  -6   3   5   16.88    3.82
   6  -3  -5   12.63    3.39
  -6   3   5   15.22    3.07
  -6   3   5   22.21    3.73
   6  -3  -4  615.50   21.73
  -6   3   4  697.77   21.86
  -6   3   4  714.91   21.59
  -6   3   4  612.51   21.01
   6  -3  -4  701.45   22.67
   6  -3  -3   24.12    4.41
  -6   3   3   20.14    4.64
   6  -3  -3   27.50    3.73
  -6   3   3   25.68    4.65
  -6   3   3   28.24    3.64
   6  -3  -2  674.29   20.06
  -6   3   2  698.73   21.00
   6  -3  -2  702.49   20.96
  -6   3   1   22.89    4.99
   6  -3  -1   18.71    3.01
  -6   3   1   16.41    3.28
   6  -3  -1   18.46    1.91
   6  -3   0  387.95   13.20
  -6   3   0  438.88   15.20
  -6   3   0  416.49   14.03
  -6   3  -1   71.72    6.90
  -6   3  -1   79.20    5.72
  -6   3  -2  718.27   22.42
  -6   3  -2  678.09   22.16
  -6   3  -2  694.15   21.79
  -6   3  -3   22.55    3.84
  -6   3  -3    9.79    2.82
  -6   3  -4  253.28   10.67
  -6   3  -5   37.95    4.85
  -6   3  -5   49.83    4.49
  -6   3  -6  103.06    7.25
  -6   3  -6  103.93    6.10
  -6   3  -7   25.97    2.30
  -6   3  -7   31.97    3.75
  -6   3  -7   32.18    4.63
  -6   3  -7   26.46    2.05
  -6   3  -8   41.75    5.34
  -6   3  -8   36.43    4.06
  -6   3  -9   21.09    4.45
  -6   2   9    8.39    3.45
   6  -2  -8   44.35    6.56
   6  -2  -8   39.63    5.35
  -6   2   8   35.53    5.40
  -6   2   8   38.20    4.78
   6  -2  -7   28.25    5.67
  -6   2   7   40.14    5.57
  -6   2   7   30.13    4.25
   6  -2  -6   18.94    5.13
  -6   2   6   18.55    4.24
  -6   2   5   59.73    5.83
   6  -2  -5   54.10    6.19
  -6   2   5   40.62    4.46
   6  -2  -5   58.47    5.44
   6  -2  -4   88.97    6.94
  -6   2   4   87.21    7.00
  -6   2   4   97.46    6.26
   6  -2  -4   97.61    6.56
   6  -2  -3    6.81    3.28
  -6   2   3    6.74    4.22
   6  -2  -3    7.59    2.66
  -6   2   3    8.74    2.73
   6  -2  -2  100.15    6.28
  -6   2   2  113.54    7.90
  -6   2   2   97.11    6.26
   6  -2  -2  106.66    6.29
  -6   2   1   33.12    5.71
  -6   2   1   35.30    3.73
  -6   2   1   34.63    3.92
   6  -2  -1   37.93    3.64
  -6   2   0    1.00    2.49
  -6   2   0    5.74    4.78
  -6   2  -1    3.24    2.84
  -6   2  -1    3.06    4.53
  -6   2  -1    7.59    2.66
  -6   2  -2   33.11    4.62
  -6   2  -2   34.13    3.89
  -6   2  -2   32.06    4.13
   6  -2   3  164.46    5.97
  -6   2  -3  163.52    8.73
  -6   2  -3  160.67    8.01
  -6   2  -4    4.36    2.41
   6  -2   4    3.84    0.87
  -6   2  -5    9.45    2.78
  -6   2  -5   12.41    3.55
  -6   2  -6   -0.92    3.07
  -6   2  -6    0.22    2.01
  -6   2  -6   -1.57    1.04
  -6   2  -7    3.55    3.13
  -6   2  -7    2.67    1.61
  -6   2  -7    5.40    1.48
  -6   2  -8    4.89    3.19
  -6   1   9    9.87    3.38
   6  -1  -8   17.13    5.55
   6  -1  -8   17.20    3.74
  -6   1   8   15.20    4.67
  -6   1   8   15.38    3.62
   6  -1  -7   80.93    7.53
  -6   1   7   61.87    6.26
  -6   1   7   74.77    3.70
  -6   1   7   68.28    5.96
   6  -1  -6  145.84    9.38
  -6   1   6  150.58    8.89
  -6   1   6  142.16    5.91
  -6   1   6  141.56    8.17
   6  -1  -6  133.52    8.44
   6  -1  -5  142.43    8.88
  -6   1   5  143.61    8.92
  -6   1   5  132.82    6.00
   6  -1  -5  142.21    8.21
   6  -1  -4  253.20   11.43
  -6   1   4  236.52   11.80
  -6   1   4  262.26   11.01
  -6   1   4  257.49    9.38
   6  -1  -4  262.15   11.31
   6  -1  -3   35.03    4.48
  -6   1   3   42.03    5.96
  -6   1   3   36.08    3.43
  -6   1   3   39.54    4.29
   6  -1  -3   38.38    4.09
  -6   1   2  149.47    9.39
  -6   1   2  125.86    6.50
  -6   1   2  130.31    7.34
   6  -1  -2  139.11    6.96
  -6   1   1    5.93    5.54
   6  -1  -1    0.35    0.64
  -6   1   1    2.28    2.49
  -6   1   1    3.66    2.49
  -6   1   0  661.42   23.92
  -6   1   0  761.94   22.29
  -6   1  -1  148.01    8.68
  -6   1  -1  136.58    7.48
  -6   1  -1  144.29    7.61
  -6   1  -2  458.69   16.04
  -6   1  -2  453.19   15.84
  -6   1  -2  410.19   15.39
   6  -1   3    3.19    0.91
  -6   1  -3    3.35    2.54
  -6   1  -3    4.48    2.87
  -6   1  -5    2.49    1.10
  -6   1  -5    2.41    3.02
  -6   1  -5    0.81    1.72
  -6   1  -6  196.08   10.24
  -6   1  -6  196.32    7.69
  -6   1  -6  188.82    6.87
  -6   1  -7   37.83    5.04
  -6   1  -7   33.14    2.86
  -6   1  -8  108.30    8.04
  -6   0   9   10.25    3.47
   6   0  -8    7.24    4.99
  -6   0   8    7.04    4.02
  -6   0   8   -0.31    2.65
  -6   0   7   -0.97    1.26
   6   0  -7   -0.34    4.70
   6   0  -7    0.66    2.56
  -6   0   7    3.17    3.92
  -6   0   7    1.36    0.97
  -6   0   7    2.96    2.70
   6   0  -6   95.95    7.86
  -6   0   6   90.23    7.60
  -6   0   6   89.73    4.18
  -6   0   6   95.23    6.61
   6   0  -6   85.64    6.61
  -6   0   5    7.90    2.04
   6   0  -5    1.64    3.69
   6   0  -5    8.04    2.79
  -6   0   5    7.78    4.51
  -6   0   5    7.81    2.94
   6   0  -4  113.22    7.38
  -6   0   4  116.60    8.57
  -6   0   4  108.25    5.46
  -6   0   4  115.15    7.12
   6   0  -4  112.47    6.81
  -6   0   3    1.38    2.02
   6   0  -3    1.27    1.95
  -6   0   3    2.43    2.60
  -6   0   2  124.49    9.57
  -6   0   2  132.00    6.52
   6   0  -2  120.86    6.45
  -6   0   1   42.63    6.82
  -6   0   1   37.88    3.89
  -6   0   1   45.21    4.33
   6   0  -1   45.49    2.72
  -6   0   0   46.78    6.51
  -6   0   0   57.24    4.73
  -6   0   0   58.74    4.63
   6   0   0   47.95    2.45
  -6   0  -1   17.53    4.50
  -6   0  -1   30.31    3.88
  -6   0  -1   24.59    3.33
   6   0   2  249.64    7.85
  -6   0  -2  267.50   11.34
  -6   0  -2  250.24   10.14
  -6   0  -3   23.05    3.89
  -6   0  -3   25.43    3.18
  -6   0  -4   27.16    3.18
  -6   0  -5    5.52    1.68
  -6   0  -5   10.55    3.55
  -6   0  -5    6.42    2.03
  -6   0  -6   16.75    2.46
  -6   0  -6   15.09    3.94
  -6   0  -7    8.77    3.63
  -6   0  -7   11.82    2.42
  -6  -1  10    6.48    3.21
  -6  -1   9   62.02    5.83
  -6  -1   8   30.40    4.37
  -6  -1   7  218.70   10.72
  -6  -1   6   15.69    2.58
  -6  -1   6   13.94    3.38
  -6  -1   6   10.81    1.62
  -6  -1   5  199.31    7.36
  -6  -1   5  203.69   10.07
  -6  -1   4   -0.72    1.84
   6   1  -4   -0.49    2.45
  -6  -1   4    1.06    2.62
  -6  -1   3  170.82    7.43
   6   1  -3  156.41    8.47
  -6  -1   2   25.12    3.34
   6   1  -2   22.95    3.51
  -6  -1   2   28.46    3.78
  -6  -1   1  243.11   10.19
   6   1  -1  226.62    7.69
  -6  -1   0  125.35    8.48
  -6  -1   0  138.33    7.40
   6   1   0  128.27    7.45
  -6  -1   0  131.06    7.27
   6   1   0  135.42    5.31
  -6  -1  -1  219.04   10.96
  -6  -1  -1  241.54   10.62
   6   1   1  241.39   10.63
  -6  -1  -1  244.09   10.30
   6   1   1  248.35    8.05
  -6  -1  -2    1.50    2.55
   6   1   2    3.41    0.94
   6   1   2    4.07    0.92
   6   1   2    6.76    3.19
  -6  -1  -2    2.31    2.12
  -6  -1  -3   18.35    3.77
   6   1   3   14.54    3.66
  -6  -1  -3   16.95    2.83
  -6  -1  -4   22.94    2.54
  -6  -1  -4   26.41    3.10
  -6  -1  -5  113.15    7.84
   6   1   5  108.84    7.78
  -6  -1  -5  108.36    5.39
   6   1   6   40.05    5.27
  -6  -1  -6   34.98    5.17
  -6  -1  -6   45.32    3.85
  -6  -2   9    8.73    4.78
  -6  -2   9    7.88    3.28
   6   2  -8   -4.98    5.11
  -6  -2   8    2.83    4.39
  -6  -2   8   -1.55    2.82
   6   2  -7   30.91    5.31
  -6  -2   7   25.01    5.68
  -6  -2   7   29.95    4.23
   6   2  -6   21.54    4.45
  -6  -2   6   19.45    5.47
  -6  -2   6   17.71    1.89
   6   2  -6   22.15    3.77
  -6  -2   6   28.98    4.06
  -6  -2   5   44.43    3.22
  -6  -2   5   53.07    6.85
   6   2  -5   51.09    4.90
  -6  -2   5   48.07    4.97
  -6  -2   4   40.79    3.39
  -6  -2   4   46.32    7.10
   6   2  -4   49.59    4.85
  -6  -2   3   38.58    3.49
   6   2  -3   24.93    3.80
   6   2  -2   12.29    2.29
  -6  -2   2    9.92    2.98
  -6  -2   2    8.84    2.54
   6   2  -1   12.81    3.05
  -6  -2   1   11.28    2.90
  -6  -2   1   14.55    3.08
   6   2  -1   17.09    2.40
  -6  -2   0  121.22    6.95
   6   2   0  116.83    6.98
  -6  -2   0  117.95    6.93
   6   2   0  128.60    5.50
   6   2   1   16.07    3.65
   6   2   1   26.54    3.78
  -6  -2  -1   19.45    3.25
  -6  -2  -1   17.38    3.53
   6   2   1   24.98    2.60
  -6  -2  -2  161.42    8.57
   6   2   2  159.16    8.76
   6   2   2  161.28    8.36
  -6  -2  -2  162.43    7.71
   6   2   2  143.14    4.52
   6   2   3    0.75    2.52
  -6  -2  -3    0.88    3.12
   6   2   3    1.47    3.00
  -6  -2  -4   15.14    2.60
  -6  -2  -5    8.30    2.33
   6   2   5    7.73    3.65
  -6  -2  -5    4.12    3.47
   6   3  -8    9.90    4.61
  -6  -3   8    8.42    5.38
   6   3  -8   19.81    3.60
   6   3  -7   48.54    5.78
  -6  -3   7   48.10    6.74
   6   3  -7   47.98    5.07
  -6  -3   7   45.70    5.24
   6   3  -6    1.42    3.60
  -6  -3   6    9.97    1.93
  -6  -3   6   10.00    5.49
   6   3  -6    6.12    2.85
  -6  -3   6   10.89    3.31
  -6  -3   5   52.32    3.67
  -6  -3   5   54.66    7.42
   6   3  -5   51.08    5.11
  -6  -3   5   54.38    5.38
  -6  -3   4    3.34    5.80
  -6  -3   4    0.62    1.99
   6   3  -4   -1.36    2.70
  -6  -3   3  209.61   12.56
  -6  -3   3  206.11    8.82
   6   3  -3  202.00   10.06
  -6  -3   3  198.35   10.08
   6   3  -3  221.88    9.05
   6   3  -2   -0.71    2.13
  -6  -3   2   -4.42    5.93
   6   3  -2   -0.41    2.33
  -6  -3   2   -1.64    2.40
  -6  -3   2    1.08    2.47
  -6  -3   1  263.90   12.92
  -6  -3   1  231.41   10.46
   6   3  -1  246.79   10.70
   6   3  -1  239.03   11.19
  -6  -3   1  232.90   10.81
   6   3  -1  265.76    9.68
  -6  -3   0   -2.66    3.95
   6   3   0   -0.76    2.79
   6   3   0    0.81    2.59
  -6  -3   0   -0.50    2.92
  -6  -3   0    2.50    2.51
   6   3   0   -1.48    1.99
  -6  -3  -1   47.58    5.46
   6   3   1   50.56    3.11
   6   3   1   53.14    5.30
   6   3   1   44.98    4.97
  -6  -3  -1   49.76    5.34
   6   3   1   54.62    4.11
   6   3   2    2.35    3.29
   6   3   2    0.53    0.77
  -6  -3  -2   -2.09    3.42
   6   3   2   -0.27    2.38
   6   3   3   55.88    5.83
   6   3   3   52.60    5.19
  -6  -3  -3   55.08    5.87
  -6  -3  -4    1.78    2.04
   6   3   4    2.13    2.63
  -6  -3  -5   86.25    5.77
   6   4  -9   15.90    3.52
   6   4  -8   -4.26    4.20
  -6  -4   8   -3.82    5.69
   6   4  -8    2.65    2.76
   6   4  -7  130.17    8.55
  -6  -4   7  134.85   10.15
   6   4  -7  137.70    8.32
  -6  -4   6    9.39    2.49
   6   4  -6    6.44    3.12
  -6  -4   5   61.84    4.49
   6   4  -5   68.74    5.99
   6   4  -4   11.51    3.01
  -6  -4   4   18.44    6.17
  -6  -4   4   14.08    2.93
   6   4  -4    8.95    3.08
   6   4  -3   40.04    4.06
  -6  -4   3   36.65    7.28
   6   4  -3   41.83    4.17
  -6  -4   3   28.53    3.86
  -6  -4   2   14.80    5.95
   6   4  -2   15.84    3.37
  -6  -4   2   15.74    3.35
   6   4  -2   13.27    2.91
  -6  -4   1  139.62    9.56
  -6  -4   1  141.83    8.02
   6   4  -1  141.88    6.86
   6   4  -1  148.90    8.17
   6   4  -1  145.29    8.65
   6   4  -1  147.82    7.21
  -6  -4   0   34.20    5.32
  -6  -4   0   34.44    4.64
   6   4   0   30.33    3.06
   6   4   0   35.37    4.60
   6   4   0   41.38    4.75
   6   4   0   41.08    3.87
  -6  -4  -1   72.93    6.75
  -6  -4  -1   72.07    6.47
   6   4   1   87.96    4.31
   6   4   1   87.39    6.84
   6   4   1   74.39    6.22
   6   4   1   92.23    5.60
  -6  -4  -2    4.33    3.56
   6   4   2    2.91    2.68
   6   4   2    7.28    3.33
  -6  -4  -3    6.56    3.94
   6   4   3    4.11    2.85
   6   4   3    3.06    3.19
   6   4   4   15.30    3.71
   6   5  -9    9.66    3.30
  -6  -5   8   41.83    7.14
   6   5  -8   37.29    4.95
  -6  -5   7    0.39    5.54
   6   5  -7   -0.94    2.83
  -6  -5   6   10.25    3.15
  -6  -5   6   12.53    6.13
   6   5  -6   14.65    3.79
   6   5  -5   10.05    3.08
  -6  -5   5    5.66    3.11
  -6  -5   5    8.73    6.05
   6   5  -5    9.71    3.33
   6   5  -4   34.58    4.28
  -6  -5   4   29.68    4.23
  -6  -5   4   35.34    7.22
   6   5  -4   34.90    4.87
   6   5  -4   31.44    3.77
   6   5  -3   17.93    3.53
   6   5  -3   21.06    3.63
  -6  -5   3   17.55    6.08
  -6  -5   3   15.69    3.55
  -6  -5   2   20.83    6.34
  -6  -5   2   33.88    4.62
   6   5  -2   33.89    4.68
   6   5  -2   38.47    3.96
   6   5  -2   37.53    4.45
   6   5  -2   37.51    4.08
  -6  -5   1   14.98    5.05
  -6  -5   1   23.72    4.39
   6   5  -1   20.66    3.76
   6   5  -1   13.84    2.53
   6   5  -1   21.50    4.15
   6   5  -1   16.63    3.13
  -6  -5   0   -2.27    4.09
  -6  -5   0   -1.27    3.15
   6   5   0    1.20    2.92
   6   5   0    0.16    1.67
   6   5   0   -1.86    2.65
   6   5   0   -0.46    2.15
  -6  -5  -1   -0.32    3.84
  -6  -5  -1    6.56    3.69
   6   5   1    2.25    3.14
   6   5   1    2.48    2.74
   6   5   1    3.85    2.29
  -6  -5  -2    1.51    3.61
   6   5   2    0.34    3.26
   6   5   2   -0.31    2.78
   6   5   3    1.25    2.75
   6   5   4   21.90    4.16
   6   6  -8   26.51    4.62
   6   6  -7   14.85    3.89
  -6  -6   7   12.69    6.31
   6   6  -7   11.16    3.72
   6   6  -6    4.26    2.92
   6   6  -6    1.03    2.85
   6   6  -5   31.65    4.48
  -6  -6   5   43.60    4.99
  -6  -6   5   39.10    7.52
   6   6  -5   34.75    5.19
   6   6  -5   34.76    3.91
   6   6  -4   -1.73    2.73
   6   6  -4    2.28    2.48
  -6  -6   4   -1.25    3.36
  -6  -6   4    5.12    6.20
   6   6  -4    3.10    3.24
   6   6  -4    2.28    2.64
  -6  -6   3   53.09    5.81
  -6  -6   3   56.98    8.33
   6   6  -3   61.94    5.25
   6   6  -3   61.02    5.33
   6   6  -3   38.64    4.70
  -6  -6   2   16.13    4.70
  -6  -6   2    9.78    5.88
   6   6  -2   22.10    3.98
   6   6  -2   18.12    3.11
   6   6  -2   13.36    3.84
   6   6  -2   20.70    3.51
  -6  -6   1   39.94    6.37
  -6  -6   1   49.43    6.26
   6   6  -1   52.53    5.62
   6   6  -1   43.07    4.08
   6   6  -1   42.35    5.42
   6   6  -1   45.57    4.66
  -6  -6   0    4.14    4.20
  -6  -6   0    9.49    4.46
   6   6   0    6.54    3.73
   6   6   0    2.68    2.97
   6   6   0    7.10    2.77
   6   6   1    5.31    3.35
   6   6   1   10.17    3.07
   6   7  -6   12.34    3.72
  -6  -7   6   21.55    6.73
   6   7  -5   -1.96    2.96
  -6  -7   5   -3.45    6.17
   6   7  -5   -0.67    2.98
  -6  -7   4   21.13    5.09
  -6  -7   4   32.26    7.63
   6   7  -4   32.30    4.44
   6   7  -4   28.92    4.52
   6   7  -4   26.27    4.38
  -6  -7   3   -2.52    4.31
  -6  -7   3    3.48    6.02
   6   7  -3   -1.98    2.94
   6   7  -3   -0.81    2.40
   6   7  -3   -0.60    2.59
  -6  -7   2    1.70    4.71
  -6  -7   2    8.88    6.23
   6   7  -2    6.14    3.37
   6   7  -2    7.95    2.97
   6   7  -1    5.04    2.74
   6   7   0    2.72    2.52
   6   8  -4    8.76    3.24
  -7   9  -2   36.72    4.54
  -7   9  -2   34.34    4.94
   7  -9   2   34.17    4.82
   7  -9   3   93.56    7.12
  -7   9  -3   80.37    6.21
  -7   9  -4    4.69    2.59
   7  -9   4    0.33    2.38
   7  -9   5   46.39    5.36
  -7   9  -5   57.93    5.11
  -7   9  -6   -1.00    2.19
   7  -9   6    2.11    2.66
  -7   9  -7  174.66    8.71
  -7   8   2   10.30    5.06
  -7   8   1   65.37    7.89
   7  -8  -1   55.49    4.94
   7  -8   0   15.39    3.00
  -7   8   0   16.68    3.54
  -7   8   0   20.42    4.17
   7  -8   0   24.39    4.34
  -7   8   0   21.17    6.07
   7  -8   1  118.84    7.97
  -7   8  -1  113.23    7.79
  -7   8  -1  117.26    9.77
  -7   8  -1   96.00    6.92
  -7   8  -2    8.97    2.57
  -7   8  -2    5.31    3.21
   7  -8   2    7.03    2.90
  -7   8  -2    2.82    5.50
   7  -8   3  215.21   10.69
  -7   8  -3  215.33   10.48
  -7   8  -3  199.56    9.82
  -7   8  -4    6.44    2.52
  -7   8  -4    1.35    2.96
   7  -8   4    9.19    2.94
  -7   8  -5   43.62    4.25
  -7   8  -5   37.84    4.51
   7  -8   5   37.04    4.45
  -7   8  -6    6.03    2.42
   7  -8   6    2.88    2.51
  -7   8  -7   40.11    3.97
  -7   7   4   86.73    6.83
   7  -7  -4  107.28    7.33
  -7   7   4  114.19    8.48
  -7   7   3   14.93    4.96
   7  -7  -3    7.85    2.87
   7  -7  -2  135.98    7.37
   7  -7  -2  146.48    9.34
  -7   7   2  155.38    7.58
  -7   7   2  162.52   10.42
   7  -7  -2  157.43    8.25
   7  -7  -1   15.29    2.94
  -7   7   1    7.76    2.87
   7  -7  -1   12.13    3.41
  -7   7   1   12.86    5.48
   7  -7   0  237.99   11.34
  -7   7   0  223.80    8.81
  -7   7   0  226.69   11.00
  -7   7   0  216.01   12.66
  -7   7   0  212.66   10.39
   7  -7   0  198.07    8.36
  -7   7  -1   19.23    3.36
  -7   7  -1   30.80    3.43
  -7   7  -1   25.20    4.31
   7  -7   1   25.32    3.96
  -7   7  -1   20.33    5.93
  -7   7  -2  148.45    6.79
   7  -7   2  143.88    8.28
  -7   7  -2  132.39    8.02
  -7   7  -2  137.81    7.68
  -7   7  -3   -1.89    2.96
  -7   7  -3    0.46    1.96
  -7   7  -3   -1.02    2.73
   7  -7   3    2.99    2.35
  -7   7  -4   23.57    3.81
  -7   7  -4   17.07    3.01
  -7   7  -4   17.59    3.48
   7  -7   4   18.45    3.27
  -7   7  -5   19.93    3.01
  -7   7  -5   23.92    3.75
   7  -7   5   20.86    3.29
  -7   7  -6   65.34    5.79
  -7   7  -6   70.76    5.34
  -7   7  -6  102.78    9.12
  -7   7  -6   89.90    5.38
  -7   7  -7   40.34    6.80
  -7   7  -8    0.34    3.14
  -7   7  -9   16.14    4.13
  -7   6   5   22.07    4.82
   7  -6  -5    9.31    4.71
  -7   6   5   13.97    3.34
   7  -6  -5   20.21    3.82
   7  -6  -4   33.22    5.29
  -7   6   4   43.47    4.85
  -7   6   4   39.49    5.36
  -7   6   4   46.82    5.13
   7  -6  -4   50.94    4.83
  -7   6   4   44.52    6.09
   7  -6  -3   18.60    4.02
  -7   6   3   14.79    3.86
   7  -6  -3   26.22    4.44
  -7   6   3   28.05    4.88
  -7   6   3   30.31    4.22
  -7   6   3   29.00    5.52
   7  -6  -3   25.67    3.57
   7  -6  -2   10.79    3.15
  -7   6   2   15.58    3.54
   7  -6  -2   20.08    3.72
  -7   6   2    7.46    5.14
   7  -6  -2   15.08    2.83
  -7   6   1   21.34    3.60
   7  -6  -1   17.02    3.51
  -7   6   1   13.25    3.77
  -7   6   1   15.82    5.40
  -7   6   0    0.56    3.42
   7  -6   0    1.46    2.28
  -7   6   0    2.30    2.81
  -7   6   0    3.78    5.14
  -7   6  -1  229.80    9.60
   7  -6   1  214.59   10.35
  -7   6  -1  211.59   10.37
  -7   6  -1  210.87    9.78
  -7   6  -2   28.35    4.41
  -7   6  -2   31.32    3.59
  -7   6  -2   36.58    4.41
   7  -6   2   31.31    3.94
  -7   6  -3  252.85   10.71
   7  -6   3  244.53   10.58
  -7   6  -3  233.74   10.53
  -7   6  -3  244.81   10.19
  -7   6  -4   -0.22    3.94
  -7   6  -4    2.44    2.56
   7  -6   4   -1.09    1.97
  -7   6  -5   46.52    6.41
  -7   6  -5   45.50    5.13
   7  -6   5   46.97    4.19
  -7   6  -5   47.92    4.43
  -7   6  -5   45.56    3.83
  -7   6  -6    2.22    2.97
  -7   6  -6    0.16    1.58
  -7   6  -6   -1.32    2.27
  -7   6  -6    2.58    4.32
  -7   6  -6   -0.91    2.80
  -7   6  -7  222.97    8.98
  -7   6  -7  249.53   13.58
  -7   6  -7  223.99   11.19
  -7   6  -8    0.98    3.03
   7  -5  -6   57.58    7.04
  -7   5   6   59.80    6.09
   7  -5  -6   62.76    5.86
  -7   5   5    4.65    3.89
   7  -5  -5   -1.54    4.87
  -7   5   5    0.29    3.58
  -7   5   5    6.94    3.85
  -7   5   5    8.56    3.03
   7  -5  -5    2.42    2.55
   7  -5  -4  112.04    7.87
   7  -5  -4  110.93    7.75
  -7   5   4  103.18    7.15
  -7   5   4  109.92    7.96
  -7   5   4  112.12    7.22
  -7   5   4  115.16    8.00
   7  -5  -4  106.69    6.53
   7  -5  -3    5.87    3.33
  -7   5   3   12.39    3.71
   7  -5  -3    6.48    2.85
  -7   5   3    6.41    3.60
  -7   5   3    8.82    2.98
  -7   5   3    8.95    4.83
   7  -5  -3    7.78    2.36
   7  -5  -2  195.74    8.93
   7  -5  -2  203.15   10.20
  -7   5   2  217.42    9.60
  -7   5   2  238.47   10.33
  -7   5   2  221.87   11.38
  -7   5   1    5.76    3.80
   7  -5  -1    7.91    2.87
  -7   5   1    7.94    3.70
  -7   5   1    9.26    4.81
  -7   5   1    6.76    2.96
   7  -5   0  347.68   13.89
  -7   5   0  375.08   13.73
  -7   5   0  337.08   13.81
   7  -5   0  342.66   10.29
  -7   5  -1    1.97    4.00
   7  -5   1    3.70    2.33
  -7   5  -2   99.38    7.25
   7  -5   2   88.88    5.82
  -7   5  -3   26.20    4.98
  -7   5  -3   31.36    3.32
  -7   5  -3   31.63    4.97
  -7   5  -3   30.79    4.08
   7  -5   3   33.20    3.55
  -7   5  -3   23.83    3.79
  -7   5  -4  149.29    8.45
  -7   5  -4  141.98    7.40
  -7   5  -4  153.18    8.46
  -7   5  -4  157.20    6.83
  -7   5  -5    0.64    3.10
  -7   5  -5   -0.59    1.55
  -7   5  -5    4.10    3.57
  -7   5  -5    1.15    2.29
   7  -5   5   -0.81    1.27
  -7   5  -5    1.15    2.68
  -7   5  -6  179.25    7.89
  -7   5  -6  184.23   11.02
  -7   5  -6  188.80    9.80
  -7   5  -7    0.40    3.62
  -7   5  -7   -0.89    1.99
  -7   5  -7    0.30    2.70
  -7   5  -8    2.97    2.93
   7  -4  -7    1.64    2.79
   7  -4  -6  173.44   10.89
  -7   4   6  156.75    9.91
  -7   4   6  187.08   10.48
  -7   4   6  197.16    9.72
   7  -4  -6  195.48    9.89
   7  -4  -5   -2.12    4.63
  -7   4   5    0.58    3.59
   7  -4  -5    0.71    2.51
  -7   4   5    1.64    3.23
  -7   4   5    3.75    2.44
  -7   4   5    3.74    3.75
   7  -4  -5    0.99    2.35
   7  -4  -4  132.00    8.38
   7  -4  -4  116.57    7.83
  -7   4   4  124.25    7.93
  -7   4   4  121.50    7.48
  -7   4   4  130.79    8.53
   7  -4  -4  126.65    6.79
   7  -4  -3    8.49    3.48
  -7   4   3   15.23    4.42
   7  -4  -3    9.69    3.06
  -7   4   3    9.67    3.20
  -7   4   3   18.42    5.21
   7  -4  -2  121.42    7.45
  -7   4   2  120.92    7.97
  -7   4   2  110.87    7.18
  -7   4   1   38.77    5.48
   7  -4  -1   42.05    4.46
  -7   4   1   41.37    4.58
   7  -4   0  425.33   15.13
  -7   4   0  401.42   15.56
  -7   4   0  393.66   15.31
   7  -4   1   65.47    5.00
  -7   4  -1   56.53    6.31
  -7   4  -2  157.94    9.59
   7  -4   2  169.26    7.81
  -7   4  -2  156.20    8.97
  -7   4  -2  164.41    8.77
  -7   4  -3   -4.85    4.56
   7  -4   3    0.17    0.80
  -7   4  -3    1.24    3.20
  -7   4  -3   -0.27    2.58
  -7   4  -4   31.83    4.46
  -7   4  -4   30.13    4.13
  -7   4  -5   67.84    6.58
  -7   4  -5   65.72    5.61
  -7   4  -6  150.70    6.86
  -7   4  -6  145.14    9.42
  -7   4  -6  146.91    8.29
  -7   4  -7   49.48    5.01
  -7   4  -7   52.42    6.08
  -7   4  -8   54.22    5.33
  -7   3   8    0.34    2.87
  -7   3   7   70.64    7.27
  -7   3   7   77.66    7.02
   7  -3  -6   -1.68    5.11
  -7   3   6    5.69    3.88
   7  -3  -6    8.61    3.37
  -7   3   6    6.97    2.90
  -7   3   6    7.84    3.40
   7  -3  -5   15.44    4.55
  -7   3   5   22.01    4.74
   7  -3  -5   20.36    3.78
  -7   3   5   18.11    3.55
  -7   3   5   16.52    4.28
   7  -3  -4    9.26    3.81
  -7   3   4    8.05    4.45
   7  -3  -4    6.91    2.96
  -7   3   4    9.48    2.96
  -7   3   4    9.28    4.48
   7  -3  -3   89.20    6.40
  -7   3   3   86.78    7.20
  -7   3   3   95.12    6.48
   7  -3  -3   92.49    6.53
   7  -3  -2  112.55    6.90
  -7   3   2  114.19    8.26
  -7   3   2   93.52    6.53
   7  -3  -1   97.41    6.23
  -7   3   1   84.11    7.45
  -7   3   1   85.57    6.25
  -7   3   1   86.22    5.95
   7  -3  -1   89.76    3.61
   7  -3   0    5.95    2.24
  -7   3   0    4.68    2.83
  -7   3   0    7.26    2.93
  -7   3  -1    6.91    5.13
   7  -3   1    6.70    2.17
  -7   3  -1    2.33    2.77
  -7   3  -2   -1.36    2.86
  -7   3  -2   -1.70    4.51
  -7   3  -2   -1.30    2.50
  -7   3  -3   21.06    4.26
  -7   3  -3   22.24    3.60
  -7   3  -3   17.53    3.75
  -7   3  -4   27.13    4.12
  -7   3  -4   21.64    3.63
  -7   3  -5   44.63    5.45
  -7   3  -5   52.46    4.89
  -7   3  -6   11.64    3.09
  -7   3  -6   14.05    4.11
  -7   3  -7   14.42    4.11
  -7   3  -7   13.86    3.24
  -7   2   8   18.96    4.16
   7  -2  -7   29.94    5.96
  -7   2   7   42.41    6.06
  -7   2   7   38.81    5.01
   7  -2  -6   87.95    7.45
  -7   2   6   80.80    6.87
  -7   2   6   79.00    4.40
   7  -2  -6   87.88    6.63
   7  -2  -5   -0.29    3.76
  -7   2   5   -2.85    4.56
   7  -2  -5    2.18    2.71
  -7   2   5    2.88    2.25
  -7   2   5   -0.80    2.46
  -7   2   5   -1.73    3.41
   7  -2  -4  113.94    7.58
  -7   2   4  116.86    8.47
  -7   2   4  111.07    7.14
  -7   2   4  115.54    6.18
   7  -2  -4  115.63    7.39
  -7   2   3    1.36    2.28
   7  -2  -3   -0.96    3.30
  -7   2   3    3.37    4.66
   7  -2  -3    1.28    2.17
  -7   2   3    1.59    2.71
  -7   2   2  220.49   11.74
  -7   2   2  222.26    9.61
  -7   2   2  230.14   10.55
   7  -2  -2  219.36    9.88
  -7   2   1   76.36    7.54
  -7   2   1   57.06    4.86
  -7   2   1   62.33    5.44
   7  -2  -1   60.24    2.64
   7  -2  -1   80.96    5.23
   7  -2   0  263.92   10.05
  -7   2   0  244.06   12.83
  -7   2  -1   11.08    5.14
  -7   2  -1   19.43    3.62
  -7   2  -1   16.74    3.46
  -7   2  -2  173.30    9.44
  -7   2  -2  141.91    8.30
  -7   2  -2  159.44    8.41
  -7   2  -3    4.66    2.96
  -7   2  -3    1.01    3.70
  -7   2  -3    3.59    2.64
   7  -2   4  218.51    6.44
  -7   2  -4  262.15   11.01
  -7   2  -5    0.77    2.48
  -7   2  -6  179.94   10.28
  -7   2  -6  182.26    7.99
  -7   2  -7    1.40    3.10
  -7   1   8   18.83    4.10
   7  -1  -7   36.41    6.08
   7  -1  -7   36.64    4.99
  -7   1   7   28.25    5.66
  -7   1   7   37.70    4.97
   7  -1  -6   10.01    4.62
  -7   1   6   17.82    2.58
   7  -1  -6   16.97    3.52
  -7   1   6   18.55    5.39
  -7   1   6   15.03    3.61
   7  -1  -5   66.88    6.25
  -7   1   5   61.53    7.07
  -7   1   5   63.73    4.19
  -7   1   5   56.40    5.55
   7  -1  -5   64.85    5.55
   7  -1  -4    0.53    3.48
  -7   1   4    4.35    4.91
   7  -1  -4    1.05    2.25
  -7   1   4    4.26    2.31
  -7   1   3  110.45    8.93
  -7   1   3  109.86    6.15
   7  -1  -3  114.11    6.80
  -7   1   2   25.70    6.21
   7  -1  -2   19.27    3.15
  -7   1   2   19.88    3.30
  -7   1   2   12.55    3.34
  -7   1   1   65.05    7.83
  -7   1   1   59.40    4.86
  -7   1   1   65.53    5.45
   7  -1  -1   54.13    2.61
   7  -1  -1   76.01    4.86
  -7   1   0   62.53    7.36
  -7   1   0   60.85    4.91
  -7   1  -1   47.48    6.50
  -7   1  -1   40.67    4.46
  -7   1  -1   36.78    4.38
  -7   1  -2   11.31    4.18
  -7   1  -2   10.56    3.21
  -7   1  -3  132.73    7.85
  -7   1  -3  125.05    6.64
  -7   1  -5    2.71    2.13
  -7   1  -6   31.62    4.89
  -7   1  -6   30.15    3.37
  -7   0   8    2.09    3.05
   7   0  -7   50.06    6.76
   7   0  -7   54.55    5.84
  -7   0   7   54.98    6.78
  -7   0   7   66.83    6.21
   7   0  -6   -2.24    4.01
   7   0  -6    2.18    2.48
  -7   0   6   -4.75    5.29
  -7   0   6    2.45    1.71
  -7   0   6    1.27    2.65
   7   0  -5  123.14    8.27
  -7   0   5  125.91    9.61
  -7   0   5  132.02    6.04
  -7   0   5  138.08    8.31
   7   0  -5  137.42    8.06
   7   0  -4    7.93    2.86
  -7   0   4   12.86    5.39
  -7   0   4    8.15    2.30
  -7   0   4    7.23    2.93
  -7   0   3  104.82    9.00
  -7   0   3  119.86    6.23
   7   0  -3  108.81    6.53
  -7   0   2   85.01    8.69
  -7   0   2   79.61    5.25
  -7   0   2   72.69    5.84
   7   0  -2   73.98    5.10
  -7   0   1  246.11   13.67
  -7   0   1  271.33   10.62
  -7   0   1  262.41   11.09
   7   0  -1  225.10    7.71
   7   0  -1  260.91    9.82
  -7   0   0   33.47    6.33
  -7   0   0   34.60    4.13
   7   0   0   27.09    1.65
  -7   0   0   33.52    4.05
  -7   0  -1   72.24    6.91
  -7   0  -1   81.39    6.06
  -7   0  -1   79.51    5.55
  -7   0  -2    0.57    3.49
  -7   0  -2   -3.07    2.99
   7   0   2    2.77    1.19
  -7   0  -2    2.50    2.22
  -7   0  -3   83.43    6.57
  -7   0  -3   82.61    5.60
  -7   0  -4  135.37    8.40
  -7   0  -4  133.23    7.06
  -7   0  -5   74.26    4.92
  -7  -1   8    1.03    2.70
   7   1  -7    5.17    4.30
   7   1  -7    9.08    3.12
  -7  -1   7    6.68    3.16
   7   1  -6    8.50    4.18
  -7  -1   6    8.25    3.46
  -7  -1   6   14.69    2.11
  -7  -1   5    3.19    1.96
   7   1  -5   -4.94    4.30
  -7  -1   5    0.94    2.74
  -7  -1   4    4.45    2.15
  -7  -1   4   10.20    5.78
  -7  -1   4    5.71    3.02
  -7  -1   3    5.89    5.90
  -7  -1   3    2.05    2.06
   7   1  -2    4.76    1.74
  -7  -1   2    9.89    5.93
  -7  -1   2    4.92    2.41
  -7  -1   2    4.43    2.60
  -7  -1   1   12.19    5.81
  -7  -1   1   13.61    3.03
   7   1  -1   10.30    2.16
  -7  -1   1   13.88    3.32
   7   1  -1    9.10    1.80
  -7  -1   0   24.77    3.71
  -7  -1   0   22.53    5.74
  -7  -1   0   30.94    4.00
   7   1   0   27.17    2.24
  -7  -1  -1    3.34    2.70
  -7  -1  -1   -1.54    3.89
  -7  -1  -1    0.50    2.31
  -7  -1  -2   -1.94    2.84
  -7  -1  -2    1.76    3.55
   7   1   2    2.41    0.92
   7   1   2    1.06    0.82
  -7  -1  -2    6.39    2.54
  -7  -1  -3   11.22    2.79
  -7  -1  -3   14.63    3.75
  -7  -1  -4    6.10    2.44
  -7  -1  -4    9.35    3.65
  -7  -2   8    4.58    3.17
  -7  -2   7   22.05    6.51
  -7  -2   7   17.05    4.15
  -7  -2   6    0.44    1.64
  -7  -2   6    1.97    2.76
  -7  -2   5   74.06    4.57
   7   2  -5   93.89    6.76
  -7  -2   5   87.95    6.86
   7   2  -4   30.50    4.32
  -7  -2   4   25.34    3.17
  -7  -2   3  157.40    7.53
   7   2  -3  166.79    9.32
  -7  -2   3  167.40    9.16
   7   2  -3  159.41    7.21
   7   2  -2   27.55    3.05
  -7  -2   2   34.36    4.60
  -7  -2   2   27.94    3.71
  -7  -2   1  107.71    6.71
   7   2  -1  118.73    7.67
  -7  -2   1  111.15    7.22
   7   2  -1  112.49    5.33
   7   2   0    0.57    2.66
  -7  -2   0    1.60    2.40
  -7  -2   0   -0.51    2.65
   7   2   0   -0.77    1.56
  -7  -2  -1   65.15    5.75
   7   2   1   71.98    3.74
   7   2   1   71.62    6.03
  -7  -2  -1   69.14    5.59
   7   2   2   14.66    3.93
   7   2   2    6.21    0.89
   7   2   2    5.65    0.83
   7   2   2   18.14    3.87
  -7  -2  -2   12.70    3.16
  -7  -2  -2   14.80    3.83
  -7  -2  -3  162.93    9.64
   7   2   3  162.43    9.64
   7   2   4   27.67    5.09
  -7  -2  -4   22.99    4.78
  -7  -3   7   11.03    6.09
   7   3  -7    9.72    3.59
  -7  -3   7    4.95    3.35
  -7  -3   6   15.65    6.37
   7   3  -6   19.75    4.10
  -7  -3   6   20.29    4.29
  -7  -3   5   13.79    6.41
  -7  -3   5    8.35    2.45
   7   3  -5   10.34    3.34
  -7  -3   5   11.64    3.71
   7   3  -4    7.57    2.67
  -7  -3   4   10.30    6.09
  -7  -3   4    5.80    2.53
   7   3  -4    7.54    3.19
  -7  -3   3   43.50    4.42
   7   3  -3   33.71    4.84
  -7  -3   3   49.47    5.43
   7   3  -3   46.86    4.12
  -7  -3   2    2.51    5.74
  -7  -3   2    0.24    2.78
  -7  -3   2    1.52    2.75
   7   3  -2   -0.73    2.04
  -7  -3   1    5.85    5.51
   7   3  -1    9.71    3.42
  -7  -3   1   12.19    3.35
  -7  -3   1   12.70    3.53
   7   3  -1   16.26    2.51
  -7  -3   0   -2.45    4.27
   7   3   0    4.46    3.09
   7   3   0    2.49    3.02
   7   3   0    0.43    1.53
  -7  -3   0   -0.85    3.00
  -7  -3   0    1.42    2.57
   7   3   0    0.16    1.67
  -7  -3  -1    0.99    3.96
   7   3   1    4.12    1.50
  -7  -3  -1    7.66    3.50
   7   3   1    1.54    2.69
   7   3   1    4.87    3.37
  -7  -3  -2   -2.27    3.91
   7   3   2    0.99    3.08
  -7  -3  -2    1.65    3.18
   7   3   2    0.61    2.62
   7   3   3   12.29    4.05
   7   3   3    4.19    3.17
   7   4  -8    3.85    3.08
   7   4  -7    0.99    3.11
  -7  -4   6   54.74    8.31
   7   4  -6   45.69    5.55
  -7  -4   5   55.44    4.66
  -7  -4   5   60.07    8.57
   7   4  -5   56.61    6.08
   7   4  -5   70.38    5.51
   7   4  -4   12.40    2.87
  -7  -4   4   15.54    6.44
  -7  -4   4    5.59    2.83
   7   4  -4   16.74    3.90
   7   4  -3   13.66    2.94
  -7  -4   3   13.69    6.42
  -7  -4   3   13.65    3.41
  -7  -4   2    8.51    5.79
  -7  -4   2    3.91    2.98
   7   4  -2   10.67    3.72
   7   4  -2   10.13    3.26
   7   4  -2   10.61    2.51
  -7  -4   1    9.91    5.54
  -7  -4   1    7.95    3.28
   7   4  -1    9.33    3.37
   7   4  -1    7.99    3.29
   7   4  -1   10.51    2.37
   7   4  -1   10.94    2.53
  -7  -4   0   39.82    6.26
  -7  -4   0   43.61    5.48
   7   4   0   52.22    5.69
   7   4   0   55.18    4.24
   7   4   0   42.78    5.39
  -7  -4  -1   27.32    5.27
  -7  -4  -1   26.29    4.80
   7   4   1   20.00    4.27
   7   4   1   24.46    4.67
   7   4   2   22.03    4.29
   7   4   3   31.02    4.72
   7   5  -6    1.45    2.71
   7   5  -5   -0.55    2.65
  -7  -5   5    5.41    6.47
   7   5  -5    0.36    2.99
   7   5  -4   29.68    4.12
  -7  -5   4   35.22    4.59
   7   5  -4   22.90    4.54
  -7  -5   3    3.60    6.20
   7   5  -3    3.79    3.02
  -7  -5   3    2.50    3.12
   7   5  -3    1.53    2.32
   7   5  -2    6.86    3.44
  -7  -5   2   -3.48    5.94
  -7  -5   2    4.19    3.51
   7   5  -2    4.99    3.10
   7   5  -2    2.02    2.21
   7   5  -2    6.47    2.46
  -7  -5   1   -1.22    5.62
  -7  -5   1    6.50    3.69
   7   5  -1    2.82    3.16
   7   5  -1    3.56    3.23
   7   5  -1    3.44    2.29
  -7  -5   0    1.06    3.47
   7   5   0    1.69    3.37
   7   5   0    0.68    2.12
   7   6  -6   11.32    3.69
   7   6  -5   13.00    3.50
   7   6  -4   30.17    4.41
   7   6  -4   29.72    4.29
   7   6  -4   29.25    4.41
  -7  -6   3   -1.90    4.32
   7   6  -3    0.26    2.46
   7   6  -3    0.57    2.96
   7   6  -3    2.69    2.70
  -7  -6   2    3.46    4.59
   7   6  -2   10.69    3.68
   7   6  -2   10.18    2.93
   8  -9   4   60.16    6.09
  -8   9  -5    8.71    2.65
   8  -9   5    6.18    3.12
   8  -8   1    2.82    2.81
  -8   8  -2   47.80    5.06
  -8   8  -2   44.29    5.51
   8  -8   2   45.62    5.32
  -8   8  -3   21.00    3.79
  -8   8  -3   21.77    4.26
   8  -8   3   19.50    4.00
   8  -8   4   65.48    5.78
  -8   8  -4   58.72    5.98
  -8   8  -4   62.39    5.49
   8  -8   5  122.84    7.66
  -8   8  -5  117.91    7.19
  -8   7   2    7.89    5.80
   8  -7  -1    0.36    2.77
  -8   7   1   -5.77    5.75
  -8   7   0   -0.35    3.34
   8  -7   0    0.68    2.66
  -8   7   0    3.33    5.65
  -8   7  -1   25.84    4.57
   8  -7   1   23.15    3.95
  -8   7  -1   23.27    6.90
  -8   7  -2   44.55    5.30
   8  -7   2   34.59    4.48
  -8   7  -3    2.55    2.30
  -8   7  -3    1.73    2.93
   8  -7   3    4.30    2.67
  -8   7  -4   44.39    4.42
  -8   7  -4   40.45    4.88
   8  -7   4   50.97    4.89
  -8   7  -5   21.27    3.29
  -8   7  -5   16.39    3.61
   8  -7   5   18.20    3.28
  -8   7  -6    4.48    2.96
  -8   6   4  159.04    9.50
  -8   6   4  170.74   10.54
   8  -6  -3   17.64    4.03
  -8   6   3   20.75    4.45
  -8   6   3   14.75    3.79
  -8   6   3   25.06    6.09
   8  -6  -2  240.21   12.37
  -8   6   2  264.26   11.61
  -8   6   2  276.13   12.70
  -8   6   2  271.53   14.31
  -8   6   1    7.26    3.61
   8  -6  -1    7.25    2.99
  -8   6   1    4.61    3.60
  -8   6   1    6.11    5.62
  -8   6   1    2.95    2.78
   8  -6   0  186.98   10.04
  -8   6   0  176.65    9.48
  -8   6   0  185.08   10.46
  -8   6   0  200.27   10.53
  -8   6  -1    7.21    4.36
  -8   6  -1    8.86    3.60
   8  -6   1    9.29    3.09
  -8   6  -1   11.54    3.68
  -8   6  -2  139.28    8.57
  -8   6  -2  143.23    8.66
  -8   6  -3   18.54    5.13
  -8   6  -3   10.95    3.39
   8  -6   3   15.23    3.17
  -8   6  -3   18.04    4.70
  -8   6  -3   17.13    3.96
  -8   6  -4  372.90   15.13
   8  -6   4  377.58   13.86
  -8   6  -4  369.21   14.35
  -8   6  -4  383.25   15.88
  -8   6  -5    2.15    4.42
  -8   6  -5   11.46    3.20
   8  -6   5   10.29    2.58
  -8   6  -5    4.55    3.25
  -8   6  -6   35.13    5.17
  -8   6  -6   28.43    3.76
  -8   6  -6   33.70    4.98
  -8   6  -7    4.36    3.39
   8  -5  -5   41.69    5.82
  -8   5   5   42.98    5.82
  -8   5   5   38.66    5.02
   8  -5  -4    9.36    3.79
  -8   5   4   13.73    4.37
  -8   5   4    9.34    3.44
  -8   5   4    9.87    5.29
  -8   5   3   46.30    5.62
   8  -5  -3   33.23    4.72
  -8   5   3   37.41    5.76
  -8   5   3   41.23    5.05
  -8   5   3   38.77    6.68
  -8   5   2   53.19    6.07
   8  -5  -2   47.98    5.32
  -8   5   2   52.64    5.45
  -8   5   2   48.99    7.04
  -8   5   1   -2.20    4.63
   8  -5  -1    2.71    2.65
  -8   5   1    1.29    2.64
   8  -5   0   52.32    5.19
  -8   5   0   57.31    6.38
  -8   5   0   65.97    6.04
  -8   5  -1   33.42    5.81
   8  -5   1   24.27    3.68
  -8   5  -2    3.18    4.72
  -8   5  -2    1.39    3.40
   8  -5   2   -0.47    2.14
  -8   5  -2    1.31    2.99
  -8   5  -3   20.03    5.41
   8  -5   3   19.01    3.11
  -8   5  -3   14.18    3.66
  -8   5  -3   14.15    4.29
  -8   5  -4   34.24    5.74
  -8   5  -4   18.88    4.99
  -8   5  -4   29.72    4.14
   8  -5   4   35.65    3.52
  -8   5  -4   35.55    4.97
  -8   5  -5    5.80    3.82
  -8   5  -5   12.93    3.14
  -8   5  -5   10.30    3.48
  -8   5  -6   12.08    3.88
  -8   5  -6   13.29    3.01
  -8   5  -6   14.38    3.76
  -8   5  -7    9.83    3.54
  -8   5  -7   13.96    3.75
   8  -4  -5   94.74    7.60
  -8   4   5   87.54    7.53
  -8   4   5  100.71    7.38
   8  -4  -4   53.97    5.77
  -8   4   4   61.93    6.50
   8  -4  -4   59.30    6.07
  -8   4   4   51.44    5.45
  -8   4   4   48.60    6.61
   8  -4  -4   63.28    4.59
   8  -4  -3   71.24    6.05
  -8   4   3   50.42    6.30
  -8   4   3   59.20    5.59
  -8   4   3   50.20    6.77
  -8   4   2   25.71    5.50
   8  -4  -2   19.39    3.71
  -8   4   2   19.01    3.68
   8  -4  -1  114.04    7.08
  -8   4   1  115.97    8.44
  -8   4   1  113.70    7.61
  -8   4   1  115.34    7.33
  -8   4   0   29.97    4.60
  -8   4   0   36.90    6.17
   8  -4   0   42.34    4.41
  -8   4   0   32.52    4.47
   8  -4   1  105.81    6.50
  -8   4  -1  104.34    8.70
  -8   4  -1   96.07    7.29
  -8   4  -2  104.66    8.51
   8  -4   2  105.80    6.18
  -8   4  -2   95.60    7.36
  -8   4  -2   91.43    7.04
   8  -4   3   43.91    3.70
  -8   4  -3   43.84    6.17
  -8   4  -3   42.96    5.12
  -8   4  -3   50.99    5.81
  -8   4  -4   78.36    6.81
  -8   4  -4   90.41    7.59
  -8   4  -4   90.75    6.96
  -8   4  -5    3.46    3.43
  -8   4  -5    7.71    3.17
  -8   4  -6   11.87    3.82
  -8   4  -6   13.38    3.78
  -8   4  -7    3.82    2.82
   8  -3  -5   -4.60    4.31
  -8   3   5    1.04    4.17
   8  -3  -5   -0.35    2.75
  -8   3   5    0.85    2.52
  -8   3   5    1.81    2.71
  -8   3   5    0.83    4.45
   8  -3  -4    1.69    3.56
  -8   3   4   -0.34    5.15
   8  -3  -4    5.41    2.86
  -8   3   4    3.68    2.82
  -8   3   4    8.38    2.94
  -8   3   4    4.93    4.58
   8  -3  -4    5.99    2.05
  -8   3   3   45.22    6.53
   8  -3  -3   49.07    5.12
  -8   3   3   54.75    5.10
  -8   3   3   51.80    5.36
  -8   3   2   15.47    5.28
   8  -3  -2   17.52    3.48
  -8   3   2   15.22    3.63
  -8   3   2   12.37    3.35
  -8   3   1   13.30    5.36
   8  -3  -1    9.80    2.88
  -8   3   1    9.02    3.25
  -8   3   1    9.18    3.09
  -8   3   0   20.73    3.86
  -8   3   0   31.82    6.22
   8  -3   0   24.78    3.51
  -8   3   0   28.08    4.34
  -8   3  -1   20.47    6.02
   8  -3   1   12.23    2.73
  -8   3  -1   13.55    3.63
  -8   3  -2   18.51    5.54
  -8   3  -2   23.40    4.32
  -8   3  -2   23.57    4.08
  -8   3  -3   -4.87    4.78
  -8   3  -3    5.08    3.26
  -8   3  -3    3.25    2.82
  -8   3  -4   52.40    5.82
  -8   3  -4   42.62    5.35
  -8   3  -4   53.41    5.46
  -8   3  -5    2.22    3.61
  -8   3  -5    3.05    2.78
  -8   3  -6    6.81    2.99
  -8   2   6   24.92    5.65
  -8   2   6   16.48    3.98
   8  -2  -5  186.03   10.45
  -8   2   5  183.77   11.47
  -8   2   5  192.23    8.35
  -8   2   5  165.02    9.68
   8  -2  -5  190.11   10.31
  -8   2   4   14.71    5.63
   8  -2  -4   11.64    3.12
  -8   2   4   15.55    3.12
  -8   2   3  169.77   11.16
  -8   2   3  174.54    8.43
  -8   2   3  168.77    9.36
   8  -2  -3  182.09    9.27
   8  -2  -2   -0.50    2.05
  -8   2   2    5.67    3.08
  -8   2   2    0.70    2.62
  -8   2   1   94.54    8.82
  -8   2   1   87.41    6.18
  -8   2   1   73.02    6.40
   8  -2  -1   98.18    6.14
  -8   2   0    2.99    5.64
  -8   2   0    4.72    2.94
   8  -2   0    1.87    1.98
   8  -2   1  147.31    6.92
  -8   2  -1  155.84   10.61
  -8   2  -1  146.64    8.44
  -8   2  -1  131.02    8.26
  -8   2  -2   18.31    5.60
  -8   2  -2   21.34    3.95
  -8   2  -2   16.89    3.84
  -8   2  -3  180.42   10.19
  -8   2  -3  171.93    9.51
  -8   2  -3  166.22    9.12
  -8   2  -4    3.22    3.65
  -8   2  -4    8.72    3.57
  -8   2  -5    4.26    2.28
   8  -1  -6    1.35    2.72
  -8   1   6   -1.61    5.78
  -8   1   6    3.81    3.32
   8  -1  -5   42.26    5.58
  -8   1   5   46.42    7.45
   8  -1  -5   44.83    5.13
  -8   1   5   49.99    4.09
  -8   1   5   40.34    5.70
  -8   1   5   43.60    5.16
  -8   1   4    2.86    2.20
  -8   1   4   12.64    6.04
   8  -1  -4    5.07    2.65
  -8   1   4    6.95    3.23
  -8   1   3   55.07    7.78
  -8   1   3   48.52    4.40
   8  -1  -3   48.50    4.75
  -8   1   2   -0.44    2.40
   8  -1  -2    0.26    1.15
   8  -1  -2   -0.47    2.11
  -8   1   1   27.35    7.17
   8  -1  -1   28.34    3.49
  -8   1   1   23.83    3.83
  -8   1   0    4.69    5.51
   8  -1   0   -2.04    1.99
  -8   1   0    1.00    2.52
  -8   1  -1   11.49    5.64
   8  -1   1    9.63    2.02
  -8   1  -1   12.87    3.43
  -8   1  -1    7.24    2.77
  -8   1  -2   58.92    6.61
  -8   1  -2   58.78    5.63
  -8   1  -2   58.14    5.05
  -8   1  -3    2.49    3.72
  -8   1  -3    2.52    3.12
  -8   1  -3    1.21    2.07
  -8   1  -4   19.01    4.43
  -8   1  -4   25.11    4.42
  -8   1  -4   22.99    3.55
  -8   1  -5    4.04    2.38
   8   0  -6   44.94    5.38
  -8   0   6   52.93    8.03
  -8   0   6   60.06    6.20
   8   0  -5   22.43    3.86
  -8   0   5   19.93    6.59
  -8   0   5   25.77    3.30
  -8   0   5   24.64    4.34
  -8   0   4   10.50    6.35
   8   0  -4    6.52    2.66
  -8   0   4    9.58    2.65
  -8   0   4    9.04    3.30
   8   0  -3   11.21    2.85
  -8   0   3   14.22    3.01
   8   0  -2    3.04    1.45
  -8   0   2    9.34    6.51
   8   0  -2    2.39    2.11
  -8   0   2    1.37    2.38
  -8   0   2    3.25    2.77
  -8   0   1  107.11    9.94
  -8   0   1  111.27    6.83
  -8   0   1  116.06    7.25
   8   0  -1  118.44    6.16
  -8   0   0   20.40    6.38
   8   0   0   24.98    2.89
  -8   0   0   24.74    3.99
  -8   0   0   31.49    4.20
  -8   0  -1   95.70    8.63
  -8   0  -1   79.81    6.42
  -8   0  -1   93.19    6.43
  -8   0  -2    3.36    4.23
  -8   0  -2    4.99    3.07
  -8   0  -2    5.95    2.68
  -8   0  -3    3.40    2.93
  -8   0  -3   -2.92    4.26
  -8   0  -3   -0.25    2.41
  -8   0  -4   -0.24    2.27
   8   1  -6   12.92    3.67
   8   1  -5   34.17    4.44
  -8  -1   5   39.58    7.67
  -8  -1   5   18.92    4.11
  -8  -1   4    6.88    2.42
  -8  -1   4    7.45    6.37
   8   1  -4    8.55    2.98
   8   1  -3   28.03    2.94
  -8  -1   3   23.47    3.45
  -8  -1   3   24.93    7.13
   8   1  -3   32.13    3.84
  -8  -1   3   27.58    4.44
   8   1  -2   -0.25    1.51
  -8  -1   2    1.36    2.37
  -8  -1   2   -0.44    6.03
   8   1  -2    2.12    2.08
  -8  -1   2   -2.47    3.04
  -8  -1   1   12.95    3.12
  -8  -1   1   13.73    6.24
   8   1  -1   21.92    2.92
  -8  -1   1   16.14    3.67
   8   1  -1   12.57    1.79
  -8  -1   0    2.04    5.59
   8   1   0   -0.31    0.63
  -8  -1   0    9.30    3.17
  -8  -1  -1   49.84    5.24
  -8  -1  -1   42.46    6.25
  -8  -1  -1   47.77    4.99
  -8  -1  -2   24.22    5.30
  -8  -1  -2   34.35    4.27
  -8  -1  -2   31.47    4.63
  -8  -1  -3   11.21    4.37
  -8  -1  -3   17.55    3.39
  -8  -1  -3   17.24    4.01
  -8  -2   5    1.05    2.76
   8   2  -4   20.84    3.09
  -8  -2   4   19.26    3.25
   8   2  -3    3.41    2.10
  -8  -2   3    4.90    3.15
  -8  -2   3    1.99    2.40
   8   2  -2   27.70    3.50
  -8  -2   2   25.53    4.14
  -8  -2   2   28.19    4.02
   8   2  -2   19.67    2.68
   8   2  -1   15.76    2.66
  -8  -2   1   14.98    3.53
  -8  -2   1   16.48    3.58
  -8  -2   0   29.12    4.31
  -8  -2   0   20.12    3.86
  -8  -2  -1    2.31    2.58
  -8  -2  -1   -0.61    2.89
  -8  -2  -2    5.59    3.48
  -8  -2  -2    5.57    2.88
   8   3  -5   10.60    3.05
   8   3  -5   10.92    3.77
   8   3  -4    8.10    2.59
  -8  -3   4    9.01    6.71
  -8  -3   4    8.62    2.94
   8   3  -4   11.33    4.02
   8   3  -3    2.16    2.15
  -8  -3   3    3.32    6.26
  -8  -3   3    2.40    2.80
   8   3  -3    5.51    3.32
  -8  -3   3    5.17    2.98
  -8  -3   2   18.45    7.00
  -8  -3   2   12.67    3.46
  -8  -3   2   10.39    3.56
  -8  -3   1    5.31    6.14
  -8  -3   1   14.07    3.85
   8   3  -1   14.37    3.88
  -8  -3   1   13.00    3.39
  -8  -3   0    6.99    5.25
  -8  -3   0    6.81    3.61
   8   3   0    9.49    3.65
  -8  -4   3    1.08    2.98
  -8  -4   2   20.72    4.28
  -8  -4   1    0.63    3.38
  -8  -5   2   24.50    4.87
   9  -8   3    6.58    3.05
   9  -7   1    9.59    3.39
   9  -7   2  100.36    7.43
   9  -7   3    8.52    3.15
  -9   7  -4   39.51    5.09
  -9   6   1   39.38    7.88
  -9   6   0    4.42    4.73
   9  -6   0    3.91    2.82
   9  -6   1   75.35    6.41
  -9   6  -1   77.85    7.53
  -9   6  -2    2.00    3.28
   9  -6   2   -1.40    2.43
  -9   6  -3    9.58    3.52
   9  -6   3    9.50    2.87
  -9   6  -4   -1.99    3.20
  -9   5   3   13.73    4.67
  -9   5   3   10.62    5.92
  -9   5   2    2.99    5.08
  -9   5   2    4.14    3.45
   9  -5  -2    3.35    2.82
  -9   5   2    2.40    5.57
  -9   5   1    3.28    5.12
   9  -5  -1    6.96    2.91
  -9   5   1   14.02    4.15
  -9   5   0   61.84    7.32
   9  -5   0   52.72    5.45
  -9   5   0   45.76    5.78
  -9   5  -1   34.87    6.52
   9  -5   1   46.11    4.86
  -9   5  -1   39.79    5.75
  -9   5  -2  118.23    9.28
   9  -5   2  118.38    7.03
  -9   5  -2   95.62    8.42
  -9   5  -3   16.75    5.88
  -9   5  -4    9.27    5.21
  -9   5  -4    7.63    3.42
  -9   5  -5   -5.12    5.27
  -9   4   4    7.37    4.74
  -9   4   3   32.82    4.71
  -9   4   3   26.85    6.23
   9  -4  -3   30.09    4.66
  -9   4   3   32.32    6.78
  -9   4   2   -2.90    5.58
   9  -4  -2   -1.55    2.76
  -9   4   2   -2.13    3.38
   9  -4  -1   58.65    5.46
  -9   4   1   53.02    7.50
  -9   4   1   54.45    5.84
  -9   4   1   52.42    5.80
  -9   4   0   -0.33    3.31
  -9   4   0    4.24    5.41
   9  -4   0    4.03    2.86
  -9   4   0    1.38    2.94
  -9   4  -1   25.29    6.50
   9  -4   1   15.26    3.14
  -9   4  -1   19.49    4.46
  -9   4  -2    8.30    5.63
   9  -4   2    0.43    2.08
  -9   4  -2    2.78    2.92
  -9   4  -2    0.36    3.49
  -9   4  -3   11.35    5.48
  -9   4  -4   -0.34    5.02
  -9   4  -5   49.18    6.21
  -9   4  -6    3.09    3.88
  -9   3   4   -0.40    5.90
  -9   3   3   42.67    7.40
   9  -3  -3   42.46    5.01
  -9   3   3   51.87    5.79
  -9   3   3   40.04    4.68
  -9   3   2   31.74    6.85
   9  -3  -2   38.03    4.64
  -9   3   2   34.56    5.06
  -9   3   2   37.04    4.71
   9  -3  -1  109.16    6.90
  -9   3   1   98.83    9.25
  -9   3   1   98.79    7.19
  -9   3   1   93.44    7.51
  -9   3   0   15.98    6.41
   9  -3   0   20.03    3.36
  -9   3   0   14.99    3.89
   9  -3   1   61.64    4.86
  -9   3  -1   65.17    8.11
  -9   3  -1   49.83    5.75
  -9   3  -1   53.47    5.88
  -9   3  -2    5.26    3.34
  -9   3  -2    1.90    5.44
  -9   3  -2    0.34    3.01
  -9   3  -3    9.19    5.34
  -9   3  -3   20.38    4.08
  -9   3  -4   13.17    4.96
  -9   3  -5   21.83    5.07
  -9   2   4   31.12    7.26
   9  -2  -4   23.10    4.11
  -9   2   3   14.39    3.46
  -9   2   3   24.00    7.04
   9  -2  -3   18.93    3.58
  -9   2   2    8.51    3.02
  -9   2   2    9.55    6.45
   9  -2  -2    9.54    2.90
  -9   2   1   -0.27    2.95
  -9   2   1    4.17    5.93
   9  -2  -1   -0.98    2.30
  -9   2   0    2.08    5.87
   9  -2   0    0.66    2.12
  -9   2   0   -1.14    3.08
  -9   2  -1    1.22    5.51
   9  -2   1    2.28    1.94
  -9   2  -1   -1.79    3.14
  -9   2  -2    3.53    5.16
  -9   2  -2   -0.63    2.92
  -9   2  -3   -3.99    5.06
  -9   2  -3    1.37    2.56
  -9   2  -4   14.85    4.82
  -9   2  -4   14.07    3.26
   9  -1  -4   -1.49    2.70
  -9   1   3   49.14    8.21
   9  -1  -3   38.41    4.52
  -9   1   3   34.13    4.16
   9  -1  -2   29.88    3.94
  -9   1   2   31.63    4.16
  -9   1   2   34.88    4.76
  -9   1   1   52.20    8.36
  -9   1   1   43.32    4.88
  -9   1   1   37.60    4.81
   9  -1  -1   46.18    4.34
   9  -1   0   20.18    3.03
  -9   1   0   10.68    3.37
  -9   1   0   11.41    3.33
  -9   1  -1   47.58    5.35
  -9   1  -1   44.77    4.87
  -9   1  -2    0.79    5.35
  -9   1  -2    6.52    3.45
  -9   1  -2   11.55    3.16
  -9   1  -3   33.84    5.96
  -9   1  -3   35.38    4.37
  -9   1  -4    0.27    2.46
   9   0  -4   12.27    3.24
  -9   0   3   -3.25    6.38
  -9   0   3   -4.01    3.02
   9   0  -3    2.86    2.36
  -9   0   2    4.19    6.61
  -9   0   2    2.55    2.77
   9   0  -2    4.23    2.39
  -9   0   2    3.28    3.02
  -9   0   1   24.70    7.17
  -9   0   1   20.69    3.95
   9   0  -1   13.73    2.75
  -9   0   1   16.48    3.78
  -9   0   0    0.89    5.98
  -9   0   0    0.57    2.67
  -9   0   0    2.46    2.74
  -9   0  -1    1.79    3.07
  -9   0  -1   -4.74    6.31
  -9   0  -1    0.30    2.60
  -9   0  -2    7.00    3.04
  -9   0  -3    8.54    3.03
   9   1  -4   17.45    3.47
  -9  -1   3   37.24    4.26
   9   1  -3   45.25    4.60
  -9  -1   2   53.55    5.09
   9   1  -2   51.40    4.55
  -9  -1   1    6.96    2.99
  -9  -1   0   13.41    3.52
  -9  -1   0   14.05    3.63
  -9  -1  -1    1.51    2.60
  -9  -1  -2   25.50    4.01
   9   2  -4   -1.68    2.58
   9   2  -3   -2.00    2.38
  -9  -2   2   17.35    3.76
  -9  -2   1    4.02    3.22
  -9  -3   2   12.66    3.75
  10  -5   0    1.53    2.73
  10  -4  -1   17.67    3.57
 -10   4   0   -0.79    5.75
 -10   4  -1   11.03    6.01
 -10   4  -2   -0.39    5.80
 -10   3   2   22.01    4.23
  10  -3  -2   21.11    3.77
  10  -3  -1    0.82    2.20
  10  -2  -2    0.56    2.34
 -10   2   2    1.68    2.75
  10  -1  -3    1.42    2.52
 -10   1   2    4.21    2.90
   0   0   0    0.00    0.00




TITL 20200922zhaohl2 in P-1
REM P-1 (#2 in standard setting)
CELL 0.71073   7.375755   8.736057   9.290607 112.8773  90.0538 102.5684
ZERR    2.00   0.000324   0.000380   0.000409   0.0042   0.0036   0.0037
LATT  1
SFAC C H N O
UNIT 22.00 20.00 2.00 2.00
TREF
HKLF 4
END

;
loop_
_space_group_symop_operation_xyz
'x, y, z'
'-x, -y, -z'
loop_
_atom_site_label
_atom_site_type_symbol
_atom_site_fract_x
_atom_site_fract_y
_atom_site_fract_z
_atom_site_U_iso_or_equiv
_atom_site_adp_type
_atom_site_occupancy
_atom_site_site_symmetry_order
_atom_site_calc_flag
_atom_site_refinement_flags_posn
_atom_site_refinement_flags_adp
_atom_site_refinement_flags_occupancy
_atom_site_disorder_assembly
_atom_site_disorder_group
C1 C 0.2194(4) 0.4187(3) 0.3758(3) 0.0254(5) Uani 1 1 d . . . . .
H1 H 0.264188 0.456009 0.480280 0.030 Uiso 1 1 calc R U . . .
C2 C 0.2511(4) 0.2662(3) 0.2701(3) 0.0212(5) Uani 1 1 d . . . . .
C3 C 0.1897(4) 0.2048(3) 0.1070(3) 0.0220(5) Uani 1 1 d . . . . .
C4 C 0.0816(4) 0.3060(3) 0.0730(3) 0.0249(5) Uani 1 1 d . . . . .
H4 H 0.026056 0.269344 -0.028346 0.030 Uiso 1 1 calc R U . . .
C5 C 0.0575(4) 0.4554(3) 0.1858(3) 0.0277(6) Uani 1 1 d . . . . .
H5 H -0.010949 0.518109 0.156554 0.033 Uiso 1 1 calc R U . . .
C6 C 0.4810(4) -0.3674(3) 0.1289(3) 0.0240(5) Uani 1 1 d . . . . .
H6 H 0.469433 -0.276960 0.220765 0.029 Uiso 1 1 calc R U . . .
C7 C 0.4342(4) -0.5087(3) -0.1382(3) 0.0262(5) Uani 1 1 d . . . . .
H7 H 0.389562 -0.518549 -0.235817 0.031 Uiso 1 1 calc R U . . .
Ag1 Ag 0.13936(3) 0.76905(3) 0.50352(3) 0.03312(8) Uani 1 1 d . . . . .
Ag2 Ag 0.33162(4) -0.14823(3) -0.01735(3) 0.04248(9) Uani 1 1 d . . . . .
N1 N 0.1272(3) 0.5168(3) 0.3364(3) 0.0280(5) Uani 1 1 d . . . . .
N2 N 0.4157(3) -0.3752(3) -0.0089(3) 0.0234(4) Uani 1 1 d . . . . .
N3 N 0.1344(4) 1.0212(3) 0.6615(3) 0.0307(5) Uani 1 1 d . . . . .
H3A H 0.163851 1.034211 0.754794 0.046 Uiso 1 1 d R U . . .
H3B H 0.023312 1.033832 0.662323 0.046 Uiso 1 1 d R U . . .
H3C H 0.207193 1.105651 0.648564 0.046 Uiso 1 1 d R U . . .
O1 O 0.3915(3) 0.2411(3) 0.5126(2) 0.0360(5) Uani 1 1 d . . . . .
O2 O 0.5642(3) 0.1831(4) 0.2850(3) 0.0440(6) Uani 1 1 d . . . . .
O3 O 0.2788(3) -0.0208(3) 0.2821(3) 0.0377(5) Uani 1 1 d . . . . .
O4 O 0.2271(3) 0.0758(2) -0.0033(2) 0.0298(4) Uani 1 1 d . . . . .
S1 S 0.38147(10) 0.15875(9) 0.34321(7) 0.02478(14) Uani 1 1 d . . . . .
loop_
_atom_site_aniso_label
_atom_site_aniso_U_11
_atom_site_aniso_U_22
_atom_site_aniso_U_33
_atom_site_aniso_U_23
_atom_site_aniso_U_13
_atom_site_aniso_U_12
C1 0.0311(14) 0.0241(12) 0.0198(13) 0.0060(10) 0.0014(10) 0.0094(10)
C2 0.0246(13) 0.0221(12) 0.0196(12) 0.0092(9) 0.0036(10) 0.0093(10)
C3 0.0240(12) 0.0186(11) 0.0230(13) 0.0069(9) 0.0035(10) 0.0067(9)
C4 0.0279(14) 0.0249(12) 0.0216(13) 0.0087(10) -0.0042(10) 0.0067(10)
C5 0.0282(14) 0.0242(13) 0.0337(15) 0.0118(11) 0.0009(11) 0.0117(11)
C6 0.0267(13) 0.0215(12) 0.0211(12) 0.0056(9) 0.0032(10) 0.0057(10)
C7 0.0322(15) 0.0257(13) 0.0198(12) 0.0078(10) 0.0024(11) 0.0075(11)
Ag1 0.04161(14) 0.02447(11) 0.03116(13) 0.00475(8) 0.00271(10) 0.01557(9)
Ag2 0.0717(2) 0.03228(13) 0.03404(14) 0.01415(10) 0.01234(12) 0.03161(12)
N1 0.0325(13) 0.0227(11) 0.0292(12) 0.0075(9) 0.0065(10) 0.0128(9)
N2 0.0277(12) 0.0223(10) 0.0204(11) 0.0080(8) 0.0011(9) 0.0070(9)
N3 0.0385(14) 0.0243(11) 0.0272(12) 0.0068(9) -0.0013(10) 0.0100(10)
O1 0.0568(15) 0.0359(11) 0.0170(10) 0.0090(8) 0.0017(9) 0.0171(10)
O2 0.0333(12) 0.0795(18) 0.0340(12) 0.0305(12) 0.0081(10) 0.0281(12)
O3 0.0570(15) 0.0241(10) 0.0337(11) 0.0089(8) -0.0010(10) 0.0180(9)
O4 0.0444(12) 0.0240(9) 0.0204(9) 0.0032(7) -0.0003(8) 0.0175(8)
S1 0.0316(4) 0.0295(3) 0.0171(3) 0.0093(2) 0.0026(3) 0.0149(3)
loop_
_atom_type_symbol
_atom_type_description
_atom_type_scat_dispersion_real
_atom_type_scat_dispersion_imag
_atom_type_scat_source
C C 0.0033 0.0016 'International Tables Vol C Tables 4.2.6.8 and 6.1.1.4'
H H 0.0000 0.0000 'International Tables Vol C Tables 4.2.6.8 and 6.1.1.4'
Ag Ag -0.8971 1.1015 'International Tables Vol C Tables 4.2.6.8 and 6.1.1.4'
N N 0.0061 0.0033 'International Tables Vol C Tables 4.2.6.8 and 6.1.1.4'
O O 0.0106 0.0060 'International Tables Vol C Tables 4.2.6.8 and 6.1.1.4'
S S 0.1246 0.1234 'International Tables Vol C Tables 4.2.6.8 and 6.1.1.4'
loop_
_geom_angle_atom_site_label_1
_geom_angle_atom_site_label_2
_geom_angle_atom_site_label_3
_geom_angle
_geom_angle_site_symmetry_1
_geom_angle_site_symmetry_3
N1 C1 C2 124.0(3) . .
N1 C1 H1 118.0 . .
C2 C1 H1 118.0 . .
C1 C2 C3 120.4(2) . .
C1 C2 S1 117.4(2) . .
C3 C2 S1 122.08(18) . .
O4 C3 C4 120.6(2) . .
O4 C3 C2 126.0(2) . .
C4 C3 C2 113.4(2) . .
C5 C4 C3 121.7(2) . .
C5 C4 H4 119.2 . .
C3 C4 H4 119.2 . .
N1 C5 C4 123.7(3) . .
N1 C5 H5 118.1 . .
C4 C5 H5 118.1 . .
N2 C6 C7 121.6(2) . 2_645
N2 C6 H6 119.2 . .
C7 C6 H6 119.2 2_645 .
N2 C7 C6 121.3(3) . 2_645
N2 C7 H7 119.4 . .
C6 C7 H7 119.4 2_645 .
N3 Ag1 N1 175.93(9) . .
O4 Ag2 N2 173.22(8) . .
O4 Ag2 O2 89.86(8) . 2_655
N2 Ag2 O2 96.59(8) . 2_655
O4 Ag2 Ag2 71.26(6) . 2_655
N2 Ag2 Ag2 112.87(6) . 2_655
O2 Ag2 Ag2 70.56(6) 2_655 2_655
C5 N1 C1 116.4(2) . .
C5 N1 Ag1 124.51(18) . .
C1 N1 Ag1 118.36(19) . .
C6 N2 C7 117.1(2) . .
C6 N2 Ag2 118.95(17) . .
C7 N2 Ag2 122.97(18) . .
Ag1 N3 H3A 109.5 . .
Ag1 N3 H3B 109.7 . .
H3A N3 H3B 104.5 . .
Ag1 N3 H3C 117.9 . .
H3A N3 H3C 105.5 . .
H3B N3 H3C 108.9 . .
S1 O2 Ag2 133.11(13) . 2_655
C3 O4 Ag2 135.63(18) . .
O1 S1 O2 112.11(14) . .
O1 S1 O3 112.58(14) . .
O2 S1 O3 113.03(15) . .
O1 S1 C2 106.08(12) . .
O2 S1 C2 105.85(13) . .
O3 S1 C2 106.53(12) . .
loop_
_geom_bond_atom_site_label_1
_geom_bond_atom_site_label_2
_geom_bond_distance
_geom_bond_site_symmetry_2
C1 N1 1.352(4) .
C1 C2 1.382(4) .
C1 H1 0.9300 .
C2 C3 1.432(4) .
C2 S1 1.776(3) .
C3 O4 1.278(3) .
C3 C4 1.428(4) .
C4 C5 1.368(4) .
C4 H4 0.9300 .
C5 N1 1.343(4) .
C5 H5 0.9300 .
C6 N2 1.340(4) .
C6 C7 1.391(4) 2_645
C6 H6 0.9300 .
C7 N2 1.342(3) .
C7 H7 0.9300 .
Ag1 N3 2.128(2) .
Ag1 N1 2.128(2) .
Ag2 O4 2.2140(19) .
Ag2 N2 2.231(2) .
Ag2 O2 2.526(2) 2_655
Ag2 Ag2 3.0873(6) 2_655
N3 H3A 0.8503 .
N3 H3B 0.8500 .
N3 H3C 0.8628 .
O1 S1 1.448(2) .
O2 S1 1.456(2) .
O3 S1 1.465(2) .
loop_
_geom_hbond_atom_site_label_D
_geom_hbond_atom_site_label_H
_geom_hbond_atom_site_label_A
_geom_hbond_distance_DH
_geom_hbond_distance_HA
_geom_hbond_distance_DA
_geom_hbond_angle_DHA
_geom_hbond_site_symmetry_A
_geom_hbond_publ_flag
N3 H3A O4 0.85 2.17 3.015(3) 176.8 1_566 yes
N3 H3B O3 0.85 2.28 3.093(4) 160.9 2_566 yes
N3 H3C O1 0.86 2.30 3.113(4) 156.1 1_565 yes
loop_
_geom_torsion_atom_site_label_1
_geom_torsion_atom_site_label_2
_geom_torsion_atom_site_label_3
_geom_torsion_atom_site_label_4
_geom_torsion
_geom_torsion_site_symmetry_1
_geom_torsion_site_symmetry_2
_geom_torsion_site_symmetry_3
_geom_torsion_site_symmetry_4
N1 C1 C2 C3 1.7(4) . . . .
N1 C1 C2 S1 178.0(2) . . . .
C1 C2 C3 O4 172.5(3) . . . .
S1 C2 C3 O4 -3.6(4) . . . .
C1 C2 C3 C4 -5.9(4) . . . .
S1 C2 C3 C4 178.0(2) . . . .
O4 C3 C4 C5 -172.4(3) . . . .
C2 C3 C4 C5 6.1(4) . . . .
C3 C4 C5 N1 -2.0(5) . . . .
C4 C5 N1 C1 -2.6(4) . . . .
C4 C5 N1 Ag1 167.3(2) . . . .
C2 C1 N1 C5 2.8(4) . . . .
C2 C1 N1 Ag1 -167.8(2) . . . .
C7 C6 N2 C7 0.5(4) 2_645 . . .
C7 C6 N2 Ag2 -168.6(2) 2_645 . . .
C6 C7 N2 C6 -0.5(4) 2_645 . . .
C6 C7 N2 Ag2 168.1(2) 2_645 . . .
C4 C3 O4 Ag2 -164.8(2) . . . .
C2 C3 O4 Ag2 16.9(5) . . . .
Ag2 O2 S1 O1 -163.30(17) 2_655 . . .
Ag2 O2 S1 O3 68.2(2) 2_655 . . .
Ag2 O2 S1 C2 -48.1(2) 2_655 . . .
C1 C2 S1 O1 12.7(3) . . . .
C3 C2 S1 O1 -171.1(2) . . . .
C1 C2 S1 O2 -106.6(2) . . . .
C3 C2 S1 O2 69.7(3) . . . .
C1 C2 S1 O3 132.8(2) . . . .
C3 C2 S1 O3 -50.9(3) . . . .
