#------------------------------------------------------------------------------
#$Date: 2022-04-01 11:54:25 +0300 (Fri, 01 Apr 2022) $
#$Revision: 274207 $
#$URL: file:///home/coder/svn-repositories/cod/cif/8/10/49/8104994.cif $
#------------------------------------------------------------------------------
#
# This file is available in the Crystallography Open Database (COD),
# http://www.crystallography.net/
#
# All data on this site have been placed in the public domain by the
# contributors.
#
data_8104994
loop_
_publ_author_name
'Geng, Lei'
_publ_section_title
;
 The crystal structure of KNa3Te8O18&#x00B7;5H2O exhibiting a \\infty
 2[Te4O9]2&#x2212; layer
;
_journal_issue                   1
_journal_name_full
'Zeitschrift f\"ur Kristallographie - New Crystal Structures'
_journal_page_first              179
_journal_page_last               181
_journal_paper_doi               10.1515/ncrs-2021-0415
_journal_volume                  237
_journal_year                    2022
_chemical_formula_sum            'H16 K Na3 O26 Te8'
_chemical_formula_weight         1561.00
_space_group_crystal_system      triclinic
_space_group_IT_number           2
_space_group_name_Hall           '-P 1'
_space_group_name_H-M_alt        'P -1'
_atom_sites_solution_hydrogens   difmap
_cell_angle_alpha                67.582(2)
_cell_angle_beta                 66.167(2)
_cell_angle_gamma                77.861(2)
_cell_formula_units_Z            1
_cell_length_a                   8.5701(4)
_cell_length_b                   8.7278(4)
_cell_length_c                   10.4082(5)
_cell_measurement_reflns_used    9344
_cell_measurement_temperature    296(2)
_cell_measurement_theta_max      27.5655
_cell_measurement_theta_min      2.53
_cell_volume                     656.85(5)
_computing_structure_refinement  'SHELXL-2014/7 (Sheldrick, 2014)'
_diffrn_ambient_temperature      296(2)
_diffrn_measured_fraction_theta_full 0.999
_diffrn_measured_fraction_theta_max 0.995
_diffrn_measurement_device_type  'CCD area detector'
_diffrn_radiation_type           MoK\a
_diffrn_radiation_wavelength     0.71073
_diffrn_reflns_av_R_equivalents  0.0214
_diffrn_reflns_av_unetI/netI     0.0180
_diffrn_reflns_Laue_measured_fraction_full 0.999
_diffrn_reflns_Laue_measured_fraction_max 0.995
_diffrn_reflns_limit_h_max       11
_diffrn_reflns_limit_h_min       -11
_diffrn_reflns_limit_k_max       11
_diffrn_reflns_limit_k_min       -11
_diffrn_reflns_limit_l_max       13
_diffrn_reflns_limit_l_min       -13
_diffrn_reflns_number            11149
_diffrn_reflns_point_group_measured_fraction_full 0.999
_diffrn_reflns_point_group_measured_fraction_max 0.995
_diffrn_reflns_theta_full        25.242
_diffrn_reflns_theta_max         27.566
_diffrn_reflns_theta_min         2.267
_exptl_absorpt_coefficient_mu    9.063
_exptl_absorpt_correction_type   multi-scan
_exptl_crystal_colour            colorless
_exptl_crystal_density_diffrn    3.946
_exptl_crystal_description       plate-like
_exptl_crystal_F_000             692
_exptl_crystal_size_max          0.160
_exptl_crystal_size_mid          0.150
_exptl_crystal_size_min          0.080
_exptl_transmission_factor_max   0.484
_exptl_transmission_factor_min   0.256
_refine_diff_density_max         0.497
_refine_diff_density_min         -1.652
_refine_diff_density_rms         0.244
_refine_ls_extinction_coef       .
_refine_ls_extinction_method     none
_refine_ls_goodness_of_fit_ref   1.044
_refine_ls_hydrogen_treatment    refxyz
_refine_ls_matrix_type           full
_refine_ls_number_parameters     204
_refine_ls_number_reflns         3028
_refine_ls_number_restraints     15
_refine_ls_restrained_S_all      1.041
_refine_ls_R_factor_all          0.0186
_refine_ls_R_factor_gt           0.0180
_refine_ls_shift/su_max          0.001
_refine_ls_shift/su_mean         0.000
_refine_ls_structure_factor_coef Fsqd
_refine_ls_weighting_details
'w=1/[\s^2^(Fo^2^)+(0.0214P)^2^+2.0998P] where P=(Fo^2^+2Fc^2^)/3'
_refine_ls_weighting_scheme      calc
_refine_ls_wR_factor_gt          0.0448
_refine_ls_wR_factor_ref         0.0452
_reflns_Friedel_coverage         0.000
_reflns_Friedel_fraction_full    .
_reflns_Friedel_fraction_max     .
_reflns_number_gt                2970
_reflns_number_total             3028
_reflns_threshold_expression     'I > 2\s(I)'
_cod_data_source_file            suppl_j_ncrs-2021-0415_suppl.cif
_cod_data_source_block           a
_cod_original_cell_volume        656.85(6)
_cod_database_code               8104994
_shelx_space_group_comment
;
The symmetry employed for this shelxl refinement is uniquely defined
by the following loop, which should always be used as a source of
symmetry information in preference to the above space-group names.
They are only intended as comments.
;
_shelx_estimated_absorpt_t_min   0.325
_shelx_estimated_absorpt_t_max   0.531
_shelx_res_file
;

    a.res created by SHELXL-2014/7


TITL a in P-1                         New: P-1
CELL  0.71073    8.5701    8.7278   10.4082    67.582    66.167    77.861
ZERR        1    0.0004    0.0004    0.0005     0.002     0.002     0.002
LATT   1
SFAC  H  K Na  O Te
UNIT     16   1   3  26   8
L.S. 10
size 0.16 0.15 0.08
TEMP 23.000
FMAP 2
PLAN -20
ACTA
BOND $H
CONF

dfix 0.85 0.02 o10 h1
dfix 0.85 0.02 o10 h2
DANG 1.39 0.01 H1 H2

dfix 0.85 0.02 o11 h3
dfix 0.85 0.02 o11 h4
DANG 1.39 0.01 H3 H4

dfix 0.85 0.02 o12 h5
dfix 0.85 0.02 o12 h6
DANG 1.39 0.01 H5 H6

dfix 0.85 0.01 o13 h7
dfix 0.85 0.02 o13 h8
dfix 0.85 0.01 o13 h9
DANG 1.39 0.01 H7 H8
DANG 1.39 0.01 H7 H9
sump 1 0.001 1.0 2 1.0 3

WGHT    0.021400    2.099800
FVAR       0.08866   0.52869   0.47132
K1    2    0.500000    0.500000    0.500000    10.50000    0.12178    0.02322 =
         0.10756   -0.00454   -0.09237   -0.00692
NA1   3    0.500000    0.000000    0.000000    10.50000    0.14864    0.02801 =
         0.07387    0.00223   -0.08894   -0.01174
NA2   3    0.628161    0.603103    0.042727    11.00000    0.03072    0.02129 =
         0.02523   -0.00830   -0.00424   -0.00439
TE1   5    0.140453    0.151622    0.663728    11.00000    0.01247    0.01076 =
         0.01151   -0.00361   -0.00404    0.00005
TE2   5    0.177685    0.520113    0.308026    11.00000    0.01528    0.01023 =
         0.01124   -0.00288   -0.00413   -0.00026
TE3   5    0.179258   -0.174649    0.978119    11.00000    0.01408    0.01314 =
         0.01142   -0.00462   -0.00402    0.00133
TE4   5    0.461862    0.173009    0.324810    11.00000    0.01199    0.01046 =
         0.01431   -0.00298   -0.00435    0.00051
O1    4    0.680959    0.159570    0.322988    11.00000    0.01208    0.02567 =
         0.02247   -0.01144   -0.00651    0.00297
O2    4    0.369646    0.206955    0.534097    11.00000    0.01316    0.02404 =
         0.01886   -0.01013   -0.00146   -0.00317
O3    4    0.430215    0.405621    0.242731    11.00000    0.01631    0.01088 =
         0.02925    0.00139    0.00264    0.00184
O4    4    0.193092    0.090275    0.837702    11.00000    0.02117    0.01389 =
         0.01391   -0.00265   -0.00856    0.00042
O5    4   -0.154139    0.112318    0.863167    11.00000    0.02609    0.01745 =
         0.01323   -0.00693   -0.00414   -0.00131
O6    4    0.095972    0.312856    0.383064    11.00000    0.02172    0.01184 =
         0.02142   -0.00176   -0.00696   -0.00306
O7    4    0.580057    0.179833    0.097826    11.00000    0.01487    0.02768 =
         0.01462   -0.00796   -0.00538    0.00358
O8    4    0.078698    0.377214    0.652835    11.00000    0.01662    0.01084 =
         0.02629   -0.00545   -0.00771    0.00219
O9    4    0.202224    0.575366    0.106596    11.00000    0.04424    0.01264 =
         0.01509   -0.00483   -0.01099    0.00364
O10   4    0.753816    0.227260    0.528506    11.00000    0.03710    0.08051 =
         0.03364   -0.03129    0.00002   -0.02612
H1    1    0.715433    0.198951    0.477528    11.00000   -1.50000
H2    1    0.859136    0.246270    0.479802    11.00000   -1.50000
O11   4    0.512816    0.776625    0.205142    11.00000    0.02785    0.02942 =
         0.03062   -0.01096   -0.01206   -0.00576
H3    1    0.600061    0.803141    0.208754    11.00000   -1.50000
H4    1    0.422951    0.798730    0.271436    11.00000   -1.50000
O12   4    0.202509    0.186182    0.144293    11.00000    0.05313    0.03425 =
         0.03575   -0.01337   -0.00351   -0.02238
H5    1    0.162958    0.100787    0.151419    11.00000   -1.50000
H6    1    0.149058    0.210960    0.223560    11.00000   -1.50000
O13   4    0.819330    0.484917    0.168529    11.00000    0.08727    0.04676 =
         0.09281   -0.01194   -0.06893   -0.00611
H7    1    0.922269    0.504881    0.113456    11.00000   -1.50000
H8    1    0.785591    0.533610    0.233464    21.00000   -1.50000
H9    1    0.809917    0.380816    0.209722    31.00000   -1.50000
HKLF 4

REM  a in P-1                         New: P-1
REM R1 =  0.0180 for    2970 Fo > 4sig(Fo)  and  0.0186 for all    3028 data
REM    204 parameters refined using     15 restraints

END

WGHT      0.0184      0.8916

REM Highest difference peak  0.497,  deepest hole -1.652,  1-sigma level  0.244
Q1    1  -0.0028  0.2374  0.4165  11.00000  0.05    0.50
Q2    1   0.1067 -0.2246  0.9578  11.00000  0.05    0.49
Q3    1   0.0463  0.3785  0.2001  11.00000  0.05    0.47
Q4    1   0.0556  0.1069  0.6415  11.00000  0.05    0.46
Q5    1   0.3871  0.1198  0.3066  11.00000  0.05    0.45
Q6    1   0.8602  0.5726  0.0900  11.00000  0.05    0.44
Q7    1   0.3629  0.7267  0.4445  11.00000  0.05    0.43
Q8    1   0.1936 -0.0258  0.1054  11.00000  0.05    0.43
Q9    1   0.3358  0.2392  0.0574  11.00000  0.05    0.43
Q10   1   1.0000  0.5000  0.0000  10.50000  0.05    0.42
Q11   1   0.3186  0.7386  0.2949  11.00000  0.05    0.42
Q12   1   0.2771  0.6277  0.7469  11.00000  0.05    0.42
Q13   1  -0.1104  0.1276  0.7610  11.00000  0.05    0.41
Q14   1   0.3835  0.6316  0.2936  11.00000  0.05    0.41
Q15   1   0.2974  0.5471  0.5865  11.00000  0.05    0.40
Q16   1   0.3231  0.6870  0.4031  11.00000  0.05    0.40
Q17   1   0.2377  0.6819  0.5603  11.00000  0.05    0.40
Q18   1   0.0033  0.3249  0.4591  11.00000  0.05    0.40
Q19   1   0.7164  0.1392  0.4189  11.00000  0.05    0.39
Q20   1   0.3629  0.7377  0.5700  11.00000  0.05    0.39
;
_shelx_hkl_file
;
  -1   0   0    0.91    0.05
  -1   0   0    0.92    0.05
   1   0   0    0.88    0.04
   1   0   0    0.77    0.04
  -2   0   0   24.40    0.66
  -2   0   0   25.25    0.67
  -2   0   0   24.74    0.63
   2   0   0   21.97    0.65
   2   0   0   25.21    0.65
   2   0   0   25.70    0.64
  -3   0   0  764.64   19.11
  -3   0   0  761.05   19.03
  -3   0   0  765.42   22.16
   3   0   0  796.17   21.85
   3   0   0  758.48   19.04
   3   0   0  778.48   23.43
  -4   0   0   41.90    1.10
  -4   0   0   41.29    1.17
  -4   0   0   41.83    1.15
  -4   0   0   43.41    1.19
   4   0   0   42.55    1.10
   4   0   0   42.78    1.13
   4   0   0   40.45    1.14
  -5   0   0   36.04    1.07
  -5   0   0   35.24    0.97
   5   0   0   35.76    1.01
   5   0   0   35.88    0.97
  -6   0   0  146.03    3.74
  -6   0   0  142.08    3.59
   6   0   0  140.60    3.57
   6   0   0  146.69    3.64
  -7   0   0   12.62    0.46
  -7   0   0   12.98    0.59
   7   0   0   12.64    0.50
   7   0   0   12.47    0.44
  -8   0   0   28.23    1.04
  -8   0   0   27.99    0.87
   8   0   0   26.35    0.80
  -9   0   0   10.26    0.46
  -9   0   0   10.24    0.60
   9   0   0   10.58    0.38
 -10   0   0    7.94    0.42
 -10   0   0    8.17    0.57
  10  -1   0    1.22    0.11
 -10   1   0    1.23    0.18
 -10   1   0    1.37    0.29
   9  -1   0   74.63    2.01
  -9   1   0   75.80    2.07
  -9   1   0   78.04    2.32
   8  -1   0    1.19    0.13
   8  -1   0    1.16    0.18
  -8   1   0    1.22    0.15
  -8   1   0    1.10    0.23
   7  -1   0    3.00    0.19
   7  -1   0    3.10    0.23
  -7   1   0    2.69    0.26
  -7   1   0    3.14    0.19
   6  -1   0   66.70    1.75
   6  -1   0   66.47    1.81
  -6   1   0   67.72    1.74
  -6   1   0   65.76    1.87
   5  -1   0    0.55    0.09
   5  -1   0    0.48    0.08
  -5   1   0    0.53    0.12
  -5   1   0    0.58    0.08
   4  -1   0    0.28    0.05
   4  -1   0    0.23    0.06
   4  -1   0    0.13    0.04
  -4   1   0    0.25    0.06
  -4   1   0    0.12    0.04
  -4   1   0    0.13    0.04
  -4   1   0    0.08    0.05
   3  -1   0   86.71    2.18
   3  -1   0   87.38    2.16
   3  -1   0   86.68    2.18
  -3   1   0   89.47    2.19
  -3   1   0   86.75    2.18
  -3   1   0   84.72    2.20
  -3   1   0   84.87    2.14
   2  -1   0    0.53    0.06
   2  -1   0    0.40    0.05
   2  -1   0    0.30    0.04
  -2   1   0    0.35    0.05
  -2   1   0    0.25    0.04
  -2   1   0    0.26    0.06
   1  -1   0    6.93    0.21
   1  -1   0    6.75    0.21
   1  -1   0    6.95    0.21
  -1   1   0    7.01    0.21
   0  -1   0    4.22    0.12
   0  -1   0    4.21    0.14
   0   1   0    4.15    0.13
   0   1   0    3.89    0.15
   0   1   0    4.20    0.13
  -1  -1   0    7.06    0.24
   1   1   0    7.49    0.22
  -2  -1   0   29.60    0.85
  -2  -1   0   28.10    0.79
   2   1   0   31.47    0.75
   2   1   0   30.99    0.77
  -3  -1   0  195.30    4.76
  -3  -1   0  198.50    4.76
  -3  -1   0  185.46    4.78
   3   1   0  191.85    4.86
   3   1   0  191.29    4.86
  -4  -1   0    0.28    0.06
  -4  -1   0    0.10    0.06
  -4  -1   0    0.13    0.05
   4   1   0    0.05    0.03
   4   1   0    0.06    0.03
  -5  -1   0   51.69    1.40
  -5  -1   0   53.08    1.51
   5   1   0   51.83    1.39
   5   1   0   54.78    1.37
  -6  -1   0   81.03    2.12
  -6  -1   0   81.19    2.25
   6   1   0   82.73    2.13
   6   1   0   81.10    2.07
  -7  -1   0   18.26    0.62
  -7  -1   0   18.78    0.75
   7   1   0   17.44    0.55
  -8  -1   0   31.98    0.98
  -8  -1   0   31.90    1.15
   8   1   0   30.26    0.87
  -9  -1   0   23.98    1.01
  -9  -1   0   24.75    0.83
   9   1   0   23.17    0.66
 -10  -1   0   12.04    0.71
 -10  -1   0   12.96    0.56
   9  -2   0   20.51    0.83
   9  -2   0   19.96    0.69
  -9   2   0   21.01    0.91
  -9   2   0   20.97    0.72
   8  -2   0    8.19    0.37
   8  -2   0    8.57    0.45
  -8   2   0    8.42    0.49
  -8   2   0    8.56    0.37
   7  -2   0    0.09    0.06
   7  -2   0    0.09    0.05
  -7   2   0    0.08    0.09
  -7   2   0    0.42    0.09
   6  -2   0   44.30    1.22
   6  -2   0   42.65    1.27
  -6   2   0   43.21    1.18
  -6   2   0   44.15    1.32
   5  -2   0   20.66    0.68
   5  -2   0   21.23    0.65
  -5   2   0   20.91    0.61
  -5   2   0   20.56    0.71
   4  -2   0   24.41    0.70
   4  -2   0   23.12    0.72
  -4   2   0   23.12    0.74
  -4   2   0   23.47    0.71
  -4   2   0   24.41    0.72
  -4   2   0   23.46    0.66
   3  -2   0   13.05    0.42
   3  -2   0   12.98    0.41
   3  -2   0   12.20    0.42
  -3   2   0   12.38    0.44
  -3   2   0   12.23    0.38
  -3   2   0   12.65    0.42
  -3   2   0   13.45    0.43
   2  -2   0    2.11    0.12
   2  -2   0    2.07    0.13
   2  -2   0    2.09    0.10
  -2   2   0    1.81    0.11
  -2   2   0    2.09    0.12
  -2   2   0    1.84    0.09
   1  -2   0   32.91    0.86
   1  -2   0   32.73    0.87
   1  -2   0   33.59    0.85
   1  -2   0   32.94    0.86
  -1   2   0   33.07    0.86
  -1   2   0   31.83    0.86
   0  -2   0   26.17    0.67
   0  -2   0   26.29    0.69
   0  -2   0   25.97    0.69
   0  -2   0   26.15    0.66
   0  -2   0   26.09    0.70
   0   2   0   25.68    0.70
   0   2   0   26.37    0.70
   0   2   0   25.49    0.70
  -1  -2   0    7.02    0.24
  -1  -2   0    6.90    0.18
  -1  -2   0    6.73    0.21
   1   2   0    7.06    0.25
   1   2   0    6.59    0.27
   1   2   0    6.98    0.26
  -2  -2   0   49.73    1.26
  -2  -2   0   50.23    1.31
   2   2   0   50.54    1.27
   2   2   0   46.88    1.36
  -3  -2   0    8.75    0.32
  -3  -2   0    7.77    0.35
   3   2   0    8.61    0.28
   3   2   0    8.59    0.24
  -4  -2   0   18.20    0.58
  -4  -2   0   18.83    0.66
  -4  -2   0   17.79    0.58
   4   2   0   18.71    0.52
   4   2   0   19.24    0.53
   4   2   0   18.97    0.57
  -5  -2   0    6.37    0.29
  -5  -2   0    6.10    0.35
   5   2   0    6.69    0.25
   5   2   0    6.53    0.24
  -6  -2   0   78.94    2.23
  -6  -2   0   77.22    2.09
   6   2   0   81.71    2.01
  -7  -2   0    6.76    0.42
  -7  -2   0    6.84    0.34
   7   2   0    6.35    0.25
  -8  -2   0    0.88    0.21
  -8  -2   0    0.42    0.12
  -9  -2   0   66.54    2.14
  -9  -2   0   69.18    1.93
 -10  -2   0    0.58    0.22
 -10  -2   0    0.64    0.15
   9  -3   0    9.87    0.54
   9  -3   0    9.35    0.43
   8  -3   0   27.35    0.99
   8  -3   0   28.32    0.90
  -8   3   0   27.10    0.86
   7  -3   0   38.66    1.14
   7  -3   0   37.84    1.22
  -7   3   0   38.47    1.10
   6  -3   0  139.69    3.59
   6  -3   0  139.23    3.52
  -6   3   0  136.06    3.46
   5  -3   0   28.38    0.90
   5  -3   0   28.73    0.86
  -5   3   0   28.67    0.81
   4  -3   0   22.54    0.72
   4  -3   0   22.70    0.69
  -4   3   0   22.31    0.71
  -4   3   0   21.96    0.64
  -4   3   0   23.32    0.71
   3  -3   0  566.92   13.98
   3  -3   0  568.20   14.30
   3  -3   0  546.53   14.08
   3  -3   0  574.83   14.29
  -3   3   0  574.66   14.30
  -3   3   0  565.78   14.04
  -3   3   0  567.22   14.25
   2  -3   0   19.00    0.57
   2  -3   0   18.81    0.54
   2  -3   0   18.60    0.56
  -2   3   0   17.89    0.52
  -2   3   0   18.66    0.57
  -2   3   0   18.98    0.57
   1  -3   0    0.41    0.06
   1  -3   0    0.27    0.05
   1  -3   0    0.27    0.05
   1  -3   0    0.44    0.05
   1  -3   0    0.29    0.05
  -1   3   0    0.27    0.04
  -1   3   0    0.14    0.04
   0  -3   0  931.73   25.60
   0  -3   0  893.68   26.11
   0  -3   0  966.36   22.92
   0  -3   0  959.91   23.06
   0  -3   0  879.86   25.21
   0  -3   0  929.78   22.93
   0   3   0  910.79   28.08
   0   3   0  916.37   29.25
   0   3   0 1000.00   28.55
  -1  -3   0    2.18    0.10
  -1  -3   0    2.43    0.09
  -1  -3   0    1.98    0.14
  -1  -3   0    2.07    0.12
  -1  -3   0    2.04    0.13
   1   3   0    2.22    0.13
   1   3   0    2.45    0.16
  -2  -3   0   36.76    0.95
  -2  -3   0   36.84    1.01
   2   3   0   36.56    1.06
   2   3   0   36.06    1.02
   2   3   0   35.82    1.01
  -3  -3   0  417.54   10.60
  -3  -3   0  416.38   10.84
   3   3   0  439.52   10.77
   3   3   0  439.49   11.51
  -4  -3   0    4.50    0.24
   4   3   0    5.11    0.20
   4   3   0    4.65    0.21
  -5  -3   0   25.19    0.78
  -5  -3   0   24.85    0.77
   5   3   0   24.36    0.69
  -6  -3   0  114.11    3.25
  -6  -3   0  124.07    3.11
   6   3   0  123.08    2.98
  -7  -3   0    5.92    0.41
  -7  -3   0    5.53    0.32
   7   3   0    5.99    0.22
  -8  -3   0   13.98    0.57
  -8  -3   0   12.95    0.68
  -9  -3   0    4.75    0.33
  -9  -3   0    5.17    0.44
   9  -4   0   72.41    2.03
   8  -4   0    1.18    0.16
   8  -4   0    1.21    0.21
   7  -4   0    0.63    0.12
   7  -4   0    1.13    0.18
   6  -4   0   75.21    2.03
   6  -4   0   75.22    2.09
  -6   4   0   74.00    1.96
   5  -4   0    4.98    0.29
   5  -4   0    4.60    0.26
  -5   4   0    4.91    0.23
   4  -4   0    5.37    0.27
   4  -4   0    4.78    0.27
  -4   4   0    5.39    0.27
  -4   4   0    4.51    0.21
   3  -4   0   45.96    1.26
   3  -4   0   45.45    1.26
   3  -4   0   44.88    1.22
  -3   4   0   44.83    1.27
  -3   4   0   45.20    1.20
  -3   4   0   46.15    1.27
   2  -4   0   30.10    0.84
   2  -4   0   31.25    0.87
   2  -4   0   31.23    0.89
   2  -4   0   31.88    0.91
   2  -4   0   31.81    0.92
  -2   4   0   32.44    0.91
  -2   4   0   31.62    0.85
  -2   4   0   30.33    0.91
   1  -4   0   13.72    0.46
   1  -4   0   14.05    0.44
   1  -4   0   14.25    0.45
   1  -4   0   13.85    0.47
  -1   4   0   13.65    0.47
  -1   4   0   13.64    0.46
  -1   4   0   13.55    0.42
   0  -4   0   24.17    0.69
   0  -4   0   23.68    0.65
   0  -4   0   24.22    0.70
   0  -4   0   22.55    0.64
   0  -4   0   23.43    0.69
   0   4   0   23.40    0.71
   0   4   0   23.05    0.71
   0   4   0   22.96    0.70
  -1  -4   0   37.10    0.94
  -1  -4   0   35.51    0.97
  -1  -4   0   35.10    1.02
  -1  -4   0   38.12    1.02
  -1  -4   0   37.48    1.03
   1   4   0   38.60    1.08
   1   4   0   36.62    1.05
   1   4   0   37.31    1.04
  -2  -4   0   84.54    2.17
  -2  -4   0   81.90    2.17
  -2  -4   0   83.03    2.11
   2   4   0   84.13    2.22
   2   4   0   85.86    2.23
   2   4   0   84.92    2.20
  -3  -4   0   71.98    1.84
  -3  -4   0   71.35    2.05
   3   4   0   71.31    1.87
   3   4   0   71.01    1.99
  -4  -4   0   36.82    1.07
   4   4   0   37.80    1.04
   4   4   0   38.60    1.23
  -5  -4   0   56.79    1.59
   5   4   0   56.77    1.50
   5   4   0   59.24    1.77
  -6  -4   0   59.92    1.68
  -6  -4   0   61.62    1.69
   6   4   0   59.51    1.54
  -7  -4   0   26.23    0.85
  -7  -4   0   24.19    0.98
  -8  -4   0   29.73    0.99
  -8  -4   0   28.84    1.14
  -9  -4   0   30.72    1.04
  -9  -4   0   28.89    1.19
   8  -5   0    0.07    0.10
   8  -5   0    0.21    0.09
   7  -5   0    2.15    0.20
   7  -5   0    2.44    0.24
   6  -5   0   26.76    0.94
   6  -5   0   27.00    0.90
   5  -5   0    0.67    0.12
   5  -5   0    0.10    0.07
   4  -5   0   28.25    0.90
   4  -5   0   30.11    0.92
  -4   5   0   28.07    0.91
   3  -5   0   31.13    0.94
   3  -5   0   31.45    0.95
  -3   5   0   30.56    0.88
  -3   5   0   31.29    0.95
   2  -5   0    0.48    0.08
   2  -5   0    0.23    0.07
   2  -5   0    0.20    0.06
   2  -5   0    0.18    0.06
   2  -5   0    0.29    0.06
  -2   5   0    0.23    0.07
  -2   5   0    0.30    0.07
  -2   5   0    0.23    0.06
   1  -5   0  135.20    3.40
   1  -5   0  136.04    3.38
   1  -5   0  133.59    3.33
   1  -5   0  134.60    3.41
   1  -5   0  135.24    3.36
  -1   5   0  134.95    3.34
  -1   5   0  132.14    3.41
  -1   5   0  135.03    3.42
   0  -5   0   33.66    0.94
   0  -5   0   35.97    1.02
   0  -5   0   35.62    1.00
   0  -5   0   34.80    0.95
   0  -5   0   37.52    0.96
   0   5   0   34.21    1.03
   0   5   0   35.17    1.03
   0   5   0   34.47    1.03
  -1  -5   0    2.04    0.13
  -1  -5   0    2.24    0.16
  -1  -5   0    2.21    0.16
  -1  -5   0    2.15    0.16
  -1  -5   0    2.01    0.11
  -1  -5   0    2.04    0.16
   1   5   0    2.03    0.18
   1   5   0    2.02    0.17
  -2  -5   0   72.02    1.98
  -2  -5   0   73.77    1.89
   2   5   0   72.46    2.00
   2   5   0   76.02    2.02
  -3  -5   0   18.83    0.58
   3   5   0   17.76    0.63
   3   5   0   19.14    0.71
  -4  -5   0    7.49    0.33
   4   5   0    7.43    0.43
   4   5   0    7.69    0.32
  -5  -5   0    0.77    0.13
   5   5   0    0.85    0.09
   5   5   0    1.07    0.20
  -6  -5   0   46.60    1.37
  -6  -5   0   47.81    1.38
   6   5   0   45.91    1.22
   6   5   0   48.44    1.57
  -7  -5   0    1.05    0.17
  -7  -5   0    1.00    0.22
   7   5   0    1.08    0.22
  -8  -5   0    0.17    0.14
  -8  -5   0    0.44    0.12
  -9  -5   0   36.61    1.39
  -9  -5   0   36.16    1.19
   7  -6   0   26.70    0.94
   7  -6   0   27.06    0.99
   6  -6   0   73.57    2.12
   6  -6   0   74.25    2.08
   5  -6   0    7.82    0.41
   5  -6   0    7.74    0.40
   4  -6   0   14.20    0.57
   4  -6   0   14.44    0.57
  -4   6   0   14.56    0.58
   3  -6   0  200.81    5.05
   3  -6   0  205.85    5.07
  -3   6   0  197.16    5.07
   2  -6   0    6.92    0.34
   2  -6   0    6.99    0.32
   2  -6   0    7.29    0.41
  -2   6   0    6.63    0.34
  -2   6   0    6.90    0.35
   1  -6   0    6.08    0.27
   1  -6   0    6.07    0.25
   1  -6   0    6.03    0.31
   1  -6   0    6.22    0.29
  -1   6   0    5.84    0.31
  -1   6   0    5.97    0.32
   0  -6   0  311.11    7.73
   0  -6   0  315.67    7.57
   0  -6   0  312.37    7.82
   0  -6   0  316.36    7.82
   0   6   0  306.50    7.88
   0   6   0  306.21    7.80
  -1  -6   0    0.38    0.08
  -1  -6   0    0.24    0.08
   1   6   0    0.11    0.06
   1   6   0    0.71    0.13
  -2  -6   0    1.66    0.17
  -2  -6   0    1.97    0.14
   2   6   0    1.85    0.19
   2   6   0    1.88    0.19
  -3  -6   0  210.51    5.27
  -3  -6   0  203.03    5.14
   3   6   0  212.14    5.33
   3   6   0  206.76    5.24
  -4  -6   0    0.09    0.07
   4   6   0    0.05    0.05
   4   6   0    0.22    0.10
  -5  -6   0    0.16    0.08
   5   6   0    0.28    0.13
   5   6   0    0.21    0.06
  -6  -6   0   29.76    0.98
   6   6   0   29.20    0.80
   6   6   0   29.83    1.14
  -7  -6   0    0.54    0.13
  -7  -6   0    0.38    0.12
   7   6   0    0.46    0.24
  -8  -6   0    5.61    0.46
  -8  -6   0    5.47    0.35
   7  -7   0    0.65    0.15
   6  -7   0   38.57    1.26
   6  -7   0   37.96    1.26
   5  -7   0    9.89    0.48
   5  -7   0    9.17    0.47
   4  -7   0    0.28    0.09
   4  -7   0    0.32    0.10
  -4   7   0    0.30    0.10
   3  -7   0    6.18    0.33
  -3   7   0    5.77    0.35
   2  -7   0   14.35    0.54
   2  -7   0   14.62    0.58
  -2   7   0   14.71    0.60
   1  -7   0   17.51    0.63
   1  -7   0   20.35    0.70
   1  -7   0   17.86    0.60
  -1   7   0   17.11    0.66
  -1   7   0   17.60    0.67
  -1   7   0   17.62    0.68
   0  -7   0    6.17    0.32
   0  -7   0    6.10    0.28
   0   7   0    6.25    0.35
   0   7   0    6.24    0.35
  -1  -7   0   34.77    0.99
  -1  -7   0   34.65    1.08
   1   7   0   34.48    1.13
   1   7   0   34.33    1.11
  -2  -7   0   33.83    1.09
  -2  -7   0   34.47    0.98
   2   7   0   32.76    1.11
   2   7   0   32.32    1.10
  -3  -7   0   33.35    0.99
   3   7   0   33.72    1.07
   3   7   0   33.04    1.14
  -4  -7   0   32.58    0.98
   4   7   0   30.97    1.13
   4   7   0   30.20    0.97
  -5  -7   0   64.01    1.77
   5   7   0   61.34    1.66
   5   7   0   62.39    1.97
  -6  -7   0   48.63    1.48
   6   7   0   49.21    1.67
  -7  -7   0   31.79    1.04
  -7  -7   0   30.04    1.03
  -8  -7   0   34.73    1.33
  -8  -7   0   33.38    1.12
   6  -8   0   19.04    0.80
   5  -8   0    3.59    0.29
   5  -8   0    3.46    0.30
   4  -8   0   34.17    1.12
   4  -8   0   34.84    1.17
  -4   8   0   33.90    1.17
   3  -8   0   29.40    1.03
   3  -8   0   31.18    0.99
  -3   8   0   29.98    1.05
   2  -8   0    2.59    0.20
  -2   8   0    2.65    0.24
  -1   8   0   47.45    1.45
  -1   8   0   46.14    1.44
   0  -8   0    6.29    0.48
   0   8   0    5.99    0.38
  -1  -8   0    3.70    0.28
  -1  -8   0    3.90    0.23
   1   8   0    3.39    0.28
   1   8   0    3.54    0.30
  -2  -8   0   19.57    0.67
  -2  -8   0   19.82    0.78
   2   8   0   20.53    0.80
   2   8   0   19.64    0.78
  -3  -8   0    4.12    0.33
  -3  -8   0    4.63    0.27
   3   8   0    4.28    0.30
   3   8   0    3.70    0.32
  -4  -8   0    5.74    0.33
   4   8   0    5.83    0.32
   4   8   0    5.32    0.41
  -5  -8   0    1.46    0.20
   5   8   0    1.12    0.12
  -6  -8   0   17.11    0.71
  -7  -8   0    1.82    0.24
   4  -9   0    7.22    0.42
   4  -9   0    7.78    0.46
  -4   9   0    7.51    0.47
  -3   9   0   61.15    1.87
  -2   9   0    3.52    0.30
  -2   9   0    2.93    0.29
  -1   9   0    0.14    0.09
   0   9   0  101.45    2.84
   1   9   0    1.64    0.23
  -2  -9   0    3.15    0.30
  -2  -9   0    3.11    0.24
   2   9   0    3.22    0.29
   2   9   0    3.18    0.31
  -3  -9   0   52.92    1.49
  -3  -9   0   48.11    1.62
   3   9   0   48.55    1.64
   3   9   0   51.40    1.53
  -4  -9   0    0.17    0.12
  -4  -9   0    0.37    0.12
   4   9   0    0.54    0.12
  -5  -9   0    0.20    0.10
   5   9   0    0.15    0.06
  -2  10   0   21.43    0.90
  -1  10   0    4.30    0.36
   0  10   0    0.84    0.19
   1  10   0   29.36    1.12
   2  10   0   19.64    0.80
   3  10   0   16.46    0.67
   1  10  -1   30.86    1.09
   0  10  -1    1.42    0.24
  -1  10  -1   10.89    0.59
  -4  -9   1   50.52    1.47
  -4  -9   1   45.41    1.59
   3   9  -1   19.42    0.65
  -3  -9   1   19.67    0.72
  -3  -9   1   19.27    0.84
   2   9  -1   32.81    1.05
  -2  -9   1   30.55    1.13
  -2  -9   1   32.37    1.01
   1   9  -1   17.14    0.75
   1   9  -1   18.40    0.75
  -1  -9   1   18.17    0.64
  -1  -9   1   17.19    0.73
   0   9  -1   32.17    1.14
  -1   9  -1    5.01    0.36
  -2   9  -1    1.40    0.22
  -3   9  -1   20.15    0.83
  -3   9  -1   19.86    0.83
  -4   9  -1    3.07    0.30
   4  -9   1    3.13    0.32
  -6  -8   1    0.80    0.18
  -5  -8   1   21.39    0.79
  -4  -8   1    0.09    0.08
   3   8  -1    2.00    0.24
   3   8  -1    1.81    0.16
  -3  -8   1    2.20    0.20
  -3  -8   1    1.77    0.26
   2   8  -1   97.65    2.62
   2   8  -1   95.02    2.70
  -2  -8   1   96.66    2.70
  -2  -8   1   99.43    2.56
   1   8  -1    1.78    0.22
   1   8  -1    1.39    0.19
  -1  -8   1    1.49    0.15
  -1  -8   1    1.89    0.20
   0   8  -1    0.57    0.14
   0  -8   1    1.27    0.19
   0  -8   1    0.53    0.11
  -1   8  -1  118.60    3.20
  -2   8  -1    4.44    0.32
  -2   8  -1    4.16    0.31
  -3   8  -1    7.96    0.45
   3  -8   1    8.28    0.41
  -4   8  -1   75.74    2.20
   4  -8   1   76.98    2.15
  -5   8  -1   15.16    0.68
   5  -8   1   15.39    0.65
   5  -8   1   14.47    0.66
  -7  -7   1    1.28    0.20
  -7  -7   1    1.35    0.20
  -6  -7   1    1.69    0.22
   5   7  -1   12.08    0.63
  -5  -7   1   11.78    0.51
   4   7  -1    6.50    0.42
   4   7  -1    6.45    0.23
  -4  -7   1    6.87    0.34
   3   7  -1    4.03    0.23
   3   7  -1    4.37    0.32
  -3  -7   1    4.24    0.25
   2   7  -1    0.17    0.08
   2   7  -1    0.03    0.06
  -2  -7   1    0.04    0.05
  -2  -7   1    0.01    0.06
   1   7  -1   35.26    1.16
   1   7  -1   35.19    1.13
  -1  -7   1   35.81    1.02
  -1  -7   1   36.81    1.13
   0   7  -1    2.69    0.23
   0   7  -1    2.75    0.22
   0  -7   1    2.87    0.22
   0  -7   1    2.98    0.18
  -1   7  -1   34.23    1.09
  -1   7  -1   33.37    1.08
  -1   7  -1   34.21    1.08
   1  -7   1   34.22    0.98
   1  -7   1   34.37    1.05
  -2   7  -1   60.72    1.77
   2  -7   1   63.16    1.70
  -3   7  -1    0.73    0.14
   3  -7   1    0.65    0.12
  -4   7  -1   45.35    1.38
   4  -7   1   43.44    1.36
   4  -7   1   43.81    1.34
  -5   7  -1   25.27    0.90
   5  -7   1   24.15    0.88
   5  -7   1   23.67    0.87
   6  -7   1    2.65    0.26
   6  -7   1    2.60    0.25
   7  -7   1   21.80    0.85
  -8  -6   1   41.43    1.55
  -8  -6   1   43.54    1.34
  -7  -6   1   52.09    1.56
  -7  -6   1   53.82    1.57
   6   6  -1   23.88    0.99
  -6  -6   1   24.52    0.85
   5   6  -1   82.96    2.42
  -5  -6   1   82.65    2.23
   4   6  -1   44.27    1.41
  -4  -6   1   43.30    1.25
   3   6  -1   30.33    0.88
   3   6  -1   29.54    1.01
  -3  -6   1   29.99    0.88
   2   6  -1   58.85    1.66
   2   6  -1   59.65    1.70
  -2  -6   1   60.86    1.58
   1   6  -1   27.07    0.89
   1   6  -1   27.13    0.92
  -1  -6   1   28.33    0.89
  -1  -6   1   27.56    0.80
   0   6  -1   14.74    0.57
   0   6  -1   15.12    0.56
   0  -6   1   14.74    0.48
   0  -6   1   15.06    0.54
   0  -6   1   14.96    0.48
  -1   6  -1    9.41    0.42
  -1   6  -1    9.14    0.42
  -1   6  -1    9.38    0.42
   1  -6   1    9.16    0.35
   1  -6   1    9.57    0.40
   1  -6   1   10.53    0.38
  -2   6  -1    8.73    0.41
  -2   6  -1    8.89    0.41
   2  -6   1    9.36    0.38
   2  -6   1    9.34    0.45
   2  -6   1    9.18    0.35
   2  -6   1    9.08    0.38
  -3   6  -1   27.29    0.89
   3  -6   1   26.79    0.88
   3  -6   1   27.29    0.86
  -4   6  -1   15.74    0.61
   4  -6   1   15.04    0.60
   4  -6   1   15.23    0.59
  -5   6  -1    0.25    0.09
   5  -6   1    0.34    0.10
   5  -6   1    0.28    0.09
   6  -6   1    5.68    0.35
   6  -6   1    5.64    0.36
   7  -6   1   27.31    1.01
   7  -6   1   27.65    0.98
   8  -6   1    0.10    0.08
  -8  -5   1    3.73    0.39
  -8  -5   1    3.77    0.29
  -7  -5   1    2.70    0.23
  -7  -5   1    2.44    0.31
   6   5  -1    0.39    0.14
  -6  -5   1    0.36    0.10
   5   5  -1   87.51    2.37
  -5  -5   1   74.17    2.15
   4   5  -1    0.51    0.14
  -4  -5   1    0.50    0.10
   3   5  -1    5.07    0.22
   3   5  -1    4.91    0.31
  -3  -5   1    4.87    0.23
   2   5  -1  221.53    5.69
   2   5  -1  234.90    5.80
  -2  -5   1  224.89    5.64
  -2  -5   1  224.82    5.53
   1   5  -1    7.21    0.33
   1   5  -1    7.30    0.36
  -1  -5   1    7.13    0.27
  -1  -5   1    7.67    0.33
  -1  -5   1    6.60    0.29
  -1  -5   1    7.15    0.24
   0   5  -1    2.89    0.19
   0   5  -1    3.05    0.20
   0  -5   1    2.96    0.18
   0  -5   1    2.95    0.15
   0  -5   1    2.82    0.15
  -1   5  -1  313.12    7.84
  -1   5  -1  308.33    8.17
   1  -5   1  325.42    7.71
   1  -5   1  310.90    7.67
   1  -5   1  308.93    7.85
   1  -5   1  313.36    7.78
  -2   5  -1   41.16    1.19
  -2   5  -1   40.56    1.19
   2  -5   1   41.52    1.15
   2  -5   1   41.72    1.15
   2  -5   1   41.03    1.11
   2  -5   1   41.19    1.18
  -3   5  -1    4.29    0.24
  -3   5  -1    3.23    0.22
   3  -5   1    3.34    0.22
   3  -5   1    3.39    0.22
   3  -5   1    3.50    0.20
  -4   5  -1  171.04    4.32
   4  -5   1  169.21    4.31
   4  -5   1  169.74    4.31
  -5   5  -1   39.30    1.20
   5  -5   1   40.13    1.20
   5  -5   1   38.47    1.20
   6  -5   1   10.00    0.48
   6  -5   1   10.26    0.47
   7  -5   1   39.30    1.29
   7  -5   1   40.10    1.25
   8  -5   1   36.17    1.27
   8  -5   1   37.66    1.21
  -9  -4   1    2.65    0.34
  -9  -4   1    2.51    0.25
  -8  -4   1   39.15    1.45
  -8  -4   1   41.28    1.26
   7   4  -1    0.18    0.11
  -7  -4   1   -0.01    0.10
  -7  -4   1    0.06    0.07
   6   4  -1    5.47    0.39
  -6  -4   1    5.78    0.31
  -6  -4   1    5.01    0.39
  -6  -4   1    5.37    0.30
   5   4  -1   67.72    1.97
  -5  -4   1   63.00    1.78
   4   4  -1    2.43    0.23
  -4  -4   1    2.56    0.17
   3   4  -1    3.63    0.15
   3   4  -1    3.55    0.14
   3   4  -1    3.32    0.24
  -3  -4   1    3.45    0.18
   2   4  -1   10.08    0.31
   2   4  -1    9.70    0.40
   2   4  -1    9.34    0.35
  -2  -4   1    8.95    0.31
   1   4  -1   95.65    2.42
   1   4  -1   98.22    2.42
   1   4  -1   90.61    2.44
  -1  -4   1   90.94    2.33
  -1  -4   1   96.65    2.46
  -1  -4   1   94.35    2.39
  -1  -4   1   95.44    2.30
  -1  -4   1   89.46    2.39
   0   4  -1   10.84    0.38
   0   4  -1   10.44    0.38
   0   4  -1   10.33    0.39
   0  -4   1   10.36    0.37
   0  -4   1   10.14    0.33
   0  -4   1   10.50    0.37
   0  -4   1   10.78    0.33
   0  -4   1   10.64    0.37
   0  -4   1   10.17    0.32
  -1   4  -1   54.20    1.46
  -1   4  -1   53.08    1.45
   1  -4   1   55.20    1.42
   1  -4   1   56.37    1.46
   1  -4   1   54.33    1.44
   1  -4   1   55.70    1.43
   1  -4   1   51.95    1.39
  -2   4  -1   50.49    1.39
  -2   4  -1   52.07    1.32
  -2   4  -1   50.46    1.38
   2  -4   1   50.85    1.35
   2  -4   1   50.74    1.32
   2  -4   1   51.44    1.37
   2  -4   1   50.69    1.38
  -3   4  -1    3.68    0.18
  -3   4  -1    3.82    0.22
  -3   4  -1    3.75    0.22
   3  -4   1    3.86    0.20
   3  -4   1    3.89    0.21
   3  -4   1    3.63    0.17
   3  -4   1    3.79    0.21
  -4   4  -1  101.29    2.60
  -4   4  -1   96.51    2.50
  -4   4  -1   99.75    2.59
   4  -4   1   98.87    2.59
   4  -4   1   99.76    2.58
  -5   4  -1    5.93    0.31
   5  -4   1    5.94    0.32
   5  -4   1    6.12    0.31
   6  -4   1    2.13    0.20
   6  -4   1    2.35    0.19
   7  -4   1   32.13    1.03
   7  -4   1   32.05    1.08
   8  -4   1    1.75    0.19
   8  -4   1    1.60    0.24
   9  -4   1    0.14    0.09
  -9  -3   1   15.49    0.64
  -9  -3   1   16.08    0.82
  -8  -3   1   48.83    1.45
  -8  -3   1   49.12    1.67
  -7  -3   1   30.60    1.15
  -7  -3   1   30.91    0.98
  -6  -3   1   21.45    0.72
  -6  -3   1   20.93    0.85
  -5  -3   1  102.55    2.65
  -5  -3   1  102.04    2.64
  -4  -3   1   88.59    2.29
   3   3  -1   13.79    0.37
   3   3  -1   14.05    0.54
   3   3  -1   12.98    0.54
   3   3  -1   14.19    0.37
  -3  -3   1   14.12    0.47
  -3  -3   1   13.58    0.43
   2   3  -1  173.83    4.21
   2   3  -1  170.08    4.23
   2   3  -1  166.44    4.19
   2   3  -1  169.54    4.24
  -2  -3   1  174.30    4.16
  -2  -3   1  159.63    4.20
   1   3  -1  126.02    3.32
   1   3  -1  132.20    3.46
   1   3  -1  126.08    3.34
  -1  -3   1  143.37    3.41
  -1  -3   1  143.83    3.31
  -1  -3   1  133.99    3.37
   0   3  -1   15.00    0.47
   0   3  -1   15.61    0.47
   0   3  -1   14.87    0.47
   0  -3   1   15.17    0.46
   0  -3   1   14.20    0.42
   0  -3   1   14.95    0.45
   0  -3   1   14.80    0.42
   0  -3   1   15.45    0.43
  -1   3  -1   82.34    2.10
  -1   3  -1   85.46    2.10
  -1   3  -1   81.30    2.09
   1  -3   1   82.60    2.07
   1  -3   1   81.87    2.07
   1  -3   1   85.37    2.10
   1  -3   1   77.79    2.04
   1  -3   1   83.48    2.08
  -2   3  -1   11.48    0.39
  -2   3  -1   11.46    0.35
  -2   3  -1   11.24    0.39
   2  -3   1   11.16    0.38
   2  -3   1   11.41    0.38
   2  -3   1   11.48    0.35
   2  -3   1   11.17    0.36
  -3   3  -1   25.93    0.74
   3  -3   1   26.74    0.74
   3  -3   1   27.14    0.79
   3  -3   1   27.79    0.76
   3  -3   1   27.52    0.80
  -4   3  -1   22.85    0.73
  -4   3  -1   23.34    0.67
  -4   3  -1   23.68    0.73
   4  -3   1   23.60    0.72
   4  -3   1   22.67    0.66
   4  -3   1   24.03    0.74
   4  -3   1   23.02    0.69
  -5   3  -1    1.07    0.10
  -5   3  -1    0.97    0.12
   5  -3   1    1.25    0.13
   5  -3   1    0.74    0.12
  -6   3  -1    0.07    0.05
   6  -3   1    0.04    0.05
   6  -3   1    0.21    0.09
   7  -3   1   73.82    2.03
   7  -3   1   74.99    2.09
   8  -3   1    0.02    0.07
   8  -3   1    0.05    0.06
   9  -3   1    0.97    0.16
   9  -3   1    0.92    0.19
  -9  -2   1    6.35    0.50
  -9  -2   1    6.07    0.36
  -8  -2   1   24.34    0.82
  -8  -2   1   23.85    1.00
  -7  -2   1    7.99    0.49
  -7  -2   1    8.14    0.38
  -6  -2   1    5.91    0.38
  -6  -2   1    5.80    0.29
  -5  -2   1  169.71    4.45
  -5  -2   1  188.44    4.63
   4   2  -1   26.29    0.70
   4   2  -1   24.58    0.84
  -4  -2   1   25.30    0.75
  -4  -2   1   26.05    0.76
  -4  -2   1   25.17    0.86
   3   2  -1   42.15    1.25
   3   2  -1   45.76    1.11
  -3  -2   1   42.67    1.19
  -3  -2   1   44.30    1.16
   2   2  -1  241.83    6.56
   2   2  -1  260.54    6.36
   2   2  -1  269.56    6.62
   2   2  -1  273.89    6.36
  -2  -2   1  263.13    6.57
  -2  -2   1  258.41    6.46
   1   2  -1   21.10    0.59
   1   2  -1   21.49    0.60
   1   2  -1   20.98    0.56
   1   2  -1   21.16    0.54
  -1  -2   1   20.07    0.54
  -1  -2   1   21.28    0.53
  -1  -2   1   21.62    0.58
   0   2  -1    1.24    0.09
   0  -2   1    1.20    0.07
   0  -2   1    1.10    0.06
   0  -2   1    1.46    0.08
  -1   2  -1  603.67   15.15
  -1   2  -1  626.36   19.88
  -1   2  -1  608.79   15.15
   1  -2   1  588.01   14.93
   1  -2   1  607.41   15.07
   1  -2   1  624.82   15.14
   1  -2   1  620.80   15.11
   1  -2   1  619.45   15.17
  -2   2  -1   15.80    0.48
  -2   2  -1   16.71    0.48
  -2   2  -1   15.57    0.44
   2  -2   1   15.92    0.46
   2  -2   1   16.22    0.48
   2  -2   1   16.34    0.48
   2  -2   1   16.08    0.45
  -3   2  -1   12.97    0.43
  -3   2  -1   13.36    0.39
  -3   2  -1   13.74    0.44
   3  -2   1   12.92    0.44
   3  -2   1   13.18    0.43
   3  -2   1   13.22    0.39
  -4   2  -1  371.62    9.27
  -4   2  -1  360.34    9.02
  -4   2  -1  358.79    9.14
   4  -2   1  363.31    9.19
   4  -2   1  369.67    9.35
   4  -2   1  369.82    9.12
   4  -2   1  365.19    9.42
  -5   2  -1   68.79    1.76
  -5   2  -1   70.21    1.87
  -5   2  -1   66.82    1.83
   5  -2   1   67.84    1.83
   5  -2   1   68.11    1.81
  -6   2  -1   24.15    0.83
  -6   2  -1   24.51    0.72
   6  -2   1   23.93    0.80
   6  -2   1   23.70    0.76
  -7   2  -1   91.21    2.49
  -7   2  -1   88.91    2.33
   7  -2   1   90.17    2.45
   7  -2   1   89.64    2.38
  -8   2  -1   46.73    1.33
  -8   2  -1   47.00    1.51
   8  -2   1   46.80    1.45
   8  -2   1   47.21    1.37
  -9   2  -1   16.81    0.77
   9  -2   1   15.42    0.61
   9  -2   1   15.66    0.70
 -10   2  -1    4.54    0.42
  10  -2   1    5.22    0.39
  10  -2   1    4.63    0.30
  -9  -1   1    4.62    0.42
  -9  -1   1    4.17    0.28
  -8  -1   1   92.02    2.46
  -8  -1   1   93.46    2.70
  -7  -1   1    0.42    0.15
  -7  -1   1    0.47    0.10
  -6  -1   1    9.57    0.48
  -6  -1   1   10.02    0.38
   5   1  -1   47.67    1.20
   5   1  -1   49.21    1.31
   5   1  -1   49.47    1.22
  -5  -1   1   49.75    1.31
  -5  -1   1   47.86    1.43
   4   1  -1   22.39    0.64
   4   1  -1   21.35    0.67
   4   1  -1   21.48    0.56
   4   1  -1   22.51    0.57
  -4  -1   1   22.81    0.73
  -4  -1   1   22.06    0.74
  -4  -1   1   22.24    0.65
   3   1  -1    6.70    0.27
   3   1  -1    6.63    0.22
  -3  -1   1    5.92    0.24
  -3  -1   1    6.59    0.29
  -3  -1   1    6.55    0.30
  -3  -1   1    6.07    0.24
   2   1  -1    3.24    0.18
   2   1  -1    3.46    0.13
  -2  -1   1    3.59    0.17
  -2  -1   1    3.84    0.15
   1   1  -1   73.76    1.71
   1   1  -1   59.68    1.63
   1   1  -1   66.95    1.64
  -1  -1   1   66.53    1.67
  -1  -1   1   59.82    1.61
  -1  -1   1   64.43    1.61
   0   1  -1   23.25    0.61
   0   1  -1   22.06    0.59
   0   1  -1   22.63    0.59
   0   1  -1   24.01    0.59
   0  -1   1   23.83    0.59
   0  -1   1   22.43    0.57
   0  -1   1   23.02    0.59
  -1   1  -1   51.29    1.28
  -1   1  -1   51.84    1.29
  -1   1  -1   50.34    1.27
   1  -1   1   50.96    1.28
   1  -1   1   51.09    1.26
   1  -1   1   51.40    1.25
  -2   1  -1   31.37    0.84
  -2   1  -1   31.49    0.84
   2  -1   1   31.94    0.81
   2  -1   1   32.97    0.84
   2  -1   1   30.90    0.82
   2  -1   1   31.38    0.84
  -3   1  -1  116.43    2.91
  -3   1  -1  112.13    2.81
  -3   1  -1  117.31    2.86
  -3   1  -1  114.08    2.86
   3  -1   1  114.49    2.81
   3  -1   1  113.71    2.87
   3  -1   1  114.99    2.98
   3  -1   1  114.73    2.92
  -4   1  -1   99.05    2.58
  -4   1  -1  100.32    2.51
  -4   1  -1  100.86    2.58
  -4   1  -1  104.91    2.58
   4  -1   1  101.23    2.55
   4  -1   1  100.51    2.57
  -5   1  -1    3.27    0.21
  -5   1  -1    3.23    0.17
  -5   1  -1    3.95    0.22
  -5   1  -1    3.32    0.22
   5  -1   1    3.38    0.20
   5  -1   1    3.32    0.19
  -6   1  -1   18.46    0.67
  -6   1  -1   18.42    0.58
   6  -1   1   18.80    0.65
   6  -1   1   19.18    0.62
  -7   1  -1   28.73    0.99
  -7   1  -1   29.32    0.87
   7  -1   1   29.37    0.94
   7  -1   1   29.08    0.89
  -8   1  -1   13.53    0.50
  -8   1  -1   13.64    0.63
   8  -1   1   13.35    0.57
   8  -1   1   13.11    0.51
  -9   1  -1    4.94    0.39
  -9   1  -1    4.59    0.28
   9  -1   1    4.46    0.27
   9  -1   1    4.36    0.33
 -10   1  -1   13.38    0.72
  10  -1   1   13.43    0.54
  -9   0   1   13.19    0.70
  -9   0   1   12.10    0.51
  -8   0   1   44.59    1.48
  -8   0   1   42.39    1.25
   7   0  -1   18.63    0.53
   7   0  -1   20.16    0.75
  -7   0   1   19.74    0.79
  -7   0   1   19.40    0.63
   6   0  -1    4.13    0.24
   6   0  -1    4.05    0.17
  -6   0   1    4.63    0.22
  -6   0   1    4.15    0.30
   5   0  -1  150.27    4.22
   5   0  -1  172.22    4.12
   5   0  -1  169.84    4.08
  -5   0   1  163.99    4.07
  -5   0   1  169.43    4.21
   4   0  -1   69.62    1.80
   4   0  -1   68.17    1.79
   4   0  -1   70.93    1.73
   4   0  -1   70.23    1.80
  -4   0   1   68.47    1.76
  -4   0   1   70.50    1.82
  -4   0   1   70.16    1.87
   3   0  -1    1.43    0.10
   3   0  -1    1.61    0.09
   3   0  -1    1.58    0.07
   3   0  -1    1.61    0.10
  -3   0   1    1.51    0.09
  -3   0   1    1.45    0.12
  -3   0   1    1.47    0.10
   2   0  -1   86.68    2.13
   2   0  -1   83.65    2.27
   2   0  -1   87.09    2.22
  -2   0   1   87.28    2.19
  -2   0   1   90.21    2.15
  -2   0   1   87.85    2.18
   1   0  -1   15.79    0.42
   1   0  -1   15.64    0.41
  -1   0   1   15.00    0.40
  -1   0   1   16.14    0.44
  -1   0   1   16.23    0.41
   0   0   1    1.60    0.08
  -1   0  -1    1.73    0.08
   1   0   1    1.76    0.08
   1   0   1    1.61    0.07
  -2   0  -1   13.71    0.39
  -2   0  -1   14.00    0.40
  -2   0  -1   13.94    0.38
  -2   0  -1   13.33    0.40
   2   0   1   14.10    0.40
   2   0   1   13.84    0.40
   2   0   1   13.41    0.40
  -3   0  -1    1.26    0.07
  -3   0  -1    1.59    0.09
  -3   0  -1    1.14    0.09
  -3   0  -1    1.30    0.10
   3   0   1    1.35    0.10
   3   0   1    1.25    0.09
   3   0   1    1.30    0.09
  -4   0  -1   76.28    1.96
  -4   0  -1   77.40    2.02
  -4   0  -1   82.11    2.05
  -4   0  -1   78.46    2.02
   4   0   1   80.51    2.00
   4   0   1   74.99    2.01
   4   0   1   79.22    2.00
  -5   0  -1    0.39    0.07
  -5   0  -1    0.51    0.11
  -5   0  -1    0.77    0.11
  -5   0  -1    0.76    0.12
   5   0   1    0.56    0.09
   5   0   1    0.66    0.08
  -6   0  -1    3.27    0.24
  -6   0  -1    3.20    0.18
   6   0   1    2.96    0.18
   6   0   1    2.62    0.19
  -7   0  -1   90.25    2.31
  -7   0  -1   90.07    2.45
   7   0   1   86.38    2.35
   7   0   1   87.60    2.31
  -8   0  -1    0.20    0.11
  -8   0  -1    0.27    0.09
   8   0   1    0.30    0.08
   8   0   1    0.27    0.09
  -9   0  -1    0.88    0.15
  -9   0  -1    0.98    0.23
   9   0   1    0.79    0.13
 -10   0  -1   56.15    1.87
 -10   0  -1   58.42    1.67
  10   0   1   54.84    1.57
  -9   1   1    8.24    0.54
  -9   1   1    8.41    0.39
   8  -1  -1   25.01    0.97
   8  -1  -1   24.04    0.70
  -8   1   1   27.85    1.03
  -8   1   1   25.79    0.81
   7  -1  -1   33.21    1.05
   7  -1  -1   31.86    0.90
  -7   1   1   33.76    0.96
  -7   1   1   33.11    1.13
   6  -1  -1   19.40    0.58
   6  -1  -1   18.55    0.66
  -6   1   1   19.46    0.73
  -6   1   1   20.34    0.61
   5  -1  -1  177.96    4.46
   5  -1  -1  179.19    4.52
  -5   1   1  183.83    4.59
  -5   1   1  183.62    4.45
   4  -1  -1   62.47    1.67
   4  -1  -1   62.66    1.66
   4  -1  -1   64.50    1.61
  -4   1   1   64.08    1.66
  -4   1   1   63.91    1.71
  -4   1   1   63.04    1.60
   3  -1  -1   83.22    2.05
   3  -1  -1   71.12    2.07
   3  -1  -1   84.77    2.10
  -3   1   1   87.77    2.09
  -3   1   1   84.25    2.13
  -3   1   1   85.27    2.04
   2  -1  -1  510.76   12.52
   2  -1  -1  490.06   12.66
   2  -1  -1  506.47   12.62
  -2   1   1  523.10   12.46
  -2   1   1  500.70   12.73
  -2   1   1  523.95   12.62
   1  -1  -1   38.12    0.99
   1  -1  -1   39.06    0.98
   1  -1  -1   39.63    0.99
  -1   1   1   39.95    1.01
  -1   1   1   39.64    0.97
  -1   1   1   40.08    0.99
   0  -1  -1   11.92    0.32
   0  -1  -1   10.88    0.32
   0  -1  -1   11.51    0.32
   0   1   1   11.77    0.31
   0   1   1   11.59    0.32
  -1  -1  -1  760.28   17.97
  -1  -1  -1  703.81   22.12
  -1  -1  -1  703.83   22.85
  -1  -1  -1  693.48   20.21
   1   1   1  775.85   20.53
  -2  -1  -1   91.20    2.23
  -2  -1  -1   82.88    2.24
   2   1   1   87.85    2.22
   2   1   1   89.20    2.23
   2   1   1   90.14    2.23
  -3  -1  -1   13.69    0.47
  -3  -1  -1   13.50    0.45
  -3  -1  -1   13.68    0.43
  -3  -1  -1   13.76    0.41
   3   1   1   13.81    0.40
   3   1   1   13.72    0.45
   3   1   1   13.76    0.42
  -4  -1  -1  349.93    8.72
  -4  -1  -1  359.78    9.05
  -4  -1  -1  336.78    8.90
  -4  -1  -1  341.21    8.60
   4   1   1  358.06    8.80
   4   1   1  347.25    9.01
   4   1   1  348.70    8.83
  -5  -1  -1   63.43    1.65
  -5  -1  -1   61.45    1.72
  -5  -1  -1   62.32    1.72
  -5  -1  -1   66.16    1.77
   5   1   1   61.57    1.64
   5   1   1   64.32    1.65
  -6  -1  -1   19.05    0.61
  -6  -1  -1   18.75    0.68
   6   1   1   18.26    0.60
   6   1   1   18.89    0.60
  -7  -1  -1   64.44    1.72
  -7  -1  -1   64.97    1.85
   7   1   1   61.73    1.72
   7   1   1   62.58    1.69
  -8  -1  -1   29.27    1.06
  -8  -1  -1   29.09    0.92
   8   1   1   28.61    0.88
  -9  -1  -1   33.94    1.24
  -9  -1  -1   33.65    1.07
   9   1   1   34.07    1.01
 -10  -1  -1    2.15    0.23
 -10  -1  -1    2.59    0.33
  10   1   1    1.74    0.15
  -9   2   1    3.41    0.35
  -9   2   1    2.73    0.22
   8  -2  -1   82.91    2.16
   8  -2  -1   84.56    2.36
  -8   2   1   81.91    2.20
  -8   2   1   85.18    2.45
   7  -2  -1    1.31    0.12
   7  -2  -1    1.70    0.18
  -7   2   1    1.51    0.14
  -7   2   1    1.80    0.26
   6  -2  -1    1.56    0.16
   6  -2  -1    1.43    0.12
  -6   2   1    1.52    0.19
  -6   2   1    1.33    0.12
   5  -2  -1   49.19    1.33
   5  -2  -1   50.64    1.40
  -5   2   1   49.20    1.31
  -5   2   1   50.08    1.43
   4  -2  -1    2.05    0.15
   4  -2  -1    2.09    0.13
  -4   2   1    2.13    0.12
  -4   2   1    2.73    0.24
  -4   2   1    2.41    0.16
  -4   2   1    2.00    0.16
   3  -2  -1    4.06    0.18
   3  -2  -1    3.77    0.18
   3  -2  -1    3.88    0.20
  -3   2   1    3.94    0.21
  -3   2   1    3.92    0.16
  -3   2   1    3.82    0.18
  -3   2   1    3.85    0.18
   2  -2  -1    7.62    0.28
   2  -2  -1    7.33    0.26
   2  -2  -1    7.64    0.27
  -2   2   1    7.75    0.29
  -2   2   1    7.46    0.24
  -2   2   1    7.62    0.27
  -2   2   1    8.47    0.35
   1  -2  -1    8.51    0.28
   1  -2  -1    8.21    0.27
   1  -2  -1    8.53    0.28
   1  -2  -1    8.69    0.28
  -1   2   1    8.44    0.27
  -1   2   1    8.44    0.25
   0  -2  -1    8.54    0.26
   0  -2  -1    8.11    0.25
   0  -2  -1    8.82    0.27
   0  -2  -1    8.38    0.27
   0  -2  -1    8.77    0.27
   0   2   1    8.55    0.27
   0   2   1    8.64    0.26
   0   2   1    8.19    0.27
  -1  -2  -1   56.70    1.57
  -1  -2  -1   62.49    1.57
  -1  -2  -1   62.73    1.58
  -1  -2  -1   60.19    1.51
  -1  -2  -1   62.49    1.56
   1   2   1   61.75    1.58
   1   2   1   62.28    1.58
   1   2   1   61.65    1.56
  -2  -2  -1   13.12    0.40
  -2  -2  -1   13.57    0.44
  -2  -2  -1   11.83    0.44
   2   2   1   13.13    0.35
   2   2   1   12.83    0.43
   2   2   1   12.56    0.46
  -3  -2  -1   89.46    2.35
  -3  -2  -1   87.45    2.26
  -3  -2  -1   89.02    2.26
  -3  -2  -1   90.21    2.34
   3   2   1   93.54    2.27
   3   2   1   94.11    2.21
   3   2   1   82.51    2.34
  -4  -2  -1  135.04    3.47
  -4  -2  -1  139.37    3.51
  -4  -2  -1  136.09    3.53
  -4  -2  -1  123.84    3.41
   4   2   1  136.72    3.51
   4   2   1  141.62    3.35
   4   2   1  144.22    3.47
  -5  -2  -1    7.43    0.39
  -5  -2  -1    8.21    0.38
  -5  -2  -1    7.65    0.33
   5   2   1    8.99    0.32
   5   2   1    8.47    0.29
  -6  -2  -1   55.97    1.61
  -6  -2  -1   54.33    1.51
   6   2   1   55.57    1.48
   6   2   1   54.26    1.46
  -7  -2  -1   43.71    1.26
  -7  -2  -1   42.22    1.36
   7   2   1   43.27    1.20
  -8  -2  -1   29.62    1.09
  -8  -2  -1   29.61    0.97
   8   2   1   31.53    0.91
  -9  -2  -1   28.51    1.12
  -9  -2  -1   29.16    0.97
   9   2   1   29.42    0.87
 -10  -2  -1   12.12    0.70
 -10  -2  -1   12.77    0.58
  10   2   1   12.33    0.43
   9  -3  -1    1.96    0.28
   9  -3  -1    2.19    0.16
  -9   3   1    1.86    0.18
  -9   3   1    1.87    0.32
   8  -3  -1   33.43    1.14
   8  -3  -1   31.80    0.97
  -8   3   1   32.05    0.98
  -8   3   1   33.09    1.19
   7  -3  -1    7.73    0.42
   7  -3  -1    8.20    0.35
  -7   3   1    7.67    0.45
  -7   3   1    7.60    0.33
   6  -3  -1    6.45    0.35
   6  -3  -1    6.39    0.29
  -6   3   1    6.21    0.37
  -6   3   1    5.83    0.27
   5  -3  -1   86.91    2.36
   5  -3  -1   90.10    2.30
  -5   3   1   90.10    2.26
  -5   3   1   88.04    2.39
   4  -3  -1    9.99    0.41
   4  -3  -1   10.26    0.37
  -4   3   1    9.92    0.42
  -4   3   1   10.12    0.34
   3  -3  -1    9.82    0.36
   3  -3  -1    9.60    0.37
   3  -3  -1    9.67    0.35
  -3   3   1    9.54    0.31
  -3   3   1    9.64    0.36
  -3   3   1    9.94    0.36
   2  -3  -1    8.05    0.31
   2  -3  -1    9.65    0.32
   2  -3  -1    8.00    0.31
   2  -3  -1    8.45    0.31
  -2   3   1    7.99    0.31
  -2   3   1    8.08    0.30
   1  -3  -1    2.83    0.14
   1  -3  -1    2.39    0.13
   1  -3  -1    2.36    0.13
   1  -3  -1    2.39    0.12
  -1   3   1    2.46    0.14
  -1   3   1    2.41    0.13
  -1   3   1    2.24    0.11
   0  -3  -1   84.16    2.09
   0  -3  -1   84.15    2.11
   0  -3  -1   86.29    2.12
   0  -3  -1   83.68    2.08
   0  -3  -1   82.45    2.07
   0  -3  -1   82.08    2.13
   0   3   1   84.64    2.11
   0   3   1   84.31    2.12
   0   3   1   83.39    2.07
  -1  -3  -1    3.01    0.13
  -1  -3  -1    2.98    0.17
  -1  -3  -1    3.24    0.16
  -1  -3  -1    3.00    0.15
  -1  -3  -1    2.83    0.12
   1   3   1    3.05    0.17
   1   3   1    2.84    0.18
   1   3   1    3.06    0.17
  -2  -3  -1    4.73    0.16
  -2  -3  -1    4.89    0.23
  -2  -3  -1    4.54    0.19
  -2  -3  -1    4.40    0.23
   2   3   1    4.79    0.25
   2   3   1    4.65    0.24
   2   3   1    4.77    0.26
   2   3   1    4.90    0.17
  -3  -3  -1   45.63    1.26
  -3  -3  -1   44.98    1.20
  -3  -3  -1   40.29    1.25
   3   3   1   45.04    1.33
   3   3   1   44.70    1.31
   3   3   1   45.30    1.23
  -4  -3  -1   59.69    1.60
  -4  -3  -1   59.21    1.69
  -4  -3  -1   58.32    1.69
   4   3   1   60.71    1.72
   4   3   1   62.72    1.60
   4   3   1   57.76    1.47
  -5  -3  -1   15.85    0.54
   5   3   1   15.06    0.51
  -6  -3  -1    2.77    0.21
  -6  -3  -1    2.79    0.26
   6   3   1    2.78    0.17
  -7  -3  -1   62.41    1.78
  -7  -3  -1   60.97    1.89
   7   3   1   68.69    1.72
  -8  -3  -1    1.15    0.23
  -8  -3  -1    1.07    0.17
   8   3   1    0.87    0.11
  -9  -3  -1    0.39    0.13
  -9  -3  -1    0.17    0.14
   9   3   1    0.30    0.07
 -10  -3  -1   46.02    1.49
 -10  -3  -1   50.83    1.71
   8  -4  -1   14.26    0.55
   8  -4  -1   14.28    0.66
  -8   4   1   14.05    0.53
   7  -4  -1   37.87    1.24
   7  -4  -1   38.04    1.14
  -7   4   1   38.65    1.11
   6  -4  -1   11.39    0.51
   6  -4  -1   11.36    0.46
  -6   4   1   11.93    0.43
   5  -4  -1  170.24    4.40
   5  -4  -1  172.57    4.34
  -5   4   1  176.29    4.29
   4  -4  -1   24.85    0.76
   4  -4  -1   24.18    0.79
  -4   4   1   24.66    0.71
   3  -4  -1    6.65    0.30
   3  -4  -1    6.76    0.29
  -3   4   1    6.69    0.30
  -3   4   1    6.20    0.25
  -3   4   1    7.09    0.30
   2  -4  -1  446.30   11.24
   2  -4  -1  437.45   11.18
   2  -4  -1  454.56   11.67
   2  -4  -1  456.85   11.49
   2  -4  -1  450.77   11.45
  -2   4   1  459.63   11.48
  -2   4   1  455.41   11.41
  -2   4   1  455.51   11.23
   1  -4  -1   32.70    0.91
   1  -4  -1   32.42    0.94
   1  -4  -1   33.53    0.90
   1  -4  -1   33.97    0.94
  -1   4   1   33.20    0.88
  -1   4   1   33.51    0.93
  -1   4   1   32.70    0.94
   0  -4  -1    3.55    0.16
   0  -4  -1    3.29    0.18
   0  -4  -1    3.21    0.15
   0  -4  -1    3.61    0.17
   0  -4  -1    3.25    0.18
   0  -4  -1    3.27    0.15
   0   4   1    3.18    0.18
   0   4   1    3.15    0.15
   0   4   1    3.18    0.18
  -1  -4  -1  509.16   12.91
  -1  -4  -1  525.77   12.79
  -1  -4  -1  509.38   12.80
  -1  -4  -1  496.53   12.54
  -1  -4  -1  502.42   12.64
  -1  -4  -1  517.08   12.95
   1   4   1  503.68   12.68
   1   4   1  520.96   13.01
   1   4   1  500.27   12.95
  -2  -4  -1   14.44    0.49
  -2  -4  -1   15.00    0.40
  -2  -4  -1   14.16    0.52
  -2  -4  -1   13.99    0.50
   2   4   1   13.45    0.52
   2   4   1   14.55    0.55
  -3  -4  -1    0.56    0.10
  -3  -4  -1    0.61    0.11
  -3  -4  -1    0.39    0.07
   3   4   1    0.19    0.07
   3   4   1    0.27    0.08
   3   4   1    0.43    0.11
  -4  -4  -1  256.45    6.50
  -4  -4  -1  247.44    6.29
   4   4   1  253.59    6.57
   4   4   1  263.72    6.49
  -5  -4  -1   16.37    0.57
   5   4   1   15.93    0.70
   5   4   1   15.77    0.55
  -6  -4  -1   11.18    0.45
   6   4   1   10.18    0.40
  -7  -4  -1   30.49    0.96
  -7  -4  -1   29.60    1.08
   7   4   1   28.91    0.88
  -8  -4  -1   21.21    0.90
  -8  -4  -1   22.57    0.79
   8   4   1   20.76    0.66
  -9  -4  -1   20.04    0.77
  -9  -4  -1   20.30    0.90
   9   4   1   18.45    0.57
 -10  -4  -1    0.70    0.22
 -10  -4  -1    0.65    0.16
   8  -5  -1   58.21    1.68
   7  -5  -1    0.27    0.09
   7  -5  -1    0.20    0.10
   6  -5  -1    0.58    0.11
   6  -5  -1    0.68    0.14
  -6   5   1    0.63    0.11
   5  -5  -1   64.69    1.79
   5  -5  -1   62.61    1.82
  -5   5   1   66.49    1.72
   4  -5  -1    6.58    0.32
   4  -5  -1    6.11    0.33
  -4   5   1    6.33    0.27
   3  -5  -1    6.22    0.30
   3  -5  -1    5.99    0.30
  -3   5   1    5.97    0.30
  -3   5   1    5.54    0.24
   2  -5  -1    0.81    0.12
   2  -5  -1    1.09    0.12
  -2   5   1    0.62    0.08
  -2   5   1    0.67    0.11
  -2   5   1    0.72    0.11
   1  -5  -1    0.01    0.04
   1  -5  -1    0.06    0.04
   1  -5  -1    0.12    0.06
   1  -5  -1    0.21    0.05
   1  -5  -1    0.01    0.04
  -1   5   1    0.14    0.06
   0  -5  -1   90.35    2.36
   0  -5  -1   89.45    2.28
   0  -5  -1   91.77    2.29
   0  -5  -1   93.73    2.36
   0  -5  -1   92.86    2.33
   0  -5  -1   90.80    2.30
   0   5   1   89.06    2.29
   0   5   1   89.74    2.36
   0   5   1   89.79    2.36
  -1  -5  -1   76.79    2.00
  -1  -5  -1   75.68    1.98
  -1  -5  -1   76.57    1.90
  -1  -5  -1   77.53    2.00
  -1  -5  -1   76.21    2.01
   1   5   1   75.37    2.03
   1   5   1   73.17    1.94
   1   5   1   74.77    2.02
  -2  -5  -1    6.63    0.31
  -2  -5  -1    6.57    0.32
  -2  -5  -1    6.29    0.32
  -2  -5  -1    6.74    0.22
   2   5   1    7.00    0.36
   2   5   1    7.12    0.35
  -3  -5  -1  100.49    2.62
  -3  -5  -1  100.73    2.70
  -3  -5  -1  102.12    2.73
   3   5   1  107.25    2.75
   3   5   1  105.67    2.80
  -4  -5  -1  115.34    2.94
   4   5   1  115.39    3.13
   4   5   1  113.68    2.99
  -5  -5  -1    9.23    0.42
   5   5   1    9.39    0.40
   5   5   1    9.86    0.53
  -6  -5  -1   93.24    2.46
  -6  -5  -1   90.97    2.45
   6   5   1   89.12    2.40
   6   5   1   95.41    2.68
  -7  -5  -1   51.57    1.67
  -7  -5  -1   53.67    1.53
   7   5   1   49.96    1.43
   7   5   1   54.76    1.75
  -8  -5  -1   29.01    0.95
  -8  -5  -1   26.79    1.06
   8   5   1   26.14    0.79
   8   5   1   27.40    1.11
  -9  -5  -1   30.18    1.03
  -9  -5  -1   29.20    1.17
   7  -6  -1    0.77    0.16
   7  -6  -1    1.01    0.17
   6  -6  -1   13.54    0.57
   6  -6  -1   13.20    0.60
   5  -6  -1   28.88    0.94
   5  -6  -1   27.53    0.95
   4  -6  -1    0.20    0.08
   4  -6  -1    0.20    0.08
   3  -6  -1   54.26    1.53
   3  -6  -1   53.22    1.52
  -3   6   1   53.66    1.53
   2  -6  -1   15.63    0.58
   2  -6  -1   14.61    0.57
   2  -6  -1   15.78    0.55
  -2   6   1   15.54    0.58
   1  -6  -1    0.16    0.07
   1  -6  -1    0.09    0.05
   1  -6  -1    0.08    0.04
   1  -6  -1    0.06    0.04
  -1   6   1    0.11    0.06
  -1   6   1    0.22    0.08
   0  -6  -1   89.91    2.51
   0  -6  -1   83.55    2.13
   0  -6  -1   81.72    2.13
   0  -6  -1   81.54    2.18
   0  -6  -1   83.98    2.22
   0  -6  -1   81.00    2.12
   0   6   1   83.19    2.23
   0   6   1   84.71    2.24
   0   6   1   80.65    2.22
  -1  -6  -1    1.05    0.09
  -1  -6  -1    1.42    0.13
  -1  -6  -1    0.85    0.12
  -1  -6  -1    1.14    0.13
  -1  -6  -1    0.97    0.12
   1   6   1    1.35    0.15
   1   6   1    0.98    0.15
  -2  -6  -1    1.77    0.17
  -2  -6  -1    1.52    0.17
  -2  -6  -1    1.58    0.13
   2   6   1    1.55    0.18
   2   6   1    1.62    0.19
  -3  -6  -1   37.17    1.17
  -3  -6  -1   37.38    1.07
   3   6   1   38.52    1.19
   3   6   1   37.83    1.23
  -4  -6  -1   25.49    0.80
  -4  -6  -1   25.47    0.90
   4   6   1   23.83    0.94
   4   6   1   26.14    0.87
  -5  -6  -1    8.67    0.41
   5   6   1    9.08    0.52
   5   6   1    8.21    0.39
  -6  -6  -1    5.15    0.31
   6   6   1    4.95    0.40
   6   6   1    4.93    0.28
  -7  -6  -1   39.64    1.22
  -7  -6  -1   40.20    1.22
   7   6   1   37.72    1.12
   7   6   1   40.42    1.42
  -8  -6  -1    5.41    0.43
  -8  -6  -1    5.17    0.34
   8   6   1    4.98    0.22
  -9  -6  -1    2.39    0.36
  -9  -6  -1    2.00    0.26
   7  -7  -1   15.75    0.67
   6  -7  -1   10.35    0.50
   6  -7  -1    9.56    0.52
   5  -7  -1   96.13    2.65
   5  -7  -1   96.43    2.64
   4  -7  -1   18.96    0.73
   4  -7  -1   19.22    0.72
   3  -7  -1    3.24    0.24
   3  -7  -1    3.83    0.27
  -3   7   1    2.99    0.24
   2  -7  -1  148.03    3.80
   2  -7  -1  147.23    3.75
  -2   7   1  145.51    3.81
   1  -7  -1   21.18    0.74
   1  -7  -1   21.03    0.68
  -1   7   1   20.75    0.75
   0  -7  -1    1.44    0.13
   0  -7  -1    1.33    0.16
   0  -7  -1    1.53    0.14
   0   7   1    1.67    0.18
   0   7   1    1.31    0.16
   0   7   1    1.53    0.17
  -1  -7  -1  177.98    4.40
   1   7   1  169.54    4.43
   1   7   1  169.92    4.44
  -2  -7  -1    2.33    0.22
  -2  -7  -1    2.11    0.17
  -2  -7  -1    1.95    0.21
   2   7   1    2.55    0.24
   2   7   1    2.06    0.22
  -3  -7  -1    2.20    0.18
  -3  -7  -1    2.28    0.22
   3   7   1    2.18    0.22
   3   7   1    2.25    0.24
  -4  -7  -1   76.19    2.15
  -4  -7  -1   75.70    2.05
   4   7   1   74.21    2.24
   4   7   1   76.86    2.13
  -5  -7  -1    3.10    0.29
  -5  -7  -1    3.23    0.25
   5   7   1    3.48    0.33
   5   7   1    3.23    0.24
  -6  -7  -1    0.41    0.12
   6   7   1    0.43    0.10
   6   7   1    0.57    0.18
  -7  -7  -1    8.83    0.45
  -7  -7  -1    8.56    0.44
   7   7   1    9.25    0.84
   7   7   1    8.40    0.36
  -8  -7  -1    3.81    0.29
   6  -8  -1    0.36    0.12
   5  -8  -1   33.48    1.14
   5  -8  -1   33.10    1.14
   4  -8  -1    6.83    0.39
   4  -8  -1    6.81    0.40
   3  -8  -1    6.96    0.38
   3  -8  -1    6.85    0.39
  -3   8   1    6.75    0.40
   2  -8  -1    0.13    0.07
   2  -8  -1    0.34    0.09
  -2   8   1    0.36    0.11
   1  -8  -1   13.84    0.53
   1  -8  -1   14.50    0.61
  -1   8   1   14.81    0.63
  -1   8   1   14.52    0.62
   0   8   1   43.42    1.37
   1   8   1   20.74    0.81
  -2  -8  -1   36.89    1.06
  -2  -8  -1   35.47    1.17
   2   8   1   34.15    1.18
   2   8   1   33.66    1.19
  -3  -8  -1   79.69    2.14
  -3  -8  -1   79.28    2.29
   3   8   1   79.76    2.27
   3   8   1   79.28    2.33
  -4  -8  -1   54.85    1.55
   4   8   1   53.96    1.61
   4   8   1   51.95    1.73
  -5  -8  -1   14.48    0.60
   5   8   1   13.51    0.72
   5   8   1   14.52    0.59
  -6  -8  -1   69.05    1.94
   6   8   1   66.20    2.26
   6   8   1   62.80    1.81
  -7  -8  -1   26.69    0.92
   7   8   1   22.44    0.72
   4  -9  -1    0.73    0.16
   4  -9  -1    1.08    0.19
   3  -9  -1   49.84    1.56
   3  -9  -1   48.53    1.49
  -3   9   1   49.18    1.57
   2  -9  -1   25.99    0.97
  -2   9   1   26.64    0.99
  -1   9   1    3.83    0.31
  -1   9   1    3.43    0.30
   0   9   1   52.39    1.64
   1   9   1    5.13    0.38
   2   9   1    0.80    0.19
   3   9   1   28.75    1.04
  -4  -9  -1    3.74    0.34
  -4  -9  -1    3.98    0.29
   4   9   1    4.17    0.31
   4   9   1    3.37    0.35
  -5  -9  -1    1.06    0.18
   5   9   1    1.45    0.18
  -6  -9  -1    0.57    0.15
   6   9   1    0.44    0.10
  -2  10   1   50.79    1.65
  -2  10   1   50.02    1.64
  -1  10   1    0.94    0.20
   0  10   1    3.16    0.31
   1  10   1   64.43    2.01
   2  10   1    0.48    0.16
   3  10   1    6.07    0.41
   4  10   1   25.28    0.93
  -3  -9   2    9.98    0.57
  -3  -9   2   10.51    0.48
  -2  -9   2    3.06    0.30
  -2  -9   2    3.18    0.24
   1   9  -2    2.03    0.19
  -1  -9   2    1.83    0.23
  -1  -9   2    2.29    0.20
   0   9  -2   36.38    1.22
   0  -9   2   36.23    1.21
   0  -9   2   36.00    1.11
  -1   9  -2    4.20    0.33
  -2   9  -2   19.25    0.80
  -3   9  -2   31.64    1.13
  -3   9  -2   31.85    1.13
  -5  -8   2   18.10    0.70
  -4  -8   2   46.22    1.38
  -3  -8   2   30.92    0.98
  -3  -8   2   31.59    1.13
   2   8  -2   43.60    1.40
   2   8  -2   41.04    1.18
  -2  -8   2   46.57    1.43
  -2  -8   2   45.51    1.28
   1   8  -2   22.47    0.85
   1   8  -2   23.14    0.80
  -1  -8   2   23.43    0.75
  -1  -8   2   23.32    0.85
   0   8  -2    8.92    0.46
   0   8  -2    8.65    0.46
   0  -8   2    8.29    0.37
   0  -8   2    8.21    0.43
  -1   8  -2   40.82    1.32
  -1   8  -2   43.52    1.34
   1  -8   2   41.73    1.29
   1  -8   2   41.32    1.20
  -2   8  -2    0.60    0.14
  -3   8  -2    1.79    0.22
  -3   8  -2    1.76    0.21
  -4   8  -2   33.42    1.15
   4  -8   2   32.82    1.09
  -5   8  -2   14.09    0.66
   5  -8   2   13.97    0.62
  -6  -7   2    1.76    0.23
  -5  -7   2    3.78    0.27
   4   7  -2   57.00    1.78
  -4  -7   2   55.40    1.58
   3   7  -2    3.33    0.28
  -3  -7   2    2.97    0.21
   2   7  -2    3.97    0.20
   2   7  -2    4.00    0.29
  -2  -7   2    4.37    0.24
  -2  -7   2    4.31    0.31
   1   7  -2  142.77    3.65
   1   7  -2  139.87    3.69
  -1  -7   2  143.76    3.70
  -1  -7   2  141.08    3.57
   0   7  -2    4.30    0.29
   0   7  -2    4.38    0.30
   0  -7   2    4.09    0.22
   0  -7   2    5.27    0.30
  -1   7  -2    0.35    0.10
  -1   7  -2    0.36    0.11
   1  -7   2    0.69    0.13
   1  -7   2    0.51    0.10
  -2   7  -2  149.87    3.98
  -2   7  -2  153.60    3.98
  -2   7  -2  154.54    3.98
   2  -7   2  152.61    3.89
   2  -7   2  153.40    3.93
   2  -7   2  156.88    3.86
  -3   7  -2   20.96    0.78
   3  -7   2   20.60    0.72
  -4   7  -2    8.18    0.44
   4  -7   2    8.14    0.41
  -5   7  -2   93.96    2.61
   5  -7   2   93.28    2.57
  -6   7  -2   33.86    1.18
   6  -7   2   35.84    1.31
   6  -7   2   34.70    1.17
  -7  -6   2   16.14    0.65
  -7  -6   2   15.81    0.64
  -7  -6   2   16.39    0.84
  -6  -6   2    4.52    0.31
   5   6  -2    3.37    0.30
  -5  -6   2    3.37    0.24
   4   6  -2    7.16    0.42
  -4  -6   2    7.55    0.34
   3   6  -2    7.17    0.39
  -3  -6   2    7.01    0.31
   2   6  -2    6.45    0.24
   2   6  -2    6.27    0.34
  -2  -6   2    6.49    0.28
   1   6  -2    3.54    0.23
   1   6  -2    3.48    0.24
  -1  -6   2    3.45    0.24
  -1  -6   2    3.57    0.19
   0   6  -2   30.47    0.97
   0   6  -2   30.53    0.96
   0  -6   2   30.25    0.93
   0  -6   2   30.18    0.86
  -1   6  -2    0.47    0.10
  -1   6  -2    0.29    0.08
   1  -6   2    0.41    0.09
   1  -6   2    0.47    0.08
   1  -6   2    0.37    0.07
  -2   6  -2   21.49    0.75
  -2   6  -2   21.99    0.75
   2  -6   2   21.45    0.71
   2  -6   2   22.28    0.70
   2  -6   2   21.92    0.67
  -3   6  -2   33.16    1.04
  -3   6  -2   32.44    1.04
   3  -6   2   32.59    0.99
   3  -6   2   33.07    0.94
   3  -6   2   32.39    1.00
  -4   6  -2    0.47    0.12
   4  -6   2    0.42    0.10
  -5   6  -2   30.13    1.01
   5  -6   2   29.58    0.99
   5  -6   2   30.25    1.01
  -6   6  -2    9.34    0.48
   6  -6   2    9.58    0.48
   6  -6   2    9.33    0.47
  -7   6  -2    2.01    0.23
   7  -6   2    2.21    0.23
   7  -6   2    2.21    0.24
  -8  -5   2   17.27    0.88
  -8  -5   2   18.42    0.70
  -7  -5   2   55.36    1.91
  -7  -5   2   60.51    1.68
   6   5  -2   45.71    1.54
  -6  -5   2   46.94    1.37
   5   5  -2   27.83    1.03
  -5  -5   2   29.09    0.91
   4   5  -2   71.67    2.03
  -4  -5   2   70.31    1.88
   3   5  -2   33.48    1.05
  -3  -5   2   32.93    0.94
   2   5  -2   29.40    0.92
  -2  -5   2   29.46    0.83
   1   5  -2   27.73    0.85
   1   5  -2   29.18    0.89
  -1  -5   2   29.27    0.80
   0   5  -2   18.63    0.63
   0   5  -2   18.56    0.65
   0  -5   2   19.39    0.56
   0  -5   2   18.64    0.61
   0  -5   2   18.51    0.56
  -1   5  -2   19.35    0.65
  -1   5  -2   19.25    0.65
  -1   5  -2   19.88    0.65
   1  -5   2   18.89    0.62
   1  -5   2   19.17    0.57
   1  -5   2   19.79    0.60
  -2   5  -2    9.08    0.38
  -2   5  -2    8.88    0.39
   2  -5   2    8.42    0.35
   2  -5   2    8.58    0.32
   2  -5   2    8.77    0.35
  -3   5  -2    2.17    0.18
  -3   5  -2    2.17    0.18
   3  -5   2    2.15    0.16
   3  -5   2    2.34    0.18
   3  -5   2    2.30    0.15
   3  -5   2    2.39    0.19
  -4   5  -2   45.61    1.55
  -4   5  -2   41.62    1.25
   4  -5   2   42.00    1.25
   4  -5   2   41.41    1.24
  -5   5  -2   36.23    1.12
   5  -5   2   35.11    1.11
   5  -5   2   35.80    1.11
  -6   5  -2    0.09    0.07
   6  -5   2    0.09    0.07
   6  -5   2    0.34    0.11
   7  -5   2    6.09    0.36
   7  -5   2    5.68    0.37
   8  -5   2   30.42    1.12
   8  -5   2   30.13    1.05
  -8  -4   2    0.21    0.11
  -8  -4   2    0.21    0.16
  -7  -4   2   17.06    0.63
  -7  -4   2   15.21    0.78
   6   4  -2    1.86    0.24
  -6  -4   2    1.66    0.18
  -6  -4   2    1.65    0.29
  -6  -4   2    1.72    0.18
   5   4  -2    5.88    0.38
  -5  -4   2    5.46    0.30
   4   4  -2  171.95    4.48
  -4  -4   2  174.99    4.31
   3   4  -2    8.18    0.38
  -3  -4   2    7.76    0.29
   2   4  -2    0.41    0.09
  -2  -4   2    0.48    0.07
   1   4  -2  453.19   10.93
   1   4  -2  440.21   11.29
   1   4  -2  424.72   11.07
  -1  -4   2  474.56   10.94
  -1  -4   2  431.93   10.97
   0   4  -2   17.91    0.58
   0   4  -2   17.94    0.59
   0   4  -2   17.95    0.64
   0  -4   2   18.48    0.57
   0  -4   2   18.53    0.52
   0  -4   2   17.35    0.51
  -1   4  -2    0.55    0.09
  -1   4  -2    0.65    0.09
  -1   4  -2    0.61    0.10
   1  -4   2    0.48    0.07
   1  -4   2    0.62    0.07
   1  -4   2    0.67    0.08
   1  -4   2    0.53    0.09
   1  -4   2    0.64    0.08
  -2   4  -2  509.45   12.72
  -2   4  -2  499.05   12.84
   2  -4   2  497.50   12.67
   2  -4   2  507.72   12.68
   2  -4   2  499.35   12.66
   2  -4   2  496.75   12.40
  -3   4  -2   52.59    1.46
  -3   4  -2   54.83    1.48
   3  -4   2   53.32    1.43
   3  -4   2   52.04    1.39
   3  -4   2   53.59    1.46
   3  -4   2   54.91    1.47
  -4   4  -2    2.89    0.20
  -4   4  -2    2.95    0.21
   4  -4   2    2.81    0.20
   4  -4   2    2.70    0.19
   4  -4   2    2.68    0.17
   4  -4   2    2.74    0.16
  -5   4  -2  164.74    4.08
   5  -4   2  159.69    4.07
   5  -4   2  155.40    4.07
  -6   4  -2   69.20    1.96
   6  -4   2   70.68    1.98
   6  -4   2   72.12    1.96
   7  -4   2   17.52    0.67
   7  -4   2   16.89    0.69
   8  -4   2   27.61    1.03
   8  -4   2   30.36    1.00
   9  -4   2   37.33    1.23
  -9  -3   2    0.60    0.23
  -8  -3   2    2.85    0.24
  -8  -3   2    2.80    0.34
  -7  -3   2   47.91    1.40
  -7  -3   2   48.38    1.63
  -6  -3   2    3.52    0.23
  -6  -3   2    3.20    0.31
  -5  -3   2    3.44    0.30
  -5  -3   2    3.56    0.22
  -5  -3   2    4.01    0.23
   4   3  -2   33.64    1.10
  -4  -3   2   33.28    0.96
   3   3  -2   18.50    0.66
  -3  -3   2   18.36    0.54
   2   3  -2    0.43    0.08
   2   3  -2    0.31    0.07
  -2  -3   2    0.33    0.04
   1   3  -2    4.35    0.20
   1   3  -2    4.64    0.20
  -1  -3   2    4.15    0.16
  -1  -3   2    4.26    0.16
  -1  -3   2    4.58    0.19
   0   3  -2   45.61    1.18
   0   3  -2   45.69    1.19
   0   3  -2   44.81    1.13
   0   3  -2   42.95    1.19
   0  -3   2   43.87    1.17
   0  -3   2   41.85    1.12
   0  -3   2   46.55    1.17
   0  -3   2   43.91    1.14
  -1   3  -2    0.22    0.05
  -1   3  -2    0.10    0.04
   1  -3   2    0.20    0.04
   1  -3   2    0.11    0.04
   1  -3   2    0.11    0.04
   1  -3   2    0.07    0.03
  -2   3  -2   85.04    2.16
  -2   3  -2   84.38    2.17
  -2   3  -2   83.53    2.16
   2  -3   2   86.75    2.16
   2  -3   2   84.77    2.14
   2  -3   2   84.28    2.11
   2  -3   2   83.75    2.15
  -3   3  -2   51.47    1.37
  -3   3  -2   50.65    1.31
  -3   3  -2   49.86    1.38
   3  -3   2   50.71    1.31
   3  -3   2   50.54    1.37
   3  -3   2   51.23    1.37
   3  -3   2   51.69    1.35
  -4   3  -2   19.47    0.63
  -4   3  -2   18.95    0.57
   4  -3   2   19.34    0.57
   4  -3   2   19.76    0.60
   4  -3   2   19.19    0.63
   4  -3   2   19.84    0.64
  -5   3  -2  125.82    3.26
  -5   3  -2  130.28    3.42
   5  -3   2  129.00    3.26
   5  -3   2  124.30    3.27
  -6   3  -2    2.59    0.21
   6  -3   2    2.38    0.21
   6  -3   2    2.60    0.20
   7  -3   2    3.44    0.26
   7  -3   2    3.11    0.23
   8  -3   2   16.76    0.67
   8  -3   2   19.62    0.76
   9  -3   2    8.83    0.50
   9  -3   2    8.40    0.44
  -9  -2   2   12.30    0.73
  -9  -2   2   13.08    0.55
  -8  -2   2   16.99    0.63
  -8  -2   2   16.75    0.82
  -7  -2   2   50.24    1.66
  -7  -2   2   50.92    1.44
  -6  -2   2   29.96    1.08
  -6  -2   2   30.24    0.91
  -5  -2   2    6.51    0.30
  -5  -2   2    6.45    0.39
  -4  -2   2  119.25    2.96
  -4  -2   2  115.15    3.11
   3   2  -2   39.23    1.07
   3   2  -2   39.44    1.17
  -3  -2   2   41.69    1.07
  -3  -2   2   39.76    1.07
  -3  -2   2   41.49    1.06
   2   2  -2   22.71    0.70
   2   2  -2   23.16    0.63
   2   2  -2   23.13    0.68
  -2  -2   2   22.36    0.60
  -2  -2   2   22.11    0.64
  -2  -2   2   23.97    0.63
   1   2  -2   24.48    0.65
   1   2  -2   23.67    0.66
  -1  -2   2   22.79    0.61
  -1  -2   2   24.10    0.63
   0   2  -2   13.32    0.34
   0   2  -2   13.28    0.39
   0   2  -2   13.30    0.38
   0   2  -2   11.40    0.36
   0  -2   2   13.57    0.38
   0  -2   2   13.24    0.38
   0  -2   2   12.41    0.35
  -1   2  -2   35.24    0.92
  -1   2  -2   34.42    0.91
   1  -2   2   35.63    0.91
   1  -2   2   35.11    0.92
   1  -2   2   33.80    0.88
  -2   2  -2   17.63    0.53
  -2   2  -2   16.87    0.51
  -2   2  -2   17.97    0.53
   2  -2   2   17.61    0.52
   2  -2   2   17.37    0.52
   2  -2   2   17.05    0.48
   2  -2   2   17.73    0.50
  -3   2  -2    2.79    0.16
  -3   2  -2    2.95    0.16
  -3   2  -2    2.95    0.13
   3  -2   2    3.02    0.15
   3  -2   2    2.83    0.16
   3  -2   2    2.78    0.13
   3  -2   2    2.66    0.16
  -4   2  -2   20.62    0.60
  -4   2  -2   20.67    0.65
  -4   2  -2   20.86    0.66
   4  -2   2   20.58    0.60
   4  -2   2   21.61    0.63
   4  -2   2   20.90    0.66
   4  -2   2   21.32    0.65
  -5   2  -2   88.15    2.33
  -5   2  -2   86.63    2.25
  -5   2  -2   91.81    2.35
   5  -2   2   89.05    2.32
   5  -2   2   91.07    2.30
   5  -2   2   89.44    2.28
   5  -2   2   88.07    2.34
  -6   2  -2    1.73    0.17
  -6   2  -2    1.45    0.12
   6  -2   2    1.43    0.15
   6  -2   2    1.52    0.16
   7  -2   2    3.93    0.27
   7  -2   2    3.52    0.24
   8  -2   2   94.64    2.62
   8  -2   2   95.67    2.56
   9  -2   2    0.12    0.08
   9  -2   2    0.07    0.08
  10  -2   2    1.26    0.23
  10  -2   2    1.28    0.17
  -9  -1   2   14.01    0.55
  -9  -1   2   12.93    0.74
  -8  -1   2    1.60    0.30
  -8  -1   2    1.14    0.16
  -7  -1   2   47.31    1.53
  -7  -1   2   45.22    1.30
  -6  -1   2    4.84    0.35
  -6  -1   2    4.43    0.23
   5   1  -2    0.77    0.11
  -5  -1   2    0.76    0.16
  -5  -1   2    0.64    0.10
   4   1  -2  292.73    7.10
   4   1  -2  281.97    7.18
  -4  -1   2  270.37    7.07
  -4  -1   2  272.60    6.79
   3   1  -2   32.41    0.91
   3   1  -2   33.43    0.85
   3   1  -2   32.65    0.89
  -3  -1   2   33.51    0.99
  -3  -1   2   32.75    0.83
  -3  -1   2   30.04    0.87
   2   1  -2    2.82    0.16
   2   1  -2    3.48    0.15
   2   1  -2    3.51    0.16
  -2  -1   2    3.60    0.11
  -2  -1   2    3.25    0.12
   1   1  -2  730.30   19.67
   1   1  -2  770.72   21.58
   1   1  -2  601.69   17.12
   1   1  -2  706.24   19.87
  -1  -1   2  624.99   17.07
  -1  -1   2  686.85   17.47
  -1  -1   2  747.51   17.50
   0   1  -2   34.16    0.92
   0   1  -2   36.22    0.89
   0   1  -2   35.62    0.93
   0   1  -2   34.02    0.88
   0  -1   2   35.54    0.92
   0  -1   2   35.00    0.86
  -1   1  -2    1.79    0.08
  -1   1  -2    1.75    0.09
  -1   1  -2    1.92    0.12
   1  -1   2    1.91    0.11
   1  -1   2    1.90    0.08
   1  -1   2    1.81    0.08
  -2   1  -2  711.72   21.39
  -2   1  -2  758.65   18.29
  -2   1  -2  721.05   18.15
   2  -1   2  712.72   20.56
   2  -1   2  754.08   20.58
   2  -1   2  751.94   18.14
   2  -1   2  733.85   18.21
  -3   1  -2   71.04    1.85
  -3   1  -2   71.50    1.85
  -3   1  -2   70.99    1.80
  -3   1  -2   73.81    1.85
   3  -1   2   72.92    1.81
   3  -1   2   74.48    1.85
   3  -1   2   73.30    1.83
  -4   1  -2   15.19    0.50
  -4   1  -2   15.29    0.50
  -4   1  -2   14.98    0.45
  -4   1  -2   14.83    0.50
   4  -1   2   15.10    0.45
   4  -1   2   14.30    0.47
   4  -1   2   14.70    0.50
   4  -1   2   14.92    0.49
  -5   1  -2  285.10    7.23
  -5   1  -2  290.73    7.29
  -5   1  -2  291.51    7.41
  -5   1  -2  292.06    7.47
   5  -1   2  282.84    7.12
   5  -1   2  296.32    7.56
   5  -1   2  292.52    7.15
  -6   1  -2   59.05    1.56
  -6   1  -2   58.26    1.65
  -6   1  -2   60.00    1.65
   6  -1   2   57.89    1.61
   6  -1   2   60.53    1.64
  -7   1  -2   11.43    0.43
  -7   1  -2   10.97    0.51
   7  -1   2   11.67    0.46
   7  -1   2   11.56    0.49
  -8   1  -2   53.46    1.55
  -8   1  -2   49.82    1.57
   8  -1   2   50.50    1.47
   8  -1   2   50.74    1.53
  -9   1  -2   44.05    1.45
   9  -1   2   42.01    1.30
   9  -1   2   43.37    1.39
 -10   1  -2   12.03    0.66
  10  -1   2   11.77    0.53
  -9   0   2    0.59    0.21
  -9   0   2    0.38    0.10
  -8   0   2    9.36    0.40
  -8   0   2    9.84    0.58
  -7   0   2   81.94    2.35
  -7   0   2   79.05    2.10
   6   0  -2    5.27    0.29
  -6   0   2    5.79    0.25
  -6   0   2    5.98    0.37
   5   0  -2    4.96    0.26
  -5   0   2    4.96    0.22
  -5   0   2    4.99    0.31
   4   0  -2   53.50    1.46
   4   0  -2   53.66    1.43
  -4   0   2   56.28    1.54
  -4   0   2   54.91    1.40
   3   0  -2   25.55    0.64
   3   0  -2   24.13    0.70
   3   0  -2   23.81    0.67
  -3   0   2   24.86    0.75
  -3   0   2   23.84    0.65
   2   0  -2    0.52    0.05
   2   0  -2    0.51    0.06
   2   0  -2    0.43    0.04
  -2   0   2    0.69    0.05
  -2   0   2    0.53    0.03
  -2   0   2    0.65    0.08
   1   0  -2    1.16    0.09
   1   0  -2    1.20    0.08
   1   0  -2    1.16    0.05
  -1   0   2    1.30    0.10
   0   0  -2   31.49    0.86
   0   0  -2   32.60    0.83
   0   0   2   30.18    0.85
  -1   0  -2    5.67    0.16
  -1   0  -2    6.71    0.21
  -1   0  -2    5.25    0.21
  -1   0  -2    5.64    0.18
   1   0   2    5.82    0.21
   1   0   2    5.61    0.16
   1   0   2    5.47    0.17
  -2   0  -2   90.93    2.28
  -2   0  -2   87.96    2.31
  -2   0  -2   86.40    2.31
   2   0   2   86.64    2.14
   2   0   2   86.57    2.21
   2   0   2   86.70    2.18
   2   0   2   87.31    2.18
  -3   0  -2   45.98    1.21
  -3   0  -2   48.32    1.23
  -3   0  -2   49.48    1.26
  -3   0  -2   49.26    1.23
  -3   0  -2   45.99    1.25
   3   0   2   47.40    1.24
   3   0   2   47.78    1.25
  -4   0  -2   79.52    2.03
  -4   0  -2   79.23    2.00
  -4   0  -2   75.28    2.01
  -4   0  -2   77.17    1.96
  -4   0  -2   78.73    1.95
   4   0   2   79.89    2.01
   4   0   2   78.90    1.95
   4   0   2   75.55    1.99
  -5   0  -2  100.77    2.57
  -5   0  -2   99.74    2.51
  -5   0  -2   99.59    2.58
  -5   0  -2  100.69    2.60
   5   0   2  102.01    2.55
   5   0   2   98.65    2.56
   5   0   2   97.44    2.49
  -6   0  -2    0.68    0.10
  -6   0  -2    0.44    0.10
  -6   0  -2    0.63    0.13
   6   0   2    0.40    0.09
   6   0   2    0.39    0.08
  -7   0  -2   15.00    0.53
  -7   0  -2   14.92    0.61
   7   0   2   16.49    0.57
   7   0   2   15.37    0.58
  -8   0  -2   13.77    0.62
  -8   0  -2   14.04    0.52
   8   0   2   13.29    0.56
   8   0   2   13.27    0.53
  -9   0  -2   19.81    0.82
   9   0   2   17.79    0.67
   9   0   2   18.09    0.77
 -10   0  -2    9.12    0.57
  10   0   2    9.31    0.44
  -9   1   2    1.06    0.26
  -9   1   2    1.65    0.17
  -8   1   2    5.65    0.42
  -8   1   2    5.08    0.28
   7  -1  -2   58.03    1.67
  -7   1   2   55.92    1.54
  -7   1   2   58.20    1.77
   6  -1  -2   19.93    0.70
  -6   1   2   20.05    0.77
  -6   1   2   19.90    0.61
   5  -1  -2   15.91    0.57
  -5   1   2   15.81    0.49
  -5   1   2   16.35    0.62
   4  -1  -2  156.24    3.84
  -4   1   2  150.32    3.74
  -4   1   2  152.33    3.88
   3  -1  -2   20.24    0.62
   3  -1  -2   20.80    0.59
   3  -1  -2   21.38    0.59
  -3   1   2   19.89    0.64
  -3   1   2   20.50    0.55
   2  -1  -2    1.98    0.10
   2  -1  -2    1.96    0.12
   2  -1  -2    1.81    0.12
  -2   1   2    1.78    0.09
  -2   1   2    1.96    0.13
  -2   1   2    1.93    0.08
   1  -1  -2   40.85    1.10
   1  -1  -2   43.41    1.06
   1  -1  -2   41.90    1.06
   1  -1  -2   42.24    1.13
  -1   1   2   43.74    1.05
  -1   1   2   43.82    1.06
  -1   1   2   42.50    1.10
   0  -1  -2    8.15    0.29
   0  -1  -2    8.72    0.24
   0  -1  -2    7.94    0.24
   0   1   2    8.41    0.25
   0   1   2    8.48    0.23
   0   1   2    8.08    0.22
  -1  -1  -2    4.74    0.20
  -1  -1  -2    5.08    0.16
  -1  -1  -2    4.65    0.18
  -1  -1  -2    5.17    0.20
   1   1   2    4.92    0.17
   1   1   2    4.62    0.21
  -2  -1  -2    0.39    0.06
   2   1   2    0.35    0.06
   2   1   2    0.24    0.05
   2   1   2    0.33    0.05
  -3  -1  -2    0.60    0.07
  -3  -1  -2    0.79    0.09
  -3  -1  -2    0.77    0.07
  -3  -1  -2    0.64    0.07
   3   1   2    0.80    0.08
   3   1   2    0.73    0.08
   3   1   2    0.61    0.06
  -4  -1  -2    6.26    0.25
  -4  -1  -2    5.65    0.20
  -4  -1  -2    5.70    0.28
  -4  -1  -2    5.74    0.27
   4   1   2    5.69    0.22
   4   1   2    5.93    0.24
   4   1   2    5.56    0.24
  -5  -1  -2  155.80    3.97
  -5  -1  -2  155.20    3.90
  -5  -1  -2  155.76    3.94
  -5  -1  -2  153.00    3.84
  -5  -1  -2  161.00    4.00
   5   1   2  156.56    3.87
   5   1   2  162.09    3.92
   5   1   2  159.59    3.93
  -6  -1  -2    4.25    0.22
  -6  -1  -2    4.16    0.26
  -6  -1  -2    4.32    0.28
   6   1   2    4.35    0.23
   6   1   2    4.17    0.23
  -7  -1  -2    2.69    0.24
  -7  -1  -2    2.99    0.20
   7   1   2    2.67    0.20
   7   1   2    2.77    0.20
  -8  -1  -2  102.61    2.68
  -8  -1  -2  103.49    2.82
   8   1   2  101.46    2.72
   8   1   2  101.23    2.68
  -9  -1  -2    0.07    0.07
  -9  -1  -2    0.20    0.13
   9   1   2    0.08    0.06
 -10  -1  -2    0.33    0.16
  10   1   2    0.26    0.09
  -9   2   2   16.21    0.81
  -9   2   2   15.96    0.60
   8  -2  -2    8.40    0.46
  -8   2   2    8.71    0.52
  -8   2   2    8.76    0.38
   7  -2  -2   51.76    1.55
  -7   2   2   51.15    1.40
  -7   2   2   51.71    1.62
   6  -2  -2   30.36    0.81
   6  -2  -2   30.35    0.98
  -6   2   2   30.06    1.03
  -6   2   2   30.56    0.87
   5  -2  -2    1.12    0.09
   5  -2  -2    1.11    0.13
  -5   2   2    1.52    0.17
  -5   2   2    1.31    0.10
   4  -2  -2  340.45    8.51
   4  -2  -2  343.53    8.79
   4  -2  -2  344.47    8.52
  -4   2   2  337.06    8.90
  -4   2   2  339.68    8.44
   3  -2  -2   46.36    1.28
   3  -2  -2   47.26    1.23
   3  -2  -2   44.85    1.21
   3  -2  -2   47.61    1.25
  -3   2   2   49.07    1.31
  -3   2   2   46.86    1.20
  -3   2   2   49.61    1.25
   2  -2  -2    5.19    0.19
   2  -2  -2    5.58    0.23
   2  -2  -2    5.42    0.21
   2  -2  -2    5.27    0.21
   2  -2  -2    5.43    0.19
  -2   2   2    5.42    0.24
  -2   2   2    5.64    0.21
  -2   2   2    5.41    0.18
   1  -2  -2  793.87   23.33
   1  -2  -2  729.00   21.90
   1  -2  -2  753.71   19.48
   1  -2  -2  797.75   22.69
  -1   2   2  801.75   21.09
  -1   2   2  830.25   19.50
  -1   2   2  811.36   22.53
   0  -2  -2   63.16    1.54
   0  -2  -2   61.90    1.54
   0  -2  -2   61.23    1.55
   0  -2  -2   58.66    1.54
   0   2   2   61.13    1.50
   0   2   2   60.49    1.53
  -1  -2  -2    0.70    0.08
  -1  -2  -2    0.31    0.06
  -1  -2  -2    0.52    0.06
   1   2   2    0.47    0.07
   1   2   2    0.47    0.06
  -2  -2  -2  820.97   21.32
  -2  -2  -2  877.43   21.82
  -2  -2  -2  853.22   21.66
  -2  -2  -2  885.47   21.71
   2   2   2  876.97   21.41
   2   2   2  911.29   21.74
   2   2   2  860.04   21.42
  -3  -2  -2   15.19    0.55
  -3  -2  -2   13.89    0.47
  -3  -2  -2   13.32    0.46
   3   2   2   15.65    0.47
   3   2   2   16.09    0.45
   3   2   2   15.46    0.50
  -4  -2  -2    0.04    0.06
  -4  -2  -2    0.33    0.08
  -4  -2  -2    0.10    0.04
  -4  -2  -2   -0.04    0.03
  -4  -2  -2    0.04    0.05
   4   2   2    0.27    0.06
   4   2   2    0.10    0.05
  -5  -2  -2  398.70   10.38
  -5  -2  -2  392.21   10.23
  -5  -2  -2  413.55   10.43
  -5  -2  -2  415.31   10.53
  -5  -2  -2  426.99   10.28
   5   2   2  435.99   10.77
   5   2   2  438.80   10.44
  -6  -2  -2   10.10    0.42
  -6  -2  -2   10.74    0.47
   6   2   2   11.98    0.43
   6   2   2   10.51    0.39
  -7  -2  -2   11.26    0.46
  -7  -2  -2   11.24    0.52
   7   2   2   11.21    0.45
  -8  -2  -2   23.62    0.90
  -8  -2  -2   23.45    0.81
   8   2   2   24.42    0.79
  -9  -2  -2   25.04    0.99
  -9  -2  -2   25.25    0.88
   9   2   2   25.55    0.84
 -10  -2  -2   19.82    0.87
 -10  -2  -2   17.08    0.82
  10   2   2   17.13    0.64
   8  -3  -2    1.96    0.23
  -8   3   2    2.42    0.29
  -8   3   2    2.24    0.18
   7  -3  -2   73.60    1.90
   7  -3  -2   75.53    2.12
  -7   3   2   74.26    2.17
  -7   3   2   72.37    1.95
   6  -3  -2    5.25    0.24
   6  -3  -2    5.70    0.33
  -6   3   2    5.11    0.34
  -6   3   2    5.31    0.25
   5  -3  -2   11.35    0.47
   5  -3  -2   11.10    0.39
  -5   3   2   11.38    0.39
  -5   3   2   10.99    0.49
   4  -3  -2   65.01    1.80
   4  -3  -2   67.06    1.72
  -4   3   2   66.19    1.82
  -4   3   2   66.97    1.69
   3  -3  -2    5.78    0.24
  -3   3   2    5.90    0.22
  -3   3   2    5.83    0.25
  -3   3   2    6.47    0.27
  -3   3   2    5.69    0.28
   2  -3  -2    2.28    0.13
   2  -3  -2    2.28    0.14
   2  -3  -2    2.49    0.15
   2  -3  -2    2.18    0.14
  -2   3   2    2.44    0.14
  -2   3   2    2.42    0.11
  -2   3   2    2.27    0.13
   1  -3  -2    0.16    0.05
   1  -3  -2    0.22    0.05
   1  -3  -2    0.07    0.04
   1  -3  -2    0.19    0.05
  -1   3   2    0.05    0.04
  -1   3   2    0.03    0.03
  -1   3   2    0.11    0.04
   0  -3  -2   22.31    0.63
   0  -3  -2   23.30    0.65
   0  -3  -2   22.19    0.65
   0  -3  -2   21.63    0.63
   0  -3  -2   22.13    0.65
   0   3   2   22.51    0.64
   0   3   2   22.83    0.64
   0   3   2   22.23    0.60
  -1  -3  -2   53.82    1.43
  -1  -3  -2   58.59    1.51
  -1  -3  -2   52.91    1.38
  -1  -3  -2   54.17    1.43
  -1  -3  -2   51.39    1.41
   1   3   2   54.61    1.42
   1   3   2   54.28    1.42
   1   3   2   53.61    1.43
   1   3   2   54.68    1.38
  -2  -3  -2   15.45    0.46
  -2  -3  -2   14.14    0.51
  -2  -3  -2   14.80    0.44
  -2  -3  -2   15.26    0.52
  -2  -3  -2   14.27    0.52
   2   3   2   14.36    0.52
   2   3   2   13.42    0.52
   2   3   2   15.21    0.48
   2   3   2   15.08    0.45
  -3  -3  -2    0.16    0.07
  -3  -3  -2    0.52    0.08
  -3  -3  -2    0.18    0.07
   3   3   2    0.24    0.07
   3   3   2    0.17    0.08
   3   3   2    0.29    0.05
  -4  -3  -2  109.23    2.80
  -4  -3  -2  111.41    2.90
  -4  -3  -2  106.92    2.79
  -4  -3  -2  110.43    2.92
   4   3   2  111.59    2.72
   4   3   2  110.67    2.84
  -5  -3  -2   54.79    1.44
  -5  -3  -2   53.84    1.48
  -5  -3  -2   51.75    1.60
  -5  -3  -2   52.67    1.56
   5   3   2   55.87    1.49
   5   3   2   52.86    1.39
  -6  -3  -2    3.50    0.23
  -6  -3  -2    3.49    0.26
   6   3   2    4.07    0.24
  -7  -3  -2   57.45    1.63
  -7  -3  -2   54.11    1.69
   7   3   2   61.21    1.61
  -8  -3  -2   19.75    0.80
  -8  -3  -2   18.75    0.71
   8   3   2   19.86    0.68
  -9  -3  -2   18.34    0.73
  -9  -3  -2   19.68    0.84
   9   3   2   19.43    0.68
 -10  -3  -2   24.51    1.00
 -10  -3  -2   22.05    0.86
  10   3   2   22.59    0.77
   8  -4  -2    0.11    0.09
   8  -4  -2    0.09    0.05
  -8   4   2    0.09    0.06
   7  -4  -2   38.58    1.13
   7  -4  -2   39.72    1.29
  -7   4   2   39.97    1.14
   6  -4  -2    5.05    0.26
   6  -4  -2    5.18    0.33
  -6   4   2    5.10    0.25
   5  -4  -2   21.96    0.77
   5  -4  -2   21.60    0.69
  -5   4   2   21.81    0.66
   4  -4  -2   88.51    2.38
   4  -4  -2   89.10    2.32
  -4   4   2   91.50    2.27
   3  -4  -2    0.03    0.04
   3  -4  -2    0.05    0.04
  -3   4   2    0.06    0.04
   2  -4  -2   56.69    1.52
   2  -4  -2   55.93    1.51
   2  -4  -2   57.07    1.51
  -2   4   2   56.35    1.45
  -2   4   2   56.13    1.51
  -2   4   2   57.47    1.50
   1  -4  -2   15.93    0.56
   1  -4  -2   17.56    0.56
   1  -4  -2   17.97    0.56
   1  -4  -2   17.68    0.55
  -1   4   2   17.57    0.55
  -1   4   2   17.55    0.55
  -1   4   2   17.77    0.50
   0  -4  -2   17.40    0.56
   0  -4  -2   17.54    0.53
   0  -4  -2   17.94    0.52
   0  -4  -2   17.37    0.53
   0  -4  -2   16.99    0.50
   0   4   2   17.30    0.50
   0   4   2   17.76    0.55
   0   4   2   17.52    0.55
  -1  -4  -2   77.37    1.92
  -1  -4  -2   74.27    1.88
  -1  -4  -2   74.84    1.95
  -1  -4  -2   75.65    1.94
  -1  -4  -2   75.26    1.95
   1   4   2   73.40    1.95
   1   4   2   73.58    1.94
   1   4   2   73.38    1.88
   1   4   2   73.30    1.94
  -2  -4  -2   17.03    0.50
  -2  -4  -2   16.69    0.60
  -2  -4  -2   17.73    0.53
  -2  -4  -2   17.69    0.60
   2   4   2   18.26    0.62
   2   4   2   17.95    0.55
   2   4   2   17.31    0.62
  -3  -4  -2   19.14    0.67
  -3  -4  -2   19.21    0.60
  -3  -4  -2   18.65    0.68
  -3  -4  -2   18.99    0.54
  -3  -4  -2   19.56    0.68
   3   4   2   17.12    0.70
   3   4   2   19.68    0.55
   3   4   2   19.31    0.62
   3   4   2   20.16    0.69
  -4  -4  -2    1.91    0.19
  -4  -4  -2    1.44    0.15
  -4  -4  -2    1.44    0.17
   4   4   2    1.39    0.09
   4   4   2    1.14    0.14
   4   4   2    1.29    0.18
  -5  -4  -2   92.24    2.39
  -5  -4  -2   90.85    2.39
  -5  -4  -2   92.03    2.61
   5   4   2   90.51    2.43
  -6  -4  -2    2.34    0.20
   6   4   2    2.28    0.19
  -7  -4  -2    0.20    0.09
  -7  -4  -2    0.17    0.11
   7   4   2    0.15    0.06
  -8  -4  -2   56.73    1.77
  -8  -4  -2   57.89    1.67
   8   4   2   57.44    1.62
  -9  -4  -2    0.66    0.19
  -9  -4  -2    0.22    0.10
   9   4   2    0.33    0.09
 -10  -4  -2    0.89    0.18
 -10  -4  -2    0.63    0.20
  10   4   2    0.63    0.11
   8  -5  -2    8.05    0.37
   7  -5  -2   30.10    1.09
   7  -5  -2   30.38    0.96
  -7   5   2   31.67    0.95
   6  -5  -2   36.28    1.19
   6  -5  -2   35.09    1.09
  -6   5   2   37.40    1.06
   5  -5  -2    0.48    0.10
   5  -5  -2    0.42    0.11
  -5   5   2    0.70    0.11
   4  -5  -2  213.46    5.27
   4  -5  -2  208.99    5.32
  -4   5   2  211.58    5.20
   3  -5  -2   33.03    0.99
   3  -5  -2   33.30    1.01
  -3   5   2   33.48    0.93
   2  -5  -2    0.85    0.11
   2  -5  -2    0.56    0.09
   2  -5  -2    0.57    0.10
  -2   5   2    0.68    0.09
  -2   5   2    0.76    0.10
   1  -5  -2  486.05   12.18
   1  -5  -2  463.45   11.59
   1  -5  -2  460.15   11.76
   1  -5  -2  474.75   11.97
   1  -5  -2  464.18   12.03
  -1   5   2  472.74   11.69
  -1   5   2  474.17   11.97
  -1   5   2  466.94   11.63
   0  -5  -2   47.53    1.30
   0  -5  -2   47.10    1.31
   0  -5  -2   46.64    1.25
   0  -5  -2   46.02    1.26
   0   5   2   47.02    1.23
   0   5   2   46.92    1.30
   0   5   2   45.31    1.30
  -1  -5  -2    1.22    0.13
  -1  -5  -2    1.42    0.13
  -1  -5  -2    1.19    0.10
  -1  -5  -2    1.30    0.13
  -1  -5  -2    1.10    0.10
   1   5   2    1.32    0.13
  -2  -5  -2  550.81   13.26
  -2  -5  -2  535.52   13.42
  -2  -5  -2  539.64   13.83
  -2  -5  -2  532.16   13.52
  -2  -5  -2  511.39   13.40
   2   5   2  543.53   13.36
   2   5   2  539.16   13.61
   2   5   2  552.06   13.76
  -3  -5  -2   20.37    0.59
  -3  -5  -2   21.26    0.74
  -3  -5  -2   20.61    0.73
  -3  -5  -2   20.27    0.64
  -3  -5  -2   20.67    0.72
   3   5   2   21.04    0.78
   3   5   2   20.94    0.76
   3   5   2   21.23    0.60
  -4  -5  -2    2.09    0.20
  -4  -5  -2    1.58    0.19
  -4  -5  -2    1.58    0.16
   4   5   2    1.52    0.17
   4   5   2    1.65    0.22
  -5  -5  -2  183.61    4.62
   5   5   2  192.35    4.84
   5   5   2  173.96    4.66
  -6  -5  -2    9.53    0.42
  -6  -5  -2    9.64    0.42
   6   5   2    8.98    0.43
   6   5   2    9.15    0.54
  -7  -5  -2   10.44    0.54
  -7  -5  -2   10.35    0.46
   7   5   2    9.07    0.56
   7   5   2    9.67    0.44
  -8  -5  -2    5.58    0.41
  -8  -5  -2    6.12    0.36
   8   5   2    5.56    0.31
  -9  -5  -2    6.27    0.38
  -9  -5  -2    6.37    0.45
   9   5   2    5.48    0.31
 -10  -5  -2   12.79    0.60
 -10  -5  -2   12.81    0.73
  10   5   2   11.43    0.44
   7  -6  -2   47.82    1.43
   6  -6  -2    1.40    0.21
   6  -6  -2    1.52    0.17
   5  -6  -2    2.37    0.20
   5  -6  -2    2.54    0.23
  -5   6   2    2.00    0.16
   4  -6  -2   53.44    1.56
   4  -6  -2   55.71    1.60
  -4   6   2   55.67    1.49
   3  -6  -2    7.23    0.35
   3  -6  -2    6.61    0.34
   3  -6  -2    6.88    0.35
  -3   6   2    6.91    0.29
   2  -6  -2    8.19    0.37
   2  -6  -2    8.27    0.38
   2  -6  -2    8.28    0.38
  -2   6   2    8.51    0.33
  -2   6   2    8.35    0.38
   1  -6  -2    6.60    0.33
   1  -6  -2    6.81    0.33
   1  -6  -2    6.38    0.30
  -1   6   2    6.32    0.32
   0  -6  -2    1.91    0.17
   0  -6  -2    1.97    0.14
   0  -6  -2    1.62    0.14
   0  -6  -2    1.55    0.15
   0  -6  -2    1.57    0.14
   0   6   2    1.83    0.16
   0   6   2    1.64    0.16
   0   6   2    1.80    0.13
  -1  -6  -2   33.04    1.02
  -1  -6  -2   33.68    0.92
  -1  -6  -2   33.16    0.93
  -1  -6  -2   32.09    0.97
  -1  -6  -2   34.21    0.99
  -1  -6  -2   33.68    1.02
   1   6   2   31.33    0.99
   1   6   2   32.18    1.02
   1   6   2   32.53    1.02
  -2  -6  -2    1.09    0.16
  -2  -6  -2    1.26    0.12
  -2  -6  -2    0.93    0.15
  -2  -6  -2    0.76    0.08
   2   6   2    1.54    0.18
   2   6   2    1.20    0.16
  -3  -6  -2   18.31    0.69
  -3  -6  -2   17.92    0.61
  -3  -6  -2   18.47    0.69
   3   6   2   18.69    0.74
   3   6   2   19.27    0.74
  -4  -6  -2   94.52    2.45
  -4  -6  -2   93.66    2.56
   4   6   2   88.78    2.63
   4   6   2   96.42    2.57
  -5  -6  -2   54.18    1.54
  -5  -6  -2   51.25    1.61
   5   6   2   54.73    1.72
   5   6   2   53.97    1.59
  -6  -6  -2   17.66    0.65
   6   6   2   18.00    0.81
   6   6   2   15.77    0.64
  -7  -6  -2   83.80    2.27
  -7  -6  -2   84.62    2.27
   7   6   2   85.90    2.51
   7   6   2   77.01    2.25
  -8  -6  -2   15.33    0.74
  -8  -6  -2   16.62    0.66
   8   6   2   16.40    0.81
   8   6   2   16.63    0.62
  -9  -6  -2   35.03    1.12
  -9  -6  -2   32.88    1.22
   9   6   2   30.61    0.98
   6  -7  -2    2.13    0.22
   6  -7  -2    2.03    0.24
   5  -7  -2   34.05    1.16
   5  -7  -2   35.39    1.13
   4  -7  -2   27.22    0.93
   4  -7  -2   28.35    0.96
   3  -7  -2    0.04    0.06
   3  -7  -2    0.14    0.07
   2  -7  -2   77.01    2.14
   2  -7  -2   77.73    2.11
  -2   7   2   78.98    2.15
   1  -7  -2    3.67    0.23
   1  -7  -2    3.61    0.26
  -1   7   2    3.64    0.26
   0  -7  -2    6.11    0.28
   0  -7  -2    6.24    0.34
   0  -7  -2    5.42    0.28
   0   7   2    6.22    0.34
   0   7   2    6.25    0.34
  -1  -7  -2   44.48    1.23
  -1  -7  -2   46.55    1.36
  -1  -7  -2   46.46    1.39
  -1  -7  -2   44.83    1.30
   1   7   2   44.03    1.36
   1   7   2   44.53    1.37
  -2  -7  -2    1.06    0.16
  -2  -7  -2    1.19    0.17
  -2  -7  -2    1.24    0.14
  -2  -7  -2    1.13    0.17
   2   7   2    1.14    0.19
   2   7   2    1.23    0.20
  -3  -7  -2   13.54    0.50
  -3  -7  -2   12.87    0.56
   3   7   2   12.85    0.60
   3   7   2   12.07    0.58
  -4  -7  -2   19.82    0.68
  -4  -7  -2   19.76    0.76
   4   7   2   19.65    0.76
   4   7   2   18.01    0.81
  -5  -7  -2   10.29    0.53
  -5  -7  -2    9.72    0.46
   5   7   2   11.20    0.61
   5   7   2   10.38    0.50
  -6  -7  -2    6.21    0.37
  -6  -7  -2    5.63    0.41
   6   7   2    6.13    0.36
   6   7   2    6.52    0.47
  -7  -7  -2    0.69    0.15
  -7  -7  -2    0.81    0.15
   7   7   2    0.68    0.14
   7   7   2    0.71    0.20
  -8  -7  -2   34.19    1.10
   8   7   2   31.50    1.03
  -9  -7  -2    3.18    0.27
  -9  -7  -2    3.16    0.35
   9   7   2    2.86    0.19
   5  -8  -2    2.87    0.26
   5  -8  -2    2.86    0.27
   4  -8  -2  103.31    2.86
   4  -8  -2  105.56    2.86
   3  -8  -2   28.22    0.99
   3  -8  -2   28.24    0.96
   2  -8  -2    0.77    0.15
   2  -8  -2    0.76    0.14
   1  -8  -2  186.56    4.77
   1  -8  -2  183.46    4.66
  -1   8   2  185.12    4.77
   0  -8  -2    5.82    0.36
   0  -8  -2    6.25    0.38
   0   8   2    5.86    0.36
   0   8   2    6.26    0.37
  -1  -8  -2   11.80    0.54
   1   8   2   11.88    0.56
   2   8   2  129.83    3.50
  -3  -8  -2    2.74    0.26
  -3  -8  -2    2.26    0.26
   3   8   2    2.09    0.25
   3   8   2    1.96    0.25
  -4  -8  -2    0.63    0.14
  -4  -8  -2    0.90    0.18
   4   8   2    1.00    0.19
   4   8   2    0.58    0.16
  -5  -8  -2   49.12    1.53
  -5  -8  -2   47.51    1.44
   5   8   2   45.09    1.62
   5   8   2   49.14    1.50
  -6  -8  -2    0.43    0.13
  -6  -8  -2    0.38    0.15
   6   8   2    0.60    0.14
   6   8   2    0.64    0.18
  -7  -8  -2    0.51    0.17
  -7  -8  -2    0.33    0.11
   7   8   2    0.34    0.10
  -8  -8  -2    4.43    0.41
   8   8   2    3.42    0.24
   4  -9  -2   23.34    0.89
   4  -9  -2   23.24    0.91
   3  -9  -2   12.81    0.61
   3  -9  -2   12.24    0.56
   2  -9  -2    6.32    0.36
   2  -9  -2    6.36    0.40
  -2   9   2    6.11    0.40
   1  -9  -2    0.31    0.11
  -1   9   2    0.02    0.07
  -1   9   2    0.05    0.06
   0  -9  -2   21.70    0.85
   0   9   2   22.11    0.87
   1   9   2   49.45    1.58
   2   9   2   12.38    0.63
   3   9   2   24.36    0.96
   4   9   2   99.69    2.79
   5   9   2   19.48    0.78
   6   9   2   21.05    0.80
   7   9   2   49.79    1.48
   3 -10  -2    2.77    0.31
   3 -10  -2    2.74    0.29
   2 -10  -2   39.61    1.35
  -2  10   2   38.62    1.35
  -2  10   2   38.67    1.36
   1 -10  -2    5.12    0.38
  -1  10   2    5.36    0.40
  -1  10   2    5.07    0.39
   0  10   2    8.32    0.51
   1  10   2   33.22    1.22
   2  10   2    0.45    0.16
   3  10   2    4.96    0.39
   4  10   2    6.48    0.43
   5  10   2    8.09    0.46
   1  11   2    3.56    0.36
  -1  -9   3    0.67    0.13
  -1  -9   3    0.84    0.18
   0   9  -3   50.17    1.41
   0  -9   3   52.35    1.47
   0  -9   3   50.28    1.58
  -1   9  -3    4.67    0.33
   1  -9   3    4.03    0.45
  -2   9  -3    0.95    0.19
  -4  -8   3    1.13    0.17
  -3  -8   3    0.09    0.08
  -3  -8   3    0.05    0.08
  -2  -8   3   25.19    0.81
  -2  -8   3   23.93    0.92
  -1  -8   3    0.85    0.13
  -1  -8   3    1.10    0.19
   0   8  -3   14.93    0.55
   0   8  -3   13.72    0.68
   0  -8   3   14.18    0.61
   0  -8   3   14.64    0.54
  -1   8  -3   47.71    1.46
  -1   8  -3   45.98    1.46
   1  -8   3   46.88    1.34
   1  -8   3   49.02    1.45
  -2   8  -3    1.08    0.18
  -2   8  -3    1.02    0.27
   2  -8   3    0.71    0.14
   2  -8   3    0.81    0.17
  -3   8  -3   34.29    1.15
  -4   8  -3   23.07    0.89
  -5   8  -3    2.13    0.25
   5  -8   3    2.57    0.25
  -5  -7   3   24.87    0.86
  -4  -7   3   22.94    0.78
  -3  -7   3   70.13    1.89
   2   7  -3   17.75    0.71
  -2  -7   3   19.55    0.63
  -2  -7   3   18.49    0.73
   1   7  -3   31.89    1.06
  -1  -7   3   34.21    0.97
  -1  -7   3   32.54    1.06
   0   7  -3   54.61    1.59
   0   7  -3   54.20    1.52
   0  -7   3   53.21    1.56
   0  -7   3   54.81    1.47
  -1   7  -3   12.49    0.54
  -1   7  -3   12.51    0.54
   1  -7   3   12.64    0.52
   1  -7   3   12.32    0.45
  -2   7  -3   36.28    1.15
  -2   7  -3   34.96    1.15
   2  -7   3   36.04    1.04
   2  -7   3   36.02    1.11
  -3   7  -3    0.30    0.10
  -3   7  -3    0.52    0.12
   3  -7   3    0.50    0.11
   3  -7   3    0.38    0.10
  -4   7  -3    1.08    0.18
   4  -7   3    1.04    0.16
  -5   7  -3   31.97    1.11
   5  -7   3   32.94    1.09
  -6   7  -3   16.74    0.73
   6  -7   3   17.43    0.72
  -6  -6   3   17.10    0.68
  -5  -6   3    0.10    0.07
   4   6  -3    6.62    0.39
  -4  -6   3    6.16    0.31
   3   6  -3   91.75    2.52
  -3  -6   3   94.49    2.41
   2   6  -3    4.08    0.26
  -2  -6   3    3.59    0.20
   1   6  -3    1.67    0.17
  -1  -6   3    1.64    0.13
  -1  -6   3    1.34    0.16
   0   6  -3  169.65    4.26
   0   6  -3  169.57    4.30
   0  -6   3  170.92    4.28
   0  -6   3  167.26    4.19
  -1   6  -3   15.76    0.60
  -1   6  -3   16.75    0.61
   1  -6   3   15.76    0.52
   1  -6   3   16.05    0.58
  -2   6  -3    0.41    0.10
  -2   6  -3    0.44    0.10
  -2   6  -3    0.46    0.11
   2  -6   3    0.35    0.09
   2  -6   3    0.27    0.08
   2  -6   3    0.24    0.07
  -3   6  -3  167.41    4.34
  -3   6  -3  169.35    4.36
   3  -6   3  172.53    4.24
   3  -6   3  167.68    4.29
   3  -6   3  172.23    4.30
  -4   6  -3   34.45    1.09
   4  -6   3   33.63    1.06
  -5   6  -3    6.17    0.36
   5  -6   3    6.41    0.36
  -6   6  -3   61.78    1.81
   6  -6   3   60.61    1.80
  -7   6  -3   54.25    1.67
   7  -6   3   53.62    1.70
  -7  -5   3    5.12    0.32
  -7  -5   3    4.50    0.44
  -6  -5   3   16.14    0.62
   5   5  -3    7.90    0.45
  -5  -5   3    8.45    0.39
   4   5  -3    4.54    0.31
  -4  -5   3    4.73    0.25
   3   5  -3    0.20    0.08
  -3  -5   3    0.19    0.06
   2   5  -3   63.20    1.75
  -2  -5   3   64.44    1.66
   1   5  -3    0.49    0.10
  -1  -5   3    0.24    0.06
   0   5  -3   21.27    0.69
   0   5  -3   20.76    0.64
   0  -5   3   20.84    0.67
   0  -5   3   20.04    0.61
  -1   5  -3   55.37    1.50
  -1   5  -3   53.38    1.50
   1  -5   3   55.19    1.44
   1  -5   3   52.64    1.41
   1  -5   3   52.94    1.46
  -2   5  -3    0.25    0.07
  -2   5  -3    0.21    0.07
   2  -5   3    0.22    0.06
   2  -5   3    0.10    0.04
   2  -5   3    0.20    0.06
  -3   5  -3   46.60    1.33
  -3   5  -3   44.80    1.31
   3  -5   3   44.53    1.27
   3  -5   3   46.06    1.23
   3  -5   3   45.06    1.29
  -4   5  -3   31.13    0.99
  -4   5  -3   30.59    0.97
   4  -5   3   30.14    0.96
   4  -5   3   31.20    0.94
   4  -5   3   31.52    0.90
  -5   5  -3    1.18    0.15
   5  -5   3    1.25    0.18
  -6   5  -3   47.47    1.44
   6  -5   3   48.56    1.58
   6  -5   3   46.40    1.44
  -7   5  -3    3.12    0.27
   7  -5   3    2.64    0.24
   7  -5   3    2.51    0.25
  -8   5  -3    0.34    0.12
   8  -5   3    0.47    0.13
  -8  -4   3   13.72    0.78
  -8  -4   3   13.75    0.58
  -7  -4   3   13.39    0.74
  -7  -4   3   15.94    0.60
  -6  -4   3   74.63    1.99
  -6  -4   3   67.47    2.22
  -6  -4   3   75.17    1.99
   5   4  -3   39.76    1.31
  -5  -4   3   41.07    1.19
   4   4  -3   10.90    0.49
  -4  -4   3   11.05    0.41
   3   4  -3   95.29    2.50
  -3  -4   3   93.74    2.38
   2   4  -3   41.43    1.17
  -2  -4   3   41.01    1.08
   1   4  -3   16.51    0.54
  -1  -4   3   15.72    0.47
   0   4  -3   35.29    1.01
   0   4  -3   39.82    1.09
   0   4  -3   39.98    0.99
   0  -4   3   40.05    1.04
   0  -4   3   39.12    1.08
   0  -4   3   38.88    1.02
  -1   4  -3    8.55    0.34
  -1   4  -3    8.12    0.33
   1  -4   3    8.48    0.32
   1  -4   3    8.09    0.31
   1  -4   3    7.98    0.28
  -2   4  -3   31.05    0.91
  -2   4  -3   30.63    0.89
   2  -4   3   29.26    0.83
   2  -4   3   30.53    0.87
   2  -4   3   29.87    0.88
  -3   4  -3    7.17    0.33
  -3   4  -3    6.98    0.32
   3  -4   3    7.02    0.27
   3  -4   3    7.04    0.32
   3  -4   3    7.47    0.30
  -4   4  -3    1.15    0.13
  -4   4  -3    1.15    0.14
   4  -4   3    1.35    0.14
   4  -4   3    1.14    0.11
   4  -4   3    1.37    0.13
  -5   4  -3   20.72    0.71
   5  -4   3   20.84    0.71
   5  -4   3   19.73    0.71
  -6   4  -3   35.95    1.14
   6  -4   3   36.18    1.13
   6  -4   3   36.74    1.15
  -7   4  -3    0.11    0.08
   7  -4   3    0.07    0.07
   7  -4   3    0.06    0.06
   8  -4   3    5.11    0.34
   8  -4   3    5.28    0.37
   9  -4   3   36.63    1.23
  -8  -3   3   11.34    0.50
  -8  -3   3   10.69    0.67
  -7  -3   3    0.05    0.07
  -7  -3   3    0.14    0.13
   6   3  -3   49.50    1.54
  -6  -3   3   47.08    1.36
  -6  -3   3   46.12    1.58
   5   3  -3    5.81    0.37
  -5  -3   3    6.11    0.42
  -5  -3   3    5.86    0.29
  -5  -3   3    6.28    0.30
   4   3  -3    2.16    0.21
  -4  -3   3    2.60    0.17
   3   3  -3  187.37    4.74
  -3  -3   3  190.66    4.62
   2   3  -3   21.50    0.75
   2   3  -3   22.46    0.68
  -2  -3   3   22.41    0.60
   1   3  -3    3.93    0.19
   1   3  -3    3.86    0.19
  -1  -3   3    3.77    0.16
  -1  -3   3    3.82    0.15
   0   3  -3  404.84    9.92
   0   3  -3  406.20    9.98
   0  -3   3  392.81    9.84
   0  -3   3  385.32    9.85
   0  -3   3  378.45    9.69
  -1   3  -3   37.89    0.98
  -1   3  -3   38.50    1.03
  -1   3  -3   38.24    1.02
  -1   3  -3   37.98    1.03
   1  -3   3   38.13    1.02
   1  -3   3   37.09    1.01
   1  -3   3   36.46    0.97
  -2   3  -3    0.06    0.06
  -2   3  -3    0.07    0.04
  -2   3  -3    0.05    0.05
   2  -3   3    0.23    0.06
   2  -3   3    0.06    0.05
   2  -3   3    0.20    0.05
   2  -3   3   -0.01    0.03
  -3   3  -3  302.89    7.38
  -3   3  -3  296.05    7.57
   3  -3   3  289.65    7.31
   3  -3   3  303.73    7.32
   3  -3   3  303.71    7.69
   3  -3   3  299.65    7.69
  -4   3  -3  112.03    2.86
   4  -3   3  111.71    2.79
   4  -3   3  114.18    2.87
   4  -3   3  107.27    2.87
   4  -3   3  112.98    2.83
  -5   3  -3   13.67    0.52
  -5   3  -3   12.97    0.50
   5  -3   3   13.79    0.51
   5  -3   3   12.84    0.51
   5  -3   3   13.51    0.48
  -6   3  -3   94.98    2.55
   6  -3   3   95.61    2.54
   6  -3   3   96.94    2.58
  -7   3  -3   92.66    2.52
   7  -3   3   92.93    2.54
   7  -3   3   91.63    2.49
   8  -3   3   16.40    0.65
   8  -3   3   15.73    0.68
   9  -3   3   16.62    0.69
   9  -3   3   16.78    0.75
  -8  -2   3    1.56    0.17
  -8  -2   3    1.79    0.33
  -7  -2   3    6.69    0.33
  -7  -2   3    6.91    0.49
  -6  -2   3   52.59    1.48
  -6  -2   3   54.53    1.71
  -5  -2   3   15.22    0.53
  -4  -2   3    6.41    0.28
  -4  -2   3    6.61    0.39
   3   2  -3    6.88    0.34
   3   2  -3    7.46    0.34
   3   2  -3    7.71    0.31
  -3  -2   3    7.45    0.26
  -3  -2   3    7.67    0.31
   2   2  -3   49.99    1.35
   2   2  -3   50.52    1.33
   2   2  -3   49.60    1.34
   2   2  -3   50.54    1.34
  -2  -2   3   50.88    1.31
  -2  -2   3   50.57    1.26
  -2  -2   3   51.54    1.34
   1   2  -3    0.24    0.04
   1   2  -3    0.38    0.06
   1   2  -3    0.18    0.05
   1   2  -3    0.35    0.05
  -1  -2   3    0.34    0.03
  -1  -2   3    0.20    0.04
  -1  -2   3    0.45    0.07
   0   2  -3    1.29    0.09
   0   2  -3    1.29    0.08
   0   2  -3    1.43    0.12
   0  -2   3    1.27    0.07
  -1   2  -3    4.68    0.18
  -1   2  -3    4.85    0.19
  -1   2  -3    4.77    0.16
  -1   2  -3    4.61    0.23
  -1   2  -3    4.67    0.19
   1  -2   3    4.66    0.18
   1  -2   3    4.60    0.20
   1  -2   3    4.93    0.17
  -2   2  -3    3.96    0.18
  -2   2  -3    4.29    0.22
  -2   2  -3    4.03    0.19
  -2   2  -3    3.97    0.17
   2  -2   3    4.45    0.20
   2  -2   3    3.91    0.17
   2  -2   3    4.26    0.16
  -3   2  -3   79.12    2.00
   3  -2   3   78.44    2.03
   3  -2   3   78.13    1.98
   3  -2   3   78.79    2.01
   3  -2   3   77.17    1.96
  -4   2  -3   23.52    0.67
  -4   2  -3   23.91    0.73
  -4   2  -3   24.04    0.73
   4  -2   3   23.97    0.73
   4  -2   3   23.47    0.74
   4  -2   3   23.71    0.67
  -5   2  -3   39.01    1.12
  -5   2  -3   38.05    1.10
   5  -2   3   37.47    1.11
   5  -2   3   38.75    1.06
   5  -2   3   36.29    1.02
   5  -2   3   36.66    1.09
  -6   2  -3   93.45    2.47
   6  -2   3   92.55    2.48
   6  -2   3   93.04    2.45
  -7   2  -3    0.84    0.15
   7  -2   3    0.82    0.15
   7  -2   3    0.99    0.14
   8  -2   3    1.84    0.19
   8  -2   3    1.86    0.21
   9  -2   3   13.50    0.59
   9  -2   3   14.13    0.65
  10  -2   3   11.52    0.56
  10  -2   3   12.82    0.65
  -8  -1   3    7.75    0.54
  -8  -1   3    8.64    0.38
  -7  -1   3   16.84    0.58
  -7  -1   3   17.14    0.79
  -6  -1   3   93.10    2.39
  -6  -1   3   92.74    2.64
  -5  -1   3   44.91    1.39
  -5  -1   3   43.75    1.20
   4   1  -3    0.66    0.11
  -4  -1   3    0.60    0.09
  -4  -1   3    0.47    0.12
   3   1  -3  142.84    3.61
   3   1  -3  143.52    3.60
   3   1  -3  148.83    3.61
  -3  -1   3  144.60    3.69
  -3  -1   3  137.68    3.53
  -3  -1   3  144.35    3.50
   2   1  -3   16.44    0.55
   2   1  -3   19.80    0.55
   2   1  -3   18.25    0.59
  -2  -1   3   19.03    0.47
  -2  -1   3   18.54    0.59
  -2  -1   3   19.07    0.48
   1   1  -3    0.06    0.02
   1   1  -3    0.07    0.04
   1   1  -3    0.15    0.03
   1   1  -3    0.17    0.06
  -1  -1   3    0.02    0.05
   0   1  -3   19.10    0.59
   0   1  -3   19.28    0.51
   0   1  -3   20.40    0.59
   0   1  -3   19.63    0.52
   0  -1   3   20.12    0.59
   0  -1   3   18.92    0.50
   0  -1   3   20.09    0.49
  -1   1  -3   15.94    0.44
  -1   1  -3   15.92    0.50
   1  -1   3   15.54    0.42
   1  -1   3   16.56    0.49
   1  -1   3   15.81    0.42
  -2   1  -3   13.79    0.42
  -2   1  -3   13.61    0.45
  -2   1  -3   13.46    0.40
   2  -1   3   14.39    0.45
   2  -1   3   13.90    0.40
   2  -1   3   13.76    0.39
  -3   1  -3    3.76    0.19
  -3   1  -3    3.71    0.18
  -3   1  -3    3.68    0.17
   3  -1   3    3.70    0.15
   3  -1   3    3.70    0.16
   3  -1   3    4.05    0.18
   3  -1   3    3.65    0.19
  -4   1  -3    3.90    0.17
  -4   1  -3    3.92    0.21
  -4   1  -3    3.77    0.20
  -4   1  -3    3.80    0.20
   4  -1   3    4.05    0.22
   4  -1   3    3.77    0.17
   4  -1   3    3.98    0.20
  -5   1  -3    3.52    0.21
  -5   1  -3    3.54    0.21
  -5   1  -3    3.48    0.17
   5  -1   3    3.45    0.17
   5  -1   3    3.58    0.21
   5  -1   3    3.29    0.18
   5  -1   3    3.46    0.22
  -6   1  -3   78.53    2.05
  -6   1  -3   72.84    1.94
   6  -1   3   76.39    2.05
   6  -1   3   74.32    2.02
  -7   1  -3    0.14    0.08
  -7   1  -3    0.30    0.11
   7  -1   3    0.24    0.08
   7  -1   3    0.11    0.07
  -8   1  -3    5.63    0.37
   8  -1   3    5.25    0.31
   8  -1   3    5.11    0.34
  -9   1  -3   72.80    2.15
   9  -1   3   71.22    2.04
   9  -1   3   73.32    2.11
  10  -1   3    1.37    0.19
  10  -1   3    1.25    0.23
  -8   0   3   24.11    1.03
  -8   0   3   24.71    0.79
  -7   0   3    0.64    0.11
  -7   0   3    0.83    0.20
  -6   0   3   55.61    1.51
  -6   0   3   59.22    1.75
   5   0  -3   15.21    0.55
  -5   0   3   14.12    0.45
  -5   0   3   14.10    0.60
   3   0  -3  317.44    8.20
   3   0  -3  331.94    8.40
   3   0  -3  339.17    8.19
  -3   0   3  324.12    8.06
  -3   0   3  315.70   11.81
  -3   0   3  336.32    8.01
   2   0  -3    1.83    0.13
   2   0  -3    1.70    0.08
  -2   0   3    1.99    0.15
   1   0  -3    2.73    0.14
   1   0  -3    3.04    0.17
  -1   0   3    2.88    0.16
   0   0  -3  515.65   11.90
   0   0  -3  407.73   11.89
   0   0  -3  512.99   11.94
   0   0   3  432.13   11.81
  -1   0  -3   90.40    2.53
  -1   0  -3  102.41    2.56
  -1   0  -3  103.02    2.49
   1   0   3  100.97    2.55
   1   0   3  102.57    2.52
   1   0   3  104.03    2.50
  -2   0  -3    0.61    0.08
  -2   0  -3    0.68    0.08
  -2   0  -3    0.72    0.06
   2   0   3    0.56    0.09
   2   0   3    0.88    0.06
   2   0   3    0.63    0.06
  -3   0  -3  209.81    5.59
  -3   0  -3  215.22    5.61
  -3   0  -3  219.59    5.53
   3   0   3  216.90    5.34
   3   0   3  213.44    5.41
   3   0   3  213.47    5.47
   3   0   3  214.34    5.58
  -4   0  -3  183.14    4.49
  -4   0  -3  187.11    4.63
  -4   0  -3  184.02    4.60
  -4   0  -3  185.62    4.76
  -4   0  -3  180.15    4.69
   4   0   3  181.26    4.53
   4   0   3  186.78    4.75
  -5   0  -3    0.75    0.09
  -5   0  -3    0.69    0.11
  -5   0  -3    0.63    0.11
  -5   0  -3    0.80    0.09
   5   0   3    0.66    0.11
   5   0   3    0.58    0.08
   5   0   3    0.81    0.10
  -6   0  -3  133.80    3.49
  -6   0  -3  132.22    3.37
  -6   0  -3  134.53    3.44
  -6   0  -3  135.00    3.48
   6   0   3  135.99    3.44
   6   0   3  137.54    3.45
  -7   0  -3   76.55    2.09
  -7   0  -3   80.96    2.19
  -7   0  -3   82.96    2.24
   7   0   3   78.60    2.16
   7   0   3   81.88    2.18
  -8   0  -3   11.92    0.54
   8   0   3   11.60    0.52
   8   0   3   10.78    0.48
  -9   0  -3   13.16    0.63
   9   0   3   12.96    0.59
   9   0   3   13.08    0.56
  10   0   3   34.45    1.13
  -8   1   3    3.58    0.35
  -8   1   3    3.54    0.23
  -7   1   3    4.11    0.35
  -7   1   3    3.99    0.22
   6  -1  -3   71.14    1.96
  -6   1   3   69.57    2.04
  -6   1   3   69.35    1.82
   5  -1  -3    7.82    0.37
  -5   1   3    7.96    0.41
  -5   1   3    7.89    0.29
   4  -1  -3    0.60    0.11
  -4   1   3    0.59    0.13
  -4   1   3    0.51    0.06
   3  -1  -3   60.86    1.56
   3  -1  -3   59.94    1.54
   3  -1  -3   59.91    1.61
  -3   1   3   61.13    1.64
  -3   1   3   59.97    1.50
  -3   1   3   60.58    1.51
   2  -1  -3   27.46    0.80
   2  -1  -3   27.30    0.78
   2  -1  -3   28.28    0.73
  -2   1   3   27.90    0.80
  -2   1   3   28.18    0.70
  -2   1   3   27.43    0.70
   1  -1  -3   18.91    0.49
   1  -1  -3   18.64    0.48
   1  -1  -3   18.15    0.56
   1  -1  -3   19.24    0.57
  -1   1   3   18.49    0.54
   0  -1  -3    6.24    0.19
   0  -1  -3    6.17    0.25
   0  -1  -3    6.11    0.20
   0  -1  -3    6.00    0.25
   0   1   3    6.51    0.21
  -1  -1  -3   78.03    1.90
  -1  -1  -3   75.29    1.94
  -1  -1  -3   73.65    1.97
  -1  -1  -3   80.67    1.89
   1   1   3   74.64    1.97
   1   1   3   76.53    1.90
   1   1   3   74.28    1.87
   1   1   3   72.05    1.90
  -2  -1  -3   42.00    1.10
  -2  -1  -3   41.42    1.10
  -2  -1  -3   36.21    1.09
  -2  -1  -3   42.27    1.05
  -2  -1  -3   40.47    1.08
   2   1   3   42.40    1.06
   2   1   3   40.06    1.11
  -3  -1  -3  116.48    3.00
  -3  -1  -3  119.22    2.96
  -3  -1  -3  121.69    3.00
  -3  -1  -3  124.19    3.06
   3   1   3  121.40    3.02
   3   1   3  116.17    3.00
   3   1   3  119.89    2.96
  -4  -1  -3    9.28    0.31
  -4  -1  -3    9.08    0.36
  -4  -1  -3    9.17    0.33
  -4  -1  -3    9.07    0.31
  -4  -1  -3    9.48    0.37
   4   1   3    9.23    0.35
   4   1   3    8.75    0.31
   4   1   3    9.89    0.36
  -5  -1  -3   90.66    2.32
  -5  -1  -3   84.01    2.19
  -5  -1  -3   86.15    2.21
  -5  -1  -3   85.43    2.29
  -5  -1  -3   87.01    2.23
   5   1   3   86.29    2.20
   5   1   3   90.66    2.26
   5   1   3   85.63    2.26
  -6  -1  -3   81.88    2.17
  -6  -1  -3   83.91    2.35
  -6  -1  -3   83.52    2.22
  -6  -1  -3   86.45    2.30
   6   1   3   86.20    2.22
   6   1   3   82.95    2.22
  -7  -1  -3   14.18    0.52
  -7  -1  -3   14.04    0.57
  -7  -1  -3   15.04    0.62
   7   1   3   14.70    0.55
   7   1   3   14.29    0.55
  -8  -1  -3   29.88    0.92
  -8  -1  -3   28.68    0.99
   8   1   3   28.83    0.95
   8   1   3   28.68    0.95
  -9  -1  -3   12.13    0.60
   9   1   3   13.31    0.55
  10   1   3   23.33    0.85
  -8   2   3    0.22    0.07
  -8   2   3    0.05    0.11
   7  -2  -3    1.03    0.18
  -7   2   3    1.75    0.28
  -7   2   3    1.20    0.12
   6  -2  -3   75.18    2.09
  -6   2   3   73.44    2.13
  -6   2   3   75.16    1.93
   5  -2  -3    5.67    0.31
  -5   2   3    4.85    0.21
  -5   2   3    4.84    0.31
   4  -2  -3    7.93    0.36
  -4   2   3    7.96    0.38
  -4   2   3    8.47    0.28
   3  -2  -3   92.18    2.41
   3  -2  -3   95.51    2.35
   3  -2  -3   90.23    2.41
  -3   2   3   94.00    2.42
  -3   2   3   94.10    2.30
   2  -2  -3   11.94    0.37
   2  -2  -3   12.03    0.37
   2  -2  -3   11.91    0.42
  -2   2   3   12.58    0.42
  -2   2   3   12.30    0.34
   1  -2  -3    2.59    0.12
   1  -2  -3    2.43    0.12
  -1   2   3    2.74    0.12
  -1   2   3    2.34    0.09
  -1   2   3    2.46    0.14
   0  -2  -3   43.48    1.09
   0  -2  -3   41.00    1.13
   0  -2  -3   39.65    1.04
   0  -2  -3   44.06    1.04
   0  -2  -3   42.28    1.10
   0   2   3   43.81    1.09
   0   2   3   43.65    1.08
   0   2   3   42.02    1.05
  -1  -2  -3   21.05    0.65
  -1  -2  -3   21.48    0.60
  -1  -2  -3   22.67    0.65
  -1  -2  -3   20.05    0.68
  -1  -2  -3   18.23    0.62
  -1  -2  -3   22.80    0.62
   1   2   3   22.13    0.58
   1   2   3   23.04    0.65
   1   2   3   22.68    0.62
  -2  -2  -3    6.34    0.27
  -2  -2  -3    6.25    0.30
  -2  -2  -3    6.39    0.28
  -2  -2  -3    6.06    0.29
  -2  -2  -3    6.09    0.25
   2   2   3    6.63    0.30
   2   2   3    6.04    0.28
   2   2   3    6.36    0.28
   2   2   3    6.59    0.26
  -3  -2  -3   10.77    0.43
  -3  -2  -3   10.97    0.43
  -3  -2  -3   10.72    0.39
  -3  -2  -3   10.65    0.40
  -3  -2  -3   11.36    0.41
   3   2   3   10.53    0.37
   3   2   3   10.23    0.37
   3   2   3   10.56    0.41
  -4  -2  -3   17.36    0.55
  -4  -2  -3   16.84    0.53
  -4  -2  -3   16.36    0.60
  -4  -2  -3   16.80    0.52
  -4  -2  -3   16.46    0.60
   4   2   3   16.90    0.58
   4   2   3   17.90    0.53
   4   2   3   17.48    0.54
  -5  -2  -3    2.76    0.22
  -5  -2  -3    3.02    0.19
  -5  -2  -3    3.01    0.23
  -5  -2  -3    2.73    0.18
  -5  -2  -3    2.81    0.17
   5   2   3    3.04    0.20
   5   2   3    3.43    0.19
  -6  -2  -3  117.61    3.11
  -6  -2  -3  115.59    2.98
  -6  -2  -3  112.92    3.00
   6   2   3  120.64    2.98
   6   2   3  116.70    3.02
  -7  -2  -3    2.93    0.24
   7   2   3    2.97    0.20
   7   2   3    2.68    0.21
  -8  -2  -3    1.68    0.18
  -8  -2  -3    1.73    0.21
   8   2   3    1.51    0.17
  -9  -2  -3   81.55    2.40
   9   2   3   85.80    2.31
  10   2   3    1.16    0.18
   8  -3  -3   24.52    0.96
  -8   3   3   25.83    0.80
  -8   3   3   24.59    1.01
   7  -3  -3    6.08    0.38
  -7   3   3    5.56    0.27
  -7   3   3    5.42    0.39
   6  -3  -3   85.36    2.34
  -6   3   3   82.78    2.37
  -6   3   3   84.90    2.18
   5  -3  -3   35.54    1.10
  -5   3   3   34.16    1.11
  -5   3   3   35.97    0.97
   4  -3  -3    0.82    0.13
   4  -3  -3    0.84    0.07
  -4   3   3    1.12    0.17
  -4   3   3    0.86    0.08
   3  -3  -3  341.84    8.35
   3  -3  -3  331.94    8.37
   3  -3  -3  333.35    8.68
  -3   3   3  337.56    8.48
  -3   3   3  337.47    8.37
   2  -3  -3   68.91    1.76
   2  -3  -3   68.32    1.81
   2  -3  -3   69.04    1.76
   2  -3  -3   69.27    1.72
   2  -3  -3   69.09    1.74
  -2   3   3   65.45    1.71
  -2   3   3   69.14    1.75
  -2   3   3   69.16    1.80
   1  -3  -3    4.84    0.20
   1  -3  -3    4.85    0.18
   1  -3  -3    4.48    0.20
   1  -3  -3    4.71    0.20
  -1   3   3    4.52    0.19
  -1   3   3    4.47    0.17
   0  -3  -3  268.36    7.04
   0  -3  -3  272.98    6.96
   0  -3  -3  261.88    6.81
   0  -3  -3  281.68    6.90
   0   3   3  275.71    6.94
   0   3   3  267.09    6.75
  -1  -3  -3  119.75    3.09
  -1  -3  -3  125.87    3.05
  -1  -3  -3  125.07    3.08
  -1  -3  -3  120.94    3.04
  -1  -3  -3  123.78    3.06
   1   3   3  118.49    2.99
   1   3   3  122.60    3.03
   1   3   3  119.32    3.04
  -2  -3  -3    0.28    0.08
  -2  -3  -3    0.31    0.09
  -2  -3  -3    0.39    0.09
  -2  -3  -3    0.59    0.09
   2   3   3    0.56    0.09
   2   3   3    0.67    0.10
   2   3   3    0.50    0.11
  -3  -3  -3  166.68    4.19
  -3  -3  -3  160.54    4.06
  -3  -3  -3  165.23    4.16
  -3  -3  -3  162.53    4.05
  -3  -3  -3  161.05    4.06
   3   3   3  163.68    4.06
   3   3   3  165.97    4.16
   3   3   3  168.21    4.09
   3   3   3  161.61    4.20
  -4  -3  -3   68.35    1.86
  -4  -3  -3   71.84    1.93
  -4  -3  -3   71.48    1.96
  -4  -3  -3   71.49    1.83
   4   3   3   68.33    1.83
   4   3   3   68.76    1.90
   4   3   3   67.44    1.80
  -5  -3  -3    1.58    0.18
  -5  -3  -3    1.30    0.18
  -5  -3  -3    1.14    0.13
  -5  -3  -3    1.23    0.14
  -5  -3  -3    1.33    0.13
   5   3   3    1.65    0.14
   5   3   3    1.32    0.12
   5   3   3    1.29    0.15
  -6  -3  -3  123.60    3.23
  -6  -3  -3  117.09    3.09
  -6  -3  -3  114.28    3.11
   6   3   3  121.55    3.04
   6   3   3  124.01    3.13
  -7  -3  -3   63.70    1.85
  -7  -3  -3   63.10    1.80
   7   3   3   68.88    1.84
  -8  -3  -3   10.16    0.47
  -8  -3  -3   10.42    0.51
   8   3   3   10.85    0.48
  -9  -3  -3    6.20    0.46
  -9  -3  -3    5.73    0.41
   9   3   3    5.57    0.34
  10   3   3   26.61    0.92
   8  -4  -3    3.75    0.33
  -8   4   3    3.18    0.35
  -8   4   3    3.60    0.24
   7  -4  -3    1.32    0.21
  -7   4   3    1.26    0.13
  -7   4   3    1.66    0.28
   6  -4  -3   69.21    1.75
   6  -4  -3   68.21    1.97
  -6   4   3   66.11    1.99
  -6   4   3   69.60    1.81
   5  -4  -3    5.12    0.32
   5  -4  -3    5.28    0.24
  -5   4   3    5.32    0.24
  -5   4   3    5.10    0.33
   4  -4  -3    3.92    0.25
   4  -4  -3    3.86    0.20
  -4   4   3    3.80    0.26
  -4   4   3    3.69    0.19
   3  -4  -3   31.30    0.96
   3  -4  -3   31.23    0.90
  -3   4   3   32.07    0.86
   2  -4  -3   11.00    0.40
   2  -4  -3   10.46    0.38
   2  -4  -3   10.08    0.40
  -2   4   3   10.25    0.34
   1  -4  -3   33.97    0.94
   1  -4  -3   33.44    0.94
   1  -4  -3   32.63    0.94
   1  -4  -3   32.66    0.94
  -1   4   3   33.15    0.92
  -1   4   3   32.65    0.87
  -1   4   3   32.14    0.92
   0  -4  -3   33.08    0.94
   0  -4  -3   32.56    0.94
   0  -4  -3   35.27    0.96
   0  -4  -3   33.27    0.96
   0  -4  -3   32.99    0.96
   0   4   3   33.28    0.94
   0   4   3   35.18    0.94
   0   4   3   33.88    0.89
  -1  -4  -3    1.54    0.11
  -1  -4  -3    1.42    0.12
  -1  -4  -3    1.76    0.11
  -1  -4  -3    1.48    0.13
   1   4   3    1.34    0.10
   1   4   3    1.40    0.12
   1   4   3    1.46    0.12
   1   4   3    1.31    0.12
  -2  -4  -3   68.69    1.78
  -2  -4  -3   69.31    1.78
  -2  -4  -3   69.16    1.88
  -2  -4  -3   69.38    1.86
  -2  -4  -3   70.01    1.88
   2   4   3   68.78    1.78
   2   4   3   67.01    1.87
   2   4   3   69.67    1.86
  -3  -4  -3   12.49    0.51
  -3  -4  -3   12.29    0.51
  -3  -4  -3   11.37    0.51
  -3  -4  -3   11.76    0.44
  -3  -4  -3   12.38    0.42
   3   4   3   12.57    0.46
   3   4   3   12.43    0.52
   3   4   3   12.29    0.43
  -4  -4  -3    2.66    0.18
  -4  -4  -3    2.49    0.23
  -4  -4  -3    2.27    0.21
  -4  -4  -3    2.42    0.22
   4   4   3    2.42    0.18
   4   4   3    2.11    0.20
   4   4   3    2.32    0.14
  -5  -4  -3  141.16    3.49
  -5  -4  -3  143.61    3.70
  -5  -4  -3  140.55    3.61
   5   4   3  130.72    3.40
   5   4   3  131.27    3.56
  -6  -4  -3   34.22    1.26
   6   4   3   31.37    1.04
  -7  -4  -3    4.92    0.30
  -7  -4  -3    4.89    0.33
   7   4   3    5.04    0.31
  -8  -4  -3   69.39    1.91
  -8  -4  -3   65.12    1.97
   8   4   3   67.86    1.92
  -9  -4  -3    7.63    0.48
  -9  -4  -3    8.73    0.75
   9   4   3    8.28    0.43
  10   4   3   26.62    0.92
   7  -5  -3    0.92    0.10
   7  -5  -3    0.85    0.18
  -7   5   3    0.67    0.12
   6  -5  -3   38.36    1.12
   6  -5  -3   38.61    1.27
  -6   5   3   40.04    1.13
   5  -5  -3    0.22    0.07
   5  -5  -3    0.07    0.07
  -5   5   3    0.06    0.05
   4  -5  -3   25.54    0.86
   4  -5  -3   24.75    0.78
  -4   5   3   24.76    0.74
   3  -5  -3  108.30    2.82
   3  -5  -3  111.86    2.85
   3  -5  -3  110.28    2.88
  -3   5   3  108.93    2.76
   2  -5  -3    0.96    0.11
   2  -5  -3    1.47    0.14
   2  -5  -3    1.05    0.12
  -2   5   3    0.90    0.09
   1  -5  -3   63.69    1.74
   1  -5  -3   65.93    1.73
   1  -5  -3   65.20    1.74
  -1   5   3   65.00    1.73
  -1   5   3   64.34    1.66
   0  -5  -3   25.46    0.75
   0  -5  -3   25.30    0.79
   0  -5  -3   22.89    0.77
   0  -5  -3   24.60    0.75
   0  -5  -3   25.34    0.79
   0   5   3   24.86    0.77
   0   5   3   26.33    0.72
   0   5   3   25.75    0.77
  -1  -5  -3    2.49    0.19
  -1  -5  -3    2.28    0.15
  -1  -5  -3    2.36    0.18
  -1  -5  -3    2.52    0.15
  -1  -5  -3    2.48    0.18
  -1  -5  -3    2.31    0.16
   1   5   3    2.35    0.17
   1   5   3    2.55    0.15
   1   5   3    2.40    0.18
   1   5   3    2.40    0.18
  -2  -5  -3   23.71    0.79
  -2  -5  -3   23.25    0.77
  -2  -5  -3   23.37    0.69
  -2  -5  -3   23.98    0.75
  -2  -5  -3   23.98    0.80
   2   5   3   23.39    0.80
   2   5   3   24.23    0.72
   2   5   3   23.82    0.79
  -3  -5  -3   51.07    1.35
  -3  -5  -3   49.62    1.48
  -3  -5  -3   50.68    1.48
  -3  -5  -3   48.70    1.37
  -3  -5  -3   49.38    1.49
   3   5   3   50.53    1.52
   3   5   3   51.35    1.51
   3   5   3   51.70    1.35
   3   5   3   50.94    1.41
  -4  -5  -3    7.14    0.39
  -4  -5  -3    7.39    0.41
  -4  -5  -3    7.13    0.27
  -4  -5  -3    6.84    0.33
  -4  -5  -3    6.64    0.39
   4   5   3    7.74    0.31
   4   5   3    7.48    0.40
   4   5   3    7.69    0.44
  -5  -5  -3    2.29    0.23
  -5  -5  -3    2.16    0.23
  -5  -5  -3    2.67    0.20
  -5  -5  -3    2.20    0.19
   5   5   3    2.16    0.22
   5   5   3    2.44    0.26
  -6  -5  -3   57.13    1.58
   6   5   3   58.66    1.80
   6   5   3   53.02    1.64
  -7  -5  -3    0.93    0.15
  -7  -5  -3    0.91    0.18
   7   5   3    0.90    0.21
   7   5   3    0.99    0.17
  -8  -5  -3    1.79    0.22
  -8  -5  -3    2.11    0.24
   8   5   3    1.71    0.19
   9   5   3   43.03    1.34
  10   5   3    0.67    0.14
   7  -6  -3    2.34    0.19
  -7   6   3    2.71    0.21
   6  -6  -3   54.90    1.70
   6  -6  -3   55.06    1.57
  -6   6   3   55.47    1.53
   5  -6  -3   31.25    0.99
   5  -6  -3   31.58    1.07
  -5   6   3   31.11    0.93
   4  -6  -3    0.21    0.09
   4  -6  -3    0.33    0.09
  -4   6   3    0.23    0.07
   3  -6  -3  176.15    4.48
   3  -6  -3  177.33    4.51
   3  -6  -3  179.76    4.51
  -3   6   3  175.19    4.39
   2  -6  -3   51.36    1.48
   2  -6  -3   52.46    1.47
   2  -6  -3   51.36    1.47
  -2   6   3   52.15    1.38
   1  -6  -3    4.08    0.25
   1  -6  -3    3.87    0.23
   1  -6  -3    4.40    0.26
  -1   6   3    4.13    0.20
  -1   6   3    4.01    0.24
   0  -6  -3  368.38    9.18
   0  -6  -3  378.84    9.46
   0  -6  -3  372.13    9.43
   0  -6  -3  362.07    9.23
   0   6   3  375.77    9.27
   0   6   3  386.61    9.26
  -1  -6  -3   40.01    1.20
  -1  -6  -3   40.03    1.11
  -1  -6  -3   40.79    1.17
  -1  -6  -3   39.75    1.20
   1   6   3   40.05    1.19
   1   6   3   40.12    1.11
   1   6   3   38.72    1.19
   1   6   3   39.55    1.18
  -2  -6  -3   10.74    0.44
  -2  -6  -3   10.60    0.46
  -2  -6  -3   10.05    0.45
  -2  -6  -3   10.40    0.47
  -2  -6  -3   10.41    0.37
   2   6   3   10.03    0.47
   2   6   3   10.24    0.40
   2   6   3    9.96    0.46
  -3  -6  -3  217.35    5.52
  -3  -6  -3  217.90    5.68
  -3  -6  -3  231.23    5.65
  -3  -6  -3  220.71    5.64
  -3  -6  -3  230.61    5.65
   3   6   3  222.93    5.68
   3   6   3  220.05    5.69
  -4  -6  -3   52.17    1.48
  -4  -6  -3   52.96    1.59
  -4  -6  -3   53.62    1.61
   4   6   3   50.56    1.65
   4   6   3   55.56    1.61
  -5  -6  -3    2.12    0.21
  -5  -6  -3    2.25    0.25
   5   6   3    2.45    0.28
   5   6   3    2.33    0.23
  -6  -6  -3   46.61    1.37
  -6  -6  -3   44.14    1.48
  -6  -6  -3   45.92    1.36
   6   6   3   47.39    1.45
   6   6   3   49.48    1.59
  -7  -6  -3   20.49    0.76
   7   6   3   23.52    0.96
   7   6   3   21.37    0.82
  -8  -6  -3    3.13    0.30
  -8  -6  -3    3.25    0.26
   8   6   3    3.01    0.26
   8   6   3    3.25    0.34
   9   6   3    0.63    0.14
   6  -7  -3   29.60    0.99
   5  -7  -3   -0.02    0.04
   5  -7  -3    0.04    0.08
   4  -7  -3    0.52    0.12
   4  -7  -3    0.70    0.14
  -4   7   3    0.53    0.10
   3  -7  -3   15.27    0.61
   3  -7  -3   15.11    0.60
   3  -7  -3   15.55    0.62
  -3   7   3   14.68    0.52
   2  -7  -3    0.92    0.15
   2  -7  -3    0.53    0.12
   2  -7  -3    0.59    0.13
  -2   7   3    0.97    0.12
   1  -7  -3   35.44    1.06
   1  -7  -3   34.08    1.10
   1  -7  -3   35.40    1.11
  -1   7   3   34.93    1.01
  -1   7   3   36.50    1.25
   0  -7  -3    0.89    0.13
   0  -7  -3    1.03    0.16
   0  -7  -3    0.95    0.13
   0  -7  -3    0.91    0.15
   0   7   3    1.15    0.15
  -1  -7  -3    2.14    0.19
  -1  -7  -3    2.22    0.16
  -1  -7  -3    2.35    0.22
   1   7   3    2.98    0.23
  -2  -7  -3   77.18    2.14
  -2  -7  -3   78.83    2.18
   2   7   3   76.98    2.18
  -3  -7  -3   28.39    1.00
  -3  -7  -3   30.86    1.03
  -3  -7  -3   30.69    1.05
   3   7   3   28.72    1.05
   3   7   3   29.98    1.05
  -4  -7  -3    2.50    0.25
  -4  -7  -3    2.34    0.20
   4   7   3    2.46    0.25
   4   7   3    2.06    0.25
  -5  -7  -3  135.89    3.69
  -5  -7  -3  133.76    3.58
   5   7   3  143.80    3.70
   5   7   3  139.46    3.82
  -6  -7  -3   43.25    1.31
  -6  -7  -3   41.10    1.40
   6   7   3   44.14    1.39
   6   7   3   43.71    1.52
  -7  -7  -3   15.22    0.81
  -7  -7  -3   13.01    0.67
  -7  -7  -3   14.40    0.61
   7   7   3   13.52    0.82
   7   7   3   13.77    0.62
  -8  -7  -3   70.57    2.18
   8   7   3   69.73    2.03
   9   7   3    4.36    0.31
   5  -8  -3    0.62    0.14
   5  -8  -3    0.72    0.20
   4  -8  -3   47.58    1.48
   4  -8  -3   48.60    1.50
   3  -8  -3   26.45    0.92
   3  -8  -3   25.66    0.92
   2  -8  -3    0.22    0.09
   2  -8  -3    0.27    0.09
   1  -8  -3   51.52    1.57
   1  -8  -3   52.87    1.50
   0  -8  -3    0.62    0.11
   0   8   3    0.51    0.12
   0   8   3    0.65    0.14
  -1  -8  -3    4.57    0.29
  -1  -8  -3    4.79    0.33
   1   8   3    4.45    0.32
  -2  -8  -3   22.37    0.82
  -2  -8  -3   23.37    0.86
   2   8   3   22.03    0.86
  -3  -8  -3    6.22    0.39
   3   8   3    6.79    0.44
  -4  -8  -3    7.65    0.45
   4   8   3    7.02    0.44
  -5  -8  -3    7.41    0.45
   5   8   3    7.39    0.44
  -6  -8  -3   19.54    0.82
   6   8   3   19.30    0.79
  -7  -8  -3    6.11    0.44
   7   8   3    6.24    0.39
  -8  -8  -3    0.23    0.15
   8   8   3    0.54    0.14
   4  -9  -3   -0.04    0.07
   4  -9  -3    0.09    0.08
   3  -9  -3   86.09    2.39
   3  -9  -3   83.09    2.41
   2  -9  -3   19.67    0.80
   2  -9  -3   19.67    0.74
   1  -9  -3    9.61    0.45
   1  -9  -3   10.12    0.52
   0  -9  -3  143.84    3.77
   0   9   3  137.54    3.74
   0   9   3  138.87    3.75
  -1  -9  -3   11.87    0.59
   1   9   3   11.89    0.59
   2   9   3    5.24    0.39
   3   9   3   54.31    1.75
   4   9   3   12.80    0.63
  -5  -9  -3    0.42    0.15
   5   9   3    0.46    0.14
  -6  -9  -3   20.28    0.86
   6   9   3   21.15    0.84
  -7  -9  -3    2.09    0.31
   7   9   3    2.41    0.24
   3 -10  -3   10.19    0.56
   2 -10  -3   13.11    0.65
   1 -10  -3   16.87    0.76
   0 -10  -3    1.40    0.23
   0  10   3    1.12    0.22
   1  10   3   11.94    0.63
   2  10   3   73.88    2.25
   3  10   3   20.04    0.89
   4  10   3   12.94    0.66
   5  10   3   84.18    2.45
   6  10   3   14.52    0.67
   0 -11  -3    2.37    0.31
   0  11   3    2.75    0.31
   1  11   3    0.39    0.14
   2  11   3   29.37    1.18
   3  11   3    0.69    0.19
  -2  -8   4   44.18    1.42
  -2  -8   4   44.57    1.30
  -1  -8   4    0.10    0.07
  -1  -8   4    0.25    0.08
   0  -8   4    3.30    0.23
   0  -8   4    2.96    0.26
  -1   8  -4   53.93    1.52
   1  -8   4   54.87    1.64
   1  -8   4   57.67    1.55
  -2   8  -4    8.86    0.45
   2  -8   4    8.85    0.45
   2  -8   4    9.26    0.40
  -3   8  -4    0.07    0.07
  -4   8  -4   41.87    1.36
  -4   8  -4   42.60    1.37
  -4  -7   4    4.08    0.27
  -3  -7   4    4.10    0.25
  -2  -7   4    3.87    0.29
  -2  -7   4    4.04    0.24
  -1  -7   4   31.99    1.07
  -1  -7   4   35.02    0.99
   0   7  -4    0.48    0.12
   0  -7   4    0.41    0.08
   0  -7   4    0.78    0.14
  -1   7  -4   23.48    0.84
  -1   7  -4   23.75    0.75
   1  -7   4   23.54    0.82
   1  -7   4   25.40    0.76
  -2   7  -4   34.13    1.09
  -2   7  -4   33.26    1.11
   2  -7   4   34.77    1.01
   2  -7   4   34.05    1.08
  -3   7  -4    2.42    0.23
  -3   7  -4    2.62    0.23
   3  -7   4    2.54    0.19
   3  -7   4    2.65    0.22
  -4   7  -4   24.95    0.90
   4  -7   4   25.76    0.88
  -5   7  -4   11.48    0.56
   5  -7   4   12.33    0.55
  -6   7  -4    4.02    0.32
  -5  -6   4   65.70    1.84
  -4  -6   4   10.07    0.42
  -3  -6   4   33.69    0.98
   2   6  -4   54.89    1.62
  -2  -6   4   59.46    1.54
   1   6  -4    4.43    0.27
  -1  -6   4    4.11    0.22
  -1  -6   4    4.44    0.28
   0   6  -4   37.86    1.14
   0  -6   4   37.14    1.12
   0  -6   4   37.42    1.04
  -1   6  -4   12.28    0.46
  -1   6  -4   13.42    0.53
   1  -6   4   12.88    0.50
   1  -6   4   13.06    0.45
  -2   6  -4    0.27    0.09
  -2   6  -4    0.51    0.11
   2  -6   4    0.39    0.08
   2  -6   4    0.19    0.07
  -3   6  -4   53.93    1.62
  -3   6  -4   55.61    1.59
  -3   6  -4   56.10    1.60
   3  -6   4   54.42    1.56
   3  -6   4   56.39    1.57
   3  -6   4   57.28    1.52
  -4   6  -4    6.95    0.39
  -4   6  -4    7.12    0.38
   4  -6   4    6.75    0.35
   4  -6   4    7.49    0.38
   4  -6   4    7.06    0.32
  -5   6  -4    1.08    0.18
   5  -6   4    1.00    0.17
  -6   6  -4   32.24    1.08
   6  -6   4   30.09    1.06
  -7   6  -4   22.19    0.87
  -6  -5   4    6.53    0.51
  -6  -5   4    6.16    0.35
  -5  -5   4   27.15    0.89
   4   5  -4    0.97    0.16
  -4  -5   4    1.49    0.14
   3   5  -4    5.88    0.31
  -3  -5   4    5.78    0.26
   2   5  -4  122.77    3.14
  -2  -5   4  121.34    3.05
   1   5  -4   16.82    0.59
  -1  -5   4   16.87    0.52
  -1  -5   4   16.63    0.59
   0   5  -4    2.97    0.20
   0  -5   4    2.58    0.18
   0  -5   4    2.46    0.15
  -1   5  -4  201.58    5.23
  -1   5  -4  214.51    5.32
   1  -5   4  215.60    5.26
   1  -5   4  218.87    5.22
   1  -5   4  214.84    5.28
  -2   5  -4   49.43    1.40
  -2   5  -4   48.81    1.37
   2  -5   4   48.33    1.35
   2  -5   4   48.19    1.30
   2  -5   4   48.25    1.35
  -3   5  -4    0.36    0.09
  -3   5  -4    0.28    0.08
   3  -5   4    0.31    0.09
   3  -5   4    0.39    0.07
   3  -5   4    0.54    0.10
  -4   5  -4  143.71    3.71
  -4   5  -4  145.22    3.74
   4  -5   4  145.51    3.68
   4  -5   4  145.81    3.63
   4  -5   4  142.34    3.71
  -5   5  -4   69.79    1.91
   5  -5   4   66.05    1.91
  -6   5  -4    5.33    0.33
   6  -5   4    5.39    0.34
  -7   5  -4   32.77    1.10
   7  -5   4   31.55    1.10
  -8   5  -4   62.75    1.90
  -7  -4   4    1.08    0.17
  -7  -4   4    1.02    0.27
  -6  -4   4    6.69    0.35
  -6  -4   4    6.77    0.35
  -6  -4   4    6.17    0.49
   5   4  -4   16.15    0.67
  -5  -4   4   15.96    0.59
   4   4  -4   15.61    0.59
  -4  -4   4   14.49    0.51
   3   4  -4    1.02    0.12
  -3  -4   4    0.99    0.10
   2   4  -4    3.04    0.19
  -2  -4   4    2.96    0.15
   1   4  -4   97.01    2.50
  -1  -4   4   98.49    2.43
   0   4  -4    3.18    0.19
   0  -4   4    3.13    0.15
   0  -4   4    3.20    0.18
   0  -4   4    3.24    0.17
  -1   4  -4   13.84    0.43
  -1   4  -4   15.79    0.41
  -1   4  -4   14.67    0.51
   1  -4   4   14.80    0.45
   1  -4   4   14.78    0.49
   1  -4   4   14.36    0.48
  -2   4  -4   40.82    1.13
  -2   4  -4   40.46    1.15
  -2   4  -4   39.89    1.12
   2  -4   4   40.18    1.14
   2  -4   4   39.67    1.07
   2  -4   4   40.73    1.12
  -3   4  -4   10.37    0.41
  -3   4  -4   10.99    0.43
   3  -4   4   11.02    0.37
   3  -4   4   10.21    0.42
   3  -4   4   11.04    0.40
  -4   4  -4   36.32    1.08
  -4   4  -4   38.44    1.12
   4  -4   4   34.84    1.09
   4  -4   4   36.64    1.02
   4  -4   4   36.30    1.05
  -5   4  -4   14.33    0.55
  -5   4  -4   14.41    0.57
   5  -4   4   14.64    0.53
   5  -4   4   14.31    0.49
   5  -4   4   13.58    0.55
  -6   4  -4    0.15    0.07
   6  -4   4    0.01    0.06
  -7   4  -4   19.16    0.72
   7  -4   4   17.16    0.72
  -8   4  -4    1.03    0.18
   8  -4   4    1.10    0.19
   8  -4   4    0.91    0.18
  -9   4  -4    0.29    0.11
   9  -4   4    0.08    0.08
  -7  -3   4    4.97    0.30
  -7  -3   4    6.40    0.49
  -6  -3   4    8.70    0.54
  -6  -3   4    8.29    0.38
   5   3  -4   74.92    2.23
  -5  -3   4   82.03    2.39
  -5  -3   4   82.49    2.13
  -5  -3   4   81.96    2.13
   4   3  -4   25.87    0.85
  -4  -3   4   25.72    0.77
   3   3  -4    5.30    0.26
  -3  -3   4    5.27    0.21
   2   3  -4   65.82    1.75
  -2  -3   4   68.84    1.69
   1   3  -4   11.22    0.38
  -1  -3   4   11.26    0.37
  -1  -3   4   11.17    0.33
   0   3  -4   41.17    1.10
   0  -3   4   40.71    1.04
   0  -3   4   39.81    1.09
  -1   3  -4    2.68    0.15
   1  -3   4    2.33    0.13
   1  -3   4    2.17    0.15
   1  -3   4    2.23    0.11
  -2   3  -4    1.40    0.12
  -2   3  -4    1.52    0.11
  -2   3  -4    1.45    0.11
   2  -3   4    1.24    0.10
   2  -3   4    1.23    0.12
   2  -3   4    1.35    0.09
  -3   3  -4   27.42    0.81
  -3   3  -4   27.70    0.83
   3  -3   4   27.25    0.84
   3  -3   4   26.90    0.77
   3  -3   4   28.73    0.80
  -4   3  -4   22.37    0.72
  -4   3  -4   23.18    0.75
   4  -3   4   23.77    0.76
   4  -3   4   23.47    0.68
   4  -3   4   23.37    0.71
  -5   3  -4    5.15    0.28
  -5   3  -4    5.06    0.29
   5  -3   4    5.02    0.23
   5  -3   4    4.90    0.29
   5  -3   4    5.27    0.26
  -6   3  -4   12.15    0.50
   6  -3   4   12.14    0.51
   6  -3   4   11.74    0.51
  -7   3  -4   65.10    1.88
   7  -3   4   67.18    1.92
   7  -3   4   66.44    1.88
  -8   3  -4    1.13    0.19
   8  -3   4    0.91    0.16
   8  -3   4    0.88    0.17
   9  -3   4    8.46    0.50
   9  -3   4    8.16    0.46
  -8  -2   4    1.89    0.19
  -8  -2   4    2.44    0.41
  -7  -2   4   10.61    0.64
  -7  -2   4   11.51    0.46
  -6  -2   4    3.38    0.22
  -6  -2   4    3.54    0.34
  -5  -2   4   61.11    1.80
  -5  -2   4   54.18    1.54
   4   2  -4   39.39    1.22
  -4  -2   4   41.26    1.12
  -4  -2   4   39.83    1.31
   3   2  -4   23.80    0.71
   3   2  -4   23.07    0.73
  -3  -2   4   23.05    0.65
   2   2  -4  317.21    8.01
   2   2  -4  321.12    8.05
   2   2  -4  311.06    7.95
   2   2  -4  346.34    8.26
  -2  -2   4  325.26    7.84
  -2  -2   4  311.91    7.77
  -2  -2   4  314.10    7.84
   1   2  -4   37.60    1.06
   1   2  -4   38.59    1.01
   1   2  -4   39.39    1.10
   1   2  -4   38.10    1.00
  -1  -2   4   38.22    1.06
  -1  -2   4   37.05    0.98
  -1  -2   4   39.44    0.96
   0   2  -4   70.94    1.90
   0   2  -4   73.50    1.80
   0   2  -4   72.19    1.80
   0  -2   4   71.16    1.77
   0  -2   4   72.20    1.86
   0  -2   4   70.55    1.76
  -1   2  -4  603.89   14.81
  -1   2  -4  594.13   14.73
  -1   2  -4  598.12   15.28
   1  -2   4  598.13   14.64
   1  -2   4  592.78   14.52
   1  -2   4  577.01   14.85
  -2   2  -4   69.34    1.78
  -2   2  -4   67.97    1.74
  -2   2  -4   70.67    1.86
  -2   2  -4   66.72    1.77
  -2   2  -4   70.06    1.74
   2  -2   4   68.76    1.81
   2  -2   4   68.95    1.73
   2  -2   4   70.11    1.75
  -3   2  -4    0.61    0.12
  -3   2  -4    0.75    0.09
  -3   2  -4    0.50    0.09
   3  -2   4    0.59    0.09
   3  -2   4    0.63    0.11
   3  -2   4    0.68    0.08
   3  -2   4    0.51    0.07
  -4   2  -4  290.22    7.95
  -4   2  -4  302.56    7.60
  -4   2  -4  313.20    7.69
   4  -2   4  300.32    7.79
   4  -2   4  311.25    7.66
   4  -2   4  306.84    7.48
   4  -2   4  311.14    7.58
  -5   2  -4  103.24    2.74
  -5   2  -4  104.27    2.72
   5  -2   4  106.81    2.65
   5  -2   4  105.61    2.76
   5  -2   4  103.20    2.72
   5  -2   4  108.37    2.69
  -6   2  -4    6.96    0.35
  -6   2  -4    6.65    0.35
   6  -2   4    6.67    0.36
   6  -2   4    6.65    0.34
   6  -2   4    7.12    0.35
  -7   2  -4   84.40    2.27
   7  -2   4   82.30    2.29
   7  -2   4   80.81    2.24
  -8   2  -4   96.18    2.65
   8  -2   4   97.17    2.67
   8  -2   4   95.24    2.62
   9  -2   4   12.60    0.62
   9  -2   4   13.38    0.59
  10  -2   4    6.33    0.41
  -8  -1   4   48.99    1.39
  -8  -1   4   48.96    1.72
  -7  -1   4    8.83    0.56
  -7  -1   4    9.22    0.38
  -6  -1   4    4.14    0.35
  -6  -1   4    4.60    0.23
  -5  -1   4   31.98    1.12
  -5  -1   4   33.39    0.92
  -4  -1   4   42.51    1.13
  -4  -1   4   42.25    1.32
   3   1  -4    2.41    0.19
   3   1  -4    2.47    0.15
   3   1  -4    2.43    0.13
  -3  -1   4    2.28    0.13
  -3  -1   4    2.38    0.19
  -3  -1   4    2.30    0.21
  -3  -1   4    2.24    0.10
   2   1  -4    0.10    0.07
   2   1  -4    0.32    0.07
   2   1  -4    0.47    0.08
   2   1  -4    0.31    0.07
   1   1  -4   66.11    1.57
   1   1  -4   59.85    1.72
   1   1  -4   67.62    1.68
   1   1  -4   62.65    1.57
  -1  -1   4   61.55    1.72
   0   1  -4    6.06    0.19
   0   1  -4    6.33    0.20
   0   1  -4    6.18    0.27
   0   1  -4    6.24    0.28
   0  -1   4    6.47    0.18
   0  -1   4    6.26    0.29
  -1   1  -4   25.25    0.77
  -1   1  -4   25.64    0.68
   1  -1   4   25.08    0.66
   1  -1   4   26.70    0.77
   1  -1   4   26.16    0.66
   1  -1   4   25.21    0.66
  -2   1  -4   24.49    0.68
  -2   1  -4   23.29    0.73
  -2   1  -4   24.81    0.63
  -2   1  -4   23.20    0.63
  -2   1  -4   24.52    0.66
   2  -1   4   24.91    0.73
   2  -1   4   23.19    0.64
   2  -1   4   24.47    0.65
  -3   1  -4   21.67    0.64
  -3   1  -4   21.44    0.62
  -3   1  -4   21.27    0.68
  -3   1  -4   21.46    0.62
   3  -1   4   21.06    0.60
   3  -1   4   22.20    0.61
   3  -1   4   21.65    0.68
   3  -1   4   21.84    0.64
  -4   1  -4   50.17    1.34
  -4   1  -4   51.18    1.37
  -4   1  -4   49.68    1.38
   4  -1   4   49.25    1.32
   4  -1   4   50.40    1.30
   4  -1   4   49.48    1.35
   4  -1   4   49.44    1.38
  -5   1  -4   16.64    0.57
  -5   1  -4   17.12    0.59
  -5   1  -4   16.02    0.57
   5  -1   4   16.97    0.58
   5  -1   4   16.90    0.60
   5  -1   4   16.76    0.52
   5  -1   4   16.92    0.55
  -6   1  -4   15.70    0.59
  -6   1  -4   16.39    0.60
   6  -1   4   17.09    0.62
   6  -1   4   15.73    0.58
   6  -1   4   15.90    0.52
  -7   1  -4   23.69    0.83
   7  -1   4   23.70    0.81
   7  -1   4   24.75    0.85
  -8   1  -4    1.96    0.21
   8  -1   4    2.01    0.20
   8  -1   4    1.85    0.21
   9  -1   4    5.04    0.34
   9  -1   4    5.44    0.38
  10  -1   4    6.31    0.43
  10  -1   4    6.49    0.40
  -8   0   4   36.56    1.09
  -8   0   4   37.89    1.41
  -7   0   4   10.13    0.59
  -7   0   4   10.24    0.39
  -6   0   4    2.68    0.28
  -6   0   4    2.18    0.15
  -5   0   4  101.33    2.52
  -5   0   4   99.69    2.75
   4   0  -4   15.51    0.58
  -4   0   4   14.60    0.60
  -4   0   4   15.43    0.45
   3   0  -4    0.13    0.04
   3   0  -4    0.52    0.10
   3   0  -4    0.21    0.04
  -3   0   4    0.26    0.04
  -3   0   4    0.19    0.03
  -3   0   4    0.41    0.10
   2   0  -4   44.89    1.18
   2   0  -4   48.03    1.27
   2   0  -4   50.26    1.34
  -2   0   4   47.09    1.32
   1   0  -4   10.79    0.38
   1   0  -4   10.67    0.43
  -1   0   4   10.89    0.39
  -1   0   4   10.46    0.42
   0   0  -4    0.53    0.08
   0   0  -4    0.70    0.12
   0   0  -4    0.37    0.03
   0   0   4    0.61    0.12
  -1   0  -4    4.98    0.18
  -1   0  -4    4.63    0.25
  -1   0  -4    6.18    0.25
   1   0   4    5.20    0.15
   1   0   4    5.05    0.15
   1   0   4    5.00    0.17
   1   0   4    5.98    0.28
  -2   0  -4    5.36    0.24
  -2   0  -4    5.06    0.16
  -2   0  -4    5.65    0.21
  -2   0  -4    4.98    0.19
  -2   0  -4    5.44    0.20
   2   0   4    5.19    0.18
   2   0   4    5.31    0.18
   2   0   4    6.05    0.27
  -3   0  -4    0.24    0.06
  -3   0  -4    0.18    0.04
  -3   0  -4    0.29    0.06
  -3   0  -4    0.17    0.05
   3   0   4    0.18    0.05
   3   0   4    0.36    0.05
   3   0   4    0.22    0.07
   3   0   4    0.27    0.05
  -4   0  -4  112.01    2.82
  -4   0  -4  109.08    2.82
  -4   0  -4  111.78    2.80
   4   0   4  112.06    2.78
   4   0   4  109.98    2.82
   4   0   4  110.76    2.84
   4   0   4  111.19    2.76
  -5   0  -4    7.70    0.29
  -5   0  -4    7.88    0.32
  -5   0  -4    7.80    0.34
  -5   0  -4    7.56    0.33
   5   0   4    7.64    0.35
   5   0   4    7.93    0.34
  -6   0  -4   10.14    0.44
  -6   0  -4    9.93    0.39
  -6   0  -4    9.77    0.43
   6   0   4   10.22    0.42
   6   0   4    9.92    0.43
   6   0   4   10.06    0.37
  -7   0  -4  108.99    2.89
  -7   0  -4  107.28    2.84
   7   0   4  109.04    2.87
   7   0   4  107.29    2.85
  -8   0  -4    3.86    0.30
   8   0   4    4.13    0.29
   8   0   4    3.69    0.27
   9   0   4    6.49    0.38
   9   0   4    6.45    0.40
  10   0   4   52.96    1.66
  10   0   4   51.31    1.60
  -8   1   4    5.44    0.29
  -8   1   4    6.28    0.48
  -7   1   4   27.76    0.84
  -7   1   4   29.43    1.11
  -6   1   4    1.55    0.26
  -6   1   4    0.85    0.11
   5  -1  -4   91.14    2.44
  -5   1   4   88.26    2.48
  -5   1   4   90.62    2.26
   4  -1  -4   32.03    0.97
  -4   1   4   30.04    0.98
  -4   1   4   30.35    0.82
   3  -1  -4   29.48    0.84
   3  -1  -4   29.03    0.90
   3  -1  -4   29.52    0.79
  -3   1   4   30.11    0.82
  -3   1   4   29.48    0.76
  -3   1   4   29.18    0.91
   2  -1  -4  543.63   13.57
   2  -1  -4  527.40   13.62
   2  -1  -4  540.79   13.15
  -2   1   4  527.72   13.49
  -2   1   4  544.56   12.98
  -2   1   4  535.61   13.00
   1  -1  -4   30.82    0.77
   1  -1  -4   30.70    0.91
   1  -1  -4   31.33    0.77
   1  -1  -4   30.89    0.89
  -1   1   4   30.18    0.86
   0  -1  -4   61.63    1.61
   0  -1  -4   60.67    1.64
   0  -1  -4   60.49    1.50
   0  -1  -4   57.32    1.52
   0   1   4   61.16    1.54
   0   1   4   62.60    1.65
  -1  -1  -4  778.02   22.71
  -1  -1  -4  793.94   19.70
  -1  -1  -4  725.40   19.61
  -1  -1  -4  819.99   19.24
   1   1   4  778.44   19.66
   1   1   4  789.44   20.63
   1   1   4  775.52   20.20
   1   1   4  787.65   19.01
  -2  -1  -4  233.84    5.92
  -2  -1  -4  245.55    5.93
  -2  -1  -4  232.24    5.85
  -2  -1  -4  211.64    5.86
  -2  -1  -4  234.09    5.71
  -2  -1  -4  234.98    5.72
   2   1   4  220.90    5.99
   2   1   4  229.31    5.73
   2   1   4  220.12    6.01
  -3  -1  -4    0.05    0.06
  -3  -1  -4   -0.05    0.06
  -3  -1  -4    0.17    0.06
   3   1   4    0.00    0.05
   3   1   4    0.03    0.06
   3   1   4   -0.04    0.06
  -4  -1  -4  328.93    8.69
  -4  -1  -4  330.82    8.54
  -4  -1  -4  342.94    8.31
  -4  -1  -4  348.56    8.70
   4   1   4  339.57    8.34
   4   1   4  347.93    8.74
   4   1   4  327.41    8.47
  -5  -1  -4  121.10    3.11
  -5  -1  -4  123.81    3.20
  -5  -1  -4  122.83    3.15
  -5  -1  -4  123.75    3.11
  -5  -1  -4  129.40    3.22
   5   1   4  127.26    3.20
   5   1   4  126.19    3.12
  -6  -1  -4    0.86    0.10
  -6  -1  -4    0.69    0.13
  -6  -1  -4    0.79    0.14
  -6  -1  -4    0.60    0.09
  -6  -1  -4    0.90    0.12
   6   1   4    0.74    0.12
   6   1   4    0.40    0.07
   6   1   4    0.54    0.10
  -7  -1  -4   67.53    1.81
   7   1   4   62.49    1.81
   7   1   4   65.86    1.83
  -8  -1  -4   80.97    2.29
   8   1   4   75.23    2.14
   8   1   4   75.33    2.14
   9   1   4   12.48    0.57
   9   1   4   12.76    0.58
  10   1   4    3.61    0.29
  11   1   4   21.56    0.85
  -8   2   4   57.13    1.86
  -8   2   4   54.55    1.54
  -7   2   4    9.07    0.37
  -7   2   4    9.86    0.55
   6  -2  -4    2.51    0.23
  -6   2   4    2.56    0.26
  -6   2   4    2.25    0.15
   5  -2  -4   64.92    1.83
  -5   2   4   63.32    1.85
  -5   2   4   64.36    1.65
   4  -2  -4    6.30    0.34
  -4   2   4    6.93    0.36
  -4   2   4    6.80    0.24
   3  -2  -4    0.78    0.10
   3  -2  -4    0.71    0.12
  -3   2   4    0.74    0.06
  -3   2   4    1.09    0.13
   2  -2  -4   50.50    1.29
   2  -2  -4   50.33    1.29
   2  -2  -4   50.61    1.40
   2  -2  -4   49.84    1.39
  -2   2   4   52.19    1.26
  -2   2   4   49.90    1.37
  -2   2   4   49.55    1.25
  -2   2   4   49.32    1.26
   1  -2  -4   45.22    1.25
   1  -2  -4   46.30    1.15
   1  -2  -4   45.40    1.28
   1  -2  -4   45.84    1.16
  -1   2   4   43.73    1.12
  -1   2   4   44.52    1.20
  -1   2   4   44.76    1.12
  -1   2   4   45.15    1.11
   0  -2  -4   87.43    2.21
   0  -2  -4   85.51    2.28
   0  -2  -4   89.22    2.20
   0  -2  -4   87.55    2.33
   0   2   4   87.62    2.23
   0   2   4   90.70    2.21
   0   2   4   91.50    2.19
   0   2   4   90.48    2.21
  -1  -2  -4    6.72    0.30
  -1  -2  -4    6.88    0.26
  -1  -2  -4    6.83    0.32
  -1  -2  -4    6.71    0.27
  -1  -2  -4    5.87    0.27
   1   2   4    6.97    0.21
   1   2   4    6.38    0.21
   1   2   4    6.50    0.23
   1   2   4    6.77    0.31
  -2  -2  -4   14.05    0.42
  -2  -2  -4   14.69    0.52
  -2  -2  -4   14.86    0.48
  -2  -2  -4   13.68    0.51
  -2  -2  -4   14.06    0.51
   2   2   4   14.22    0.52
   2   2   4   13.16    0.45
   2   2   4   13.58    0.50
  -3  -2  -4   47.46    1.38
  -3  -2  -4   51.48    1.33
  -3  -2  -4   51.92    1.39
  -3  -2  -4   46.62    1.35
  -3  -2  -4   52.51    1.39
   3   2   4   49.21    1.37
   3   2   4   47.02    1.32
   3   2   4   50.25    1.39
  -4  -2  -4   42.23    1.18
  -4  -2  -4   40.40    1.06
  -4  -2  -4   41.20    1.17
  -4  -2  -4   42.01    1.23
  -4  -2  -4   39.94    1.11
  -4  -2  -4   41.13    1.20
   4   2   4   39.35    1.16
   4   2   4   42.27    1.13
   4   2   4   40.62    1.20
  -5  -2  -4    4.24    0.26
  -5  -2  -4    4.12    0.21
  -5  -2  -4    4.10    0.23
  -5  -2  -4    4.02    0.20
  -5  -2  -4    4.84    0.28
   5   2   4    4.15    0.21
   5   2   4    4.13    0.24
  -6  -2  -4   58.67    1.63
  -6  -2  -4   61.85    1.77
  -6  -2  -4   59.79    1.65
  -6  -2  -4   58.52    1.75
  -6  -2  -4   62.22    1.66
   6   2   4   68.16    1.86
   6   2   4   63.13    1.69
  -7  -2  -4   31.37    1.02
  -7  -2  -4   37.00    1.16
  -7  -2  -4   34.75    1.15
   7   2   4   32.49    1.06
   7   2   4   33.51    1.04
   8   2   4   13.54    0.55
   8   2   4   13.62    0.57
   9   2   4   42.53    1.34
  10   2   4    2.33    0.24
  11   2   4   22.00    0.86
  -8   3   4   34.59    1.04
  -8   3   4   35.26    1.30
   7  -3  -4    0.96    0.19
  -7   3   4    1.02    0.23
  -7   3   4    1.06    0.14
   6  -3  -4    0.69    0.15
  -6   3   4    0.76    0.18
  -6   3   4    0.51    0.09
   5  -3  -4   52.48    1.56
  -5   3   4   51.31    1.56
  -5   3   4   54.18    1.39
   4  -3  -4    0.66    0.12
  -4   3   4    0.53    0.07
  -4   3   4    0.65    0.14
   3  -3  -4   18.98    0.66
   3  -3  -4   19.07    0.69
  -3   3   4   19.06    0.65
  -3   3   4   18.96    0.54
   2  -3  -4   50.71    1.33
   2  -3  -4   52.53    1.34
   2  -3  -4   49.76    1.41
  -2   3   4   49.78    1.28
  -2   3   4   50.94    1.39
   1  -3  -4    1.23    0.10
   1  -3  -4    1.38    0.10
   1  -3  -4    1.07    0.11
  -1   3   4    1.19    0.07
  -1   3   4    1.50    0.12
   0  -3  -4   56.84    1.43
   0  -3  -4   55.12    1.47
   0  -3  -4   50.02    1.37
   0  -3  -4   56.04    1.35
   0  -3  -4   54.56    1.43
   0   3   4   53.71    1.37
   0   3   4   56.07    1.40
  -1  -3  -4   26.49    0.79
  -1  -3  -4   28.19    0.80
  -1  -3  -4   28.49    0.81
  -1  -3  -4   24.29    0.76
  -1  -3  -4   28.57    0.82
   1   3   4   27.10    0.77
   1   3   4   28.29    0.73
  -2  -3  -4    4.25    0.23
  -2  -3  -4    4.00    0.23
  -2  -3  -4    3.61    0.21
  -2  -3  -4    3.79    0.26
  -2  -3  -4    3.70    0.24
   2   3   4    4.03    0.23
   2   3   4    4.06    0.19
   2   3   4    3.98    0.23
   2   3   4    4.10    0.22
  -3  -3  -4    0.13    0.06
  -3  -3  -4    0.08    0.06
  -3  -3  -4    0.35    0.09
  -3  -3  -4    0.34    0.09
  -3  -3  -4    0.16    0.06
   3   3   4    0.11    0.06
   3   3   4    0.15    0.07
   3   3   4    0.45    0.09
   3   3   4    0.23    0.07
  -4  -3  -4   41.46    1.19
  -4  -3  -4   44.76    1.34
  -4  -3  -4   42.56    1.27
  -4  -3  -4   41.63    1.27
  -4  -3  -4   46.26    1.32
   4   3   4   43.44    1.22
   4   3   4   45.41    1.31
   4   3   4   43.77    1.22
  -5  -3  -4   16.91    0.55
  -5  -3  -4   16.56    0.65
  -5  -3  -4   17.54    0.62
  -5  -3  -4   17.05    0.68
  -5  -3  -4   15.88    0.56
   5   3   4   17.12    0.58
   5   3   4   17.60    0.58
   5   3   4   17.65    0.65
  -6  -3  -4    0.10    0.07
  -6  -3  -4    0.18    0.08
  -6  -3  -4    0.11    0.06
  -6  -3  -4    0.49    0.11
  -6  -3  -4    0.12    0.09
   6   3   4    0.22    0.08
   6   3   4    0.23    0.08
  -7  -3  -4   83.45    2.28
  -7  -3  -4   84.73    2.43
  -7  -3  -4   82.43    2.28
   7   3   4   88.11    2.36
   7   3   4   87.31    2.27
   8   3   4    1.91    0.21
   9   3   4    3.19    0.27
  10   3   4   69.79    2.04
  11   3   4    0.55    0.14
   7  -4  -4   26.83    1.02
  -7   4   4   27.03    0.83
  -7   4   4   26.99    1.04
   6  -4  -4    0.03    0.06
  -6   4   4    0.18    0.11
  -6   4   4    0.09    0.05
   5  -4  -4  137.92    3.59
  -5   4   4  135.88    3.40
  -5   4   4  134.19    3.58
   4  -4  -4   30.65    1.00
  -4   4   4   29.71    0.99
  -4   4   4   31.75    0.86
   3  -4  -4    8.78    0.40
   3  -4  -4    8.76    0.30
  -3   4   4    8.37    0.30
  -3   4   4    9.11    0.40
   2  -4  -4  354.94    9.23
   2  -4  -4  370.43    9.15
   2  -4  -4  346.05    8.82
   2  -4  -4  363.07    8.84
  -2   4   4  350.62    8.86
   1  -4  -4   50.20    1.43
   1  -4  -4   53.34    1.34
   1  -4  -4   52.69    1.41
   1  -4  -4   51.51    1.40
  -1   4   4   51.03    1.33
  -1   4   4   54.53    1.55
   0  -4  -4   59.27    1.62
   0  -4  -4   60.65    1.60
   0  -4  -4   61.10    1.61
   0   4   4   59.86    1.57
   0   4   4   59.59    1.52
  -1  -4  -4  516.58   13.25
  -1  -4  -4  521.13   12.99
  -1  -4  -4  517.36   13.15
  -1  -4  -4  496.47   13.18
  -1  -4  -4  526.62   13.00
   1   4   4  511.72   13.23
   1   4   4  522.08   12.88
   1   4   4  539.21   13.07
  -2  -4  -4   58.37    1.58
  -2  -4  -4   58.13    1.55
  -2  -4  -4   57.14    1.58
  -2  -4  -4   54.33    1.50
  -2  -4  -4   53.15    1.57
   2   4   4   54.94    1.47
   2   4   4   53.69    1.54
   2   4   4   57.80    1.52
   2   4   4   55.87    1.53
  -3  -4  -4   16.55    0.67
  -3  -4  -4   19.50    0.59
  -3  -4  -4   19.99    0.67
  -3  -4  -4   18.32    0.61
  -3  -4  -4   16.74    0.65
   3   4   4   18.57    0.62
   3   4   4   17.45    0.68
   3   4   4   17.93    0.61
   3   4   4   18.37    0.68
  -4  -4  -4  288.08    7.25
  -4  -4  -4  279.29    7.11
  -4  -4  -4  300.02    7.30
  -4  -4  -4  297.89    7.14
  -4  -4  -4  286.37    7.13
  -4  -4  -4  291.01    7.24
   4   4   4  296.19    7.26
   4   4   4  290.58    7.13
   4   4   4  293.63    7.32
   4   4   4  285.86    7.15
  -5  -4  -4   50.47    1.47
  -5  -4  -4   51.39    1.55
  -5  -4  -4   51.92    1.41
  -5  -4  -4   52.53    1.53
  -5  -4  -4   49.75    1.52
   5   4   4   49.40    1.50
   5   4   4   49.52    1.41
   5   4   4   49.14    1.38
  -6  -4  -4    0.15    0.08
  -6  -4  -4    0.11    0.08
  -6  -4  -4    0.08    0.06
   6   4   4    0.06    0.06
   6   4   4    0.11    0.06
  -7  -4  -4   62.89    1.81
  -7  -4  -4   68.23    2.12
   7   4   4   62.58    1.86
   8   4   4   37.83    1.23
   9   4   4    3.67    0.30
  10   4   4    2.34    0.25
   7  -5  -4    1.63    0.25
  -7   5   4    1.82    0.17
   6  -5  -4    3.60    0.30
  -6   5   4    3.08    0.20
   5  -5  -4   53.03    1.62
  -5   5   4   54.77    1.46
   4  -5  -4    1.77    0.19
   4  -5  -4    1.50    0.13
  -4   5   4    1.52    0.13
   3  -5  -4    0.18    0.07
   3  -5  -4    0.17    0.06
   3  -5  -4    0.07    0.06
  -3   5   4    0.28    0.06
   2  -5  -4    8.77    0.37
   2  -5  -4    8.30    0.36
   2  -5  -4    8.75    0.39
  -2   5   4    8.79    0.31
   1  -5  -4   12.90    0.49
   1  -5  -4   13.04    0.48
   1  -5  -4   12.98    0.48
  -1   5   4   12.82    0.41
   0  -5  -4   62.21    1.69
   0  -5  -4   62.59    1.68
   0  -5  -4   62.01    1.70
   0  -5  -4   62.70    1.68
   0   5   4   63.02    1.67
   0   5   4   61.93    1.60
  -1  -5  -4    2.84    0.18
  -1  -5  -4    2.60    0.20
  -1  -5  -4    2.75    0.19
   1   5   4    2.89    0.19
   1   5   4    2.73    0.16
   1   5   4    3.18    0.20
  -2  -5  -4    1.49    0.16
  -2  -5  -4    1.43    0.13
  -2  -5  -4    1.40    0.13
  -2  -5  -4    2.03    0.19
  -2  -5  -4    1.35    0.12
  -2  -5  -4    1.44    0.16
   2   5   4    1.32    0.12
   2   5   4    1.33    0.15
   2   5   4    1.35    0.14
  -3  -5  -4  113.37    2.85
  -3  -5  -4  111.79    2.84
  -3  -5  -4  106.43    2.93
  -3  -5  -4  113.40    2.97
  -3  -5  -4  108.57    2.97
   3   5   4  107.43    2.97
   3   5   4  110.89    2.86
   3   5   4  109.66    2.95
   3   5   4  116.05    2.85
  -4  -5  -4    8.86    0.35
  -4  -5  -4    8.10    0.45
  -4  -5  -4    8.90    0.38
  -4  -5  -4    8.60    0.44
  -4  -5  -4    8.94    0.45
   4   5   4    8.93    0.36
   4   5   4    9.07    0.45
   4   5   4    9.26    0.40
   4   5   4    9.75    0.50
  -5  -5  -4    6.79    0.33
  -5  -5  -4    6.76    0.40
  -5  -5  -4    7.20    0.41
   5   5   4    7.39    0.45
   5   5   4    7.17    0.40
  -6  -5  -4  139.39    3.53
  -6  -5  -4  130.86    3.65
  -6  -5  -4  141.09    3.66
   6   5   4  135.04    3.64
   6   5   4  138.82    3.75
  -7  -5  -4   10.32    0.48
   7   5   4    9.41    0.49
   8   5   4   18.31    0.75
   9   5   4   49.96    1.56
  10   5   4    1.94    0.23
   6  -6  -4    6.82    0.43
  -6   6   4    6.88    0.33
   5  -6  -4   31.97    1.11
   5  -6  -4   31.88    0.97
  -5   6   4   32.90    0.96
   4  -6  -4    0.27    0.08
   4  -6  -4    0.03    0.06
  -4   6   4    0.19    0.06
   3  -6  -4   48.86    1.41
   3  -6  -4   50.80    1.48
   3  -6  -4   49.83    1.45
  -3   6   4   49.34    1.34
   2  -6  -4   46.28    1.33
   2  -6  -4   46.51    1.36
   2  -6  -4   46.08    1.34
  -2   6   4   45.57    1.24
   1  -6  -4    0.44    0.10
   1  -6  -4    0.26    0.08
   1  -6  -4    0.36    0.09
  -1   6   4    0.18    0.06
   0  -6  -4   53.93    1.49
   0  -6  -4   53.49    1.53
   0  -6  -4   53.57    1.53
   0   6   4   54.34    1.43
  -1  -6  -4    1.96    0.18
  -1  -6  -4    1.80    0.15
  -1  -6  -4    2.15    0.20
  -1  -6  -4    1.97    0.19
   1   6   4    2.11    0.18
   1   6   4    2.09    0.18
   1   6   4    2.03    0.15
  -2  -6  -4   16.38    0.62
  -2  -6  -4   16.56    0.56
  -2  -6  -4   16.65    0.66
  -2  -6  -4   16.59    0.64
   2   6   4   16.49    0.56
   2   6   4   16.85    0.80
   2   6   4   16.09    0.62
  -3  -6  -4    2.60    0.18
  -3  -6  -4    2.40    0.23
  -3  -6  -4    2.28    0.23
  -3  -6  -4    3.17    0.26
   3   6   4    2.63    0.25
   3   6   4    2.45    0.18
   3   6   4    2.57    0.24
   3   6   4    2.54    0.20
  -4  -6  -4   35.01    1.20
  -4  -6  -4   35.96    1.18
   4   6   4   37.07    1.20
  -5  -6  -4    7.85    0.45
  -5  -6  -4    7.75    0.44
   5   6   4    8.60    0.46
   5   6   4    7.72    0.48
  -6  -6  -4    0.52    0.15
   6   6   4    0.78    0.16
   6   6   4    0.72    0.21
  -7  -6  -4   45.96    1.52
   7   6   4   47.27    1.48
   8   6   4    1.46    0.20
   9   6   4    6.30    0.40
  10   6   4   31.53    1.10
   6  -7  -4    0.57    0.11
  -6   7   4    0.44    0.10
   5  -7  -4   73.51    2.05
   5  -7  -4   74.35    2.18
  -5   7   4   75.52    2.01
   4  -7  -4   37.32    1.17
   4  -7  -4   38.77    1.25
  -4   7   4   37.93    1.10
   3  -7  -4    0.39    0.11
   3  -7  -4    0.29    0.09
   3  -7  -4    0.32    0.11
  -3   7   4    0.52    0.10
   2  -7  -4  178.23    4.47
   2  -7  -4  169.47    4.46
   2  -7  -4  176.49    4.47
  -2   7   4  173.83    4.35
   1  -7  -4   30.94    0.98
   1  -7  -4   31.38    1.01
   1  -7  -4   29.99    1.00
  -1   7   4   31.59    0.91
   0  -7  -4   26.74    0.91
   0  -7  -4   26.61    0.85
   0  -7  -4   25.95    0.89
   0   7   4   26.79    0.80
  -1  -7  -4  294.18    7.34
  -1  -7  -4  291.42    7.27
  -1  -7  -4  291.48    7.38
  -1  -7  -4  293.74    7.39
   1   7   4  300.35    7.37
   1   7   4  300.10    7.26
   1   7   4  299.63    7.37
  -2  -7  -4   22.83    0.72
  -2  -7  -4   21.98    0.80
  -2  -7  -4   22.27    0.83
  -2  -7  -4   23.11    0.84
   2   7   4   22.81    0.82
  -3  -7  -4    8.15    0.45
  -3  -7  -4    7.71    0.43
   3   7   4    8.04    0.45
  -4  -7  -4  108.75    3.10
  -4  -7  -4  116.42    3.09
   4   7   4  113.81    3.11
  -5  -7  -4   32.01    1.09
  -5  -7  -4   28.87    1.10
   5   7   4   30.74    1.08
  -6  -7  -4    0.29    0.13
   6   7   4    0.33    0.12
  -7  -7  -4   25.63    1.03
   7   7   4   28.87    1.02
  -8  -7  -4    7.77    0.52
   8   7   4    7.41    0.45
  -9  -7  -4    2.99    0.37
   9   7   4    2.53    0.26
   5  -8  -4   19.35    0.74
   4  -8  -4    0.26    0.10
   4  -8  -4    0.36    0.12
   3  -8  -4    0.68    0.14
   3  -8  -4    0.90    0.17
   2  -8  -4    6.38    0.38
   2  -8  -4    5.76    0.35
   1  -8  -4    3.00    0.23
   1  -8  -4    3.16    0.26
   0  -8  -4   15.94    0.60
   0  -8  -4   16.29    0.67
  -1  -8  -4    0.32    0.09
  -1  -8  -4    0.04    0.06
  -1  -8  -4    0.14    0.09
   1   8   4    0.05    0.07
  -2  -8  -4    8.36    0.46
  -2  -8  -4    8.76    0.45
   2   8   4    8.35    0.46
  -3  -8  -4   79.43    2.27
  -3  -8  -4   76.56    2.22
   3   8   4   77.50    2.27
  -4  -8  -4    5.65    0.38
  -4  -8  -4    5.52    0.40
   4   8   4    5.81    0.41
  -5  -8  -4   13.30    0.64
   5   8   4   13.47    0.64
  -6  -8  -4   96.89    2.73
   6   8   4   94.76    2.71
  -7  -8  -4    2.64    0.31
   7   8   4    2.57    0.27
  -8  -8  -4   25.47    1.05
   8   8   4   26.27    0.99
   4  -9  -4    0.53    0.15
   3  -9  -4   41.08    1.36
   3  -9  -4   42.00    1.36
   2  -9  -4    9.67    0.49
   2  -9  -4    9.75    0.52
   1  -9  -4    3.48    0.30
   1  -9  -4    3.97    0.28
   0  -9  -4   45.85    1.47
   0  -9  -4   44.71    1.35
  -1  -9  -4    0.18    0.10
  -1  -9  -4    0.12    0.09
   1   9   4    0.12    0.08
  -2  -9  -4    3.55    0.29
  -2  -9  -4    3.56    0.32
   2   9   4    3.62    0.32
  -3  -9  -4   15.45    0.69
  -3  -9  -4   16.42    0.74
   3   9   4   15.62    0.74
  -4  -9  -4   13.12    0.64
   4   9   4   13.12    0.66
  -5  -9  -4    8.28    0.50
   5   9   4    8.04    0.49
  -6  -9  -4    0.15    0.12
   6   9   4    0.09    0.09
  -7  -9  -4   19.30    0.85
   7   9   4   18.89    0.81
  -8  -9  -4    2.53    0.32
   8   9   4    2.17    0.25
   2 -10  -4   74.62    2.16
   2 -10  -4   75.17    2.24
   1 -10  -4    7.49    0.48
   0 -10  -4   11.60    0.61
  -1 -10  -4  106.62    3.01
   1  10   4  104.51    3.00
  -2 -10  -4    5.19    0.41
   2  10   4    5.11    0.41
   3  10   4    5.08    0.42
   4  10   4   45.94    1.56
   5  10   4    3.06    0.31
   6  10   4    0.96    0.21
   0 -11  -4   20.62    0.92
  -1 -11  -4    0.26    0.13
   1  11   4    0.46    0.15
   2  11   4    7.33    0.52
   3  11   4   49.94    1.73
   4  11   4    5.41    0.43
   0  -8   5    0.28    0.10
   0  -8   5    0.36    0.10
   1  -8   5   40.29    1.18
   1  -8   5   39.31    1.27
   2  -8   5    9.14    0.40
   2  -8   5    8.30    0.44
  -3  -7   5    0.63    0.12
  -3  -7   5    0.51    0.13
  -2  -7   5    8.39    0.44
  -2  -7   5    8.13    0.36
  -1  -7   5   39.71    1.29
  -1  -7   5   44.53    1.21
   0  -7   5    1.61    0.18
   0  -7   5    1.60    0.15
   1  -7   5    1.00    0.13
   1  -7   5    1.17    0.17
   2  -7   5   44.48    1.23
   2  -7   5   40.40    1.28
  -3   7  -5   18.88    0.69
   3  -7   5   19.34    0.66
   3  -7   5   18.62    0.70
  -4   7  -5    0.21    0.09
   4  -7   5    0.43    0.13
  -5   7  -5   28.29    1.01
   5  -7   5   29.52    1.01
  -4  -6   5    3.95    0.25
  -3  -6   5   15.60    0.55
  -2  -6   5    1.08    0.17
  -2  -6   5    1.17    0.14
   1   6  -5   13.73    0.74
  -1  -6   5   12.61    0.53
  -1  -6   5   13.67    0.47
   0   6  -5   44.20    1.31
   0  -6   5   45.17    1.22
   0  -6   5   43.29    1.29
  -1   6  -5    0.36    0.10
   1  -6   5    0.51    0.09
   1  -6   5    0.28    0.08
  -2   6  -5   30.00    0.99
   2  -6   5   31.07    0.96
   2  -6   5   30.48    0.90
  -3   6  -5   26.61    0.91
  -3   6  -5   26.60    0.87
   3  -6   5   25.83    0.86
   3  -6   5   26.58    0.82
   3  -6   5   27.62    1.00
  -4   6  -5    0.15    0.07
  -4   6  -5    0.00    0.05
  -4   6  -5    0.06    0.07
   4  -6   5    0.11    0.06
   4  -6   5    0.16    0.08
   4  -6   5    0.09    0.06
  -5   6  -5   34.82    1.13
   5  -6   5   34.77    1.14
  -6   6  -5    7.90    0.43
   6  -6   5    7.19    0.42
  -7   6  -5    2.05    0.24
  -5  -5   5   15.25    0.59
  -4  -5   5   92.26    2.41
  -3  -5   5    3.88    0.21
   2   5  -5   16.46    0.59
  -2  -5   5   17.22    0.54
   1   5  -5   77.28    2.05
  -1  -5   5   76.05    2.06
  -1  -5   5   77.34    1.97
   0   5  -5    0.36    0.09
   0  -5   5    0.26    0.07
   0  -5   5    0.31    0.07
  -1   5  -5   31.32    0.95
   1  -5   5   30.06    0.92
   1  -5   5   30.40    0.86
  -2   5  -5    8.01    0.37
  -2   5  -5    7.31    0.29
   2  -5   5    8.31    0.36
   2  -5   5    7.41    0.34
   2  -5   5    8.57    0.32
  -3   5  -5    0.18    0.07
  -3   5  -5    0.09    0.06
   3  -5   5    0.13    0.06
   3  -5   5   -0.02    0.05
   3  -5   5    0.09    0.05
  -4   5  -5   35.60    1.10
  -4   5  -5   36.11    1.15
   4  -5   5   36.19    1.12
   4  -5   5   37.36    1.10
   4  -5   5   36.99    1.05
  -5   5  -5    2.42    0.22
  -5   5  -5    2.75    0.22
   5  -5   5    2.67    0.19
   5  -5   5    2.46    0.22
   5  -5   5    2.38    0.20
  -6   5  -5    1.19    0.17
   6  -5   5    1.33    0.21
  -7   5  -5   19.07    0.76
   7  -5   5   19.25    0.78
  -8   5  -5   20.41    0.83
  -6  -4   5    0.60    0.12
  -6  -4   5    0.48    0.20
  -5  -4   5    7.86    0.54
  -5  -4   5    8.46    0.39
   4   4  -5   41.94    1.25
  -4  -4   5   44.28    1.21
   3   4  -5    3.05    0.20
  -3  -4   5    2.95    0.17
   2   4  -5    6.74    0.30
  -2  -4   5    7.10    0.26
   1   4  -5  145.63    3.70
  -1  -4   5  149.79    3.63
   0   4  -5   14.98    0.51
   0  -4   5   14.95    0.45
   0  -4   5   14.54    0.50
  -1   4  -5   16.41    0.55
   1  -4   5   15.74    0.54
   1  -4   5   16.20    0.49
   1  -4   5   16.45    0.53
  -2   4  -5  180.96    4.47
   2  -4   5  175.01    4.46
   2  -4   5  176.16    4.38
   2  -4   5  180.47    4.43
  -3   4  -5   79.57    2.16
  -3   4  -5   81.24    2.12
  -3   4  -5   81.40    2.12
   3  -4   5   81.36    2.12
   3  -4   5   79.67    2.16
   3  -4   5   83.66    2.08
  -4   4  -5    2.14    0.17
  -4   4  -5    2.23    0.19
   4  -4   5    2.35    0.20
   4  -4   5    2.21    0.17
   4  -4   5    1.97    0.14
  -5   4  -5   70.98    1.97
  -5   4  -5   75.03    2.02
   5  -4   5   70.57    2.01
   5  -4   5   74.48    1.96
   5  -4   5   71.28    1.90
  -6   4  -5   81.52    2.25
   6  -4   5   83.05    2.29
  -7   4  -5    1.15    0.18
   7  -4   5    1.22    0.20
  -8   4  -5   14.06    0.63
   8  -4   5   14.03    0.66
  -9   4  -5   56.76    1.77
  -6  -3   5    2.98    0.21
  -6  -3   5    3.04    0.35
  -5  -3   5    8.64    0.37
  -5  -3   5    8.65    0.37
  -5  -3   5    8.39    0.53
   4   3  -5   10.71    0.43
  -4  -3   5   10.00    0.39
  -4  -3   5   10.64    0.58
   3   3  -5   37.37    1.05
  -3  -3   5   37.16    0.99
   2   3  -5    0.64    0.08
  -2  -3   5    0.65    0.07
   1   3  -5    5.60    0.24
  -1  -3   5    5.91    0.20
   0   3  -5  130.78    3.38
   0   3  -5  131.83    3.25
   0  -3   5  130.67    3.19
   0  -3   5  128.97    3.24
   0  -3   5  130.28    3.28
  -1   3  -5    0.35    0.09
  -1   3  -5    0.55    0.08
   1  -3   5    0.53    0.06
   1  -3   5    0.47    0.09
   1  -3   5    0.65    0.07
  -2   3  -5   44.72    1.22
  -2   3  -5   44.66    1.32
   2  -3   5   43.96    1.24
   2  -3   5   43.87    1.16
   2  -3   5   44.01    1.19
  -3   3  -5   73.49    1.95
  -3   3  -5   73.99    1.91
   3  -3   5   72.23    1.91
   3  -3   5   74.17    1.98
   3  -3   5   74.71    1.88
  -4   3  -5    2.92    0.20
  -4   3  -5    3.36    0.20
   4  -3   5    3.14    0.19
   4  -3   5    3.21    0.23
   4  -3   5    3.33    0.18
  -5   3  -5   59.29    1.68
  -5   3  -5   60.01    1.65
   5  -3   5   61.45    1.63
   5  -3   5   59.41    1.59
   5  -3   5   59.91    1.70
  -6   3  -5    3.66    0.25
  -6   3  -5    3.91    0.27
   6  -3   5    3.40    0.20
   6  -3   5    3.72    0.28
   6  -3   5    3.77    0.24
  -7   3  -5    0.68    0.14
   7  -3   5    0.67    0.14
  -8   3  -5    9.03    0.48
   8  -3   5    9.71    0.51
  -9   3  -5    4.88    0.36
   9  -3   5    4.75    0.37
   9  -3   5    4.34    0.38
  -7  -2   5   61.66    1.67
  -7  -2   5   60.62    2.01
  -6  -2   5    4.93    0.41
  -6  -2   5    4.59    0.25
   5   2  -5    3.16    0.25
  -5  -2   5    3.06    0.19
  -5  -2   5    3.57    0.32
   4   2  -5  123.72    3.22
  -4  -2   5  130.39    3.43
  -4  -2   5  122.24    3.15
   3   2  -5   12.95    0.44
  -3  -2   5   12.81    0.40
  -3  -2   5   12.98    0.59
   2   2  -5    6.34    0.34
   2   2  -5    8.45    0.35
   2   2  -5    7.18    0.26
  -2  -2   5    7.33    0.23
   1   2  -5   70.86    1.80
   1   2  -5   68.85    1.88
   1   2  -5   72.15    1.79
   1   2  -5   73.73    1.93
  -1  -2   5   71.67    1.89
  -1  -2   5   69.81    1.78
  -1  -2   5   71.86    1.75
   0   2  -5    0.33    0.05
   0   2  -5    0.32    0.05
   0   2  -5    0.30    0.08
   0  -2   5    0.38    0.08
   0  -2   5    0.45    0.04
  -1   2  -5   26.10    0.83
  -1   2  -5   25.56    0.72
  -1   2  -5   25.70    0.72
   1  -2   5   25.22    0.69
   1  -2   5   25.42    0.78
   1  -2   5   25.72    0.68
  -2   2  -5   11.14    0.46
  -2   2  -5   11.37    0.39
   2  -2   5   11.57    0.35
   2  -2   5   11.60    0.44
   2  -2   5   11.31    0.37
  -3   2  -5    2.39    0.14
  -3   2  -5    2.23    0.19
  -3   2  -5    2.43    0.16
   3  -2   5    2.53    0.19
   3  -2   5    2.56    0.14
   3  -2   5    2.23    0.13
  -4   2  -5   17.84    0.65
  -4   2  -5   17.94    0.57
  -4   2  -5   18.26    0.61
   4  -2   5   18.32    0.64
   4  -2   5   18.20    0.57
   4  -2   5   18.31    0.55
  -5   2  -5   12.56    0.47
  -5   2  -5   12.37    0.52
  -5   2  -5   13.09    0.50
   5  -2   5   12.48    0.52
   5  -2   5   12.71    0.46
   5  -2   5   12.95    0.43
  -6   2  -5    1.06    0.14
  -6   2  -5    0.73    0.12
   6  -2   5    0.77    0.12
   6  -2   5    0.84    0.15
   6  -2   5    0.82    0.11
  -7   2  -5    9.30    0.44
   7  -2   5    9.60    0.48
  -8   2  -5   58.54    1.74
   8  -2   5   58.89    1.77
   8  -2   5   58.47    1.73
  -9   2  -5    0.25    0.11
   9  -2   5    0.28    0.12
   9  -2   5    0.31    0.12
  10  -2   5    4.68    0.35
  -7  -1   5   12.63    0.46
  -7  -1   5   12.57    0.70
  -6  -1   5   16.50    0.77
  -6  -1   5   17.34    0.55
  -5  -1   5    4.52    0.21
  -5  -1   5    4.59    0.35
  -4  -1   5   80.16    2.06
  -4  -1   5   82.56    2.30
   3   1  -5   51.12    1.39
  -3  -1   5   53.03    1.61
  -3  -1   5   55.45    1.58
   2   1  -5   25.70    0.68
   2   1  -5   24.08    0.85
   2   1  -5   26.75    0.78
   2   1  -5   24.46    0.69
  -2  -1   5   24.72    0.86
  -2  -1   5   26.11    0.85
   1   1  -5  306.92    6.99
   1   1  -5  295.32    7.36
   1   1  -5  290.09    7.00
   1   1  -5  261.44    7.04
  -1  -1   5  269.35    7.05
   0   1  -5   57.35    1.60
   0   1  -5   57.10    1.57
   0   1  -5   58.14    1.44
   0   1  -5   58.39    1.44
   0  -1   5   58.07    1.61
  -1   1  -5   51.65    1.34
  -1   1  -5   52.56    1.46
   1  -1   5   52.80    1.31
   1  -1   5   52.98    1.47
   1  -1   5   52.31    1.30
   1  -1   5   53.49    1.31
  -2   1  -5  270.08    6.73
  -2   1  -5  260.03    6.91
   2  -1   5  272.04    6.89
   2  -1   5  262.82    6.62
   2  -1   5  262.86    6.66
  -3   1  -5  185.15    4.56
  -3   1  -5  188.00    4.58
  -3   1  -5  185.78    4.68
  -3   1  -5  182.92    4.65
  -3   1  -5  179.25    4.58
   3  -1   5  192.92    4.65
   3  -1   5  185.36    4.65
   3  -1   5  182.86    4.61
  -4   1  -5    0.60    0.09
  -4   1  -5    0.62    0.08
  -4   1  -5    0.80    0.11
  -4   1  -5    0.47    0.08
   4  -1   5    0.74    0.12
   4  -1   5    0.46    0.07
  -5   1  -5  167.52    4.15
  -5   1  -5  165.15    4.20
  -5   1  -5  164.90    4.17
   5  -1   5  164.74    4.09
   5  -1   5  165.33    4.12
   5  -1   5  165.48    4.21
  -6   1  -5  131.30    3.51
  -6   1  -5  137.19    3.53
  -6   1  -5  135.71    3.50
   6  -1   5  133.29    3.42
   6  -1   5  142.19    3.47
   6  -1   5  139.05    3.59
   6  -1   5  137.07    3.55
  -7   1  -5    1.71    0.18
   7  -1   5    1.87    0.20
   7  -1   5    1.76    0.18
  -8   1  -5   34.15    1.12
   8  -1   5   34.21    1.14
   8  -1   5   32.56    1.09
  -9   1  -5   96.34    2.74
   9  -1   5  100.17    2.76
   9  -1   5   96.88    2.70
  10  -1   5    8.28    0.48
  10  -1   5    9.41    0.54
  -7   0   5   39.81    1.44
  -7   0   5   41.07    1.14
  -6   0   5   14.25    0.69
  -6   0   5   14.74    0.48
  -5   0   5    4.56    0.34
  -5   0   5    4.60    0.20
   4   0  -5   26.67    0.92
  -4   0   5   26.72    0.93
  -4   0   5   26.69    0.72
   3   0  -5   26.87    0.89
   3   0  -5   25.90    0.69
  -3   0   5   25.68    0.86
  -3   0   5   25.84    0.68
   2   0  -5    5.15    0.31
   2   0  -5    5.34    0.25
   2   0  -5    5.39    0.16
  -2   0   5    5.95    0.30
  -2   0   5    5.54    0.31
   1   0  -5    0.38    0.10
   1   0  -5    0.57    0.09
  -1   0   5    0.29    0.10
  -1   0   5    0.50    0.10
   0   0  -5   86.20    1.98
   0   0  -5   81.69    2.11
   0   0  -5   76.31    2.18
   0   0   5   77.51    2.19
  -1   0  -5   21.19    0.56
  -1   0  -5   20.25    0.66
  -1   0  -5   18.54    0.69
   1   0   5   20.19    0.71
   1   0   5   21.14    0.52
   1   0   5   21.96    0.55
   1   0   5   21.56    0.53
  -2   0  -5   29.59    0.80
  -2   0  -5   28.85    0.88
  -2   0  -5   30.21    0.79
  -2   0  -5   28.14    0.90
   2   0   5   28.65    0.76
   2   0   5   29.34    0.91
   2   0   5   28.81    0.76
  -3   0  -5   32.35    0.85
  -3   0  -5   32.38    0.89
  -3   0  -5   32.33    0.92
  -3   0  -5   32.55    0.96
  -3   0  -5   33.37    0.91
   3   0   5   31.81    0.86
   3   0   5   31.20    0.86
  -4   0  -5   33.15    1.01
  -4   0  -5   35.52    1.01
  -4   0  -5   34.99    0.97
  -4   0  -5   34.11    1.03
   4   0   5   35.38    0.96
   4   0   5   36.27    1.02
   4   0   5   34.85    0.95
   4   0   5   36.40    1.06
  -5   0  -5   16.30    0.60
  -5   0  -5   16.49    0.56
  -5   0  -5   16.93    0.58
  -5   0  -5   16.14    0.58
   5   0   5   16.04    0.60
   5   0   5   16.33    0.57
  -6   0  -5    0.70    0.12
  -6   0  -5    0.44    0.10
  -6   0  -5    0.50    0.11
   6   0   5    0.64    0.12
   6   0   5    0.39    0.11
   6   0   5    0.41    0.08
  -7   0  -5   13.00    0.55
   7   0   5   12.81    0.55
   7   0   5   12.48    0.53
  -8   0  -5    9.26    0.48
   8   0   5    9.49    0.48
   8   0   5    8.82    0.45
  -9   0  -5    6.60    0.43
   9   0   5    6.36    0.39
   9   0   5    6.21    0.41
  10   0   5    8.32    0.48
  10   0   5    9.30    0.53
  -7   1   5   67.41    1.80
  -7   1   5   69.35    2.13
  -6   1   5    6.62    0.27
  -6   1   5    6.24    0.43
   5  -1  -5    0.07    0.06
  -5   1   5    0.30    0.06
  -5   1   5    0.15    0.09
   4  -1  -5   98.15    2.71
  -4   1   5  101.61    2.71
  -4   1   5  102.14    2.49
   3  -1  -5    3.74    0.18
   3  -1  -5    3.58    0.20
   3  -1  -5    3.40    0.25
  -3   1   5    3.71    0.14
  -3   1   5    3.79    0.25
   2  -1  -5    0.85    0.14
   2  -1  -5    0.81    0.05
   2  -1  -5    0.66    0.09
  -2   1   5    0.84    0.13
   1  -1  -5   43.10    1.09
   1  -1  -5   43.88    1.23
   1  -1  -5   45.03    1.09
   1  -1  -5   44.16    1.29
  -1   1   5   44.27    1.29
  -1   1   5   43.57    1.20
   0  -1  -5    3.49    0.21
   0  -1  -5    3.05    0.14
   0  -1  -5    3.17    0.23
   0   1   5    3.69    0.17
   0   1   5    3.21    0.23
  -1  -1  -5   16.34    0.63
  -1  -1  -5   16.14    0.57
  -1  -1  -5   16.83    0.49
   1   1   5   17.19    0.64
   1   1   5   17.54    0.44
   1   1   5   16.95    0.48
   1   1   5   16.38    0.43
   1   1   5   17.67    0.48
  -2  -1  -5    0.20    0.07
  -2  -1  -5    0.20    0.07
  -2  -1  -5    0.21    0.05
  -2  -1  -5    0.20    0.05
   2   1   5    0.33    0.04
   2   1   5    0.15    0.07
  -3  -1  -5    2.76    0.17
  -3  -1  -5    3.25    0.21
  -3  -1  -5    3.00    0.14
  -3  -1  -5    3.16    0.19
  -3  -1  -5    3.03    0.17
   3   1   5    3.07    0.16
   3   1   5    2.65    0.20
   3   1   5    2.91    0.14
  -4  -1  -5    0.52    0.08
  -4  -1  -5    0.35    0.08
  -4  -1  -5    0.32    0.09
  -4  -1  -5    0.41    0.09
   4   1   5    0.49    0.10
   4   1   5    0.34    0.08
  -5  -1  -5   48.67    1.39
  -5  -1  -5   48.87    1.40
  -5  -1  -5   50.86    1.39
  -5  -1  -5   49.25    1.45
   5   1   5   51.38    1.34
   5   1   5   48.77    1.42
  -6  -1  -5    0.57    0.10
  -6  -1  -5    0.54    0.12
  -6  -1  -5    0.49    0.11
   6   1   5    0.43    0.11
   6   1   5    0.48    0.10
   6   1   5    0.58    0.12
  -7  -1  -5    1.37    0.20
   7   1   5    1.57    0.18
   7   1   5    1.56    0.18
  -8  -1  -5   50.73    1.57
   8   1   5   49.01    1.50
   8   1   5   49.29    1.50
   9   1   5    0.24    0.10
  10   1   5    3.62    0.31
  11   1   5   30.43    1.12
  -7   2   5   15.08    0.74
  -7   2   5   14.94    0.52
   6  -2  -5   34.27    1.18
  -6   2   5   34.00    1.19
  -6   2   5   34.28    0.96
   5  -2  -5    5.66    0.35
  -5   2   5    5.87    0.23
  -5   2   5    5.40    0.36
   4  -2  -5  142.63    3.72
  -4   2   5  144.96    3.51
  -4   2   5  141.33    3.71
   3  -2  -5   72.88    2.02
   3  -2  -5   74.10    1.97
  -3   2   5   73.39    2.00
  -3   2   5   74.19    1.83
   2  -2  -5   22.60    0.76
   2  -2  -5   22.90    0.74
   2  -2  -5   22.70    0.62
  -2   2   5   22.39    0.58
  -2   2   5   22.87    0.59
  -2   2   5   22.13    0.71
  -2   2   5   21.47    0.58
   1  -2  -5  402.45    9.78
   1  -2  -5  384.31    9.81
   1  -2  -5  408.72    9.73
   1  -2  -5  389.50   10.10
  -1   2   5  382.93    9.59
  -1   2   5  392.36    9.53
  -1   2   5  389.90    9.90
  -1   2   5  397.99   10.03
   0  -2  -5   89.03    2.38
   0  -2  -5   86.84    2.23
   0  -2  -5   89.53    2.24
   0  -2  -5   87.94    2.37
   0   2   5   91.70    2.18
   0   2   5   91.53    2.25
   0   2   5   82.40    2.21
   0   2   5   93.53    2.20
   0   2   5   92.94    2.38
  -1  -2  -5   62.90    1.62
  -1  -2  -5   62.89    1.72
  -1  -2  -5   61.22    1.71
  -1  -2  -5   57.60    1.64
   1   2   5   65.28    1.55
   1   2   5   64.18    1.73
   1   2   5   58.09    1.56
   1   2   5   61.84    1.54
  -2  -2  -5  412.18   10.08
  -2  -2  -5  407.90   10.14
  -2  -2  -5  390.54    9.64
  -2  -2  -5  404.44    9.72
  -2  -2  -5  382.37    9.63
  -2  -2  -5  415.85   10.20
   2   2   5  354.96    9.98
   2   2   5  406.18    9.99
   2   2   5  390.07    9.91
  -3  -2  -5  194.79    4.76
  -3  -2  -5  194.33    4.70
  -3  -2  -5  191.19    4.82
  -3  -2  -5  186.38    4.74
  -3  -2  -5  189.86    4.71
   3   2   5  188.22    4.75
   3   2   5  174.38    4.65
  -4  -2  -5   20.89    0.71
  -4  -2  -5   21.32    0.74
  -4  -2  -5   21.56    0.73
  -4  -2  -5   22.11    0.68
   4   2   5   21.19    0.66
   4   2   5   20.91    0.73
   4   2   5   19.83    0.71
  -5  -2  -5  150.51    3.99
  -5  -2  -5  158.91    4.04
  -5  -2  -5  159.85    3.99
  -5  -2  -5  163.24    3.99
   5   2   5  154.83    3.91
   5   2   5  155.43    4.01
   5   2   5  152.83    3.98
  -6  -2  -5  177.64    4.54
  -6  -2  -5  177.85    4.54
  -6  -2  -5  175.26    4.46
   6   2   5  178.88    4.53
   6   2   5  169.67    4.48
   6   2   5  183.59    4.43
  -7  -2  -5    0.78    0.16
   7   2   5    0.66    0.13
   7   2   5    0.54    0.13
  -8  -2  -5   18.96    0.76
   8   2   5   15.09    0.64
   8   2   5   15.75    0.67
   9   2   5   90.59    2.53
   9   2   5   88.62    2.77
  10   2   5    9.25    0.51
  11   2   5    1.84    0.24
   7  -3  -5   51.49    1.70
  -7   3   5   53.11    1.44
  -7   3   5   52.62    1.70
   6  -3  -5   13.93    0.64
  -6   3   5   14.05    0.47
  -6   3   5   13.43    0.64
   5  -3  -5    3.96    0.30
  -5   3   5    3.79    0.30
  -5   3   5    3.88    0.19
   4  -3  -5   57.32    1.67
  -4   3   5   56.34    1.65
  -4   3   5   57.26    1.47
   3  -3  -5    9.99    0.45
   3  -3  -5    9.43    0.44
  -3   3   5    9.59    0.31
  -3   3   5    9.29    0.42
   2  -3  -5    3.27    0.23
   2  -3  -5    3.42    0.17
   2  -3  -5    3.55    0.26
  -2   3   5    3.57    0.14
  -2   3   5    3.46    0.21
   0  -3  -5   34.28    1.02
   0  -3  -5   32.18    1.09
   0  -3  -5   33.98    0.94
   0  -3  -5   34.55    0.95
   0   3   5   34.46    0.88
   0   3   5   34.59    0.89
   0   3   5   34.56    0.93
  -1  -3  -5  100.48    2.55
  -1  -3  -5   99.28    2.58
  -1  -3  -5   95.16    2.66
  -1  -3  -5   97.02    2.52
  -1  -3  -5  100.24    2.53
   1   3   5   99.17    2.48
   1   3   5  101.02    2.59
   1   3   5   99.07    2.44
  -2  -3  -5   30.40    0.89
  -2  -3  -5   29.71    0.94
  -2  -3  -5   29.54    0.81
  -2  -3  -5   28.99    0.98
  -2  -3  -5   29.28    0.82
  -2  -3  -5   30.13    0.94
   2   3   5   30.22    0.89
   2   3   5   29.75    0.94
   2   3   5   30.17    0.84
  -3  -3  -5    2.37    0.19
  -3  -3  -5    2.69    0.20
  -3  -3  -5    2.69    0.18
  -3  -3  -5    2.49    0.22
  -3  -3  -5    2.87    0.22
   3   3   5    2.30    0.20
   3   3   5    2.44    0.20
   3   3   5    2.33    0.20
  -4  -3  -5  108.67    2.96
  -4  -3  -5  111.89    2.87
  -4  -3  -5  111.43    2.94
  -4  -3  -5  112.58    2.89
  -4  -3  -5  108.10    2.93
   4   3   5  107.63    2.84
   4   3   5  113.43    2.89
   4   3   5  114.24    2.95
  -5  -3  -5   40.85    1.24
  -5  -3  -5   39.02    1.19
  -5  -3  -5   38.62    1.19
  -5  -3  -5   38.01    1.23
   5   3   5   38.61    1.15
   5   3   5   36.99    1.12
   5   3   5   39.60    1.22
  -6  -3  -5    5.00    0.30
  -6  -3  -5    4.97    0.33
  -6  -3  -5    5.02    0.34
   6   3   5    4.84    0.27
   6   3   5    4.79    0.28
   6   3   5    4.88    0.32
  -7  -3  -5   74.04    2.17
   7   3   5   77.88    2.15
   7   3   5   74.27    2.06
  -8  -3  -5   10.58    0.57
   8   3   5   10.35    0.52
   9   3   5   21.47    0.84
  10   3   5   29.40    1.08
  11   3   5    0.02    0.08
   7  -4  -5   36.17    1.26
  -7   4   5   33.00    1.24
  -7   4   5   34.11    1.02
   6  -4  -5    0.67    0.16
  -6   4   5    1.56    0.26
  -6   4   5    0.67    0.10
   5  -4  -5    2.11    0.22
  -5   4   5    1.28    0.12
  -5   4   5    1.79    0.26
   4  -4  -5   46.52    1.41
  -4   4   5   47.10    1.23
  -4   4   5   44.17    1.37
   3  -4  -5    0.07    0.06
   3  -4  -5    0.22    0.10
  -3   4   5    0.21    0.08
   2  -4  -5    6.88    0.35
   2  -4  -5    7.65    0.31
  -2   4   5    7.91    0.27
  -2   4   5    7.69    0.35
   1  -4  -5   24.59    0.80
   1  -4  -5   25.18    0.74
  -1   4   5   24.49    0.68
   0  -4  -5    0.77    0.07
   0  -4  -5    0.66    0.11
   0  -4  -5    0.68    0.09
   0  -4  -5    0.76    0.06
   0  -4  -5    0.79    0.13
   0   4   5    0.69    0.07
  -1  -4  -5   20.25    0.68
  -1  -4  -5   22.97    0.72
  -1  -4  -5   22.63    0.71
  -1  -4  -5   22.18    0.61
  -1  -4  -5   20.25    0.66
  -1  -4  -5   22.47    0.70
   1   4   5   21.83    0.66
   1   4   5   21.91    0.62
  -2  -4  -5    6.86    0.32
  -2  -4  -5    7.41    0.34
  -2  -4  -5    7.30    0.34
  -2  -4  -5    6.76    0.36
  -2  -4  -5    7.08    0.35
   2   4   5    7.24    0.33
   2   4   5    7.13    0.28
   2   4   5    6.92    0.31
   2   4   5    8.00    0.35
  -3  -4  -5    7.64    0.40
  -3  -4  -5    7.10    0.35
  -3  -4  -5    7.05    0.36
  -3  -4  -5    7.02    0.35
  -3  -4  -5    7.19    0.40
   3   4   5    6.87    0.32
   3   4   5    6.51    0.36
   3   4   5    6.76    0.35
   3   4   5    7.43    0.37
  -4  -4  -5    0.39    0.09
  -4  -4  -5    0.62    0.13
  -4  -4  -5    0.30    0.10
  -4  -4  -5    0.37    0.11
  -4  -4  -5    0.35    0.10
   4   4   5    0.25    0.08
   4   4   5    0.36    0.10
   4   4   5    0.48    0.11
   4   4   5    0.47    0.12
  -5  -4  -5   61.36    1.78
  -5  -4  -5   60.87    1.81
  -5  -4  -5   60.31    1.76
  -5  -4  -5   60.18    1.75
   5   4   5   61.25    1.78
   5   4   5   60.85    1.68
   5   4   5   60.27    1.67
  -6  -4  -5    2.20    0.24
  -6  -4  -5    2.53    0.25
  -6  -4  -5    1.78    0.23
  -6  -4  -5    1.87    0.19
   6   4   5    1.86    0.17
   6   4   5    2.32    0.23
  -7  -4  -5    0.13    0.09
   7   4   5    0.17    0.09
  -8  -4  -5   56.21    1.78
   8   4   5   52.23    1.66
   9   4   5    1.01    0.19
  10   4   5    5.75    0.40
   6  -5  -5   20.68    0.87
  -6   5   5   22.36    0.70
   5  -5  -5    4.14    0.32
  -5   5   5    4.19    0.22
   4  -5  -5  115.47    3.15
  -4   5   5  118.80    2.95
   3  -5  -5   50.32    1.51
   3  -5  -5   51.81    1.43
  -3   5   5   50.40    1.35
   2  -5  -5    3.49    0.18
   2  -5  -5    3.32    0.24
   2  -5  -5    3.39    0.21
  -2   5   5    3.31    0.17
   1  -5  -5  245.72    6.02
   1  -5  -5  233.45    5.95
   1  -5  -5  247.47    6.07
  -1   5   5  239.18    6.02
   0  -5  -5   56.84    1.60
   0  -5  -5   58.16    1.60
   0  -5  -5   58.06    1.59
   0   5   5   58.12    1.50
  -1  -5  -5   31.14    0.97
  -1  -5  -5   32.81    1.00
  -1  -5  -5   33.37    1.01
  -1  -5  -5   33.01    0.98
   1   5   5   30.95    0.89
  -2  -5  -5  280.69    7.04
  -2  -5  -5  287.42    7.24
  -2  -5  -5  286.69    7.02
  -2  -5  -5  282.44    6.96
   2   5   5  274.90    6.89
   2   5   5  287.83    6.97
   2   5   5  275.04    6.97
  -3  -5  -5  100.60    2.89
  -3  -5  -5  110.13    2.85
  -3  -5  -5  106.27    2.86
  -3  -5  -5  107.62    2.79
   3   5   5  105.78    2.97
   3   5   5  109.65    2.80
   3   5   5  109.70    2.86
   3   5   5  107.05    2.77
  -4  -5  -5    5.25    0.33
  -4  -5  -5    5.19    0.34
  -4  -5  -5    5.49    0.28
  -4  -5  -5    5.69    0.37
   4   5   5    5.75    0.30
   4   5   5    5.87    0.36
   4   5   5    5.88    0.30
   4   5   5    4.99    0.43
  -5  -5  -5   57.76    1.68
  -5  -5  -5   57.09    1.73
  -5  -5  -5   55.82    1.69
  -5  -5  -5   54.73    1.66
   5   5   5   56.96    1.69
   5   5   5   55.09    1.54
   5   5   5   55.64    1.59
  -6  -5  -5  128.09    3.39
  -6  -5  -5  127.28    3.33
  -6  -5  -5  120.85    3.38
   6   5   5  126.64    3.39
  -7  -5  -5    0.24    0.12
  -7  -5  -5    0.23    0.11
   7   5   5    0.49    0.14
   8   5   5    7.43    0.45
   9   5   5   44.93    1.47
  10   5   5    3.52    0.32
  -6   6   5    2.36    0.19
   5  -6  -5    1.55    0.23
  -5   6   5    1.91    0.16
   4  -6  -5   32.06    1.10
  -4   6   5   31.35    0.92
   3  -6  -5    3.54    0.25
   3  -6  -5    4.26    0.30
   3  -6  -5    3.48    0.21
  -3   6   5    3.59    0.20
   2  -6  -5   17.58    0.62
   2  -6  -5   18.31    0.68
   2  -6  -5   17.76    0.64
  -2   6   5   18.01    0.56
   1  -6  -5    1.85    0.17
   1  -6  -5    1.79    0.18
   1  -6  -5    2.17    0.19
  -1   6   5    1.81    0.13
   0  -6  -5    1.64    0.17
   0  -6  -5    1.74    0.18
   0  -6  -5    2.19    0.18
   0   6   5    1.81    0.14
  -1  -6  -5   74.40    2.05
  -1  -6  -5   73.68    2.06
  -1  -6  -5   73.10    1.99
  -1  -6  -5   74.50    2.02
   1   6   5   75.10    1.93
  -2  -6  -5   10.52    0.48
  -2  -6  -5   10.46    0.43
  -2  -6  -5   10.67    0.50
  -2  -6  -5   11.02    0.50
   2   6   5   10.55    0.41
   2   6   5   10.55    0.46
  -3  -6  -5    0.53    0.14
  -3  -6  -5    0.61    0.14
  -3  -6  -5    0.54    0.13
  -3  -6  -5    0.71    0.12
   3   6   5    0.69    0.14
   3   6   5    0.66    0.12
  -4  -6  -5  139.70    3.62
  -4  -6  -5  139.42    3.75
  -4  -6  -5  138.43    3.82
  -4  -6  -5  141.54    3.77
   4   6   5  142.12    3.67
   4   6   5  152.64    3.82
   4   6   5  143.34    3.64
  -5  -6  -5   37.83    1.24
  -5  -6  -5   37.13    1.22
   5   6   5   36.17    1.23
  -6  -6  -5   11.12    0.52
  -6  -6  -5   10.44    0.54
  -6  -6  -5   10.73    0.56
   6   6   5   10.50    0.54
  -7  -6  -5   88.48    2.56
  -7  -6  -5   85.50    2.52
   7   6   5   88.43    2.51
  -8  -6  -5    2.31    0.33
   8   6   5    1.84    0.24
  -9  -6  -5   26.72    1.11
   9   6   5   28.11    1.05
 -10  -6  -5   41.71    1.54
  10   6   5   41.76    1.42
   5  -7  -5   21.78    0.89
  -5   7   5   21.72    0.73
   4  -7  -5   21.55    0.72
   4  -7  -5   21.27    0.85
  -4   7   5   21.65    0.70
   3  -7  -5    0.39    0.12
   3  -7  -5    0.38    0.11
   3  -7  -5    0.45    0.10
  -3   7   5    0.36    0.08
   2  -7  -5   36.99    1.16
   2  -7  -5   38.42    1.20
   2  -7  -5   37.79    1.18
  -2   7   5   37.54    1.07
   1  -7  -5    5.69    0.33
   1  -7  -5    5.58    0.33
   1  -7  -5    5.98    0.34
  -1   7   5    5.99    0.27
   0  -7  -5    0.02    0.05
   0  -7  -5    0.12    0.07
   0  -7  -5    0.11    0.07
   0   7   5    0.09    0.06
  -1  -7  -5   27.53    0.95
  -1  -7  -5   26.72    0.95
  -1  -7  -5   27.75    0.88
  -1  -7  -5   28.09    0.92
   1   7   5   27.50    0.83
  -2  -7  -5    0.00    0.07
  -2  -7  -5    0.16    0.09
  -2  -7  -5    0.04    0.07
  -2  -7  -5    0.20    0.07
   2   7   5    0.08    0.07
  -3  -7  -5    0.04    0.07
  -3  -7  -5    0.10    0.06
  -3  -7  -5    0.11    0.08
  -3  -7  -5    0.14    0.10
   3   7   5    0.22    0.08
   3   7   5    0.15    0.09
  -4  -7  -5    4.02    0.32
  -4  -7  -5    4.30    0.34
   4   7   5    4.25    0.34
  -5  -7  -5   28.65    1.06
  -5  -7  -5   30.80    1.08
   5   7   5   29.28    1.07
  -6  -7  -5    3.99    0.34
  -6  -7  -5    3.26    0.30
   6   7   5    3.54    0.31
  -7  -7  -5    0.83    0.20
   7   7   5    0.56    0.16
  -8  -7  -5   43.66    1.52
   8   7   5   45.53    1.48
  -9  -7  -5    1.71    0.30
   9   7   5    1.79    0.24
   5  -8  -5    0.13    0.07
  -5   8   5    0.08    0.06
   4  -8  -5   67.12    1.92
   4  -8  -5   70.66    2.06
  -4   8   5   66.94    1.86
   3  -8  -5   31.64    1.07
   3  -8  -5   27.99    1.02
   3  -8  -5   29.75    1.01
  -3   8   5   29.92    0.92
   2  -8  -5    6.93    0.40
   2  -8  -5    7.67    0.41
   2  -8  -5    7.36    0.41
  -2   8   5    6.76    0.32
   1  -8  -5  131.13    3.38
   1  -8  -5  128.42    3.41
   1  -8  -5  122.84    3.38
  -1   8   5  128.22    3.26
   0  -8  -5   20.79    0.75
   0  -8  -5   20.59    0.80
   0  -8  -5   20.93    0.80
   0   8   5   21.17    0.69
  -1  -8  -5   30.97    1.10
  -1  -8  -5   32.36    1.06
  -1  -8  -5   32.55    1.11
  -1  -8  -5   33.49    1.03
  -2  -8  -5  110.12    3.05
  -2  -8  -5  112.42    3.01
  -2  -8  -5  109.82    2.90
  -3  -8  -5   24.36    0.95
  -3  -8  -5   25.52    0.94
   3   8   5   24.28    0.94
  -4  -8  -5    5.96    0.43
  -4  -8  -5    6.67    0.43
   4   8   5    5.87    0.42
  -5  -8  -5   39.35    1.31
  -5  -8  -5   36.49    1.31
   5   8   5   36.77    1.29
  -6  -8  -5   19.48    0.83
   6   8   5   18.98    0.81
  -7  -8  -5    0.24    0.13
   7   8   5    0.06    0.09
  -8  -8  -5    4.15    0.39
   8   8   5    4.21    0.35
  -9  -8  -5   13.19    0.73
   9   8   5   14.42    0.68
   4  -9  -5   13.51    0.61
   3  -9  -5    0.74    0.16
   3  -9  -5    0.80    0.17
   2  -9  -5    4.14    0.32
   2  -9  -5    4.34    0.33
   1  -9  -5    0.30    0.11
   1  -9  -5    0.18    0.09
   0  -9  -5    0.51    0.12
   0  -9  -5    0.34    0.12
  -1  -9  -5   52.03    1.59
  -1  -9  -5   53.23    1.67
  -2  -9  -5   11.30    0.59
  -2  -9  -5   11.00    0.55
  -3  -9  -5    2.03    0.26
  -3  -9  -5    2.24    0.27
   3   9   5    2.13    0.26
  -4  -9  -5  116.33    3.30
  -4  -9  -5  114.66    3.22
   4   9   5  117.20    3.29
  -5  -9  -5   11.26    0.82
  -5  -9  -5   11.16    0.60
   5   9   5   10.71    0.59
  -6  -9  -5    9.01    0.54
   6   9   5    7.91    0.50
  -7  -9  -5   74.31    2.24
   7   9   5   72.85    2.20
  -8  -9  -5    0.90    0.23
   8   9   5    0.96    0.20
   2 -10  -5   34.02    1.23
   2 -10  -5   35.40    1.20
   1 -10  -5    2.58    0.29
   1 -10  -5    2.35    0.24
   0 -10  -5    2.54    0.28
  -1 -10  -5   42.61    1.46
  -2 -10  -5    0.48    0.16
  -3 -10  -5    1.53    0.26
  -3 -10  -5    1.33    0.25
   3  10   5    1.50    0.26
  -4 -10  -5    5.53    0.45
  -4 -10  -5    5.48    0.42
   4  10   5    7.06    0.49
  -5 -10  -5   25.50    1.02
   5  10   5   24.24    1.01
  -6 -10  -5    3.00    0.33
   6  10   5    2.76    0.30
  -7 -10  -5    1.04    0.23
   0 -11  -5    5.79    0.45
  -1 -11  -5   10.41    0.62
  -2 -11  -5   44.88    1.59
  -3 -11  -5    5.94    0.48
   3  11   5    5.64    0.47
   4  11   5    8.07    0.55
  -1  -7   6   24.95    0.78
  -1  -7   6   23.18    0.84
   0  -7   6   22.90    0.82
   0  -7   6   23.81    0.75
   1  -7   6    0.99    0.14
   1  -7   6    1.02    0.16
   2  -7   6   39.78    1.26
   2  -7   6   41.70    1.20
   3  -7   6    0.37    0.11
   3  -7   6    0.40    0.09
  -4   7  -6    7.71    0.37
   4  -7   6    7.45    0.41
   4  -7   6    7.88    0.38
  -3  -6   6   22.47    0.73
  -2  -6   6    1.94    0.16
  -2  -6   6    1.63    0.18
  -1  -6   6   14.04    0.48
  -1  -6   6   12.86    0.53
   0  -6   6   54.42    1.61
   0  -6   6   60.55    1.55
   1  -6   6    7.47    0.37
   1  -6   6    8.56    0.34
   2  -6   6    6.62    0.31
   2  -6   6    6.78    0.35
   3  -6   6   55.62    1.51
   3  -6   6   53.95    1.57
  -4   6  -6   35.61    1.08
   4  -6   6   35.12    1.11
   4  -6   6   36.77    1.06
   4  -6   6   34.42    1.14
  -5   6  -6    0.07    0.06
  -5   6  -6    0.10    0.07
   5  -6   6    0.12    0.07
   5  -6   6    0.05    0.07
   5  -6   6    0.23    0.10
  -6   6  -6   25.31    0.91
  -4  -5   6    2.33    0.19
  -3  -5   6    1.12    0.12
  -2  -5   6   22.04    0.67
   1   5  -6    0.24    0.07
  -1  -5   6    0.24    0.07
  -1  -5   6    0.19    0.06
   0   5  -6   10.87    0.44
   0  -5   6   10.57    0.42
   0  -5   6   10.86    0.38
  -1   5  -6   27.73    0.87
   1  -5   6   27.44    0.79
   1  -5   6   26.52    0.84
  -2   5  -6    0.09    0.06
   2  -5   6    0.41    0.09
   2  -5   6    0.13    0.05
  -3   5  -6   26.36    0.87
   3  -5   6   26.35    0.79
   3  -5   6   25.51    0.85
   3  -5   6   26.02    0.83
  -4   5  -6   18.44    0.63
  -4   5  -6   18.63    0.70
   4  -5   6   18.01    0.69
   4  -5   6   18.43    0.61
   4  -5   6   18.25    0.65
  -5   5  -6    0.21    0.08
  -5   5  -6    0.06    0.07
   5  -5   6   -0.03    0.06
   5  -5   6    0.03    0.05
   5  -5   6    0.08    0.05
  -6   5  -6   22.47    0.80
   6  -5   6   21.04    0.82
  -7   5  -6    0.44    0.12
  -5  -4   6    2.57    0.21
  -5  -4   6    2.71    0.34
  -4  -4   6    9.68    0.39
  -3  -4   6   84.39    2.16
  -2  -4   6    0.91    0.10
   1   4  -6   26.17    0.78
  -1  -4   6   25.63    0.72
   0   4  -6   27.41    0.82
   0  -4   6   27.65    0.76
   0  -4   6   27.22    0.81
  -1   4  -6    7.75    0.33
   1  -4   6    7.15    0.28
   1  -4   6    7.61    0.31
  -2   4  -6   50.71    1.41
   2  -4   6   49.80    1.42
   2  -4   6   52.19    1.34
   2  -4   6   49.28    1.38
  -3   4  -6    1.64    0.16
   3  -4   6    1.50    0.12
   3  -4   6    1.61    0.17
   3  -4   6    1.82    0.15
  -4   4  -6    6.34    0.30
  -4   4  -6    6.81    0.35
   4  -4   6    6.88    0.36
   4  -4   6    6.68    0.32
   4  -4   6    6.76    0.29
  -5   4  -6   34.02    1.03
  -5   4  -6   33.66    1.08
   5  -4   6   34.33    1.10
   5  -4   6   33.47    0.98
   5  -4   6   33.37    1.02
  -6   4  -6   11.16    0.53
  -6   4  -6   12.19    0.51
   6  -4   6   11.66    0.55
   6  -4   6   11.39    0.45
   6  -4   6   11.69    0.49
  -7   4  -6    0.06    0.07
   7  -4   6    0.01    0.07
  -8   4  -6   15.68    0.68
  -6  -3   6   13.57    0.74
  -6  -3   6   12.53    0.49
  -5  -3   6    2.96    0.20
  -5  -3   6    2.70    0.39
  -5  -3   6    2.52    0.19
   4   3  -6   14.20    0.53
  -4  -3   6   13.84    0.69
  -4  -3   6   13.76    0.49
   3   3  -6   61.43    1.57
  -3  -3   6   57.67    1.53
   2   3  -6   20.31    0.60
  -2  -3   6   19.60    0.56
   1   3  -6   26.42    0.76
   1   3  -6   28.30    0.91
  -1  -3   6   26.27    0.72
   0   3  -6  187.71    4.75
   0   3  -6  186.41    4.58
   0  -3   6  187.86    4.52
   0  -3   6  181.59    4.56
  -1   3  -6   46.78    1.28
  -1   3  -6   47.46    1.43
   1  -3   6   47.95    1.23
   1  -3   6   45.96    1.33
   1  -3   6   49.57    1.27
  -2   3  -6   13.14    0.46
   2  -3   6   13.05    0.44
   2  -3   6   12.61    0.49
   2  -3   6   13.07    0.41
  -3   3  -6  112.55    2.98
  -3   3  -6  111.52    2.86
   3  -3   6  111.87    2.81
   3  -3   6  108.73    2.89
   3  -3   6  110.40    2.78
  -4   3  -6  137.73    3.42
  -4   3  -6  132.68    3.48
   4  -3   6  135.21    3.53
   4  -3   6  136.32    3.40
   4  -3   6  138.05    3.43
  -5   3  -6    1.39    0.16
  -5   3  -6    1.74    0.15
   5  -3   6    1.67    0.15
   5  -3   6    1.37    0.13
   5  -3   6    1.50    0.18
  -6   3  -6   46.62    1.41
  -6   3  -6   47.59    1.37
   6  -3   6   46.87    1.44
   6  -3   6   46.75    1.30
   6  -3   6   46.84    1.35
  -7   3  -6   95.44    2.61
   7  -3   6   97.52    2.69
  -8   3  -6    0.13    0.09
   8  -3   6    0.16    0.10
  -9   3  -6    6.98    0.44
  -6  -2   6   17.22    0.84
  -6  -2   6   17.88    0.59
  -5  -2   6   16.20    0.55
  -5  -2   6   18.41    0.81
   4   2  -6    4.10    0.21
  -4  -2   6    3.78    0.21
  -4  -2   6    4.00    0.34
   3   2  -6    5.65    0.22
  -3  -2   6    5.85    0.38
  -3  -2   6    5.54    0.22
   2   2  -6   32.50    1.00
   2   2  -6   33.41    0.86
  -2  -2   6   31.00    0.83
   1   2  -6    1.82    0.10
   1   2  -6    1.80    0.19
   1   2  -6    1.57    0.16
  -1  -2   6    1.69    0.08
  -1  -2   6    1.30    0.15
   0   2  -6    6.43    0.23
   0   2  -6    6.42    0.34
   0  -2   6    6.31    0.21
   0  -2   6    6.35    0.32
  -1   2  -6   57.09    1.53
  -1   2  -6   57.88    1.67
   1  -2   6   60.35    1.51
   1  -2   6   61.23    1.65
   1  -2   6   59.85    1.49
  -2   2  -6    2.68    0.21
  -2   2  -6    2.42    0.15
   2  -2   6    2.43    0.13
   2  -2   6    2.73    0.20
   2  -2   6    2.42    0.13
  -3   2  -6   44.97    1.36
  -3   2  -6   46.11    1.26
   3  -2   6   46.10    1.20
   3  -2   6   45.12    1.32
   3  -2   6   45.06    1.21
  -4   2  -6   37.40    1.03
  -4   2  -6   36.74    1.17
  -4   2  -6   37.98    1.09
   4  -2   6   37.52    1.15
   4  -2   6   37.30    1.05
   4  -2   6   38.18    1.03
  -5   2  -6    3.42    0.23
  -5   2  -6    3.87    0.22
  -5   2  -6    3.47    0.26
   5  -2   6    3.77    0.21
   5  -2   6    3.78    0.20
   5  -2   6    3.70    0.27
  -6   2  -6   13.69    0.53
  -6   2  -6   13.50    0.56
   6  -2   6   14.03    0.49
   6  -2   6   14.33    0.52
   6  -2   6   13.47    0.59
  -7   2  -6    1.75    0.18
   7  -2   6    1.53    0.22
  -8   2  -6    0.24    0.10
   8  -2   6    0.65    0.16
  -9   2  -6    1.52    0.21
   9  -2   6    1.35    0.23
 -10   2  -6    9.50    0.55
  -6  -1   6   73.82    1.91
  -6  -1   6   73.43    2.25
  -5  -1   6    3.66    0.19
  -5  -1   6    3.81    0.34
   4   1  -6    1.47    0.14
  -4  -1   6    1.60    0.11
  -4  -1   6    1.74    0.26
   3   1  -6  103.86    2.56
  -3  -1   6  102.52    2.80
   2   1  -6    2.10    0.21
   2   1  -6    1.94    0.16
  -2  -1   6    2.31    0.23
  -2  -1   6    1.94    0.20
   1   1  -6   13.08    0.35
   1   1  -6   13.15    0.50
   1   1  -6   12.35    0.53
  -1  -1   6   12.67    0.54
   0   1  -6   47.46    1.37
   0   1  -6   47.67    1.41
   0   1  -6   48.25    1.21
   0   1  -6   48.59    1.21
   0  -1   6   48.24    1.41
  -1   1  -6    2.69    0.20
  -1   1  -6    3.18    0.14
   1  -1   6    3.32    0.23
   1  -1   6    3.01    0.12
   1  -1   6    3.00    0.12
  -2   1  -6   19.08    0.68
  -2   1  -6   19.10    0.58
   2  -1   6   19.53    0.54
   2  -1   6   19.96    0.55
   2  -1   6   19.43    0.69
  -3   1  -6    1.52    0.12
   3  -1   6    1.56    0.10
   3  -1   6    1.65    0.17
   3  -1   6    1.41    0.10
  -4   1  -6   13.21    0.54
  -4   1  -6   12.89    0.43
  -4   1  -6   14.21    0.49
   4  -1   6   13.28    0.43
   4  -1   6   14.14    0.55
   4  -1   6   12.71    0.44
  -5   1  -6   36.26    1.14
  -5   1  -6   36.01    1.09
  -5   1  -6   36.11    1.04
   5  -1   6   36.58    1.04
   5  -1   6   37.83    1.15
   5  -1   6   36.37    1.01
  -6   1  -6   43.57    1.27
  -6   1  -6   44.65    1.34
  -6   1  -6   44.45    1.31
   6  -1   6   44.62    1.25
   6  -1   6   43.32    1.22
   6  -1   6   44.15    1.36
  -7   1  -6    1.71    0.18
  -7   1  -6    1.69    0.19
  -7   1  -6    1.84    0.21
   7  -1   6    1.57    0.22
  -8   1  -6   12.29    0.56
   8  -1   6   12.84    0.60
  -9   1  -6   47.34    1.51
   9  -1   6   46.81    1.53
 -10   1  -6    1.47    0.26
  10  -1   6    1.33    0.25
  10  -1   6    1.46    0.24
  -7   0   6    6.80    0.30
  -7   0   6    6.50    0.49
  -6   0   6   24.62    0.72
  -6   0   6   24.14    0.99
  -5   0   6   13.75    0.64
  -5   0   6   13.20    0.42
  -4   0   6   25.41    0.68
  -4   0   6   24.86    0.91
   3   0  -6  121.50    3.29
  -3   0   6  126.11    3.24
  -3   0   6  119.86    3.27
   2   0  -6   59.96    1.60
   2   0  -6   58.39    1.73
  -2   0   6   58.28    1.64
  -2   0   6   55.89    1.71
   1   0  -6   49.89    1.36
   1   0  -6   46.94    1.47
  -1   0   6   48.19    1.35
  -1   0   6   45.95    1.46
   0   0  -6  304.14    8.37
   0   0  -6  353.18    8.26
   0   0  -6  354.23    8.81
   0   0   6  357.96    8.66
   0   0   6  320.73    8.39
  -1   0  -6  138.48    3.61
  -1   0  -6  144.71    3.49
  -1   0  -6  132.66    3.67
   1   0   6  134.21    3.68
   1   0   6  146.94    3.46
   1   0   6  145.45    3.46
   1   0   6  150.20    3.50
  -2   0  -6   34.31    1.04
  -2   0  -6   34.24    1.08
  -2   0  -6   34.57    0.93
   2   0   6   33.91    1.08
   2   0   6   36.28    0.90
   2   0   6   33.11    0.95
   2   0   6   34.49    0.89
  -3   0  -6  341.45    8.42
  -3   0  -6  330.15    8.43
  -3   0  -6  353.09    8.30
   3   0   6  330.06    8.42
   3   0   6  320.42    8.42
   3   0   6  342.65    8.76
  -4   0  -6  165.94    4.25
  -4   0  -6  174.79    4.17
  -4   0  -6  160.69    4.10
  -4   0  -6  167.81    4.18
   4   0   6  169.97    4.28
   4   0   6  164.60    4.11
   4   0   6  166.57    4.18
  -5   0  -6   11.81    0.49
  -5   0  -6   13.56    0.50
  -5   0  -6   13.24    0.53
  -5   0  -6   13.35    0.47
   5   0   6   13.10    0.55
   5   0   6   13.14    0.44
   5   0   6   13.16    0.46
  -6   0  -6  147.61    3.74
  -6   0  -6  145.74    3.75
  -6   0  -6  142.12    3.73
  -6   0  -6  143.24    3.69
   6   0   6  144.46    3.77
   6   0   6  145.25    3.63
  -7   0  -6  116.94    3.04
  -7   0  -6  118.33    3.08
  -7   0  -6  114.81    3.03
   7   0   6  117.69    3.10
   7   0   6  106.76    2.99
  -8   0  -6    1.17    0.19
   8   0   6    1.04    0.19
  -9   0  -6   12.13    0.60
   9   0   6   11.79    0.58
   9   0   6   11.67    0.60
 -10   0  -6   72.94    2.16
  10   0   6   69.10    2.09
  10   0   6   67.43    2.11
  -7   1   6    7.43    0.52
  -7   1   6    7.79    0.32
  -6   1   6   20.27    0.86
  -6   1   6   19.70    0.61
  -5   1   6   16.26    0.49
  -5   1   6   15.78    0.69
   4  -1  -6    6.28    0.39
  -4   1   6    6.16    0.22
  -4   1   6    5.89    0.36
   3  -1  -6   12.83    0.57
  -3   1   6   12.54    0.35
  -3   1   6   12.05    0.52
   2  -1  -6   37.92    1.20
   2  -1  -6   38.91    0.95
   2  -1  -6   37.58    1.10
  -2   1   6   35.90    1.10
  -2   1   6   37.31    1.19
   1  -1  -6    1.80    0.16
   1  -1  -6    1.66    0.19
  -1   1   6    1.88    0.20
  -1   1   6    1.92    0.15
   0  -1  -6    8.95    0.46
   0  -1  -6    8.70    0.29
   0  -1  -6    9.35    0.40
   0   1   6    9.18    0.46
   0   1   6    9.33    0.34
  -1  -1  -6   94.23    2.61
  -1  -1  -6   95.25    2.41
  -1  -1  -6   95.76    2.53
   1   1   6   98.33    2.34
   1   1   6   95.74    2.39
   1   1   6   96.74    2.38
   1   1   6   96.39    2.62
  -2  -1  -6   33.45    0.93
  -2  -1  -6   34.45    1.04
  -2  -1  -6   34.72    0.94
  -2  -1  -6   33.03    1.08
   2   1   6   34.70    0.92
   2   1   6   33.99    0.87
   2   1   6   34.91    0.87
   2   1   6   32.59    0.87
   2   1   6   33.21    1.09
  -3  -1  -6   41.17    1.03
  -3  -1  -6   37.16    1.23
  -3  -1  -6   41.95    1.15
  -3  -1  -6   43.36    1.05
  -3  -1  -6   42.39    1.15
  -3  -1  -6   43.39    1.24
   3   1   6   41.13    1.09
   3   1   6   41.70    1.11
  -4  -1  -6   24.06    0.75
  -4  -1  -6   23.95    0.80
  -4  -1  -6   23.53    0.76
  -4  -1  -6   23.66    0.68
   4   1   6   23.53    0.70
  -5  -1  -6   36.18    1.10
  -5  -1  -6   35.18    1.06
  -5  -1  -6   35.42    1.09
  -5  -1  -6   36.05    1.02
   5   1   6   35.06    0.99
   5   1   6   32.48    1.09
  -6  -1  -6   10.98    0.48
  -6  -1  -6   11.67    0.53
  -6  -1  -6   12.31    0.49
  -6  -1  -6   11.48    0.50
   6   1   6   12.14    0.52
   6   1   6   11.43    0.43
  -7  -1  -6    3.21    0.24
  -7  -1  -6    3.10    0.26
  -7  -1  -6    2.85    0.24
   7   1   6    3.31    0.35
   7   1   6    3.16    0.23
   7   1   6    3.31    0.27
  -8  -1  -6   21.97    0.83
   8   1   6   20.46    0.80
   8   1   6   20.88    0.81
  -9  -1  -6    0.54    0.16
   9   1   6    0.51    0.15
   9   1   6    0.50    0.14
 -10  -1  -6   12.39    0.66
  10   1   6   12.48    0.62
  10   1   6   11.24    0.60
  11   1   6   10.58    0.59
  -7   2   6    0.07    0.11
  -7   2   6    0.04    0.04
  -6   2   6   65.33    2.01
  -6   2   6   67.20    1.73
   5  -2  -6    3.95    0.32
  -5   2   6    4.05    0.19
  -5   2   6    3.65    0.30
   4  -2  -6    4.28    0.32
  -4   2   6    4.23    0.18
  -4   2   6    4.12    0.29
   3  -2  -6   50.32    1.51
  -3   2   6   49.15    1.45
  -3   2   6   49.97    1.26
   2  -2  -6    0.03    0.06
   2  -2  -6    0.10    0.03
  -2   2   6    0.19    0.08
  -2   2   6    0.09    0.03
   1  -2  -6    1.73    0.09
   1  -2  -6    1.54    0.17
   1  -2  -6    1.71    0.10
   1  -2  -6    1.76    0.17
  -1   2   6    1.69    0.08
  -1   2   6    1.81    0.07
  -1   2   6    1.79    0.14
   0  -2  -6   17.75    0.52
   0  -2  -6   17.48    0.53
   0  -2  -6   18.28    0.66
   0  -2  -6   17.36    0.67
   0   2   6   17.64    0.55
   0   2   6   18.40    0.51
   0   2   6   18.52    0.68
   0   2   6   17.87    0.47
  -1  -2  -6    2.38    0.22
  -1  -2  -6    1.99    0.16
  -1  -2  -6    2.42    0.20
   1   2   6    2.27    0.12
   1   2   6    2.25    0.22
   1   2   6    2.14    0.11
   1   2   6    2.41    0.11
   1   2   6    2.46    0.12
  -2  -2  -6    4.65    0.30
  -2  -2  -6    4.65    0.23
  -2  -2  -6    4.49    0.25
  -2  -2  -6    4.61    0.29
   2   2   6    4.41    0.30
   2   2   6    4.66    0.22
  -3  -2  -6   31.76    0.85
  -3  -2  -6   33.56    1.05
  -3  -2  -6   33.42    0.97
  -3  -2  -6   33.17    0.88
  -3  -2  -6   33.08    0.98
  -3  -2  -6   33.26    1.04
   3   2   6   32.91    1.06
   3   2   6   30.10    0.93
  -4  -2  -6   50.60    1.48
  -4  -2  -6   52.08    1.38
  -4  -2  -6   54.13    1.52
  -4  -2  -6   52.24    1.47
   4   2   6   52.58    1.41
   4   2   6   49.33    1.50
  -5  -2  -6   25.64    0.79
  -5  -2  -6   23.71    0.82
  -5  -2  -6   24.89    0.85
  -5  -2  -6   24.46    0.85
   5   2   6   24.50    0.85
   5   2   6   25.33    0.77
  -6  -2  -6   81.09    2.25
  -6  -2  -6   78.28    2.18
  -6  -2  -6   81.11    2.19
  -6  -2  -6   79.88    2.21
   6   2   6   80.94    2.12
   6   2   6   76.28    2.19
   6   2   6   81.90    2.24
  -7  -2  -6    2.57    0.25
  -7  -2  -6    2.39    0.27
  -7  -2  -6    2.47    0.24
  -7  -2  -6    2.44    0.26
   7   2   6    2.39    0.22
   7   2   6    2.28    0.23
  -8  -2  -6    3.67    0.31
   8   2   6    4.02    0.30
   8   2   6    2.97    0.26
  -9  -2  -6   55.61    1.75
   9   2   6   54.81    1.69
   9   2   6   52.58    1.65
  10   2   6    0.31    0.12
  11   2   6    4.47    0.38
  -7   3   6    1.19    0.13
  -7   3   6    1.08    0.25
   6  -3  -6   40.65    1.38
  -6   3   6   38.46    1.34
  -6   3   6   40.26    1.11
   5  -3  -6   22.27    0.88
  -5   3   6   22.45    0.86
  -5   3   6   22.67    0.66
   4  -3  -6   22.89    0.86
  -4   3   6   22.85    0.83
  -4   3   6   23.53    0.66
   3  -3  -6  169.97    4.40
  -3   3   6  166.52    4.33
  -3   3   6  173.86    4.15
   2  -3  -6  117.12    3.06
   2  -3  -6  113.20    2.88
   2  -3  -6  117.72    3.08
  -2   3   6  115.86    2.98
  -2   3   6  113.88    2.83
   1  -3  -6   50.48    1.52
   1  -3  -6   50.40    1.33
   1  -3  -6   50.11    1.49
  -1   3   6   52.74    1.40
  -1   3   6   51.88    1.29
   0  -3  -6  338.79    8.81
   0  -3  -6  352.18    8.72
   0  -3  -6  348.88    8.80
   0   3   6  357.79    8.61
   0   3   6  357.32    8.78
  -1  -3  -6  140.95    3.73
  -1  -3  -6  139.22    3.67
  -1  -3  -6  139.98    3.59
  -1  -3  -6  140.58    3.58
  -1  -3  -6  145.73    3.58
   1   3   6  141.99    3.48
   1   3   6  142.58    3.67
   1   3   6  144.21    3.52
  -2  -3  -6   87.62    2.29
  -2  -3  -6   85.54    2.33
  -2  -3  -6   85.17    2.22
  -2  -3  -6   83.48    2.35
   2   3   6   84.30    2.16
   2   3   6   81.78    2.32
  -3  -3  -6  429.93   10.83
  -3  -3  -6  437.01   10.90
  -3  -3  -6  436.57   11.24
  -3  -3  -6  449.73   10.92
  -3  -3  -6  449.37   11.05
  -3  -3  -6  430.32   11.01
   3   3   6  437.01   10.82
   3   3   6  449.15   10.82
  -4  -3  -6  121.58    3.30
  -4  -3  -6  114.99    3.24
  -4  -3  -6  123.75    3.29
  -4  -3  -6  126.64    3.17
  -4  -3  -6  122.82    3.24
   4   3   6  133.46    3.20
   4   3   6  128.23    3.27
  -5  -3  -6    6.70    0.37
  -5  -3  -6    6.42    0.34
  -5  -3  -6    6.02    0.37
  -5  -3  -6    5.81    0.36
   5   3   6    5.66    0.30
   5   3   6    6.42    0.35
   5   3   6    6.07    0.36
  -6  -3  -6  139.46    3.65
  -6  -3  -6  143.96    3.65
  -6  -3  -6  144.17    3.61
  -6  -3  -6  138.02    3.60
   6   3   6  135.21    3.56
   6   3   6  128.11    3.50
   6   3   6  130.80    3.62
  -7  -3  -6  119.84    3.24
  -7  -3  -6  119.44    3.26
   7   3   6  121.33    3.25
   7   3   6  118.31    3.16
  -8  -3  -6    5.49    0.39
   8   3   6    4.97    0.36
   8   3   6    5.34    0.34
  -9  -3  -6   10.09    0.58
   9   3   6   10.69    0.56
  10   3   6   46.97    1.55
  11   3   6    4.05    0.37
   6  -4  -6   38.18    1.35
  -6   4   6   40.09    1.11
  -6   4   6   37.82    1.32
   5  -4  -6   12.45    0.61
  -5   4   6   13.05    0.44
  -5   4   6   12.03    0.58
   4  -4  -6    6.34    0.39
  -4   4   6    6.53    0.37
  -4   4   6    6.92    0.27
   3  -4  -6   15.10    0.69
   3  -4  -6   14.09    0.60
  -3   4   6   14.29    0.56
  -3   4   6   13.93    0.44
   2  -4  -6   26.30    0.97
   2  -4  -6   26.49    0.79
   2  -4  -6   26.28    0.91
  -2   4   6   27.22    0.85
  -2   4   6   27.61    0.74
   1  -4  -6    4.43    0.28
   1  -4  -6    4.47    0.22
   1  -4  -6    4.85    0.35
  -1   4   6    4.69    0.18
  -1   4   6    4.66    0.25
   0  -4  -6    1.55    0.13
   0  -4  -6    1.54    0.17
   0  -4  -6    1.52    0.21
   0   4   6    1.51    0.10
  -1  -4  -6    5.45    0.28
  -1  -4  -6    5.45    0.28
  -1  -4  -6    4.68    0.35
  -1  -4  -6    4.51    0.28
   1   4   6    4.70    0.29
   1   4   6    4.72    0.20
  -2  -4  -6   52.02    1.37
  -2  -4  -6   50.54    1.60
  -2  -4  -6   49.69    1.51
  -2  -4  -6   52.87    1.51
  -2  -4  -6   52.48    1.47
  -2  -4  -6   50.40    1.33
   2   4   6   54.45    1.52
   2   4   6   52.50    1.38
  -3  -4  -6    5.81    0.33
  -3  -4  -6    5.98    0.34
  -3  -4  -6    5.58    0.28
  -3  -4  -6    6.20    0.36
  -3  -4  -6    5.17    0.36
   3   4   6    5.62    0.29
   3   4   6    5.40    0.33
  -4  -4  -6    0.08    0.06
  -4  -4  -6    0.28    0.10
  -4  -4  -6    0.06    0.07
  -4  -4  -6    0.04    0.05
  -4  -4  -6    0.17    0.09
   4   4   6    0.05    0.06
   4   4   6    0.09    0.07
   4   4   6    0.09    0.06
  -5  -4  -6  143.93    3.79
  -5  -4  -6  145.01    3.75
  -5  -4  -6  139.76    3.75
  -5  -4  -6  133.22    3.70
   5   4   6  143.85    3.67
   5   4   6  145.06    3.64
   5   4   6  144.24    3.76
  -6  -4  -6   13.11    0.59
  -6  -4  -6   12.02    0.56
  -6  -4  -6   11.63    0.59
  -6  -4  -6   11.97    0.56
   6   4   6   12.43    0.51
   6   4   6   12.78    0.58
   6   4   6   11.32    0.49
  -7  -4  -6    9.15    0.52
  -7  -4  -6    9.95    0.52
   7   4   6    9.52    0.44
   7   4   6    9.31    0.51
  -8  -4  -6   46.61    1.52
  -8  -4  -6   46.22    1.53
   8   4   6   45.25    1.49
  -9  -4  -6    0.59    0.18
   9   4   6    0.31    0.13
  10   4   6   20.33    0.88
  11   4   6   20.25    0.89
   6  -5  -6   30.48    1.15
  -6   5   6   29.03    1.10
  -6   5   6   28.96    0.89
   5  -5  -6    3.66    0.32
  -5   5   6    3.74    0.21
  -5   5   6    3.65    0.31
   4  -5  -6   17.29    0.72
  -4   5   6   16.87    0.54
  -4   5   6   15.78    0.67
   3  -5  -6   32.07    1.17
   3  -5  -6   32.51    1.09
  -3   5   6   32.00    0.90
   2  -5  -6    0.41    0.12
   2  -5  -6    0.60    0.16
   1  -5  -6   27.01    0.91
   1  -5  -6   27.00    0.84
  -1   5   6   27.39    0.76
   0  -5  -6    0.44    0.06
   0  -5  -6    0.72    0.13
   0  -5  -6    0.21    0.07
   0   5   6    0.40    0.07
  -1  -5  -6   10.31    0.43
  -1  -5  -6    8.72    0.36
  -1  -5  -6   10.32    0.44
  -1  -5  -6    9.81    0.43
   1   5   6   10.00    0.35
  -2  -5  -6   24.88    0.87
  -2  -5  -6   25.73    0.80
  -2  -5  -6   25.03    0.84
  -2  -5  -6   24.76    0.83
   2   5   6   24.50    0.75
   2   5   6   24.96    0.83
  -3  -5  -6   35.37    1.19
  -3  -5  -6   34.53    1.06
  -3  -5  -6   33.74    1.09
  -3  -5  -6   32.02    1.12
  -3  -5  -6   34.17    1.07
   3   5   6   34.51    1.08
   3   5   6   33.21    1.01
  -4  -5  -6    9.32    0.49
  -4  -5  -6    8.32    0.47
  -4  -5  -6    8.73    0.41
  -4  -5  -6    9.17    0.44
   4   5   6    8.67    0.40
   4   5   6    9.12    0.43
   4   5   6    9.01    0.49
  -5  -5  -6    0.47    0.13
  -5  -5  -6    0.53    0.13
  -5  -5  -6    0.64    0.16
  -5  -5  -6    0.53    0.11
  -5  -5  -6    0.79    0.17
   5   5   6    0.60    0.13
   5   5   6    0.81    0.16
   5   5   6    0.57    0.12
  -6  -5  -6   54.94    1.71
  -6  -5  -6   56.98    1.69
  -6  -5  -6   56.59    1.69
  -6  -5  -6   54.29    1.91
   6   5   6   55.16    1.71
   6   5   6   55.79    1.58
  -7  -5  -6    0.34    0.13
  -7  -5  -6    0.26    0.13
   7   5   6    0.32    0.13
  -8  -5  -6    3.44    0.35
  -8  -5  -6    4.82    0.38
   8   5   6    3.92    0.34
  -9  -5  -6   44.37    1.54
   9   5   6   44.39    1.49
 -10  -5  -6   -0.01    0.13
  10   5   6    0.11    0.10
   5  -6  -6   20.97    0.87
  -5   6   6   20.77    0.68
   4  -6  -6   10.47    0.54
  -4   6   6   10.14    0.39
   3  -6  -6  106.74    2.91
   3  -6  -6  107.63    2.81
  -3   6   6  104.89    2.70
   2  -6  -6   38.68    1.23
   2  -6  -6   37.73    1.15
  -2   6   6   38.58    1.06
   1  -6  -6   21.16    0.73
   1  -6  -6   22.30    0.79
   1  -6  -6   21.49    0.66
  -1   6   6   21.80    0.65
   0  -6  -6  263.83    6.70
   0  -6  -6  269.12    6.73
   0  -6  -6  274.70    6.67
   0   6   6  270.99    6.59
  -1  -6  -6   31.26    0.99
  -1  -6  -6   31.46    0.98
  -1  -6  -6   30.88    0.99
  -1  -6  -6   31.27    1.01
   1   6   6   30.99    0.90
  -2  -6  -6   48.51    1.41
  -2  -6  -6   47.97    1.42
  -2  -6  -6   47.74    1.47
  -2  -6  -6   47.02    1.43
   2   6   6   48.85    1.34
   2   6   6   49.04    1.41
  -3  -6  -6  240.69    6.09
  -3  -6  -6  235.65    6.21
  -3  -6  -6  246.06    6.17
  -3  -6  -6  244.42    6.13
   3   6   6  249.05    6.11
   3   6   6  245.44    6.05
  -4  -6  -6   72.08    1.98
  -4  -6  -6   73.93    2.04
  -4  -6  -6   66.52    2.05
  -4  -6  -6   73.84    2.13
   4   6   6   72.54    2.36
   4   6   6   71.92    1.99
   4   6   6   69.30    1.97
  -5  -6  -6   15.08    0.55
  -5  -6  -6   14.60    0.66
  -5  -6  -6   14.29    0.63
  -5  -6  -6   14.49    0.66
  -5  -6  -6   15.05    0.69
   5   6   6   14.37    0.65
   5   6   6   14.47    0.56
   5   6   6   13.63    0.64
  -6  -6  -6   70.28    2.04
  -6  -6  -6   69.26    2.01
  -6  -6  -6   65.49    1.99
   6   6   6   66.72    2.02
  -7  -6  -6   47.30    1.53
  -7  -6  -6   45.21    1.50
   7   6   6   46.64    1.52
  -8  -6  -6    0.35    0.16
  -8  -6  -6    0.28    0.13
   8   6   6    0.25    0.12
  -9  -6  -6    3.21    0.36
   9   6   6    3.29    0.32
 -10  -6  -6   15.21    0.81
  10   6   6   15.10    0.73
  -5   7   6    3.11    0.22
   4  -7  -6    0.85    0.18
  -4   7   6    0.84    0.12
   3  -7  -6   18.34    0.70
   3  -7  -6   18.77    0.77
  -3   7   6   18.12    0.61
   2  -7  -6    2.44    0.19
   2  -7  -6    2.44    0.21
   2  -7  -6    2.38    0.24
  -2   7   6    2.36    0.17
   1  -7  -6   12.81    0.54
   1  -7  -6   13.63    0.57
   1  -7  -6   13.16    0.55
  -1   7   6   12.84    0.46
   0  -7  -6    2.95    0.24
   0  -7  -6    3.07    0.24
   0  -7  -6    2.88    0.24
   0   7   6    3.09    0.19
  -1  -7  -6    1.45    0.18
  -1  -7  -6    1.33    0.18
  -1  -7  -6    1.29    0.18
   1   7   6    1.42    0.14
  -2  -7  -6   66.83    1.94
  -2  -7  -6   67.28    1.97
  -2  -7  -6   65.81    1.86
  -2  -7  -6   65.70    1.92
   2   7   6   68.03    1.81
  -3  -7  -6    6.00    0.39
  -3  -7  -6    5.82    0.38
  -3  -7  -6    6.01    0.33
  -3  -7  -6    5.94    0.40
   3   7   6    6.11    0.34
   3   7   6    5.95    0.32
  -4  -7  -6    0.50    0.16
  -4  -7  -6    0.28    0.11
  -4  -7  -6    0.25    0.13
  -4  -7  -6    0.34    0.10
  -5  -7  -6  137.42    3.65
  -5  -7  -6  132.57    3.60
   5   7   6  133.14    3.64
  -6  -7  -6   11.66    0.57
  -6  -7  -6   10.09    0.56
  -6  -7  -6    9.67    0.53
   6   7   6    9.52    0.54
  -7  -7  -6   25.83    1.00
  -7  -7  -6   24.87    0.97
   7   7   6   24.24    0.97
  -8  -7  -6   61.24    1.96
   8   7   6   62.84    1.94
  -9  -7  -6    0.17    0.14
   9   7   6    0.02    0.08
 -10  -7  -6   25.93    1.12
  -4   8   6   41.27    1.22
   3  -8  -6    7.55    0.37
   3  -8  -6    6.80    0.44
  -3   8   6    7.53    0.35
   2  -8  -6    1.56    0.19
   2  -8  -6    1.56    0.18
   2  -8  -6    1.67    0.24
  -2   8   6    1.47    0.15
   1  -8  -6   33.43    1.11
   1  -8  -6   32.64    1.10
   1  -8  -6   33.81    1.11
  -1   8   6   32.59    0.99
   0  -8  -6    1.45    0.19
   0  -8  -6    1.57    0.19
   0  -8  -6    1.59    0.20
   0   8   6    1.77    0.16
  -1  -8  -6    1.19    0.19
  -1  -8  -6    1.36    0.17
  -1  -8  -6    1.28    0.20
  -1  -8  -6    1.53    0.20
   1   8   6    1.95    0.17
  -2  -8  -6   26.75    1.00
  -2  -8  -6   25.89    0.89
  -2  -8  -6   27.27    0.97
  -2  -8  -6   26.41    0.99
   2   8   6   25.97    0.86
  -3  -8  -6    6.59    0.43
  -3  -8  -6    6.91    0.43
  -4  -8  -6    5.06    0.39
  -4  -8  -6    5.27    0.38
  -5  -8  -6    0.51    0.16
  -5  -8  -6    0.50    0.15
   5   8   6    0.63    0.17
  -6  -8  -6   34.11    1.22
  -6  -8  -6   35.52    1.25
   6   8   6   33.49    1.22
  -7  -8  -6    6.52    0.46
  -7  -8  -6    6.88    0.49
   7   8   6    7.00    0.46
  -8  -8  -6    2.55    0.32
   8   8   6    2.07    0.26
  -9  -8  -6   32.10    1.24
   9   8   6   31.12    1.18
   3  -9  -6   61.55    1.80
   2  -9  -6   18.37    1.04
   2  -9  -6   17.32    0.73
   2  -9  -6   17.94    0.76
   1  -9  -6   15.30    0.69
   1  -9  -6   16.35    0.69
   0  -9  -6   86.49    2.51
   0  -9  -6   88.88    2.45
  -1  -9  -6   16.07    0.65
  -1  -9  -6   16.04    0.73
  -2  -9  -6   17.85    0.77
  -2  -9  -6   18.92    0.82
  -3  -9  -6   46.40    1.54
  -3  -9  -6   47.25    1.58
  -4  -9  -6    7.17    0.48
  -4  -9  -6    8.38    0.52
  -5  -9  -6    8.64    0.54
  -5  -9  -6    8.75    0.54
   5   9   6    8.80    0.54
  -6  -9  -6   20.49    0.89
  -6  -9  -6   20.83    0.89
   6   9   6   20.40    0.88
  -7  -9  -6    6.08    0.46
   7   9   6    6.98    0.47
  -8  -9  -6    0.56    0.19
   8   9   6    0.56    0.17
   2 -10  -6    0.08    0.08
   1 -10  -6    9.35    0.51
   1 -10  -6    8.94    0.52
   0 -10  -6    0.07    0.08
   0 -10  -6    0.12    0.11
  -1 -10  -6    0.37    0.14
  -2 -10  -6   46.41    1.60
  -2 -10  -6   47.90    1.55
  -3 -10  -6    1.02    0.22
  -3 -10  -6    0.50    0.17
  -4 -10  -6    5.26    0.42
  -4 -10  -6    5.68    0.46
   4  10   6    5.61    0.51
  -5 -10  -6   78.28    2.34
  -5 -10  -6   75.78    2.38
   5  10   6   76.51    2.35
  -6 -10  -6    0.12    0.13
   6  10   6    0.04    0.08
  -7 -10  -6   11.36    0.64
   7  10   6   11.27    0.62
  -1 -11  -6    2.65    0.32
  -2 -11  -6   24.29    1.05
  -3 -11  -6    5.57    0.47
  -4 -11  -6    4.90    0.45
   4  11   6    4.50    0.43
  -5 -11  -6    1.04    0.24
  -1  -6   7    0.10    0.05
  -1  -6   7    0.17    0.08
   0  -6   7   18.58    0.67
   0  -6   7   19.24    0.62
   1  -6   7   18.93    0.69
   1  -6   7   19.61    0.64
   2  -6   7    7.58    0.34
   2  -6   7    7.00    0.37
   3  -6   7   38.60    1.19
   3  -6   7   38.52    1.13
   4  -6   7    0.29    0.10
   4  -6   7    0.25    0.08
  -5   6  -7    7.45    0.35
   5  -6   7    7.98    0.37
   5  -6   7    7.52    0.45
   5  -6   7    7.69    0.41
  -3  -5   7   11.41    0.43
  -2  -5   7   29.96    0.87
  -1  -5   7    6.83    0.28
  -1  -5   7    5.88    0.31
   0  -5   7   18.34    0.64
   0  -5   7   19.73    0.60
   1  -5   7   68.64    1.77
   1  -5   7   65.55    1.82
   2  -5   7   32.34    0.94
   2  -5   7   32.43    0.99
   3  -5   7    5.87    0.28
   3  -5   7    5.54    0.30
   4  -5   7   31.43    0.94
   4  -5   7   31.86    1.00
   4  -5   7   31.24    1.04
  -5   5  -7   79.16    2.10
   5  -5   7   78.28    2.24
   5  -5   7   78.03    2.16
   5  -5   7   80.73    2.11
  -6   5  -7    0.15    0.08
   6  -5   7    0.11    0.07
   6  -5   7    0.05    0.07
  -7   5  -7    9.80    0.49
  -4  -4   7   17.14    0.59
  -4  -4   7   16.23    0.83
  -3  -4   7    0.19    0.06
  -2  -4   7    0.09    0.05
   1   4  -7   34.11    0.97
  -1  -4   7   32.68    0.90
  -1  -4   7   32.27    0.96
   0   4  -7    0.05    0.04
   0  -4   7    0.10    0.05
   0  -4   7    0.08    0.04
  -1   4  -7    7.66    0.34
   1  -4   7    8.03    0.30
   1  -4   7    7.45    0.32
  -2   4  -7   23.76    0.77
   2  -4   7   23.54    0.74
   2  -4   7   24.19    0.70
  -3   4  -7    1.74    0.17
   3  -4   7    1.20    0.17
   3  -4   7    1.36    0.13
   3  -4   7    1.44    0.12
  -4   4  -7   40.57    1.23
   4  -4   7   39.27    1.25
   4  -4   7   40.61    1.18
   4  -4   7   41.53    1.14
  -5   4  -7   10.01    0.47
  -5   4  -7    9.65    0.40
   5  -4   7    9.10    0.47
   5  -4   7    9.82    0.39
   5  -4   7    9.72    0.42
  -6   4  -7    0.89    0.16
  -6   4  -7    0.92    0.15
   6  -4   7    1.08    0.19
   6  -4   7    0.80    0.12
   6  -4   7    0.85    0.14
  -7   4  -7   18.65    0.71
   7  -4   7   18.20    0.78
  -8   4  -7    1.99    0.23
  -5  -3   7   80.45    2.42
  -5  -3   7   75.44    2.04
  -4  -3   7    3.19    0.21
  -4  -3   7    2.57    0.31
  -3  -3   7    6.90    0.46
  -3  -3   7    6.78    0.27
   2   3  -7   71.37    1.76
  -2  -3   7   65.83    1.73
   1   3  -7    0.43    0.12
   1   3  -7    0.28    0.06
  -1  -3   7    0.34    0.05
   0   3  -7   21.96    0.81
   0   3  -7   22.02    0.65
   0  -3   7   21.67    0.64
   0  -3   7   21.80    0.61
  -1   3  -7   31.12    1.06
  -1   3  -7   30.62    0.90
   1  -3   7   31.26    0.97
   1  -3   7   32.21    0.89
   1  -3   7   32.33    0.86
  -2   3  -7    3.67    0.28
  -2   3  -7    3.42    0.21
   2  -3   7    3.23    0.23
   2  -3   7    3.63    0.17
   2  -3   7    3.54    0.19
  -3   3  -7   26.29    0.97
  -3   3  -7   28.27    0.86
   3  -3   7   28.08    0.92
   3  -3   7   28.16    0.79
   3  -3   7   27.38    0.82
  -4   3  -7    0.05    0.05
  -4   3  -7    0.03    0.07
   4  -3   7    0.10    0.05
   4  -3   7    0.21    0.09
   4  -3   7    0.19    0.06
  -5   3  -7    4.85    0.25
  -5   3  -7    4.27    0.28
   5  -3   7    4.64    0.24
   5  -3   7    4.22    0.25
   5  -3   7    4.34    0.31
  -6   3  -7   19.51    0.74
  -6   3  -7   19.41    0.68
   6  -3   7   19.56    0.65
   6  -3   7   19.74    0.69
   6  -3   7   19.93    0.78
  -7   3  -7   11.71    0.51
   7  -3   7   10.58    0.55
  -8   3  -7    0.02    0.08
   8  -3   7    0.21    0.12
  -9   3  -7    7.27    0.45
  -5  -2   7   30.51    1.18
  -5  -2   7   31.17    0.88
  -4  -2   7    5.40    0.40
  -4  -2   7    4.65    0.23
  -4  -2   7    4.65    0.22
   3   2  -7   23.84    0.63
  -3  -2   7   22.96    0.91
   2   2  -7  108.56    2.85
   2   2  -7  105.28    2.58
  -2  -2   7  102.16    2.88
   1   2  -7   16.22    0.46
   1   2  -7   16.56    0.64
  -1  -2   7   15.91    0.44
   0   2  -7   48.50    1.29
   0   2  -7   51.23    1.49
   0  -2   7   50.07    1.45
   0  -2   7   50.53    1.26
  -1   2  -7  132.45    3.51
  -1   2  -7  131.41    3.32
   1  -2   7  135.18    3.29
   1  -2   7  134.39    3.47
   1  -2   7  134.83    3.27
  -2   2  -7   71.20    2.04
  -2   2  -7   71.04    1.88
   2  -2   7   72.22    1.83
   2  -2   7   74.36    1.85
   2  -2   7   73.67    2.01
  -3   2  -7   14.49    0.50
   3  -2   7   14.49    0.45
   3  -2   7   14.42    0.47
   3  -2   7   14.12    0.58
  -4   2  -7   64.61    1.73
  -4   2  -7   62.09    1.83
   4  -2   7   62.04    1.64
   4  -2   7   61.48    1.66
   4  -2   7   63.99    1.81
  -5   2  -7  132.33    3.28
  -5   2  -7  130.02    3.37
  -5   2  -7  127.99    3.47
   5  -2   7  129.51    3.27
   5  -2   7  130.71    3.44
   5  -2   7  131.15    3.31
  -6   2  -7    4.21    0.32
  -6   2  -7    4.23    0.28
  -6   2  -7    4.26    0.25
   6  -2   7    4.25    0.31
   6  -2   7    4.24    0.23
   6  -2   7    4.31    0.25
  -7   2  -7   24.21    0.88
  -7   2  -7   24.43    0.84
   7  -2   7   24.96    0.78
   7  -2   7   24.92    0.83
   7  -2   7   24.24    0.92
  -8   2  -7  112.09    3.05
   8  -2   7  114.39    3.15
  -9   2  -7    0.07    0.08
   9  -2   7    0.10    0.13
  -6  -1   7    4.68    0.41
  -6  -1   7    4.64    0.22
  -5  -1   7   11.33    0.62
  -5  -1   7   12.06    0.39
   4   1  -7   26.39    0.72
  -4  -1   7   25.49    0.97
  -3  -1   7    6.74    0.40
   2   1  -7    0.76    0.13
  -2  -1   7    0.93    0.18
   1   1  -7   35.71    1.15
   1   1  -7   36.73    1.11
  -1  -1   7   34.89    1.10
  -1  -1   7   35.00    1.15
   0   1  -7    0.46    0.11
   0   1  -7    0.11    0.03
   0   1  -7    0.13    0.03
   0   1  -7    0.06    0.06
   0  -1   7    0.13    0.08
  -1   1  -7   17.05    0.65
  -1   1  -7   17.55    0.51
   1  -1   7   17.70    0.48
   1  -1   7   17.80    0.68
   1  -1   7   17.70    0.48
  -2   1  -7   42.78    1.33
  -2   1  -7   43.59    1.19
   2  -1   7   46.59    1.36
   2  -1   7   44.29    1.15
   2  -1   7   44.33    1.14
  -3   1  -7   30.71    0.90
   3  -1   7   31.50    0.85
   3  -1   7   31.34    1.02
   3  -1   7   31.21    0.86
  -4   1  -7   50.25    1.37
  -4   1  -7   46.54    1.45
   4  -1   7   48.57    1.29
   4  -1   7   48.91    1.46
   4  -1   7   48.83    1.30
  -5   1  -7   15.45    0.57
  -5   1  -7   15.63    0.51
  -5   1  -7   15.09    0.63
   5  -1   7   15.24    0.53
   5  -1   7   15.96    0.51
   5  -1   7   15.47    0.64
  -6   1  -7   17.69    0.72
  -6   1  -7   17.73    0.62
  -6   1  -7   18.16    0.67
   6  -1   7   18.87    0.73
   6  -1   7   18.08    0.62
   6  -1   7   18.17    0.60
  -7   1  -7   12.18    0.54
  -7   1  -7   11.99    0.56
  -7   1  -7   12.52    0.51
   7  -1   7   12.24    0.47
   7  -1   7   12.26    0.59
  -8   1  -7    3.02    0.26
   8  -1   7    2.84    0.29
  -9   1  -7    3.62    0.31
   9  -1   7    3.70    0.34
 -10   1  -7    1.25    0.23
  -6   0   7    1.16    0.11
  -6   0   7    1.30    0.28
  -5   0   7   92.30    2.30
  -5   0   7   91.70    2.64
  -4   0   7    0.87    0.19
  -4   0   7    0.88    0.07
  -3   0   7    4.27    0.30
   2   0  -7   80.50    2.05
   2   0  -7   71.11    2.19
  -2   0   7   70.85    2.18
  -2   0   7   76.73    2.07
   1   0  -7    3.06    0.28
   1   0  -7    3.35    0.23
  -1   0   7    2.57    0.27
  -1   0   7    3.36    0.23
   0   0  -7    1.91    0.18
   0   0  -7    1.60    0.20
   0   0   7    1.77    0.24
   0   0   7    2.36    0.17
  -1   0  -7   39.62    1.04
  -1   0  -7   38.31    1.26
  -1   0  -7   40.06    1.21
   1   0   7   39.53    1.28
   1   0   7   41.51    0.99
   1   0   7   40.82    1.02
  -2   0  -7    0.94    0.17
  -2   0  -7    0.80    0.08
  -2   0  -7    0.66    0.12
   2   0   7    0.70    0.06
   2   0   7    0.98    0.08
   2   0   7    0.62    0.14
  -3   0  -7   12.16    0.43
  -3   0  -7   12.45    0.52
   3   0   7   11.97    0.38
   3   0   7   11.81    0.54
   3   0   7   12.06    0.38
  -4   0  -7   10.05    0.47
  -4   0  -7   10.60    0.41
  -4   0  -7   10.45    0.31
   4   0   7    9.86    0.36
   4   0   7   10.73    0.50
   4   0   7   10.58    0.36
  -5   0  -7    6.14    0.26
  -5   0  -7    6.43    0.36
  -5   0  -7    6.00    0.31
   5   0   7    5.96    0.27
   5   0   7    6.17    0.37
   5   0   7    6.21    0.27
  -6   0  -7   35.80    1.10
  -6   0  -7   33.81    1.12
  -6   0  -7   35.43    1.03
   6   0   7   33.44    1.14
   6   0   7   34.93    1.01
  -7   0  -7   28.87    0.99
  -7   0  -7   28.82    0.94
  -7   0  -7   28.99    1.00
   7   0   7   29.03    1.03
  -8   0  -7    0.84    0.16
   8   0   7    1.15    0.21
  -9   0  -7   10.52    0.55
   9   0   7   10.16    0.56
 -10   0  -7   21.65    0.92
  10   0   7   21.86    0.93
  -6   1   7   10.73    0.60
  -6   1   7   10.00    0.36
  -5   1   7   47.35    1.55
  -5   1   7   49.42    1.27
  -4   1   7    9.11    0.29
  -4   1   7    8.65    0.47
   3  -1  -7   30.12    1.08
  -3   1   7   29.43    1.06
  -3   1   7   28.51    0.97
   2  -1  -7  146.67    3.95
   2  -1  -7  148.70    3.79
  -2   1   7  152.88    3.80
  -2   1   7  143.93    3.93
   1  -1  -7   52.86    1.66
   1  -1  -7   54.89    1.54
  -1   1   7   52.63    1.65
  -1   1   7   55.05    1.50
   0  -1  -7   15.56    0.69
   0  -1  -7   16.62    0.46
   0  -1  -7   15.76    0.60
   0   1   7   15.71    0.69
   0   1   7   16.79    0.54
  -1  -1  -7  185.12    4.69
  -1  -1  -7  175.92    4.58
  -1  -1  -7  185.22    4.44
   1   1   7  180.18    4.68
   1   1   7  178.08    4.47
   1   1   7  175.65    4.39
   1   1   7  180.94    4.37
  -2  -1  -7  170.79    4.23
  -2  -1  -7  167.50    4.43
  -2  -1  -7  170.11    4.37
   2   1   7  169.99    4.24
   2   1   7  177.82    4.20
   2   1   7  169.00    4.44
  -3  -1  -7   26.09    0.87
  -3  -1  -7   27.39    0.77
  -3  -1  -7   25.50    0.77
  -3  -1  -7   22.96    0.88
   3   1   7   25.75    0.71
   3   1   7   24.07    0.89
   3   1   7   25.67    0.73
  -4  -1  -7  119.22    3.04
  -4  -1  -7  127.72    3.19
  -4  -1  -7  130.86    3.18
  -4  -1  -7  125.30    3.28
   4   1   7  123.97    3.11
   4   1   7  126.07    3.12
   4   1   7  117.01    3.29
  -5  -1  -7  180.49    4.67
  -5  -1  -7  185.38    4.58
  -5  -1  -7  185.26    4.74
  -5  -1  -7  190.14    4.68
   5   1   7  191.61    4.60
   5   1   7  177.09    4.75
  -6  -1  -7   14.62    0.58
  -6  -1  -7   13.16    0.57
  -6  -1  -7   14.46    0.52
  -6  -1  -7   13.48    0.58
   6   1   7   13.19    0.60
   6   1   7   13.80    0.50
  -7  -1  -7   25.18    0.91
  -7  -1  -7   27.18    0.94
  -7  -1  -7   26.30    0.88
  -7  -1  -7   26.47    0.93
   7   1   7   25.48    0.94
   7   1   7   26.19    0.83
  -8  -1  -7  148.66    3.90
  -8  -1  -7  139.14    3.77
   8   1   7  141.12    3.82
  -9  -1  -7    1.12    0.21
   9   1   7    0.63    0.17
 -10  -1  -7    3.44    0.34
  10   1   7    2.81    0.31
  -6   2   7   11.36    0.62
  -6   2   7   12.06    0.41
  -5   2   7   20.26    0.84
  -5   2   7   21.25    0.61
   4  -2  -7   13.73    0.66
  -4   2   7   13.88    0.41
  -4   2   7   13.40    0.60
   3  -2  -7    4.20    0.33
  -3   2   7    4.59    0.30
  -3   2   7    4.37    0.16
   2  -2  -7    1.70    0.18
   2  -2  -7    1.83    0.22
  -2   2   7    1.75    0.21
  -2   2   7    1.70    0.17
  -2   2   7    1.80    0.08
   1  -2  -7   49.72    1.31
   1  -2  -7   52.01    1.57
   1  -2  -7   50.99    1.50
   1  -2  -7   50.58    1.29
  -1   2   7   51.31    1.56
  -1   2   7   51.24    1.41
  -1   2   7   52.28    1.26
   0  -2  -7    4.32    0.29
   0  -2  -7    4.34    0.18
   0   2   7    4.30    0.18
   0   2   7    4.31    0.15
   0   2   7    4.48    0.22
   0   2   7    4.58    0.33
  -1  -2  -7    8.44    0.42
  -1  -2  -7    8.10    0.45
  -1  -2  -7    7.60    0.34
   1   2   7    8.37    0.28
   1   2   7    8.26    0.46
   1   2   7    8.53    0.29
  -2  -2  -7   36.94    1.23
  -2  -2  -7   37.11    1.12
  -2  -2  -7   38.13    1.20
  -2  -2  -7   38.36    1.08
   2   2   7   38.85    1.05
   2   2   7   38.80    1.25
  -3  -2  -7    8.52    0.37
  -3  -2  -7    9.09    0.46
  -3  -2  -7    8.74    0.39
  -3  -2  -7    8.58    0.44
   3   2   7   10.63    0.49
  -4  -2  -7   26.24    0.73
  -4  -2  -7   27.12    0.93
  -4  -2  -7   26.71    0.86
  -4  -2  -7   26.88    0.86
  -4  -2  -7   26.02    0.91
   4   2   7   25.99    0.92
   4   2   7   25.67    0.80
  -5  -2  -7    8.05    0.41
  -5  -2  -7    8.78    0.44
  -5  -2  -7    8.27    0.40
  -5  -2  -7    8.34    0.34
   5   2   7    7.67    0.35
   5   2   7    7.67    0.42
  -6  -2  -7   43.70    1.27
  -6  -2  -7   42.35    1.33
  -6  -2  -7   43.36    1.34
  -6  -2  -7   44.22    1.36
   6   2   7   42.49    1.35
   6   2   7   42.54    1.24
  -7  -2  -7    9.43    0.46
  -7  -2  -7    8.56    0.45
  -7  -2  -7    9.83    0.50
   7   2   7    9.35    0.48
   7   2   7    9.33    0.41
  -8  -2  -7   10.40    0.56
  -8  -2  -7   10.47    0.53
   8   2   7    9.85    0.51
  -9  -2  -7   22.99    0.93
  -9  -2  -7   23.47    0.95
   9   2   7   22.81    0.90
 -10  -2  -7    0.42    0.17
 -10  -2  -7    0.99    0.22
  10   2   7    0.64    0.18
  10   2   7    0.83    0.19
 -11  -2  -7   20.20    0.96
  11   2   7   20.34    0.91
  -6   3   7    0.97    0.22
  -6   3   7    1.09    0.12
   5  -3  -7   55.98    1.76
  -5   3   7   52.50    1.67
  -5   3   7   53.85    1.42
   4  -3  -7    0.69    0.17
  -4   3   7    0.35    0.06
  -4   3   7    0.55    0.14
   3  -3  -7    8.20    0.47
  -3   3   7    8.56    0.42
  -3   3   7    8.09    0.27
   2  -3  -7   48.44    1.47
   2  -3  -7   47.69    1.43
  -2   3   7   45.76    1.19
  -2   3   7   45.63    1.34
   1  -3  -7    1.50    0.21
   1  -3  -7    1.45    0.19
   1  -3  -7    1.48    0.10
  -1   3   7    1.52    0.09
  -1   3   7    1.53    0.14
   0  -3  -7    2.48    0.23
   0  -3  -7    2.41    0.23
   0   3   7    2.19    0.15
   0   3   7    2.45    0.23
   0   3   7    2.26    0.11
  -1  -3  -7    8.00    0.42
  -1  -3  -7    7.43    0.34
  -1  -3  -7    7.75    0.43
   1   3   7    8.22    0.43
   1   3   7    7.48    0.27
   1   3   7    7.45    0.27
  -2  -3  -7    0.07    0.05
  -2  -3  -7    0.23    0.10
  -2  -3  -7    0.14    0.08
  -2  -3  -7    0.53    0.13
   2   3   7    0.16    0.09
   2   3   7    0.31    0.07
  -3  -3  -7    4.75    0.28
  -3  -3  -7    4.67    0.33
  -3  -3  -7    4.43    0.15
  -3  -3  -7    4.96    0.32
  -3  -3  -7    4.98    0.31
   3   3   7    4.59    0.25
   3   3   7    5.07    0.33
  -4  -3  -7   22.78    0.86
  -4  -3  -7   22.47    0.81
  -4  -3  -7   22.38    0.68
  -4  -3  -7   22.48    0.79
  -4  -3  -7   23.04    0.83
   4   3   7   23.04    0.74
   4   3   7   23.06    0.83
  -5  -3  -7    6.90    0.39
  -5  -3  -7    7.03    0.33
  -5  -3  -7    6.92    0.41
  -5  -3  -7    6.01    0.37
   5   3   7    6.32    0.33
   5   3   7    7.26    0.39
  -6  -3  -7    3.76    0.30
  -6  -3  -7    3.36    0.29
  -6  -3  -7    3.79    0.27
  -6  -3  -7    3.68    0.29
   6   3   7    3.24    0.23
   6   3   7    3.75    0.28
  -7  -3  -7   39.24    1.29
  -7  -3  -7   38.56    1.25
  -7  -3  -7   38.05    1.24
  -7  -3  -7   37.85    1.29
   7   3   7   37.29    1.16
   7   3   7   38.49    1.23
  -8  -3  -7    0.18    0.12
  -8  -3  -7    0.10    0.10
   8   3   7    0.03    0.07
  -9  -3  -7    3.97    0.36
  -9  -3  -7    4.22    0.38
   9   3   7    4.31    0.36
   9   3   7    4.58    0.34
 -10  -3  -7   33.59    1.26
 -10  -3  -7   30.49    1.22
  10   3   7   32.56    1.21
 -11  -3  -7    5.43    0.49
  11   3   7    5.47    0.44
   6  -4  -7    6.23    0.48
  -6   4   7    6.30    0.29
  -6   4   7    5.92    0.43
   5  -4  -7   50.18    1.69
  -5   4   7   55.49    1.65
  -5   4   7   51.08    1.40
   4  -4  -7   26.33    1.02
  -4   4   7   27.90    0.78
  -4   4   7   27.05    0.95
   3  -4  -7   27.15    0.99
  -3   4   7   26.68    0.91
  -3   4   7   27.61    0.76
   2  -4  -7  123.61    3.39
   2  -4  -7  124.23    3.19
   2  -4  -7  129.91    3.45
  -2   4   7  128.50    3.29
  -2   4   7  129.53    3.14
   1  -4  -7  105.37    2.94
   1  -4  -7  105.40    2.86
   1  -4  -7  103.89    2.68
  -1   4   7  106.52    2.62
  -1   4   7  107.42    2.73
   0  -4  -7   51.33    1.55
   0  -4  -7   51.54    1.42
   0  -4  -7   51.50    1.65
   0   4   7   54.20    1.42
   0   4   7   53.34    1.35
  -1  -4  -7  192.96    5.18
  -1  -4  -7  194.09    4.96
  -1  -4  -7  198.73    5.07
   1   4   7  207.21    5.08
   1   4   7  198.97    4.85
  -2  -4  -7  110.23    2.92
  -2  -4  -7  103.38    3.00
  -2  -4  -7  110.65    2.84
  -2  -4  -7  105.92    2.88
   2   4   7  110.57    2.93
   2   4   7  109.18    2.74
  -3  -4  -7   45.45    1.35
  -3  -4  -7   39.66    1.38
  -3  -4  -7   43.20    1.33
  -3  -4  -7   42.35    1.14
  -3  -4  -7   41.99    1.28
   3   4   7   41.72    1.22
   3   4   7   43.41    1.34
  -4  -4  -7  126.87    3.36
  -4  -4  -7  133.20    3.43
  -4  -4  -7  123.65    3.37
  -4  -4  -7  120.40    3.45
  -4  -4  -7  127.95    3.27
   4   4   7  130.37    3.29
   4   4   7  132.27    3.39
  -5  -4  -7  114.62    3.30
  -5  -4  -7  123.24    3.32
  -5  -4  -7  119.74    3.28
  -5  -4  -7  126.88    3.22
  -5  -4  -7  119.13    3.19
   5   4   7  124.58    3.23
   5   4   7  125.29    3.17
  -6  -4  -7    4.04    0.32
  -6  -4  -7    3.77    0.31
  -6  -4  -7    3.43    0.31
  -6  -4  -7    3.67    0.29
   6   4   7    3.94    0.28
   6   4   7    4.17    0.27
  -7  -4  -7   35.24    1.21
  -7  -4  -7   32.48    1.17
  -7  -4  -7   36.73    1.20
   7   4   7   34.61    1.12
  -8  -4  -7  115.24    3.13
  -8  -4  -7  109.71    3.10
   8   4   7  107.83    3.11
   8   4   7  112.73    3.00
  -9  -4  -7    2.37    0.30
  -9  -4  -7    2.29    0.29
   9   4   7    2.11    0.27
 -10  -4  -7    3.88    0.39
 -10  -4  -7    3.61    0.36
  10   4   7    2.63    0.31
   5  -5  -7   25.77    1.03
  -5   5   7   25.73    0.78
  -5   5   7   25.66    0.97
   4  -5  -7   20.22    0.84
  -4   5   7   19.31    0.77
  -4   5   7   19.60    0.62
   3  -5  -7    1.64    0.24
  -3   5   7    1.40    0.11
  -3   5   7    1.44    0.18
   2  -5  -7    1.71    0.24
   2  -5  -7    1.79    0.22
   2  -5  -7    1.70    0.15
  -2   5   7    1.80    0.12
   1  -5  -7   28.57    0.86
   1  -5  -7   27.00    0.96
   1  -5  -7   27.46    1.09
  -1   5   7   29.07    0.79
   0  -5  -7    8.57    0.43
   0  -5  -7    8.46    0.37
   0  -5  -7    8.41    0.52
   0   5   7    8.28    0.31
  -1  -5  -7    2.84    0.30
  -1  -5  -7    3.26    0.23
  -1  -5  -7    2.98    0.25
   1   5   7    2.87    0.24
   1   5   7    3.61    0.18
  -2  -5  -7    1.95    0.20
  -2  -5  -7    1.77    0.18
  -2  -5  -7    2.05    0.21
  -2  -5  -7    1.94    0.13
  -2  -5  -7    2.10    0.26
   2   5   7    2.06    0.15
   2   5   7    1.99    0.21
  -3  -5  -7   52.00    1.55
  -3  -5  -7   57.71    1.68
  -3  -5  -7   58.42    1.79
  -3  -5  -7   56.65    1.71
  -3  -5  -7   55.37    1.65
   3   5   7   58.96    1.69
   3   5   7   56.63    1.56
  -4  -5  -7   21.56    0.79
  -4  -5  -7   23.61    0.91
  -4  -5  -7   20.76    0.82
  -4  -5  -7   23.83    0.88
  -4  -5  -7   21.11    0.77
   4   5   7   22.26    0.81
   4   5   7   22.69    0.75
  -5  -5  -7    6.05    0.40
  -5  -5  -7    5.76    0.36
  -5  -5  -7    5.35    0.32
  -5  -5  -7    5.43    0.38
  -5  -5  -7    6.47    0.42
   5   5   7    5.72    0.32
   5   5   7    5.64    0.34
  -6  -5  -7  116.23    3.21
  -6  -5  -7  116.48    3.24
  -6  -5  -7  117.41    3.18
  -6  -5  -7  117.64    3.22
   6   5   7  117.67    3.10
   6   5   7  117.43    3.08
  -7  -5  -7    3.18    0.31
  -7  -5  -7    3.43    0.30
  -7  -5  -7    3.34    0.30
   7   5   7    3.08    0.25
  -8  -5  -7    7.43    0.49
  -8  -5  -7    6.67    0.45
   8   5   7    7.82    0.48
  -9  -5  -7   36.86    1.31
  -9  -5  -7   34.44    1.29
   9   5   7   34.83    1.28
 -10  -5  -7    1.80    0.31
  10   5   7    1.65    0.28
  -5   6   7   23.82    0.76
   4  -6  -7    1.38    0.23
  -4   6   7    1.68    0.14
   3  -6  -7   29.68    1.08
  -3   6   7   29.82    0.87
   2  -6  -7   12.87    0.60
   2  -6  -7   13.02    0.70
   2  -6  -7   12.84    0.51
  -2   6   7   13.17    0.45
   1  -6  -7    1.93    0.27
   1  -6  -7    1.44    0.21
   1  -6  -7    1.82    0.17
  -1   6   7    1.59    0.13
   0  -6  -7   12.50    0.51
   0  -6  -7   12.19    0.67
   0  -6  -7   12.14    0.55
   0   6   7   11.88    0.42
  -1  -6  -7    7.49    0.31
  -1  -6  -7    7.58    0.40
  -1  -6  -7    8.31    0.41
  -1  -6  -7    7.56    0.50
   1   6   7    7.79    0.32
  -2  -6  -7    4.00    0.29
  -2  -6  -7    3.90    0.28
  -2  -6  -7    3.87    0.30
  -2  -6  -7    4.49    0.25
  -2  -6  -7    3.92    0.35
   2   6   7    3.84    0.23
   2   6   7    3.63    0.28
  -3  -6  -7    8.67    0.47
  -3  -6  -7    9.11    0.45
  -3  -6  -7    9.25    0.54
  -3  -6  -7    8.79    0.42
  -3  -6  -7    7.89    0.47
   3   6   7    9.73    0.46
   3   6   7    8.72    0.39
  -4  -6  -7   55.70    1.65
  -4  -6  -7   57.50    1.66
  -4  -6  -7   53.98    1.71
  -4  -6  -7   57.32    1.79
  -4  -6  -7   59.29    1.78
   4   6   7   57.24    1.67
   4   6   7   54.87    1.62
  -5  -6  -7    1.70    0.27
  -5  -6  -7    0.95    0.19
  -5  -6  -7    1.34    0.19
  -5  -6  -7    1.36    0.16
  -5  -6  -7    1.86    0.23
   5   6   7    1.39    0.19
   5   6   7    1.60    0.21
  -6  -6  -7    0.03    0.07
  -6  -6  -7    0.05    0.09
  -6  -6  -7   -0.03    0.07
  -7  -6  -7   63.17    1.91
  -7  -6  -7   61.94    1.92
   7   6   7   62.38    1.92
  -8  -6  -7    1.21    0.24
  -8  -6  -7    1.09    0.22
   8   6   7    0.94    0.22
  -9  -6  -7    4.20    0.40
  -9  -6  -7    4.47    0.38
   9   6   7    4.64    0.39
 -10  -6  -7   23.89    1.03
  10   6   7   21.56    0.96
   4  -7  -7   24.45    1.36
  -4   7   7   23.36    0.76
   3  -7  -7   21.22    0.86
  -3   7   7   20.76    0.68
   2  -7  -7   85.59    2.42
   2  -7  -7   83.48    2.32
  -2   7   7   84.91    2.21
   1  -7  -7   34.74    1.12
   1  -7  -7   36.64    1.20
  -1   7   7   35.69    1.02
   0  -7  -7   45.41    1.40
   0  -7  -7   44.35    1.26
   0  -7  -7   44.39    1.37
   0   7   7   45.33    1.25
  -1  -7  -7  129.50    3.31
  -1  -7  -7  125.42    3.40
  -1  -7  -7  127.44    3.38
   1   7   7  128.81    3.25
  -2  -7  -7   76.66    2.11
  -2  -7  -7   75.00    2.21
  -2  -7  -7   73.85    2.13
  -2  -7  -7   75.69    2.17
   2   7   7   78.01    2.05
   2   7   7   78.30    2.15
  -3  -7  -7   15.47    0.71
  -3  -7  -7   15.30    0.69
  -3  -7  -7   16.38    0.65
  -3  -7  -7   15.82    0.64
   3   7   7   15.00    0.58
   3   7   7   15.62    0.64
  -4  -7  -7   53.65    1.73
  -4  -7  -7   55.54    1.65
  -4  -7  -7   56.72    1.68
  -4  -7  -7   58.14    1.80
   4   7   7   55.61    1.63
   4   7   7   56.25    1.66
  -5  -7  -7   78.50    2.30
  -5  -7  -7   78.62    2.24
  -5  -7  -7   76.56    2.31
  -6  -7  -7    7.49    0.47
  -6  -7  -7    7.48    0.48
  -6  -7  -7    7.61    0.45
  -7  -7  -7   10.80    0.57
  -7  -7  -7   10.42    0.58
   7   7   7   10.05    0.57
  -8  -7  -7   48.46    1.57
  -8  -7  -7   46.81    1.59
   8   7   7   45.99    1.57
  -9  -7  -7    2.30    0.34
   9   7   7    1.87    0.26
 -10  -7  -7    0.34    0.18
  10   7   7    0.18    0.12
   3  -8  -7    0.09    0.09
  -3   8   7    0.13    0.07
   2  -8  -7   12.46    0.61
  -2   8   7   12.22    0.47
   1  -8  -7    4.26    0.33
   1  -8  -7    4.87    0.32
   1  -8  -7    4.24    0.26
  -1   8   7    4.36    0.25
   0  -8  -7   24.29    0.91
   0  -8  -7   24.92    0.92
   0  -8  -7   25.85    0.87
   0   8   7   24.72    0.80
  -1  -8  -7    0.11    0.08
  -1  -8  -7    0.10    0.07
  -1  -8  -7    0.07    0.08
   1   8   7    0.19    0.07
  -2  -8  -7    1.02    0.17
  -2  -8  -7    1.22    0.22
  -2  -8  -7    1.24    0.20
  -2  -8  -7    1.23    0.22
   2   8   7    1.31    0.17
  -3  -8  -7   81.08    2.49
  -3  -8  -7   84.52    2.39
  -3  -8  -7   86.04    2.46
  -3  -8  -7   85.21    2.35
   3   8   7   87.15    2.37
   3   8   7   83.87    2.30
  -4  -8  -7    6.98    0.47
  -4  -8  -7    7.55    0.44
  -5  -8  -7    0.19    0.13
  -5  -8  -7    0.21    0.11
  -6  -8  -7   87.73    2.68
  -6  -8  -7   95.19    2.67
  -6  -8  -7   96.65    2.72
  -7  -8  -7    2.51    0.28
  -7  -8  -7    2.79    0.32
   7   8   7    2.42    0.28
  -8  -8  -7   11.40    0.62
  -8  -8  -7   10.57    0.62
   8   8   7   11.34    0.62
  -9  -8  -7   50.34    1.71
   9   8   7   49.25    1.65
   2  -9  -7    0.88    0.14
   2  -9  -7    0.86    0.19
  -2   9   7    0.77    0.13
   1  -9  -7    2.29    0.42
   1  -9  -7    2.07    0.24
   1  -9  -7    2.05    0.22
  -1   9   7    1.76    0.17
   0  -9  -7   32.15    1.16
   0  -9  -7   33.51    1.14
   0  -9  -7   33.96    1.15
   0   9   7   33.25    1.03
  -1  -9  -7    3.39    0.29
  -1  -9  -7    3.27    0.30
  -1  -9  -7    3.03    0.30
   1   9   7    3.51    0.27
  -2  -9  -7    0.83    0.16
  -2  -9  -7    1.03    0.21
  -2  -9  -7    0.60    0.16
  -3  -9  -7   17.52    0.79
  -3  -9  -7   17.67    0.77
  -4  -9  -7   20.80    0.90
  -4  -9  -7   21.23    0.87
  -5  -9  -7    2.95    0.30
  -5  -9  -7    3.01    0.33
  -6  -9  -7    0.78    0.19
  -6  -9  -7    1.00    0.22
  -7  -9  -7   31.07    1.18
  -7  -9  -7   31.64    1.20
   7   9   7   30.48    1.17
  -8  -9  -7    2.20    0.34
   8   9   7    1.68    0.27
   1 -10  -7   10.19    0.55
   1 -10  -7   11.41    0.65
   0 -10  -7   21.28    0.89
   0 -10  -7   21.88    0.87
  -1 -10  -7   41.84    1.63
  -1 -10  -7   40.68    1.42
  -2 -10  -7   17.48    0.80
  -2 -10  -7   18.57    0.83
  -3 -10  -7   15.71    0.77
  -3 -10  -7   16.25    0.77
  -4 -10  -7   18.73    0.84
  -4 -10  -7   17.21    0.84
  -5 -10  -7   11.00    0.63
  -5 -10  -7   10.35    0.60
  -6 -10  -7    6.08    0.46
  -6 -10  -7    7.02    0.50
   6  10   7    6.72    0.48
  -7 -10  -7    2.39    0.32
  -7 -10  -7    2.02    0.28
   7  10   7    2.43    0.29
  -1 -11  -7    0.29    0.14
  -2 -11  -7    0.10    0.11
  -3 -11  -7   62.12    2.01
  -3 -11  -7   60.48    1.97
  -4 -11  -7    0.83    0.22
  -4 -11  -7    0.94    0.24
  -1  -5   8   45.58    1.21
  -1  -5   8   42.44    1.27
   0  -5   8    3.31    0.22
   0  -5   8    3.67    0.20
   1  -5   8   18.77    0.60
   1  -5   8   18.19    0.64
   2  -5   8    8.49    0.39
   2  -5   8    8.70    0.36
   3  -5   8    7.98    0.38
   3  -5   8    8.19    0.35
   4  -5   8   27.09    0.90
   4  -5   8   27.45    0.85
   5  -5   8    0.91    0.15
   5  -5   8    0.79    0.13
   5  -5   8    1.16    0.19
  -2  -4   8   17.71    0.54
  -1  -4   8   45.66    1.29
  -1  -4   8   47.14    1.23
   0  -4   8   17.00    0.58
   0  -4   8   19.00    0.56
   1  -4   8   27.96    0.80
   1  -4   8   27.62    0.84
   2  -4   8   74.83    1.93
   2  -4   8   73.87    1.98
   3  -4   8   68.52    1.88
   3  -4   8   68.55    1.99
   3  -4   8   72.30    1.84
   4  -4   8   10.33    0.40
   4  -4   8    9.79    0.49
   4  -4   8   10.26    0.43
   5  -4   8   33.83    1.04
   5  -4   8   32.40    1.13
   5  -4   8   33.73    0.99
  -6   4  -8   90.36    2.38
   6  -4   8   90.82    2.59
   6  -4   8   92.28    2.48
   6  -4   8   92.04    2.41
  -7   4  -8    1.05    0.16
  -3  -3   8   21.91    0.93
  -3  -3   8   21.86    0.65
  -2  -3   8    0.13    0.04
   1   3  -8    2.28    0.14
   1   3  -8    2.85    0.25
  -1  -3   8    2.33    0.13
   0   3  -8   32.09    1.10
   0   3  -8   31.43    0.89
   0  -3   8   32.01    0.86
   0  -3   8   31.51    0.89
  -1   3  -8    0.17    0.06
  -1   3  -8    0.49    0.14
   1  -3   8    0.17    0.05
   1  -3   8    0.17    0.05
  -2   3  -8   14.47    0.65
  -2   3  -8   14.01    0.52
   2  -3   8   16.01    0.61
   2  -3   8   15.18    0.50
   2  -3   8   15.08    0.47
  -3   3  -8   17.21    0.61
  -3   3  -8   16.76    0.73
   3  -3   8   17.59    0.58
   3  -3   8   17.30    0.54
   3  -3   8   17.38    0.68
  -4   3  -8    0.29    0.09
  -4   3  -8    0.36    0.12
   4  -3   8    0.37    0.12
   4  -3   8    0.32    0.08
   4  -3   8    0.43    0.08
  -5   3  -8   27.14    0.92
   5  -3   8   27.26    0.82
   5  -3   8   26.69    0.85
   5  -3   8   27.64    0.98
  -6   3  -8    0.26    0.09
  -6   3  -8    0.22    0.07
   6  -3   8    0.22    0.08
   6  -3   8    0.37    0.14
   6  -3   8    0.29    0.08
  -7   3  -8    0.15    0.08
   7  -3   8    0.03    0.05
   7  -3   8    0.18    0.11
   7  -3   8    0.12    0.06
  -8   3  -8    4.93    0.33
  -4  -2   8   66.94    2.07
  -3  -2   8    0.22    0.12
  -2  -2   8   12.02    0.59
   1   2  -8   27.32    0.95
   1   2  -8   27.43    0.72
  -1  -2   8   27.00    0.71
   0   2  -8    4.13    0.30
   0   2  -8    3.48    0.16
   0  -2   8    3.62    0.15
   0  -2   8    3.50    0.16
  -1   2  -8   23.53    0.87
  -1   2  -8   23.85    0.70
   1  -2   8   23.73    0.65
   1  -2   8   23.93    0.67
   1  -2   8   24.27    0.85
  -2   2  -8    5.85    0.27
  -2   2  -8    5.86    0.37
   2  -2   8    6.07    0.23
   2  -2   8    6.05    0.25
   2  -2   8    5.83    0.35
  -3   2  -8    9.99    0.40
   3  -2   8    9.89    0.35
   3  -2   8    9.95    0.36
   3  -2   8    9.48    0.47
  -4   2  -8   32.42    1.13
  -4   2  -8   32.48    1.00
   4  -2   8   34.32    1.11
   4  -2   8   32.06    0.92
   4  -2   8   32.62    0.95
  -5   2  -8   12.37    0.60
  -5   2  -8   12.68    0.52
   5  -2   8   12.24    0.47
   5  -2   8   12.54    0.58
   5  -2   8   12.11    0.44
  -6   2  -8   13.76    0.49
  -6   2  -8   14.12    0.58
  -6   2  -8   14.00    0.65
   6  -2   8   13.89    0.64
   6  -2   8   13.40    0.52
   6  -2   8   13.50    0.50
  -7   2  -8   20.30    0.71
  -7   2  -8   20.41    0.78
   7  -2   8   20.85    0.73
   7  -2   8   20.85    0.85
   7  -2   8   19.82    0.68
  -8   2  -8   26.59    0.93
   8  -2   8   26.59    1.04
  -9   2  -8   -0.02    0.07
  -5  -1   8   11.35    0.37
  -5  -1   8   11.98    0.64
  -4  -1   8   33.24    1.20
  -3  -1   8    9.65    0.51
  -2  -1   8   47.84    1.46
   1   1  -8  108.33    2.88
  -1  -1   8  107.11    2.88
   0   1  -8   44.87    1.15
   0   1  -8   45.28    1.42
   0   1  -8   46.99    1.39
   0  -1   8   44.43    1.41
  -1   1  -8   42.19    1.14
  -1   1  -8   41.81    1.34
   1  -1   8   44.33    1.11
   1  -1   8   45.81    1.12
   1  -1   8   43.43    1.37
  -2   1  -8   91.23    2.58
  -2   1  -8   93.51    2.40
   2  -1   8   96.00    2.61
   2  -1   8   93.45    2.35
   2  -1   8   97.78    2.36
  -3   1  -8  114.53    3.15
  -3   1  -8  116.79    2.99
   3  -1   8  119.77    3.17
   3  -1   8  117.24    2.94
   3  -1   8  120.07    2.93
  -4   1  -8   11.15    0.44
  -4   1  -8   10.72    0.52
   4  -1   8   10.13    0.38
   4  -1   8   10.89    0.53
   4  -1   8   10.87    0.38
  -5   1  -8   62.51    1.54
  -5   1  -8   62.42    1.71
  -5   1  -8   59.37    1.81
   5  -1   8   62.11    1.83
   5  -1   8   60.31    1.64
   5  -1   8   59.37    1.62
  -6   1  -8  127.81    3.40
  -6   1  -8  128.70    3.29
  -6   1  -8  128.51    3.51
   6  -1   8  126.79    3.29
   6  -1   8  135.86    3.53
   6  -1   8  132.40    3.33
  -7   1  -8    0.69    0.14
  -7   1  -8    0.80    0.18
  -7   1  -8    0.65    0.12
   7  -1   8    1.05    0.14
   7  -1   8    1.01    0.20
  -8   1  -8   10.52    0.73
  -8   1  -8    9.42    0.47
   8  -1   8    9.80    0.56
  -9   1  -8  109.49    3.05
   9  -1   8  113.54    3.18
  -5   0   8    7.02    0.25
  -5   0   8    6.70    0.46
  -4   0   8    7.81    0.47
  -3   0   8   32.79    1.11
  -2   0   8    2.38    0.22
   1   0  -8    2.57    0.27
   1   0  -8    2.43    0.21
  -1   0   8    2.51    0.20
  -1   0   8    2.16    0.26
   0   0  -8   41.67    1.26
   0   0  -8   38.90    1.32
   0   0   8   38.38    1.32
   0   0   8   42.05    1.19
  -1   0  -8    3.52    0.30
  -1   0  -8    3.98    0.28
  -1   0  -8    3.98    0.18
   1   0   8    4.05    0.15
   1   0   8    3.79    0.31
   1   0   8    4.08    0.14
  -2   0  -8   12.36    0.43
  -2   0  -8   13.44    0.61
  -2   0  -8   13.19    0.57
   2   0   8   14.60    0.63
   2   0   8   13.12    0.40
   2   0   8   13.16    0.39
  -3   0  -8    5.77    0.27
  -3   0  -8    5.58    0.35
   3   0   8    6.17    0.23
   3   0   8    5.79    0.23
   3   0   8    5.60    0.38
  -4   0  -8   11.93    0.45
  -4   0  -8   11.73    0.54
   4   0   8   11.28    0.40
   4   0   8   11.57    0.56
   4   0   8   11.10    0.40
  -5   0  -8   13.61    0.53
  -5   0  -8   13.63    0.41
  -5   0  -8   13.88    0.61
   5   0   8   12.80    0.61
   5   0   8   13.32    0.47
   5   0   8   13.66    0.48
  -6   0  -8    0.37    0.10
  -6   0  -8    0.44    0.09
  -6   0  -8    0.33    0.11
   6   0   8    0.18    0.07
   6   0   8    0.25    0.11
  -7   0  -8   10.27    0.44
  -7   0  -8    9.46    0.48
  -7   0  -8   10.15    0.52
   7   0   8    9.59    0.41
   7   0   8   10.22    0.54
  -8   0  -8    2.20    0.22
   8   0   8    1.64    0.25
  -9   0  -8    7.32    0.44
   9   0   8    7.06    0.47
 -10   0  -8    3.32    0.32
  -5   1   8    0.73    0.20
  -4   1   8   52.53    1.66
  -4   1   8   55.67    1.37
  -3   1   8    0.75    0.16
  -3   1   8    0.86    0.24
   2  -1  -8    0.35    0.14
  -2   1   8    0.40    0.14
  -2   1   8    0.26    0.10
   1  -1  -8   31.43    1.17
   1  -1  -8   30.99    1.02
  -1   1   8   33.42    0.99
  -1   1   8   31.03    1.16
   0  -1  -8    6.65    0.36
   0  -1  -8    6.40    0.43
   0   1   8    6.94    0.32
   0   1   8    6.79    0.45
  -1  -1  -8    0.93    0.19
  -1  -1  -8    0.56    0.12
   1   1   8    0.65    0.16
  -2  -1  -8    1.95    0.27
  -2  -1  -8    1.80    0.19
  -2  -1  -8    1.71    0.14
   2   1   8    1.45    0.09
   2   1   8    1.38    0.11
   2   1   8    1.42    0.23
  -3  -1  -8    9.96    0.38
  -3  -1  -8    8.40    0.48
  -3  -1  -8    9.82    0.39
  -3  -1  -8    9.78    0.47
   3   1   8    8.91    0.49
   3   1   8    9.21    0.32
   3   1   8   10.19    0.35
  -4  -1  -8   18.63    0.75
  -4  -1  -8   19.35    0.67
  -4  -1  -8   20.52    0.65
   4   1   8   18.90    0.61
   4   1   8   19.80    0.60
   4   1   8   19.41    0.79
  -5  -1  -8   38.28    1.03
  -5  -1  -8   39.24    1.26
  -5  -1  -8   38.96    1.18
   5   1   8   38.42    1.10
  -6  -1  -8    2.55    0.18
  -6  -1  -8    2.41    0.24
   6   1   8    2.30    0.24
   6   1   8    2.47    0.19
  -7  -1  -8   22.83    0.88
  -7  -1  -8   23.99    0.87
  -7  -1  -8   23.25    0.79
   7   1   8   22.25    0.89
   7   1   8   22.44    0.76
  -8  -1  -8   41.84    1.30
   8   1   8   40.20    1.37
  -9  -1  -8    0.26    0.12
   9   1   8    0.12    0.10
 -10  -1  -8   10.90    0.60
  10   1   8   10.36    0.60
  -5   2   8   17.83    0.53
  -5   2   8   17.71    0.78
  -4   2   8   57.40    1.97
  -4   2   8   58.77    1.76
  -4   2   8   58.58    1.48
   3  -2  -8   11.08    0.60
  -3   2   8   10.63    0.59
  -3   2   8   11.00    0.33
  -3   2   8   11.15    0.51
   2  -2  -8   47.92    1.57
   2  -2  -8   47.60    1.44
  -2   2   8   48.88    1.41
  -2   2   8   46.76    1.55
   1  -2  -8  143.09    3.70
   1  -2  -8  140.02    3.83
   1  -2  -8  143.80    3.43
  -1   2   8  143.19    3.60
  -1   2   8  136.43    3.81
   0  -2  -8   58.12    1.79
   0  -2  -8   56.62    1.68
   0  -2  -8   56.70    1.45
   0   2   8   55.20    1.42
   0   2   8   60.44    1.75
   0   2   8   56.04    1.77
  -1  -2  -8   47.13    1.42
  -1  -2  -8   54.46    1.67
  -1  -2  -8   53.69    1.59
   1   2   8   54.73    1.37
   1   2   8   53.34    1.67
  -2  -2  -8  178.53    4.65
  -2  -2  -8  173.40    4.53
  -2  -2  -8  185.57    4.71
   2   2   8  179.15    4.70
   2   2   8  181.16    4.44
  -3  -2  -8  140.10    3.61
  -3  -2  -8  144.38    3.76
  -3  -2  -8  143.62    3.58
  -3  -2  -8  142.35    3.74
   3   2   8  133.98    3.53
  -4  -2  -8   35.32    1.05
  -4  -2  -8   34.53    1.06
  -4  -2  -8   34.27    1.15
  -4  -2  -8   34.97    1.16
   4   2   8   33.31    1.00
   4   2   8   32.51    1.15
  -5  -2  -8  100.48    2.70
  -5  -2  -8   96.77    2.60
  -5  -2  -8   95.47    2.44
  -5  -2  -8   95.29    2.60
   5   2   8   96.61    2.52
   5   2   8   95.74    2.69
  -6  -2  -8  133.46    3.35
  -6  -2  -8  126.41    3.46
  -6  -2  -8  135.58    3.48
  -6  -2  -8  131.58    3.52
   6   2   8  129.45    3.36
   6   2   8  129.46    3.52
  -7  -2  -8    4.80    0.30
  -7  -2  -8    4.83    0.34
  -7  -2  -8    4.69    0.34
  -7  -2  -8    4.53    0.34
   7   2   8    4.42    0.28
   7   2   8    4.54    0.35
  -8  -2  -8    7.83    0.44
  -8  -2  -8    8.13    0.48
   8   2   8    7.20    0.45
  -9  -2  -8   85.29    2.44
  -9  -2  -8   84.07    2.47
   9   2   8   81.46    2.43
 -10  -2  -8    0.32    0.14
  10   2   8    0.06    0.10
  -5   3   8   13.88    0.67
  -5   3   8   13.90    0.46
   4  -3  -8   11.91    0.64
  -4   3   8   11.53    0.56
  -4   3   8   11.56    0.38
   3  -3  -8   30.52    1.13
  -3   3   8   31.08    0.82
  -3   3   8   29.60    1.01
   2  -3  -8    0.14    0.09
   2  -3  -8    0.28    0.10
  -2   3   8    0.28    0.05
  -2   3   8    0.26    0.10
  -2   3   8    0.22    0.11
   1  -3  -8    2.66    0.14
   1  -3  -8    2.79    0.27
   1  -3  -8    3.56    0.29
  -1   3   8    2.87    0.20
  -1   3   8    3.09    0.28
  -1   3   8    2.75    0.13
   0  -3  -8   69.48    1.79
   0  -3  -8   68.65    2.05
   0  -3  -8   69.93    2.04
   0   3   8   70.24    1.74
   0   3   8   68.97    2.05
  -1  -3  -8    8.86    0.37
  -1  -3  -8    8.62    0.49
  -1  -3  -8    8.42    0.48
   1   3   8    8.95    0.31
   1   3   8    9.24    0.50
  -2  -3  -8    4.16    0.25
  -2  -3  -8    3.63    0.31
  -2  -3  -8    4.06    0.32
  -2  -3  -8    4.01    0.27
   2   3   8    3.54    0.31
   2   3   8    3.91    0.22
  -3  -3  -8   15.95    0.64
  -3  -3  -8   15.77    0.70
  -3  -3  -8   15.88    0.68
  -3  -3  -8   16.38    0.60
   3   3   8   16.34    0.70
   3   3   8   15.47    0.55
  -4  -3  -8   28.14    1.03
  -4  -3  -8   27.10    0.74
  -4  -3  -8   27.40    0.97
  -4  -3  -8   29.81    1.01
  -4  -3  -8   28.15    0.94
   4   3   8   28.69    0.88
   4   3   8   29.13    1.02
  -5  -3  -8   20.25    0.82
  -5  -3  -8   19.46    0.75
  -5  -3  -8   19.70    0.63
  -5  -3  -8   20.27    0.78
   5   3   8   20.13    0.79
   5   3   8   19.64    0.69
  -6  -3  -8    2.29    0.25
  -6  -3  -8    2.26    0.25
  -6  -3  -8    2.10    0.19
   6   3   8    2.15    0.20
   6   3   8    2.17    0.24
  -7  -3  -8   48.05    1.49
  -7  -3  -8   45.28    1.41
  -7  -3  -8   45.00    1.48
  -7  -3  -8   46.35    1.50
   7   3   8   47.23    1.46
   7   3   8   44.86    1.37
  -8  -3  -8    1.22    0.22
  -8  -3  -8    1.40    0.23
   8   3   8    0.97    0.19
  -9  -3  -8   12.23    0.64
  -9  -3  -8   13.02    0.66
   9   3   8   11.72    0.59
 -10  -3  -8   20.71    0.91
 -10  -3  -8   19.40    0.89
   5  -4  -8    4.29    0.40
  -5   4   8    4.49    0.36
  -5   4   8    4.59    0.23
   4  -4  -8   33.97    1.27
  -4   4   8   33.46    1.15
  -4   4   8   35.37    0.95
   3  -4  -8   -0.08    0.06
  -3   4   8    0.02    0.07
  -3   4   8    0.11    0.04
   2  -4  -8   22.43    0.87
   2  -4  -8   20.98    0.86
   2  -4  -8   21.42    0.66
  -2   4   8   21.66    0.62
  -2   4   8   21.63    0.75
   1  -4  -8   15.18    0.70
   1  -4  -8   15.45    0.68
   1  -4  -8   15.17    0.50
  -1   4   8   15.25    0.46
  -1   4   8   15.55    0.56
   0  -4  -8    5.04    0.25
   0  -4  -8    5.44    0.39
   0  -4  -8    5.06    0.35
   0   4   8    5.44    0.21
   0   4   8    5.44    0.36
  -1  -4  -8    4.34    0.32
  -1  -4  -8    4.17    0.35
  -1  -4  -8    4.15    0.25
   1   4   8    4.11    0.32
   1   4   8    4.24    0.20
  -2  -4  -8    2.99    0.28
  -2  -4  -8    3.53    0.32
  -2  -4  -8    2.75    0.24
  -2  -4  -8    2.86    0.23
   2   4   8    3.16    0.29
   2   4   8    3.07    0.19
  -3  -4  -8   19.62    0.74
  -3  -4  -8   17.87    0.79
  -3  -4  -8   17.87    0.68
  -3  -4  -8   18.50    0.75
   3   4   8   18.00    0.63
   3   4   8   18.34    0.76
  -4  -4  -8    5.38    0.34
  -4  -4  -8    5.14    0.34
  -4  -4  -8    5.29    0.23
  -4  -4  -8    4.89    0.38
  -4  -4  -8    5.73    0.37
   4   4   8    5.58    0.36
   4   4   8    4.87    0.29
  -5  -4  -8   40.14    1.24
  -5  -4  -8   37.61    1.25
  -5  -4  -8   35.34    1.26
  -5  -4  -8   35.62    1.29
  -5  -4  -8   38.44    1.13
   5   4   8   40.25    1.17
   5   4   8   39.49    1.25
  -6  -4  -8    6.80    0.38
  -6  -4  -8    6.41    0.43
  -6  -4  -8    6.45    0.44
  -6  -4  -8    7.09    0.44
   6   4   8    7.23    0.41
   6   4   8    7.25    0.37
  -7  -4  -8   11.73    0.60
  -7  -4  -8   13.00    0.62
  -7  -4  -8   11.43    0.56
  -7  -4  -8   12.20    0.64
   7   4   8   12.39    0.56
   7   4   8   11.79    0.52
  -8  -4  -8   70.15    2.09
  -8  -4  -8   65.38    2.05
   8   4   8   70.25    2.01
  -9  -4  -8    0.76    0.21
  -9  -4  -8    0.44    0.16
 -10  -4  -8    9.75    0.60
 -10  -4  -8    9.50    0.59
  -5   5   8   15.10    0.52
  -5   5   8   14.62    0.69
   4  -5  -8   45.04    1.54
  -4   5   8   45.75    1.23
  -4   5   8   43.74    1.42
   3  -5  -8   27.59    1.07
  -3   5   8   28.45    0.81
  -3   5   8   28.65    0.97
   2  -5  -8   43.39    1.46
   2  -5  -8   40.73    1.19
   2  -5  -8   41.68    1.39
  -2   5   8   42.11    1.27
  -2   5   8   41.80    1.13
   1  -5  -8  121.35    3.41
   1  -5  -8  120.67    3.28
   1  -5  -8  118.39    3.08
  -1   5   8  123.14    3.02
   0  -5  -8   46.16    1.44
   0  -5  -8   44.46    1.56
   0  -5  -8   44.71    1.29
   0   5   8   45.92    1.21
  -1  -5  -8   82.11    2.33
  -1  -5  -8   77.20    2.45
  -1  -5  -8   83.93    2.24
   1   5   8   84.69    2.34
   1   5   8   83.08    2.11
  -2  -5  -8  128.60    3.70
  -2  -5  -8  135.36    3.50
  -2  -5  -8  134.02    3.57
  -2  -5  -8  134.46    3.53
   2   5   8  134.21    3.37
   2   5   8  135.20    3.58
  -3  -5  -8  121.52    3.23
  -3  -5  -8  113.21    3.32
  -3  -5  -8  121.77    3.23
  -3  -5  -8  117.84    3.17
  -3  -5  -8  117.57    2.95
   3   5   8  120.95    3.24
   3   5   8  117.57    3.06
  -4  -5  -8   26.01    0.95
  -4  -5  -8   23.95    0.78
  -4  -5  -8   24.38    0.91
  -4  -5  -8   24.61    0.89
  -4  -5  -8   24.57    0.99
   4   5   8   25.70    0.92
   4   5   8   24.25    0.82
  -5  -5  -8   69.06    2.11
  -5  -5  -8   64.87    2.02
  -5  -5  -8   72.75    2.08
  -5  -5  -8   70.83    1.98
  -5  -5  -8   63.83    1.91
   5   5   8   70.32    1.99
   5   5   8   70.48    1.92
  -6  -5  -8   82.47    2.39
  -6  -5  -8   87.22    2.52
  -6  -5  -8   86.50    2.48
  -6  -5  -8   85.78    2.50
   6   5   8   86.09    2.39
   6   5   8   87.13    2.34
  -7  -5  -8    3.39    0.30
  -7  -5  -8    3.83    0.34
  -7  -5  -8    3.48    0.32
   7   5   8    3.52    0.28
  -8  -5  -8   16.65    0.78
  -8  -5  -8   17.80    0.78
  -9  -5  -8   48.75    1.65
  -9  -5  -8   49.72    1.65
 -10  -5  -8    1.57    0.29
 -10  -5  -8    1.47    0.28
  10   5   8    1.53    0.29
   4  -6  -8    9.09    0.70
  -4   6   8    9.05    0.37
   3  -6  -8   17.49    0.79
  -3   6   8   17.51    0.57
   2  -6  -8    0.12    0.10
   2  -6  -8    0.20    0.07
   2  -6  -8    0.10    0.10
  -2   6   8    0.16    0.06
   1  -6  -8    0.26    0.11
   1  -6  -8    0.42    0.16
   1  -6  -8    0.15    0.07
  -1   6   8    0.31    0.07
   0  -6  -8   25.78    0.94
   0  -6  -8   25.57    0.85
   0  -6  -8   24.83    1.08
   0   6   8   25.76    0.76
  -1  -6  -8    9.27    0.58
  -1  -6  -8    8.32    0.46
  -1  -6  -8    8.46    0.43
   1   6   8    9.01    0.36
   1   6   8    9.02    0.48
  -2  -6  -8    0.22    0.12
  -2  -6  -8    0.27    0.05
  -2  -6  -8    0.20    0.09
  -2  -6  -8    0.26    0.10
  -2  -6  -8    0.20    0.09
   2   6   8    0.16    0.07
   2   6   8    0.24    0.11
  -3  -6  -8    7.93    0.47
  -3  -6  -8    7.62    0.44
  -3  -6  -8    8.01    0.52
  -3  -6  -8    7.59    0.35
  -3  -6  -8    7.79    0.45
   3   6   8    8.19    0.38
   3   6   8    8.21    0.45
  -4  -6  -8   55.38    1.71
  -4  -6  -8   53.70    1.62
  -4  -6  -8   53.90    1.55
  -4  -6  -8   51.63    1.65
  -4  -6  -8   53.65    1.75
   4   6   8   52.40    1.54
   4   6   8   51.39    1.62
  -5  -6  -8    1.29    0.18
  -5  -6  -8    0.98    0.17
  -5  -6  -8    0.75    0.18
  -5  -6  -8    1.15    0.21
  -5  -6  -8    1.34    0.25
   5   6   8    1.00    0.16
   5   6   8    1.17    0.19
  -6  -6  -8    0.18    0.09
  -6  -6  -8   -0.04    0.07
  -6  -6  -8    0.14    0.10
  -6  -6  -8    0.12    0.08
  -6  -6  -8    0.06    0.09
   6   6   8    0.06    0.07
   6   6   8    0.69    0.14
  -7  -6  -8   63.23    1.96
  -7  -6  -8   62.34    1.91
  -7  -6  -8   63.71    1.95
  -8  -6  -8    1.33    0.25
  -8  -6  -8    2.26    0.27
  -9  -6  -8    9.18    0.58
  -9  -6  -8    9.32    0.56
 -10  -6  -8   32.39    1.27
 -10  -6  -8   32.92    1.27
  10   6   8   31.93    1.24
  -4   7   8   16.29    0.58
   3  -7  -8    0.17    0.12
  -3   7   8    0.08    0.05
   2  -7  -8   37.05    1.29
   2  -7  -8   35.84    1.42
  -2   7   8   36.88    1.06
   1  -7  -8    1.02    0.24
   1  -7  -8    1.03    0.16
   1  -7  -8    1.16    0.21
  -1   7   8    0.99    0.13
   0  -7  -8    2.40    0.22
   0  -7  -8    2.47    0.25
   0  -7  -8    2.41    0.32
   0   7   8    2.15    0.17
  -1  -7  -8   25.21    0.92
  -1  -7  -8   25.59    0.94
  -1  -7  -8   26.58    1.11
  -1  -7  -8   23.98    0.72
   1   7   8   26.37    0.80
  -2  -7  -8    8.58    0.49
  -2  -7  -8    8.59    0.47
  -2  -7  -8    8.33    0.56
  -2  -7  -8    8.16    0.46
  -2  -7  -8    9.00    0.38
   2   7   8    7.75    0.37
   2   7   8    8.51    0.46
  -3  -7  -8    7.04    0.44
  -3  -7  -8    6.11    0.39
  -3  -7  -8    5.97    0.42
  -3  -7  -8    7.23    0.50
  -3  -7  -8    6.56    0.35
   3   7   8    6.23    0.39
   3   7   8    6.50    0.35
  -4  -7  -8    4.56    0.37
  -4  -7  -8    4.70    0.31
  -4  -7  -8    5.13    0.42
  -4  -7  -8    4.78    0.38
  -4  -7  -8    4.45    0.33
   4   7   8    4.44    0.31
   4   7   8    4.50    0.33
  -5  -7  -8   40.75    1.40
  -5  -7  -8   43.71    1.45
  -5  -7  -8   40.38    1.43
  -5  -7  -8   39.97    1.30
  -5  -7  -8   40.58    1.27
   5   7   8   39.74    1.26
   5   7   8   39.24    1.28
  -6  -7  -8    6.88    0.47
  -6  -7  -8    7.70    0.49
  -6  -7  -8    7.77    0.45
  -7  -7  -8    1.81    0.27
  -7  -7  -8    1.46    0.24
  -7  -7  -8    1.33    0.25
  -8  -7  -8   44.75    1.51
  -8  -7  -8   43.93    1.52
  -9  -7  -8    1.16    0.25
  -9  -7  -8    0.78    0.19
   9   7   8    0.63    0.18
  -3   8   8   23.97    0.78
   2  -8  -8   37.30    1.47
   2  -8  -8   35.88    1.30
  -2   8   8   36.91    1.09
   1  -8  -8   84.98    2.46
  -1   8   8   83.82    2.24
   0  -8  -8   26.38    0.99
   0  -8  -8   26.34    0.76
   0  -8  -8   26.83    0.97
   0   8   8   27.07    0.85
  -1  -8  -8   58.87    1.83
  -1  -8  -8   59.63    1.81
  -1  -8  -8   62.48    1.68
   1   8   8   60.46    1.68
  -2  -8  -8   68.55    2.11
  -2  -8  -8   73.03    1.97
  -2  -8  -8   69.66    2.08
  -2  -8  -8   69.07    2.05
   2   8   8   69.23    2.05
   2   8   8   71.05    1.94
  -3  -8  -8   49.26    1.60
  -3  -8  -8   51.72    1.50
  -3  -8  -8   47.84    1.53
  -3  -8  -8   46.95    1.63
   3   8   8   48.59    1.45
   3   8   8   49.59    1.54
  -4  -8  -8   24.17    1.00
  -4  -8  -8   24.88    1.06
  -4  -8  -8   23.90    1.02
  -4  -8  -8   25.29    0.93
  -4  -8  -8   27.13    0.94
   4   8   8   25.48    0.94
   4   8   8   24.68    0.89
  -5  -8  -8   39.38    1.43
  -5  -8  -8   39.09    1.40
  -5  -8  -8   41.45    1.33
  -6  -8  -8   26.03    0.99
  -6  -8  -8   27.68    1.08
  -6  -8  -8   25.38    1.05
  -7  -8  -8    6.42    0.47
  -7  -8  -8    6.39    0.45
  -7  -8  -8    6.47    0.44
  -8  -8  -8    7.01    0.50
  -8  -8  -8    6.05    0.45
  -9  -8  -8   21.16    0.92
  -9  -8  -8   20.08    0.92
   9   8   8   19.23    0.89
  -2   9   8    0.22    0.09
   1  -9  -8    3.69    0.34
  -1   9   8    4.08    0.26
   0  -9  -8    5.11    0.29
   0  -9  -8    4.89    0.38
   0   9   8    5.03    0.30
  -1  -9  -8   24.60    0.95
  -1  -9  -8   24.46    0.98
  -1  -9  -8   25.71    0.87
   1   9   8   24.93    0.85
  -2  -9  -8    0.20    0.09
  -2  -9  -8    0.10    0.10
  -2  -9  -8    0.15    0.10
  -2  -9  -8    0.04    0.08
   2   9   8   -0.03    0.07
   2   9   8    0.09    0.08
  -3  -9  -8    0.54    0.14
  -3  -9  -8    0.87    0.22
  -3  -9  -8    0.68    0.17
  -4  -9  -8   61.39    1.85
  -4  -9  -8   61.04    1.96
  -5  -9  -8    0.77    0.20
  -5  -9  -8    0.86    0.22
  -5  -9  -8    0.38    0.14
  -6  -9  -8    1.59    0.29
  -6  -9  -8    2.14    0.28
  -6  -9  -8    1.57    0.25
  -7  -9  -8   77.90    2.34
  -7  -9  -8   72.64    2.25
  -8  -9  -8    2.30    0.35
  -8  -9  -8    1.68    0.28
   0 -10  -8    0.89    0.20
   0 -10  -8    1.25    0.17
  -1 -10  -8   33.86    1.19
  -1 -10  -8   32.91    1.13
  -2 -10  -8    7.80    0.46
  -3 -10  -8    6.04    0.41
  -3 -10  -8    5.94    0.46
  -4 -10  -8    5.76    0.47
  -4 -10  -8    5.94    0.42
  -5 -10  -8   33.06    1.27
  -5 -10  -8   31.82    1.18
  -6 -10  -8    5.17    0.45
  -6 -10  -8    5.92    0.47
  -6 -10  -8    5.45    0.42
  -7 -10  -8    0.16    0.12
  -7 -10  -8    0.57    0.20
  -3 -11  -8   10.65    0.64
  -3 -11  -8    9.88    0.58
  -4 -11  -8   11.32    0.68
  -1  -4   9   13.25    0.44
  -1  -4   9   14.26    0.50
   0  -4   9   29.14    0.87
   0  -4   9   28.84    0.83
   1  -4   9   11.05    0.44
   1  -4   9   11.88    0.41
   2  -4   9   18.58    0.63
   2  -4   9   17.86    0.58
   3  -4   9    5.60    0.27
   3  -4   9    5.28    0.29
   4  -4   9    7.03    0.43
   4  -4   9    7.01    0.35
   4  -4   9    7.18    0.32
   5  -4   9   24.29    0.91
   5  -4   9   23.01    0.80
   5  -4   9   22.83    0.75
   6  -4   9    0.99    0.16
   6  -4   9    0.76    0.13
  -2  -3   9    3.38    0.16
  -1  -3   9   26.67    0.77
  -1  -3   9   26.40    0.73
   0   3  -9   48.95    1.56
   0  -3   9   48.58    1.31
   0  -3   9   48.85    1.27
  -1   3  -9   33.43    1.19
   1  -3   9   33.97    0.93
   1  -3   9   34.02    0.96
  -2   3  -9   20.49    0.85
   2  -3   9   21.08    0.63
   2  -3   9   21.09    0.66
  -3   3  -9   36.60    1.29
   3  -3   9   36.91    1.07
   3  -3   9   37.40    1.03
   3  -3   9   36.25    1.20
  -4   3  -9   96.72    2.80
   4  -3   9   96.02    2.71
   4  -3   9   99.22    2.55
   4  -3   9   99.01    2.51
   5  -3   9   10.70    0.45
   5  -3   9   11.28    0.57
   5  -3   9   11.48    0.43
   6  -3   9   15.58    0.60
   6  -3   9   16.67    0.74
   6  -3   9   15.33    0.56
  -7   3  -9   97.60    2.48
   7  -3   9   93.71    2.52
   7  -3   9   94.47    2.58
  -3  -2   9    0.06    0.11
  -2  -2   9   26.84    1.09
   1   2  -9    0.31    0.11
   0   2  -9   12.62    0.40
   0   2  -9   12.89    0.60
   0  -2   9   12.89    0.40
   0  -2   9   13.39    0.39
  -1   2  -9   43.32    1.42
  -1   2  -9   44.01    1.20
   1  -2   9   44.09    1.18
   1  -2   9   45.41    1.15
  -2   2  -9    0.24    0.07
  -2   2  -9    0.16    0.09
   2  -2   9    0.34    0.06
   2  -2   9    0.44    0.13
   2  -2   9    0.24    0.06
  -3   2  -9   23.62    0.76
  -3   2  -9   23.24    0.92
   3  -2   9   23.77    0.69
   3  -2   9   24.00    0.72
   3  -2   9   23.95    0.89
  -4   2  -9   11.76    0.59
  -4   2  -9   11.82    0.48
   4  -2   9   11.74    0.57
   4  -2   9   10.84    0.42
   4  -2   9   11.23    0.41
  -5   2  -9    0.33    0.12
  -5   2  -9    0.38    0.10
   5  -2   9    0.54    0.10
   5  -2   9    0.47    0.09
   5  -2   9    0.47    0.15
  -6   2  -9   17.14    0.78
   6  -2   9   17.16    0.62
   6  -2   9   16.64    0.75
   6  -2   9   17.21    0.59
  -7   2  -9    0.97    0.12
  -7   2  -9    1.36    0.25
   7  -2   9    1.15    0.17
   7  -2   9    1.33    0.17
   7  -2   9    0.95    0.21
  -8   2  -9    0.23    0.09
  -3  -1   9   52.13    1.64
  -2  -1   9    0.83    0.19
   1   1  -9    6.99    0.40
   0   1  -9   20.69    0.80
   0  -1   9   21.35    0.56
  -1   1  -9    2.04    0.22
  -1   1  -9    1.88    0.12
   1  -1   9    2.08    0.11
   1  -1   9    1.95    0.22
   1  -1   9    1.97    0.11
  -2   1  -9    7.61    0.31
  -2   1  -9    7.74    0.44
   2  -1   9    8.12    0.28
   2  -1   9    7.79    0.45
   2  -1   9    7.99    0.28
  -3   1  -9    0.89    0.11
  -3   1  -9    1.69    0.20
   3  -1   9    0.98    0.18
   3  -1   9    1.06    0.10
   3  -1   9    1.18    0.10
  -4   1  -9    6.03    0.31
  -4   1  -9    6.20    0.40
   4  -1   9    6.78    0.42
   4  -1   9    6.33    0.27
   4  -1   9    6.08    0.27
  -5   1  -9   14.63    0.57
  -5   1  -9   14.90    0.68
   5  -1   9   14.68    0.52
   5  -1   9   14.20    0.67
   5  -1   9   14.56    0.50
  -6   1  -9    8.37    0.50
  -6   1  -9    8.33    0.42
   6  -1   9    8.11    0.35
   6  -1   9    8.19    0.49
   6  -1   9    7.80    0.37
  -7   1  -9    1.61    0.15
  -7   1  -9    1.15    0.19
  -7   1  -9    1.24    0.23
   7  -1   9    1.44    0.16
   7  -1   9    1.28    0.23
   7  -1   9    1.23    0.16
  -8   1  -9    8.52    0.53
  -8   1  -9    9.00    0.43
   8  -1   9    8.39    0.53
  -9   1  -9   16.44    0.69
  -4   0   9   21.80    0.89
  -3   0   9   34.37    1.17
  -2   0   9   13.04    0.60
   1   0  -9   49.76    1.49
  -1   0   9   46.96    1.58
   0   0  -9   81.29    2.23
   0   0  -9   76.86    2.32
   0   0   9   77.87    2.32
  -1   0  -9   49.81    1.59
  -1   0  -9   49.26    1.51
  -1   0  -9   49.58    1.30
   1   0   9   48.26    1.24
   1   0   9   50.51    1.23
   1   0   9   46.89    1.57
  -2   0  -9   46.90    1.46
  -2   0  -9   46.43    1.27
   2   0   9   47.16    1.21
   2   0   9   47.00    1.21
   2   0   9   46.34    1.51
  -3   0  -9   59.98    1.80
  -3   0  -9   60.26    1.63
   3   0   9   58.05    1.84
   3   0   9   59.85    1.56
   3   0   9   62.23    1.56
  -4   0  -9  102.32    2.67
  -4   0  -9  102.00    2.84
   4   0   9  102.73    2.59
   4   0   9  102.75    2.88
   4   0   9  100.63    2.59
  -5   0  -9   26.98    1.01
  -5   0  -9   27.78    0.91
   5   0   9   27.72    0.83
   5   0   9   27.79    1.04
   5   0   9   27.32    0.83
  -6   0  -9   28.59    1.06
  -6   0  -9   28.71    0.97
  -6   0  -9   28.18    0.79
   6   0   9   27.88    1.06
   6   0   9   28.72    0.87
  -7   0  -9  128.30    3.58
  -7   0  -9  133.70    3.51
  -7   0  -9  132.04    3.35
   7   0   9  128.84    3.60
   7   0   9  132.21    3.37
  -8   0  -9    1.28    0.23
  -8   0  -9    0.67    0.15
  -8   0  -9    1.20    0.16
   8   0   9    1.03    0.17
   8   0   9    1.07    0.22
  -9   0  -9    1.42    0.19
   9   0   9    0.94    0.22
  -4   1   9   10.90    0.57
  -3   1   9    5.20    0.36
   2  -1  -9   40.07    1.45
  -2   1   9   39.66    1.25
  -2   1   9   35.49    1.38
   1  -1  -9    0.20    0.12
   1  -1  -9    0.16    0.09
  -1   1   9    0.21    0.12
   0  -1  -9    8.85    0.46
   0  -1  -9    8.61    0.53
   0   1   9    8.83    0.53
  -1  -1  -9   54.21    1.45
  -1  -1  -9   55.43    1.72
  -1  -1  -9   52.73    1.62
   1   1   9   52.05    1.70
   1   1   9   53.09    1.32
   1   1   9   53.72    1.37
  -2  -1  -9    4.91    0.25
  -2  -1  -9    4.94    0.37
  -2  -1  -9    4.86    0.34
   2   1   9    4.95    0.38
   2   1   9    5.13    0.19
   2   1   9    5.07    0.21
  -3  -1  -9    9.54    0.53
  -3  -1  -9    9.73    0.50
  -3  -1  -9    9.89    0.41
   3   1   9    9.36    0.53
   3   1   9   10.16    0.34
   3   1   9   10.08    0.36
  -4  -1  -9    8.32    0.38
  -4  -1  -9    8.41    0.47
   4   1   9    7.54    0.31
   4   1   9    7.97    0.32
   4   1   9    7.65    0.48
  -5  -1  -9   16.39    0.62
  -5  -1  -9   15.88    0.70
   5   1   9   16.08    0.55
   5   1   9   15.12    0.71
  -6  -1  -9   11.56    0.59
  -6  -1  -9   11.82    0.53
  -6  -1  -9   11.95    0.40
   6   1   9   11.47    0.60
   6   1   9   12.29    0.47
  -7  -1  -9    0.37    0.13
  -7  -1  -9    0.09    0.09
  -7  -1  -9    0.11    0.06
   7   1   9    0.20    0.08
   7   1   9   -0.05    0.06
  -8  -1  -9   14.05    0.67
  -8  -1  -9   13.64    0.65
  -8  -1  -9   13.51    0.57
   8   1   9   12.42    0.66
   8   1   9   14.08    0.56
  -9  -1  -9    1.20    0.20
   9   1   9    1.70    0.29
 -10  -1  -9    8.25    0.51
  -4   2   9    0.90    0.08
  -4   2   9    0.71    0.18
   3  -2  -9   39.27    1.46
  -3   2   9   39.69    1.28
  -3   2   9   40.71    1.01
  -3   2   9   37.96    1.42
   2  -2  -9    0.78    0.21
  -2   2   9    0.81    0.18
  -2   2   9    0.54    0.18
   1  -2  -9    0.48    0.16
   1  -2  -9    0.39    0.11
  -1   2   9    0.36    0.15
   0  -2  -9   10.80    0.32
   0  -2  -9   10.97    0.53
   0  -2  -9   10.69    0.61
   0   2   9   10.46    0.33
   0   2   9   10.55    0.60
  -1  -2  -9    2.68    0.18
  -1  -2  -9    2.93    0.30
  -1  -2  -9    2.72    0.25
   1   2   9    2.91    0.17
   1   2   9    2.65    0.29
  -2  -2  -9    1.33    0.15
  -2  -2  -9    1.35    0.19
  -2  -2  -9    2.14    0.29
   2   2   9    1.41    0.24
   2   2   9    1.39    0.13
  -3  -2  -9    7.69    0.46
  -3  -2  -9    7.37    0.37
  -3  -2  -9    6.70    0.42
   3   2   9    6.72    0.31
   3   2   9    7.31    0.46
  -4  -2  -9    6.08    0.32
  -4  -2  -9    6.32    0.41
  -4  -2  -9    6.34    0.41
  -4  -2  -9    6.12    0.34
   4   2   9    5.89    0.29
   4   2   9    6.33    0.42
  -5  -2  -9    4.39    0.34
  -5  -2  -9    4.39    0.30
  -5  -2  -9    4.50    0.29
   5   2   9    4.37    0.35
   5   2   9    4.30    0.25
  -6  -2  -9   20.25    0.83
  -6  -2  -9   20.79    0.86
  -6  -2  -9   20.33    0.79
  -6  -2  -9   20.63    0.64
   6   2   9   21.14    0.71
   6   2   9   20.14    0.84
  -7  -2  -9    0.07    0.10
  -7  -2  -9    0.00    0.06
  -7  -2  -9    0.11    0.09
   7   2   9    0.16    0.08
   7   2   9    0.21    0.11
  -8  -2  -9    8.18    0.49
  -8  -2  -9    7.83    0.42
  -8  -2  -9    7.88    0.49
   8   2   9    8.84    0.51
   8   2   9    7.97    0.44
  -9  -2  -9   30.51    1.08
   9   2   9   29.53    1.13
 -10  -2  -9    1.15    0.23
  10   2   9    0.98    0.22
   4  -3  -9   22.63    1.02
  -4   3   9   21.11    0.60
  -4   3   9   18.62    0.91
  -4   3   9   20.03    0.82
   3  -3  -9   44.41    1.57
  -3   3   9   43.48    1.38
  -3   3   9   44.42    1.55
  -3   3   9   45.17    1.16
   2  -3  -9   31.99    1.21
  -2   3   9   31.63    0.84
  -2   3   9   31.30    1.19
   1  -3  -9   52.07    1.35
   1  -3  -9   53.63    1.64
   1  -3  -9   52.89    1.73
  -1   3   9   52.84    1.72
  -1   3   9   51.77    1.33
   0  -3  -9  102.78    2.93
   0  -3  -9  101.41    2.57
   0  -3  -9  103.74    2.87
   0   3   9  102.73    2.54
   0   3   9  102.12    2.92
  -1  -3  -9   45.72    1.29
  -1  -3  -9   46.75    1.55
  -1  -3  -9   45.53    1.49
   1   3   9   45.66    1.22
   1   3   9   46.39    1.55
  -2  -3  -9   62.80    1.93
  -2  -3  -9   65.16    1.95
  -2  -3  -9   61.12    1.77
   2   3   9   62.73    1.94
   2   3   9   63.51    1.69
  -3  -3  -9   51.68    1.68
  -3  -3  -9   53.08    1.57
  -3  -3  -9   52.96    1.52
  -3  -3  -9   54.25    1.66
   3   3   9   52.43    1.67
   3   3   9   52.64    1.46
  -4  -3  -9  131.46    3.38
  -4  -3  -9  122.87    3.42
  -4  -3  -9  132.70    3.50
  -4  -3  -9  129.43    3.54
   4   3   9  124.51    3.30
   4   3   9  130.74    3.51
  -5  -3  -9   19.25    0.74
  -5  -3  -9   19.28    0.77
  -5  -3  -9   19.80    0.84
  -5  -3  -9   18.58    0.53
   5   3   9   17.89    0.67
   5   3   9   20.48    0.81
  -6  -3  -9    7.67    0.45
  -6  -3  -9    8.16    0.51
  -6  -3  -9    8.49    0.36
  -6  -3  -9    9.53    0.50
   6   3   9   10.34    0.44
   6   3   9    8.56    0.49
  -7  -3  -9  135.99    3.62
  -7  -3  -9  134.77    3.57
  -7  -3  -9  133.19    3.43
  -7  -3  -9  129.48    3.62
   7   3   9  123.60    3.43
   7   3   9  133.75    3.58
  -8  -3  -9    2.57    0.34
  -8  -3  -9    2.49    0.25
  -8  -3  -9    2.66    0.29
   8   3   9    2.54    0.28
  -9  -3  -9    0.16    0.11
  -9  -3  -9    0.34    0.15
   9   3   9    0.05    0.08
 -10  -3  -9   67.64    2.16
 -10  -3  -9   72.88    2.43
  10   3   9   71.02    2.15
   4  -4  -9   10.88    0.65
  -4   4   9   10.06    0.53
  -4   4   9   10.89    0.38
   3  -4  -9    9.91    0.60
  -3   4   9   10.40    0.35
  -3   4   9    9.85    0.49
   2  -4  -9   39.51    1.40
  -2   4   9   40.81    1.06
  -2   4   9   38.31    1.38
   1  -4  -9    0.29    0.12
   1  -4  -9    0.25    0.06
   1  -4  -9    0.40    0.15
  -1   4   9    0.43    0.07
  -1   4   9    0.24    0.12
   0  -4  -9    1.14    0.11
   0  -4  -9    0.86    0.20
   0  -4  -9    0.89    0.19
   0   4   9    1.03    0.21
   0   4   9    0.91    0.09
  -1  -4  -9   29.05    1.10
  -1  -4  -9   31.53    1.16
  -1  -4  -9   30.11    0.93
   1   4   9   30.10    1.11
   1   4   9   30.40    0.86
  -2  -4  -9   11.81    0.63
  -2  -4  -9   11.50    0.60
  -2  -4  -9   11.29    0.51
   2   4   9   11.45    0.60
   2   4   9   12.01    0.44
  -3  -4  -9    3.20    0.30
  -3  -4  -9    3.35    0.33
  -3  -4  -9    3.53    0.28
  -3  -4  -9    3.76    0.27
   3   4   9    3.74    0.33
   3   4   9    3.81    0.24
  -4  -4  -9    9.22    0.49
  -4  -4  -9    9.00    0.48
  -4  -4  -9    8.16    0.53
  -4  -4  -9    8.75    0.46
   4   4   9    9.55    0.51
   4   4   9    9.03    0.40
  -5  -4  -9   38.51    1.28
  -5  -4  -9   38.91    1.39
  -5  -4  -9   37.90    1.07
  -5  -4  -9   38.69    1.32
  -5  -4  -9   41.41    1.31
   5   4   9   40.01    1.20
   5   4   9   40.56    1.32
  -6  -4  -9    2.08    0.27
  -6  -4  -9    2.13    0.26
  -6  -4  -9    2.18    0.18
  -6  -4  -9    1.93    0.24
   6   4   9    2.27    0.25
   6   4   9    2.58    0.22
  -7  -4  -9    0.45    0.15
  -7  -4  -9    0.73    0.18
  -7  -4  -9    0.33    0.15
  -7  -4  -9    0.66    0.14
   7   4   9    0.22    0.10
   7   4   9    0.49    0.14
  -8  -4  -9   28.69    1.07
  -8  -4  -9   26.20    1.00
   8   4   9   28.00    1.02
  -9  -4  -9    2.07    0.30
  -9  -4  -9    1.55    0.25
   9   4   9    1.97    0.24
 -10  -4  -9   10.24    0.61
 -10  -4  -9    9.28    0.58
  -4   5   9    8.06    0.47
  -4   5   9    8.86    0.35
   3  -5  -9   24.03    1.01
  -3   5   9   24.41    0.72
  -3   5   9   24.25    0.89
   2  -5  -9    2.95    0.31
  -2   5   9    2.86    0.17
   1  -5  -9    9.42    0.39
   1  -5  -9   10.84    0.61
   1  -5  -9    9.85    0.55
  -1   5   9    9.93    0.56
  -1   5   9   10.01    0.36
   0  -5  -9    4.04    0.34
   0  -5  -9    4.28    0.25
   0  -5  -9    4.42    0.39
   0   5   9    4.33    0.21
   0   5   9    4.12    0.34
  -1  -5  -9    6.75    0.43
  -1  -5  -9    5.91    0.46
  -1  -5  -9    6.37    0.34
   1   5   9    6.79    0.29
   1   5   9    6.35    0.42
  -2  -5  -9    4.22    0.39
  -2  -5  -9    4.68    0.36
  -2  -5  -9    4.59    0.31
   2   5   9    4.68    0.25
   2   5   9    4.59    0.36
  -3  -5  -9    6.83    0.40
  -3  -5  -9    6.53    0.48
  -3  -5  -9    7.37    0.44
  -3  -5  -9    7.01    0.44
   3   5   9    7.71    0.46
   3   5   9    7.10    0.35
  -4  -5  -9    1.46    0.23
  -4  -5  -9    1.21    0.20
  -4  -5  -9    1.31    0.21
  -4  -5  -9    1.25    0.26
  -4  -5  -9    1.42    0.10
   4   5   9    1.33    0.18
   4   5   9    1.27    0.23
  -5  -5  -9    0.11    0.10
  -5  -5  -9    0.17    0.07
  -5  -5  -9    0.22    0.13
  -5  -5  -9    0.12    0.09
  -5  -5  -9    0.09    0.10
   5   5   9    0.14    0.09
   5   5   9    0.08    0.07
  -6  -5  -9   28.11    0.99
  -6  -5  -9   29.80    1.11
  -6  -5  -9   31.74    1.18
  -6  -5  -9   31.39    1.14
   6   5   9   30.95    1.07
   6   5   9   30.78    1.00
  -7  -5  -9    0.04    0.09
  -7  -5  -9    0.43    0.14
  -7  -5  -9   -0.01    0.07
  -7  -5  -9   -0.05    0.09
   7   5   9    0.00    0.06
   7   5   9   -0.01    0.07
  -8  -5  -9    5.26    0.39
  -8  -5  -9    5.55    0.43
   8   5   9    5.56    0.37
  -9  -5  -9   36.43    1.32
  -9  -5  -9   35.63    1.30
 -10  -5  -9    1.32    0.27
   3  -6  -9   29.79    1.20
  -3   6   9   29.52    0.88
   2  -6  -9   26.96    1.06
  -2   6   9   26.71    0.80
   1  -6  -9   50.87    1.78
   1  -6  -9   51.35    1.66
   1  -6  -9   51.46    1.63
  -1   6   9   52.97    1.40
   0  -6  -9   89.72    2.57
   0  -6  -9   87.22    2.72
   0  -6  -9   85.96    2.38
   0   6   9   90.10    2.30
   0   6   9   91.35    2.57
  -1  -6  -9   39.10    1.50
  -1  -6  -9   40.97    1.36
  -1  -6  -9   40.59    1.26
   1   6   9   41.07    1.15
   1   6   9   40.67    1.36
  -2  -6  -9   55.41    1.64
  -2  -6  -9   53.18    1.68
  -2  -6  -9   53.75    1.84
   2   6   9   52.37    1.68
   2   6   9   53.33    1.49
  -3  -6  -9   45.64    1.60
  -3  -6  -9   46.82    1.48
  -3  -6  -9   41.08    1.43
  -3  -6  -9   43.56    1.42
   3   6   9   47.92    1.50
   3   6   9   42.56    1.30
  -4  -6  -9  109.63    3.13
  -4  -6  -9  105.07    2.88
  -4  -6  -9  117.88    3.18
  -4  -6  -9  116.20    3.12
  -4  -6  -9  115.33    3.27
   4   6   9  115.86    3.13
   4   6   9  111.92    2.99
  -5  -6  -9   18.95    0.85
  -5  -6  -9   22.19    0.95
  -5  -6  -9   19.08    0.73
  -5  -6  -9   22.69    0.90
  -5  -6  -9   21.22    0.81
   5   6   9   21.76    0.77
   5   6   9   22.15    0.84
  -6  -6  -9    9.67    0.49
  -6  -6  -9    9.31    0.48
  -6  -6  -9    9.69    0.58
  -6  -6  -9   10.48    0.58
   6   6   9    9.66    0.49
   6   6   9    9.88    0.47
  -7  -6  -9   76.28    2.30
  -7  -6  -9   74.04    2.19
  -7  -6  -9   73.60    2.25
   7   6   9   75.49    2.15
  -8  -6  -9    4.50    0.37
  -8  -6  -9    4.47    0.39
  -9  -6  -9    0.12    0.13
  -9  -6  -9   -0.01    0.09
 -10  -6  -9   41.49    1.50
 -10  -6  -9   41.79    1.49
  -3   7   9    6.52    0.31
   2  -7  -9   11.07    0.85
   2  -7  -9   13.60    0.69
  -2   7   9   13.95    0.49
   1  -7  -9    2.37    0.27
   1  -7  -9    2.45    0.34
  -1   7   9    2.57    0.18
   0  -7  -9    0.52    0.16
   0  -7  -9    0.36    0.11
   0  -7  -9    0.41    0.17
   0   7   9    0.36    0.09
  -1  -7  -9   22.91    0.91
  -1  -7  -9   23.95    1.07
  -1  -7  -9   22.77    0.86
   1   7   9   23.57    0.76
   1   7   9   22.54    0.91
  -2  -7  -9   36.39    1.39
  -2  -7  -9   33.74    1.20
  -2  -7  -9   35.84    1.23
  -2  -7  -9   34.71    1.21
   2   7   9   35.39    1.07
   2   7   9   35.41    1.23
  -3  -7  -9    1.58    0.26
  -3  -7  -9    1.91    0.15
  -3  -7  -9    1.84    0.24
  -3  -7  -9    1.82    0.26
  -3  -7  -9    1.64    0.28
   3   7   9    1.77    0.25
   3   7   9    2.16    0.20
  -4  -7  -9    9.57    0.56
  -4  -7  -9    8.79    0.42
  -4  -7  -9    8.89    0.54
  -4  -7  -9    9.24    0.59
  -4  -7  -9    8.88    0.50
   4   7   9    9.51    0.52
   4   7   9    9.26    0.46
  -5  -7  -9   45.87    1.62
  -5  -7  -9   50.50    1.55
  -5  -7  -9   50.92    1.72
  -5  -7  -9   49.60    1.51
  -5  -7  -9   53.04    1.69
   5   7   9   50.88    1.57
   5   7   9   50.10    1.50
  -6  -7  -9    0.30    0.10
  -6  -7  -9    0.04    0.07
  -6  -7  -9    0.05    0.11
  -6  -7  -9    0.08    0.10
  -6  -7  -9    0.38    0.15
   6   7   9    0.18    0.11
  -7  -7  -9    0.87    0.22
  -7  -7  -9    0.75    0.18
  -7  -7  -9    1.05    0.23
  -8  -7  -9   42.58    1.44
  -8  -7  -9   42.96    1.51
  -9  -7  -9    3.41    0.38
  -9  -7  -9    3.62    0.35
   2  -8  -9    1.99    0.38
  -2   8   9    2.55    0.20
   1  -8  -9   25.28    1.16
   1  -8  -9   23.52    0.98
  -1   8   9   23.39    0.78
   0  -8  -9    0.54    0.21
   0  -8  -9    0.70    0.18
  -1  -8  -9    0.87    0.24
  -1  -8  -9    0.74    0.17
  -1  -8  -9    0.75    0.18
   1   8   9    0.52    0.15
   1   8   9    1.28    0.17
  -2  -8  -9   13.71    0.77
  -2  -8  -9   12.24    0.45
  -2  -8  -9   12.08    0.63
  -2  -8  -9   12.48    0.62
   2   8   9   11.88    0.61
   2   8   9   12.48    0.52
  -3  -8  -9   11.13    0.57
  -3  -8  -9   10.72    0.59
  -3  -8  -9   10.14    0.45
  -3  -8  -9    9.91    0.59
  -3  -8  -9   10.96    0.68
   3   8   9   10.93    0.57
   3   8   9    9.99    0.48
  -4  -8  -9    5.01    0.42
  -4  -8  -9    4.91    0.37
  -4  -8  -9    5.78    0.45
  -4  -8  -9    5.45    0.34
  -4  -8  -9    5.17    0.45
   4   8   9    5.27    0.35
   4   8   9    5.24    0.39
  -5  -8  -9    0.38    0.15
  -5  -8  -9    0.20    0.10
  -5  -8  -9    0.07    0.10
  -5  -8  -9    0.32    0.16
  -5  -8  -9    0.39    0.16
  -6  -8  -9   35.50    1.35
  -6  -8  -9   36.83    1.35
  -6  -8  -9   37.53    1.25
  -7  -8  -9    3.79    0.36
  -7  -8  -9    2.98    0.35
  -7  -8  -9    3.22    0.31
  -8  -8  -9    0.80    0.20
  -8  -8  -9    1.00    0.23
  -9  -8  -9   25.51    1.04
  -9  -8  -9   26.45    1.10
   1  -9  -9   41.48    1.62
  -1   9   9   38.37    1.20
   0  -9  -9   45.72    1.71
   0  -9  -9   42.75    1.48
   0   9   9   42.42    1.30
  -1  -9  -9   33.13    0.95
  -1  -9  -9   33.67    1.40
  -1  -9  -9   33.00    1.21
   1   9   9   34.01    1.07
  -2  -9  -9   49.05    1.60
  -2  -9  -9   45.63    1.73
  -2  -9  -9   50.43    1.43
  -2  -9  -9   49.26    1.79
   2   9   9   49.02    1.46
   2   9   9   49.03    1.60
  -3  -9  -9   23.07    1.06
  -3  -9  -9   20.63    0.96
  -3  -9  -9   23.22    0.92
  -3  -9  -9   22.31    0.81
  -3  -9  -9   22.01    0.96
   3   9   9   22.74    0.83
   3   9   9   23.26    0.92
  -4  -9  -9   42.18    1.52
  -4  -9  -9   43.19    1.60
  -4  -9  -9   44.18    1.38
  -5  -9  -9   14.52    0.77
  -5  -9  -9   14.71    0.79
  -5  -9  -9   14.76    0.66
  -6  -9  -9    5.16    0.45
  -6  -9  -9    5.35    0.45
  -6  -9  -9    5.90    0.40
  -7  -9  -9   33.54    1.21
  -7  -9  -9   31.34    1.26
  -7  -9  -9   35.29    1.31
  -8  -9  -9    0.13    0.11
  -8  -9  -9    0.08    0.14
  -1 -10  -9    4.98    0.40
  -1 -10  -9    4.76    0.28
   1  10   9    4.81    0.35
  -2 -10  -9   34.40    1.13
  -2 -10  -9   36.04    1.27
   2  10   9   33.86    1.25
  -3 -10  -9   -0.04    0.06
  -3 -10  -9    0.07    0.12
  -4 -10  -9    0.11    0.09
  -4 -10  -9    0.26    0.15
  -4 -10  -9    0.02    0.12
  -5 -10  -9   65.43    2.10
  -5 -10  -9   60.92    2.10
  -5 -10  -9   62.34    1.92
  -6 -10  -9    0.66    0.18
  -6 -10  -9    1.11    0.27
  -6 -10  -9    0.86    0.22
   0   3 -10   10.45    0.58
   0  -3  10   11.01    0.39
   0  -3  10   10.98    0.36
  -1   3 -10   17.14    0.78
   1  -3  10   16.71    0.52
   1  -3  10   16.97    0.56
  -2   3 -10   13.07    0.68
   2  -3  10   13.74    0.49
   2  -3  10   14.04    0.46
  -3   3 -10   15.89    0.78
   3  -3  10   17.05    0.59
   3  -3  10   17.78    0.56
  -4   3 -10    1.20    0.25
   4  -3  10    0.82    0.12
   4  -3  10    0.63    0.11
   4  -3  10    0.51    0.15
   5  -3  10    7.57    0.34
   5  -3  10    7.74    0.38
   5  -3  10    7.38    0.47
   6  -3  10   17.56    0.66
   6  -3  10   16.55    0.60
  -1  -2  10   10.71    0.35
   0   2 -10   37.18    1.30
   0  -2  10   38.43    1.00
   0  -2  10   39.12    1.03
  -1   2 -10   28.49    1.09
   1  -2  10   30.40    0.84
   1  -2  10   30.41    0.82
  -2   2 -10   57.95    1.82
   2  -2  10   57.69    1.53
   2  -2  10   58.29    1.51
  -3   2 -10   20.38    0.87
   3  -2  10   20.52    0.63
   3  -2  10   21.15    0.66
   3  -2  10   20.90    0.84
  -4   2 -10   22.58    0.95
   4  -2  10   22.17    0.73
   4  -2  10   23.59    0.92
   4  -2  10   23.16    0.70
  -5   2 -10   81.22    2.44
   5  -2  10   80.01    2.13
   5  -2  10   82.09    2.18
   5  -2  10   82.59    2.41
  -6   2 -10   13.33    0.71
   6  -2  10   14.97    0.71
   6  -2  10   14.00    0.52
   6  -2  10   13.53    0.55
  -7   2 -10   10.32    0.62
   7  -2  10   10.13    0.44
   7  -2  10   10.03    0.47
   0   1 -10    0.23    0.10
   0  -1  10    0.14    0.03
  -1   1 -10   24.41    0.94
  -1   1 -10   24.00    0.72
   1  -1  10   25.93    0.99
   1  -1  10   25.84    0.68
   1  -1  10   25.52    0.69
  -2   1 -10   31.52    0.98
  -2   1 -10   31.25    1.13
   2  -1  10   31.90    0.88
   2  -1  10   32.02    0.87
   2  -1  10   33.23    1.17
  -3   1 -10    0.28    0.12
   3  -1  10    0.13    0.11
   3  -1  10    0.22    0.06
   3  -1  10    0.34    0.07
  -4   1 -10   18.63    0.81
   4  -1  10   18.14    0.58
   4  -1  10   18.13    0.80
   4  -1  10   18.50    0.60
  -5   1 -10    4.22    0.36
   5  -1  10    4.04    0.24
   5  -1  10    4.16    0.23
   5  -1  10    4.35    0.37
  -6   1 -10    0.34    0.13
   6  -1  10    0.11    0.06
   6  -1  10    0.18    0.12
   6  -1  10    0.10    0.06
  -7   1 -10    3.65    0.35
   7  -1  10    3.32    0.25
   7  -1  10    3.70    0.35
   7  -1  10    3.79    0.24
  -8   1 -10    2.26    0.29
  -8   1 -10    1.95    0.17
   8  -1  10    2.13    0.20
   1   0 -10    7.04    0.57
   0   0 -10    1.32    0.19
   0   0 -10    0.89    0.20
   0   0  10    1.14    0.22
  -1   0 -10    6.39    0.27
  -1   0 -10    6.45    0.45
  -1   0 -10    6.21    0.40
   1   0  10    7.24    0.47
   1   0  10    6.21    0.22
   1   0  10    6.28    0.21
  -2   0 -10   15.24    0.52
  -2   0 -10   14.78    0.68
   2   0  10   15.84    0.47
   2   0  10   15.47    0.73
   2   0  10   15.62    0.46
  -3   0 -10   12.61    0.62
  -3   0 -10   12.84    0.49
   3   0  10   12.94    0.43
   3   0  10   13.12    0.43
   3   0  10   13.15    0.66
  -4   0 -10   11.96    0.61
  -4   0 -10   11.39    0.48
   4   0  10   11.36    0.42
   4   0  10   11.24    0.41
   4   0  10   11.78    0.62
  -5   0 -10   13.00    0.66
  -5   0 -10   13.32    0.55
   5   0  10   12.52    0.48
   5   0  10   14.11    0.69
   5   0  10   12.77    0.47
  -6   0 -10   13.93    0.69
  -6   0 -10   13.19    0.59
   6   0  10   13.48    0.51
   6   0  10   13.23    0.69
  -7   0 -10   16.19    0.50
  -7   0 -10   16.96    0.80
   7   0  10   16.61    0.80
   7   0  10   17.96    0.63
  -8   0 -10    0.29    0.13
  -8   0 -10    0.40    0.10
   8   0  10    0.56    0.13
   8   0  10    0.53    0.18
  -9   0 -10    9.02    0.45
   1  -1 -10   28.82    1.17
   1  -1 -10   29.73    1.04
  -1   1  10   28.73    1.16
   0  -1 -10   57.88    1.87
   0  -1 -10   59.61    1.76
   0   1  10   55.15    1.85
  -1  -1 -10   55.23    1.77
  -1  -1 -10   53.92    1.66
  -1  -1 -10   51.12    1.42
   1   1  10   54.26    1.34
   1   1  10   52.56    1.36
   1   1  10   54.08    1.76
  -2  -1 -10   86.22    2.21
  -2  -1 -10   80.49    2.45
  -2  -1 -10   82.38    2.39
   2   1  10   82.94    2.08
   2   1  10   84.06    2.10
   2   1  10   80.56    2.45
  -3  -1 -10   54.84    1.74
  -3  -1 -10   53.19    1.67
  -3  -1 -10   52.34    1.50
   3   1  10   53.87    1.41
   3   1  10   50.96    1.71
   3   1  10   52.62    1.39
  -4  -1 -10   43.91    1.44
  -4  -1 -10   42.41    1.27
   4   1  10   41.06    1.45
   4   1  10   43.60    1.18
   4   1  10   41.75    1.18
  -5  -1 -10  127.14    3.53
  -5  -1 -10  128.56    3.37
   5   1  10  131.45    3.26
   5   1  10  123.77    3.54
  -6  -1 -10   19.69    0.77
  -6  -1 -10   20.30    0.87
   6   1  10   20.22    0.68
   6   1  10   19.05    0.86
  -7  -1 -10    8.54    0.32
  -7  -1 -10    8.31    0.47
  -7  -1 -10    8.85    0.55
   7   1  10    7.32    0.51
   7   1  10    8.45    0.40
  -8  -1 -10  113.91    3.22
  -8  -1 -10  110.46    3.17
  -8  -1 -10  109.55    2.89
   8   1  10  106.75    3.16
   8   1  10  112.27    2.95
  -9  -1 -10    0.88    0.16
   2  -2 -10    0.12    0.11
  -2   2  10    0.20    0.15
   1  -2 -10   49.14    1.54
   1  -2 -10   50.28    1.73
  -1   2  10   46.69    1.69
   0  -2 -10    1.28    0.22
   0  -2 -10    1.79    0.29
   0   2  10    1.20    0.25
  -1  -2 -10    4.57    0.39
  -1  -2 -10    4.27    0.22
  -1  -2 -10    4.52    0.35
   1   2  10    4.17    0.38
   1   2  10    4.24    0.21
  -2  -2 -10   35.45    1.26
  -2  -2 -10   39.22    1.34
  -2  -2 -10   37.89    1.12
   2   2  10   37.99    1.33
   2   2  10   33.52    1.02
  -3  -2 -10    4.53    0.36
  -3  -2 -10    4.52    0.37
  -3  -2 -10    4.80    0.30
   3   2  10    4.09    0.23
   3   2  10    4.62    0.38
  -4  -2 -10    5.60    0.34
  -4  -2 -10    6.86    0.45
  -4  -2 -10    5.10    0.40
   4   2  10    6.72    0.45
   4   2  10    6.12    0.29
  -5  -2 -10    4.43    0.37
  -5  -2 -10    4.25    0.31
   5   2  10    4.18    0.25
   5   2  10    4.07    0.36
  -6  -2 -10   10.25    0.58
  -6  -2 -10   10.90    0.53
   6   2  10    9.81    0.57
   6   2  10    9.66    0.44
  -7  -2 -10    0.84    0.18
  -7  -2 -10    0.86    0.21
  -7  -2 -10    0.86    0.11
   7   2  10    0.84    0.15
   7   2  10    1.75    0.28
  -8  -2 -10    4.54    0.29
  -8  -2 -10    5.65    0.41
  -8  -2 -10    5.06    0.41
   8   2  10    5.64    0.34
   8   2  10    4.71    0.39
  -9  -2 -10    6.09    0.38
   9   2  10    6.37    0.46
 -10  -2 -10    2.32    0.27
   3  -3 -10    4.54    0.44
  -3   3  10    4.94    0.45
  -3   3  10    5.18    0.20
   2  -3 -10   15.34    0.81
  -2   3  10   15.39    0.44
  -2   3  10   13.96    0.77
   1  -3 -10    2.69    0.33
   1  -3 -10    2.68    0.27
  -1   3  10    2.79    0.14
  -1   3  10    2.70    0.33
   0  -3 -10    1.56    0.22
   0  -3 -10    1.46    0.10
   0  -3 -10    1.48    0.27
   0   3  10    1.49    0.11
   0   3  10    1.22    0.25
  -1  -3 -10    0.34    0.14
  -1  -3 -10    0.43    0.09
  -1  -3 -10    0.09    0.10
   1   3  10    0.30    0.08
   1   3  10    0.12    0.12
  -2  -3 -10   12.80    0.54
  -2  -3 -10   14.78    0.71
  -2  -3 -10   14.19    0.69
   2   3  10   13.97    0.70
   2   3  10   13.92    0.50
  -3  -3 -10    3.03    0.25
  -3  -3 -10    2.77    0.30
  -3  -3 -10    3.07    0.31
   3   3  10    2.92    0.31
   3   3  10    3.02    0.21
  -4  -3 -10   19.60    0.82
  -4  -3 -10   18.38    0.75
  -4  -3 -10   18.93    0.70
  -4  -3 -10   18.44    0.84
   4   3  10   17.45    0.64
   4   3  10   18.72    0.82
  -5  -3 -10    9.69    0.51
  -5  -3 -10    9.99    0.58
  -5  -3 -10    9.27    0.47
   5   3  10    8.99    0.42
   5   3  10    9.57    0.54
  -6  -3 -10    1.98    0.27
  -6  -3 -10    2.16    0.11
  -6  -3 -10    2.52    0.26
  -6  -3 -10    2.11    0.24
   6   3  10    1.98    0.20
   6   3  10    2.19    0.26
  -7  -3 -10   26.09    0.81
  -7  -3 -10   26.68    1.02
  -7  -3 -10   24.24    0.97
  -7  -3 -10   25.36    1.05
   7   3  10   26.08    1.01
   7   3  10   25.00    0.88
  -8  -3 -10    0.36    0.15
  -8  -3 -10    0.36    0.11
  -8  -3 -10    0.37    0.15
   8   3  10    1.31    0.24
   8   3  10    0.24    0.11
  -9  -3 -10    5.40    0.38
   9   3  10    6.22    0.44
 -10  -3 -10   28.09    1.10
  10   3  10   31.13    1.26
   3  -4 -10   29.23    1.21
  -3   4  10   28.54    0.80
  -3   4  10   26.90    1.16
   2  -4 -10   35.29    1.34
  -2   4  10   33.18    1.30
  -2   4  10   34.43    0.93
   1  -4 -10   38.86    1.36
   1  -4 -10   37.68    1.40
  -1   4  10   39.03    1.03
  -1   4  10   37.21    1.39
   0  -4 -10   92.26    2.72
   0  -4 -10   89.81    2.34
   0  -4 -10   92.82    2.70
   0   4  10   91.81    2.31
   0   4  10   90.42    2.70
  -1  -4 -10   82.07    2.41
  -1  -4 -10   74.67    2.08
  -1  -4 -10   77.72    2.38
   1   4  10   82.41    2.41
   1   4  10   75.13    2.02
  -2  -4 -10   55.21    1.79
  -2  -4 -10   57.18    1.85
  -2  -4 -10   53.67    1.61
   2   4  10   55.38    1.80
   2   4  10   56.20    1.54
  -3  -4 -10   81.43    2.25
  -3  -4 -10   82.60    2.28
  -3  -4 -10   82.21    2.39
  -3  -4 -10   79.51    2.46
   3   4  10   80.11    2.39
   3   4  10   78.62    2.15
  -4  -4 -10   31.76    1.09
  -4  -4 -10   31.16    1.24
  -4  -4 -10   35.29    1.20
  -4  -4 -10   33.33    1.14
   4   4  10   31.77    1.18
   4   4  10   32.92    1.02
  -5  -4 -10  106.00    2.86
  -5  -4 -10   97.65    2.99
  -5  -4 -10  102.44    2.88
  -5  -4 -10  105.68    2.90
   5   4  10  101.57    2.90
   5   4  10  104.30    2.74
  -6  -4 -10   20.01    0.83
  -6  -4 -10   20.32    0.92
  -6  -4 -10   19.47    0.86
  -6  -4 -10   20.13    0.62
   6   4  10   21.53    0.76
   6   4  10   21.40    0.86
  -7  -4 -10    9.14    0.54
  -7  -4 -10   10.10    0.59
  -7  -4 -10   10.89    0.45
  -7  -4 -10    8.97    0.58
   7   4  10    9.24    0.47
   7   4  10    9.99    0.55
  -8  -4 -10   73.05    2.15
  -8  -4 -10   79.60    2.30
  -8  -4 -10   73.01    2.36
  -8  -4 -10   70.23    2.32
   8   4  10   78.92    2.28
   8   4  10   84.72    2.42
  -9  -4 -10    1.69    0.23
  -9  -4 -10    1.96    0.30
   9   4  10    1.96    0.29
 -10  -4 -10    0.28    0.15
 -10  -4 -10    0.19    0.14
  -3   5  10    4.50    0.23
   2  -5 -10    2.80    0.32
  -2   5  10    2.43    0.16
  -2   5  10    2.42    0.34
   1  -5 -10   32.59    1.26
   1  -5 -10   34.39    1.30
  -1   5  10   33.95    1.27
  -1   5  10   33.91    0.95
   0  -5 -10    1.06    0.23
   0  -5 -10    0.82    0.22
   0  -5 -10    1.07    0.12
   0   5  10    0.89    0.21
   0   5  10    1.10    0.11
  -1  -5 -10    0.82    0.14
  -1  -5 -10    0.82    0.22
  -1  -5 -10    1.67    0.28
   1   5  10    0.68    0.11
   1   5  10    0.99    0.22
  -2  -5 -10   27.33    1.07
  -2  -5 -10   26.54    0.92
  -2  -5 -10   26.47    1.13
   2   5  10   25.41    0.82
   2   5  10   26.70    1.06
  -3  -5 -10   42.94    1.41
  -3  -5 -10   39.45    1.31
  -3  -5 -10   40.23    1.30
  -3  -5 -10   36.27    1.44
   3   5  10   40.24    1.39
   3   5  10   40.17    1.20
  -4  -5 -10    3.22    0.30
  -4  -5 -10    3.48    0.30
  -4  -5 -10    2.47    0.32
  -4  -5 -10    3.15    0.29
   4   5  10    2.97    0.30
   4   5  10    2.77    0.22
  -5  -5 -10    6.12    0.43
  -5  -5 -10    6.79    0.44
  -5  -5 -10    6.21    0.49
  -5  -5 -10    6.33    0.42
   5   5  10    6.70    0.37
   5   5  10    6.83    0.44
  -6  -5 -10   51.43    1.71
  -6  -5 -10   54.60    1.74
  -6  -5 -10   56.60    1.70
  -6  -5 -10   53.12    1.82
  -6  -5 -10   51.69    1.49
   6   5  10   55.79    1.60
   6   5  10   54.88    1.70
  -7  -5 -10    2.89    0.32
  -7  -5 -10    2.65    0.32
  -7  -5 -10    2.60    0.23
  -7  -5 -10    2.61    0.30
   7   5  10    2.53    0.24
   7   5  10    2.34    0.26
  -8  -5 -10    4.13    0.37
  -8  -5 -10    3.84    0.37
  -8  -5 -10    3.40    0.30
   8   5  10    3.84    0.32
  -9  -5 -10   24.08    1.01
  -9  -5 -10   23.89    0.97
 -10  -5 -10    5.61    0.44
 -10  -5 -10    5.96    0.48
  -2   6  10    5.34    0.26
   1  -6 -10    6.90    0.52
   1  -6 -10    7.09    0.49
  -1   6  10    6.45    0.47
  -1   6  10    6.85    0.30
   0  -6 -10    9.62    0.64
   0  -6 -10    9.59    0.57
   0   6  10    9.57    0.38
   0   6  10    9.27    0.56
  -1  -6 -10    0.47    0.12
  -1  -6 -10    0.37    0.17
  -1  -6 -10    0.41    0.15
   1   6  10    0.58    0.17
   1   6  10    0.45    0.10
  -2  -6 -10    9.22    0.63
  -2  -6 -10    9.78    0.50
  -2  -6 -10    9.63    0.56
   2   6  10    9.63    0.56
   2   6  10    9.85    0.42
  -3  -6 -10    6.15    0.43
  -3  -6 -10    5.12    0.38
  -3  -6 -10    5.73    0.48
  -3  -6 -10    5.00    0.38
   3   6  10    5.22    0.31
   3   6  10    6.19    0.44
  -4  -6 -10   22.28    0.91
  -4  -6 -10   24.39    0.95
  -4  -6 -10   21.42    1.01
  -4  -6 -10   23.33    0.92
   4   6  10   22.84    0.92
   4   6  10   22.21    0.79
  -5  -6 -10   11.09    0.59
  -5  -6 -10   10.70    0.55
  -5  -6 -10    9.57    0.57
  -5  -6 -10    9.49    0.38
  -5  -6 -10    9.70    0.62
   5   6  10    9.71    0.54
   5   6  10   10.28    0.47
  -6  -6 -10    2.49    0.29
  -6  -6 -10    2.35    0.30
  -6  -6 -10    2.33    0.25
  -6  -6 -10    2.39    0.21
  -6  -6 -10    2.41    0.32
   6   6  10    2.23    0.23
   6   6  10    2.62    0.26
  -7  -6 -10   38.65    1.37
  -7  -6 -10   38.93    1.37
  -7  -6 -10   35.75    1.22
  -7  -6 -10   38.16    1.41
   7   6  10   36.42    1.21
   7   6  10   37.76    1.27
  -8  -6 -10    0.51    0.19
  -8  -6 -10    0.84    0.21
  -9  -6 -10    8.98    0.58
  -9  -6 -10    8.61    0.53
  -2   7  10   33.75    1.01
   1  -7 -10   21.73    0.95
   1  -7 -10   20.59    1.03
  -1   7  10   21.60    0.96
  -1   7  10   21.33    0.70
   0  -7 -10   49.12    1.67
   0  -7 -10   50.87    1.84
   0   7  10   50.19    1.68
   0   7  10   51.23    1.42
  -1  -7 -10   56.98    2.00
  -1  -7 -10   57.50    1.82
   1   7  10   54.93    1.81
   1   7  10   56.24    1.58
  -2  -7 -10   40.50    1.56
  -2  -7 -10   39.37    1.33
  -2  -7 -10   39.90    1.39
   2   7  10   40.41    1.20
   2   7  10   38.93    1.39
  -3  -7 -10   44.92    1.64
  -3  -7 -10   42.81    1.46
  -3  -7 -10   44.81    1.50
  -3  -7 -10   41.51    1.46
   3   7  10   44.64    1.51
   3   7  10   44.02    1.33
  -4  -7 -10   27.12    1.05
  -4  -7 -10   28.60    1.17
  -4  -7 -10   25.37    0.99
  -4  -7 -10   24.18    1.01
  -4  -7 -10   23.69    0.73
   4   7  10   25.80    0.91
   4   7  10   24.99    1.00
  -5  -7 -10   60.11    1.77
  -5  -7 -10   65.53    2.13
  -5  -7 -10   69.52    2.06
  -5  -7 -10   61.38    2.02
  -5  -7 -10   65.30    1.94
   5   7  10   63.89    1.85
   5   7  10   65.59    1.96
  -6  -7 -10   26.60    1.11
  -6  -7 -10   24.71    0.90
  -6  -7 -10   25.61    1.06
  -6  -7 -10   25.79    0.95
  -6  -7 -10   27.96    1.09
   6   7  10   25.25    0.91
   6   7  10   24.64    0.96
  -7  -7 -10    4.15    0.40
  -7  -7 -10    4.49    0.34
  -7  -7 -10    4.25    0.40
  -8  -7 -10   47.02    1.63
  -8  -7 -10   47.18    1.54
  -9  -7 -10    1.81    0.32
  -9  -7 -10    1.02    0.22
   1  -8 -10   11.43    0.75
  -1   8  10   10.63    0.46
   0  -8 -10    6.51    0.56
   0  -8 -10    5.97    0.46
   0   8  10    5.89    0.45
   0   8  10    6.58    0.34
  -1  -8 -10    0.28    0.16
  -1  -8 -10    0.02    0.09
   1   8  10    0.05    0.06
   1   8  10    0.01    0.08
  -2  -8 -10   17.39    0.92
  -2  -8 -10   16.99    0.79
   2   8  10   17.09    0.79
   2   8  10   16.38    0.64
  -3  -8 -10   34.06    1.25
  -3  -8 -10   31.93    1.21
  -3  -8 -10   30.16    1.32
  -3  -8 -10   35.93    1.40
   3   8  10   32.99    1.23
   3   8  10   34.23    1.10
  -4  -8 -10    0.06    0.06
  -4  -8 -10    0.18    0.13
  -4  -8 -10    0.09    0.10
  -4  -8 -10    0.11    0.12
  -4  -8 -10    0.07    0.11
   4   8  10    0.13    0.10
   4   8  10    0.05    0.09
  -5  -8 -10    3.15    0.36
  -5  -8 -10    2.59    0.23
  -5  -8 -10    2.79    0.28
  -5  -8 -10    2.92    0.33
  -5  -8 -10    2.36    0.32
   5   8  10    2.70    0.28
   5   8  10    2.83    0.26
  -6  -8 -10   41.39    1.53
  -6  -8 -10   41.84    1.33
  -6  -8 -10   41.46    1.51
  -7  -8 -10    5.39    0.38
  -7  -8 -10    5.37    0.45
  -7  -8 -10    5.12    0.45
  -8  -8 -10    4.50    0.43
  -8  -8 -10    4.33    0.36
   0  -9 -10   23.84    1.16
   0   9  10   22.05    0.80
  -1  -9 -10    0.91    0.22
  -1  -9 -10    0.89    0.26
   1   9  10    0.94    0.23
   1   9  10    0.55    0.13
  -2  -9 -10    0.75    0.19
  -2  -9 -10    0.98    0.24
   2   9  10    0.92    0.17
   2   9  10    0.92    0.22
  -3  -9 -10    6.71    0.32
  -3  -9 -10    6.76    0.50
  -3  -9 -10    6.83    0.47
  -3  -9 -10    7.12    0.57
   3   9  10    6.55    0.47
   3   9  10    6.92    0.41
  -4  -9 -10   15.72    0.86
  -4  -9 -10   15.52    0.80
  -4  -9 -10   15.56    0.62
  -4  -9 -10   15.54    0.75
   4   9  10   15.93    0.76
   4   9  10   14.89    0.67
  -5  -9 -10    7.60    0.56
  -5  -9 -10    7.15    0.42
  -5  -9 -10    6.88    0.53
  -6  -9 -10    0.36    0.16
  -6  -9 -10    0.58    0.20
  -6  -9 -10    0.31    0.12
  -7  -9 -10   18.38    0.89
  -7  -9 -10   17.26    0.87
  -7  -9 -10   18.38    0.80
  -2 -10 -10   17.95    0.97
  -2 -10 -10   16.71    0.58
   2  10  10   17.10    0.71
  -3 -10 -10   34.77    1.36
  -3 -10 -10   35.60    1.47
  -3 -10 -10   35.46    1.11
  -3 -10 -10   36.19    1.72
  -4 -10 -10   15.66    0.88
  -4 -10 -10   15.70    0.65
  -4 -10 -10   15.85    0.84
  -5 -10 -10   15.27    0.85
  -5 -10 -10   14.91    0.82
  -5 -10 -10   14.92    0.66
  -1   2 -11    4.92    0.40
   1  -2  11    5.46    0.22
   1  -2  11    5.82    0.25
  -2   2 -11    9.38    0.56
   2  -2  11   10.00    0.35
   2  -2  11    9.89    0.38
  -3   2 -11   19.44    0.89
   3  -2  11   20.86    0.63
   3  -2  11   20.20    0.66
  -4   2 -11   18.40    0.86
   4  -2  11   18.58    0.64
   4  -2  11   19.09    0.83
   4  -2  11   18.68    0.61
  -5   2 -11    0.13    0.11
   5  -2  11    0.12    0.06
   5  -2  11    0.12    0.07
   0   1 -11   14.79    0.71
   0  -1  11   16.41    0.46
  -1   1 -11   36.07    1.30
   1  -1  11   37.83    0.98
   1  -1  11   37.43    1.00
  -2   1 -11   10.80    0.59
   2  -1  11   10.20    0.37
   2  -1  11   10.63    0.59
   2  -1  11   10.60    0.35
  -3   1 -11   53.48    1.76
   3  -1  11   55.00    1.43
   3  -1  11   53.96    1.75
   3  -1  11   54.54    1.46
  -4   1 -11   21.33    0.93
   4  -1  11   21.50    0.69
   4  -1  11   22.08    0.93
   4  -1  11   21.51    0.67
  -5   1 -11    4.45    0.40
   5  -1  11    4.53    0.24
   5  -1  11    4.37    0.26
   5  -1  11    4.90    0.41
  -6   1 -11   80.25    2.48
   6  -1  11   80.57    2.14
   6  -1  11   78.03    2.18
   6  -1  11   83.92    2.78
  -7   1 -11    8.86    0.59
   7  -1  11    8.56    0.40
   0   0 -11   30.37    1.12
  -1   0 -11    0.36    0.13
  -1   0 -11    0.22    0.13
   1   0  11    0.44    0.05
   1   0  11    0.23    0.14
  -2   0 -11   17.45    0.79
   2   0  11   17.81    0.53
   2   0  11   17.10    0.81
   2   0  11   18.27    0.53
  -3   0 -11   18.67    0.84
   3   0  11   19.91    0.88
   3   0  11   20.09    0.61
   3   0  11   19.76    0.60
  -4   0 -11    1.13    0.23
   4   0  11    0.80    0.11
   4   0  11    0.86    0.11
   4   0  11    0.62    0.18
  -5   0 -11   10.74    0.61
   5   0  11   10.34    0.41
   5   0  11   10.14    0.42
   5   0  11   10.13    0.61
  -6   0 -11    4.31    0.39
   6   0  11    3.43    0.35
   6   0  11    4.26    0.25
  -7   0 -11    1.26    0.26
   7   0  11    1.41    0.38
   7   0  11    0.91    0.15
  -8   0 -11    0.59    0.19
   0  -1 -11    7.88    0.55
   0  -1 -11    8.55    0.49
   0   1  11    7.96    0.54
  -1  -1 -11    0.07    0.10
  -1  -1 -11    0.25    0.11
   1   1  11    0.06    0.03
   1   1  11    0.03    0.03
   1   1  11   -0.01    0.08
  -2  -1 -11    1.89    0.23
  -2  -1 -11    1.60    0.23
  -2  -1 -11    2.49    0.35
   2   1  11    1.70    0.11
   2   1  11    2.28    0.33
   2   1  11    1.46    0.11
  -3  -1 -11   16.39    0.77
   3   1  11   16.65    0.80
   3   1  11   16.85    0.53
   3   1  11   16.97    0.53
  -4  -1 -11    6.31    0.45
   4   1  11    6.74    0.30
   4   1  11    6.48    0.47
  -5  -1 -11    8.85    0.55
   5   1  11    8.78    0.56
   5   1  11    8.88    0.38
  -6  -1 -11    2.91    0.32
   6   1  11    2.80    0.22
   6   1  11    2.66    0.31
  -7  -1 -11    5.29    0.44
   7   1  11    5.05    0.31
   7   1  11    4.88    0.42
  -8  -1 -11    7.43    0.53
  -8  -1 -11    5.94    0.33
   8   1  11    6.74    0.38
   1  -2 -11   16.50    0.87
  -1   2  11   15.84    0.84
   0  -2 -11   35.78    1.36
   0  -2 -11   35.12    1.24
   0   2  11   33.09    1.32
  -1  -2 -11   65.24    1.66
  -1  -2 -11   63.41    1.99
  -1  -2 -11   67.25    2.10
   1   2  11   64.79    2.08
   1   2  11   63.33    1.68
  -2  -2 -11   35.08    1.26
  -2  -2 -11   33.88    1.05
  -2  -2 -11   35.71    1.31
   2   2  11   33.72    0.97
   2   2  11   33.58    1.29
  -3  -2 -11   80.70    2.31
  -3  -2 -11   88.67    2.54
  -3  -2 -11   82.34    2.48
   3   2  11   84.85    2.53
   3   2  11   81.76    2.17
  -4  -2 -11   54.88    1.80
  -4  -2 -11   54.22    1.64
   4   2  11   54.80    1.51
   4   2  11   54.70    1.80
  -5  -2 -11   10.16    0.59
  -5  -2 -11   10.72    0.62
   5   2  11   10.32    0.61
   5   2  11   10.70    0.44
  -6  -2 -11  120.01    3.44
   6   2  11  120.78    3.15
   6   2  11  121.02    3.43
  -7  -2 -11   25.28    1.06
   7   2  11   24.00    0.84
   7   2  11   22.61    1.00
  -8  -2 -11    0.26    0.14
  -8  -2 -11    0.41    0.08
   8   2  11    0.42    0.17
   8   2  11    0.26    0.11
  -9  -2 -11   76.86    2.12
   2  -3 -11    1.52    0.31
  -2   3  11    1.66    0.32
   1  -3 -11    0.22    0.14
  -1   3  11    0.24    0.14
   0  -3 -11   31.35    1.18
   0  -3 -11   31.97    0.87
   0  -3 -11   31.22    1.28
   0   3  11   31.40    0.89
   0   3  11   32.29    1.29
  -1  -3 -11    1.56    0.28
  -2  -3 -11    2.26    0.20
  -2  -3 -11    2.19    0.28
  -2  -3 -11    2.22    0.33
   2   3  11    2.61    0.19
   2   3  11    3.13    0.34
  -3  -3 -11   28.07    1.11
  -3  -3 -11   29.38    0.98
  -3  -3 -11   27.12    1.11
   3   3  11   26.89    0.86
   3   3  11   27.20    1.11
  -4  -3 -11   10.10    0.61
  -4  -3 -11    9.84    0.51
  -4  -3 -11   11.00    0.60
   4   3  11    9.98    0.59
   4   3  11    9.01    0.41
  -5  -3 -11    8.57    0.56
  -5  -3 -11    8.70    0.50
   5   3  11    8.74    0.54
   5   3  11    8.42    0.40
  -6  -3 -11    6.06    0.43
  -6  -3 -11    6.33    0.48
   6   3  11    5.98    0.44
   6   3  11    6.01    0.35
  -7  -3 -11   11.79    0.68
   7   3  11   11.27    0.52
   7   3  11   11.80    0.64
  -8  -3 -11    0.25    0.15
  -8  -3 -11    0.33    0.09
   8   3  11    0.31    0.12
   8   3  11    0.41    0.14
  -9  -3 -11    3.79    0.28
  -2   4  11    4.13    0.20
   1  -4 -11    6.96    0.54
  -1   4  11    7.02    0.54
  -1   4  11    6.88    0.27
   0  -4 -11    3.57    0.36
   0  -4 -11    4.04    0.40
   0   4  11    3.74    0.39
   0   4  11    3.81    0.20
  -1  -4 -11    0.22    0.14
  -1  -4 -11    0.11    0.11
   1   4  11    0.26    0.08
   1   4  11    0.28    0.15
  -2  -4 -11    1.70    0.30
  -2  -4 -11    1.69    0.19
  -2  -4 -11    1.50    0.26
   2   4  11    1.42    0.26
   2   4  11    1.65    0.16
  -3  -4 -11    5.25    0.45
  -3  -4 -11    5.51    0.36
  -3  -4 -11    5.35    0.41
   3   4  11    5.69    0.43
   3   4  11    5.10    0.29
  -4  -4 -11    1.88    0.23
  -4  -4 -11    2.12    0.24
  -4  -4 -11    2.49    0.34
  -4  -4 -11    2.05    0.30
   4   4  11    2.12    0.31
   4   4  11    1.74    0.18
  -5  -4 -11   21.25    0.84
  -5  -4 -11   20.01    0.96
  -5  -4 -11   22.10    0.88
  -5  -4 -11   22.70    0.91
   5   4  11   20.70    0.90
   5   4  11   20.73    0.75
  -6  -4 -11    3.90    0.35
  -6  -4 -11    3.97    0.40
  -6  -4 -11    4.21    0.35
   6   4  11    3.84    0.28
   6   4  11    3.69    0.34
  -7  -4 -11    1.47    0.12
  -7  -4 -11    1.40    0.27
  -7  -4 -11    1.31    0.24
  -7  -4 -11    1.38    0.28
   7   4  11    1.31    0.20
   7   4  11    1.61    0.27
  -8  -4 -11   19.67    0.70
  -8  -4 -11   20.29    0.91
  -8  -4 -11   18.39    0.91
   8   4  11   20.00    0.78
   8   4  11   19.95    0.86
  -9  -4 -11    0.46    0.14
   9   4  11    0.22    0.12
  -2   5  11   40.82    1.13
   1  -5 -11   26.24    1.19
   1  -5 -11   26.24    1.14
  -1   5  11   24.76    1.11
  -1   5  11   26.82    0.78
   0  -5 -11   44.42    1.57
   0  -5 -11   43.26    1.58
   0   5  11   42.54    1.55
   0   5  11   41.77    1.19
  -1  -5 -11   75.10    2.40
  -1  -5 -11   74.50    2.36
   1   5  11   75.03    2.36
   1   5  11   74.95    1.99
  -2  -5 -11   27.84    1.13
  -2  -5 -11   28.05    1.20
   2   5  11   28.43    0.90
   2   5  11   28.26    1.14
  -3  -5 -11   78.09    2.29
  -3  -5 -11   78.19    2.53
  -3  -5 -11   84.90    2.44
   3   5  11   80.63    2.17
   3   5  11   78.03    2.41
  -4  -5 -11   42.21    1.64
  -4  -5 -11   46.11    1.53
  -4  -5 -11   46.44    1.48
  -4  -5 -11   49.27    1.51
   4   5  11   46.02    1.36
   4   5  11   44.17    1.54
  -5  -5 -11    5.87    0.42
  -5  -5 -11    5.74    0.42
  -5  -5 -11    5.31    0.47
  -5  -5 -11    6.36    0.43
   5   5  11    6.09    0.43
   5   5  11    6.33    0.36
  -6  -5 -11   91.75    2.59
  -6  -5 -11   90.31    2.62
  -6  -5 -11   89.01    2.61
  -6  -5 -11   81.70    2.70
   6   5  11   87.29    2.58
   6   5  11   92.82    2.45
  -7  -5 -11   16.96    0.79
  -7  -5 -11   16.08    0.57
  -7  -5 -11   15.75    0.80
  -7  -5 -11   15.60    0.83
   7   5  11   15.71    0.74
   7   5  11   17.76    0.69
  -8  -5 -11    0.16    0.12
  -8  -5 -11    0.04    0.06
  -8  -5 -11    0.17    0.14
   8   5  11    0.19    0.12
   8   5  11    0.19    0.11
  -9  -5 -11   76.95    2.28
  -9  -5 -11   67.21    2.11
   9   5  11   74.89    2.21
   1  -6 -11    1.71    0.32
  -1   6  11    2.09    0.17
   0  -6 -11   19.19    0.92
   0  -6 -11   19.91    0.99
   0   6  11   20.27    0.66
   0   6  11   19.36    0.92
  -1  -6 -11    4.51    0.45
  -1  -6 -11    4.63    0.41
   1   6  11    4.41    0.40
   1   6  11    5.08    0.27
  -2  -6 -11    0.18    0.12
  -2  -6 -11    0.20    0.15
   2   6  11    0.22    0.14
   2   6  11    0.41    0.10
  -3  -6 -11   11.82    0.64
  -3  -6 -11   10.29    0.69
   3   6  11   11.31    0.50
   3   6  11   10.98    0.63
  -4  -6 -11   40.46    1.47
  -4  -6 -11   38.79    1.52
  -4  -6 -11   38.34    1.34
  -4  -6 -11   38.57    1.35
   4   6  11   36.91    1.35
   4   6  11   39.38    1.21
  -5  -6 -11    0.45    0.16
  -5  -6 -11    0.54    0.16
  -5  -6 -11    0.34    0.17
  -5  -6 -11    1.38    0.24
   5   6  11    1.17    0.23
   5   6  11    0.61    0.15
  -6  -6 -11    0.74    0.20
  -6  -6 -11    1.05    0.26
  -6  -6 -11    0.84    0.10
  -6  -6 -11    0.69    0.19
  -6  -6 -11    0.88    0.19
   6   6  11    0.98    0.20
   6   6  11    1.13    0.19
  -7  -6 -11   32.85    1.30
  -7  -6 -11   28.00    0.98
  -7  -6 -11   32.03    1.23
  -7  -6 -11   32.84    1.63
   7   6  11   33.19    1.08
   7   6  11   31.67    1.15
  -8  -6 -11    6.30    0.39
  -8  -6 -11    7.17    0.51
  -8  -6 -11    7.14    0.53
   8   6  11    7.27    0.46
  -9  -6 -11    3.49    0.37
  -9  -6 -11    3.17    0.31
   1  -7 -11    0.11    0.11
  -1   7  11    0.29    0.09
   0  -7 -11    3.20    0.40
   0   7  11    3.30    0.23
  -1  -7 -11    6.06    0.47
  -1  -7 -11    5.78    0.53
   1   7  11    5.84    0.47
   1   7  11    6.06    0.33
  -2  -7 -11    4.06    0.38
  -2  -7 -11    3.24    0.40
   2   7  11    3.93    0.38
   2   7  11    2.79    0.23
  -3  -7 -11    1.23    0.24
  -3  -7 -11    1.62    0.33
   3   7  11    1.86    0.31
   3   7  11    1.86    0.24
  -4  -7 -11    0.46    0.15
  -4  -7 -11    0.31    0.15
  -4  -7 -11    0.42    0.19
   4   7  11    0.24    0.09
   4   7  11    0.27    0.13
  -5  -7 -11   30.02    1.11
  -5  -7 -11   29.07    1.17
  -5  -7 -11   30.72    1.28
   5   7  11   29.37    1.01
   5   7  11   29.79    1.12
  -6  -7 -11    0.83    0.13
  -6  -7 -11    1.13    0.21
  -6  -7 -11    1.12    0.26
  -6  -7 -11    1.14    0.25
   6   7  11    1.14    0.19
   6   7  11    0.94    0.21
  -7  -7 -11    0.78    0.22
  -7  -7 -11    0.83    0.23
  -7  -7 -11    0.77    0.15
   7   7  11    0.87    0.19
  -8  -7 -11   23.72    1.02
  -8  -7 -11   21.45    0.86
  -8  -7 -11   22.56    1.03
   0  -8 -11   24.45    1.19
   0   8  11   24.74    0.83
  -1  -8 -11   39.74    1.60
   1   8  11   39.17    1.21
  -2  -8 -11   18.64    1.00
  -2  -8 -11   19.32    0.89
   2   8  11   19.29    0.72
   2   8  11   18.64    0.88
  -3  -8 -11   43.53    1.53
  -3  -8 -11   43.31    1.67
   3   8  11   41.52    1.33
   3   8  11   42.45    1.53
  -4  -8 -11   33.76    1.25
  -4  -8 -11   31.83    1.27
  -4  -8 -11   35.88    1.42
   4   8  11   33.46    1.14
   4   8  11   32.18    1.25
  -5  -8 -11    7.49    0.33
  -5  -8 -11    6.95    0.53
  -5  -8 -11    7.91    0.60
  -5  -8 -11    9.83    0.54
   5   8  11    9.20    0.53
   5   8  11    7.97    0.44
  -6  -8 -11   40.21    1.26
  -6  -8 -11   43.96    1.42
  -6  -8 -11   42.78    1.55
  -6  -8 -11   42.73    1.59
   6   8  11   40.98    1.46
   6   8  11   40.85    1.33
  -7  -8 -11   10.73    0.53
  -7  -8 -11   11.44    0.69
  -7  -8 -11   10.55    0.67
  -8  -8 -11    1.19    0.27
  -8  -8 -11    1.53    0.23
  -8  -8 -11    0.71    0.23
  -2  -9 -11    0.14    0.14
   2   9  11    0.16    0.10
  -3  -9 -11    5.36    0.51
  -3  -9 -11    5.59    0.46
   3   9  11    5.52    0.45
   3   9  11    4.62    0.34
  -4  -9 -11   38.84    1.47
  -4  -9 -11   40.13    1.58
  -4  -9 -11   38.67    1.41
   4   9  11   39.29    1.42
   4   9  11   37.83    1.30
  -5  -9 -11    0.08    0.07
  -5  -9 -11    0.59    0.22
  -5  -9 -11    0.21    0.15
   5   9  11    0.07    0.11
  -6  -9 -11    0.78    0.24
  -6  -9 -11    1.07    0.18
  -6  -9 -11    0.50    0.20
  -4   1 -12   21.68    0.98
   4  -1  12   22.71    0.73
   4  -1  12   22.36    0.69
  -1   0 -12   24.36    1.01
   1   0  12   26.17    0.71
  -2   0 -12   38.71    1.41
   2   0  12   40.63    1.07
   2   0  12   40.67    1.09
   2   0  12   39.85    1.46
  -3   0 -12    6.92    0.48
   3   0  12    5.60    0.46
   3   0  12    6.31    0.27
   3   0  12    6.71    0.29
  -4   0 -12   56.00    1.87
   4   0  12   54.61    1.86
   4   0  12   56.52    1.54
   4   0  12   56.94    1.51
  -5   0 -12   21.43    0.97
   5   0  12   21.24    0.72
   5   0  12   21.29    0.69
  -6   0 -12    0.68    0.20
   6   0  12    1.01    0.14
   0  -1 -12    6.24    0.44
  -1  -1 -12   19.77    0.88
  -1  -1 -12   20.23    0.94
   1   1  12   21.05    0.58
   1   1  12   18.57    0.91
  -2  -1 -12    0.14    0.10
  -2  -1 -12    0.01    0.10
   2   1  12    0.24    0.14
   2   1  12    0.36    0.07
   2   1  12    0.33    0.06
  -3  -1 -12    7.61    0.51
   3   1  12    7.51    0.30
   3   1  12    7.19    0.30
   3   1  12    6.83    0.51
  -4  -1 -12    9.14    0.58
   4   1  12    9.23    0.37
   4   1  12    9.51    0.60
  -5  -1 -12    2.95    0.34
   5   1  12    3.08    0.35
   5   1  12    3.05    0.21
  -6  -1 -12    3.72    0.39
   6   1  12    3.94    0.26
  -7  -1 -12    0.89    0.25
   7   1  12    1.14    0.18
   0  -2 -12    7.96    0.51
   0  -2 -12    8.13    0.58
   0   2  12    8.79    0.60
  -1  -2 -12   17.04    0.81
  -1  -2 -12   18.48    0.90
   1   2  12   16.88    0.53
   1   2  12   18.01    0.89
  -2  -2 -12    0.29    0.14
  -2  -2 -12    0.18    0.12
   2   2  12    0.27    0.15
   2   2  12    0.27    0.07
  -3  -2 -12    0.30    0.15
  -3  -2 -12    0.19    0.12
   3   2  12    0.34    0.15
   3   2  12    0.24    0.07
  -4  -2 -12   20.89    0.95
   4   2  12   20.43    0.68
   4   2  12   20.58    0.94
  -5  -2 -12    8.35    0.57
   5   2  12    9.58    0.60
   5   2  12    8.61    0.39
  -6  -2 -12   11.29    0.69
   6   2  12   11.33    0.49
   6   2  12   11.93    0.68
  -7  -2 -12    4.65    0.43
   7   2  12    3.63    0.28
  -8  -2 -12   10.25    0.67
   8   2  12   11.08    0.52
   0  -3 -12   14.50    0.83
   0  -3 -12   14.25    0.75
   0   3  12   17.61    0.54
   0   3  12   17.15    0.89
  -1  -3 -12   38.86    1.43
  -1  -3 -12   39.99    1.49
   1   3  12   39.63    1.49
   1   3  12   39.09    1.11
  -2  -3 -12   60.63    2.03
  -2  -3 -12   67.17    2.09
   2   3  12   64.34    2.08
   2   3  12   61.28    1.70
  -3  -3 -12   11.16    0.64
  -3  -3 -12   10.59    0.64
   3   3  12   10.71    0.64
   3   3  12   10.42    0.43
  -4  -3 -12  102.27    3.03
  -4  -3 -12  108.07    3.01
   4   3  12   95.55    2.66
   4   3  12  101.34    2.98
  -5  -3 -12   35.91    1.39
   5   3  12   36.47    1.34
   5   3  12   33.67    1.08
  -6  -3 -12    2.30    0.32
   6   3  12    2.61    0.31
   6   3  12    2.11    0.21
  -7  -3 -12   95.83    2.94
   7   3  12   97.05    2.64
   7   3  12   96.79    2.87
  -8  -3 -12   11.33    0.70
   8   3  12   11.44    0.55
   0  -4 -12    3.33    0.36
   0   4  12    3.24    0.20
  -1  -4 -12   22.94    1.04
  -1  -4 -12   22.44    1.01
   1   4  12   21.29    0.72
   1   4  12   22.23    1.03
  -2  -4 -12    0.44    0.16
  -2  -4 -12    0.31    0.16
   2   4  12    0.44    0.11
   2   4  12    0.32    0.16
  -3  -4 -12    3.05    0.34
  -3  -4 -12    2.92    0.35
   3   4  12    2.82    0.33
   3   4  12    3.09    0.23
  -4  -4 -12   12.50    0.76
  -4  -4 -12   14.73    0.73
   4   4  12   13.88    0.55
   4   4  12   13.44    0.72
  -5  -4 -12   12.14    0.67
  -5  -4 -12   11.59    0.72
   5   4  12   12.62    0.53
   5   4  12   12.20    0.67
  -6  -4 -12    1.45    0.30
   6   4  12    0.70    0.20
   6   4  12    0.67    0.14
  -7  -4 -12    0.71    0.23
   7   4  12    0.10    0.09
   7   4  12    0.11    0.11
  -8  -4 -12    6.13    0.52
   8   4  12    7.35    0.43
   0  -5 -12    0.17    0.13
   0   5  12    0.11    0.07
  -1  -5 -12    4.72    0.46
  -1  -5 -12    5.12    0.47
   1   5  12    4.85    0.47
   1   5  12    4.91    0.28
  -2  -5 -12    1.36    0.29
  -2  -5 -12    1.19    0.25
   2   5  12    1.26    0.27
   2   5  12    1.66    0.18
  -3  -5 -12    4.52    0.39
  -3  -5 -12    4.53    0.45
   3   5  12    4.74    0.29
   3   5  12    4.84    0.41
  -4  -5 -12    7.50    0.51
  -4  -5 -12    7.95    0.60
   4   5  12    7.15    0.50
   4   5  12    7.43    0.39
  -5  -5 -12    2.27    0.39
  -5  -5 -12    2.06    0.27
  -5  -5 -12    2.57    0.30
   5   5  12    2.07    0.22
   5   5  12    1.92    0.29
  -6  -5 -12   23.82    0.98
  -6  -5 -12   22.12    1.08
   6   5  12   25.43    0.87
   6   5  12   24.02    0.99
  -7  -5 -12    3.89    0.38
  -7  -5 -12    3.80    0.42
   7   5  12    4.15    0.31
   7   5  12    4.29    0.37
  -8  -5 -12    6.53    0.48
  -8  -5 -12    6.03    0.51
  -8  -5 -12    5.23    0.27
   8   5  12    5.83    0.38
   8   5  12    5.89    0.50
   0  -6 -12   19.94    1.01
   0   6  12   19.76    0.67
  -1  -6 -12   34.42    1.46
   1   6  12   36.31    1.08
  -2  -6 -12   51.97    1.95
  -2  -6 -12   56.48    1.87
   2   6  12   52.99    1.85
   2   6  12   53.81    1.56
  -3  -6 -12   10.00    0.70
  -3  -6 -12   10.87    0.64
   3   6  12   10.67    0.64
   3   6  12   11.10    0.49
  -4  -6 -12   70.70    2.18
  -4  -6 -12   69.44    2.37
   4   6  12   67.50    2.18
   4   6  12   72.58    1.98
  -5  -6 -12   43.35    1.53
  -5  -6 -12   44.82    1.71
  -5  -6 -12   45.72    1.54
   5   6  12   45.35    1.56
   5   6  12   46.20    1.39
  -6  -6 -12    6.30    0.48
  -6  -6 -12    6.56    0.54
  -6  -6 -12    6.35    0.45
   6   6  12    6.58    0.46
   6   6  12    6.43    0.38
  -7  -6 -12   60.92    2.08
  -7  -6 -12   58.80    1.96
   7   6  12   62.38    1.79
   7   6  12   57.35    1.88
  -8  -6 -12   12.07    0.68
  -8  -6 -12   11.77    0.71
  -8  -6 -12    9.80    0.44
   8   6  12   10.22    0.61
  -1  -7 -12   18.27    1.01
   1   7  12   19.71    0.70
  -2  -7 -12    5.26    0.52
   2   7  12    5.87    0.34
  -3  -7 -12    0.15    0.13
  -3  -7 -12    0.23    0.16
   3   7  12   -0.01    0.09
   3   7  12    0.07    0.08
  -4  -7 -12    9.38    0.59
  -4  -7 -12    9.50    0.58
  -4  -7 -12    9.38    0.68
   4   7  12    8.87    0.46
   4   7  12    9.18    0.58
  -5  -7 -12   25.05    1.07
  -5  -7 -12   25.48    1.19
  -5  -7 -12   25.68    1.03
   5   7  12   26.33    0.92
   5   7  12   27.11    1.07
  -6  -7 -12    0.71    0.23
  -6  -7 -12    0.41    0.17
  -6  -7 -12    0.77    0.19
   6   7  12    0.37    0.15
   6   7  12    0.78    0.17
  -7  -7 -12    0.85    0.25
  -7  -7 -12   -0.01    0.12
  -7  -7 -12    0.24    0.07
   7   7  12    0.67    0.17
   7   7  12    0.37    0.14
  -2  -8 -12    4.54    0.49
   2   8  12    4.71    0.32
  -3  -8 -12   16.22    0.93
   3   8  12   15.44    0.67
  -4  -8 -12    3.07    0.36
  -4  -8 -12    2.72    0.38
   4   8  12    2.64    0.26
   4   8  12    3.37    0.61
  -5  -8 -12    0.50    0.19
  -5  -8 -12    0.34    0.18
  -5  -8 -12    0.57    0.17
   5   8  12    0.37    0.15
   5   8  12    0.28    0.12
  -6  -8 -12   28.52    1.23
  -6  -8 -12   30.36    1.13
  -6  -8 -12   32.08    1.33
   6   8  12   28.44    1.12
   6   8  12   29.83    1.04
  -3  -2 -13    0.02    0.09
   3   2  13   -0.01    0.04
  -4  -2 -13    3.93    0.40
   4   2  13    4.00    0.24
  -5  -2 -13    5.77    0.49
   5   2  13    5.81    0.31
  -6  -2 -13    2.70    0.35
   6   2  13    3.31    0.24
  -2  -3 -13    9.04    0.61
   2   3  13    9.00    0.37
  -3  -3 -13    0.58    0.19
   3   3  13    0.49    0.11
  -4  -3 -13    0.49    0.18
   4   3  13    0.79    0.14
  -5  -3 -13    5.17    0.47
   5   3  13    4.81    0.30
  -6  -3 -13    3.30    0.39
   6   3  13    3.25    0.26
  -2  -4 -13   36.56    1.45
   2   4  13   36.44    1.09
  -3  -4 -13   40.01    1.58
   3   4  13   42.83    1.24
   4   4  13    1.22    0.18
  -5  -4 -13   60.50    2.11
   5   4  13   60.10    1.73
  -6  -4 -13   25.76    1.20
   6   4  13   27.50    0.93
  -7  -4 -13    0.24    0.15
   7   4  13    0.16    0.10
  -2  -5 -13   12.74    0.80
   2   5  13   13.87    0.54
  -3  -5 -13    1.79    0.35
   3   5  13    1.90    0.19
  -4  -5 -13    3.16    0.39
   4   5  13    3.33    0.25
  -5  -5 -13    4.11    0.46
   5   5  13    4.90    0.32
  -6  -5 -13    7.82    0.61
   6   5  13    7.73    0.42
  -7  -5 -13    0.31    0.16
   7   5  13    0.28    0.12
  -3  -6 -13    0.64    0.24
   3   6  13    0.95    0.16
  -4  -6 -13    9.23    0.70
   4   6  13   11.18    0.50
  -5  -6 -13    1.58    0.28
  -5  -6 -13    2.46    0.42
   5   6  13    1.86    0.24
  -6  -6 -13    2.08    0.37
  -6  -6 -13    1.73    0.29
   6   6  13    1.71    0.23
  -4  -7 -13    2.03    0.38
   4   7  13    1.99    0.22
  -5  -7 -13   55.23    1.88
  -5  -7 -13   57.97    2.08
   5   7  13   53.88    1.65
   0   0   0    0.00    0.00
;
loop_
_space_group_symop_operation_xyz
'x, y, z'
'-x, -y, -z'
loop_
_atom_site_label
_atom_site_type_symbol
_atom_site_fract_x
_atom_site_fract_y
_atom_site_fract_z
_atom_site_U_iso_or_equiv
_atom_site_adp_type
_atom_site_occupancy
_atom_site_site_symmetry_order
_atom_site_calc_flag
_atom_site_refinement_flags_posn
_atom_site_refinement_flags_adp
_atom_site_refinement_flags_occupancy
_atom_site_disorder_assembly
_atom_site_disorder_group
K1 K 0.5000 0.5000 0.5000 0.0718(7) Uani 1 2 d S . P . .
Na1 Na 0.5000 0.0000 0.0000 0.0719(12) Uani 1 2 d S . P . .
Na2 Na 0.6282(2) 0.60310(19) 0.04273(17) 0.0271(3) Uani 1 1 d . . . . .
Te1 Te 0.14045(3) 0.15162(2) 0.66373(2) 0.01183(6) Uani 1 1 d . . . . .
Te2 Te 0.17769(3) 0.52011(3) 0.30803(2) 0.01277(6) Uani 1 1 d . . . . .
Te3 Te 0.17926(3) -0.17465(3) 0.97812(2) 0.01326(6) Uani 1 1 d . . . . .
Te4 Te 0.46186(3) 0.17301(3) 0.32481(2) 0.01295(6) Uani 1 1 d . . . . .
O1 O 0.6810(3) 0.1596(3) 0.3230(3) 0.0196(5) Uani 1 1 d . . . . .
O2 O 0.3696(3) 0.2070(3) 0.5341(3) 0.0189(5) Uani 1 1 d . . . . .
O3 O 0.4302(3) 0.4056(3) 0.2427(3) 0.0255(6) Uani 1 1 d . . . . .
O4 O 0.1931(3) 0.0903(3) 0.8377(3) 0.0164(5) Uani 1 1 d . . . . .
O5 O -0.1541(3) 0.1123(3) 0.8632(3) 0.0194(5) Uani 1 1 d . . . . .
O6 O 0.0960(3) 0.3129(3) 0.3831(3) 0.0195(5) Uani 1 1 d . . . . .
O7 O 0.5801(3) 0.1798(3) 0.0978(3) 0.0196(5) Uani 1 1 d . . . . .
O8 O 0.0787(3) 0.3772(3) 0.6528(3) 0.0186(5) Uani 1 1 d . . . . .
O9 O 0.2022(4) 0.5754(3) 0.1066(3) 0.0247(6) Uani 1 1 d . . . . .
O10 O 0.7538(5) 0.2273(5) 0.5285(4) 0.0471(9) Uani 1 1 d D . . . .
H1 H 0.715(6) 0.199(8) 0.478(6) 0.071 Uiso 1 1 d D U . . .
H2 H 0.859(3) 0.246(8) 0.480(6) 0.071 Uiso 1 1 d D U . . .
O11 O 0.5128(4) 0.7766(4) 0.2051(3) 0.0278(6) Uani 1 1 d D . . . .
H3 H 0.600(3) 0.803(6) 0.209(5) 0.042 Uiso 1 1 d D U . . .
H4 H 0.423(3) 0.799(6) 0.271(4) 0.042 Uiso 1 1 d D U . . .
O12 O 0.2025(5) 0.1862(4) 0.1443(4) 0.0415(8) Uani 1 1 d D . . . .
H5 H 0.163(7) 0.101(5) 0.151(6) 0.062 Uiso 1 1 d D U . . .
H6 H 0.149(7) 0.211(7) 0.224(4) 0.062 Uiso 1 1 d D U . . .
O13 O 0.8193(6) 0.4849(5) 0.1685(6) 0.0664(14) Uani 1 1 d D . . . .
H7 H 0.922(4) 0.505(9) 0.113(7) 0.100 Uiso 1 1 d D U . . .
H8 H 0.786(11) 0.534(16) 0.233(11) 0.100 Uiso 0.53(3) 1 d D U P . .
H9 H 0.810(11) 0.381(2) 0.210(16) 0.100 Uiso 0.47(3) 1 d D U P . .
loop_
_atom_site_aniso_label
_atom_site_aniso_U_11
_atom_site_aniso_U_22
_atom_site_aniso_U_33
_atom_site_aniso_U_23
_atom_site_aniso_U_13
_atom_site_aniso_U_12
K1 0.122(2) 0.0232(8) 0.1076(17) -0.0045(9) -0.0924(16) -0.0069(9)
Na1 0.149(4) 0.0280(15) 0.074(2) 0.0022(14) -0.089(3) -0.0117(18)
Na2 0.0307(9) 0.0213(8) 0.0252(8) -0.0083(6) -0.0042(7) -0.0044(6)
Te1 0.01247(11) 0.01076(10) 0.01151(10) -0.00361(8) -0.00404(8) 0.00005(8)
Te2 0.01528(11) 0.01023(10) 0.01124(10) -0.00288(8) -0.00413(8) -0.00026(8)
Te3 0.01408(11) 0.01314(11) 0.01142(10) -0.00462(8) -0.00402(8) 0.00133(8)
Te4 0.01199(11) 0.01046(11) 0.01431(11) -0.00298(8) -0.00435(8) 0.00051(8)
O1 0.0121(11) 0.0257(13) 0.0225(13) -0.0114(10) -0.0065(10) 0.0030(10)
O2 0.0132(11) 0.0240(13) 0.0189(12) -0.0101(10) -0.0015(10) -0.0032(10)
O3 0.0163(13) 0.0109(12) 0.0292(14) 0.0014(10) 0.0026(11) 0.0018(10)
O4 0.0212(12) 0.0139(11) 0.0139(11) -0.0027(9) -0.0086(10) 0.0004(9)
O5 0.0261(13) 0.0175(12) 0.0132(11) -0.0069(9) -0.0041(10) -0.0013(10)
O6 0.0217(13) 0.0118(12) 0.0214(12) -0.0018(9) -0.0070(10) -0.0031(10)
O7 0.0149(12) 0.0277(14) 0.0146(11) -0.0080(10) -0.0054(9) 0.0036(10)
O8 0.0166(12) 0.0108(11) 0.0263(13) -0.0055(10) -0.0077(10) 0.0022(9)
O9 0.0442(17) 0.0126(12) 0.0151(12) -0.0048(10) -0.0110(12) 0.0036(11)
O10 0.0371(19) 0.081(3) 0.0336(18) -0.0313(18) 0.0000(15) -0.0261(19)
O11 0.0278(15) 0.0294(15) 0.0306(15) -0.0110(13) -0.0121(13) -0.0058(13)
O12 0.053(2) 0.0343(18) 0.0357(18) -0.0134(14) -0.0035(16) -0.0224(16)
O13 0.087(4) 0.047(2) 0.093(4) -0.012(2) -0.069(3) -0.006(2)
loop_
_atom_type_symbol
_atom_type_description
_atom_type_scat_dispersion_real
_atom_type_scat_dispersion_imag
_atom_type_scat_source
H H 0.0000 0.0000 'International Tables Vol C Tables 4.2.6.8 and 6.1.1.4'
K K 0.2009 0.2494 'International Tables Vol C Tables 4.2.6.8 and 6.1.1.4'
Na Na 0.0362 0.0249 'International Tables Vol C Tables 4.2.6.8 and 6.1.1.4'
O O 0.0106 0.0060 'International Tables Vol C Tables 4.2.6.8 and 6.1.1.4'
Te Te -0.5308 1.6751 'International Tables Vol C Tables 4.2.6.8 and 6.1.1.4'
loop_
_geom_angle_atom_site_label_1
_geom_angle_atom_site_label_2
_geom_angle_atom_site_label_3
_geom_angle
_geom_angle_site_symmetry_1
_geom_angle_site_symmetry_3
O2 K1 O2 180.0 . 2_666
O2 K1 O10 70.63(9) . .
O2 K1 O10 109.37(9) 2_666 .
O2 K1 O10 109.37(9) . 2_666
O2 K1 O10 70.63(9) 2_666 2_666
O10 K1 O10 180.0 . 2_666
O2 K1 O11 67.90(7) . 2_666
O2 K1 O11 112.10(7) 2_666 2_666
O10 K1 O11 55.64(9) . 2_666
O10 K1 O11 124.36(9) 2_666 2_666
O2 K1 O11 112.10(7) . .
O2 K1 O11 67.90(7) 2_666 .
O10 K1 O11 124.36(9) . .
O10 K1 O11 55.64(9) 2_666 .
O11 K1 O11 180.0 2_666 .
O2 K1 O3 51.64(7) . .
O2 K1 O3 128.36(7) 2_666 .
O10 K1 O3 91.77(8) . .
O10 K1 O3 88.23(8) 2_666 .
O11 K1 O3 118.58(7) 2_666 .
O11 K1 O3 61.42(7) . .
O2 K1 O3 128.36(7) . 2_666
O2 K1 O3 51.64(7) 2_666 2_666
O10 K1 O3 88.23(8) . 2_666
O10 K1 O3 91.77(8) 2_666 2_666
O11 K1 O3 61.42(7) 2_666 2_666
O11 K1 O3 118.58(7) . 2_666
O3 K1 O3 180.0 . 2_666
O2 K1 Te2 121.31(5) . 2_666
O2 K1 Te2 58.69(5) 2_666 2_666
O10 K1 Te2 59.33(6) . 2_666
O10 K1 Te2 120.67(6) 2_666 2_666
O11 K1 Te2 59.63(6) 2_666 2_666
O11 K1 Te2 120.37(6) . 2_666
O3 K1 Te2 147.31(4) . 2_666
O3 K1 Te2 32.69(4) 2_666 2_666
O2 K1 Te2 58.69(5) . .
O2 K1 Te2 121.31(5) 2_666 .
O10 K1 Te2 120.67(6) . .
O10 K1 Te2 59.33(6) 2_666 .
O11 K1 Te2 120.37(6) 2_666 .
O11 K1 Te2 59.63(6) . .
O3 K1 Te2 32.69(4) . .
O3 K1 Te2 147.31(4) 2_666 .
Te2 K1 Te2 180.0 2_666 .
O2 K1 Te4 150.42(5) . 2_666
O2 K1 Te4 29.58(5) 2_666 2_666
O10 K1 Te4 110.52(6) . 2_666
O10 K1 Te4 69.48(7) 2_666 2_666
O11 K1 Te4 88.05(5) 2_666 2_666
O11 K1 Te4 91.95(5) . 2_666
O3 K1 Te4 152.46(4) . 2_666
O3 K1 Te4 27.54(4) 2_666 2_666
Te2 K1 Te4 51.198(4) 2_666 2_666
Te2 K1 Te4 128.802(4) . 2_666
O2 K1 Te4 29.58(5) . .
O2 K1 Te4 150.42(5) 2_666 .
O10 K1 Te4 69.48(6) . .
O10 K1 Te4 110.52(7) 2_666 .
O11 K1 Te4 91.95(5) 2_666 .
O11 K1 Te4 88.05(5) . .
O3 K1 Te4 27.54(4) . .
O3 K1 Te4 152.46(4) 2_666 .
Te2 K1 Te4 128.802(4) 2_666 .
Te2 K1 Te4 51.198(4) . .
Te4 K1 Te4 180.0 2_666 .
O2 K1 H1 57.5(7) . .
O2 K1 H1 122.5(7) 2_666 .
O10 K1 H1 16.9(4) . .
O10 K1 H1 163.1(4) 2_666 .
O11 K1 H1 63.5(10) 2_666 .
O11 K1 H1 116.5(10) . .
O3 K1 H1 75.2(5) . .
O3 K1 H1 104.8(5) 2_666 .
Te2 K1 H1 76.2(4) 2_666 .
Te2 K1 H1 103.8(4) . .
Te4 K1 H1 127.4(4) 2_666 .
Te4 K1 H1 52.6(4) . .
O2 K1 H4 113.7(9) . .
O2 K1 H4 66.3(9) 2_666 .
O10 K1 H4 140.3(4) . .
O10 K1 H4 39.7(4) 2_666 .
O11 K1 H4 164.0(4) 2_666 .
O11 K1 H4 16.0(4) . .
O3 K1 H4 67.7(8) . .
O3 K1 H4 112.3(8) 2_666 .
Te2 K1 H4 124.1(8) 2_666 .
Te2 K1 H4 55.9(8) . .
Te4 K1 H4 84.8(8) 2_666 .
Te4 K1 H4 95.2(8) . .
H1 K1 H4 131.6(11) . .
O2 K1 H8 100.8(15) . .
O2 K1 H8 79.2(16) 2_666 .
O10 K1 H8 67(3) . .
O10 K1 H8 113(3) 2_666 .
O11 K1 H8 123(3) 2_666 .
O11 K1 H8 57(3) . .
O3 K1 H8 66.1(17) . .
O3 K1 H8 113.9(17) 2_666 .
Te2 K1 H8 87(2) 2_666 .
Te2 K1 H8 93(2) . .
Te4 K1 H8 106.8(13) 2_666 .
Te4 K1 H8 73.2(13) . .
H1 K1 H8 64(3) . .
H4 K1 H8 73(3) . .
O11 Na1 O11 180.0(3) 2_665 1_545
O11 Na1 O7 91.02(9) 2_665 .
O11 Na1 O7 88.98(9) 1_545 .
O11 Na1 O7 88.98(9) 2_665 2_655
O11 Na1 O7 91.02(9) 1_545 2_655
O7 Na1 O7 180.0 . 2_655
O11 Na1 O12 80.65(10) 2_665 .
O11 Na1 O12 99.35(10) 1_545 .
O7 Na1 O12 68.75(9) . .
O7 Na1 O12 111.25(9) 2_655 .
O11 Na1 O12 99.35(10) 2_665 2_655
O11 Na1 O12 80.65(10) 1_545 2_655
O7 Na1 O12 111.25(9) . 2_655
O7 Na1 O12 68.75(9) 2_655 2_655
O12 Na1 O12 180.0 . 2_655
O11 Na1 O5 102.62(9) 2_665 2_556
O11 Na1 O5 77.38(9) 1_545 2_556
O7 Na1 O5 119.62(7) . 2_556
O7 Na1 O5 60.38(7) 2_655 2_556
O12 Na1 O5 56.53(8) . 2_556
O12 Na1 O5 123.47(8) 2_655 2_556
O11 Na1 O5 77.38(9) 2_665 1_654
O11 Na1 O5 102.62(9) 1_545 1_654
O7 Na1 O5 60.38(7) . 1_654
O7 Na1 O5 119.62(7) 2_655 1_654
O12 Na1 O5 123.47(8) . 1_654
O12 Na1 O5 56.53(8) 2_655 1_654
O5 Na1 O5 180.00(11) 2_556 1_654
O11 Na1 Na2 131.97(8) 2_665 1_545
O11 Na1 Na2 48.03(8) 1_545 1_545
O7 Na1 Na2 126.08(6) . 1_545
O7 Na1 Na2 53.92(6) 2_655 1_545
O12 Na1 Na2 136.85(7) . 1_545
O12 Na1 Na2 43.15(7) 2_655 1_545
O5 Na1 Na2 85.51(6) 2_556 1_545
O5 Na1 Na2 94.49(6) 1_654 1_545
O11 Na1 Na2 48.03(8) 2_665 2_665
O11 Na1 Na2 131.97(8) 1_545 2_665
O7 Na1 Na2 53.92(6) . 2_665
O7 Na1 Na2 126.08(6) 2_655 2_665
O12 Na1 Na2 43.15(7) . 2_665
O12 Na1 Na2 136.85(7) 2_655 2_665
O5 Na1 Na2 94.49(6) 2_556 2_665
O5 Na1 Na2 85.51(6) 1_654 2_665
Na2 Na1 Na2 180.00(7) 1_545 2_665
O11 Na1 Te3 91.26(7) 2_665 2_656
O11 Na1 Te3 88.74(7) 1_545 2_656
O7 Na1 Te3 30.74(6) . 2_656
O7 Na1 Te3 149.26(6) 2_655 2_656
O12 Na1 Te3 99.10(7) . 2_656
O12 Na1 Te3 80.90(7) 2_655 2_656
O5 Na1 Te3 148.45(5) 2_556 2_656
O5 Na1 Te3 31.55(5) 1_654 2_656
Na2 Na1 Te3 106.13(3) 1_545 2_656
Na2 Na1 Te3 73.87(3) 2_665 2_656
O11 Na1 Te3 88.74(7) 2_665 1_554
O11 Na1 Te3 91.26(7) 1_545 1_554
O7 Na1 Te3 149.26(6) . 1_554
O7 Na1 Te3 30.74(6) 2_655 1_554
O12 Na1 Te3 80.90(7) . 1_554
O12 Na1 Te3 99.10(7) 2_655 1_554
O5 Na1 Te3 31.55(5) 2_556 1_554
O5 Na1 Te3 148.45(5) 1_654 1_554
Na2 Na1 Te3 73.87(3) 1_545 1_554
Na2 Na1 Te3 106.13(3) 2_665 1_554
Te3 Na1 Te3 180.0 2_656 1_554
O12 Na2 O13 96.21(17) 2_665 .
O12 Na2 O3 174.24(14) 2_665 .
O13 Na2 O3 86.95(15) . .
O12 Na2 O9 86.29(12) 2_665 2_665
O13 Na2 O9 83.24(15) . 2_665
O3 Na2 O9 98.89(11) . 2_665
O12 Na2 O11 90.30(12) 2_665 .
O13 Na2 O11 85.47(15) . .
O3 Na2 O11 85.14(11) . .
O9 Na2 O11 167.78(13) 2_665 .
O12 Na2 O7 74.07(12) 2_665 2_665
O13 Na2 O7 164.03(14) . 2_665
O3 Na2 O7 101.76(10) . 2_665
O9 Na2 O7 108.22(10) 2_665 2_665
O11 Na2 O7 82.01(10) . 2_665
O12 Na2 Na1 58.78(10) 2_665 1_565
O13 Na2 Na1 116.78(12) . 1_565
O3 Na2 Na1 115.49(8) . 1_565
O9 Na2 Na1 140.01(8) 2_665 1_565
O11 Na2 Na1 43.85(8) . 1_565
O7 Na2 Na1 47.38(6) 2_665 1_565
O12 Na2 Na2 120.09(12) 2_665 2_665
O13 Na2 Na2 128.88(13) . 2_665
O3 Na2 Na2 60.52(9) . 2_665
O9 Na2 Na2 66.20(9) 2_665 2_665
O11 Na2 Na2 125.25(11) . 2_665
O7 Na2 Na2 66.93(8) 2_665 2_665
Na1 Na2 Na2 112.78(7) 1_565 2_665
O12 Na2 K1 124.77(10) 2_665 .
O13 Na2 K1 55.59(14) . .
O3 Na2 K1 53.55(8) . .
O9 Na2 K1 127.85(8) 2_665 .
O11 Na2 K1 46.56(8) . .
O7 Na2 K1 119.49(7) 2_665 .
Na1 Na2 K1 90.39(3) 1_565 .
Na2 Na2 K1 113.73(6) 2_665 .
O12 Na2 H8 97(2) 2_665 .
O13 Na2 H8 18.4(16) . .
O3 Na2 H8 85(2) . .
O9 Na2 H8 101.6(15) 2_665 .
O11 Na2 H8 67.1(16) . .
O7 Na2 H8 148(2) 2_665 .
Na1 Na2 H8 101(2) 1_565 .
Na2 Na2 H8 139(2) 2_665 .
K1 Na2 H8 41.5(14) . .
O4 Te1 O8 94.41(11) . .
O4 Te1 O2 93.01(11) . .
O8 Te1 O2 90.18(11) . .
O4 Te1 O5 78.85(9) . .
O8 Te1 O5 82.06(9) . .
O2 Te1 O5 168.22(9) . .
O6 Te2 O9 99.22(11) . .
O6 Te2 O8 88.29(10) . 2_566
O9 Te2 O8 87.34(11) . 2_566
O6 Te2 O3 88.08(11) . .
O9 Te2 O3 84.95(12) . .
O8 Te2 O3 170.84(11) 2_566 .
O6 Te2 K1 107.64(8) . .
O9 Te2 K1 132.73(9) . .
O8 Te2 K1 130.60(7) 2_566 .
O3 Te2 K1 58.55(8) . .
O5 Te3 O7 94.66(11) 2_557 2_656
O5 Te3 O9 89.72(10) 2_557 1_546
O7 Te3 O9 87.31(12) 2_656 1_546
O5 Te3 O4 88.79(10) 2_557 .
O7 Te3 O4 84.92(10) 2_656 .
O9 Te3 O4 171.94(11) 1_546 .
O5 Te3 Na1 55.67(8) 2_557 1_556
O7 Te3 Na1 42.52(8) 2_656 1_556
O9 Te3 Na1 102.38(8) 1_546 1_556
O4 Te3 Na1 70.31(6) . 1_556
O1 Te4 O3 99.00(12) . .
O1 Te4 O2 88.01(10) . .
O3 Te4 O2 86.77(11) . .
O1 Te4 O7 86.48(10) . .
O3 Te4 O7 84.97(11) . .
O2 Te4 O7 169.24(10) . .
O1 Te4 K1 69.36(8) . .
O3 Te4 K1 55.82(9) . .
O2 Te4 K1 41.72(7) . .
O7 Te4 K1 127.52(7) . .
Te1 O2 Te4 117.96(12) . .
Te1 O2 K1 120.96(11) . .
Te4 O2 K1 108.70(10) . .
Te4 O3 Te2 118.57(13) . .
Te4 O3 Na2 129.79(13) . .
Te2 O3 Na2 111.06(11) . .
Te4 O3 K1 96.64(11) . .
Te2 O3 K1 88.76(9) . .
Na2 O3 K1 91.34(10) . .
Te1 O4 Te3 117.11(12) . .
Te3 O5 Te1 113.47(12) 2_557 .
Te3 O5 Na1 92.78(9) 2_557 1_456
Te1 O5 Na1 153.62(10) . 1_456
Te3 O7 Te4 114.89(12) 2_656 .
Te3 O7 Na1 106.74(11) 2_656 .
Te4 O7 Na1 122.93(11) . .
Te3 O7 Na2 125.12(12) 2_656 2_665
Te4 O7 Na2 104.89(10) . 2_665
Na1 O7 Na2 78.70(8) . 2_665
Te1 O8 Te2 122.18(13) . 2_566
Te2 O9 Te3 119.48(12) . 1_564
Te2 O9 Na2 122.35(13) . 2_665
Te3 O9 Na2 113.31(11) 1_564 2_665
K1 O10 H1 83(4) . .
K1 O10 H2 119(5) . .
H1 O10 H2 109(3) . .
Na1 O11 Na2 88.11(10) 1_565 .
Na1 O11 K1 173.68(13) 1_565 .
Na2 O11 K1 97.74(10) . .
Na1 O11 H3 96(4) 1_565 .
Na2 O11 H3 105(3) . .
K1 O11 H3 84(4) . .
Na1 O11 H4 100(4) 1_565 .
Na2 O11 H4 142(3) . .
K1 O11 H4 74(4) . .
H3 O11 H4 111(3) . .
Na2 O12 Na1 78.07(11) 2_665 .
Na2 O12 H5 137(4) 2_665 .
Na1 O12 H5 76(4) . .
Na2 O12 H6 111(4) 2_665 .
Na1 O12 H6 144(4) . .
H5 O12 H6 110(3) . .
Na2 O13 H7 113(6) . .
Na2 O13 H8 102(10) . .
H7 O13 H8 109(2) . .
Na2 O13 H9 110(10) . .
H7 O13 H9 110.2(18) . .
H8 O13 H9 111(10) . .
loop_
_geom_bond_atom_site_label_1
_geom_bond_atom_site_label_2
_geom_bond_distance
_geom_bond_site_symmetry_2
K1 O2 2.847(3) .
K1 O2 2.847(3) 2_666
K1 O10 2.879(4) .
K1 O10 2.879(4) 2_666
K1 O11 3.074(3) 2_666
K1 O11 3.074(3) .
K1 O3 3.375(3) .
K1 O3 3.375(3) 2_666
K1 Te2 3.9550(3) 2_666
K1 Te2 3.9550(3) .
K1 Te4 4.0521(3) 2_666
K1 Te4 4.0521(2) .
K1 H1 2.91(6) .
K1 H4 2.95(5) .
K1 H8 2.82(6) .
Na1 O11 2.301(3) 2_665
Na1 O11 2.301(3) 1_545
Na1 O7 2.491(3) .
Na1 O7 2.491(3) 2_655
Na1 O12 2.902(4) .
Na1 O12 2.902(4) 2_655
Na1 O5 2.919(3) 2_556
Na1 O5 2.919(3) 1_654
Na1 Na2 3.3201(15) 1_545
Na1 Na2 3.3201(15) 2_665
Na1 Te3 3.5305(2) 2_656
Na1 Te3 3.5305(2) 1_554
Na2 O12 2.321(4) 2_665
Na2 O13 2.336(4) .
Na2 O3 2.413(3) .
Na2 O9 2.454(3) 2_665
Na2 O11 2.470(3) .
Na2 O7 2.736(3) 2_665
Na2 Na1 3.3201(15) 1_565
Na2 Na2 3.649(3) 2_665
Na2 H8 2.65(12) .
Te1 O4 1.894(2) .
Te1 O8 1.900(2) .
Te1 O2 1.916(2) .
Te1 O5 2.527(3) .
Te2 O6 1.840(2) .
Te2 O9 1.894(2) .
Te2 O8 2.127(2) 2_566
Te2 O3 2.136(3) .
Te3 O5 1.849(2) 2_557
Te3 O7 1.885(2) 2_656
Te3 O9 2.096(2) 1_546
Te3 O4 2.212(2) .
Te3 Na1 3.5304(3) 1_556
Te4 O1 1.849(2) .
Te4 O3 1.886(2) .
Te4 O2 2.112(2) .
Te4 O7 2.144(2) .
O5 Te3 1.849(2) 2_557
O5 Na1 2.919(3) 1_456
O7 Te3 1.885(2) 2_656
O7 Na2 2.736(3) 2_665
O8 Te2 2.127(2) 2_566
O9 Te3 2.096(2) 1_564
O9 Na2 2.454(3) 2_665
O10 H1 0.852(19) .
O10 H2 0.853(19) .
O11 Na1 2.301(3) 1_565
O11 H3 0.846(19) .
O11 H4 0.846(18) .
O12 Na2 2.321(4) 2_665
O12 H5 0.848(19) .
O12 H6 0.852(19) .
O13 H7 0.847(10) .
O13 H8 0.85(2) .
O13 H9 0.849(10) .
loop_
_geom_torsion_atom_site_label_1
_geom_torsion_atom_site_label_2
_geom_torsion_atom_site_label_3
_geom_torsion_atom_site_label_4
_geom_torsion
_geom_torsion_site_symmetry_1
_geom_torsion_site_symmetry_2
_geom_torsion_site_symmetry_3
_geom_torsion_site_symmetry_4
O1 Te4 O3 Te2 -149.60(16) . . . .
O2 Te4 O3 Te2 -62.13(16) . . . .
O7 Te4 O3 Te2 124.78(17) . . . .
K1 Te4 O3 Te2 -92.21(15) . . . .
O1 Te4 O3 Na2 39.9(2) . . . .
O2 Te4 O3 Na2 127.4(2) . . . .
O7 Te4 O3 Na2 -45.68(19) . . . .
K1 Te4 O3 Na2 97.3(2) . . . .
O1 Te4 O3 K1 -57.39(10) . . . .
O2 Te4 O3 K1 30.08(8) . . . .
O7 Te4 O3 K1 -143.01(9) . . . .
O8 Te1 O4 Te3 156.07(13) . . . .
O2 Te1 O4 Te3 -113.51(13) . . . .
O5 Te1 O4 Te3 75.07(12) . . . .
O4 Te1 O8 Te2 -111.27(15) . . . 2_566
O2 Te1 O8 Te2 155.69(15) . . . 2_566
O5 Te1 O8 Te2 -33.20(13) . . . 2_566
O6 Te2 O9 Te3 151.29(16) . . . 1_564
O8 Te2 O9 Te3 63.46(16) 2_566 . . 1_564
O3 Te2 O9 Te3 -121.49(17) . . . 1_564
K1 Te2 O9 Te3 -84.10(17) . . . 1_564
O6 Te2 O9 Na2 -55.07(18) . . . 2_665
O8 Te2 O9 Na2 -142.90(17) 2_566 . . 2_665
O3 Te2 O9 Na2 32.16(16) . . . 2_665
K1 Te2 O9 Na2 69.54(18) . . . 2_665
