#------------------------------------------------------------------------------
#$Date: 2022-03-25 12:15:25 +0200 (Fri, 25 Mar 2022) $
#$Revision: 273994 $
#$URL: file:///home/coder/svn-repositories/cod/cif/8/10/48/8104879.cif $
#------------------------------------------------------------------------------
#
# This file is available in the Crystallography Open Database (COD),
# http://www.crystallography.net/
#
# All data on this site have been placed in the public domain by the
# contributors.
#
data_8104879
loop_
_publ_author_name
'Zhang, Xiao-Fan'
'Wang, Hui-yun'
'Zhao, Sheng-Nan'
'Zhang, Sheng-Nan'
'Zhao, Feng-Lan'
'Meng, Qing-Guo'
_publ_section_title
;
 Crystal structure of
 (E)-2-(4-fluoro-3-(trifluoromethyl)benzylidene)-7-methoxy-3,4-dihydronaphthalen-1(2H)-one,
 C19H14F4O2
;
_journal_issue                   1
_journal_name_full
'Zeitschrift f\"ur Kristallographie - New Crystal Structures'
_journal_page_first              47
_journal_page_last               49
_journal_paper_doi               10.1515/ncrs-2020-0448
_journal_volume                  236
_journal_year                    2021
_chemical_formula_moiety         'C19 H14 F4 O2'
_chemical_formula_sum            'C19 H14 F4 O2'
_chemical_formula_weight         350.30
_space_group_crystal_system      triclinic
_space_group_IT_number           2
_space_group_name_Hall           '-P 1'
_space_group_name_H-M_alt        'P -1'
_atom_sites_solution_hydrogens   geom
_cell_angle_alpha                73.186(7)
_cell_angle_beta                 76.184(7)
_cell_angle_gamma                69.512(7)
_cell_formula_units_Z            2
_cell_length_a                   8.1539(7)
_cell_length_b                   8.8584(6)
_cell_length_c                   11.8025(9)
_cell_measurement_reflns_used    2344
_cell_measurement_temperature    99.99(10)
_cell_measurement_theta_max      29.1420
_cell_measurement_theta_min      2.6790
_cell_volume                     755.39(11)
_computing_cell_refinement       'CrysAlisPro 1.171.38.43f (Rigaku OD, 2017)'
_computing_data_collection       'CrysAlisPro 1.171.38.43f (Rigaku OD, 2017)'
_computing_data_reduction        'CrysAlisPro 1.171.38.43f (Rigaku OD, 2017)'
_computing_molecular_graphics    'Bruker SHELXTL'
_computing_publication_material  'Bruker SHELXTL'
_computing_structure_refinement  'SHELXL-2017/1 (Sheldrick, 2017)'
_computing_structure_solution    'SHELXL-2017/1 (Sheldrick, 2017)'
_diffrn_ambient_temperature      99.99(10)
_diffrn_detector_area_resol_mean 5.2684
_diffrn_measured_fraction_theta_full 0.997
_diffrn_measured_fraction_theta_max 0.997
_diffrn_measurement_device_type  'SuperNova, Dual, Cu at zero, AtlasS2'
_diffrn_measurement_method       'four-circle diffractometer'
_diffrn_radiation_type           MoK\a
_diffrn_radiation_wavelength     0.71073
_diffrn_reflns_av_R_equivalents  0.0442
_diffrn_reflns_av_unetI/netI     0.0733
_diffrn_reflns_Laue_measured_fraction_full 0.997
_diffrn_reflns_Laue_measured_fraction_max 0.997
_diffrn_reflns_limit_h_max       9
_diffrn_reflns_limit_h_min       -9
_diffrn_reflns_limit_k_max       10
_diffrn_reflns_limit_k_min       -9
_diffrn_reflns_limit_l_max       13
_diffrn_reflns_limit_l_min       -14
_diffrn_reflns_number            4729
_diffrn_reflns_point_group_measured_fraction_full 0.997
_diffrn_reflns_point_group_measured_fraction_max 0.997
_diffrn_reflns_theta_full        25.242
_diffrn_reflns_theta_max         25.490
_diffrn_reflns_theta_min         2.520
_diffrn_source                   'micro-focus sealed X-ray tube'
_exptl_absorpt_coefficient_mu    0.132
_exptl_absorpt_correction_T_max  1.00000
_exptl_absorpt_correction_T_min  0.54773
_exptl_absorpt_correction_type   multi-scan
_exptl_absorpt_process_details
;
CrysAlisPro 1.171.38.43f (Rigaku Oxford Diffraction, 2015)
Empirical absorption correction using spherical harmonics,
 implemented in SCALE3 ABSPACK scaling algorithm.
;
_exptl_crystal_colour            colourless
_exptl_crystal_density_diffrn    1.540
_exptl_crystal_description       block
_exptl_crystal_F_000             360
_exptl_crystal_size_max          0.130
_exptl_crystal_size_mid          0.120
_exptl_crystal_size_min          0.110
_refine_diff_density_max         0.274
_refine_diff_density_min         -0.371
_refine_diff_density_rms         0.059
_refine_ls_extinction_coef       .
_refine_ls_extinction_method     none
_refine_ls_goodness_of_fit_ref   1.011
_refine_ls_hydrogen_treatment    constr
_refine_ls_matrix_type           full
_refine_ls_number_parameters     227
_refine_ls_number_reflns         2802
_refine_ls_number_restraints     0
_refine_ls_restrained_S_all      1.011
_refine_ls_R_factor_all          0.0572
_refine_ls_R_factor_gt           0.0436
_refine_ls_shift/su_max          0.000
_refine_ls_shift/su_mean         0.000
_refine_ls_structure_factor_coef Fsqd
_refine_ls_weighting_details
'w=1/[\s^2^(Fo^2^)+(0.0322P)^2^] where P=(Fo^2^+2Fc^2^)/3'
_refine_ls_weighting_scheme      calc
_refine_ls_wR_factor_gt          0.0867
_refine_ls_wR_factor_ref         0.0965
_reflns_Friedel_coverage         0.000
_reflns_Friedel_fraction_full    .
_reflns_Friedel_fraction_max     .
_reflns_number_gt                2165
_reflns_number_total             2802
_reflns_threshold_expression     'I > 2\s(I)'
_cod_data_source_file            suppl_j_ncrs-2020-0448_suppl.cif
_cod_data_source_block           F1-2
_cod_database_code               8104879
_shelx_space_group_comment
;
The symmetry employed for this shelxl refinement is uniquely defined
by the following loop, which should always be used as a source of
symmetry information in preference to the above space-group names.
They are only intended as comments.
;
_shelx_estimated_absorpt_t_min   0.983
_shelx_estimated_absorpt_t_max   0.986
_shelx_res_file
;
TITL F1-2 in P-1
    F1-2.res
    created by SHELXL-2017/1 at 15:34:23 on 27-Jun-2020
CELL 0.71073   8.1539   8.8584  11.8025  73.186  76.184  69.512
ZERR   2.00   0.0007   0.0006   0.0009   0.007   0.007   0.007
LATT 1
SFAC C  H  O  F
UNIT 38 28 4 8
omit 9 6 5
omit 6 0 3
omit 9 4 3
omit -3 -3 3
OMIT  -3.00  51.00
L.S. 20
ACTA
BOND $H
FMAP 2
PLAN 20
HTAB C16 F4_$2
EQIV $2 x-1, y, z
HTAB C8 F4_$1
EQIV $1 -x+1, -y+1, -z+1
size 0.13 0.12 0.11
htab
conf
WGHT    0.032200
FVAR       0.28591
MOLE 1
C1    1    0.298829    0.330536    0.486838    11.00000    0.01064    0.01451 =
         0.01448   -0.00096   -0.00537   -0.00327
C2    1    0.192921    0.376461    0.601239    11.00000    0.01258    0.01428 =
         0.01152   -0.00038   -0.00452   -0.00320
C3    1    0.055595    0.289983    0.664724    11.00000    0.01606    0.01910 =
         0.01243   -0.00254   -0.00163   -0.00823
AFIX  23
H3A   2   -0.046055    0.336418    0.622769    11.00000   -1.20000
H3B   2    0.016091    0.308112    0.745352    11.00000   -1.20000
AFIX   0
C4    1    0.130741    0.103655    0.670460    11.00000    0.01508    0.01837 =
         0.01626    0.00049   -0.00347   -0.00909
AFIX  23
H4A   2    0.218474    0.054304    0.724099    11.00000   -1.20000
H4B   2    0.036067    0.053469    0.702984    11.00000   -1.20000
AFIX   0
C5    1    0.215322   -0.073331    0.519300    11.00000    0.01778    0.01349 =
         0.02161    0.00174   -0.00882   -0.00667
AFIX  43
H5    2    0.158663   -0.145004    0.574691    11.00000   -1.20000
AFIX   0
C6    1    0.297832   -0.110330    0.409353    11.00000    0.01945    0.01552 =
         0.02460   -0.00590   -0.00992   -0.00406
AFIX  43
H6    2    0.296071   -0.205323    0.391527    11.00000   -1.20000
AFIX   0
C7    1    0.383261   -0.004400    0.325894    11.00000    0.01333    0.01912 =
         0.01707   -0.00605   -0.00605   -0.00130
C8    1    0.383826    0.136517    0.353596    11.00000    0.01276    0.01409 =
         0.01699   -0.00120   -0.00543   -0.00479
AFIX  43
H8    2    0.441305    0.207256    0.297862    11.00000   -1.20000
AFIX   0
C9    1    0.299720    0.174194    0.463591    11.00000    0.01138    0.01178 =
         0.01532   -0.00102   -0.00703   -0.00285
C10   1    0.214439    0.067530    0.549570    11.00000    0.01155    0.01599 =
         0.01617    0.00064   -0.00821   -0.00410
C11   1    0.232995    0.486914    0.638563    11.00000    0.01560    0.01566 =
         0.01291    0.00022   -0.00367   -0.00622
AFIX  43
H11   2    0.328592    0.521549    0.592644    11.00000   -1.20000
AFIX   0
C12   1    0.145457    0.560049    0.742439    11.00000    0.01830    0.01031 =
         0.01246    0.00109   -0.00479   -0.00447
C13   1    0.246906    0.600784    0.803186    11.00000    0.01424    0.01177 =
         0.01622   -0.00016   -0.00180   -0.00493
AFIX  43
H13   2    0.368496    0.577884    0.778324    11.00000   -1.20000
AFIX   0
C14   1    0.168868    0.674530    0.899554    11.00000    0.01594    0.00912 =
         0.01253    0.00047   -0.00464   -0.00449
C15   1   -0.012735    0.711870    0.933353    11.00000    0.02054    0.01173 =
         0.01181   -0.00337   -0.00135   -0.00306
C16   1   -0.116920    0.678487    0.873775    11.00000    0.01297    0.01358 =
         0.01801   -0.00085   -0.00352   -0.00117
AFIX  43
H16   2   -0.239140    0.706603    0.896725    11.00000   -1.20000
AFIX   0
C17   1   -0.036927    0.602422    0.779183    11.00000    0.01721    0.01377 =
         0.01537   -0.00110   -0.00715   -0.00518
AFIX  43
H17   2   -0.106861    0.578852    0.738910    11.00000   -1.20000
AFIX   0
C18   1    0.274720    0.718544    0.965699    11.00000    0.01867    0.01680 =
         0.01318   -0.00196   -0.00128   -0.00634
C19   1    0.447490   -0.156169    0.174804    11.00000    0.03375    0.02725 =
         0.02853   -0.01682   -0.00834   -0.00632
AFIX 137
H19A  2    0.496952   -0.260926    0.226263    11.00000   -1.50000
H19B  2    0.507533   -0.155696    0.094191    11.00000   -1.50000
H19C  2    0.323735   -0.138634    0.177394    11.00000   -1.50000
AFIX   0
F1    4   -0.090111    0.784480    1.027014    11.00000    0.02103    0.02550 =
         0.01875   -0.01167    0.00063   -0.00444
F2    4    0.262924    0.641042    1.082695    11.00000    0.02655    0.02563 =
         0.01303   -0.00071   -0.00488   -0.01264
F3    4    0.222467    0.880308    0.962097    11.00000    0.03521    0.01435 =
         0.02871   -0.00607   -0.01018   -0.00967
F4    4    0.448081    0.676367    0.921552    11.00000    0.01745    0.03139 =
         0.02154   -0.00798   -0.00060   -0.01290
O1    3    0.377966    0.421307    0.413291    11.00000    0.02393    0.01908 =
         0.01614   -0.00336    0.00136   -0.01283
O2    3    0.468685   -0.027130    0.214320    11.00000    0.02571    0.02488 =
         0.02148   -0.01462   -0.00075   -0.00918
HKLF 4




REM  F1-2 in P-1
REM R1 =  0.0436 for    2165 Fo > 4sig(Fo)  and  0.0572 for all    2802 data
REM    227 parameters refined using      0 restraints

END

WGHT      0.0325      0.0000

REM Instructions for potential hydrogen bonds
HTAB C8 F4_$1
HTAB C16 F4_$2

REM Highest difference peak  0.274,  deepest hole -0.371,  1-sigma level  0.059
Q1    1   0.1253  0.3400  0.6259  11.00000  0.05    0.27
Q2    1   0.3718  0.1234  0.1402  11.00000  0.05    0.25
Q3    1   0.1969  0.5445  0.7932  11.00000  0.05    0.24
Q4    1   0.2434  0.3793  0.6469  11.00000  0.05    0.22
Q5    1   0.5785  0.1185  0.1821  11.00000  0.05    0.22
Q6    1  -0.0567  0.6546  0.9180  11.00000  0.05    0.21
Q7    1   0.2159  0.7598  0.9051  11.00000  0.05    0.20
Q8    1   0.2910 -0.0759  0.2006  11.00000  0.05    0.20
Q9    1   0.0812  0.2007  0.6606  11.00000  0.05    0.20
Q10   1   0.1812  0.6501  0.7507  11.00000  0.05    0.20
Q11   1   0.0111  0.3276  0.6068  11.00000  0.05    0.19
Q12   1   0.4552  0.3411  0.3568  11.00000  0.05    0.19
Q13   1   0.2931  0.1069  0.5166  11.00000  0.05    0.18
Q14   1   0.4210  0.4850  0.8404  11.00000  0.05    0.18
Q15   1   0.2320  0.6604  0.9401  11.00000  0.05    0.18
Q16   1   0.3782 -0.0501  0.0749  11.00000  0.05    0.18
Q17   1   0.3134  0.0964  0.3418  11.00000  0.05    0.18
Q18   1   0.2328  0.1428  0.5025  11.00000  0.05    0.17
Q19   1   0.2446  0.5021  0.9800  11.00000  0.05    0.17
Q20   1   0.1834  0.0369  0.5258  11.00000  0.05    0.17
;
_shelx_hkl_file
;
   0   0   2  148.64    3.30
   0   0  -2  144.52    3.25
   0   0  -3   27.31    1.28
   0   0   3   30.98    1.37
   0   0   4    1.48    0.33
   0   0  -4    1.33    0.31
   0   0  -5    1.43    0.35
   0   0   5    1.63    0.39
   0   0   6   22.75    1.65
   0   0  -6   21.44    1.55
   0   0  -6   23.23    1.68
   0   0  -7  108.16    4.20
   0   0  -7   97.76    3.87
   0   0   8   14.64    1.54
   0   0  -8   15.82    1.62
   0   0  -8   13.95    1.43
   0   0  -9    2.56    0.65
   0   0   9    3.36    0.78
   0   0  -9    3.38    0.79
   0   0 -10    0.63    0.38
   0   0 -11    2.26    0.68
   0   0 -12    3.22    0.87
   0   0 -13    2.63    0.84
   0   0 -14    2.24    0.83
   0   0 -15    2.27    0.82
   0   1 -14   10.38    1.73
   0   1 -13    2.04    0.75
   0   1 -12    5.65    1.16
   0   1 -11   -0.50    0.33
   0   1 -10   18.70    1.92
   0   1  -9   17.09    1.73
   0   1  -8   32.84    2.28
   0  -1   8   32.52    2.41
   0   1  -7    1.66    0.47
   0  -1   7    1.47    0.48
   0   1  -6   66.33    2.95
   0  -1   5   50.94    2.43
   0   1  -5   50.84    2.36
   0   1  -4   71.71    2.65
   0  -1   4   71.73    2.69
   0  -1   3   61.36    2.19
   0   1  -3   60.41    2.15
   0   1  -2  165.03    3.79
   0  -1   2  163.29    3.81
   0   1  -1    9.48    0.57
   0   1   0    1.46    0.19
   0   1   1   82.86    2.03
   0   1   2   65.75    1.95
   0  -1  -2   68.75    2.00
   0   1   3   20.55    1.11
   0  -1  -3   20.91    1.15
   0  -1  -4   26.24    1.46
   0   1   4   24.31    1.36
   0  -1  -4   24.18    1.34
   0  -1  -5   55.17    2.44
   0  -1  -5   48.94    2.21
   0  -1  -6  163.15    4.92
   0  -1  -6  181.80    5.39
   0  -1  -7    5.58    0.83
   0  -1  -7    7.28    1.03
   0  -1  -8    0.03    0.07
   0  -1  -8    0.07    0.11
   0  -1  -9    1.04    0.41
   0  -1  -9    0.88    0.42
   0  -1 -10    0.89    0.40
   0  -1 -11    7.30    1.21
   0  -1 -12    1.50    0.59
   0  -1 -13    4.12    1.01
   0  -1 -14    0.03    0.30
   0  -1 -15    0.03    0.20
   0   2 -14    1.44    0.66
   0   2 -13   -0.17    0.38
   0   2 -12    0.33    0.26
   0   2 -11    0.02    0.13
   0   2 -10    5.79    1.09
   0   2  -9   25.08    2.18
   0   2  -8    0.14    0.21
   0   2  -7    3.93    0.75
   0  -2   7    4.13    0.81
   0   2  -6   -0.01    0.07
   0  -2   6    0.09    0.13
   0   2  -5   10.04    1.05
   0   2  -4   57.53    2.47
   0  -2   4   58.84    2.56
   0  -2   3    0.04    0.05
   0   2  -3    0.14    0.14
   0  -2   2  382.80    7.99
   0   2  -2  403.56    8.15
   0   2  -1  857.41   15.27
   0  -2   1  824.28   15.09
   0   2   0   11.64    0.78
   0   2   1   14.61    0.90
   0   2   2   43.73    1.73
   0  -2  -3   31.36    1.55
   0   2   3   31.67    1.56
   0  -2  -4   38.02    1.90
   0   2   4   35.68    1.81
   0  -2  -5   86.58    3.28
   0   2   5   79.34    3.06
   0  -2  -6    0.73    0.28
   0   2   6    0.89    0.31
   0  -2  -6    1.06    0.37
   0  -2  -7    1.65    0.49
   0  -2  -7    1.26    0.40
   0  -2  -8    0.97    0.45
   0  -2  -8    0.51    0.27
   0  -2  -9    4.71    0.96
   0  -2  -9    3.35    0.75
   0  -2 -10   11.32    1.44
   0  -2 -11    0.32    0.29
   0  -2 -12    0.02    0.15
   0  -2 -13    0.86    0.44
   0  -2 -14    0.01    0.21
   0  -2 -15    0.25    0.41
   0   3 -13    4.49    1.15
   0   3 -12    8.37    1.52
   0   3 -11    0.20    0.25
   0   3 -10   32.00    2.73
   0   3  -9   18.73    1.97
   0   3  -8   -0.02    0.08
   0   3  -7   13.83    1.51
   0  -3   7   12.11    1.47
   0   3  -6    5.43    0.89
   0  -3   6    4.97    0.88
   0  -3   5   34.19    2.20
   0   3  -5   39.22    2.33
   0   3  -4   19.33    1.52
   0  -3   3   98.24    3.47
   0   3  -3  102.71    3.64
   0  -3   2    0.65    0.23
   0   3  -2    0.64    0.25
   0   3  -1   79.81    2.78
   0  -3   1   76.15    2.72
   0   3  -1   77.68    2.89
   0   3   0  101.34    3.22
   0   3   1   30.82    1.61
   0   3   2    0.58    0.23
   0   3   3    0.69    0.28
   0   3   4    0.47    0.20
   0  -3  -4    0.71    0.12
   0  -3  -4    0.66    0.26
   0  -3  -5  175.17    5.26
   0   3   5  170.39    5.15
   0   3   6  139.52    4.74
   0  -3  -6  145.22    4.98
   0  -3  -7   88.09    3.97
   0   3   7   84.44    3.68
   0  -3  -8   24.57    2.13
   0   3   8   23.98    1.94
   0  -3  -8   23.03    1.89
   0  -3  -9    1.64    0.52
   0  -3 -10    5.12    0.98
   0  -3 -11    7.33    1.22
   0  -3 -12    0.32    0.30
   0  -3 -13    1.05    0.49
   0  -3 -14   12.64    1.90
   0  -3 -15    0.60    0.48
   0   4 -12    3.83    1.08
   0   4 -11    5.48    1.23
   0   4 -10   18.66    2.20
   0   4  -9    7.33    1.29
   0   4  -8    5.85    1.10
   0   4  -7    3.27    0.78
   0   4  -6   15.37    1.63
   0  -4   5    1.35    0.47
   0   4  -5    0.87    0.38
   0   4  -4   90.51    3.89
   0  -4   4   86.23    3.67
   0   4  -3  107.16    4.12
   0  -4   3  100.29    3.81
   0   4  -2   52.76    2.70
   0   4  -2   54.15    2.59
   0   4  -1   19.12    1.47
   0   4   0  108.33    3.79
   0   4   1   41.82    2.20
   0   4   2   94.75    5.11
   0   4   2  290.24    6.17
   0   4   3   16.39    1.37
   0   4   4   24.29    1.76
   0   4   5    0.20    0.15
   0  -4  -5    0.10    0.15
   0   4   6   10.56    1.24
   0  -4  -6   10.38    1.25
   0  -4  -6   10.90    0.65
   0  -4  -7    0.19    0.21
   0   4   7    0.38    0.26
   0  -4  -7    0.42    0.16
   0   4   8    0.63    0.35
   0  -4  -8    0.42    0.20
   0   4   9    0.18    0.18
   0  -4  -9    0.14    0.22
   0  -4 -10   -0.05    0.09
   0   4  10   -0.05    0.07
   0  -4 -11    8.83    1.40
   0  -4 -12    5.71    1.17
   0  -4 -13    1.04    0.47
   0  -4 -14   -0.06    0.18
   0  -4 -15    3.19    1.03
   0   5 -11    2.81    0.95
   0   5 -10    1.85    0.76
   0   5  -9    3.55    0.95
   0   5  -8    8.25    1.43
   0   5  -7    0.71    0.42
   0   5  -6    0.59    0.36
   0   5  -5   38.01    2.76
   0   5  -4    5.36    0.98
   0   5  -3   15.45    1.62
   0  -5   3   13.97    1.43
   0   5  -3   16.74    1.60
   0  -5   2   34.85    2.25
   0   5  -2   37.50    2.41
   0   5  -1    4.94    0.83
   0  -5   1    5.14    0.82
   0   5   0   14.93    1.44
   0  -5   0   13.91    1.34
   0   5   1    0.55    0.28
   0  -5  -1    0.85    0.33
   0  -5  -1    0.37    0.22
   0  -5  -2   23.64    1.77
   0   5   2   11.28    1.83
   0   5   3    7.93    1.06
   0  -5  -3    6.04    0.91
   0  -5  -4   43.60    2.59
   0   5   4   44.86    2.63
   0   5   5   67.55    3.42
   0  -5  -5   66.72    3.38
   0   5   6    0.25    0.21
   0  -5  -6    0.20    0.21
   0   5   7   37.53    2.65
   0   5   8   22.42    2.09
   0  -5  -8   22.03    1.00
   0   5   9   24.83    2.32
   0  -5  -9   29.97    1.48
   0  -5 -10   34.68    1.85
   0   5  10   28.43    2.53
   0   5  11    2.14    0.73
   0  -5 -11    2.71    0.58
   0  -5 -11    1.74    0.64
   0  -5 -12    0.16    0.19
   0  -5 -13    1.50    0.64
   0  -5 -14    0.00    0.16
   0   6 -10    0.40    0.36
   0   6  -9    0.49    0.45
   0   6  -8    1.31    0.60
   0   6  -7    4.09    1.05
   0   6  -6    3.32    0.94
   0   6  -5   99.38    4.81
   0   6  -5   99.30    5.09
   0   6  -4   67.32    3.79
   0   6  -3   42.40    2.92
   0   6  -2   12.23    1.49
   0   6  -1    0.32    0.27
   0   6   0    4.05    0.83
   0   6   1   37.80    2.58
   0  -6  -1   36.59    2.46
   0  -6  -2   30.71    2.16
   0   6   2   30.34    2.27
   0  -6  -2   29.04    2.18
   0   6   3   43.31    1.44
   0   6   3   27.46    2.26
   0   6   4    0.72    0.36
   0   6   5    1.87    0.57
   0   6   6   32.30    2.56
   0   6   7   15.69    1.82
   0   6   8    8.52    1.36
   0   6   9    6.36    1.24
   0   6  10    1.30    0.61
   0   6  11   17.86    2.16
   0   6  12    2.78    0.89
   0  -6 -12    2.49    0.87
   0  -6 -13    2.05    0.77
   0  -6 -14    3.83    1.08
   0   7  -9   -0.18    0.29
   0   7  -9    0.22    0.18
   0   7  -8    4.39    1.18
   0   7  -8    3.49    1.09
   0   7  -7    4.48    1.12
   0   7  -7    5.05    1.27
   0   7  -6   15.64    2.09
   0   7  -5    2.65    0.84
   0   7  -4    1.48    0.60
   0   7  -3   40.20    3.09
   0   7  -2   18.23    2.02
   0   7  -1    0.02    0.12
   0   7   0    5.10    1.03
   0   7   1    1.68    0.58
   0   7   2   14.46    1.71
   0   7   3   15.86    0.88
   0   7   3    9.69    1.44
   0   7   4    5.66    1.08
   0   7   5    3.87    0.95
   0   7   6   38.09    2.99
   0   7   7    9.12    1.49
   0   7   8    2.72    0.83
   0   7   9    0.88    0.51
   0   7  10    0.21    0.29
   0   7  11    2.21    0.82
   0   7  12   10.98    1.85
   0   7  13   28.92    3.09
   0  -7 -13   28.74    3.02
   0   8  -7    0.19    0.23
   0   8  -6   13.96    2.12
   0   8  -5   25.93    2.81
   0   8  -4    3.61    1.04
   0   8  -3   36.23    3.19
   0   8  -2   10.49    1.69
   0   8  -1    4.13    1.03
   0   8   0    0.32    0.27
   0   8   1    0.31    0.28
   0   8   2    0.85    0.97
   0   8   2    0.31    0.30
   0   8   3    1.83    0.67
   0   8   3    3.24    0.42
   0   8   4    9.07    1.49
   0   8   5    2.19    0.74
   0   8   6    1.33    0.58
   0   8   7    5.84    1.26
   0   8   8    8.23    1.54
   0   8   9    1.35    0.65
   0   8  10    0.90    0.57
   0   8  11    3.00    1.02
   0   9  -5   11.84    2.03
   0   9  -4    1.43    0.71
   0   9  -3   -0.10    0.21
   0   9  -2    2.07    0.79
   0   9  -1    0.47    0.29
   0   9   0    1.90    0.72
   0   9   1   23.73    2.65
   0   9   2   12.90    1.94
   0   9   3   14.48    2.07
   0   9   4    5.29    1.24
   0   9   5    0.35    0.29
   0   9   6    0.21    0.23
   0   9   7    1.51    0.66
   0   9   8   -0.27    0.30
   0   9   9    7.69    1.62
   0   9  10    0.38    0.36
   0  10  -2    0.52    0.34
   0  10  -1    5.33    1.39
   0  10   0    9.43    1.82
   0  10   1    3.14    1.03
   0  10   2    0.01    0.21
   0  10   3    0.95    0.60
   0  10   4    2.27    0.87
   0  10   5    7.18    1.58
   0  10   6    3.39    1.10
   0  10   7    2.69    0.99
  -1  10   4    0.26    0.33
  -1  10   3    0.22    0.22
  -1  10   2    0.32    0.32
  -1  10   1   -0.14    0.25
  -1  10   0    1.10    0.64
  -1   9   8    6.85    1.55
  -1   9   7    0.15    0.19
  -1   9   6    3.31    1.05
  -1   9   5    1.24    0.64
  -1   9   4    1.19    0.65
  -1   9   3    1.24    0.59
  -1   9   2    8.42    1.59
  -1   9   1    0.02    0.30
  -1   9   0    1.80    0.80
  -1   9  -1    0.07    0.28
  -1   9  -2    0.12    0.16
  -1   9  -3    1.58    0.75
  -1   9  -4    2.48    0.87
  -1   9  -5    2.98    0.96
  -1   8  10    0.54    0.43
  -1   8   9    2.62    0.90
  -1   8   8    6.34    1.40
  -1   8   7    7.56    1.49
  -1   8   6   77.96    4.90
  -1   8   5    1.88    0.73
  -1   8   4    0.10    0.15
  -1   8   3    0.42    0.42
  -1   8   2    0.03    0.05
  -1   8   2    0.00    0.18
  -1   8   1    3.63    0.97
  -1   8   0    3.11    0.90
  -1   8  -1    0.10    0.21
  -1   8  -2   14.10    1.96
  -1   8  -3    1.65    0.71
  -1   8  -4    2.08    0.77
  -1   8  -5    0.45    0.46
  -1   8  -6   -0.03    0.25
  -1   8  -7    2.22    0.85
  -1   8  -8    0.66    0.41
   1  -7 -12    8.35    1.64
  -1   7  11    0.01    0.18
  -1   7  10    6.26    1.39
  -1   7   9    1.67    0.74
  -1   7   8    0.89    0.52
  -1   7   7    0.90    0.55
  -1   7   6    0.43    0.42
  -1   7   5    2.80    0.84
  -1   7   4   -0.02    0.11
  -1   7   3    0.36    0.30
  -1   7   2    6.07    1.16
  -1   7   2    6.03    0.60
  -1   7   1    0.16    0.23
  -1   7   0   -0.03    0.12
  -1   7  -1   -0.05    0.21
  -1   7  -2   34.70    2.85
  -1   7  -3   12.42    1.71
  -1   7  -4   22.67    2.37
  -1   7  -5    1.43    0.62
  -1   7  -6    0.05    0.19
  -1   7  -7    3.68    1.00
  -1   7  -8    0.97    0.55
  -1   7  -9    3.17    1.02
   1  -6 -13   -0.18    0.39
  -1   6  12    5.34    1.29
   1  -6 -12    5.00    1.23
   1  -6 -11    0.38    0.35
  -1   6  11    0.56    0.44
  -1   6  10    2.19    0.78
  -1   6   9    1.13    0.56
  -1   6   8   19.67    2.19
  -1   6   7  144.67    6.16
  -1   6   6   32.69    2.71
  -1   6   5   77.78    4.19
  -1   6   4    1.97    0.66
  -1   6   3   12.70    1.55
  -1   6   2   64.21    2.04
  -1   6   2   66.31    3.64
  -1   6   1    1.88    0.56
  -1   6   0    4.11    0.86
  -1   6  -1   -0.07    0.15
  -1   6  -2    3.17    0.77
  -1   6  -3    0.13    0.11
  -1   6  -4    0.81    0.41
  -1   6  -5    0.27    0.26
  -1   6  -6    0.15    0.21
  -1   6  -7    2.85    0.84
  -1   6  -8    0.21    0.26
  -1   6  -8    0.09    0.12
  -1   6  -9   19.54    2.32
  -1   6  -9   17.49    2.35
  -1   6 -10    4.88    1.19
  -1   6 -10    3.87    1.17
  -1   6 -11    7.65    1.55
   1  -5 -13    6.71    1.42
   1  -5 -12    2.80    0.86
  -1   5  11    4.56    1.10
   1  -5 -11    4.19    1.03
   1  -5 -10    6.95    0.76
  -1   5  10    5.68    1.16
   1  -5 -10    6.73    1.25
   1  -5  -9   -0.01    0.22
   1  -5  -9   -0.03    0.03
  -1   5   9    0.27    0.34
  -1   5   8    0.14    0.14
  -1   5   7   22.42    2.14
  -1   5   6   34.77    2.61
  -1   5   5    6.96    1.12
   1  -5  -4    9.76    1.25
  -1   5   4    9.64    1.27
  -1   5   3   49.93    2.86
   1  -5  -3   50.76    2.86
  -1   5   2   11.88    0.67
  -1   5   2   13.22    1.41
   1  -5  -2   12.97    1.35
   1  -5  -1   80.17    3.51
  -1   5   1   83.92    3.73
   1  -5   0    0.74    0.32
  -1   5   0    0.68    0.32
   1  -5   1   35.77    2.29
  -1   5  -1   39.61    2.49
   1  -5   2   15.97    1.50
  -1   5  -2   16.96    1.60
   1  -5   3    7.89    1.07
  -1   5  -3    8.89    1.18
  -1   5  -4    7.35    1.11
  -1   5  -5    3.79    0.81
  -1   5  -5    3.77    0.86
  -1   5  -6    8.23    1.33
  -1   5  -6    7.82    1.20
  -1   5  -7   10.46    1.57
  -1   5  -8    0.50    0.36
  -1   5  -9    2.18    0.76
  -1   5 -10    1.06    0.57
  -1   5 -11    5.20    1.28
  -1   5 -12    1.60    0.76
   1  -4 -14   -0.10    0.34
   1  -4 -13   -0.19    0.19
   1  -4 -12   -0.12    0.29
   1  -4 -11    0.37    0.33
  -1   4  10    9.76    1.50
   1  -4 -10    9.72    1.47
  -1   4   9   14.37    1.72
   1  -4  -9   13.46    1.65
  -1   4   8    0.52    0.27
   1  -4  -7    5.65    1.30
  -1   4   7   18.68    1.85
   1  -4  -6    3.07    0.71
   1  -4  -6    2.81    0.29
   1  -4  -6    3.31    0.35
  -1   4   6    2.61    0.66
  -1   4   5    7.54    1.08
   1  -4  -5    8.27    1.13
  -1   4   4    0.45    0.25
  -1   4   3   57.23    2.87
  -1   4   2    1.67    0.19
  -1   4   2    1.95    0.48
  -1   4   1    0.37    0.21
  -1   4   0   11.01    1.12
  -1   4  -1    1.49    0.41
  -1   4  -2    2.48    0.54
   1  -4   3   21.77    1.64
  -1   4  -3   24.20    1.76
   1  -4   4    3.25    0.65
  -1   4  -4    3.39    0.71
  -1   4  -4    4.24    0.74
  -1   4  -5    0.06    0.18
   1  -4   5    0.00    0.14
   1  -4   6    5.30    0.94
  -1   4  -6    5.51    0.98
  -1   4  -7    0.48    0.29
  -1   4  -8    0.13    0.17
  -1   4  -9   -0.05    0.16
  -1   4 -10    5.03    1.13
  -1   4 -11    6.59    1.34
  -1   4 -12    3.61    1.01
  -1   4 -13    5.53    1.37
   1  -3 -14    1.22    0.55
   1  -3 -13    1.02    0.50
   1  -3 -12    1.15    0.54
   1  -3 -11    1.30    0.50
   1  -3 -10    3.80    0.90
   1  -3  -9   -0.09    0.15
   1  -3  -8    1.31    0.48
  -1   3   8    0.60    0.29
  -1   3   7    9.06    1.19
   1  -3  -7    9.91    1.33
   1  -3  -6    0.98    0.41
  -1   3   6    0.92    0.36
  -1   3   5    4.96    0.82
  -1   3   4   24.17    1.75
   1  -3  -4   27.67    0.89
  -1   3   3   16.47    1.35
  -1   3   2   16.29    1.27
   1  -3  -2   15.75    1.22
  -1   3   1  126.29    2.92
   1  -3  -1  122.19    3.78
  -1   3   1  125.64    3.91
  -1   3   0   17.98    1.26
   1  -3   0   17.96    1.22
  -1   3  -1   70.14    2.66
   1  -3   1   67.39    2.63
  -1   3  -2    2.04    0.42
   1  -3   2    2.09    0.42
  -1   3  -3   15.29    1.20
   1  -3   3   13.96    1.15
  -1   3  -3   14.19    1.24
  -1   3  -4  186.53    5.51
  -1   3  -5   12.49    1.28
   1  -3   5   12.37    1.26
   1  -3   6    0.63    0.29
  -1   3  -6    0.49    0.26
   1  -3   7   16.85    1.66
  -1   3  -7   15.24    1.55
  -1   3  -8    0.10    0.16
  -1   3  -9    2.72    0.73
  -1   3 -10    1.48    0.57
  -1   3 -11    5.11    1.11
  -1   3 -12    0.16    0.14
  -1   3 -13    1.77    0.73
  -1   3 -14   -0.21    0.26
   1  -2 -14    1.28    0.60
   1  -2 -13    7.43    1.44
   1  -2 -12    2.81    0.83
   1  -2 -11   79.68    4.43
   1  -2 -10   13.61    1.66
   1  -2  -9    8.79    1.27
   1  -2  -8    0.71    0.38
   1  -2  -8    0.86    0.38
   1  -2  -7    4.39    0.80
   1  -2  -7    4.87    0.92
   1  -2  -6    0.47    0.29
   1  -2  -6    0.70    0.31
  -1   2   6    0.54    0.28
  -1   2   5   93.74    3.60
  -1   2   4   83.83    3.22
  -1   2   3   50.94    2.19
   1  -2  -3   28.28    1.85
  -1   2   2    5.29    0.63
   1  -2  -2    4.61    0.27
   1  -2  -1    5.57    0.59
  -1   2   1    5.06    0.33
  -1   2   1    5.28    0.58
  -1   2   0   41.55    1.69
   1  -2   0   41.23    1.64
  -1   2  -1   35.66    1.53
   1  -2   1   33.54    1.51
   1  -2   2   64.72    2.26
  -1   2  -2   69.10    2.42
  -1   2  -2   71.17    2.31
   1  -2   3    0.24    0.13
  -1   2  -3    0.46    0.19
  -1   2  -4   50.26    2.20
   1  -2   4   47.39    2.16
  -1   2  -5   72.87    2.92
   1  -2   5   69.56    2.92
  -1   2  -6   20.51    1.57
  -1   2  -7   15.30    1.43
   1  -2   7   14.65    1.48
  -1   2  -8    8.10    1.10
   1  -2   8    8.03    1.16
  -1   2  -9    1.27    0.46
  -1   2 -10   54.89    3.35
  -1   2 -11   52.65    3.43
  -1   2 -12    0.47    0.25
  -1   2 -13    3.91    1.00
  -1   2 -14    1.34    0.65
   1  -1 -14    0.07    0.32
   1  -1 -13    2.12    0.74
   1  -1 -12    5.78    1.19
   1  -1 -11    1.60    0.61
   1  -1 -10    0.57    0.35
   1  -1  -9    0.03    0.15
   1  -1  -8    1.43    0.54
   1  -1  -8    2.11    0.58
   1  -1  -7   34.67    2.27
   1  -1  -7   38.45    2.59
   1  -1  -6   98.83    4.01
   1  -1  -6   87.18    3.58
   1  -1  -5   75.61    3.21
   1  -1  -5   70.94    2.97
   1  -1  -4    8.92    0.89
  -1   1   4    9.03    0.91
  -1   1   3    3.05    0.47
  -1   1   2   13.85    0.93
  -1   1   1   97.54    2.71
   1  -1  -1  100.97    2.17
   1  -1  -1   95.61    2.69
  -1   1   0   97.93    2.41
   1  -1   0   96.05    2.37
  -1   1   0   96.98    2.23
  -1   1  -1  511.76    9.01
   1  -1   1  488.11    9.05
   1  -1   1  503.90    8.93
  -1   1  -2  642.30   11.46
   1  -1   2  629.73   11.37
  -1   1  -3    9.08    0.69
   1  -1   3    9.17    0.69
   1  -1   4   19.43    1.19
  -1   1  -4   18.60    1.12
  -1   1  -5   14.73    1.11
   1  -1   5   13.93    1.13
  -1   1  -6    0.81    0.29
   1  -1   6    0.74    0.28
  -1   1  -7   30.14    1.92
   1  -1   8    3.93    0.77
  -1   1  -8    3.22    0.67
   1  -1   9    0.94    0.42
  -1   1  -9    0.86    0.38
  -1   1 -10    1.90    0.59
  -1   1 -11    0.09    0.11
  -1   1 -12    3.35    0.85
  -1   1 -13    2.25    0.78
  -1   1 -14    0.49    0.31
  -1   1 -15    0.23    0.34
   1   0 -14    5.10    1.23
   1   0 -13    1.54    0.67
   1   0 -12   16.13    2.03
   1   0 -11   10.14    1.53
   1   0 -10   12.14    1.58
   1   0  -9    9.40    1.32
   1   0  -8    0.06    0.09
   1   0  -8    0.22    0.25
  -1   0   7    6.87    1.03
   1   0  -7    5.36    0.88
   1   0  -7    6.98    1.05
   1   0  -6   18.35    1.62
   1   0  -6   17.45    1.50
  -1   0   5   56.17    2.63
   1   0  -5   49.98    2.43
   1   0  -5   51.45    2.58
  -1   0   4    4.85    0.66
   1   0  -4    3.97    0.59
   1   0  -4    4.64    0.67
   1   0  -3   60.97    2.27
   1   0  -2    0.86    0.21
  -1   0   1    2.86    0.32
   1   0  -1    2.88    0.32
  -1   0   0    1.76    0.19
   1   0   0    1.73    0.19
   1   0   0    1.77    0.20
  -1   0   0    2.01    0.23
  -1   0  -1   90.54    2.23
   1   0   2    6.70    0.38
  -1   0  -2    6.74    0.37
   1   0   3   47.98    1.54
  -1   0  -3   47.46    1.52
  -1   0  -4  101.98    2.88
   1   0   4  106.50    2.95
  -1   0  -5    6.66    0.69
   1   0   5    6.84    0.73
  -1   0  -6   68.31    2.71
   1   0   6   74.05    2.90
  -1   0  -7   62.39    2.77
  -1   0  -7   59.57    2.83
   1   0   7   65.10    2.92
  -1   0  -8   43.14    2.45
   1   0   8   44.98    2.60
  -1   0  -8   45.76    2.62
  -1   0  -9   38.62    2.58
   1   0   9   39.69    2.62
  -1   0  -9   37.39    2.42
  -1   0 -10    0.60    0.32
  -1   0 -10    0.82    0.37
  -1   0 -11    0.98    0.41
  -1   0 -12    3.31    0.84
  -1   0 -13    0.20    0.29
  -1   0 -14    1.40    0.61
  -1   0 -15    3.62    0.99
   1   1 -14    0.04    0.23
   1   1 -13    6.02    1.29
   1   1 -12    3.41    0.94
   1   1 -11    1.83    0.67
   1   1 -10   -0.14    0.18
   1   1  -9   24.97    2.22
   1   1  -8   18.45    1.78
   1   1  -7   29.00    2.15
  -1  -1   7   30.53    2.28
  -1  -1   6   15.88    1.51
   1   1  -6   13.16    1.33
   1   1  -5   78.77    3.21
  -1  -1   4   82.95    3.13
   1   1  -4   80.29    3.05
   1   1  -3   51.63    2.16
   1   1  -2  317.65    6.70
   1   1  -1  443.02    8.36
   1   1   0   48.61    1.37
  -1  -1   0   50.22    1.39
  -1  -1  -1   63.37    1.46
   1   1   1   62.85    1.64
  -1  -1  -1   67.52    1.68
   1   1   1   63.15    1.50
  -1  -1  -2   58.85    1.71
  -1  -1  -2   59.23    1.51
   1   1   2   56.30    1.72
   1   1   2   58.96    1.50
  -1  -1  -3  213.86    4.40
   1   1   3  205.73    4.35
  -1  -1  -4   73.67    2.25
  -1  -1  -4   73.34    2.30
   1   1   4   69.40    2.19
  -1  -1  -5   29.82    1.54
  -1  -1  -5   26.10    1.40
  -1  -1  -6   86.47    3.06
  -1  -1  -6   92.21    3.29
  -1  -1  -7   56.78    2.71
  -1  -1  -7   51.67    2.46
  -1  -1  -8   15.15    1.48
  -1  -1  -8   13.60    1.31
  -1  -1  -9    6.96    1.08
  -1  -1  -9    6.09    0.93
  -1  -1 -10   12.66    1.57
  -1  -1 -10   11.49    1.37
  -1  -1 -11    2.43    0.67
  -1  -1 -12    1.94    0.63
  -1  -1 -13    2.63    0.77
  -1  -1 -14    0.41    0.40
  -1  -1 -15    0.04    0.35
   1   2 -13    4.50    1.16
   1   2 -12    0.26    0.21
   1   2 -11   10.49    1.61
   1   2 -10    9.19    1.44
   1   2  -9  112.56    5.06
   1   2  -8   67.17    3.63
  -1  -2   7   14.11    1.58
   1   2  -7   14.26    1.51
  -1  -2   6   19.74    1.76
   1   2  -6   19.44    1.67
   1   2  -5   15.81    1.41
  -1  -2   4    4.53    0.70
   1   2  -4    4.77    0.71
   1   2  -3    0.27    0.16
   1   2  -2   44.21    1.91
   1   2  -1  195.76    4.62
  -1  -2   0   72.58    2.16
   1   2   0   71.50    2.21
  -1  -2  -1   58.60    1.86
   1   2   1   61.76    1.92
   1   2   2    5.05    0.39
   1   2   2    5.05    0.48
  -1  -2  -2    5.51    0.50
  -1  -2  -2    6.13    0.45
  -1  -2  -3  120.90    2.87
   1   2   3  117.53    3.14
  -1  -2  -3  123.13    3.19
   1   2   4    0.13    0.09
  -1  -2  -4    0.06    0.07
  -1  -2  -4    0.02    0.04
   1   2   5    8.19    0.81
  -1  -2  -5    7.79    0.81
   1   2   6   34.62    1.84
  -1  -2  -6   39.59    2.08
  -1  -2  -6   36.87    1.88
  -1  -2  -7   22.32    1.69
  -1  -2  -7   17.88    1.41
  -1  -2  -8    4.06    0.79
  -1  -2  -8    3.06    0.62
  -1  -2  -9    0.76    0.34
  -1  -2  -9    0.98    0.43
  -1  -2 -10    2.88    0.75
  -1  -2 -10    2.36    0.61
  -1  -2 -11    9.38    1.33
  -1  -2 -12    0.34    0.29
  -1  -2 -13   11.88    1.66
  -1  -2 -14   -0.01    0.12
  -1  -2 -15    4.30    1.11
  -1  -2 -16    0.13    0.34
   1   3 -13    1.32    0.63
   1   3 -12   -0.04    0.16
   1   3 -11    2.71    0.86
   1   3 -10    1.76    0.65
   1   3  -9    2.70    0.77
   1   3  -8    0.09    0.16
   1   3  -7    2.02    0.59
  -1  -3   6   24.62    2.08
   1   3  -6   23.49    1.93
  -1  -3   5    2.26    0.57
   1   3  -5    2.52    0.59
   1   3  -4   39.15    2.24
  -1  -3   4   34.75    2.17
   1   3  -3   98.50    3.60
   1   3  -2   45.30    2.18
   1   3  -1   64.26    2.54
   1   3   0   24.68    1.44
   1   3   1    0.43    0.17
   1   3   1    0.04    0.26
  -1  -3  -1    0.61    0.20
   1   3   2   68.22    2.54
  -1  -3  -2   69.04    2.52
  -1  -3  -3    0.08    0.07
   1   3   3    0.10    0.07
  -1  -3  -3    0.03    0.07
  -1  -3  -4   73.84    2.03
  -1  -3  -4   69.89    2.69
   1   3   4   72.84    2.71
  -1  -3  -5   25.69    1.63
  -1  -3  -5   25.12    1.23
   1   3   5   25.59    1.60
  -1  -3  -6    9.93    0.90
  -1  -3  -6    9.88    1.06
   1   3   6    9.10    0.99
  -1  -3  -7    8.53    0.97
   1   3   7    6.53    0.89
  -1  -3  -7    8.21    1.04
  -1  -3  -8    7.69    1.10
  -1  -3  -8    7.23    0.97
   1   3   8    6.64    0.93
  -1  -3  -9   46.48    2.94
  -1  -3  -9   42.76    2.60
  -1  -3 -10    7.13    1.09
  -1  -3 -11    0.00    0.09
  -1  -3 -12    0.42    0.35
  -1  -3 -13    3.11    0.85
  -1  -3 -14    3.81    1.00
  -1  -3 -15    0.66    0.46
  -1  -3 -16   -0.22    0.46
   1   4 -12   -0.02    0.13
   1   4 -11   17.72    2.29
   1   4 -10    6.27    1.28
   1   4  -9   12.28    1.71
   1   4  -8    4.00    0.93
   1   4  -7    0.75    0.39
   1   4  -6    0.88    0.40
  -1  -4   5    0.94    0.42
   1   4  -5    0.65    0.32
  -1  -4   4   21.86    1.81
   1   4  -4   22.77    1.87
   1   4  -3   15.09    1.43
  -1  -4   3   13.07    1.30
   1   4  -2  168.08    5.26
   1   4  -1    5.30    0.78
   1   4   0   28.80    1.76
  -1  -4  -1   36.28    1.91
   1   4   1   37.30    1.98
   1   4   2  153.45    4.69
  -1  -4  -2  152.05    4.57
   1   4   3   28.65    1.09
  -1  -4  -3   27.65    1.69
   1   4   3   28.59    1.73
   1   4   4    1.37    0.23
  -1  -4  -4    1.59    0.36
   1   4   4    2.09    0.47
  -1  -4  -4    1.77    0.43
  -1  -4  -5    5.23    0.46
  -1  -4  -5    4.23    0.70
   1   4   5    4.45    0.72
  -1  -4  -6   15.02    0.90
   1   4   6   15.73    1.42
  -1  -4  -6   15.31    1.42
  -1  -4  -7    7.86    0.76
  -1  -4  -7    8.92    1.16
   1   4   7    6.95    1.00
  -1  -4  -8   19.23    1.79
  -1  -4  -8   18.17    1.36
   1   4   8   16.74    1.63
   1   4   9   11.46    1.37
  -1  -4  -9    9.56    1.12
  -1  -4  -9   12.20    1.50
  -1  -4  -9   10.79    1.31
  -1  -4 -10   30.34    2.23
   1   4  10   25.12    2.18
  -1  -4 -10   28.52    2.27
  -1  -4 -11    3.55    0.84
  -1  -4 -11    3.29    0.79
  -1  -4 -12    8.66    1.40
  -1  -4 -12    8.52    1.36
  -1  -4 -13    0.45    0.32
  -1  -4 -13    0.43    0.38
  -1  -4 -14    3.52    0.95
  -1  -4 -14    4.64    1.14
  -1  -4 -15    0.13    0.19
  -1  -4 -16   13.54    2.08
   1   5 -11    4.37    1.18
   1   5 -10    1.37    0.63
   1   5  -9    1.14    0.54
   1   5  -8    0.06    0.26
   1   5  -7    3.72    0.92
   1   5  -6    4.83    1.00
   1   5  -5   20.53    2.02
   1   5  -4  105.69    4.68
   1   5  -3    0.27    0.21
  -1  -5   3    0.33    0.24
   1   5  -2    4.81    0.86
  -1  -5   2    5.11    0.83
   1   5  -1    0.42    0.26
  -1  -5   1    0.38    0.21
   1   5  -1    0.27    0.21
   1   5   0   32.58    2.13
   1   5   1   52.08    2.68
   1   5   2    5.01    0.80
   1   5   2    2.83    0.74
  -1  -5  -2    5.27    0.80
   1   5   3   27.99    1.20
   1   5   3   22.43    1.73
  -1  -5  -3   23.19    1.73
   1   5   4    0.27    0.10
  -1  -5  -4    0.06    0.07
   1   5   5    4.66    0.81
  -1  -5  -5    5.40    0.85
  -1  -5  -6    1.53    0.29
  -1  -5  -6    1.39    0.47
   1   5   6    1.36    0.45
   1   5   7    4.41    0.84
  -1  -5  -7    3.56    0.42
  -1  -5  -7    3.98    0.80
   1   5   8  164.86    6.04
  -1  -5  -8  180.55    4.39
  -1  -5  -9   14.55    1.13
   1   5   9   14.73    1.66
   1   5  10    1.33    0.56
  -1  -5 -10    1.17    0.37
  -1  -5 -11    2.22    0.67
   1   5  11    2.39    0.71
  -1  -5 -11    2.09    0.52
  -1  -5 -12    0.32    0.28
  -1  -5 -12    0.04    0.13
  -1  -5 -13    0.62    0.43
  -1  -5 -13    0.57    0.37
  -1  -5 -14    1.21    0.59
  -1  -5 -15    2.47    0.85
   1   6 -10    4.63    1.26
   1   6  -9    5.67    1.34
   1   6  -8   18.60    2.33
   1   6  -7   17.41    2.17
   1   6  -6    0.75    0.48
   1   6  -5    5.06    1.10
   1   6  -4   35.54    2.82
   1   6  -3   20.81    2.09
   1   6  -3   21.87    2.03
   1   6  -2   12.32    1.48
   1   6  -1    1.81    0.56
   1   6   0   57.85    3.21
  -1  -6   0   55.95    2.99
   1   6   1   64.05    3.36
  -1  -6  -1   60.27    3.12
  -1  -6  -2    4.64    0.83
   1   6   2    2.05    0.79
   1   6   2    3.29    0.72
   1   6   3    2.70    0.43
   1   6   3    1.83    0.54
  -1  -6  -3    1.77    0.50
   1   6   4   29.48    2.25
   1   6   4   27.90    1.09
  -1  -6  -4   30.95    2.23
   1   6   5    6.93    1.07
  -1  -6  -5    7.20    1.09
   1   6   6    1.88    0.58
   1   6   7   30.91    2.46
   1   6   8   97.24    4.76
  -1  -6  -8  115.12    3.19
   1   6   9   -0.04    0.16
  -1  -6  -9    0.22    0.13
   1   6  10    1.71    0.62
  -1  -6 -10    2.75    0.43
   1   6  11    0.99    0.49
  -1  -6 -11    1.09    0.31
  -1  -6 -12    3.96    0.99
   1   6  12    4.69    1.11
  -1  -6 -13    0.79    0.45
   1   6  13    0.22    0.21
  -1  -6 -14   27.01    2.84
  -1  -6 -15    0.53    0.46
   1   7  -8    0.31    0.40
   1   7  -7    0.56    0.52
   1   7  -6   17.21    2.29
   1   7  -5   35.51    3.01
   1   7  -5   35.25    3.17
   1   7  -4   18.19    2.18
   1   7  -4   18.82    2.12
   1   7  -3    6.38    1.18
   1   7  -2   72.88    4.14
   1   7  -1   13.50    1.69
   1   7   0   24.93    2.26
   1   7   1    1.58    0.55
   1   7   1    0.52    0.69
   1   7   2    1.20    0.63
   1   7   2    0.99    0.42
   1   7   3    0.20    0.12
   1   7   3    0.37    0.30
   1   7   4    7.67    1.24
   1   7   4    7.93    0.57
   1   7   5    0.16    0.19
   1   7   6    7.37    1.23
   1   7   7    4.24    0.97
   1   7   8   -0.01    0.08
   1   7   9    0.26    0.28
   1   7  10    4.72    1.10
   1   7  11    0.10    0.17
   1   7  12    6.34    1.36
  -1  -7 -13    4.51    1.14
   1   7  13    5.00    1.19
  -1  -7 -14    4.97    1.26
   1   8  -7   -0.13    0.27
   1   8  -7    0.22    0.20
   1   8  -6    3.36    1.03
   1   8  -5   19.19    2.41
   1   8  -4    6.12    1.33
   1   8  -3    1.42    0.66
   1   8  -2    9.70    1.59
   1   8  -1    8.38    1.44
   1   8   0    1.56    0.62
   1   8   1    3.51    0.91
   1   8   2    6.70    1.53
   1   8   2   10.03    1.54
   1   8   3    4.31    0.63
   1   8   3    2.44    0.75
   1   8   4    0.79    0.44
   1   8   4    0.96    0.20
   1   8   5    0.00    0.10
   1   8   6    2.82    0.82
   1   8   7    0.77    0.48
   1   8   8    5.88    1.25
   1   8   9    0.89    0.49
   1   8  10    2.66    0.88
   1   8  11    1.31    0.69
   1   8  12    1.69    0.74
   1   9  -5    1.97    0.85
   1   9  -4    3.23    1.05
   1   9  -3    0.08    0.24
   1   9  -2    2.06    0.81
   1   9  -1   14.63    2.10
   1   9   0    0.14    0.19
   1   9   1    0.92    0.52
   1   9   2   15.68    2.08
   1   9   3    2.59    0.87
   1   9   4   17.87    2.25
   1   9   5    1.22    0.58
   1   9   6    0.70    0.40
   1   9   7    6.54    1.41
   1   9   8   -0.04    0.16
   1   9   9    9.47    1.75
   1   9  10    4.17    1.17
   1   9  11    0.76    0.55
   1  10  -2    2.48    0.93
   1  10  -1   -0.11    0.17
   1  10   0   10.74    1.89
   1  10   1    0.92    0.56
   1  10   2    0.14    0.25
   1  10   3   14.22    2.18
   1  10   4    3.20    0.99
   1  10   5    1.86    0.75
   1  10   6    7.81    1.61
   1  10   7    1.12    0.61
   1  10   8    2.96    1.02
  -2   9   6    0.74    0.41
  -2   9   5    1.22    0.59
  -2   9   4    5.33    1.38
  -2   9   3    3.06    1.01
  -2   9   2    7.06    1.50
  -2   9   1   11.37    1.93
  -2   9   0    0.00    0.15
  -2   9  -1    0.83    0.55
  -2   9  -2    0.07    0.15
  -2   9  -3    1.14    0.65
  -2   9  -4    4.46    1.24
  -2   9  -5    2.25    0.90
  -2   8   9    0.17    0.17
  -2   8   8   -0.06    0.18
  -2   8   7    0.23    0.10
  -2   8   6    2.40    0.89
  -2   8   5    0.42    0.44
  -2   8   4    0.21    0.25
  -2   8   3   33.68    3.16
  -2   8   2    2.78    0.86
  -2   8   1    0.35    0.31
  -2   8   0    5.38    1.22
  -2   8  -1    8.32    1.23
  -2   8  -1    8.11    1.52
  -2   8  -2    1.52    0.68
  -2   8  -3   11.96    1.86
  -2   8  -4   34.69    3.25
  -2   8  -5   11.43    1.88
  -2   8  -6    2.79    0.92
  -2   8  -7    0.77    0.47
  -2   7  10   -0.28    0.30
  -2   7   9    0.84    0.53
  -2   7   8    3.91    1.06
  -2   7   7   10.98    1.79
  -2   7   6    0.83    0.49
  -2   7   5    0.50    0.35
  -2   7   4   35.40    3.05
  -2   7   3    1.54    0.58
  -2   7   2    0.19    0.10
  -2   7   2    0.44    0.29
  -2   7   1    1.08    0.50
  -2   7   1    1.28    0.33
  -2   7   0    9.33    1.11
  -2   7   0    9.86    1.53
  -2   7  -1    0.20    0.18
  -2   7  -1    0.13    0.15
  -2   7  -2    0.28    0.28
  -2   7  -3    4.00    0.97
  -2   7  -4   -0.05    0.23
  -2   7  -5    9.83    1.64
  -2   7  -6    1.00    0.49
  -2   7  -7    2.00    0.78
  -2   7  -8   -0.28    0.31
  -2   6  11    0.20    0.30
   2  -6 -11    0.44    0.46
  -2   6  10    0.42    0.39
  -2   6   9    5.55    1.27
  -2   6   8    0.32    0.37
  -2   6   7    2.16    0.74
  -2   6   6    1.17    0.54
  -2   6   5   22.57    2.30
  -2   6   4    0.16    0.13
  -2   6   3    1.03    0.47
  -2   6   2    0.28    0.11
  -2   6   2    0.25    0.23
  -2   6   1    2.30    0.42
  -2   6   1    1.84    0.60
  -2   6   0   12.13    1.55
  -2   6   0   11.45    1.16
  -2   6  -1    3.76    0.85
  -2   6  -2    0.06    0.13
  -2   6  -3    0.08    0.22
  -2   6  -4   15.73    1.83
  -2   6  -5    8.97    1.39
  -2   6  -6    0.09    0.11
  -2   6  -7    5.44    1.13
  -2   6  -8    2.80    0.83
  -2   6  -9    0.13    0.21
  -2   6 -10   -0.58    0.49
   2  -5 -12   19.98    2.51
   2  -5 -11    4.25    1.15
   2  -5 -10    2.68    0.86
  -2   5  10    1.11    0.59
  -2   5   9    0.95    0.49
  -2   5   8    2.01    0.69
  -2   5   7    9.88    1.50
  -2   5   6   33.24    2.67
  -2   5   5    2.49    0.71
  -2   5   4   45.24    2.99
  -2   5   3    0.45    0.30
  -2   5   2   11.98    0.70
   2  -5  -2   11.36    1.34
  -2   5   2   12.15    1.43
  -2   5   1   -0.06    0.12
   2  -5  -1    0.13    0.18
  -2   5   1    0.09    0.11
  -2   5   0   12.96    1.14
   2  -5   0   10.73    1.29
   2  -5   0   13.26    1.36
  -2   5   0   12.33    1.41
  -2   5  -1    1.74    0.50
   2  -5   1    1.58    0.49
   2  -5   2   10.39    1.25
  -2   5  -2   12.28    1.40
  -2   5  -3   14.19    1.53
   2  -5   3   12.24    1.36
  -2   5  -4    3.75    0.80
  -2   5  -5    6.96    1.12
  -2   5  -6    4.97    0.99
  -2   5  -7    0.12    0.14
  -2   5  -8   20.93    2.15
  -2   5  -9   10.71    1.69
  -2   5  -9   12.33    1.69
  -2   5 -10    1.46    0.59
  -2   5 -10    1.53    0.66
  -2   5 -11    0.22    0.49
   2  -4 -13    1.39    0.64
   2  -4 -12    0.57    0.39
   2  -4 -11    0.25    0.33
   2  -4 -10    3.12    0.89
   2  -4  -9    6.59    1.21
  -2   4   9    5.79    1.15
   2  -4  -8    9.76    1.24
  -2   4   8    8.01    1.30
   2  -4  -7    5.98    0.62
  -2   4   7    4.31    0.94
  -2   4   6   15.34    1.71
   2  -4  -6   18.02    0.78
  -2   4   5   13.23    1.54
   2  -4  -5   12.51    1.49
   2  -4  -4   12.93    1.45
  -2   4   4   13.51    1.50
   2  -4  -3    0.41    0.23
  -2   4   3    0.59    0.31
  -2   4   2   12.60    0.73
  -2   4   2   10.17    1.20
   2  -4  -2   11.45    1.24
  -2   4   1    0.00    0.13
   2  -4  -1    0.05    0.12
  -2   4   1   -0.03    0.06
  -2   4   0  160.22    5.19
  -2   4   0  158.67    4.40
  -2   4  -1    2.61    0.56
   2  -4   1    2.23    0.52
   2  -4   2   42.71    2.37
  -2   4  -2   46.02    2.50
  -2   4  -3    0.66    0.28
   2  -4   3    0.22    0.17
   2  -4   4    0.05    0.08
  -2   4  -4    0.01    0.09
   2  -4   5    3.34    0.70
  -2   4  -5    4.41    0.80
  -2   4  -6   30.34    2.20
  -2   4  -6   29.19    2.30
   2  -4   6   27.82    2.14
  -2   4  -7    1.06    0.45
  -2   4  -7    0.81    0.40
  -2   4  -8   10.98    1.52
  -2   4  -9    1.93    0.65
  -2   4 -10    0.43    0.36
  -2   4 -11    8.08    1.48
  -2   4 -12    4.63    1.16
   2  -3 -13    0.80    0.47
   2  -3 -12    1.21    0.61
   2  -3 -11    0.34    0.27
   2  -3 -10    8.74    1.44
   2  -3  -9   19.10    2.05
   2  -3  -8    0.15    0.18
  -2   3   8   -0.06    0.14
   2  -3  -8   -0.08    0.65
   2  -3  -7    0.82    0.37
  -2   3   7    1.19    0.46
   2  -3  -7    0.42    0.63
  -2   3   6    1.60    0.53
   2  -3  -6    0.79    0.37
   2  -3  -6    1.57    0.52
  -2   3   5    5.06    0.90
   2  -3  -5    7.34    0.66
   2  -3  -5    5.15    0.91
  -2   3   4    0.13    0.13
   2  -3  -4    0.17    0.08
   2  -3  -4    0.18    0.19
  -2   3   3   -0.02    0.06
   2  -3  -3    0.09    0.06
  -2   3   2    0.05    0.11
  -2   3   2    0.09    0.10
  -2   3   1    4.61    0.45
  -2   3   1    4.71    0.71
   2  -3  -1    4.59    0.68
  -2   3   0    0.65    0.25
   2  -3   0    0.63    0.23
  -2   3   0    0.65    0.21
  -2   3  -1   19.00    1.37
  -2   3  -1   19.08    1.35
   2  -3   1   18.77    1.29
  -2   3  -2  153.43    4.45
   2  -3   2  141.08    4.30
  -2   3  -3    0.49    0.22
   2  -3   3    0.21    0.14
  -2   3  -4    5.06    0.72
  -2   3  -5    0.28    0.18
  -2   3  -5    0.17    0.20
   2  -3   6    6.46    0.93
  -2   3  -6    6.17    0.94
  -2   3  -7   24.71    1.98
   2  -3   7   23.34    1.93
  -2   3  -8   14.58    1.60
   2  -3   8   11.24    1.42
  -2   3  -9    0.09    0.15
  -2   3 -10    0.96    0.43
  -2   3 -11    0.45    0.39
  -2   3 -12    4.91    1.14
  -2   3 -13   17.36    2.26
   2  -2 -13    0.60    0.37
   2  -2 -12   -0.11    0.27
   2  -2 -11    1.00    0.47
   2  -2 -10    1.60    0.59
   2  -2  -9    4.92    1.00
   2  -2  -8    0.01    0.08
   2  -2  -7   36.18    2.51
  -2   2   6   18.64    1.71
   2  -2  -6   20.03    1.89
   2  -2  -6   19.90    1.73
  -2   2   5   72.41    3.20
   2  -2  -5   27.29    3.70
   2  -2  -4   97.26    3.84
  -2   2   4  100.16    3.83
  -2   2   3    2.59    0.53
   2  -2  -3    3.42    0.42
   2  -2  -3    2.31    0.50
  -2   2   2   34.76    1.87
   2  -2  -2   35.71    1.25
   2  -2  -2   34.02    1.83
  -2   2   1    5.95    0.49
  -2   2   1    6.41    0.73
   2  -2  -1    5.99    0.54
   2  -2  -1    5.53    0.67
   2  -2   0   16.54    1.09
  -2   2   0   16.22    0.95
  -2   2   0   17.93    1.17
   2  -2   1    3.29    0.44
  -2   2  -1    3.06    0.48
  -2   2  -1    2.70    0.43
  -2   2  -2  141.30    3.73
   2  -2   2  133.38    3.70
   2  -2   3   97.94    3.06
  -2   2  -3  105.58    3.11
  -2   2  -4    1.52    0.33
  -2   2  -4    1.92    0.42
   2  -2   4    1.25    0.32
   2  -2   5    4.47    0.66
  -2   2  -5    5.10    0.71
  -2   2  -6   26.70    1.77
  -2   2  -7    2.21    0.52
   2  -2   8    0.23    0.24
  -2   2  -8    0.51    0.29
   2  -2   9   -0.20    0.19
  -2   2  -9    0.08    0.13
  -2   2 -10   29.53    2.37
  -2   2 -11    9.68    1.41
  -2   2 -12    3.93    0.95
  -2   2 -13    2.90    0.86
   2  -1 -13    3.36    0.98
   2  -1 -12    8.49    1.51
   2  -1 -11    9.30    1.53
   2  -1 -10    9.95    1.49
   2  -1  -9   20.11    2.02
   2  -1  -8   16.31    1.74
   2  -1  -7    1.06    0.43
   2  -1  -7    1.37    0.51
   2  -1  -6    2.29    0.62
   2  -1  -6    1.42    0.45
   2  -1  -5   29.12    1.97
   2  -1  -4   31.70    4.18
   2  -1  -4   90.83    3.32
  -2   1   3    1.30    0.35
   2  -1  -3    1.04    0.32
   2  -1  -3    0.56    0.34
   2  -1  -2   80.22    2.81
  -2   1   2   76.23    2.72
   2  -1  -1   43.31    1.83
  -2   1   1   40.89    1.80
   2  -1  -1   44.13    1.54
  -2   1   0   77.04    2.34
   2  -1   0   71.46    2.19
  -2   1   0   74.78    2.17
   2  -1   0   70.73    2.20
  -2   1  -1  256.45    5.67
  -2   1  -1  264.42    5.32
   2  -1   1  256.83    5.24
  -2   1  -2   55.62    1.67
  -2   1  -2   56.57    2.31
   2  -1   2   50.72    1.68
   2  -1   3   52.53    1.76
  -2   1  -3   55.58    1.72
   2  -1   4    0.06    0.05
  -2   1  -4    0.28    0.14
  -2   1  -5    4.72    0.58
   2  -1   5    4.39    0.57
  -2   1  -6    2.69    0.48
   2  -1   6    2.90    0.53
   2  -1   7   18.12    1.46
  -2   1  -7   17.86    1.37
  -2   1  -8   32.20    2.02
  -2   1  -9   19.57    1.67
   2  -1   9   17.45    1.69
   2  -1  10    3.11    0.76
  -2   1 -10    3.14    0.71
  -2   1 -10    3.02    0.75
  -2   1 -11   10.79    1.39
  -2   1 -12    4.48    0.96
  -2   1 -13    8.50    1.40
  -2   1 -14    4.02    1.00
   2   0 -13   11.99    1.92
   2   0 -12    0.41    0.38
   2   0 -11    1.93    0.69
   2   0 -10    4.86    1.05
   2   0  -9    0.92    0.42
   2   0  -8    3.11    0.76
   2   0  -7   28.78    2.32
   2   0  -7   26.75    2.13
   2   0  -6    3.67    0.73
   2   0  -6    4.00    0.81
   2   0  -5   -0.17    0.14
   2   0  -4    0.06    0.11
   2   0  -3   23.85    1.50
   2   0  -2    1.35    0.31
   2   0  -2    0.76    0.54
   2   0  -2    1.22    0.30
   2   0  -1   39.52    1.58
   2   0  -1   38.07    1.58
   2   0   0  140.24    3.43
   2   0   0  142.51    3.55
   2   0   1  656.05   11.36
  -2   0  -1  661.33   12.09
   2   0   1  650.65   12.16
  -2   0  -1  672.14   11.38
   2   0   2 1000.00   16.53
  -2   0  -2  992.23   17.84
   2   0   2  960.41   18.01
  -2   0  -3   71.10    2.73
  -2   0  -3   73.22    1.76
   2   0   3   73.04    1.78
   2   0   4    0.00    0.02
  -2   0  -4    0.02    0.02
   2   0   5    9.50    0.76
  -2   0  -5   10.03    0.74
   2   0   6    6.28    0.71
  -2   0  -6    5.89    0.65
  -2   0  -7   12.44    1.11
  -2   0  -7   12.71    1.08
   2   0   7   12.33    1.12
  -2   0  -8    2.33    0.53
  -2   0  -8    2.19    0.49
  -2   0  -9   14.42    1.44
  -2   0  -9   14.85    1.40
   2   0   9   15.84    1.52
   2   0  10    1.65    0.53
  -2   0 -10    2.44    0.66
  -2   0 -10    2.20    0.55
  -2   0 -11    2.97    0.77
  -2   0 -11    3.30    0.74
  -2   0 -12    6.62    1.12
  -2   0 -13   42.73    3.09
  -2   0 -14    0.68    0.45
   2   1 -13    3.26    0.99
   2   1 -12    1.43    0.67
   2   1 -11    0.15    0.21
   2   1 -10    1.57    0.59
   2   1  -9   41.96    3.03
   2   1  -8   12.40    1.54
   2   1  -7  212.30    6.85
   2   1  -6    4.44    0.81
  -2  -1   6    4.37    0.84
   2   1  -5    5.64    0.86
   2   1  -4    8.85    0.99
  -2  -1   3    0.45    0.22
   2   1  -3    0.27    0.16
   2   1  -2   66.04    2.47
  -2  -1   2   68.75    2.52
  -2  -1   1  168.47    4.02
   2   1  -1  167.30    3.99
  -2  -1   0   33.72    1.28
   2   1   0   34.23    1.27
   2   1   1    2.85    0.25
  -2  -1  -1    3.34    0.43
  -2  -1  -1    2.78    0.26
  -2  -1  -2   76.08    2.34
   2   1   3   92.31    1.97
   2   1   3   90.70    3.01
  -2  -1  -3   93.78    1.95
  -2  -1  -3   98.62    2.95
  -2  -1  -4    6.77    0.77
  -2  -1  -4    6.34    0.46
  -2  -1  -4    6.37    0.45
  -2  -1  -5    3.08    0.59
  -2  -1  -5    3.19    0.39
  -2  -1  -5    3.02    0.39
  -2  -1  -6    2.45    0.42
  -2  -1  -6    2.80    0.43
  -2  -1  -7  131.14    4.05
  -2  -1  -7  124.29    3.85
  -2  -1  -8    2.12    0.50
  -2  -1  -8    1.77    0.43
  -2  -1  -9   53.76    2.87
  -2  -1  -9   49.76    2.59
  -2  -1 -10   55.54    3.00
  -2  -1 -10   64.42    3.41
  -2  -1 -11   61.61    3.33
  -2  -1 -11   64.67    3.67
  -2  -1 -12    5.36    1.00
  -2  -1 -13    0.21    0.21
  -2  -1 -14    0.13    0.17
  -2  -1 -15    6.02    1.22
   2   2 -12   -0.06    0.24
   2   2 -11    0.64    0.44
   2   2 -10    3.90    0.96
   2   2  -9    8.90    1.39
   2   2  -8    9.65    1.38
   2   2  -7    0.25    0.23
  -2  -2   6    4.17    0.84
   2   2  -6    5.19    0.91
  -2  -2   5   30.41    2.18
   2   2  -5   35.15    2.27
   2   2  -4   13.47    1.28
   2   2  -3  105.69    3.67
   2   2  -2   48.50    2.18
  -2  -2   2   48.02    2.19
   2   2  -1   19.13    1.18
  -2  -2   1   19.24    1.20
   2   2   0   46.93    1.68
  -2  -2   0   44.69    1.67
  -2  -2  -1  212.53    4.55
   2   2   1  209.92    4.59
   2   2   2   44.49    1.69
  -2  -2  -2   43.51    1.41
   2   2   2   44.89    1.50
  -2  -2  -3   11.79    0.83
   2   2   3   11.64    0.85
  -2  -2  -3   13.15    0.73
   2   2   3   12.49    0.72
  -2  -2  -4   65.65    2.37
  -2  -2  -4   67.04    2.04
   2   2   4   62.61    2.01
   2   2   5   30.47    1.43
  -2  -2  -5   32.98    1.78
  -2  -2  -5   32.15    1.46
  -2  -2  -6    6.35    0.71
   2   2   6    5.28    0.61
  -2  -2  -6    6.21    0.84
  -2  -2  -6    5.91    0.64
  -2  -2  -7   29.49    1.76
  -2  -2  -7   29.32    2.12
  -2  -2  -7   28.79    1.64
  -2  -2  -8    0.33    0.23
  -2  -2  -8    0.41    0.22
  -2  -2  -9    1.82    0.52
  -2  -2  -9    1.34    0.41
  -2  -2 -10    1.63    0.53
  -2  -2 -10    1.42    0.46
  -2  -2 -11   12.66    1.58
  -2  -2 -11   13.39    1.48
  -2  -2 -12   58.85    3.42
  -2  -2 -13    1.17    0.48
  -2  -2 -14    3.11    0.85
  -2  -2 -15    0.37    0.31
  -2  -2 -15    0.04    0.17
   2   3 -12    0.04    0.11
   2   3 -11    1.91    0.73
   2   3 -10    2.21    0.73
   2   3  -9    5.89    1.16
   2   3  -8    5.79    1.10
   2   3  -7    1.28    0.49
   2   3  -6    0.48    0.31
  -2  -3   5   16.87    1.68
   2   3  -5   15.92    1.57
   2   3  -4    5.87    0.89
   2   3  -3  166.65    5.12
   2   3  -2    0.39    0.19
   2   3  -1   32.34    1.75
  -2  -3   1   31.82    1.72
   2   3   0   77.49    2.66
  -2  -3   0   77.05    2.58
   2   3   1   12.07    1.25
  -2  -3  -1   10.26    0.81
   2   3   1   10.43    0.85
   2   3   2   29.42    1.44
  -2  -3  -2   28.18    1.36
   2   3   3    0.04    0.06
  -2  -3  -3    0.17    0.13
   2   3   3    0.05    0.02
  -2  -3  -3    0.14    0.09
  -2  -3  -4    5.30    0.56
   2   3   4    4.31    0.54
   2   3   4    4.62    0.56
  -2  -3  -4    4.48    0.56
   2   3   5   10.18    0.90
  -2  -3  -5   10.57    0.88
  -2  -3  -5   10.03    0.89
  -2  -3  -6    9.03    0.90
  -2  -3  -6    9.36    0.93
   2   3   6    8.72    0.88
  -2  -3  -7    0.40    0.20
   2   3   7    0.31    0.18
  -2  -3  -7    0.42    0.22
   2   3   8    4.50    0.71
  -2  -3  -8    5.00    0.74
  -2  -3  -8    5.49    0.87
  -2  -3  -8    5.25    0.81
  -2  -3  -9   14.49    1.47
  -2  -3  -9   13.14    1.52
  -2  -3  -9   10.87    1.20
  -2  -3 -10   35.35    2.35
  -2  -3 -10   38.16    2.85
  -2  -3 -10   40.54    2.71
  -2  -3 -11   -0.03    0.15
  -2  -3 -11    0.16    0.18
  -2  -3 -12   13.80    1.98
  -2  -3 -12   11.04    1.44
  -2  -3 -13    2.51    0.72
  -2  -3 -13    2.90    0.94
  -2  -3 -14    0.01    0.28
  -2  -3 -14   -0.11    0.19
  -2  -3 -15   -0.20    0.35
  -2  -3 -15   -0.20    0.37
  -2  -3 -16    0.23    0.27
   2   4 -11    6.86    1.43
   2   4 -10    0.31    0.20
   2   4  -9   17.06    2.07
   2   4  -8    0.16    0.23
   2   4  -7    8.96    1.35
   2   4  -6    0.08    0.20
   2   4  -5    7.77    1.14
  -2  -4   4    7.85    1.12
   2   4  -4    8.89    1.17
   2   4  -3   61.79    3.05
  -2  -4   3   55.35    2.92
   2   4  -2   41.02    2.33
  -2  -4   1   53.77    2.53
   2   4  -1   58.24    2.71
   2   4   0   13.58    1.19
  -2  -4   0   13.15    1.13
  -2  -4  -1   25.30    1.52
   2   4   1   27.97    1.64
  -2  -4  -2   48.53    2.20
   2   4   2   50.68    2.31
   2   4   3  193.27    4.39
   2   4   3  182.29    4.90
  -2  -4  -3  182.33    4.81
   2   4   4   65.73    2.33
   2   4   4   67.31    2.75
  -2  -4  -4   68.64    2.76
  -2  -4  -5    1.31    0.35
   2   4   5    1.80    0.42
   2   4   5    1.46    0.33
  -2  -4  -5    1.38    0.29
   2   4   6    9.09    1.02
  -2  -4  -6    9.24    1.02
  -2  -4  -6    9.29    0.83
  -2  -4  -7    5.78    0.72
   2   4   7    6.42    0.88
  -2  -4  -7    6.99    0.94
  -2  -4  -8   11.58    1.14
   2   4   8   11.64    1.25
  -2  -4  -8   11.34    1.30
   2   4   9    4.34    0.80
  -2  -4  -9    5.06    0.91
  -2  -4  -9    5.03    0.82
  -2  -4  -9    4.47    0.78
   2   4  10   77.02    3.76
  -2  -4 -10   89.15    3.99
  -2  -4 -10   89.89    4.26
  -2  -4 -10   84.63    3.86
  -2  -4 -11    5.55    1.04
  -2  -4 -11    5.48    0.98
  -2  -4 -12    1.53    0.53
  -2  -4 -12    2.59    0.77
  -2  -4 -13    0.59    0.35
  -2  -4 -13    0.40    0.34
  -2  -4 -14    0.58    0.35
  -2  -4 -14    1.09    0.54
  -2  -4 -15    0.22    0.30
  -2  -4 -15   -0.05    0.29
  -2  -4 -16   10.15    1.71
   2   5 -10   -0.49    0.39
   2   5  -9    1.12    0.59
   2   5  -8   -0.47    0.35
   2   5  -7   21.68    2.30
   2   5  -6   10.19    1.50
   2   5  -5    0.01    0.12
   2   5  -4    0.27    0.27
   2   5  -3   13.30    1.50
  -2  -5   3   12.04    1.39
   2   5  -2   10.51    1.28
  -2  -5   2    9.44    1.16
   2   5  -1    9.91    1.20
  -2  -5   1    9.96    1.13
   2   5   0   15.08    1.45
  -2  -5   0   14.49    1.32
   2   5   0   15.69    1.43
   2   5   1   10.02    1.13
  -2  -5  -1    9.73    1.05
   2   5   2   20.63    1.61
  -2  -5  -2   20.04    1.53
   2   5   3    4.74    0.60
   2   5   3    3.83    0.68
  -2  -5  -3    3.99    0.68
  -2  -5  -4   23.75    1.71
   2   5   4   23.63    1.25
   2   5   4   23.84    1.72
   2   5   5   71.16    3.17
   2   5   5   68.26    2.43
  -2  -5  -5   75.99    3.24
  -2  -5  -5   75.68    3.26
   2   5   6    3.50    0.69
  -2  -5  -6    5.04    0.82
  -2  -5  -6    6.02    0.73
   2   5   7    0.62    0.30
  -2  -5  -7    0.42    0.20
  -2  -5  -7    0.64    0.31
  -2  -5  -8   18.86    1.77
   2   5   8   17.34    1.65
  -2  -5  -8   16.98    1.24
   2   5   9   26.17    2.13
  -2  -5  -9   29.60    2.35
  -2  -5  -9   26.97    1.70
   2   5  10    4.79    0.93
  -2  -5 -10    6.13    0.88
   2   5  11    5.71    1.06
  -2  -5 -11    6.26    0.96
  -2  -5 -11    5.39    1.00
  -2  -5 -12    3.92    0.91
  -2  -5 -12    4.06    0.85
  -2  -5 -13   -0.06    0.15
  -2  -5 -13    0.31    0.30
  -2  -5 -14    0.77    0.39
  -2  -5 -14    0.56    0.48
  -2  -5 -15   -0.10    0.23
  -2  -5 -16    4.84    1.21
   2   6  -9   -0.12    0.38
   2   6  -8    0.13    0.17
   2   6  -7   -0.01    0.26
   2   6  -6    1.31    0.58
   2   6  -5    3.17    0.86
   2   6  -4    0.70    0.41
   2   6  -3    3.10    0.78
   2   6  -2    3.06    0.76
   2   6  -1    0.97    0.40
   2   6  -1    0.67    0.34
   2   6   0    1.89    0.56
  -2  -6   0    1.74    0.51
   2   6   1    2.17    0.59
   2   6   1    0.31    0.45
  -2  -6  -1    1.74    0.49
   2   6   2    1.87    0.54
   2   6   2    1.81    0.60
  -2  -6  -2    1.46    0.45
   2   6   3   73.61    3.61
  -2  -6  -3   77.08    3.57
  -2  -6  -4   27.21    1.97
  -2  -6  -4   26.37    1.98
   2   6   4   27.57    2.06
   2   6   4   27.23    1.41
   2   6   5   17.23    1.66
   2   6   5   17.98    1.10
  -2  -6  -5   19.00    1.71
   2   6   6    3.70    0.76
  -2  -6  -6    1.56    0.71
  -2  -6  -6    3.68    0.75
  -2  -6  -7    6.63    0.87
   2   6   7    5.54    0.98
  -2  -6  -8  119.34    3.71
   2   6   8   89.51    4.36
  -2  -6  -9    2.13    0.43
   2   6   9    2.11    0.64
   2   6  10    2.76    0.77
  -2  -6 -10    3.15    0.56
   2   6  11    0.52    0.32
  -2  -6 -11    0.81    0.32
   2   6  12    0.47    0.30
  -2  -6 -12    0.33    0.23
  -2  -6 -12    0.55    0.26
   2   6  13    5.25    1.16
  -2  -6 -13    3.91    0.97
  -2  -6 -14    0.04    0.16
  -2  -6 -15   11.74    1.85
   2   7  -8    0.76    0.55
   2   7  -7    0.89    0.58
   2   7  -6    0.77    0.48
   2   7  -5    1.11    0.56
   2   7  -4    3.81    1.00
   2   7  -3    0.03    0.10
   2   7  -3   -0.02    0.10
   2   7  -2   20.57    2.10
   2   7  -2   20.34    2.17
   2   7  -1   83.84    4.36
   2   7   0   25.59    2.30
   2   7   0    7.39    2.87
   2   7   1    1.93    0.60
   2   7   2   26.41    2.67
   2   7   2   29.82    2.40
   2   7   3   24.33    2.16
   2   7   3   32.31    2.02
   2   7   4   46.38    2.00
   2   7   4   48.04    3.05
   2   7   5   34.70    1.59
   2   7   5   33.44    2.58
   2   7   6    9.83    1.37
   2   7   7   43.82    3.05
   2   7   8    7.85    1.30
   2   7   9    1.74    0.65
  -2  -7  -9    0.91    0.37
   2   7  10    6.38    1.25
  -2  -7 -10    7.88    0.87
   2   7  11    0.37    0.31
   2   7  12    1.77    0.70
   2   7  13   18.18    2.25
  -2  -7 -13   22.05    2.42
  -2  -7 -14    4.86    1.19
   2   7  14    3.84    1.06
  -2  -7 -15    5.74    1.32
   2   8  -6    1.24    0.61
   2   8  -5    6.57    1.39
   2   8  -5    6.70    1.49
   2   8  -4   -0.24    0.38
   2   8  -4    0.06    0.16
   2   8  -3    9.27    1.57
   2   8  -2    1.33    0.59
   2   8  -1   53.24    3.72
   2   8   0    0.51    0.37
   2   8   1   -0.08    0.28
   2   8   1   -0.38    0.60
   2   8   2    1.99    0.68
   2   8   3    0.06    0.12
   2   8   3    0.17    0.25
   2   8   4    8.05    0.81
   2   8   4    5.78    1.13
   2   8   5   19.21    1.16
   2   8   5   19.68    2.14
   2   8   6   16.14    1.92
   2   8   7   18.46    2.10
   2   8   8   -0.08    0.10
   2   8   9   -0.09    0.31
   2   8  10    0.28    0.28
   2   8  11    0.07    0.26
   2   8  12    0.06    0.14
   2   8  13    0.55    0.32
   2   8  14    0.74    0.48
  -2  -8 -14    0.79    0.38
   2   9  -5    2.72    0.96
   2   9  -4    2.60    0.96
   2   9  -3    9.71    1.76
   2   9  -2    0.39    0.36
   2   9  -1    1.39    0.64
   2   9   0    0.12    0.19
   2   9   1    2.11    0.75
   2   9   2    0.64    0.40
   2   9   3    0.15    0.26
   2   9   4    0.91    0.53
   2   9   5    5.13    1.19
   2   9   6   23.11    2.50
   2   9   7    0.73    0.44
   2   9   8    5.49    1.26
   2   9   9    3.81    1.05
   2   9  10    2.95    0.95
   2   9  11    5.02    1.25
   2   9  12   10.43    1.86
   2  10  -2    1.80    0.78
   2  10  -1    4.46    1.23
   2  10   0    3.32    1.05
   2  10   1   -0.15    0.34
   2  10   2    0.61    0.53
   2  10   3    3.82    1.09
   2  10   4    2.67    0.93
   2  10   5    2.90    0.94
   2  10   6    0.13    0.16
   2  10   7    0.04    0.21
   2  10   8    0.34    0.27
   2  10   9    0.38    0.46
   2  10  10    6.58    1.53
  -3   9   4    0.20    0.36
  -3   9   3    0.94    0.65
  -3   9   2    1.19    0.67
  -3   9   1   20.68    2.73
  -3   9   0    7.85    1.64
  -3   9  -1   -0.35    0.42
  -3   9  -2    1.96    0.76
  -3   9  -3   -0.10    0.34
  -3   9  -4    1.44    0.72
  -3   8   7    0.71    0.42
  -3   8   6    0.41    0.34
  -3   8   5   12.40    2.05
  -3   8   4    2.53    0.92
  -3   8   3    4.96    1.24
  -3   8   2   21.21    2.59
  -3   8   1    0.57    0.36
  -3   8   0    0.65    0.54
  -3   8  -1   -0.04    0.30
  -3   8  -2    0.04    0.35
  -3   8  -3    3.04    0.98
  -3   8  -4    4.52    1.21
  -3   8  -5    2.78    1.01
  -3   8  -5    3.74    1.13
  -3   8  -6    4.36    1.21
  -3   8  -6    3.79    1.27
  -3   7   9    0.75    0.52
  -3   7   8    4.60    1.23
  -3   7   7    1.41    0.67
  -3   7   6    5.56    1.29
  -3   7   5    1.54    0.65
  -3   7   4    1.75    0.69
  -3   7   3   13.62    1.94
  -3   7   2   19.57    2.31
  -3   7   1    2.02    0.72
  -3   7   1    2.05    0.41
  -3   7   0    4.41    1.04
  -3   7   0    4.62    0.73
  -3   7  -1   16.46    1.59
  -3   7  -1   16.35    2.03
  -3   7  -2    3.45    0.95
  -3   7  -2    3.41    0.82
  -3   7  -3   -0.10    0.30
  -3   7  -3   -0.02    0.23
  -3   7  -4   40.56    3.32
  -3   7  -4   47.72    3.77
  -3   7  -5    0.30    0.46
  -3   7  -5   -0.12    0.16
  -3   7  -6    4.89    1.17
  -3   7  -7    5.11    1.22
  -3   6  10   -0.15    0.18
   3  -6 -10    0.21    0.38
  -3   6   9    0.01    0.26
  -3   6   8    2.07    0.80
  -3   6   7    0.58    0.35
  -3   6   6    5.97    1.26
  -3   6   5   69.87    4.35
  -3   6   4   61.50    4.00
  -3   6   3    9.96    1.51
  -3   6   2    0.23    0.13
  -3   6   2   -0.03    0.14
  -3   6   1    6.11    0.70
  -3   6   1    6.12    1.16
  -3   6   0    2.66    0.54
  -3   6   0    1.78    0.63
  -3   6  -1    0.21    0.30
  -3   6  -1   -0.03    0.08
  -3   6  -2    2.11    0.61
  -3   6  -2    2.22    0.69
  -3   6  -3   -0.02    0.07
  -3   6  -3   -0.04    0.13
  -3   6  -4    0.26    0.23
  -3   6  -4    0.04    0.20
  -3   6  -5    9.50    1.46
  -3   6  -6    1.61    0.60
  -3   6  -7    3.48    0.93
  -3   6  -8    0.11    0.30
   3  -5 -11    5.84    1.38
   3  -5 -10    0.19    0.18
  -3   5   9    8.15    1.52
   3  -5  -9    9.06    1.57
  -3   5   8    8.10    1.45
  -3   5   7    0.49    0.29
  -3   5   6    0.10    0.17
  -3   5   5   27.11    2.49
  -3   5   4    6.94    1.21
  -3   5   3   48.61    3.22
  -3   5   2    6.17    0.67
  -3   5   2    5.28    1.02
  -3   5   1    1.76    0.55
  -3   5   1    1.34    0.31
  -3   5   0    1.90    0.43
   3  -5   0    1.77    0.52
  -3   5   0    1.59    0.54
  -3   5  -1    8.81    1.05
  -3   5  -1    8.66    1.22
  -3   5  -2   45.26    2.87
  -3   5  -2   47.90    2.88
  -3   5  -3   13.14    1.63
  -3   5  -3   12.18    1.45
  -3   5  -4   17.52    1.77
  -3   5  -5    2.95    0.73
  -3   5  -6    8.03    1.24
  -3   5  -7    0.86    0.39
  -3   5  -8    1.52    0.60
  -3   5  -9   13.01    1.73
   3  -4 -12   -0.05    0.21
   3  -4 -11    0.37    0.34
   3  -4 -10    8.54    1.56
   3  -4  -9   15.19    1.98
  -3   4   8   12.50    1.75
   3  -4  -8   14.15    1.82
  -3   4   7    1.60    0.60
   3  -4  -7    2.89    0.41
  -3   4   6   -0.03    0.17
   3  -4  -6    0.08    0.03
  -3   4   5   42.79    2.96
   3  -4  -5   38.92    1.47
  -3   4   4    0.62    0.34
  -3   4   3   56.16    3.20
   3  -4  -3   48.83    2.92
  -3   4   2    0.61    0.36
  -3   4   2    0.29    0.16
   3  -4  -2    0.22    0.23
  -3   4   1    6.82    0.67
  -3   4   1    5.32    0.90
   3  -4  -1    6.13    0.93
  -3   4   0    0.05    0.07
  -3   4   0   -0.09    0.15
   3  -4   0    0.02    0.08
  -3   4  -1    0.35    0.21
   3  -4   1    0.51    0.25
  -3   4  -1    0.66    0.28
  -3   4  -2    0.97    0.39
  -3   4  -2    0.65    0.31
   3  -4   2    0.58    0.28
  -3   4  -3    3.67    0.82
   3  -4   3    4.40    0.75
  -3   4  -3    5.09    0.83
  -3   4  -4   19.84    1.69
   3  -4   4   17.90    1.57
   3  -4   5    4.82    0.82
  -3   4  -5    5.64    0.91
   3  -4   6   24.27    1.99
  -3   4  -6   30.52    2.20
  -3   4  -7   10.96    1.35
  -3   4  -8    7.44    1.16
  -3   4  -9    2.10    0.66
  -3   4 -10    0.60    0.33
  -3   4 -11    0.02    0.29
   3  -3 -12    4.71    1.21
   3  -3 -11    1.86    0.72
   3  -3 -10    5.68    1.25
   3  -3  -9    1.18    0.54
   3  -3  -9   -0.16    0.42
   3  -3  -8    3.09    0.83
   3  -3  -8    2.88    0.91
  -3   3   7    0.35    0.26
   3  -3  -7    0.34    0.28
   3  -3  -7    0.43    0.29
  -3   3   6    0.47    0.32
   3  -3  -6    0.29    0.20
  -3   3   5    7.17    1.12
   3  -3  -5    8.20    0.73
  -3   3   4   -0.01    0.07
   3  -3  -4    0.12    0.08
   3  -3  -4    0.03    0.13
   3  -3  -3    5.27    0.55
   3  -3  -3    5.18    0.88
  -3   3   3    5.49    0.91
   3  -3  -2    0.60    0.21
   3  -3  -2    0.47    0.24
  -3   3   2    0.49    0.28
  -3   3   2    0.63    0.25
  -3   3   1   14.90    1.01
  -3   3   1   14.95    1.40
  -3   3   0    2.02    0.49
  -3   3   0    1.68    0.35
   3  -3   1    3.05    0.54
  -3   3  -1    3.40    0.58
  -3   3  -1    3.28    0.59
  -3   3  -2    4.94    0.78
  -3   3  -2    5.03    0.73
  -3   3  -3   18.14    1.71
  -3   3  -3   17.12    1.34
  -3   3  -4    9.59    1.35
  -3   3  -4    8.37    0.96
  -3   3  -5   22.79    1.62
   3  -3   6   11.48    1.24
  -3   3  -6   14.10    1.32
  -3   3  -7   20.13    1.65
   3  -3   7   18.72    1.69
  -3   3  -8   31.55    2.39
   3  -3   8   31.48    2.33
  -3   3  -8   34.95    2.26
  -3   3  -9   20.25    1.98
  -3   3 -10    0.52    0.32
  -3   3 -11   18.50    2.06
  -3   3 -12   10.51    1.62
   3  -2 -12    1.23    0.63
   3  -2 -11    0.38    0.42
   3  -2 -10    5.14    1.13
   3  -2  -9    3.54    0.89
   3  -2  -8    3.57    1.76
   3  -2  -8   11.64    1.57
   3  -2  -7    6.53    2.11
   3  -2  -7   13.75    1.64
   3  -2  -6   38.80    2.60
   3  -2  -6   27.80    2.89
  -3   2   5    8.38    1.17
   3  -2  -5   11.32    1.22
   3  -2  -5    8.75    1.24
   3  -2  -5    7.35    1.07
  -3   2   4   27.01    2.01
   3  -2  -4   29.52    2.19
  -3   2   3  140.93    4.91
   3  -2  -3  156.44    4.01
  -3   2   2    3.68    0.65
   3  -2  -2    3.43    0.46
  -3   2   2    2.73    0.76
  -3   2   1   12.80    1.17
   3  -2  -1   13.17    0.98
   3  -2  -1   13.35    1.15
  -3   2   0   12.99    1.11
  -3   2   0   12.25    0.93
   3  -2   0   11.60    1.02
   3  -2   0   12.00    1.01
  -3   2  -1    2.23    0.44
   3  -2   1    1.95    0.37
  -3   2  -1    1.60    0.36
  -3   2  -2  109.49    3.77
  -3   2  -2  111.73    3.34
   3  -2   2  104.49    3.33
   3  -2   2  106.11    3.14
   3  -2   3    7.94    0.78
  -3   2  -3    8.64    0.79
  -3   2  -3    8.85    1.09
  -3   2  -4   -0.05    0.16
   3  -2   4    0.04    0.06
  -3   2  -4    0.03    0.04
   3  -2   5   21.69    1.42
  -3   2  -5   24.22    1.43
   3  -2   6   13.53    1.21
  -3   2  -6   15.59    1.19
  -3   2  -7    0.01    0.06
   3  -2   8    1.47    0.48
  -3   2  -8    1.30    0.40
   3  -2   9    1.07    0.43
  -3   2  -9    1.16    0.43
  -3   2 -10    0.00    0.17
  -3   2 -11   19.30    1.96
  -3   2 -12   20.37    2.14
   3  -1 -12    1.76    0.68
   3  -1 -11    5.12    1.19
   3  -1 -10    4.84    1.10
   3  -1  -9   -0.12    0.25
   3  -1  -8    0.97    0.48
   3  -1  -7    0.66    0.32
   3  -1  -7   -0.05    0.66
   3  -1  -6    6.13    1.10
   3  -1  -6    5.53    0.96
   3  -1  -5    3.92    0.81
   3  -1  -5    3.91    0.76
   3  -1  -4   17.05    1.59
   3  -1  -4   15.41    1.43
   3  -1  -4   16.15    1.88
  -3   1   3  137.55    4.72
   3  -1  -3  139.31    4.62
  -3   1   2   90.22    3.35
   3  -1  -2   93.08    3.48
  -3   1   1   45.18    2.10
   3  -1  -1   46.31    2.14
   3  -1  -1   45.50    1.91
  -3   1   0   55.75    2.21
   3  -1   0   53.85    2.17
   3  -1   0   52.37    2.07
  -3   1   0   58.71    2.16
   3  -1   1   33.38    1.43
  -3   1  -1   37.13    1.58
  -3   1  -1   34.94    1.68
   3  -1   1   33.99    1.79
  -3   1  -2   51.88    1.77
  -3   1  -2   49.12    2.25
   3  -1   2   49.40    1.65
  -3   1  -3  102.58    3.72
  -3   1  -3  101.37    2.63
   3  -1   3   99.34    2.72
  -3   1  -4  166.65    5.46
  -3   1  -4  163.13    3.75
   3  -1   4  162.38    3.90
  -3   1  -5    3.97    0.83
  -3   1  -5    4.19    0.47
   3  -1   5    4.13    0.53
   3  -1   6   16.23    1.18
  -3   1  -6   15.84    1.15
  -3   1  -7    4.03    0.62
   3  -1   7    3.61    0.60
  -3   1  -8   22.80    1.61
  -3   1  -9    0.82    0.33
  -3   1 -10    0.27    0.25
   3  -1  10    0.16    0.09
  -3   1 -10    0.00    0.07
  -3   1 -11    0.45    0.28
  -3   1 -12    0.83    0.41
  -3   1 -13   21.66    2.15
   3   0 -12    2.46    0.85
   3   0 -11    0.36    0.37
   3   0 -10    1.74    0.65
   3   0  -9    0.64    0.34
   3   0  -8    0.00    0.11
   3   0  -7    1.89    0.60
   3   0  -6   20.90    2.00
   3   0  -6   19.52    1.81
   3   0  -5    2.21    0.56
   3   0  -5    2.47    0.64
   3   0  -4   70.08    3.19
   3   0  -4   76.38    3.45
   3   0  -3    0.51    0.23
   3   0  -3    0.50    0.44
   3   0  -2    0.64    0.24
   3   0  -2    0.57    0.25
   3   0  -2    1.10    0.38
   3   0  -1    0.05    0.09
   3   0  -1   -0.03    0.11
   3   0  -1    0.08    0.09
  -3   0   1   -0.23    0.23
   3   0   0   13.05    0.91
   3   0   0   14.09    1.03
   3   0   0   14.48    0.93
   3   0   1  193.23    4.27
  -3   0  -1  204.54    4.91
   3   0   1  196.48    4.98
  -3   0  -2   47.21    1.36
  -3   0  -2   47.12    2.03
   3   0   2   45.93    2.13
   3   0   2   43.24    1.25
   3   0   3   24.72    0.82
  -3   0  -3   25.74    1.61
  -3   0  -4   78.62    3.25
   3   0   4   77.83    1.96
   3   0   5   15.91    0.87
  -3   0  -5   16.02    1.55
  -3   0  -5   17.24    0.87
  -3   0  -6    8.88    0.68
  -3   0  -6    8.51    1.23
  -3   0  -6    7.75    0.66
   3   0   6    9.19    0.76
  -3   0  -7   10.00    0.85
  -3   0  -7   11.84    1.58
  -3   0  -7   11.90    0.94
   3   0   7    9.90    0.92
  -3   0  -8   12.32    1.09
  -3   0  -8   12.43    1.05
   3   0   8   12.66    1.14
  -3   0  -9   10.63    1.13
  -3   0  -9   10.47    1.07
  -3   0 -10    8.08    1.09
  -3   0 -10    7.75    1.00
  -3   0 -11   21.22    1.93
  -3   0 -11   20.60    1.76
  -3   0 -12    0.10    0.15
  -3   0 -13   14.27    1.66
   3   1 -12    1.34    0.64
   3   1 -11    8.50    1.55
   3   1 -10    3.59    0.96
   3   1  -9    1.26    0.56
   3   1  -8    0.21    0.25
   3   1  -7   44.62    2.97
   3   1  -6    5.38    0.95
   3   1  -5    0.37    0.23
  -3  -1   5    0.33    0.22
   3   1  -4   11.79    1.25
  -3  -1   4   13.47    1.37
   3   1  -3   24.80    1.71
  -3  -1   3   28.54    1.87
   3   1  -2   16.44    1.26
  -3  -1   2   16.44    1.28
   3   1  -1   38.62    1.83
  -3  -1   1   39.18    1.85
   3   1   0  265.98    5.88
  -3  -1   0  263.21    5.86
   3   1   1   84.51    2.89
  -3  -1  -1   85.65    2.30
   3   1   1   84.70    2.29
  -3  -1  -2   33.53    1.66
   3   1   2   35.20    0.97
  -3  -1  -3   22.84    1.41
  -3  -1  -4   43.50    2.21
  -3  -1  -5  130.13    4.47
  -3  -1  -5  125.81    2.67
  -3  -1  -5  135.46    2.77
  -3  -1  -6   17.77    0.91
  -3  -1  -6   16.07    1.55
  -3  -1  -6   17.86    0.91
  -3  -1  -7   22.80    1.27
  -3  -1  -7   23.72    2.09
  -3  -1  -7   23.93    1.27
  -3  -1  -8   44.24    2.10
  -3  -1  -8   40.52    1.95
  -3  -1  -9   23.47    1.65
  -3  -1  -9   24.19    2.49
  -3  -1  -9   22.08    1.53
  -3  -1 -10    8.85    1.11
  -3  -1 -10    7.29    0.94
  -3  -1 -10    9.09    1.61
  -3  -1 -11   38.68    2.58
  -3  -1 -11   43.20    3.78
  -3  -1 -11   34.94    2.30
  -3  -1 -12   18.47    2.62
  -3  -1 -12   16.71    1.66
  -3  -1 -13    7.39    1.75
  -3  -1 -13    6.08    1.05
  -3  -1 -14    3.18    1.20
  -3  -1 -14    2.66    0.74
   3   2 -12    6.53    1.43
   3   2 -11    0.68    0.45
   3   2 -10    5.44    1.21
   3   2  -9    8.09    1.40
   3   2  -8   85.97    4.54
   3   2  -7   29.45    2.45
   3   2  -6   22.50    2.01
  -3  -2   5   -0.04    0.15
   3   2  -5    0.00    0.13
   3   2  -4    2.04    0.54
  -3  -2   4    2.02    0.54
   3   2  -3   19.60    1.56
  -3  -2   3   19.92    1.60
   3   2  -2   14.16    1.21
  -3  -2   2   14.26    1.25
   3   2  -1  195.40    5.10
  -3  -2   1  194.95    5.16
  -3  -2   0   19.48    1.20
   3   2   0   21.08    1.20
  -3  -2  -1   35.98    2.28
   3   2   1   39.65    1.48
  -3  -2  -1   39.12    1.53
   3   2   2   60.35    1.74
   3   2   2   60.37    2.40
  -3  -2  -2   61.91    1.79
  -3  -2  -3  140.05    3.88
   3   2   3  126.94    3.89
  -3  -2  -3  135.97    2.74
   3   2   3  123.68    2.89
  -3  -2  -4  203.02    5.28
   3   2   4  200.64    4.14
   3   2   4  202.58    5.52
  -3  -2  -4  206.15    3.95
   3   2   5    2.35    0.31
  -3  -2  -5    2.53    0.51
  -3  -2  -5    2.16    0.28
  -3  -2  -5    2.14    0.27
  -3  -2  -6    4.45    0.46
  -3  -2  -6    3.74    0.67
  -3  -2  -6    4.27    0.47
  -3  -2  -7    0.18    0.12
  -3  -2  -7    0.25    0.14
  -3  -2  -7    0.17    0.20
  -3  -2  -8   47.12    2.17
  -3  -2  -8   43.33    2.85
  -3  -2  -8   41.49    1.99
  -3  -2  -9    6.68    0.82
  -3  -2  -9    7.54    0.93
  -3  -2  -9    6.65    1.18
  -3  -2 -10   25.97    1.81
  -3  -2 -10   25.86    1.93
  -3  -2 -10   28.27    2.67
  -3  -2 -11   11.55    1.38
  -3  -2 -11   12.74    1.89
  -3  -2 -11   11.15    1.27
  -3  -2 -12    7.19    1.09
  -3  -2 -12    6.97    1.50
  -3  -2 -13    0.35    0.20
  -3  -2 -13    0.33    0.29
  -3  -2 -14    4.34    1.36
  -3  -2 -14    5.06    1.01
  -3  -2 -15   -0.13    0.26
   3   3 -11    3.28    1.01
   3   3 -10    4.10    1.05
   3   3  -9    3.21    0.93
   3   3  -8    0.90    0.46
   3   3  -7    3.07    0.81
   3   3  -6   14.72    1.67
   3   3  -5    5.98    0.99
   3   3  -4    9.26    1.17
  -3  -3   4   10.92    1.33
   3   3  -3    8.43    1.05
  -3  -3   3    7.26    1.03
   3   3  -2   50.67    2.50
  -3  -3   2   49.75    2.53
   3   3  -1   26.45    1.63
  -3  -3   1   29.91    1.79
  -3  -3   0   27.06    1.57
   3   3   0   26.64    2.71
   3   3   0   27.71    1.54
   3   3   1    0.16    0.15
   3   3   1    0.03    0.08
  -3  -3  -1   -0.02    0.03
  -3  -3  -2   42.54    2.52
   3   3   2   44.87    2.06
  -3  -3  -2   39.91    1.62
   3   3   2   39.84    1.68
   3   3   3  181.08    4.96
  -3  -3  -3  193.59    4.41
   3   3   3  184.76    4.55
  -3  -3  -4  307.55    6.91
   3   3   4  298.83    7.05
  -3  -3  -4  310.87    6.24
  -3  -3  -5    2.94    0.51
   3   3   5    2.45    0.51
   3   3   5    2.71    0.41
  -3  -3  -5    3.12    0.44
   3   3   6   75.16    2.63
  -3  -3  -6   80.63    3.14
  -3  -3  -7    6.19    0.73
  -3  -3  -7    6.02    0.88
  -3  -3  -7    5.61    0.65
   3   3   7    6.18    0.72
   3   3   8    0.73    0.26
  -3  -3  -8    0.84    0.27
  -3  -3  -8    0.43    0.21
  -3  -3  -8    0.42    0.25
  -3  -3  -9    1.34    0.38
  -3  -3  -9    1.70    0.47
  -3  -3  -9    1.92    0.59
  -3  -3 -10  191.75    6.89
  -3  -3 -10  181.88    5.83
  -3  -3 -10  172.88    5.47
  -3  -3 -11   18.40    1.75
  -3  -3 -11   15.62    1.95
  -3  -3 -11   17.13    1.61
  -3  -3 -12    2.84    0.87
  -3  -3 -12    2.22    0.59
  -3  -3 -13   -0.23    0.34
  -3  -3 -13    0.02    0.18
  -3  -3 -14    1.20    0.67
  -3  -3 -14    1.40    0.51
  -3  -3 -15    0.16    0.42
  -3  -3 -16    0.42    0.29
   3   4 -11    7.76    1.56
   3   4 -10    0.45    0.35
   3   4  -9    1.15    0.57
   3   4  -8   14.45    1.87
   3   4  -7    0.08    0.13
   3   4  -6    3.76    0.87
   3   4  -5    4.13    0.86
   3   4  -4    8.91    1.20
  -3  -4   3    0.74    0.33
   3   4  -3    1.35    0.44
   3   4  -2    5.98    0.89
  -3  -4   2    5.00    0.82
   3   4  -1    1.90    0.48
  -3  -4   1    1.43    0.40
  -3  -4   0    8.08    0.91
   3   4   0    7.72    0.92
  -3  -4  -1   33.70    1.81
   3   4   1   34.30    1.87
  -3  -4  -2   39.53    1.91
   3   4   2   39.65    2.00
   3   4   3  105.71    3.46
   3   4   3  105.82    3.43
  -3  -4  -3  106.48    3.31
   3   4   4   13.70    1.11
   3   4   4   13.94    1.10
  -3  -4  -4   13.41    1.05
   3   4   5    0.07    0.10
  -3  -4  -5    0.11    0.06
  -3  -4  -5    0.20    0.15
   3   4   5    0.14    0.10
   3   4   6    0.01    0.06
  -3  -4  -6    0.21    0.14
   3   4   6    0.11    0.09
  -3  -4  -6    0.26    0.16
   3   4   7    6.86    0.85
  -3  -4  -7    7.65    0.90
  -3  -4  -7    8.13    0.93
   3   4   8    0.08    0.12
  -3  -4  -8    0.13    0.17
  -3  -4  -8    0.04    0.12
   3   4   9    0.49    0.25
  -3  -4  -9    0.45    0.24
  -3  -4  -9    0.13    0.07
  -3  -4  -9    0.32    0.23
   3   4  10   10.91    1.26
  -3  -4 -10   13.41    1.52
  -3  -4 -10   13.31    1.45
  -3  -4 -10   10.49    1.20
  -3  -4 -11    5.90    1.07
  -3  -4 -11    5.87    1.03
  -3  -4 -11    4.56    0.84
  -3  -4 -12    6.52    1.07
  -3  -4 -12    7.21    1.28
  -3  -4 -13    2.35    0.67
  -3  -4 -13    2.85    0.85
  -3  -4 -14    3.03    0.84
  -3  -4 -14    4.05    1.07
  -3  -4 -15    0.68    0.55
  -3  -4 -16    2.12    0.92
   3   5 -10    1.57    0.69
   3   5  -9    7.74    1.52
   3   5  -8    4.12    1.07
   3   5  -7    8.60    1.46
   3   5  -6    0.10    0.14
   3   5  -5   13.41    1.68
   3   5  -4   15.69    1.74
   3   5  -3    0.46    0.29
  -3  -5   2    0.19    0.14
   3   5  -2    0.27    0.19
   3   5  -1   46.34    2.68
  -3  -5   1   42.19    2.50
  -3  -5   0    7.43    0.96
   3   5   0   10.04    1.16
   3   5   1    6.93    0.94
  -3  -5  -1    7.06    0.89
   3   5   1    7.17    0.93
  -3  -5  -2    9.12    1.00
   3   5   2    9.35    1.06
   3   5   3    1.40    0.40
   3   5   3    1.41    0.38
  -3  -5  -3    1.22    0.36
   3   5   4    0.22    0.17
   3   5   4    0.12    0.10
  -3  -5  -4   -0.07    0.16
  -3  -5  -5   13.27    1.29
   3   5   5    9.74    0.97
   3   5   5    9.92    1.08
  -3  -5  -5    9.74    1.05
   3   5   6   10.86    1.15
   3   5   6   11.21    1.10
  -3  -5  -6   12.06    1.23
  -3  -5  -7    5.61    0.75
   3   5   7    5.68    0.87
  -3  -5  -7    6.41    0.91
   3   5   8    8.96    1.12
  -3  -5  -8   12.95    1.19
  -3  -5  -8   12.11    1.33
  -3  -5  -9  297.57    7.68
  -3  -5  -9  308.60    8.45
   3   5  10   25.32    2.06
  -3  -5 -10   27.19    1.99
  -3  -5 -10   27.26    2.23
   3   5  11   15.02    1.62
  -3  -5 -11   16.73    1.68
  -3  -5 -11   15.03    1.59
  -3  -5 -12    0.44    0.25
  -3  -5 -12    0.57    0.38
  -3  -5 -13    1.01    0.42
  -3  -5 -13    0.83    0.42
  -3  -5 -14    2.18    0.68
  -3  -5 -14    2.81    0.85
  -3  -5 -15    2.98    0.85
  -3  -5 -15    4.57    1.16
   3   6  -9    3.19    1.01
   3   6  -8    1.18    0.64
   3   6  -7    1.10    0.62
   3   6  -6   20.74    2.30
   3   6  -5   19.62    2.18
   3   6  -4    2.28    0.71
   3   6  -3    0.83    0.46
   3   6  -2    0.56    0.30
   3   6  -1   18.42    1.82
   3   6   0    0.53    0.31
   3   6   0    0.76    0.38
   3   6   0    0.11    0.66
  -3  -6   0    0.42    0.25
   3   6   1  114.44    4.50
  -3  -6  -1  106.88    4.19
   3   6   2   13.99    1.45
  -3  -6  -2   14.19    1.39
  -3  -6  -3   66.45    3.19
   3   6   3   68.06    3.36
   3   6   4   21.14    1.47
  -3  -6  -4   20.00    1.65
   3   6   4   21.04    1.76
  -3  -6  -5    7.63    1.03
   3   6   5    7.36    0.83
  -3  -6  -5    7.32    1.00
   3   6   5    8.63    1.11
  -3  -6  -6   10.90    1.57
   3   6   6   13.47    1.17
   3   6   6   13.43    1.41
  -3  -6  -6   16.76    1.57
  -3  -6  -7    9.14    1.06
   3   6   7    7.48    1.09
  -3  -6  -7    6.77    1.04
   3   6   8    5.30    0.94
  -3  -6  -8    5.41    0.96
  -3  -6  -9    3.88    0.66
   3   6   9    4.15    0.86
  -3  -6 -10   98.19    3.79
   3   6  10   84.39    4.25
   3   6  11   11.84    1.56
  -3  -6 -11   14.30    1.43
   3   6  12    5.27    1.04
  -3  -6 -12    7.18    1.08
  -3  -6 -12    6.82    1.18
  -3  -6 -13    2.97    0.82
   3   6  13    3.04    0.85
  -3  -6 -13    2.17    0.61
  -3  -6 -14    6.35    1.24
  -3  -6 -15   19.17    2.25
   3   7  -8    0.51    0.48
   3   7  -7    0.03    0.12
   3   7  -6    8.76    1.61
   3   7  -5   16.30    2.15
   3   7  -4   -0.04    0.15
   3   7  -3   10.95    1.64
   3   7  -2   26.59    2.51
   3   7  -1    3.14    0.80
   3   7  -1    2.78    0.77
   3   7   0   57.80    8.12
   3   7   0  128.44    5.30
   3   7   1    2.47    1.12
   3   7   1    5.13    0.99
   3   7   2    0.09    0.13
   3   7   2    0.53    0.38
   3   7   3    0.01    0.11
   3   7   4    0.14    0.20
   3   7   5    5.14    0.70
   3   7   5    4.75    0.93
   3   7   6   24.29    1.58
   3   7   6   27.42    2.26
  -3  -7  -7   38.78    4.67
   3   7   7   94.85    4.32
  -3  -7  -8   42.24    3.31
   3   7   8   55.17    3.38
   3   7   9    0.41    0.30
  -3  -7  -9    0.60    0.33
   3   7  10    1.70    0.63
  -3  -7 -10    2.56    0.59
   3   7  11    8.63    1.42
  -3  -7 -11   11.77    1.31
   3   7  12    0.03    0.14
  -3  -7 -13    0.46    0.29
   3   7  13    0.55    0.40
   3   7  14   -0.06    0.30
  -3  -7 -14    0.23    0.34
  -3  -7 -15    0.58    0.33
   3   8  -6    5.16    1.34
   3   8  -5    1.45    0.69
   3   8  -4    1.72    0.76
   3   8  -3    0.01    0.22
   3   8  -3    0.06    0.11
   3   8  -2    1.47    0.61
   3   8  -2    1.72    0.66
   3   8  -1   50.34    3.59
   3   8   0    1.17    0.54
   3   8   1    2.11    1.35
   3   8   1    1.63    0.63
   3   8   2    4.52    1.01
   3   8   2    5.14    1.10
   3   8   3   11.77    1.48
   3   8   3    7.34    1.26
   3   8   4    1.74    0.61
   3   8   5   36.68    2.00
   3   8   5   35.36    2.80
   3   8   6   41.65    2.12
   3   8   6   48.48    3.31
   3   8   7    1.20    0.52
   3   8   8    2.86    0.81
   3   8   9    0.90    0.48
   3   8  10   -0.24    0.25
   3   8  11    0.56    0.39
   3   8  12    1.20    0.57
   3   8  13    3.16    0.96
   3   8  14    4.03    1.10
  -3  -8 -14    3.38    1.01
   3   9  -4   -0.02    0.10
   3   9  -3    6.74    1.48
   3   9  -2    0.87    0.52
   3   9  -1   36.38    3.31
   3   9   0    0.22    0.29
   3   9   1   21.86    2.44
   3   9   2    1.31    0.60
   3   9   3   -0.10    0.21
   3   9   3   -0.10    0.20
   3   9   4    1.80    0.68
   3   9   5   63.70    4.12
   3   9   6   28.16    2.73
   3   9   7   12.91    1.83
   3   9   8    5.97    1.26
   3   9   9    3.52    0.99
   3   9  10    4.99    1.21
   3   9  11    9.18    1.65
   3   9  12    0.44    0.38
   3   9  13    0.79    0.57
   3  10  -2    0.71    0.76
   3  10  -1    0.12    0.20
   3  10   0    0.07    0.27
   3  10   1    1.42    0.65
   3  10   2    5.23    1.28
   3  10   3    0.77    0.48
   3  10   4   10.82    1.82
   3  10   5    2.76    0.93
   3  10   6    9.70    1.71
   3  10   7    6.69    1.44
   3  10   8    0.99    0.54
   3  10   9    0.15    0.29
   3  10  10    0.74    0.51
   3  10  11    3.33    1.08
   3  11   3   -0.16    0.26
   3  11   4   22.18    2.81
   3  11   5   14.17    2.26
   3  11   6    3.91    1.16
   3  11   7    0.15    0.28
  -4   8   5    0.71    0.50
  -4   8   4    1.49    0.73
  -4   8   3    2.28    0.90
  -4   8   2   27.04    3.06
  -4   8   1    0.19    0.14
  -4   8   0    3.36    1.05
  -4   8  -1    1.33    0.62
  -4   8  -2    0.00    0.32
  -4   8  -3   -0.31    0.50
  -4   8  -4    2.50    0.91
  -4   7   7    0.69    0.53
  -4   7   6    1.17    0.67
  -4   7   5    2.18    0.84
  -4   7   4    3.17    1.00
  -4   7   3   10.37    1.77
  -4   7   2   27.27    2.86
  -4   7   1   13.09    1.95
  -4   7   0    2.45    0.84
  -4   7  -1    1.25    0.61
  -4   7  -2    0.49    0.34
  -4   7  -2    0.46    0.35
  -4   7  -3    0.39    0.29
  -4   7  -3    0.83    0.43
  -4   7  -4    0.39    0.34
  -4   7  -4   -0.04    0.29
  -4   7  -5    0.63    0.50
  -4   7  -5   -0.03    0.19
  -4   7  -6    2.83    0.99
  -4   7  -7    0.00    0.18
  -4   6   9    3.18    1.02
   4  -6  -9    3.53    1.09
  -4   6   8    0.09    0.21
  -4   6   7    0.49    0.43
  -4   6   6    0.91    0.52
  -4   6   5   23.45    2.62
  -4   6   4   31.81    2.98
  -4   6   3   19.28    2.25
  -4   6   2   11.39    1.17
  -4   6   2    9.81    1.57
  -4   6   1    6.71    0.83
  -4   6   1    5.02    1.10
  -4   6   0    0.80    0.41
  -4   6   0    0.58    0.28
  -4   6  -1    0.35    0.32
  -4   6  -1    0.49    0.25
  -4   6  -2    7.57    1.16
  -4   6  -2    7.50    1.30
  -4   6  -3    9.04    1.39
  -4   6  -3    9.96    1.50
  -4   6  -4    5.75    1.12
  -4   6  -4    5.20    1.13
  -4   6  -5    0.09    0.24
  -4   6  -5   -0.12    0.13
  -4   6  -6    0.18    0.28
  -4   6  -6   -0.35    0.29
  -4   6  -7    0.52    0.44
  -4   6  -8    3.09    1.14
   4  -5 -10    9.39    1.76
  -4   5   9    6.99    1.49
   4  -5  -9    6.45    1.40
  -4   5   8    1.84    0.72
   4  -5  -8    1.84    0.70
  -4   5   7    1.19    0.57
  -4   5   6    0.07    0.23
  -4   5   5    1.33    0.59
  -4   5   4   21.08    2.25
  -4   5   3   41.24    3.11
  -4   5   2  105.72    3.87
  -4   5   2   98.20    4.86
  -4   5   1    1.25    0.52
  -4   5   1    1.47    0.39
  -4   5   0   11.86    1.15
  -4   5   0   12.64    1.61
  -4   5  -1   -0.09    0.15
  -4   5  -1    0.27    0.22
  -4   5  -2    6.47    1.02
  -4   5  -2    5.11    0.96
  -4   5  -3    9.79    1.37
  -4   5  -3   10.46    1.39
  -4   5  -4    4.76    0.94
  -4   5  -4    2.72    0.78
  -4   5  -5    0.60    0.41
  -4   5  -5    0.75    0.36
  -4   5  -6   -0.04    0.35
  -4   5  -6   -0.02    0.13
  -4   5  -7    0.52    0.47
  -4   5  -7    0.12    0.22
  -4   5  -8    0.66    0.56
  -4   5  -9    1.72    0.76
   4  -4 -10    0.00    0.30
   4  -4  -9    0.53    0.41
   4  -4  -8    0.16    0.22
  -4   4   7   16.20    2.04
   4  -4  -7   16.07    1.99
  -4   4   6    5.42    1.11
   4  -4  -6    7.44    0.75
  -4   4   5   47.57    3.33
   4  -4  -5   46.27    1.98
  -4   4   4   38.85    2.95
   4  -4  -4   37.95    1.87
  -4   4   3    5.32    1.03
  -4   4   2    2.45    0.67
  -4   4   2    2.37    0.59
  -4   4   1   32.94    1.91
  -4   4   1   28.84    2.29
   4  -4  -1   26.53    2.08
  -4   4   0    0.35    0.30
   4  -4   0    0.16    0.13
  -4   4   0    0.32    0.18
  -4   4  -1    1.51    0.42
   4  -4   1    1.06    0.36
  -4   4  -1    1.31    0.43
  -4   4  -2   18.68    1.66
  -4   4  -2   18.00    1.67
   4  -4   2   16.13    1.56
  -4   4  -3   16.78    1.70
  -4   4  -3   17.75    1.64
   4  -4   3   14.76    1.47
  -4   4  -4    5.43    0.90
   4  -4   4    4.23    0.77
  -4   4  -4    5.05    1.03
  -4   4  -5    0.18    0.20
   4  -4   5    0.19    0.18
  -4   4  -5    0.38    0.27
  -4   4  -6   11.44    1.82
   4  -4   6   11.42    1.34
  -4   4  -6   11.12    1.31
  -4   4  -7    8.21    1.63
  -4   4  -7    8.40    1.18
  -4   4  -8   13.07    2.24
  -4   4  -8   13.45    1.53
  -4   4  -9   -0.04    0.19
  -4   4 -10    0.66    0.70
   4  -3 -11    1.57    0.70
   4  -3 -10    5.64    1.28
   4  -3  -9    4.16    1.06
   4  -3  -8    1.69    0.65
   4  -3  -7   65.50    3.01
   4  -3  -7   45.26    3.32
   4  -3  -6    0.49    0.35
  -4   3   6    0.61    0.37
   4  -3  -6    1.14    0.36
  -4   3   5   16.32    1.82
   4  -3  -5   18.83    1.31
  -4   3   4   50.06    3.12
   4  -3  -4   53.31    2.26
  -4   3   3   24.72    2.10
   4  -3  -3   22.95    1.44
   4  -3  -3   23.88    2.01
   4  -3  -2    1.12    0.33
   4  -3  -2    1.05    0.43
  -4   3   2    0.73    0.35
  -4   3   2    1.03    0.44
  -4   3   1   31.31    2.20
   4  -3  -1   27.92    1.99
  -4   3   0    1.86    0.52
  -4   3   0    2.29    0.46
  -4   3  -1    0.87    0.33
  -4   3  -1    0.82    0.31
  -4   3  -2   20.24    1.59
  -4   3  -2   20.23    1.65
  -4   3  -3   81.19    3.74
  -4   3  -3   77.45    3.20
  -4   3  -4   16.42    1.76
  -4   3  -4   17.59    1.42
  -4   3  -5    9.64    1.45
  -4   3  -5    9.58    1.04
  -4   3  -6    1.07    0.53
  -4   3  -6    1.51    0.42
   4  -3   6    1.31    0.42
   4  -3   7    0.14    0.17
  -4   3  -7    0.03    0.10
  -4   3  -7   -0.10    0.25
   4  -3   8    3.43    0.74
  -4   3  -8    4.25    1.20
  -4   3  -8    2.73    0.62
  -4   3  -9   -0.05    0.26
  -4   3  -9    0.18    0.14
  -4   3 -10    7.88    1.84
  -4   3 -11    1.88    0.87
   4  -2 -11    1.04    0.59
   4  -2 -10    1.29    0.63
   4  -2  -9    2.69    0.83
   4  -2  -8    9.19    1.47
   4  -2  -8    7.46    1.56
   4  -2  -7   28.82    2.45
   4  -2  -7   18.98    2.07
   4  -2  -6   66.76    3.36
   4  -2  -6   46.02    3.14
   4  -2  -5   14.74    1.41
   4  -2  -5   12.88    1.52
  -4   2   4    0.72    0.36
   4  -2  -4    0.84    0.35
   4  -2  -4    1.35    0.53
   4  -2  -4    0.81    0.30
  -4   2   3   31.08    2.22
   4  -2  -3   35.13    1.86
   4  -2  -3   33.76    2.37
  -4   2   2    1.79    0.49
  -4   2   2    1.14    0.54
   4  -2  -2    2.18    0.44
   4  -2  -2    1.72    0.50
  -4   2   1    0.00    0.05
  -4   2   1    0.10    0.16
   4  -2  -1    0.08    0.11
   4  -2   0    2.28    0.50
  -4   2   0    1.79    0.45
   4  -2   0    1.94    0.44
  -4   2   0    1.83    0.41
  -4   2  -1    3.77    0.61
  -4   2  -1    3.54    0.60
   4  -2   1    3.70    0.57
  -4   2  -2   26.46    1.59
  -4   2  -2   25.32    1.73
   4  -2   2   24.97    1.45
  -4   2  -3   11.67    0.99
  -4   2  -3    9.46    1.17
   4  -2   3   10.59    0.95
  -4   2  -4   21.79    1.90
  -4   2  -4   21.85    1.34
   4  -2   4   21.22    1.36
  -4   2  -5   53.17    3.31
  -4   2  -5   52.34    2.16
   4  -2   5   49.97    2.22
  -4   2  -6    0.26    0.23
   4  -2   6    0.53    0.22
  -4   2  -6    0.41    0.19
  -4   2  -7    3.90    1.02
  -4   2  -7    5.30    0.69
  -4   2  -8    1.30    0.62
  -4   2  -8    0.89    0.30
  -4   2  -9    7.19    1.61
  -4   2  -9    7.17    0.91
  -4   2 -10    0.36    0.46
  -4   2 -10    0.50    0.22
  -4   2 -10    0.67    0.36
  -4   2 -11    2.41    1.06
  -4   2 -11    1.15    0.49
  -4   2 -12   49.99    5.06
   4  -1 -11    3.50    1.02
   4  -1 -10   -0.07    0.24
   4  -1  -9   -0.11    0.28
   4  -1  -8    0.63    0.37
   4  -1  -7    2.31    0.68
   4  -1  -7    0.54    0.31
   4  -1  -6   52.03    4.29
   4  -1  -6   51.77    3.25
   4  -1  -5   17.85    1.92
   4  -1  -5   10.73    1.36
   4  -1  -4    9.23    1.27
   4  -1  -4    8.13    1.12
   4  -1  -3   11.29    1.31
   4  -1  -3   12.55    1.21
   4  -1  -3    8.80    1.10
   4  -1  -2   -0.02    0.06
  -4   1   2    0.00    0.53
   4  -1  -2    0.19    0.11
   4  -1  -1    0.62    0.26
  -4   1   1    0.36    0.20
  -4   1   1    0.36    0.22
   4  -1  -1    0.94    0.32
  -4   1   0   75.42    2.90
   4  -1   0   75.64    3.03
   4  -1   0   70.16    2.77
  -4   1  -1   35.91    1.76
  -4   1  -1   34.51    1.86
   4  -1   1   30.68    1.90
   4  -1   1   31.93    1.60
   4  -1   2  109.47    3.08
  -4   1  -2  113.50    3.89
   4  -1   2  109.54    4.20
  -4   1  -3   86.92    2.52
   4  -1   3   80.59    2.52
  -4   1  -3   79.93    3.40
  -4   1  -4  124.30    3.08
  -4   1  -4  120.87    4.59
   4  -1   4  117.94    3.16
  -4   1  -5    1.26    0.24
   4  -1   5    1.09    0.25
  -4   1  -5    0.91    0.41
  -4   1  -6   23.18    1.12
  -4   1  -6   23.40    2.19
   4  -1   6   23.78    1.35
  -4   1  -7   19.53    2.19
   4  -1   7   20.14    1.36
  -4   1  -7   21.32    1.16
  -4   1  -8    0.48    0.34
   4  -1   8    0.52    0.23
  -4   1  -8    0.70    0.23
  -4   1  -9    0.05    0.05
  -4   1  -9    0.08    0.21
  -4   1  -9   -0.01    0.07
  -4   1 -10    0.33    0.34
  -4   1 -10    0.35    0.20
  -4   1 -11    1.64    0.85
  -4   1 -11    1.24    0.44
  -4   1 -12    3.18    1.17
  -4   1 -13    0.40    0.28
   4   0 -11    6.65    1.40
   4   0 -10    9.41    1.60
   4   0  -9    6.97    1.33
   4   0  -8   29.86    2.67
   4   0  -7   81.87    4.31
   4   0  -6   21.71    2.03
   4   0  -6    8.87    2.83
   4   0  -5   34.02    2.61
   4   0  -5   35.88    2.47
   4   0  -4    7.84    1.16
   4   0  -4   10.18    1.69
   4   0  -4    6.72    0.99
   4   0  -3   16.77    1.61
   4   0  -3   15.46    1.44
   4   0  -2   29.44    2.11
   4   0  -2   22.31    1.63
   4   0  -1   77.81    3.03
   4   0  -1   81.42    3.08
   4   0  -1   77.31    2.94
   4   0   0   35.13    1.80
   4   0   0   37.72    2.01
   4   0   0   37.86    1.83
   4   0   1    2.69    0.41
  -4   0  -1    2.56    0.50
   4   0   1    1.93    0.34
   4   0   1    2.36    0.49
  -4   0  -2   22.05    1.50
   4   0   2   21.83    1.59
   4   0   2   21.22    0.98
   4   0   3  221.69    6.44
   4   0   3  226.81    4.47
   4   0   3  216.24    4.22
   4   0   4   32.37    1.03
  -4   0  -4   32.97    2.10
  -4   0  -5   35.51    2.36
   4   0   5   35.79    1.20
   4   0   6    0.21    0.10
  -4   0  -6   -0.01    0.12
  -4   0  -7   11.44    0.68
  -4   0  -7   11.92    1.58
   4   0   7   10.55    0.81
  -4   0  -7   10.82    0.61
  -4   0  -8    0.03    0.18
   4   0   8    0.10    0.08
  -4   0  -8    0.10    0.09
  -4   0  -8    0.09    0.08
  -4   0  -9    3.85    1.05
  -4   0  -9    4.11    0.57
  -4   0  -9    3.60    0.57
   4   0   9    3.50    0.59
  -4   0 -10   25.89    1.71
  -4   0 -10   27.43    2.96
  -4   0 -10   25.15    1.69
  -4   0 -11    1.54    0.74
  -4   0 -11    1.24    0.42
  -4   0 -12   -0.09    0.19
  -4   0 -12    0.12    0.15
  -4   0 -13    1.19    0.75
   4   1 -11    0.12    0.34
   4   1 -10    2.19    0.77
   4   1  -9    0.72    0.43
   4   1  -8   18.51    2.09
   4   1  -7  205.30    7.31
   4   1  -6   17.21    1.82
   4   1  -5   35.76    6.27
   4   1  -5   85.76    3.97
   4   1  -4    4.12    0.82
  -4  -1   4    3.47    0.74
   4   1  -4    1.81    1.15
   4   1  -4    3.81    0.76
   4   1  -3    3.59    0.73
   4   1  -3    4.01    1.16
   4   1  -3    4.35    0.76
  -4  -1   3    3.60    0.72
   4   1  -2    9.18    1.29
   4   1  -2    6.11    0.83
  -4  -1   2    6.99    0.90
   4   1  -1  191.25    5.54
   4   1  -1  192.43    5.41
   4   1   0   99.19    3.27
   4   1   0  100.90    3.22
   4   1   1    0.07    0.09
   4   1   1    0.13    0.07
  -4  -1  -1    0.08    0.12
   4   1   1    0.10    0.10
   4   1   2    0.84    0.17
   4   1   2    0.82    0.18
  -4  -1  -2    0.87    0.29
   4   1   2    0.79    0.30
  -4  -1  -3   28.88    1.77
  -4  -1  -4    1.01    0.34
  -4  -1  -5    1.43    0.44
  -4  -1  -6   67.18    3.38
  -4  -1  -7    1.01    0.19
  -4  -1  -7    0.45    0.32
  -4  -1  -8    2.81    0.36
  -4  -1  -8    3.08    0.41
  -4  -1  -8    3.37    0.86
  -4  -1  -9   44.23    1.91
  -4  -1  -9   43.02    3.32
  -4  -1  -9   44.41    1.91
  -4  -1 -10    0.91    0.54
  -4  -1 -10    0.79    0.28
  -4  -1 -10    0.91    0.29
  -4  -1 -11   14.57    2.17
  -4  -1 -11   17.94    1.44
  -4  -1 -12    1.00    0.60
  -4  -1 -12    1.14    0.39
  -4  -1 -13    0.21    0.46
  -4  -1 -14   -0.07    0.19
   4   2 -11    0.65    0.32
   4   2 -10   10.30    1.73
   4   2  -9   35.79    3.13
   4   2  -8   30.92    2.76
   4   2  -7    0.49    0.40
   4   2  -6    0.82    0.36
   4   2  -5   -0.14    0.16
   4   2  -4   11.31    1.33
  -4  -2   4   13.19    1.50
   4   2  -3    0.05    0.07
  -4  -2   3    0.02    0.08
   4   2  -2   32.55    3.47
   4   2  -2   33.36    2.05
  -4  -2   2   35.40    2.18
   4   2  -1    2.50    0.49
  -4  -2   1    2.61    0.52
  -4  -2   1    1.30    0.93
   4   2  -1    3.99    0.87
   4   2   0    0.08    0.12
  -4  -2   0    0.08    0.14
  -4  -2   0   -0.37    0.70
  -4  -2  -1    8.64    1.29
   4   2   1    6.85    0.65
  -4  -2  -1    6.93    0.69
  -4  -2  -2    0.14    0.09
  -4  -2  -2   -0.11    0.28
   4   2   2    0.16    0.08
  -4  -2  -3   76.36    2.98
  -4  -2  -3   69.46    1.76
  -4  -2  -4   65.49    2.78
   4   2   4   54.57    1.43
  -4  -2  -5    9.83    1.08
   4   2   5    9.56    1.16
  -4  -2  -6    0.14    0.16
  -4  -2  -7   19.28    1.79
  -4  -2  -7   21.26    0.89
  -4  -2  -7   20.78    0.90
  -4  -2  -8    6.16    1.07
  -4  -2  -8    6.33    0.59
  -4  -2  -8    6.91    0.61
  -4  -2  -9   -0.04    0.09
  -4  -2  -9    0.08    0.09
  -4  -2  -9    0.04    0.10
  -4  -2 -10    5.04    0.68
  -4  -2 -10    4.58    0.67
  -4  -2 -10    4.16    1.03
  -4  -2 -11    4.29    0.72
  -4  -2 -11    4.68    0.72
  -4  -2 -11    4.18    1.10
  -4  -2 -12    9.47    1.73
  -4  -2 -12   11.35    1.22
  -4  -2 -13   22.11    2.84
  -4  -2 -14   16.20    2.54
  -4  -2 -15    0.47    0.49
   4   3 -10    1.23    0.64
   4   3  -9    3.98    1.05
   4   3  -8   22.11    2.37
   4   3  -7    0.93    0.49
   4   3  -6   14.49    1.74
   4   3  -5    4.41    0.91
  -4  -3   4    0.12    0.17
   4   3  -4   -0.12    0.15
   4   3  -3    6.00    0.93
  -4  -3   3    5.91    0.96
   4   3  -2  120.06    4.24
  -4  -3   2  115.38    4.33
  -4  -3   1    1.86    0.47
   4   3  -1    1.51    0.40
   4   3   0   58.39    2.42
  -4  -3   0   59.73    2.56
  -4  -3  -1    1.17    0.30
   4   3   1    1.19    0.30
  -4  -3  -2   15.76    1.62
   4   3   2   14.95    0.99
  -4  -3  -2   15.23    1.02
  -4  -3  -3   11.55    1.21
   4   3   3    9.56    0.75
  -4  -3  -3   10.11    0.73
  -4  -3  -4   16.77    1.36
  -4  -3  -4   16.19    0.82
   4   3   4   14.75    0.91
  -4  -3  -5   20.90    1.56
   4   3   5   21.02    1.07
  -4  -3  -5   23.66    0.96
   4   3   6   12.71    0.84
  -4  -3  -6   11.97    1.22
   4   3   6   11.25    1.30
  -4  -3  -6   12.90    0.75
   4   3   7   11.34    0.84
  -4  -3  -7   13.38    1.37
  -4  -3  -7   12.46    0.87
  -4  -3  -7   12.53    0.82
  -4  -3  -8   -0.04    0.06
  -4  -3  -8   -0.08    0.08
  -4  -3  -8    0.00    0.07
  -4  -3  -9    5.44    0.67
  -4  -3  -9    5.73    1.07
  -4  -3  -9    5.36    0.70
  -4  -3 -10   13.98    1.74
  -4  -3 -10   14.94    1.29
  -4  -3 -10   14.34    1.21
  -4  -3 -11    0.12    0.16
  -4  -3 -11    0.17    0.11
  -4  -3 -11    0.08    0.20
  -4  -3 -12   20.80    2.42
  -4  -3 -12   21.51    1.75
  -4  -3 -13    0.27    0.18
  -4  -3 -13    0.25    0.29
  -4  -3 -14    1.49    0.73
  -4  -3 -15    4.13    1.23
   4   4 -10   32.78    3.22
   4   4  -9    1.92    0.75
   4   4  -8    5.84    1.23
   4   4  -7    6.11    1.21
   4   4  -6    0.00    0.08
   4   4  -5    3.57    0.84
   4   4  -4    1.06    0.44
  -4  -4   3    0.26    0.25
   4   4  -3    0.45    0.28
   4   4  -2   46.46    2.65
  -4  -4   2   45.68    2.73
   4   4  -1   94.43    3.70
  -4  -4   1   93.20    3.79
   4   4   0   14.95    1.31
  -4  -4   0   15.10    1.35
  -4  -4  -1    0.09    0.37
   4   4   1    0.56    0.35
   4   4   1    0.20    0.14
  -4  -4  -1    0.34    0.21
  -4  -4  -2    0.09    0.31
   4   4   2    0.74    0.26
  -4  -4  -2    0.83    0.25
  -4  -4  -3   26.86    1.46
   4   4   3   27.68    1.59
  -4  -4  -3   28.76    2.47
   4   4   4    1.13    0.31
  -4  -4  -4    1.89    0.51
  -4  -4  -4    1.39    0.31
   4   4   5  129.94    3.87
  -4  -4  -5  137.15    3.74
  -4  -4  -6   19.16    1.51
   4   4   6   20.12    1.30
   4   4   6   15.37    1.47
  -4  -4  -6   19.84    1.21
   4   4   7   41.34    2.02
  -4  -4  -7   44.97    2.49
  -4  -4  -7   46.87    2.13
   4   4   8    0.08    0.06
  -4  -4  -8    0.10    0.14
  -4  -4  -8    0.06    0.14
   4   4   9    0.97    0.31
  -4  -4  -9    0.65    0.28
  -4  -4  -9    1.05    0.32
  -4  -4  -9    1.03    0.40
  -4  -4 -10   -0.05    0.10
  -4  -4 -10    0.12    0.07
  -4  -4 -10   -0.08    0.26
  -4  -4 -11   45.95    3.22
  -4  -4 -11   48.29    2.76
  -4  -4 -11   46.70    2.56
  -4  -4 -12   13.26    1.82
  -4  -4 -12   11.14    1.29
  -4  -4 -13    0.59    0.30
  -4  -4 -13    0.10    0.17
  -4  -4 -14    0.14    0.27
  -4  -4 -15    0.17    0.37
  -4  -4 -16    6.34    1.59
   4   5  -9    5.98    1.36
   4   5  -8    4.16    1.08
   4   5  -7    1.63    0.62
   4   5  -6    1.41    0.57
   4   5  -5   28.36    2.51
   4   5  -4    0.11    0.12
   4   5  -3   47.28    3.04
   4   5  -2    7.67    1.13
  -4  -5   1    0.11    0.12
   4   5  -1    0.16    0.15
   4   5   0    4.26    0.77
  -4  -5   0    4.93    0.83
   4   5   0    3.73    1.17
   4   5   1   10.44    1.17
  -4  -5  -1   10.96    1.15
   4   5   2   13.97    1.29
  -4  -5  -2   12.33    1.16
   4   5   2   13.36    1.26
  -4  -5  -3   62.80    2.62
   4   5   3   61.62    2.78
  -4  -5  -4   14.81    1.20
   4   5   4   15.69    1.32
  -4  -5  -5    6.60    1.00
  -4  -5  -5    7.99    0.87
   4   5   5    6.06    0.81
   4   5   6    7.87    1.02
   4   5   6    7.46    0.92
  -4  -5  -6    9.15    0.95
  -4  -5  -7    0.06    0.10
  -4  -5  -7   -0.04    0.08
   4   5   7    0.03    0.07
  -4  -5  -8    1.01    0.38
   4   5   8    0.67    0.29
  -4  -5  -8    0.72    0.31
   4   5   9    8.56    1.07
  -4  -5  -9   10.17    1.24
  -4  -5  -9   11.24    1.23
   4   5  10    4.46    0.81
  -4  -5 -10    4.86    0.90
  -4  -5 -10    4.68    0.84
  -4  -5 -10    4.36    0.75
   4   5  11   18.57    1.70
  -4  -5 -11   18.17    1.86
  -4  -5 -11   21.24    1.91
  -4  -5 -11   18.95    1.67
  -4  -5 -12    1.92    0.54
  -4  -5 -12    1.57    0.57
  -4  -5 -13    1.08    0.44
  -4  -5 -13    1.42    0.58
  -4  -5 -14    0.14    0.31
  -4  -5 -15   -0.13    0.37
   4   6  -8    2.68    0.93
   4   6  -7    3.85    1.07
   4   6  -6   15.17    2.04
   4   6  -5   10.87    1.65
   4   6  -4    6.21    1.20
   4   6  -3   10.10    1.47
   4   6  -2    0.14    0.24
   4   6  -1    0.58    0.34
   4   6   0    2.71    1.06
   4   6   0    3.83    0.80
  -4  -6   0    4.12    0.80
   4   6   1    1.19    0.59
   4   6   1    0.78    0.32
  -4  -6  -1    0.77    0.34
  -4  -6  -2    5.16    0.82
   4   6   2    6.06    0.95
   4   6   3    0.71    0.32
  -4  -6  -3    1.33    0.41
   4   6   3    1.02    0.40
   4   6   4   15.66    1.43
  -4  -6  -4   14.62    1.35
   4   6   4   16.00    1.52
   4   6   5    0.28    0.21
  -4  -6  -5   -0.01    0.10
   4   6   5    0.06    0.12
   4   6   6    3.25    0.68
  -4  -6  -6    3.13    0.80
  -4  -6  -6    3.27    0.65
   4   6   6    2.90    0.61
   4   6   7    3.30    0.68
  -4  -6  -7    4.42    0.82
   4   6   7    3.67    0.72
  -4  -6  -7    3.56    0.70
  -4  -6  -7    3.44    0.67
  -4  -6  -8    0.18    0.17
   4   6   8    0.08    0.08
  -4  -6  -8    0.20    0.23
   4   6   9   29.45    2.22
  -4  -6  -9   32.97    2.24
  -4  -6  -9   34.10    2.40
   4   6  10    0.76    0.37
  -4  -6 -10    0.45    0.32
  -4  -6 -10    0.31    0.25
   4   6  11    1.07    0.45
  -4  -6 -11    1.25    0.46
   4   6  12    4.88    0.96
  -4  -6 -12    5.72    1.04
  -4  -6 -12    5.86    1.02
  -4  -6 -13    0.10    0.12
  -4  -6 -13   -0.03    0.17
  -4  -6 -14    0.38    0.32
   4   7  -7    0.46    0.39
   4   7  -6    3.11    1.01
   4   7  -5   18.53    2.35
   4   7  -4   16.23    2.10
   4   7  -3    5.61    1.26
   4   7  -2    0.90    0.45
   4   7  -1    0.26    0.23
   4   7   0   63.27    3.66
   4   7   0   62.78    3.74
   4   7   1  202.53    8.52
   4   7   1  161.03    6.20
   4   7   2    0.29    0.25
   4   7   2    0.01    0.18
   4   7   3    7.28    1.12
   4   7   3    6.67    1.09
   4   7   4   16.24    1.51
  -4  -7  -4   15.21    1.55
   4   7   4   17.14    1.74
   4   7   5    3.95    0.72
   4   7   5    3.37    0.75
  -4  -7  -5    3.55    0.74
   4   7   6   25.21    1.86
   4   7   6   25.80    2.15
  -4  -7  -6   26.60    2.07
   4   7   7   13.23    1.37
   4   7   7   14.49    1.59
  -4  -7  -7   14.48    1.55
  -4  -7  -8   20.15    2.10
   4   7   8   19.98    1.92
   4   7   9    0.15    0.27
  -4  -7  -9    0.24    0.24
  -4  -7 -10    4.05    0.86
   4   7  10    2.39    0.70
   4   7  11    2.26    0.69
  -4  -7 -11    2.71    0.69
   4   7  12   16.84    1.96
  -4  -7 -12   21.72    1.93
   4   7  13    2.42    0.77
  -4  -7 -13    1.56    0.59
   4   8  -6    0.02    0.20
   4   8  -5    0.16    0.26
   4   8  -4    1.69    0.74
   4   8  -3    0.02    0.27
   4   8  -2   16.19    2.12
   4   8  -1   23.22    2.48
   4   8  -1   23.54    2.43
   4   8   0    2.87    0.82
   4   8   1   25.08    2.43
   4   8   2    6.40    1.19
   4   8   3   -0.04    0.18
   4   8   3   -0.04    0.14
   4   8   4    0.12    0.22
   4   8   4   -0.01    0.21
   4   8   5    1.16    0.48
   4   8   5    1.01    0.41
   4   8   6   46.63    2.60
   4   8   6   45.12    3.16
   4   8   7    9.25    1.13
   4   8   7   10.48    1.48
  -4  -8  -8   -0.29    0.75
   4   8   8    0.86    0.42
  -4  -8  -9    0.03    0.47
   4   8   9    1.53    0.57
   4   8  10    0.28    0.20
  -4  -8 -10    0.35    0.37
   4   8  11    1.28    0.56
   4   8  12    1.21    0.59
   4   8  13    1.94    0.76
   4   8  14    0.60    0.42
   4   9  -4   -0.17    0.23
   4   9  -4    0.18    0.25
   4   9  -3    0.43    0.50
   4   9  -3   -0.04    0.23
   4   9  -2    9.30    1.67
   4   9  -1    0.95    0.56
   4   9   0   10.07    1.72
   4   9   1   -0.08    0.25
   4   9   2    2.21    0.76
   4   9   3    2.62    0.80
   4   9   4    3.42    0.92
   4   9   5    1.88    0.70
   4   9   6    0.08    0.23
   4   9   7    0.51    0.37
   4   9   8    8.84    1.50
   4   9   9    0.87    0.47
   4   9  10    0.13    0.13
   4   9  11    2.39    0.83
   4   9  12    0.51    0.41
   4   9  13    2.13    0.83
   4  10  -1    6.77    1.53
   4  10   0    5.81    1.39
   4  10   1    1.77    0.74
   4  10   2    4.48    1.18
   4  10   3    1.39    0.67
   4  10   4   -0.16    0.30
   4  10   5    7.21    1.47
   4  10   6    0.69    0.47
   4  10   7    1.13    0.58
   4  10   8   -0.09    0.25
   4  10   9    0.43    0.42
   4  10  10    0.57    0.41
   4  10  11    3.88    1.11
   4  10  12    1.57    0.73
   4  11   2   14.34    2.28
   4  11   3    8.33    1.71
   4  11   4    4.20    1.19
   4  11   5   13.03    2.15
   4  11   6    6.33    1.49
   4  11   7    0.25    0.29
   4  11   8    0.19    0.32
   4  11   9    9.64    1.84
  -5   8   2    0.68    0.51
  -5   8   1    0.72    0.44
  -5   8   0    0.94    0.56
  -5   8  -1    0.50    0.50
  -5   7   5    1.19    0.63
  -5   7   4    7.18    1.58
  -5   7   3   11.37    1.91
  -5   7   2    0.25    0.46
  -5   7   1    3.86    1.12
  -5   7   0    3.65    1.06
  -5   7  -1    0.08    0.33
  -5   7  -2    0.38    0.42
  -5   7  -3   10.97    1.78
  -5   6   7    2.03    0.86
  -5   6   6    1.76    0.77
  -5   6   5    2.73    0.97
  -5   6   4   12.78    2.00
  -5   6   3   50.55    3.90
  -5   6   2    3.11    0.95
  -5   6   1    7.58    1.44
  -5   6   0    4.27    1.06
  -5   6  -1    2.70    0.83
  -5   6  -1    2.96    0.67
  -5   6  -2    0.19    0.24
  -5   6  -2    0.07    0.10
  -5   6  -3    2.22    0.75
  -5   6  -3    2.49    0.73
  -5   6  -4    0.40    0.31
  -5   6  -4    0.34    0.37
  -5   6  -5    0.19    0.29
  -5   6  -6    1.88    0.78
  -5   6  -7    0.91    0.53
   5  -5  -8    1.50    0.69
  -5   5   7   -0.12    0.35
   5  -5  -7   -0.04    0.19
  -5   5   6    1.55    0.72
  -5   5   5    0.17    0.20
  -5   5   4    0.34    0.25
  -5   5   3    2.34    0.77
  -5   5   2    3.64    0.95
  -5   5   2    2.17    0.78
  -5   5   1    0.02    0.16
  -5   5   1    0.16    0.25
  -5   5   0    6.32    1.19
  -5   5   0    7.41    1.00
  -5   5  -1    5.70    1.11
  -5   5  -1    6.38    0.97
  -5   5  -2    6.88    1.21
  -5   5  -2    6.08    1.01
  -5   5  -3    0.45    0.31
  -5   5  -3    0.54    0.30
  -5   5  -4   26.71    2.34
  -5   5  -4   24.96    2.42
  -5   5  -5   -0.01    0.13
  -5   5  -5    0.54    0.32
  -5   5  -6    5.31    1.24
  -5   5  -7    0.77    0.46
  -5   5  -8   -0.13    0.22
   5  -4  -9    2.22    0.86
   5  -4  -8    0.49    0.41
   5  -4  -7    1.02    0.47
  -5   4   6    2.83    0.89
   5  -4  -6    3.12    0.88
  -5   4   5    0.89    0.48
  -5   4   4   29.37    2.64
  -5   4   3    1.72    0.62
  -5   4   3    0.51    0.67
  -5   4   2    0.24    0.28
  -5   4   2    0.47    0.41
  -5   4   1   24.69    2.26
  -5   4   1   28.10    2.06
  -5   4   0    8.76    1.29
  -5   4   0    9.03    1.10
  -5   4  -1    6.22    1.06
  -5   4  -1    4.87    0.82
   5  -4   1    4.60    0.83
   5  -4   2    2.99    0.64
  -5   4  -2    2.98    0.72
   5  -4   2    2.68    0.64
  -5   4  -2    2.90    0.67
  -5   4  -3    1.64    0.51
   5  -4   3    1.03    0.41
  -5   4  -3    1.07    0.47
  -5   4  -4    0.67    0.36
   5  -4   4    0.53    0.26
  -5   4  -4    0.46    0.30
  -5   4  -5   11.51    1.35
  -5   4  -5   11.54    1.68
  -5   4  -6    0.57    0.31
  -5   4  -6    0.26    0.25
  -5   4  -7    0.33    0.21
  -5   4  -8   29.67    3.30
  -5   4  -9    0.17    0.30
   5  -3 -10    3.59    1.07
   5  -3  -9    0.48    0.33
   5  -3  -8   -0.15    0.25
   5  -3  -7    1.43    0.64
   5  -3  -6    1.09    0.49
  -5   3   5    0.69    0.42
   5  -3  -5    1.18    0.50
   5  -3  -5    0.59    0.24
  -5   3   4    7.84    1.30
   5  -3  -4    7.23    0.92
  -5   3   3    0.96    0.44
   5  -3  -3    0.43    0.23
   5  -3  -2    0.87    0.34
  -5   3   2    0.63    0.36
  -5   3   2    0.26    0.32
  -5   3   1    5.98    1.02
  -5   3   1    6.57    0.99
   5  -3  -1    6.32    0.99
  -5   3   0    5.55    0.94
  -5   3   0    6.24    0.94
   5  -3   0    6.33    0.95
  -5   3  -1    0.19    0.17
  -5   3  -1    0.29    0.21
   5  -3   1    0.22    0.25
  -5   3  -2    1.30    0.42
  -5   3  -2    1.06    0.39
  -5   3  -3    0.70    0.32
   5  -3   3    0.61    0.29
  -5   3  -3    0.70    0.33
  -5   3  -4    0.84    0.34
   5  -3   4    0.63    0.25
  -5   3  -4    0.62    0.34
  -5   3  -5    1.64    0.44
   5  -3   5    1.31    0.38
  -5   3  -5    1.10    0.50
  -5   3  -6   18.49    1.47
  -5   3  -6   16.67    2.05
   5  -3   6   19.52    1.58
  -5   3  -7   20.83    2.49
  -5   3  -7   23.23    1.66
  -5   3  -8    0.14    0.23
  -5   3  -9    0.14    0.25
  -5   3 -10    0.82    0.62
   5  -2 -10    1.98    0.80
   5  -2  -9    2.72    0.88
   5  -2  -8    5.85    1.24
   5  -2  -7    1.70    0.66
   5  -2  -6    1.30    0.55
   5  -2  -6    1.65    0.48
   5  -2  -5    4.42    0.96
   5  -2  -5    5.91    0.88
   5  -2  -4    0.44    0.31
   5  -2  -4    0.20    0.08
   5  -2  -3    6.11    0.86
   5  -2  -3    6.77    1.07
  -5   2   2   90.24    4.06
   5  -2  -2   94.95    3.64
   5  -2  -2   88.47    3.95
  -5   2   1    0.13    0.13
   5  -2  -1    0.65    0.32
  -5   2   1    0.53    0.32
   5  -2  -1    0.48    0.25
  -5   2   0   20.29    1.69
   5  -2   0   18.50    1.65
  -5   2  -1   -0.15    0.14
  -5   2  -1    0.10    0.10
   5  -2   1    0.13    0.09
  -5   2  -2   12.32    1.17
  -5   2  -2   11.28    1.24
   5  -2   2   10.70    1.00
  -5   2  -3    7.73    0.86
  -5   2  -3    5.84    0.93
   5  -2   3    6.90    0.82
  -5   2  -4    0.08    0.11
   5  -2   4    0.15    0.12
  -5   2  -4   -0.05    0.11
  -5   2  -5   14.61    1.09
  -5   2  -5   14.07    1.70
   5  -2   5   12.81    1.07
  -5   2  -6    1.40    0.32
  -5   2  -6    0.42    0.26
   5  -2   6    0.91    0.28
  -5   2  -7    5.18    0.62
   5  -2   7    5.77    0.78
  -5   2  -7    4.21    1.04
  -5   2  -8    2.02    0.39
  -5   2  -8    2.17    0.82
  -5   2  -9    1.77    0.77
  -5   2 -10    0.40    0.46
  -5   2 -11    5.95    1.61
   5  -1 -10    8.63    1.63
   5  -1  -9    1.62    0.65
   5  -1  -8    1.20    0.53
   5  -1  -7    0.91    0.45
   5  -1  -6    2.99    0.81
   5  -1  -6    4.55    1.00
   5  -1  -5   96.81    4.91
   5  -1  -5   56.17    3.52
   5  -1  -4    8.33    1.12
   5  -1  -4    7.37    1.15
   5  -1  -3    2.90    0.68
   5  -1  -3    2.34    0.56
   5  -1  -3    3.36    0.77
   5  -1  -2    5.28    0.90
   5  -1  -2    6.26    0.89
   5  -1  -2    4.85    0.84
  -5   1   1    8.42    1.47
   5  -1  -1   11.14    1.19
   5  -1  -1   11.30    1.20
  -5   1   0   20.37    1.72
   5  -1   0   16.77    1.51
   5  -1   0   16.80    1.37
  -5   1  -1    1.14    0.34
   5  -1   1    1.18    0.34
  -5   1  -1    1.46    0.43
   5  -1   1    1.33    0.44
   5  -1   2    1.50    0.49
  -5   1  -2    1.32    0.33
  -5   1  -2    1.94    0.50
   5  -1   2    1.22    0.30
  -5   1  -3    7.15    0.68
  -5   1  -3    8.02    1.05
   5  -1   3    7.78    0.66
  -5   1  -4  110.33    2.90
  -5   1  -4  101.29    4.32
   5  -1   4  101.73    2.98
  -5   1  -5    0.24    0.10
   5  -1   5    0.14    0.09
  -5   1  -6   34.01    1.08
  -5   1  -6   35.98    2.81
   5  -1   7    0.26    0.15
  -5   1  -7    0.07    0.05
  -5   1  -7    0.08    0.31
  -5   1  -8    4.67    0.38
   5  -1   8    5.99    0.71
  -5   1  -8    5.68    1.25
  -5   1  -9    5.26    1.29
  -5   1 -10    4.39    1.23
  -5   1 -11    1.31    0.79
  -5   1 -12   -0.04    0.31
   5   0 -10    1.50    0.65
   5   0  -9    6.09    1.31
   5   0  -8    6.86    1.33
   5   0  -7   17.69    2.05
   5   0  -6    8.19    1.33
   5   0  -5    1.29    0.53
   5   0  -5    2.48    0.79
   5   0  -4   40.78    2.93
   5   0  -4   26.91    2.20
   5   0  -3    7.61    1.15
   5   0  -3    9.52    1.32
   5   0  -3    6.35    0.99
   5   0  -2    4.46    0.78
   5   0  -2    3.53    0.72
   5   0  -2    3.86    0.72
   5   0  -1    6.64    0.93
   5   0  -1    5.76    0.82
   5   0   0    0.93    0.32
   5   0   0    0.78    0.30
  -5   0   0    0.97    0.43
   5   0   0    1.22    0.38
   5   0   1   13.30    1.07
   5   0   1   12.80    1.32
   5   0   1   14.76    1.14
  -5   0  -2   18.33    1.52
   5   0   2   18.43    1.63
   5   0   2   16.72    1.03
   5   0   2   18.25    1.13
  -5   0  -3   53.39    2.77
   5   0   3   53.34    3.01
   5   0   3   50.67    1.61
   5   0   3   56.14    1.86
   5   0   4    0.50    0.12
   5   0   4    0.35    0.11
  -5   0  -4    0.59    0.32
  -5   0  -5    0.53    0.33
  -5   0  -6    0.39    0.26
  -5   0  -7   10.36    1.50
  -5   0  -8   -0.09    0.24
  -5   0  -9    5.16    1.19
  -5   0 -10    0.13    0.35
  -5   0 -11    2.02    0.90
  -5   0 -12    4.27    1.32
  -5   0 -13    0.21    0.36
   5   1 -10    0.47    0.30
   5   1  -9   15.82    2.13
   5   1  -8    1.45    0.59
   5   1  -7    0.42    0.32
   5   1  -6   49.46    3.34
   5   1  -5   30.53    2.48
   5   1  -4    3.39    0.78
   5   1  -4    3.94    1.08
   5   1  -3    1.48    0.49
   5   1  -3    1.95    0.56
   5   1  -3    1.43    0.55
   5   1  -2   21.13    1.79
   5   1  -2   22.48    1.78
   5   1  -1   70.28    3.36
   5   1  -1   58.88    2.82
   5   1   0   18.70    1.43
   5   1   0   21.04    1.70
   5   1   0   19.12    1.39
   5   1   1    0.48    0.20
   5   1   1    0.22    0.12
  -5  -1  -1    0.90    0.39
   5   1   1    0.62    0.29
   5   1   2   17.87    1.05
  -5  -1  -2   18.65    1.73
   5   1   2   17.49    1.57
   5   1   2   19.56    1.08
  -5  -1  -3    7.03    0.94
   5   1   3    7.05    0.49
   5   1   3    7.35    1.02
   5   1   3    8.01    0.51
   5   1   4    1.35    0.46
  -5  -1  -4    1.36    0.44
  -5  -1  -5    7.73    1.08
  -5  -1  -6   21.42    1.93
  -5  -1  -7   15.05    1.72
  -5  -1  -8    8.90    1.41
  -5  -1  -9    2.60    0.81
  -5  -1 -10   12.11    1.85
  -5  -1 -10   12.19    0.85
  -5  -1 -11    6.64    1.46
  -5  -1 -12    2.79    1.03
  -5  -1 -13    0.41    0.36
   5   2 -10    0.29    0.32
   5   2  -9   24.35    2.68
   5   2  -8   16.36    2.09
   5   2  -7    2.82    0.82
   5   2  -6   79.39    4.35
   5   2  -5    0.69    0.38
   5   2  -4   38.97    2.69
   5   2  -3    2.04    0.58
  -5  -2   3    1.41    0.50
   5   2  -3    2.41    0.88
   5   2  -2    0.34    0.22
  -5  -2   2    0.29    0.22
   5   2  -2    0.38    0.28
   5   2  -1    0.36    0.21
  -5  -2   1    1.07    0.37
  -5  -2   1    0.27    0.72
   5   2  -1    1.23    0.55
   5   2   0   48.08    2.29
  -5  -2   0   46.85    2.28
   5   2   1   68.84    3.24
   5   2   1   67.39    2.51
  -5  -2  -1   66.04    2.51
  -5  -2  -2    0.37    0.29
   5   2   2    0.34    0.21
   5   2   2    0.20    0.11
  -5  -2  -3   18.28    1.65
   5   2   3   17.22    0.77
   5   2   4    2.09    0.21
   5   2   4    1.79    0.19
  -5  -2  -4    2.20    0.52
   5   2   4    2.33    0.58
   5   2   5    0.12    0.14
  -5  -2  -5    0.28    0.19
  -5  -2  -6    8.96    1.18
  -5  -2  -7   -0.06    0.14
  -5  -2  -8    0.13    0.21
  -5  -2  -9    4.93    1.07
  -5  -2 -10   53.66    3.79
  -5  -2 -10   58.15    1.81
  -5  -2 -11   20.33    2.42
  -5  -2 -11   22.91    1.29
  -5  -2 -12    0.43    0.45
  -5  -2 -13   19.52    2.67
  -5  -2 -14    0.18    0.31
   5   3 -10    5.28    1.33
   5   3  -9    0.53    0.43
   5   3  -8   26.04    2.68
   5   3  -7    1.94    0.70
   5   3  -6    6.09    1.17
   5   3  -5    1.35    0.51
   5   3  -4    7.40    1.18
   5   3  -3   13.80    1.52
  -5  -3   3   13.77    1.59
   5   3  -2    3.67    0.73
   5   3  -2    6.10    1.43
  -5  -3   2    4.31    0.83
  -5  -3   1    0.16    0.18
   5   3  -1    0.41    0.33
   5   3  -1    0.13    0.10
   5   3   0   33.43    1.96
  -5  -3   0   33.05    2.03
   5   3   1   11.85    1.01
   5   3   1   11.55    1.33
  -5  -3  -1   10.15    0.99
  -5  -3  -2   10.65    1.53
   5   3   2   10.92    1.25
   5   3   2   11.89    0.92
  -5  -3  -2    9.51    0.87
  -5  -3  -3    0.07    0.07
  -5  -3  -3    0.24    0.18
   5   3   3    0.08    0.07
   5   3   3    0.09    0.08
  -5  -3  -4    0.58    0.14
  -5  -3  -4    0.74    0.33
   5   3   4    0.87    0.21
   5   3   4    0.90    0.37
   5   3   5    0.14    0.07
  -5  -3  -5    0.23    0.20
   5   3   5    0.04    0.09
   5   3   6   15.44    0.73
  -5  -3  -6   17.54    1.61
   5   3   6   16.66    1.70
  -5  -3  -7    9.77    1.25
  -5  -3  -8    7.98    1.19
  -5  -3  -9    0.37    0.31
  -5  -3  -9    0.15    0.07
  -5  -3 -10    0.93    0.25
  -5  -3 -10    1.15    0.56
  -5  -3 -10    0.89    0.22
  -5  -3 -11   11.14    1.72
  -5  -3 -11   11.16    0.92
  -5  -3 -12    7.13    1.43
  -5  -3 -13    2.59    0.92
  -5  -3 -14    6.49    1.57
  -5  -3 -15    0.57    0.56
   5   4  -9    1.68    0.74
   5   4  -8    0.40    0.30
   5   4  -7    4.64    1.10
   5   4  -6    1.30    0.56
   5   4  -5   13.20    1.69
   5   4  -4    1.09    0.47
   5   4  -3    4.72    0.93
  -5  -4   2    0.88    0.39
   5   4  -2    1.12    0.41
  -5  -4   1    0.12    0.08
   5   4  -1    0.37    0.23
  -5  -4   0    1.10    0.39
   5   4   0    2.15    0.70
   5   4   0    1.16    0.38
   5   4   1    9.70    1.03
  -5  -4  -1   10.13    1.08
   5   4   2   12.67    1.40
   5   4   2   12.27    1.08
  -5  -4  -2   12.25    1.10
  -5  -4  -3    1.69    0.65
  -5  -4  -3    2.36    0.44
   5   4   3    2.25    0.56
   5   4   3    1.99    0.40
  -5  -4  -4    6.33    1.02
   5   4   4    4.21    0.78
  -5  -4  -4    5.15    0.59
   5   4   4    4.71    0.61
   5   4   5   93.88    4.08
   5   4   5   90.56    3.01
  -5  -4  -5  101.77    2.83
  -5  -4  -6   10.50    1.23
   5   4   6    8.32    0.75
   5   4   6    8.64    1.18
  -5  -4  -6   10.39    0.71
   5   4   7    6.60    0.68
  -5  -4  -7    7.10    1.03
   5   4   7    6.66    1.11
  -5  -4  -7    7.21    0.58
   5   4   8    4.13    0.55
  -5  -4  -8    5.02    0.52
  -5  -4  -8    4.35    0.49
  -5  -4  -8    3.46    0.77
   5   4   9    1.88    0.38
  -5  -4  -9    1.90    0.35
  -5  -4  -9    1.66    0.55
  -5  -4  -9    2.52    0.45
  -5  -4 -10    9.09    1.36
  -5  -4 -10    9.27    0.86
  -5  -4 -10    8.67    0.90
  -5  -4 -11    0.06    0.11
  -5  -4 -11   -0.38    0.30
  -5  -4 -12   14.79    1.97
  -5  -4 -13   23.58    2.66
  -5  -4 -14   12.91    2.06
  -5  -4 -15    5.70    1.43
   5   5  -8    0.09    0.23
   5   5  -7    7.32    1.44
   5   5  -6    1.13    0.53
   5   5  -5   18.99    2.12
   5   5  -4    6.06    1.13
   5   5  -3    1.87    0.59
   5   5  -2    3.52    0.80
   5   5  -1   17.02    1.67
  -5  -5   1   16.77    1.69
   5   5   0   36.75    2.37
  -5  -5   0   36.95    2.44
   5   5   1   89.72    3.74
  -5  -5  -1   84.75    3.71
   5   5   2   33.36    2.50
   5   5   2   27.44    1.87
  -5  -5  -2   28.46    1.89
   5   5   3   10.48    1.27
  -5  -5  -3    9.81    1.01
   5   5   3    8.36    0.99
  -5  -5  -4    0.12    0.18
   5   5   4    0.06    0.05
   5   5   4    0.17    0.19
  -5  -5  -4    0.22    0.13
  -5  -5  -5    0.26    0.27
   5   5   5    0.28    0.17
   5   5   5    0.25    0.23
  -5  -5  -5    0.10    0.11
   5   5   6    0.92    0.30
  -5  -5  -6    1.54    0.52
  -5  -5  -6    1.07    0.29
   5   5   6    0.93    0.40
  -5  -5  -7   17.25    1.71
   5   5   7   13.99    1.21
   5   5   7   13.36    1.56
  -5  -5  -7   16.30    1.17
   5   5   8    8.09    0.93
  -5  -5  -8    8.65    1.20
  -5  -5  -8    9.62    0.92
   5   5   9    0.97    0.33
  -5  -5  -9    0.56    0.23
  -5  -5  -9    0.58    0.31
   5   5  10   33.75    2.07
  -5  -5 -10   39.43    2.79
  -5  -5 -10   36.45    2.02
  -5  -5 -10   38.18    2.24
  -5  -5 -11   81.30    4.33
  -5  -5 -11   84.98    3.40
  -5  -5 -12   16.84    1.98
  -5  -5 -12   18.75    1.58
  -5  -5 -13    0.88    0.47
  -5  -5 -14    0.19    0.28
  -5  -5 -15    2.30    0.85
   5   6  -7    0.30    0.37
   5   6  -6   -0.05    0.21
   5   6  -5    1.20    0.57
   5   6  -4   28.34    2.66
   5   6  -3    4.30    0.98
   5   6  -2    1.13    0.49
   5   6  -1    0.30    0.26
   5   6   0    4.47    0.89
  -5  -6  -1    7.58    1.10
   5   6   1    8.77    1.20
   5   6   2  116.74    4.69
  -5  -6  -2  120.35    4.61
   5   6   2  123.56    4.80
   5   6   3   36.98    2.54
  -5  -6  -3   32.66    2.11
   5   6   3   33.00    2.25
  -5  -6  -4   -0.11    0.35
   5   6   4    0.08    0.09
   5   6   4    0.06    0.06
  -5  -6  -4    0.05    0.08
   5   6   5    4.71    0.85
  -5  -6  -5    2.77    1.02
  -5  -6  -5    4.85    0.75
   5   6   5    4.20    0.76
   5   6   6    2.38    0.55
  -5  -6  -6    1.93    0.67
  -5  -6  -6    1.77    0.44
   5   6   6    2.30    0.61
  -5  -6  -7   18.21    1.86
   5   6   7   14.91    1.61
   5   6   7   14.74    1.41
  -5  -6  -7   18.55    1.47
  -5  -6  -8    1.88    0.67
   5   6   8    1.09    0.39
  -5  -6  -8    1.16    0.38
   5   6   9    1.47    0.46
  -5  -6  -9    2.04    0.60
  -5  -6  -9    1.91    0.50
   5   6  10    0.01    0.14
  -5  -6 -10    0.31    0.17
  -5  -6 -10    0.16    0.17
   5   6  11    3.78    0.78
  -5  -6 -11    4.65    0.95
  -5  -6 -11    5.11    0.83
   5   6  12    0.33    0.21
  -5  -6 -12    0.46    0.31
  -5  -6 -12    0.47    0.29
  -5  -6 -13    2.26    0.72
  -5  -6 -14    0.99    0.55
  -5  -6 -15   -0.09    0.33
   5   7  -6    0.33    0.31
   5   7  -5   -0.06    0.14
   5   7  -4    3.52    1.00
   5   7  -3   10.75    1.66
   5   7  -2    2.80    0.82
   5   7  -1    3.00    0.82
   5   7   0    0.11    0.23
   5   7   1   41.75    2.95
   5   7   1   40.94    2.89
   5   7   2    3.38    0.80
  -5  -7  -3   29.26    2.19
   5   7   3   29.07    2.34
   5   7   4    5.68    0.98
  -5  -7  -4    6.26    0.97
   5   7   4    5.96    1.01
   5   7   5    0.34    0.25
   5   7   5    0.93    0.40
  -5  -7  -5    0.49    0.24
   5   7   6    2.72    0.67
  -5  -7  -6    0.86    0.56
  -5  -7  -6    3.44    0.71
   5   7   6    3.22    0.73
   5   7   7    0.34    0.21
  -5  -7  -7    1.11    0.70
  -5  -7  -7    0.35    0.24
   5   7   7    0.49    0.33
  -5  -7  -8    1.68    0.63
  -5  -7  -8    2.81    0.64
   5   7   8    2.61    0.67
  -5  -7  -9    0.34    0.32
   5   7   9    0.57    0.32
  -5  -7  -9   -0.16    0.10
  -5  -7 -10   13.45    1.71
   5   7  10    9.14    1.31
   5   7  11    2.96    0.75
  -5  -7 -11    2.52    0.73
  -5  -7 -12    0.17    0.13
   5   7  12    0.11    0.12
  -5  -7 -12    0.49    0.36
  -5  -7 -13   15.33    1.82
   5   8  -5    4.87    1.29
   5   8  -4    2.40    0.85
   5   8  -3    0.78    0.47
   5   8  -2    0.60    0.40
   5   8  -1    0.32    0.32
   5   8   0    2.56    0.78
   5   8   0    2.27    0.75
   5   8   1   -0.05    0.19
   5   8   2    2.01    0.70
   5   8   3    0.33    0.29
   5   8   4   10.31    1.48
   5   8   5   25.94    2.35
   5   8   6   22.59    2.16
   5   8   7    9.62    1.28
   5   8   7   11.60    1.54
   5   8   8   31.98    2.57
  -5  -8  -8   12.46    3.00
   5   8   9    7.25    1.24
  -5  -8  -9    3.46    1.18
   5   8  10    0.22    0.26
  -5  -8 -10    0.90    0.51
   5   8  11    4.70    1.02
  -5  -8 -11    5.29    1.11
   5   8  12    0.28    0.29
   5   9  -3    0.00    0.25
   5   9  -2    3.39    1.05
   5   9  -2    3.11    1.03
   5   9  -1   16.56    2.23
   5   9   0    1.17    0.55
   5   9   1    4.38    1.13
   5   9   2    0.74    0.46
   5   9   3    7.18    1.34
   5   9   4    0.37    0.33
   5   9   5    0.13    0.21
   5   9   6    1.45    0.61
   5   9   7    3.49    0.93
   5   9   8    1.29    0.57
   5   9   9   -0.10    0.19
   5   9  10    2.21    0.81
   5   9  11    2.02    0.78
   5   9  12   16.00    2.10
   5  10  -1    0.16    0.33
   5  10   0    2.98    0.98
   5  10   1   -0.07    0.19
   5  10   2    6.26    1.39
   5  10   3    4.75    1.19
   5  10   4    0.17    0.21
   5  10   5    4.07    1.06
   5  10   6    5.67    1.27
   5  10   7    7.21    1.45
   5  10   8   10.59    1.75
   5  10   9   -0.01    0.15
   5  10  10   13.73    2.06
   5  10  11    7.22    1.50
   5  10  12    0.82    0.51
   5  11   3    8.07    1.70
   5  11   4    2.13    0.84
   5  11   5    6.17    1.43
   5  11   6    1.15    0.58
   5  11   7   -0.10    0.29
   5  11   8    0.44    0.31
   5  11   9    0.46    0.44
   5  11  10    2.39    0.92
  -6   7   3    5.95    1.47
  -6   7   2    1.65    0.72
  -6   7   1    8.42    1.71
  -6   7   0   -0.32    0.45
  -6   6   5   -0.05    0.33
  -6   6   4    2.11    0.87
  -6   6   3    9.38    1.76
  -6   6   2    0.59    0.48
  -6   6   1    0.23    0.27
  -6   6   0   -0.14    0.28
  -6   6  -1    1.39    0.64
  -6   6  -6    0.03    0.24
  -6   5   6    2.65    0.93
   6  -5  -6    2.25    0.85
  -6   5   5   -0.25    0.36
  -6   5   4   -0.08    0.35
  -6   5   3   -0.03    0.14
  -6   5   2   -0.48    0.36
  -6   5   1    2.34    0.78
  -6   5   0    0.62    0.40
  -6   5   0    1.46    0.52
  -6   5  -1    8.20    1.41
  -6   5  -1   10.24    1.35
  -6   5  -2   -0.05    0.18
  -6   5  -2    0.38    0.32
  -6   5  -3    0.87    0.45
  -6   5  -3    1.49    0.53
  -6   5  -4    7.14    1.30
  -6   5  -5   -0.14    0.19
  -6   5  -6    2.54    0.88
  -6   5  -7    1.43    0.71
   6  -4  -8    0.63    0.51
   6  -4  -7    0.46    0.41
   6  -4  -6    5.00    1.20
   6  -4  -5    4.50    1.12
  -6   4   4    0.50    0.36
  -6   4   3    1.14    0.54
  -6   4   2    1.91    0.67
  -6   4   2    0.35    0.30
  -6   4   1    7.54    1.32
  -6   4   1    8.39    1.44
  -6   4   0    0.23    0.27
  -6   4   0    0.31    0.34
  -6   4  -1   10.56    1.47
  -6   4  -1   10.10    1.33
  -6   4  -2    0.05    0.13
  -6   4  -2    0.25    0.30
  -6   4  -3    6.02    1.04
  -6   4  -3    4.54    0.95
  -6   4  -4    0.61    0.28
  -6   4  -4    0.25    0.21
  -6   4  -5    8.89    1.49
  -6   4  -6    3.96    1.07
  -6   4  -7    7.78    1.60
  -6   4  -8   67.27    5.07
   6  -3  -8    8.04    1.59
   6  -3  -7   14.49    2.08
   6  -3  -6    0.33    0.34
   6  -3  -5   29.70    2.79
   6  -3  -4    0.10    0.23
  -6   3   3    0.86    0.41
   6  -3  -3    1.10    0.49
   6  -3  -3    1.16    0.43
   6  -3  -2    0.10    0.22
  -6   3   2    0.26    0.21
  -6   3   1    1.76    0.58
  -6   3   1    2.03    0.76
  -6   3   0    7.75    1.19
  -6   3   0   10.15    1.36
   6  -3   0    7.58    1.12
  -6   3  -1    6.77    1.08
  -6   3  -1    7.35    1.13
   6  -3   1    4.63    0.81
  -6   3  -2    0.92    0.36
   6  -3   2    1.29    0.42
  -6   3  -2    0.94    0.41
  -6   3  -3    8.64    1.13
  -6   3  -3    8.87    1.28
  -6   3  -4    4.22    0.75
  -6   3  -4    3.38    0.84
  -6   3  -5    9.52    1.07
  -6   3  -5    8.22    1.40
  -6   3  -6   33.01    2.99
  -6   3  -7    4.40    1.15
  -6   3  -8    0.54    0.41
  -6   3  -9    2.36    0.95
   6  -2  -9    0.54    0.40
   6  -2  -8   -0.24    0.28
   6  -2  -7    1.08    0.54
   6  -2  -6    0.61    0.43
   6  -2  -5    0.24    0.30
   6  -2  -4   10.16    1.25
   6  -2  -4    9.49    1.44
   6  -2  -3    2.05    0.64
   6  -2  -3    1.77    0.53
   6  -2  -2    7.58    1.09
   6  -2  -2    7.23    1.16
   6  -2  -1    3.23    0.72
  -6   2   1    2.47    0.88
   6  -2  -1    3.85    0.79
  -6   2   0    6.49    1.01
  -6   2   0    8.26    1.23
   6  -2   0    6.02    1.04
   6  -2   0    5.28    0.87
  -6   2  -1    0.66    0.33
  -6   2  -1    0.74    0.41
  -6   2  -2    0.30    0.24
  -6   2  -2    0.24    0.19
  -6   2  -3    1.75    0.44
   6  -2   3    2.21    0.44
  -6   2  -3    0.97    0.40
  -6   2  -4    7.57    0.84
  -6   2  -4    6.41    1.11
   6  -2   4    5.61    0.74
  -6   2  -5   11.75    0.96
  -6   2  -5   11.25    1.55
   6  -2   5   11.67    1.04
  -6   2  -6   26.18    1.31
  -6   2  -6   24.39    2.48
  -6   2  -7   18.74    2.30
  -6   2  -8   14.45    2.13
  -6   2  -9    0.03    0.27
  -6   2 -10    0.98    0.65
   6  -1  -9    0.24    0.18
   6  -1  -8    7.29    1.48
   6  -1  -7    7.92    1.47
   6  -1  -6    8.20    1.43
   6  -1  -5   14.15    1.80
   6  -1  -4    2.73    0.76
   6  -1  -3    0.07    0.18
   6  -1  -3    0.04    0.18
   6  -1  -2   22.79    2.05
   6  -1  -2   24.31    1.97
   6  -1  -2   27.08    2.17
   6  -1  -1    0.07    0.14
  -6   1   1    0.47    0.47
   6  -1  -1    0.08    0.09
   6  -1  -1    0.31    0.21
  -6   1   0   12.48    1.57
   6  -1   0   11.34    1.37
   6  -1   0   10.91    1.21
   6  -1   0   12.16    1.30
  -6   1  -1   10.32    1.37
   6  -1   1    7.20    1.12
   6  -1   1    7.73    0.97
   6  -1   2    0.56    0.22
  -6   1  -2    0.65    0.33
  -6   1  -3   12.40    1.44
   6  -1   3   12.99    0.96
  -6   1  -4   44.03    2.89
   6  -1   4   45.87    1.90
  -6   1  -5  109.98    5.00
   6  -1   5  116.94    3.16
  -6   1  -6   15.56    1.86
   6  -1   6   13.53    0.89
  -6   1  -7    8.36    1.45
  -6   1  -8   12.53    1.90
  -6   1  -9    0.15    0.27
  -6   1 -10    0.28    0.28
  -6   1 -11    3.46    1.16
   6   0  -9    3.95    1.10
   6   0  -8    4.69    1.17
   6   0  -7    0.23    0.29
   6   0  -6    0.16    0.28
   6   0  -5    1.90    0.69
   6   0  -4   22.99    2.17
   6   0  -3   16.75    1.75
   6   0  -2    6.51    1.08
   6   0  -2    6.72    1.09
   6   0  -2    5.85    0.97
   6   0  -1   15.99    1.58
   6   0  -1   16.25    1.64
   6   0  -1   14.19    1.44
  -6   0   0   18.53    2.30
   6   0   0   20.49    1.85
   6   0   0   21.11    1.66
   6   0   1    7.00    0.87
   6   0   1    6.48    1.05
   6   0   1    8.33    0.95
   6   0   2    3.81    0.55
   6   0   2    4.57    0.64
   6   0   3    2.31    0.35
   6   0   3    3.02    0.46
  -6   0  -3    2.49    0.63
  -6   0  -4   29.55    2.27
   6   0   4   29.49    1.16
   6   0   4   29.17    1.24
  -6   0  -5    0.13    0.18
  -6   0  -6   33.78    2.66
  -6   0  -7    9.94    1.53
  -6   0  -8    1.83    0.72
  -6   0  -9    2.52    0.86
  -6   0 -10    0.97    0.47
  -6   0 -11    7.49    1.67
  -6   0 -12    0.10    0.25
   6   1  -9    2.11    0.84
   6   1  -8    0.52    0.46
   6   1  -7    0.53    0.41
   6   1  -6    4.80    1.08
   6   1  -5   34.02    2.78
   6   1  -4   52.84    3.35
   6   1  -3    3.83    0.83
   6   1  -2   -0.09    0.13
   6   1  -2   -0.21    0.20
   6   1  -1    2.35    0.57
   6   1  -1    2.34    0.61
   6   1   0   11.20    1.37
   6   1   0   11.01    1.15
   6   1   1    0.00    0.05
   6   1   1    0.22    0.15
  -6  -1  -1    0.41    0.35
   6   1   1    0.16    0.15
   6   1   2    1.19    0.30
   6   1   2    1.08    0.29
  -6  -1  -2    1.68    0.59
   6   1   2    1.65    0.53
  -6  -1  -3   20.68    1.89
   6   1   3   15.49    0.90
   6   1   3   18.57    0.99
  -6  -1  -4   34.42    2.42
  -6  -1  -5   11.74    1.44
  -6  -1  -6   35.43    2.64
  -6  -1  -7    0.15    0.19
  -6  -1  -8   19.10    2.15
  -6  -1  -9    0.61    0.41
  -6  -1 -10    1.73    0.79
  -6  -1 -11    4.01    1.16
  -6  -1 -12   17.44    2.56
   6   2  -9    0.31    0.42
   6   2  -8    0.63    0.39
   6   2  -7    0.68    0.40
   6   2  -6   14.03    1.85
   6   2  -5    4.59    1.02
   6   2  -4    0.02    0.12
   6   2  -3    4.33    0.88
   6   2  -2   -0.02    0.08
   6   2  -2   -0.17    0.18
   6   2  -1   15.82    1.60
   6   2  -1   19.47    1.67
  -6  -2   0   12.11    3.08
   6   2   0   41.76    2.29
   6   2   1   28.54    1.81
   6   2   1   31.02    1.79
  -6  -2  -2   53.83    3.37
   6   2   2   48.19    1.99
   6   2   3   65.86    2.31
   6   2   3   70.33    2.07
   6   2   4   50.67    1.42
   6   2   4   49.33    1.37
  -6  -2  -5   18.72    1.79
  -6  -2  -6    0.08    0.06
  -6  -2  -7    4.54    0.96
  -6  -2  -8   15.94    1.87
  -6  -2  -9   -0.01    0.18
  -6  -2 -10    4.25    1.08
  -6  -2 -11    6.81    1.45
  -6  -2 -12    4.31    1.22
  -6  -2 -13    0.88    0.55
   6   3  -9    0.45    0.44
   6   3  -8    1.14    0.60
   6   3  -7    4.47    1.10
   6   3  -6   14.27    1.91
   6   3  -5    0.03    0.13
   6   3  -4    6.48    1.16
   6   3  -3   11.90    1.50
   6   3  -2    7.70    1.12
  -6  -3   2    7.77    1.19
  -6  -3   1    3.27    0.72
   6   3  -1    3.43    0.71
   6   3   0    4.61    0.76
  -6  -3   0    5.76    0.88
   6   3   1   32.31    1.86
  -6  -3  -1   31.27    1.90
  -6  -3  -2    0.57    0.22
  -6  -3  -2    0.22    0.11
   6   3   2    0.68    0.22
  -6  -3  -3    7.36    1.22
   6   3   3    8.04    0.69
  -6  -3  -3    8.42    0.73
   6   3   4    0.06    0.08
  -6  -3  -4    0.31    0.29
  -6  -3  -5   12.55    1.50
   6   3   5   11.24    0.60
  -6  -3  -6   64.66    3.47
  -6  -3  -7    5.36    1.00
  -6  -3  -8    0.68    0.40
  -6  -3  -9    0.32    0.30
  -6  -3 -10    1.69    0.63
  -6  -3 -11    3.01    0.91
  -6  -3 -12    1.89    0.73
  -6  -3 -13    3.82    1.14
  -6  -3 -14   18.50    2.66
   6   4  -8    5.98    1.37
   6   4  -7    0.07    0.12
   6   4  -6    3.16    0.92
   6   4  -5    0.85    0.48
   6   4  -4   -0.03    0.18
   6   4  -3    0.01    0.17
   6   4  -2    0.03    0.05
  -6  -4   1    3.40    0.76
   6   4  -1    3.16    0.70
  -6  -4   0   -0.10    0.16
   6   4   0    0.07    0.12
  -6  -4  -1    0.22    0.13
   6   4   1    0.57    0.24
   6   4   2   20.40    1.45
  -6  -4  -2   20.95    1.52
  -6  -4  -3   88.23    3.14
   6   4   3   89.14    3.05
  -6  -4  -4    1.27    0.29
  -6  -4  -4    1.25    0.53
   6   4   4    1.11    0.31
  -6  -4  -5    4.88    0.99
   6   4   5    3.96    0.52
  -6  -4  -5    4.01    0.44
  -6  -4  -6    6.46    1.11
   6   4   6    6.10    0.58
   6   4   7    2.94    0.37
  -6  -4  -7    3.03    0.74
  -6  -4  -8    0.47    0.29
  -6  -4  -9   -0.04    0.14
  -6  -4 -10   12.12    1.70
  -6  -4 -11    4.97    1.12
  -6  -4 -12    9.51    1.64
  -6  -4 -13   22.44    2.64
  -6  -4 -14    6.15    1.42
   6   5  -7    1.05    0.59
   6   5  -6    0.48    0.36
   6   5  -5    0.29    0.23
   6   5  -4   14.28    1.83
   6   5  -3    1.00    0.48
   6   5  -2   21.16    2.02
   6   5  -1    1.16    0.46
   6   5   0    7.78    1.11
  -6  -5   0    6.53    1.08
   6   5   1    5.14    0.85
  -6  -5  -1    4.62    0.84
   6   5   2   16.22    1.45
  -6  -5  -2   14.24    1.39
  -6  -5  -3    1.47    0.40
   6   5   3    1.64    0.43
  -6  -5  -4    9.04    0.95
   6   5   4    9.21    1.03
  -6  -5  -5    0.75    0.26
   6   5   5    0.62    0.24
  -6  -5  -5    0.77    0.43
   6   5   6    0.05    0.06
  -6  -5  -6    0.17    0.14
   6   5   7   11.88    1.04
  -6  -5  -7   12.36    0.88
   6   5   8    9.87    0.93
  -6  -5  -8   10.54    1.45
  -6  -5  -8   10.71    0.76
   6   5   9   33.87    1.80
  -6  -5  -9   34.37    2.66
  -6  -5  -9   38.13    1.51
  -6  -5  -9   34.89    1.48
   6   5  10   20.43    1.37
  -6  -5 -10   23.31    2.25
  -6  -5 -11    1.93    0.70
  -6  -5 -12    3.39    0.93
  -6  -5 -13    1.04    0.56
  -6  -5 -14   15.56    2.23
  -6  -5 -15    0.10    0.24
   6   6  -7    3.43    1.05
   6   6  -6    1.34    0.65
   6   6  -5    2.02    0.79
   6   6  -4   18.71    2.22
   6   6  -3    5.05    1.10
   6   6  -2    6.00    1.15
   6   6  -1   15.81    1.79
   6   6   0    0.34    0.23
  -6  -6  -1    2.60    0.69
   6   6   1    3.30    0.74
  -6  -6  -2    0.42    0.27
   6   6   2    0.63    0.31
  -6  -6  -3   11.84    1.30
   6   6   3   12.99    1.41
  -6  -6  -4   25.47    1.81
   6   6   4   24.61    1.89
  -6  -6  -5    5.26    0.77
   6   6   5    4.38    0.77
   6   6   6    2.88    0.62
  -6  -6  -6    3.20    0.58
  -6  -6  -6    3.31    1.03
   6   6   7    1.61    0.43
  -6  -6  -7    2.01    0.69
  -6  -6  -7    2.11    0.45
  -6  -6  -8    1.02    0.52
   6   6   8    0.28    0.17
  -6  -6  -8    0.55    0.25
   6   6   9    0.94    0.37
  -6  -6  -9    1.12    0.51
  -6  -6 -10    0.25    0.14
   6   6  10    0.30    0.19
  -6  -6 -10   -0.05    0.30
  -6  -6 -11    2.46    0.74
  -6  -6 -12    0.42    0.27
  -6  -6 -13    9.74    1.61
  -6  -6 -14   17.29    2.23
  -6  -6 -15    0.44    0.49
   6   7  -6    3.88    1.16
   6   7  -5    2.12    0.84
   6   7  -4    0.05    0.16
   6   7  -3    1.70    0.74
   6   7  -2   -0.05    0.18
   6   7  -1    4.70    1.05
   6   7   0    2.86    0.79
   6   7   1   34.35    2.72
   6   7   2   38.01    2.77
   6   7   3   42.26    2.89
  -6  -7  -4    0.29    0.88
   6   7   4    0.26    0.24
  -6  -7  -4    0.39    0.22
  -6  -7  -5    2.56    1.76
  -6  -7  -5    4.72    0.81
   6   7   5    4.63    0.88
  -6  -7  -6    6.32    0.92
   6   7   6    4.31    0.84
   6   7   7    2.11    0.59
  -6  -7  -7    3.48    0.68
  -6  -7  -8   16.41    2.22
   6   7   8   12.85    1.43
  -6  -7  -8   14.87    1.40
  -6  -7  -9    2.30    0.76
   6   7   9    1.39    0.49
  -6  -7 -10    6.67    1.32
   6   7  10    4.22    0.84
  -6  -7 -11    0.77    0.54
  -6  -7 -12    1.24    0.58
  -6  -7 -13    0.19    0.29
  -6  -7 -14    7.96    1.46
   6   8  -4    1.48    0.70
   6   8  -3    6.64    1.44
   6   8  -2    1.25    0.63
   6   8  -1    4.16    1.07
   6   8   0   37.60    3.18
   6   8   1    0.07    0.14
   6   8   1    0.06    0.18
   6   8   2   13.74    1.80
   6   8   3    3.12    0.83
   6   8   4    0.14    0.17
   6   8   5    8.75    1.34
   6   8   6   11.74    1.53
   6   8   7    0.23    0.20
   6   8   8   16.19    1.78
  -6  -8  -8    5.56    1.94
   6   8   9    8.36    1.30
  -6  -8  -9    8.19    1.91
   6   8  10    0.51    0.30
  -6  -8 -10    1.09    0.67
  -6  -8 -11   11.11    1.76
   6   8  11    8.90    1.37
  -6  -8 -12    8.56    1.54
   6   9  -3    0.35    0.47
   6   9  -2   11.89    2.01
   6   9  -1    2.03    0.77
   6   9  -1    2.56    0.92
   6   9   0    0.48    0.41
   6   9   1    6.44    1.37
   6   9   2    1.14    0.51
   6   9   3    0.11    0.21
   6   9   4    0.22    0.27
   6   9   5    5.08    1.13
   6   9   6    0.98    0.51
   6   9   7   -0.07    0.13
   6   9   8    4.97    1.07
  -6  -9  -8    1.24    1.36
   6   9   9    6.93    1.31
  -6  -9  -9    2.01    1.56
   6   9  10   11.25    1.67
  -6  -9 -10    2.86    1.50
   6   9  11   13.47    1.84
   6  10   0   -0.28    0.32
   6  10   1    4.21    1.20
   6  10   2    0.10    0.16
   6  10   3    4.13    1.13
   6  10   4    0.21    0.16
   6  10   5    6.88    1.43
   6  10   6    2.93    0.92
   6  10   7    0.22    0.21
   6  10   8    0.37    0.33
   6  10   9    0.16    0.33
   6  10  10    5.52    1.27
   6  11   3    6.51    1.53
   6  11   4    7.31    1.61
   6  11   5   11.97    2.01
   6  11   6   -0.01    0.31
   6  11   7    0.01    0.11
   6  11   8    6.07    1.41
   6  11   9    9.15    1.74
   6  11  10   18.89    2.54
  -7   6   3   17.30    2.48
  -7   6   2    0.93    0.62
   7  -5  -4    7.01    1.50
  -7   5   3    1.05    0.58
  -7   5   2    2.12    0.83
  -7   5   1   -0.01    0.23
  -7   5   0    2.95    0.88
  -7   5  -4    1.85    0.68
  -7   5  -5    1.40    0.71
  -7   5  -6    6.82    1.44
   7  -4  -6    0.99    0.65
   7  -4  -5    4.07    1.16
   7  -4  -4    5.39    1.27
   7  -4  -3    6.04    1.28
  -7   4   2    1.40    0.65
  -7   4   1    0.49    0.35
  -7   4   0    2.31    0.73
  -7   4   0    2.96    0.89
  -7   4  -1    0.37    0.32
  -7   4  -1    1.33    0.60
  -7   4  -2    8.11    1.38
  -7   4  -3    1.30    0.55
  -7   4  -4    0.21    0.31
  -7   4  -5    0.78    0.47
  -7   4  -6    0.14    0.34
  -7   4  -7    5.38    1.31
   7  -3  -7    0.23    0.30
   7  -3  -6    2.87    0.96
   7  -3  -5    0.89    0.52
   7  -3  -4    0.00    0.18
   7  -3  -3    1.86    0.75
   7  -3  -2    2.42    0.76
  -7   3   2    1.34    1.14
  -7   3   1    7.92    1.97
   7  -3  -1   17.83    1.98
  -7   3   0    1.46    0.53
  -7   3   0    2.15    0.79
  -7   3  -1   36.42    2.70
  -7   3  -1   38.59    3.04
  -7   3  -2    6.88    1.10
  -7   3  -2    6.31    1.19
  -7   3  -3    0.26    0.17
  -7   3  -4    1.20    0.54
  -7   3  -5    2.06    0.71
  -7   3  -6   15.75    2.12
  -7   3  -7   19.83    2.48
  -7   3  -8    0.14    0.23
   7  -2  -7    2.15    0.83
   7  -2  -6    0.02    0.18
   7  -2  -5   10.10    1.67
   7  -2  -4    1.41    0.59
   7  -2  -3    1.72    0.65
   7  -2  -2   -0.40    0.30
  -7   2   1   11.12    2.43
   7  -2  -1   21.05    2.04
  -7   2   0   32.42    3.04
   7  -2   0   30.80    2.40
  -7   2  -1    4.97    1.07
   7  -2   1    4.69    0.88
  -7   2  -2    3.64    0.94
  -7   2  -3    0.61    0.40
  -7   2  -4    3.31    0.84
  -7   2  -5    0.16    0.17
  -7   2  -6    6.73    1.34
  -7   2  -7   31.76    3.06
  -7   2  -8    9.83    1.82
  -7   2  -9    0.18    0.34
   7  -1  -8   -0.02    0.25
   7  -1  -7    8.84    1.64
   7  -1  -6   -0.16    0.32
   7  -1  -5    5.75    1.23
   7  -1  -4    5.53    1.14
   7  -1  -3    1.00    0.45
   7  -1  -2    1.09    0.46
  -7   1   1    1.50    0.86
   7  -1  -1   11.85    1.47
   7  -1   0    5.61    0.93
  -7   1   0    5.44    1.35
   7  -1   0    6.38    1.03
  -7   1  -1   10.04    1.53
   7  -1   1    8.91    1.08
   7  -1   1   10.60    1.24
   7  -1   2    4.65    0.70
   7  -1   2    4.97    0.80
   7  -1   3    0.34    0.21
  -7   1  -3    0.62    0.35
   7  -1   4    0.80    0.28
  -7   1  -4    1.08    0.46
  -7   1  -5    8.75    1.39
  -7   1  -6    0.73    0.42
  -7   1  -7    2.39    0.79
  -7   1  -8   12.58    1.94
  -7   1  -9    5.06    1.31
  -7   1 -10    1.67    0.81
   7   0  -8    0.00    0.21
   7   0  -7    8.22    1.55
   7   0  -6    1.39    0.62
   7   0  -5    0.42    0.32
   7   0  -4    9.05    1.46
   7   0  -3   28.88    2.50
   7   0  -2    0.84    0.43
  -7   0   2    0.48    0.70
  -7   0   1    2.40    1.42
   7   0  -1    4.19    0.88
   7   0  -1    4.80    0.90
   7   0   0    1.04    0.40
  -7   0   0    0.29    0.39
   7   0   0    0.68    0.34
  -7   0  -1    5.95    1.25
   7   0   1    5.31    0.83
   7   0   2    1.69    0.43
   7   0   2    1.64    0.40
  -7   0  -2    2.44    0.72
   7   0   3    3.83    0.51
  -7   0  -3    3.82    0.93
   7   0   3    4.27    0.60
  -7   0  -4   12.35    1.58
   7   0   4   13.79    0.83
   7   0   4   12.95    0.87
  -7   0  -5   33.85    2.70
  -7   0  -6   40.51    3.11
  -7   0  -7   29.59    2.77
  -7   0  -8    0.85    0.52
  -7   0  -9   12.47    1.95
  -7   0 -10    0.15    0.12
  -7   0 -11    4.56    1.30
   7   1  -8    1.05    0.56
   7   1  -7    1.86    0.73
   7   1  -6    0.19    0.19
   7   1  -5   32.52    2.88
   7   1  -4   13.41    1.75
   7   1  -3   35.41    2.76
   7   1  -2    0.31    0.25
   7   1  -1    1.07    0.42
   7   1  -1    0.95    0.40
   7   1   0    1.71    0.50
   7   1   0    1.98    0.55
  -7  -1  -1    5.00    1.32
   7   1   1    6.33    0.88
   7   1   2   19.90    1.44
   7   1   2   22.44    1.51
   7   1   3    9.68    0.80
   7   1   3   10.07    0.82
  -7  -1  -4   50.40    3.31
  -7  -1  -5    2.51    0.71
  -7  -1  -6    2.53    0.73
  -7  -1  -7   13.18    1.77
  -7  -1  -8   -0.07    0.21
  -7  -1  -9    1.16    0.53
  -7  -1 -10    2.24    0.87
  -7  -1 -11    0.52    0.46
   7   2  -8    4.82    1.25
   7   2  -7    7.71    1.52
   7   2  -6    2.13    0.76
   7   2  -5    4.69    1.08
   7   2  -4    1.90    0.65
   7   2  -3    0.36    0.23
   7   2  -2    8.90    1.28
   7   2  -1    0.23    0.24
   7   2  -1    0.41    0.31
  -7  -2   1    0.51    1.14
   7   2   0    0.83    0.35
   7   2   0    0.56    0.31
   7   2   1    1.17    0.37
  -7  -2  -1    0.63    0.52
   7   2   2   44.47    2.29
  -7  -2  -2   47.32    3.77
   7   2   2   48.75    2.22
  -7  -2  -3   19.78    2.15
   7   2   3   17.09    1.17
   7   2   3   18.21    1.05
  -7  -2  -4   20.58    2.39
   7   2   4   14.02    0.74
  -7  -2  -5   27.51    2.45
  -7  -2  -6   10.52    1.49
  -7  -2  -7    2.85    0.79
  -7  -2  -8   19.52    2.20
  -7  -2  -9    4.48    1.10
  -7  -2 -10    1.56    0.69
  -7  -2 -11    0.84    0.47
  -7  -2 -12    0.50    0.39
   7   3  -8    0.49    0.36
   7   3  -7    9.25    1.68
   7   3  -6    0.39    0.31
   7   3  -5    2.08    0.69
   7   3  -4   45.84    3.34
   7   3  -3   23.58    2.25
   7   3  -2    1.87    0.61
   7   3  -1    7.92    1.15
   7   3   0    4.10    0.75
  -7  -3  -1    8.57    2.90
   7   3   1   37.04    2.15
  -7  -3  -2   17.56    2.92
   7   3   2   29.21    1.70
   7   3   3  133.81    4.29
  -7  -3  -3  145.50    6.72
   7   3   4   22.06    1.25
  -7  -3  -4   26.41    2.50
   7   3   5    1.75    0.19
  -7  -3  -5    3.46    1.05
  -7  -3  -6    0.12    0.10
  -7  -3  -7    0.62    0.35
  -7  -3  -8    1.86    0.69
  -7  -3  -9    7.44    1.36
  -7  -3 -10    0.30    0.18
  -7  -3 -11    0.09    0.24
  -7  -3 -12    0.51    0.43
  -7  -3 -13   10.50    1.97
   7   4  -7    3.47    1.04
   7   4  -6    0.37    0.40
   7   4  -5    0.79    0.50
   7   4  -4    4.84    1.08
   7   4  -3    8.24    1.35
   7   4  -2    1.49    0.54
   7   4  -1   15.61    1.65
  -7  -4   0    1.11    0.48
   7   4   0    1.39    0.46
  -7  -4  -1    2.34    0.59
   7   4   1    2.90    0.62
   7   4   2    6.09    0.82
  -7  -4  -2    6.56    0.89
   7   4   3   90.22    3.17
  -7  -4  -3   96.13    3.33
  -7  -4  -4    1.19    0.29
   7   4   4    0.87    0.28
  -7  -4  -4    0.95    0.49
   7   4   5   -0.02    0.03
  -7  -4  -5    0.21    0.29
  -7  -4  -6   32.30    2.94
   7   4   6   19.15    0.93
  -7  -4  -7    8.49    1.41
  -7  -4  -8    1.45    0.57
  -7  -4  -9    7.98    1.37
  -7  -4 -10    2.42    0.80
  -7  -4 -11    0.35    0.43
  -7  -4 -12   28.25    2.99
  -7  -4 -13    8.26    1.67
   7   5  -6    3.77    1.05
   7   5  -5    2.32    0.80
   7   5  -4    9.29    1.53
   7   5  -3   12.72    1.72
   7   5  -2   17.07    1.90
   7   5  -1    1.02    0.46
   7   5   0    2.27    0.63
   7   5   1   38.28    2.48
  -7  -5  -1   37.81    2.56
   7   5   2   21.71    1.75
  -7  -5  -2   21.33    1.78
  -7  -5  -3    1.55    0.44
   7   5   3    1.41    0.39
  -7  -5  -4    5.24    1.62
  -7  -5  -4    8.15    0.91
   7   5   4    8.09    0.97
  -7  -5  -5    0.48    0.21
   7   5   5    0.69    0.27
  -7  -5  -5    0.93    0.57
  -7  -5  -6    8.40    1.47
   7   5   6    6.65    0.75
  -7  -5  -6    6.70    0.61
   7   5   7    6.14    0.67
  -7  -5  -7    6.35    1.27
   7   5   8    5.44    0.56
  -7  -5  -8    6.85    1.39
  -7  -5  -9    1.84    0.66
  -7  -5 -10    9.47    1.54
  -7  -5 -11    2.73    0.86
  -7  -5 -12   40.01    3.46
  -7  -5 -13   12.28    1.99
   7   6  -6    0.89    0.58
   7   6  -5    0.62    0.44
   7   6  -4    1.08    0.59
   7   6  -3    6.95    1.34
   7   6  -2    0.16    0.21
   7   6  -1    1.66    0.60
   7   6   0    1.32    0.54
   7   6   1   10.89    1.41
   7   6   2  109.22    4.59
  -7  -6  -2  111.92    4.74
   7   6   3    6.78    1.01
  -7  -6  -3    6.30    0.98
   7   6   3    6.12    1.00
  -7  -6  -4  112.37    4.17
   7   6   4  114.83    4.41
  -7  -6  -5    2.04    0.49
   7   6   5    2.04    0.52
  -7  -6  -5    1.07    0.79
  -7  -6  -6    0.12    0.14
  -7  -6  -6   -0.07    0.17
   7   6   6    0.10    0.14
   7   6   7    3.22    0.61
  -7  -6  -7    3.72    1.04
  -7  -6  -8   38.18    3.25
   7   6   8   33.03    1.95
  -7  -6  -9    9.18    1.68
  -7  -6 -10    1.34    0.65
  -7  -6 -11    5.71    1.23
  -7  -6 -12    4.01    1.07
  -7  -6 -13    0.15    0.33
  -7  -6 -14    0.17    0.24
   7   7  -5   18.26    2.48
   7   7  -4    1.06    0.55
   7   7  -3    0.14    0.24
   7   7  -2    8.79    1.53
   7   7  -1   27.92    2.68
   7   7   0   25.81    2.46
   7   7   1    1.64    0.60
   7   7   2   15.49    1.77
   7   7   3   30.76    2.48
  -7  -7  -4    2.24    0.61
   7   7   4    2.06    0.60
  -7  -7  -5    3.77    0.77
   7   7   5    3.25    0.75
  -7  -7  -6    2.27    1.29
   7   7   6    4.39    0.84
   7   7   7    1.94    0.54
  -7  -7  -7    0.58    0.45
   7   7   8    5.74    0.92
  -7  -7  -8    5.60    1.40
  -7  -7  -9    1.16    0.59
   7   7   9    1.37    0.46
  -7  -7 -10    6.43    1.36
  -7  -7 -11    1.52    0.70
  -7  -7 -12    3.85    1.15
  -7  -7 -13   -0.10    0.41
  -7  -7 -14   -0.16    0.45
   7   8  -3    1.23    0.75
   7   8  -2    1.39    0.63
   7   8  -1    1.35    0.63
   7   8   0   14.06    1.98
   7   8   1   21.48    2.37
   7   8   1   22.41    2.41
   7   8   2    1.87    0.66
   7   8   3   12.23    1.69
   7   8   4    2.49    0.74
   7   8   5   -0.08    0.28
   7   8   6    1.01    0.46
   7   8   7    2.69    0.73
  -7  -8  -7   -1.43    1.32
   7   8   8    0.08    0.13
  -7  -8  -8    0.70    0.47
  -7  -8  -9    0.43    0.64
   7   8   9    0.68    0.40
  -7  -8 -10    0.92    0.70
  -7  -8 -11    0.08    0.34
  -7  -8 -12    5.94    1.39
  -7  -8 -13    3.62    1.14
   7   9  -2   44.42    4.01
   7   9  -1   43.27    3.87
   7   9   0    2.80    0.97
   7   9   0    3.79    1.07
   7   9   1    3.32    1.00
   7   9   2    0.10    0.17
   7   9   3    0.21    0.29
   7   9   4    2.94    0.88
   7   9   5    1.15    0.55
   7   9   6    2.10    0.71
   7   9   7    4.60    1.03
  -7  -9  -7    1.51    1.71
   7   9   8    2.28    0.71
  -7  -9  -9    0.22    0.89
   7   9   9    1.33    0.55
  -7  -9 -10   -0.03    1.02
  -7  -9 -11   -0.35    0.64
   7  10   1   -0.39    0.38
   7  10   2    1.87    0.81
   7  10   3    1.81    0.78
   7  10   4    8.41    1.60
   7  10   5    0.21    0.23
   7  10   6   13.51    1.97
   7  10   7    3.34    0.95
   7  10   8    2.01    0.73
   7  10   9    4.18    1.07
   7  11   4   -0.19    0.35
   7  11   5    5.51    1.36
   7  11   6    0.50    0.34
   7  11   7   -0.38    0.51
   7  11   8    1.51    0.68
   8  -4  -4    3.92    1.18
   8  -4  -3   -0.08    0.26
   8  -4  -2    0.33    0.28
  -8   4  -3    0.37    0.26
  -8   4  -4    0.27    0.31
  -8   4  -5    1.43    0.65
   8  -3  -5    0.07    0.29
   8  -3  -4   16.93    2.29
   8  -3  -3    3.53    1.02
   8  -3  -2    2.27    0.79
   8  -3  -1    3.07    0.89
  -8   3   1    0.27    1.14
   8  -3   0    0.18    0.25
  -8   3   0    0.47    0.51
  -8   3  -1   14.94    2.13
  -8   3  -2    0.85    0.47
  -8   3  -3    0.06    0.16
  -8   3  -4    0.26    0.32
  -8   3  -5    0.62    0.39
  -8   3  -6   11.21    1.86
   8  -2  -6    0.27    0.42
   8  -2  -5    8.80    1.65
   8  -2  -4    4.56    1.15
   8  -2  -3    1.89    0.72
  -8   2   2    1.33    1.69
   8  -2  -2   10.91    1.66
   8  -2  -1    0.04    0.14
  -8   2   1    0.44    0.97
  -8   2   0    6.21    1.82
   8  -2   0   13.74    1.71
   8  -2   1    1.73    0.57
  -8   2  -1    1.39    0.72
  -8   2  -2    4.95    1.17
  -8   2  -3    1.97    0.77
  -8   2  -4    0.66    0.47
  -8   2  -5   -0.09    0.19
  -8   2  -6    7.64    1.49
  -8   2  -7    5.31    1.29
   8  -1  -6    1.71    0.77
   8  -1  -5    0.33    0.41
   8  -1  -4    1.26    0.61
   8  -1  -3    2.41    0.80
   8  -1  -2    0.76    0.42
  -8   1   2    0.03    0.77
   8  -1  -1   13.13    1.67
   8  -1   0    0.27    0.28
  -8   1   0   -0.08    0.52
   8  -1   1    0.08    0.12
  -8   1  -1    0.13    0.17
   8  -1   2    1.53    0.48
  -8   1  -2    1.52    0.63
  -8   1  -3    0.28    0.38
  -8   1  -4    0.69    0.38
  -8   1  -5   26.78    2.65
  -8   1  -6   41.64    3.43
  -8   1  -7   20.61    2.49
  -8   1  -8    0.28    0.33
   8   0  -7    3.01    1.02
   8   0  -6    1.40    0.64
   8   0  -5    4.54    1.15
   8   0  -4    2.14    0.76
   8   0  -3   32.30    2.83
   8   0  -2   11.67    1.61
   8   0  -1    4.92    1.00
   8   0   0    0.82    0.39
  -8   0   0   -0.32    0.66
   8   0   1    0.50    0.31
  -8   0  -1    0.33    0.24
   8   0   2    0.80    0.32
  -8   0  -2    0.83    0.48
  -8   0  -3    3.82    1.04
  -8   0  -4    5.36    1.27
  -8   0  -5    7.71    1.39
  -8   0  -6    0.13    0.15
  -8   0  -7    8.56    1.55
  -8   0  -8    1.31    0.64
  -8   0  -9    0.23    0.25
   8   1  -7    4.04    1.16
   8   1  -6    0.04    0.31
   8   1  -5    0.93    0.54
   8   1  -4    1.79    0.66
   8   1  -3   18.97    2.13
   8   1  -2    3.09    0.80
   8   1  -1    6.09    1.08
   8   1   0    1.40    0.49
  -8  -1   0   -0.31    1.05
   8   1   1    0.46    0.25
  -8  -1  -1    0.07    0.23
  -8  -1  -2    8.42    1.70
   8   1   2    9.46    1.05
   8   1   3    6.04    0.69
  -8  -1  -3    6.34    1.34
  -8  -1  -4    0.95    0.57
  -8  -1  -5    0.42    0.39
  -8  -1  -6    0.70    0.48
  -8  -1  -7    0.16    0.20
  -8  -1  -8   11.24    1.82
  -8  -1  -9    1.14    0.62
  -8  -1 -10    2.85    0.98
   8   2  -7    0.15    0.23
   8   2  -6   -0.18    0.31
   8   2  -5    0.15    0.24
   8   2  -4    1.71    0.62
   8   2  -3    4.45    1.00
   8   2  -2   -0.09    0.21
  -8  -2   1    3.46    2.21
   8   2  -1   11.27    1.46
   8   2   0    2.80    0.68
   8   2   0    2.78    0.70
   8   2   1    5.47    0.91
   8   2   1    5.80    0.90
  -8  -2  -2    2.29    1.10
   8   2   2    2.43    0.51
   8   2   3    2.67    0.44
  -8  -2  -3    2.12    0.83
  -8  -2  -4    2.36    0.81
  -8  -2  -5    6.57    1.49
  -8  -2  -6    0.71    0.41
  -8  -2  -7    0.02    0.18
  -8  -2  -8   -0.06    0.25
  -8  -2  -9    2.12    0.84
  -8  -2 -10    5.76    1.38
  -8  -2 -11    0.22    0.35
   8   3  -6    7.30    1.49
   8   3  -5   -0.11    0.23
   8   3  -4   16.82    2.11
   8   3  -3    3.62    0.93
   8   3  -2    2.70    0.74
   8   3  -1    0.31    0.20
  -8  -3   0    2.20    1.56
   8   3   0    4.49    0.86
   8   3   1    1.08    0.43
   8   3   1    0.63    0.29
  -8  -3  -2   -0.15    0.22
   8   3   2    0.01    0.05
   8   3   3    6.48    0.85
   8   3   3    7.76    0.78
  -8  -3  -3    5.93    1.59
  -8  -3  -4    4.81    1.20
  -8  -3  -5    8.03    1.51
  -8  -3  -6    2.69    1.05
  -8  -3  -7   37.19    3.20
  -8  -3  -8   16.65    2.13
  -8  -3  -9   11.68    1.84
  -8  -3 -10    7.17    1.51
  -8  -3 -11   10.11    1.83
   8   4  -6    9.86    1.75
   8   4  -5    2.56    0.86
   8   4  -4    0.29    0.35
   8   4  -3    5.39    1.13
   8   4  -2    0.09    0.21
   8   4  -1   16.12    1.79
   8   4   0    0.52    0.32
   8   4   1    1.68    0.49
  -8  -4  -2    2.03    1.24
   8   4   2    7.50    0.97
  -8  -4  -3    0.55    0.73
   8   4   3    0.13    0.11
  -8  -4  -4    5.18    1.55
  -8  -4  -5   29.78    3.03
   8   4   5   26.11    1.35
  -8  -4  -6    0.81    0.53
  -8  -4  -7    5.19    1.36
  -8  -4  -8    2.38    0.82
  -8  -4  -9    5.42    1.24
  -8  -4 -10    0.44    0.49
  -8  -4 -11    0.35    0.40
  -8  -4 -12    2.82    1.00
   8   5  -5    6.12    1.36
   8   5  -4   10.13    1.68
   8   5  -3    1.07    0.54
   8   5  -2    6.07    1.19
   8   5  -1   -0.01    0.08
   8   5   0    6.58    1.12
   8   5   1    1.99    0.57
  -8  -5  -2    1.03    0.42
   8   5   2    1.13    0.40
  -8  -5  -3   -1.61    1.37
   8   5   3    0.23    0.19
   8   5   4    0.34    0.20
  -8  -5  -4   -1.00    0.83
  -8  -5  -5    4.75    1.44
   8   5   5    6.24    0.80
  -8  -5  -6    4.06    1.15
  -8  -5  -7    0.36    0.25
  -8  -5  -8    0.31    0.48
  -8  -5  -9    0.60    0.48
  -8  -5 -10    5.22    1.28
  -8  -5 -11    0.52    0.39
  -8  -5 -12    3.02    1.02
   8   6  -5    3.52    1.08
   8   6  -4    2.05    0.79
   8   6  -3    4.58    1.11
   8   6  -2   -0.12    0.30
   8   6  -1    0.02    0.16
   8   6   0    1.52    0.56
   8   6   1    9.40    1.35
   8   6   2    8.88    1.24
   8   6   3   28.86    2.17
  -8  -6  -4    6.16    2.91
   8   6   4   11.80    1.36
   8   6   5   -0.02    0.11
  -8  -6  -5   -0.03    0.40
  -8  -6  -6    1.05    0.70
   8   6   6    2.85    0.59
  -8  -6  -7    1.23    0.71
  -8  -6  -8    0.46    0.43
  -8  -6  -9    0.27    0.31
  -8  -6 -10    1.16    0.73
  -8  -6 -11    0.16    0.26
  -8  -6 -12    0.63    0.42
   8   7  -4    1.36    0.65
   8   7  -3    2.74    0.96
   8   7  -2    0.04    0.23
   8   7  -1    3.81    1.00
   8   7   0    5.23    1.14
   8   7   1    5.23    1.08
   8   7   2    0.10    0.16
   8   7   3   32.57    2.59
   8   7   4    1.62    0.56
   8   7   5   22.29    1.99
  -8  -7  -6   -0.03    0.96
   8   7   6    0.02    0.10
  -8  -7  -7    0.59    0.63
  -8  -7  -8   -0.03    0.16
  -8  -7  -9    0.99    0.69
  -8  -7 -10   15.20    2.31
  -8  -7 -11    1.17    0.71
  -8  -7 -12    0.16    0.39
   8   8  -3    3.59    1.11
   8   8  -2    2.57    0.90
   8   8  -1   14.12    2.09
   8   8   0    0.48    0.39
   8   8   1   20.22    2.35
   8   8   2    3.00    0.86
   8   8   3    0.03    0.13
   8   8   4    9.44    1.47
  -8  -8  -5    2.47    2.05
   8   8   5    8.93    1.39
   8   8   6   -0.23    0.22
  -8  -8  -7   -0.01    0.93
  -8  -8  -8    0.07    0.34
  -8  -8  -9    1.83    1.02
  -8  -8 -10    1.72    1.01
  -8  -8 -11   10.89    2.13
  -8  -8 -12    1.23    0.80
  -8  -8 -13    4.67    1.34
   8   9  -1   15.16    2.30
   8   9   0    1.70    0.72
   8   9   0    1.07    0.62
   8   9   1    2.21    0.84
   8   9   2    1.05    0.52
   8   9   3   -0.09    0.26
   8   9   4   10.06    1.63
   8   9   5    3.07    0.93
   8   9   6    0.21    0.17
  -8  -9  -7    2.08    2.06
  -8  -9  -9   -0.01    1.70
  -8  -9 -10    0.03    1.24
  -8  -9 -11    0.88    0.84
   8  10   2   -0.06    0.21
   8  10   3    0.33    0.20
   8  10   4    3.97    1.14
   8  10   5    2.62    0.92
   8  10   6    0.78    0.47
  -8 -10  -9    1.70    2.51
   8  11   5   10.99    1.96
   8  11   6    6.99    1.55
  -9   3  -3    0.99    0.52
  -9   3  -4    0.38    0.56
   9  -2  -4    1.83    0.75
  -9   2   0    0.06    1.03
  -9   2  -1    5.28    1.77
  -9   2  -2    0.10    0.29
  -9   2  -3    0.62    0.54
  -9   2  -4    0.79    0.60
  -9   2  -5    1.49    0.72
   9  -1  -5    0.37    0.48
   9  -1  -4    2.22    0.83
   9  -1  -3   11.58    1.84
  -9   1   0   -0.35    1.18
  -9   1  -1   -0.27    0.53
  -9   1  -2    0.40    0.54
  -9   1  -3    2.94    0.99
  -9   1  -4    5.24    1.36
  -9   1  -5   -0.40    0.38
  -9   1  -6    2.31    0.87
   9   0  -5    0.02    0.15
   9   0  -4    0.07    0.18
   9   0  -3    0.16    0.29
   9   0  -2    9.43    1.54
   9   0  -1    4.14    0.97
  -9   0   0   -0.32    1.44
  -9   0  -1   -0.06    0.50
  -9   0  -2    0.23    0.38
  -9   0  -3   10.27    1.89
  -9   0  -4    0.77    0.56
  -9   0  -5    0.36    0.36
  -9   0  -6    1.46    0.71
  -9   0  -7    1.44    0.68
   9   1  -5    0.38    0.30
   9   1  -4   20.97    2.51
   9   1  -3    9.67    1.62
   9   1  -2   20.98    2.28
   9   1  -1    0.39    0.23
  -9  -1   1   -0.79    1.35
  -9  -1   0    1.40    0.99
   9   1   0   10.17    1.40
  -9  -1  -1    0.19    1.10
  -9  -1  -2    1.06    0.68
  -9  -1  -3    2.09    0.88
  -9  -1  -4    6.64    1.51
  -9  -1  -5    0.52    0.42
  -9  -1  -6    0.04    0.24
  -9  -1  -7    0.30    0.39
  -9  -1  -8    1.17    0.60
   9   2  -5    3.90    1.17
   9   2  -4    3.92    1.04
   9   2  -3    2.68    0.87
   9   2  -2    0.04    0.19
   9   2  -1    5.02    1.04
   9   2   0    2.18    0.63
  -9  -2  -1   -0.12    0.55
  -9  -2  -2    2.40    1.38
  -9  -2  -3    0.05    0.28
  -9  -2  -4   22.93    2.90
  -9  -2  -5    4.18    1.21
  -9  -2  -6    4.38    1.30
  -9  -2  -7    0.37    0.42
  -9  -2  -8   -0.08    0.25
  -9  -2  -9    4.41    1.22
   9   3  -5    0.89    0.53
   9   3  -4   -0.10    0.31
   9   3  -3    2.91    0.86
   9   3  -2   -0.04    0.20
   9   3  -1    0.77    0.36
  -9  -3   0   -0.60    0.85
   9   3   0    2.03    0.61
  -9  -3  -1    0.29    0.71
   9   3   1    0.03    0.10
  -9  -3  -2    0.81    0.55
  -9  -3  -3   11.81    2.71
  -9  -3  -4   -0.15    0.22
  -9  -3  -5    8.51    1.75
  -9  -3  -6   18.30    2.51
  -9  -3  -7    0.81    0.57
  -9  -3  -8    7.72    1.73
  -9  -3  -9    1.42    0.76
   9   4  -5    1.46    0.66
   9   4  -4    0.73    0.40
   9   4  -3    0.06    0.17
   9   4  -2    0.82    0.46
   9   4  -1    0.97    0.46
   9   4   0    0.86    0.42
  -9  -4  -1    5.52    2.81
   9   4   1   20.49    1.84
  -9  -4  -3    0.23    0.50
  -9  -4  -4    2.94    1.38
  -9  -4  -5    0.31    0.39
  -9  -4  -6   15.73    2.40
  -9  -4  -7   25.55    3.02
  -9  -4  -8    5.29    1.41
  -9  -4  -9    1.20    0.67
  -9  -4 -10    2.90    1.06
   9   5  -4    1.07    0.63
   9   5  -3    0.24    0.27
   9   5  -2   29.52    2.79
   9   5  -1    6.25    1.20
   9   5   0   11.49    1.55
   9   5   1    0.10    0.20
   9   5   2    0.03    0.12
  -9  -5  -4    0.50    0.70
  -9  -5  -5   12.40    2.95
  -9  -5  -6   -0.08    0.36
  -9  -5  -7    4.71    1.34
  -9  -5  -8    6.55    1.55
  -9  -5  -9    3.59    1.18
  -9  -5 -10    4.82    1.52
   9   6  -4    1.95    0.82
   9   6  -3    0.98    0.55
   9   6  -2    0.52    0.45
   9   6  -1    4.70    1.11
   9   6   0   11.93    1.67
   9   6   1    0.36    0.26
   9   6   2   -0.06    0.15
  -9  -6  -5   12.60    3.60
  -9  -6  -6    4.55    1.77
  -9  -6  -7    3.60    1.42
  -9  -6  -8    0.79    0.55
  -9  -6  -9    0.60    0.53
  -9  -6 -10    3.26    1.14
   9   7  -3    6.68    1.50
   9   7  -2    0.11    0.18
   9   7  -1    0.90    0.44
   9   7   0    1.00    0.55
   9   7   1    2.64    0.78
   9   7   2    0.25    0.18
   9   7   3    4.97    1.02
  -9  -7  -4   20.77    5.60
  -9  -7  -5   -0.44    1.60
  -9  -7  -6    2.22    1.73
  -9  -7  -7   -0.11    0.41
  -9  -7  -8   -0.09    0.61
  -9  -7  -9   -0.23    0.36
  -9  -7 -10   -0.05    0.19
   9   8  -2    7.43    1.61
   9   8  -1    0.83    0.61
   9   8   0    0.91    0.54
   9   8   1    1.68    0.67
   9   8   2    1.82    0.72
   9   8   3    2.84    0.85
   9   8   4    2.80    0.82
  -9  -8  -5    1.51    1.60
  -9  -8  -7   -1.53    1.57
  -9  -8  -8    1.71    1.58
  -9  -8  -9    0.22    0.34
  -9  -8 -10    1.01    0.76
   9   9   0    1.47    0.71
   9   9   1   12.81    2.05
   9   9   2    0.97    0.57
   9   9   3   -0.03    0.18
   9   9   4   -0.19    0.31
  -9  -9  -7    0.31    1.01
  -9  -9  -9    0.77    1.24
   9  10   3    0.99    0.64
 -10   1  -1    0.42    0.80
 -10   1  -2   -0.62    0.72
 -10   0  -1   -0.15    1.32
 -10   0  -2    0.69    0.57
 -10   0  -3    0.82    0.68
 -10  -1  -1    1.32    1.69
 -10  -1  -2    0.00    0.35
 -10  -1  -3    0.83    0.67
 -10  -1  -4    1.54    0.88
 -10  -2   0    2.19    2.26
 -10  -2  -1    4.45    2.70
 -10  -2  -2   -1.01    1.17
 -10  -2  -3    5.01    2.09
 -10  -2  -4    0.09    0.34
 -10  -2  -5    4.30    1.37
 -10  -3  -3    1.68    1.39
 -10  -3  -4    5.22    1.88
 -10  -3  -5    3.42    1.35
 -10  -3  -6    1.01    0.68
 -10  -4  -3   -1.88    1.68
 -10  -4  -4    0.14    0.49
 -10  -4  -5    1.97    1.14
 -10  -4  -6   -0.25    0.37
 -10  -5  -2    1.31    1.48
 -10  -5  -4   -1.80    1.65
 -10  -5  -5    1.56    0.93
 -10  -5  -6    2.75    1.52
 -10  -6  -5    0.35    0.78
   0   0   0    0.00    0.00
;
loop_
_space_group_symop_operation_xyz
'x, y, z'
'-x, -y, -z'
loop_
_atom_site_label
_atom_site_type_symbol
_atom_site_fract_x
_atom_site_fract_y
_atom_site_fract_z
_atom_site_U_iso_or_equiv
_atom_site_adp_type
_atom_site_occupancy
_atom_site_site_symmetry_order
_atom_site_calc_flag
_atom_site_refinement_flags_posn
_atom_site_refinement_flags_adp
_atom_site_refinement_flags_occupancy
_atom_site_disorder_assembly
_atom_site_disorder_group
C1 C 0.2988(2) 0.3305(2) 0.48684(17) 0.0133(4) Uani 1 1 d . . . . .
C2 C 0.1929(2) 0.3765(2) 0.60124(16) 0.0131(4) Uani 1 1 d . . . . .
C3 C 0.0556(2) 0.2900(2) 0.66472(17) 0.0154(4) Uani 1 1 d . . . . .
H3A H -0.046055 0.336418 0.622769 0.018 Uiso 1 1 calc R U . . .
H3B H 0.016091 0.308112 0.745352 0.018 Uiso 1 1 calc R U . . .
C4 C 0.1307(2) 0.1037(2) 0.67046(17) 0.0162(4) Uani 1 1 d . . . . .
H4A H 0.218474 0.054304 0.724099 0.019 Uiso 1 1 calc R U . . .
H4B H 0.036067 0.053469 0.702984 0.019 Uiso 1 1 calc R U . . .
C5 C 0.2153(2) -0.0733(2) 0.51930(18) 0.0173(4) Uani 1 1 d . . . . .
H5 H 0.158663 -0.145004 0.574691 0.021 Uiso 1 1 calc R U . . .
C6 C 0.2978(2) -0.1103(2) 0.40935(18) 0.0187(5) Uani 1 1 d . . . . .
H6 H 0.296071 -0.205323 0.391527 0.022 Uiso 1 1 calc R U . . .
C7 C 0.3833(2) -0.0044(2) 0.32589(17) 0.0164(4) Uani 1 1 d . . . . .
C8 C 0.3838(2) 0.1365(2) 0.35360(17) 0.0144(4) Uani 1 1 d . . . . .
H8 H 0.441305 0.207256 0.297862 0.017 Uiso 1 1 calc R U . . .
C9 C 0.2997(2) 0.1742(2) 0.46359(16) 0.0126(4) Uani 1 1 d . . . . .
C10 C 0.2144(2) 0.0675(2) 0.54957(17) 0.0144(4) Uani 1 1 d . . . . .
C11 C 0.2330(2) 0.4869(2) 0.63856(16) 0.0148(4) Uani 1 1 d . . . . .
H11 H 0.328592 0.521549 0.592644 0.018 Uiso 1 1 calc R U . . .
C12 C 0.1455(2) 0.5600(2) 0.74244(16) 0.0140(4) Uani 1 1 d . . . . .
C13 C 0.2469(2) 0.6008(2) 0.80319(17) 0.0146(4) Uani 1 1 d . . . . .
H13 H 0.368496 0.577884 0.778324 0.017 Uiso 1 1 calc R U . . .
C14 C 0.1689(2) 0.6745(2) 0.89955(16) 0.0125(4) Uani 1 1 d . . . . .
C15 C -0.0127(2) 0.7119(2) 0.93335(17) 0.0152(4) Uani 1 1 d . . . . .
C16 C -0.1169(2) 0.6785(2) 0.87378(17) 0.0160(4) Uani 1 1 d . . . . .
H16 H -0.239140 0.706603 0.896725 0.019 Uiso 1 1 calc R U . . .
C17 C -0.0369(2) 0.6024(2) 0.77918(17) 0.0150(4) Uani 1 1 d . . . . .
H17 H -0.106861 0.578852 0.738910 0.018 Uiso 1 1 calc R U . . .
C18 C 0.2747(2) 0.7185(2) 0.96570(17) 0.0165(4) Uani 1 1 d . . . . .
C19 C 0.4475(3) -0.1562(3) 0.17480(19) 0.0276(5) Uani 1 1 d . . . . .
H19A H 0.496952 -0.260926 0.226263 0.041 Uiso 1 1 calc R U . . .
H19B H 0.507533 -0.155696 0.094191 0.041 Uiso 1 1 calc R U . . .
H19C H 0.323735 -0.138634 0.177394 0.041 Uiso 1 1 calc R U . . .
F1 F -0.09011(13) 0.78448(14) 1.02701(10) 0.0217(3) Uani 1 1 d . . . . .
F2 F 0.26292(14) 0.64104(13) 1.08269(9) 0.0209(3) Uani 1 1 d . . . . .
F3 F 0.22247(14) 0.88031(13) 0.96210(10) 0.0243(3) Uani 1 1 d . . . . .
F4 F 0.44808(13) 0.67637(14) 0.92155(10) 0.0219(3) Uani 1 1 d . . . . .
O1 O 0.37797(17) 0.42131(16) 0.41329(12) 0.0189(3) Uani 1 1 d . . . . .
O2 O 0.46868(17) -0.02713(17) 0.21432(12) 0.0220(3) Uani 1 1 d . . . . .
loop_
_atom_site_aniso_label
_atom_site_aniso_U_11
_atom_site_aniso_U_22
_atom_site_aniso_U_33
_atom_site_aniso_U_23
_atom_site_aniso_U_13
_atom_site_aniso_U_12
C1 0.0106(9) 0.0145(10) 0.0145(10) -0.0010(8) -0.0054(8) -0.0033(8)
C2 0.0126(9) 0.0143(10) 0.0115(10) -0.0004(8) -0.0045(8) -0.0032(8)
C3 0.0161(10) 0.0191(11) 0.0124(10) -0.0025(8) -0.0016(8) -0.0082(8)
C4 0.0151(10) 0.0184(11) 0.0163(10) 0.0005(8) -0.0035(8) -0.0091(8)
C5 0.0178(10) 0.0135(11) 0.0216(11) 0.0017(9) -0.0088(9) -0.0067(8)
C6 0.0195(10) 0.0155(11) 0.0246(12) -0.0059(9) -0.0099(9) -0.0041(8)
C7 0.0133(10) 0.0191(11) 0.0171(11) -0.0061(9) -0.0061(8) -0.0013(8)
C8 0.0128(9) 0.0141(11) 0.0170(11) -0.0012(8) -0.0054(8) -0.0048(8)
C9 0.0114(9) 0.0118(10) 0.0153(10) -0.0010(8) -0.0070(8) -0.0028(7)
C10 0.0115(9) 0.0160(11) 0.0162(10) 0.0006(8) -0.0082(8) -0.0041(8)
C11 0.0156(10) 0.0157(11) 0.0129(10) 0.0002(8) -0.0037(8) -0.0062(8)
C12 0.0183(10) 0.0103(10) 0.0125(10) 0.0011(8) -0.0048(8) -0.0045(8)
C13 0.0142(10) 0.0118(10) 0.0162(10) -0.0002(8) -0.0018(8) -0.0049(8)
C14 0.0159(10) 0.0091(10) 0.0125(10) 0.0005(8) -0.0046(8) -0.0045(7)
C15 0.0205(10) 0.0117(10) 0.0118(10) -0.0034(8) -0.0014(8) -0.0031(8)
C16 0.0130(10) 0.0136(11) 0.0180(11) -0.0008(8) -0.0035(8) -0.0012(8)
C17 0.0172(10) 0.0138(10) 0.0154(10) -0.0011(8) -0.0071(8) -0.0052(8)
C18 0.0187(11) 0.0168(11) 0.0132(10) -0.0020(8) -0.0013(8) -0.0063(8)
C19 0.0338(12) 0.0273(13) 0.0285(13) -0.0168(11) -0.0083(10) -0.0063(10)
F1 0.0210(6) 0.0255(7) 0.0187(6) -0.0117(5) 0.0006(5) -0.0044(5)
F2 0.0265(6) 0.0256(7) 0.0130(6) -0.0007(5) -0.0049(5) -0.0126(5)
F3 0.0352(7) 0.0144(7) 0.0287(7) -0.0061(5) -0.0102(6) -0.0097(5)
F4 0.0174(6) 0.0314(7) 0.0215(7) -0.0080(5) -0.0006(5) -0.0129(5)
O1 0.0239(7) 0.0191(8) 0.0161(8) -0.0034(6) 0.0014(6) -0.0128(6)
O2 0.0257(8) 0.0249(9) 0.0215(8) -0.0146(7) -0.0007(6) -0.0092(6)
loop_
_atom_type_symbol
_atom_type_description
_atom_type_scat_dispersion_real
_atom_type_scat_dispersion_imag
_atom_type_scat_source
C C 0.0033 0.0016 'International Tables Vol C Tables 4.2.6.8 and 6.1.1.4'
H H 0.0000 0.0000 'International Tables Vol C Tables 4.2.6.8 and 6.1.1.4'
O O 0.0106 0.0060 'International Tables Vol C Tables 4.2.6.8 and 6.1.1.4'
F F 0.0171 0.0103 'International Tables Vol C Tables 4.2.6.8 and 6.1.1.4'
loop_
_geom_angle_atom_site_label_1
_geom_angle_atom_site_label_2
_geom_angle_atom_site_label_3
_geom_angle
_geom_angle_site_symmetry_1
_geom_angle_site_symmetry_3
O1 C1 C9 121.07(17) . .
O1 C1 C2 121.21(16) . .
C9 C1 C2 117.69(17) . .
C11 C2 C1 116.89(17) . .
C11 C2 C3 126.46(17) . .
C1 C2 C3 116.62(15) . .
C2 C3 C4 111.07(15) . .
C2 C3 H3A 109.4 . .
C4 C3 H3A 109.4 . .
C2 C3 H3B 109.4 . .
C4 C3 H3B 109.4 . .
H3A C3 H3B 108.0 . .
C10 C4 C3 112.06(16) . .
C10 C4 H4A 109.2 . .
C3 C4 H4A 109.2 . .
C10 C4 H4B 109.2 . .
C3 C4 H4B 109.2 . .
H4A C4 H4B 107.9 . .
C6 C5 C10 122.15(19) . .
C6 C5 H5 118.9 . .
C10 C5 H5 118.9 . .
C5 C6 C7 119.48(17) . .
C5 C6 H6 120.3 . .
C7 C6 H6 120.3 . .
O2 C7 C8 115.57(18) . .
O2 C7 C6 124.93(16) . .
C8 C7 C6 119.50(18) . .
C7 C8 C9 120.95(19) . .
C7 C8 H8 119.5 . .
C9 C8 H8 119.5 . .
C8 C9 C10 120.31(17) . .
C8 C9 C1 118.64(18) . .
C10 C9 C1 121.03(17) . .
C5 C10 C9 117.59(18) . .
C5 C10 C4 121.89(18) . .
C9 C10 C4 120.49(16) . .
C2 C11 C12 128.34(18) . .
C2 C11 H11 115.8 . .
C12 C11 H11 115.8 . .
C17 C12 C13 117.73(17) . .
C17 C12 C11 122.97(15) . .
C13 C12 C11 119.13(16) . .
C14 C13 C12 121.07(17) . .
C14 C13 H13 119.5 . .
C12 C13 H13 119.5 . .
C15 C14 C13 118.74(15) . .
C15 C14 C18 119.33(16) . .
C13 C14 C18 121.90(16) . .
F1 C15 C16 119.04(16) . .
F1 C15 C14 119.14(15) . .
C16 C15 C14 121.81(17) . .
C15 C16 C17 118.78(17) . .
C15 C16 H16 120.6 . .
C17 C16 H16 120.6 . .
C16 C17 C12 121.81(16) . .
C16 C17 H17 119.1 . .
C12 C17 H17 119.1 . .
F3 C18 F4 106.99(15) . .
F3 C18 F2 106.31(14) . .
F4 C18 F2 105.82(14) . .
F3 C18 C14 112.45(14) . .
F4 C18 C14 112.26(15) . .
F2 C18 C14 112.53(16) . .
O2 C19 H19A 109.5 . .
O2 C19 H19B 109.5 . .
H19A C19 H19B 109.5 . .
O2 C19 H19C 109.5 . .
H19A C19 H19C 109.5 . .
H19B C19 H19C 109.5 . .
C7 O2 C19 117.28(16) . .
loop_
_geom_bond_atom_site_label_1
_geom_bond_atom_site_label_2
_geom_bond_distance
_geom_bond_site_symmetry_2
C1 O1 1.228(2) .
C1 C9 1.485(3) .
C1 C2 1.500(3) .
C2 C11 1.342(2) .
C2 C3 1.507(3) .
C3 C4 1.533(3) .
C3 H3A 0.9700 .
C3 H3B 0.9700 .
C4 C10 1.500(3) .
C4 H4A 0.9700 .
C4 H4B 0.9700 .
C5 C6 1.385(3) .
C5 C10 1.391(2) .
C5 H5 0.9300 .
C6 C7 1.390(3) .
C6 H6 0.9300 .
C7 O2 1.370(2) .
C7 C8 1.381(2) .
C8 C9 1.390(3) .
C8 H8 0.9300 .
C9 C10 1.405(3) .
C11 C12 1.466(3) .
C11 H11 0.9300 .
C12 C17 1.391(3) .
C12 C13 1.404(2) .
C13 C14 1.385(2) .
C13 H13 0.9300 .
C14 C15 1.383(3) .
C14 C18 1.497(2) .
C15 F1 1.352(2) .
C15 C16 1.373(2) .
C16 C17 1.380(2) .
C16 H16 0.9300 .
C17 H17 0.9300 .
C18 F3 1.335(2) .
C18 F4 1.342(2) .
C18 F2 1.350(2) .
C19 O2 1.428(2) .
C19 H19A 0.9600 .
C19 H19B 0.9600 .
C19 H19C 0.9600 .
loop_
_geom_hbond_atom_site_label_D
_geom_hbond_atom_site_label_H
_geom_hbond_atom_site_label_A
_geom_hbond_distance_DH
_geom_hbond_distance_HA
_geom_hbond_distance_DA
_geom_hbond_angle_DHA
_geom_hbond_site_symmetry_A
_geom_hbond_publ_flag
C16 H16 F4 0.93 2.60 3.462(2) 155.2 1_455 yes
C8 H8 F4 0.93 2.56 3.394(2) 148.9 2_666 yes
loop_
_geom_torsion_atom_site_label_1
_geom_torsion_atom_site_label_2
_geom_torsion_atom_site_label_3
_geom_torsion_atom_site_label_4
_geom_torsion
_geom_torsion_site_symmetry_1
_geom_torsion_site_symmetry_2
_geom_torsion_site_symmetry_3
_geom_torsion_site_symmetry_4
O1 C1 C2 C11 -21.3(2) . . . .
C9 C1 C2 C11 160.75(16) . . . .
O1 C1 C2 C3 160.46(16) . . . .
C9 C1 C2 C3 -17.5(2) . . . .
C11 C2 C3 C4 -132.63(18) . . . .
C1 C2 C3 C4 45.4(2) . . . .
C2 C3 C4 C10 -52.11(18) . . . .
C10 C5 C6 C7 0.1(3) . . . .
C5 C6 C7 O2 -179.72(15) . . . .
C5 C6 C7 C8 -0.3(3) . . . .
O2 C7 C8 C9 179.25(14) . . . .
C6 C7 C8 C9 -0.2(2) . . . .
C7 C8 C9 C10 0.9(2) . . . .
C7 C8 C9 C1 -177.76(15) . . . .
O1 C1 C9 C8 -3.6(2) . . . .
C2 C1 C9 C8 174.35(14) . . . .
O1 C1 C9 C10 177.71(15) . . . .
C2 C1 C9 C10 -4.3(2) . . . .
C6 C5 C10 C9 0.6(2) . . . .
C6 C5 C10 C4 -177.67(15) . . . .
C8 C9 C10 C5 -1.1(2) . . . .
C1 C9 C10 C5 177.57(15) . . . .
C8 C9 C10 C4 177.18(14) . . . .
C1 C9 C10 C4 -4.2(2) . . . .
C3 C4 C10 C5 -148.99(16) . . . .
C3 C4 C10 C9 32.8(2) . . . .
C1 C2 C11 C12 176.35(16) . . . .
C3 C2 C11 C12 -5.6(3) . . . .
C2 C11 C12 C17 -37.4(3) . . . .
C2 C11 C12 C13 147.39(19) . . . .
C17 C12 C13 C14 2.6(3) . . . .
C11 C12 C13 C14 178.09(17) . . . .
C12 C13 C14 C15 -1.7(3) . . . .
C12 C13 C14 C18 179.85(17) . . . .
C13 C14 C15 F1 -179.73(17) . . . .
C18 C14 C15 F1 -1.3(3) . . . .
C13 C14 C15 C16 -0.3(3) . . . .
C18 C14 C15 C16 178.17(17) . . . .
F1 C15 C16 C17 -179.18(17) . . . .
C14 C15 C16 C17 1.4(3) . . . .
C15 C16 C17 C12 -0.4(3) . . . .
C13 C12 C17 C16 -1.5(3) . . . .
C11 C12 C17 C16 -176.80(18) . . . .
C15 C14 C18 F3 -58.5(2) . . . .
C13 C14 C18 F3 119.90(19) . . . .
C15 C14 C18 F4 -179.23(16) . . . .
C13 C14 C18 F4 -0.8(3) . . . .
C15 C14 C18 F2 61.5(2) . . . .
C13 C14 C18 F2 -120.08(19) . . . .
C8 C7 O2 C19 -170.31(15) . . . .
C6 C7 O2 C19 9.1(2) . . . .
