#------------------------------------------------------------------------------
#$Date: 2022-03-30 11:13:55 +0300 (Wed, 30 Mar 2022) $
#$Revision: 274110 $
#$URL: file:///home/coder/svn-repositories/cod/cif/8/10/49/8104947.cif $
#------------------------------------------------------------------------------
#
# This file is available in the Crystallography Open Database (COD),
# http://www.crystallography.net/
#
# All data on this site have been placed in the public domain by the
# contributors.
#
data_8104947
loop_
_publ_author_name
'Ma, Guang-Qun'
'Zhao, Feng-Lan'
'Meng, Qing-Guo'
_publ_section_title
;
 Crystal structure of
 (E)-7-methoxy-2-((2-methoxypyridin-3-yl)methylene)-3,4-dihydronaphthalen-1
 (2H)-one, C18H17NO3
;
_journal_issue                   1
_journal_name_full
'Zeitschrift f\"ur Kristallographie - New Crystal Structures'
_journal_page_first              5
_journal_page_last               7
_journal_paper_doi               10.1515/ncrs-2021-0378
_journal_volume                  237
_journal_year                    2022
_chemical_formula_moiety         'C18 H17 N O3'
_chemical_formula_sum            'C18 H17 N O3'
_chemical_formula_weight         295.32
_space_group_crystal_system      triclinic
_space_group_IT_number           2
_space_group_name_Hall           '-P 1'
_space_group_name_H-M_alt        'P -1'
_atom_sites_solution_hydrogens   geom
_cell_angle_alpha                108.187(8)
_cell_angle_beta                 94.029(7)
_cell_angle_gamma                95.071(8)
_cell_formula_units_Z            2
_cell_length_a                   7.4638(8)
_cell_length_b                   8.0392(8)
_cell_length_c                   12.6767(11)
_cell_measurement_reflns_used    1990
_cell_measurement_temperature    100.0(2)
_cell_measurement_theta_max      28.6400
_cell_measurement_theta_min      2.6730
_cell_volume                     715.95(13)
_computing_cell_refinement       'CrysAlisPro 1.171.38.43f (Rigaku OD, 2017)'
_computing_data_collection       'CrysAlisPro 1.171.38.43f (Rigaku OD, 2017)'
_computing_data_reduction        'CrysAlisPro 1.171.38.43f (Rigaku OD, 2017)'
_computing_molecular_graphics    'Bruker SHELXTL'
_computing_publication_material  'Bruker SHELXTL'
_computing_structure_refinement  'SHELXL-2017/1 (Sheldrick, 2015)'
_computing_structure_solution    'SHELXL-2017/1 (Sheldrick, 2015)'
_diffrn_ambient_temperature      100.0(2)
_diffrn_measured_fraction_theta_full 1.000
_diffrn_measured_fraction_theta_max 1.000
_diffrn_measurement_device_type  'SuperNova, Dual, Cu at zero, AtlasS2'
_diffrn_measurement_method       'CCD plate'
_diffrn_radiation_type           MoK\a
_diffrn_radiation_wavelength     0.71073
_diffrn_reflns_av_R_equivalents  0.0370
_diffrn_reflns_av_unetI/netI     0.0676
_diffrn_reflns_Laue_measured_fraction_full 1.000
_diffrn_reflns_Laue_measured_fraction_max 1.000
_diffrn_reflns_limit_h_max       9
_diffrn_reflns_limit_h_min       -7
_diffrn_reflns_limit_k_max       9
_diffrn_reflns_limit_k_min       -9
_diffrn_reflns_limit_l_max       10
_diffrn_reflns_limit_l_min       -15
_diffrn_reflns_number            4744
_diffrn_reflns_point_group_measured_fraction_full 1.000
_diffrn_reflns_point_group_measured_fraction_max 1.000
_diffrn_reflns_theta_full        25.242
_diffrn_reflns_theta_max         25.498
_diffrn_reflns_theta_min         2.679
_diffrn_source                   'micro-focus sealed X-ray tube'
_exptl_absorpt_coefficient_mu    0.093
_exptl_absorpt_correction_T_max  1.00000
_exptl_absorpt_correction_T_min  0.22311
_exptl_absorpt_correction_type   multi-scan
_exptl_absorpt_process_details
;
CrysAlisPro 1.171.38.43f (Rigaku Oxford Diffraction, 2015)
Empirical absorption correction using spherical harmonics,
 implemented in SCALE3 ABSPACK scaling algorithm.
;
_exptl_crystal_colour            colourless
_exptl_crystal_density_diffrn    1.370
_exptl_crystal_description       block
_exptl_crystal_F_000             312
_exptl_crystal_size_max          0.140
_exptl_crystal_size_mid          0.120
_exptl_crystal_size_min          0.110
_refine_diff_density_max         0.260
_refine_diff_density_min         -0.300
_refine_diff_density_rms         0.068
_refine_ls_extinction_coef       .
_refine_ls_extinction_method     none
_refine_ls_goodness_of_fit_ref   1.037
_refine_ls_hydrogen_treatment    constr
_refine_ls_matrix_type           full
_refine_ls_number_parameters     201
_refine_ls_number_reflns         2669
_refine_ls_number_restraints     0
_refine_ls_restrained_S_all      1.037
_refine_ls_R_factor_all          0.0742
_refine_ls_R_factor_gt           0.0573
_refine_ls_shift/su_max          0.000
_refine_ls_shift/su_mean         0.000
_refine_ls_structure_factor_coef Fsqd
_refine_ls_weighting_details
'w=1/[\s^2^(Fo^2^)+(0.0669P)^2^+0.0260P] where P=(Fo^2^+2Fc^2^)/3'
_refine_ls_weighting_scheme      calc
_refine_ls_wR_factor_gt          0.1292
_refine_ls_wR_factor_ref         0.1460
_reflns_Friedel_coverage         0.000
_reflns_Friedel_fraction_full    .
_reflns_Friedel_fraction_max     .
_reflns_number_gt                2005
_reflns_number_total             2669
_reflns_threshold_expression     'I > 2\s(I)'
_cod_data_source_file            suppl_j_ncrs-2021-0378_suppl.cif
_cod_data_source_block           mz-6-4
_cod_database_code               8104947
_shelx_space_group_comment
;
The symmetry employed for this shelxl refinement is uniquely defined
by the following loop, which should always be used as a source of
symmetry information in preference to the above space-group names.
They are only intended as comments.
;
_shelx_estimated_absorpt_t_min   0.987
_shelx_estimated_absorpt_t_max   0.990
_shelx_res_file
;
TITL mz-6-4 in P-1
    mz-6-4.res
    created by SHELXL-2017/1 at 12:59:08 on 26-Aug-2020
CELL 0.71073   7.4638   8.0392  12.6767 108.187  94.029  95.071
ZERR   2.00   0.0008   0.0008   0.0011   0.008   0.007   0.008
LATT 1
SFAC C  H  N  O
UNIT 36 34 2 6
OMIT  -3.00  51.00
L.S. 12
ACTA
BOND $H
FMAP 2
PLAN 20
HTAB C18 O1_$3
EQIV $3 -x+1, -y, -z+1
HTAB C17 O1_$2
EQIV $2 -x, -y, -z+2
HTAB C15 O1_$1
EQIV $1 x+1, y, z
conf
htab
size 0.14 0.12 0.11
WGHT    0.066900    0.026000
FVAR       0.26237
MOLE 1
C1    1    0.490958    0.120281    0.869854    11.00000    0.02641    0.02078 =
         0.02022    0.00972    0.00306    0.00232
C2    1    0.669513    0.170082    0.836595    11.00000    0.02264    0.01870 =
         0.02344    0.01031    0.00505    0.00326
C3    1    0.818639    0.257166    0.929026    11.00000    0.02062    0.02599 =
         0.02519    0.01245    0.00327    0.00035
AFIX  23
H3A   2    0.916215    0.311075    0.899584    11.00000   -1.20000
H3B   2    0.866031    0.168400    0.956701    11.00000   -1.20000
AFIX   0
C4    1    0.752523    0.397957    1.025578    11.00000    0.02735    0.02372 =
         0.02350    0.00930    0.00010   -0.00042
AFIX  23
H4A   2    0.844833    0.433154    1.088648    11.00000   -1.20000
H4B   2    0.736184    0.500820    1.003028    11.00000   -1.20000
AFIX   0
C5    1    0.528953    0.416609    1.168723    11.00000    0.02826    0.02280 =
         0.02097    0.00310    0.00009    0.00114
AFIX  43
H5    2    0.610263    0.503446    1.220032    11.00000   -1.20000
AFIX   0
C6    1    0.364843    0.371378    1.201084    11.00000    0.02938    0.02564 =
         0.01690    0.00530    0.00329    0.00383
AFIX  43
H6    2    0.336584    0.427547    1.272925    11.00000   -1.20000
AFIX   0
C7    1    0.240213    0.240588    1.125735    11.00000    0.02803    0.02259 =
         0.02062    0.01208    0.00582    0.00402
C8    1    0.286759    0.157906    1.018959    11.00000    0.02441    0.01840 =
         0.01873    0.00813    0.00147    0.00256
AFIX  43
H8    2    0.205669    0.069967    0.968295    11.00000   -1.20000
AFIX   0
C9    1    0.452851    0.205435    0.987455    11.00000    0.02293    0.01959 =
         0.02032    0.01003    0.00436    0.00407
C10   1    0.578775    0.337528    1.061884    11.00000    0.02561    0.02103 =
         0.02069    0.00990   -0.00007    0.00157
C11   1    0.681449    0.139928    0.726709    11.00000    0.02143    0.02169 =
         0.02547    0.00741    0.00549    0.00169
AFIX  43
H11   2    0.576011    0.088912    0.679913    11.00000   -1.20000
AFIX   0
C12   1    0.837917    0.176848    0.671810    11.00000    0.02965    0.01818 =
         0.02305    0.00274    0.00729    0.00092
C13   1    0.815716    0.233793    0.576869    11.00000    0.03125    0.02178 =
         0.02115    0.00290    0.00788    0.00171
C14   1    1.112879    0.235844    0.551136    11.00000    0.03000    0.03791 =
         0.02777    0.00631    0.01386   -0.00436
AFIX  43
H14   2    1.206928    0.255827    0.510601    11.00000   -1.20000
AFIX   0
C15   1    1.152313    0.180144    0.640778    11.00000    0.02651    0.03267 =
         0.03149   -0.00017    0.00631    0.00018
AFIX  43
H15   2    1.269939    0.162890    0.660508    11.00000   -1.20000
AFIX   0
C16   1    1.012946    0.150140    0.701310    11.00000    0.03080    0.02538 =
         0.02590    0.00630    0.00968    0.00363
AFIX  43
H16   2    1.036791    0.111721    0.762329    11.00000   -1.20000
AFIX   0
C17   1    0.016976    0.276649    1.254984    11.00000    0.03716    0.04017 =
         0.02116    0.00595    0.01209   -0.00013
AFIX 137
H17A  2    0.093695    0.256182    1.312615    11.00000   -1.50000
H17B  2   -0.105858    0.233022    1.258028    11.00000   -1.50000
H17C  2    0.025292    0.400834    1.265831    11.00000   -1.50000
AFIX   0
C18   1    0.619205    0.303219    0.445164    11.00000    0.05143    0.04401 =
         0.02484    0.01620    0.00896    0.01166
AFIX 137
H18A  2    0.694018    0.410383    0.452263    11.00000   -1.50000
H18B  2    0.494655    0.318511    0.431122    11.00000   -1.50000
H18C  2    0.651981    0.209287    0.384248    11.00000   -1.50000
AFIX   0
N1    3    0.945326    0.263439    0.518184    11.00000    0.03778    0.02932 =
         0.02461    0.00482    0.01092   -0.00224
O1    4    0.373757    0.015204    0.802644    11.00000    0.02966    0.03708 =
         0.02056    0.00361    0.00357   -0.00542
O2    4    0.073332    0.187055    1.148345    11.00000    0.02942    0.02904 =
         0.01915    0.00686    0.00873    0.00143
O3    4    0.644654    0.260422    0.546986    11.00000    0.03454    0.04062 =
         0.02056    0.01389    0.00762    0.00711
HKLF 4




REM  mz-6-4 in P-1
REM R1 =  0.0573 for    2005 Fo > 4sig(Fo)  and  0.0742 for all    2669 data
REM    201 parameters refined using      0 restraints

END

WGHT      0.0668      0.0260

REM Instructions for potential hydrogen bonds
HTAB C15 O1_$1
HTAB C17 O1_$2
HTAB C18 O1_$3

REM Highest difference peak  0.260,  deepest hole -0.300,  1-sigma level  0.068
Q1    1   0.2981  0.1432  1.0873  11.00000  0.05    0.26
Q2    1   0.4894  0.1359  0.9434  11.00000  0.05    0.25
Q3    1   0.7468  0.0244  0.9165  11.00000  0.05    0.22
Q4    1   0.8286  0.2331  0.6412  11.00000  0.05    0.21
Q5    1   0.2267  0.2442  1.0628  11.00000  0.05    0.20
Q6    1   0.6161  0.6975  1.2022  11.00000  0.05    0.19
Q7    1   0.8269  0.1867  0.6212  11.00000  0.05    0.19
Q8    1   0.9626 -0.0032  0.7853  11.00000  0.05    0.19
Q9    1   0.4929  0.1356  0.6860  11.00000  0.05    0.18
Q10   1   0.4785  0.0381  0.5370  11.00000  0.05    0.18
Q11   1   0.3793 -0.0100  0.7204  11.00000  0.05    0.18
Q12   1   0.9922  0.4345  0.5886  11.00000  0.05    0.18
Q13   1   0.9034  0.3358  0.5396  11.00000  0.05    0.18
Q14   1   0.4606 -0.0121  0.9618  11.00000  0.05    0.18
Q15   1   0.6599  0.2021  0.7829  11.00000  0.05    0.18
Q16   1   0.1925  0.0392  0.9203  11.00000  0.05    0.18
Q17   1   0.2837  0.5319  1.2004  11.00000  0.05    0.17
Q18   1  -0.1271  0.4587  1.3443  11.00000  0.05    0.17
Q19   1   1.0284 -0.0164  0.6602  11.00000  0.05    0.17
Q20   1   1.1784 -0.0088  0.6581  11.00000  0.05    0.17
;
_shelx_hkl_file
;
   0   0  -2   22.05    0.57
   0   0   2   21.51    0.56
   0   0   3   49.61    1.21
   0   0  -3   49.29    1.21
   0   0  -4   21.10    0.67
   0   0   4   21.39    0.67
   0   0  -5    2.85    0.23
   0   0   5    2.47    0.21
   0   0   6   29.26    1.03
   0   0  -6   31.62    0.94
   0   0  -6   28.92    1.02
   0   0  -7   36.22    1.27
   0   0  -7   34.94    1.10
   0   0   8    8.31    0.60
   0   0  -8    8.69    0.61
   0   0  -8    8.52    0.49
   0   0  -9    1.98    0.31
   0   0   9    1.82    0.30
   0   0  -9    1.60    0.23
   0   0 -10    9.54    0.62
   0   0 -10    9.04    0.77
   0   0 -11    3.61    0.41
   0   0 -11    3.98    0.55
   0   0 -12    0.72    0.19
   0   0 -12    0.70    0.22
   0   0 -13   -0.10    0.16
   0   0 -14    2.16    0.53
   0   0 -15    2.90    0.69
   0   0 -16    1.36    0.50
   0   1 -16    0.62    0.36
   0   1 -15    0.00    0.10
   0   1 -14    0.34    0.14
   0   1 -13    0.11    0.04
   0   1 -12    0.41    0.15
   0   1 -12    0.47    0.13
   0   1 -11    0.28    0.12
   0   1 -11    0.19    0.08
   0   1 -10    7.17    0.42
   0   1 -10    7.63    0.64
   0   1  -9    3.84    0.41
   0  -1   9    3.68    0.45
   0  -1   8   24.51    1.16
   0   1  -8   27.41    1.08
   0   1  -7    4.70    0.35
   0  -1   6   62.98    1.90
   0   1  -6   66.67    1.74
   0   1  -5   12.67    0.49
   0   1  -4   12.94    0.45
   0   1  -3   17.66    0.54
   0   1  -3   22.37    0.73
   0   1  -2   55.47    1.29
   0   1  -2   55.43    1.45
   0  -1   2   53.47    1.45
   0   1  -1   15.04    0.55
   0  -1   1   14.76    0.56
   0   1  -1   14.83    0.43
   0  -1   1   15.46    0.47
   0  -1   0   41.81    1.17
   0  -1  -1   13.57    0.53
   0   1   1   12.43    0.49
   0   1   2  331.86    7.51
   0  -1  -2  328.49    7.60
   0  -1  -2  335.65    7.47
   0  -1  -3   34.31    1.09
   0  -1  -3   34.75    1.03
   0   1   3   35.61    0.87
   0   1   4    4.03    0.22
   0  -1  -4    3.35    0.27
   0  -1  -4    3.88    0.30
   0   1   5    3.21    0.23
   0  -1  -5    3.07    0.29
   0  -1  -5    3.25    0.30
   0  -1  -6    1.58    0.22
   0   1   6    1.31    0.17
   0  -1  -6    1.43    0.22
   0  -1  -7   24.72    1.05
   0  -1  -7   21.41    1.05
   0   1   8    6.06    0.49
   0  -1  -8    4.58    0.46
   0  -1  -8    6.24    0.57
   0  -1  -9    0.31    0.09
   0   1   9    0.32    0.07
   0  -1 -10    0.40    0.16
   0  -1 -10    0.40    0.12
   0  -1 -11   -0.57    0.23
   0  -1 -11    0.05    0.06
   0  -1 -12    0.77    0.31
   0  -1 -12    0.18    0.10
   0  -1 -13    0.22    0.19
   0  -1 -14    0.94    0.37
   0  -1 -15    2.80    0.70
   0   2 -15   -0.02    0.24
   0   2 -14    0.31    0.18
   0   2 -13    1.11    0.32
   0   2 -12    5.00    0.33
   0   2 -12    4.92    0.59
   0   2 -12    4.14    0.49
   0   2 -11    0.10    0.07
   0   2 -11    0.06    0.07
   0   2 -10   27.23    1.26
   0   2 -10   30.34    1.36
   0   2  -9    0.84    0.18
   0  -2   9    1.14    0.28
   0  -2   9    0.95    0.23
   0   2  -9    1.10    0.23
   0  -2   8    2.02    0.32
   0   2  -8    2.60    0.27
   0   2  -8    2.44    0.33
   0   2  -7   86.32    2.63
   0   2  -7   92.66    2.33
   0   2  -6    0.76    0.16
   0   2  -6    1.00    0.14
   0  -2   5   16.44    0.78
   0   2  -5   14.70    0.77
   0  -2   4    6.57    0.46
   0   2  -4    7.14    0.31
   0   2  -4    6.25    0.45
   0  -2   4    5.79    0.40
   0   2  -3    7.43    0.31
   0  -2   3    7.03    0.41
   0   2  -3    7.71    0.49
   0  -2   3    8.12    0.45
   0  -2   3    7.22    0.48
   0   2  -2  132.78    3.03
   0   2  -2  132.01    3.39
   0  -2   2  137.72    3.45
   0  -2   2  138.07    3.23
   0  -2   1   93.29    2.53
   0  -2   1   88.52    2.24
   0   2  -1   87.95    2.44
   0   2  -1   92.16    2.10
   0  -2   0  525.61   11.68
   0  -2  -1  461.92   10.38
   0   2   1  460.14   10.23
   0   2   2  111.79    2.46
   0  -2  -2  109.28    3.02
   0   2   2  109.42    2.86
   0  -2  -2  116.42    2.82
   0   2   3    0.24    0.08
   0  -2  -3    0.12    0.05
   0  -2  -4    1.51    0.22
   0   2   4    1.93    0.14
   0  -2  -4    1.58    0.25
   0  -2  -5   27.67    1.23
   0  -2  -5   25.92    1.16
   0   2   5   28.38    0.88
   0   2   6    1.54    0.19
   0  -2  -6    1.67    0.28
   0  -2  -6    1.83    0.29
   0  -2  -7    0.98    0.24
   0  -2  -7    0.73    0.21
   0  -2  -8    0.13    0.12
   0  -2  -8    0.10    0.08
   0   2   8    0.13    0.04
   0   2   9    5.45    0.61
   0   2   9    4.77    0.50
   0  -2  -9    5.93    0.69
   0  -2  -9    6.11    0.66
   0  -2 -10    9.78    0.96
   0  -2 -10    9.18    0.86
   0  -2 -11    0.39    0.19
   0  -2 -11    0.26    0.16
   0  -2 -12    0.64    0.26
   0  -2 -12    0.29    0.18
   0  -2 -13    4.68    0.82
   0  -2 -14    2.65    0.65
   0   3 -15    6.52    0.89
   0   3 -14    1.40    0.37
   0   3 -13    0.12    0.08
   0   3 -12    0.52    0.18
   0   3 -12    0.33    0.12
   0   3 -11    0.98    0.22
   0   3 -11    1.09    0.24
   0   3 -10    0.30    0.12
   0   3 -10    0.44    0.15
   0   3  -9    0.47    0.16
   0   3  -9    0.53    0.14
   0  -3   9    0.46    0.22
   0  -3   8   44.41    1.91
   0   3  -8   50.53    1.87
   0   3  -8   54.35    1.58
   0  -3   8   48.23    2.04
   0  -3   7   -0.01    0.03
   0   3  -7    0.09    0.08
   0   3  -7    0.11    0.06
   0   3  -6   23.21    1.11
   0  -3   6   21.11    1.11
   0   3  -6   24.49    0.78
   0   3  -5   97.97    2.86
   0  -3   5   93.46    2.80
   0   3  -5   98.81    2.32
   0  -3   5   89.56    2.84
   0  -3   4    0.19    0.09
   0   3  -4    0.18    0.09
   0   3  -4    0.20    0.05
   0  -3   4    0.20    0.09
   0   3  -3    2.34    0.31
   0  -3   3    2.37    0.28
   0   3  -3    2.28    0.17
   0  -3   3    2.38    0.33
   0  -3   2    0.42    0.14
   0   3  -2    0.37    0.07
   0  -3   2    0.34    0.10
   0   3  -2    0.29    0.11
   0  -3   1    6.30    0.56
   0  -3   1    5.59    0.38
   0   3  -1    6.54    0.29
   0   3  -1    6.36    0.52
   0  -3   0   58.99    2.07
   0   3   1    2.51    0.32
   0  -3  -1    2.85    0.38
   0   3   2   24.79    0.61
   0   3   2   25.36    1.09
   0  -3  -2   25.00    1.27
   0  -3  -3  113.25    3.62
   0   3   3  126.11    2.72
   0   3   3  126.12    3.34
   0  -3  -3  114.23    3.33
   0   3   4   39.80    1.43
   0  -3  -4   39.72    1.75
   0   3   4   39.85    1.04
   0  -3  -4   38.30    1.53
   0  -3  -5    7.80    0.73
   0   3   5    7.67    0.39
   0  -3  -5    8.51    0.68
   0  -3  -6   36.59    1.77
   0   3   6   35.70    1.21
   0  -3  -6   33.68    1.59
   0  -3  -7  100.95    3.47
   0  -3  -7   96.04    3.27
   0  -3  -8    3.12    0.50
   0  -3  -8    3.90    0.58
   0   3   8    3.86    0.49
   0  -3  -9    1.02    0.31
   0  -3  -9    0.81    0.27
   0   3   9    0.96    0.28
   0  -3 -10    3.38    0.59
   0  -3 -10    3.90    0.64
   0  -3 -11    0.05    0.10
   0  -3 -11    0.58    0.27
   0  -3 -12    3.49    0.70
   0  -3 -12    4.52    0.73
   0   4 -15   -0.15    0.13
   0   4 -14   -0.06    0.05
   0   4 -13    0.01    0.07
   0   4 -12    1.06    0.26
   0   4 -12    0.76    0.19
   0   4 -11    0.82    0.20
   0   4 -11    0.60    0.18
   0   4 -10    1.16    0.23
   0   4 -10    1.68    0.32
   0   4  -9    2.29    0.36
   0   4  -9    2.13    0.27
   0  -4   8    6.14    0.69
   0   4  -8    6.93    0.45
   0   4  -7    0.99    0.23
   0  -4   7    0.69    0.21
   0   4  -7    1.06    0.15
   0  -4   6   11.93    0.90
   0   4  -6   11.95    0.51
   0  -4   6   12.03    0.87
   0   4  -6   12.31    0.85
   0   4  -5    4.29    0.26
   0  -4   5    3.78    0.49
   0  -4   5    3.68    0.45
   0   4  -5    3.92    0.46
   0   4  -4   17.87    1.06
   0  -4   4   19.07    1.17
   0  -4   4   21.11    1.10
   0   4  -4   21.97    0.69
   0  -4   3   40.77    1.60
   0  -4   3   37.06    1.75
   0   4  -3   42.16    1.10
   0   4  -3   40.10    1.69
   0  -4   2    0.96    0.25
   0   4  -2    0.70    0.09
   0  -4   2    0.60    0.15
   0   4  -2    0.67    0.19
   0  -4   1   22.14    0.92
   0  -4   1   24.29    1.36
   0   4  -1   25.09    0.69
   0   4   0    6.30    0.39
   0   4   0    6.69    0.25
   0  -4   0    6.54    0.68
   0  -4  -1   56.10    2.29
   0  -4  -2  104.31    3.37
   0   4   2   93.36    2.04
   0   4   2   95.03    2.56
   0   4   2  105.15    2.96
   0   4   3   18.94    1.02
   0   4   3   18.72    0.54
   0  -4  -3   17.53    1.22
   0   4   4    1.85    0.16
   0   4   4    1.97    0.30
   0  -4  -4    1.65    0.27
   0  -4  -5    2.21    0.36
   0   4   5    1.71    0.19
   0  -4  -5    1.76    0.39
   0   4   5    2.13    0.27
   0  -4  -6    5.04    0.61
   0   4   6    5.01    0.39
   0   4   6    5.06    0.48
   0  -4  -6    5.17    0.70
   0  -4  -7    0.43    0.16
   0  -4  -7    0.61    0.27
   0  -4  -8    0.25    0.12
   0  -4  -8    0.61    0.30
   0   4   8    0.51    0.20
   0  -4  -9    6.87    0.90
   0  -4  -9    5.41    0.73
   0  -4 -10    0.54    0.24
   0  -4 -10    0.10    0.12
   0  -4 -11    3.23    0.66
   0   5 -15    1.50    0.41
   0   5 -14    0.14    0.09
   0   5 -13    0.21    0.12
   0   5 -12    1.29    0.29
   0   5 -11    0.01    0.05
   0   5 -11    0.24    0.13
   0   5 -10    2.53    0.33
   0   5  -9    0.75    0.17
   0   5  -8    5.37    0.39
   0  -5   8    3.78    0.60
   0   5  -7   11.87    0.56
   0  -5   7   10.46    0.94
   0   5  -6   10.84    0.49
   0  -5   6    9.39    0.90
   0  -5   6    9.36    0.86
   0  -5   5    2.90    0.45
   0  -5   5    3.27    0.52
   0   5  -5    3.32    0.23
   0  -5   4    6.21    0.72
   0   5  -4    6.40    0.31
   0   5  -4    6.14    0.65
   0  -5   4    5.34    0.60
   0  -5   3   28.20    1.38
   0   5  -3   31.39    0.86
   0   5  -3   29.22    1.51
   0  -5   3   29.36    1.68
   0   5  -2    2.21    0.37
   0  -5   2    2.41    0.32
   0  -5   2    2.28    0.45
   0   5  -2    2.85    0.16
   0   5  -1   36.85    0.88
   0   5  -1   32.01    1.61
   0  -5   1   34.72    1.90
   0   5   0   29.89    1.49
   0   5   0   28.37    0.91
   0  -5   0   30.06    1.76
   0   5   0   29.35    0.67
   0  -5  -1    1.20    0.33
   0   5   1    1.13    0.26
   0  -5  -2    1.04    0.32
   0   5   2    1.04    0.25
   0   5   3   17.45    0.67
   0   5   3   17.73    0.83
   0  -5  -3   19.93    1.45
   0  -5  -4   16.33    1.33
   0   5   4   16.57    0.77
   0   5   4   14.83    0.92
   0   5   5   64.47    2.11
   0  -5  -5   70.82    3.11
   0   5   6   31.36    1.44
   0  -5  -6   32.13    2.04
   0  -5  -7    6.80    0.68
   0  -5  -7    8.09    1.01
   0  -5  -8    5.00    0.81
   0  -5  -9    0.42    0.28
   0  -5 -10    0.93    0.37
   0  -5 -11    0.39    0.22
   0   6 -15    0.53    0.25
   0   6 -14    0.25    0.10
   0   6 -13    2.57    0.45
   0   6 -12    1.88    0.36
   0   6 -11    2.07    0.34
   0   6 -11    1.79    0.37
   0   6 -10    0.02    0.02
   0   6 -10    0.15    0.16
   0   6  -9    0.49    0.21
   0   6  -9    0.44    0.13
   0   6  -8    0.10    0.07
   0  -6   8    0.03    0.20
   0  -6   8    0.08    0.13
   0   6  -8    0.01    0.04
   0  -6   7    1.68    0.41
   0   6  -7    1.64    0.20
   0  -6   7    1.42    0.38
   0   6  -7    1.21    0.31
   0   6  -6    1.30    0.17
   0  -6   6    1.88    0.43
   0   6  -6    1.60    0.36
   0  -6   6    1.65    0.41
   0  -6   5   -0.01    0.08
   0   6  -5    0.07    0.10
   0   6  -5    0.13    0.06
   0  -6   5    0.21    0.14
   0   6  -4    0.05    0.09
   0  -6   4   -0.04    0.04
   0  -6   4    0.03    0.12
   0   6  -4    0.08    0.04
   0  -6   3    9.56    1.04
   0   6  -3   10.98    0.42
   0   6  -3    9.14    0.85
   0  -6   3   10.12    0.82
   0   6  -2    1.05    0.10
   0  -6   2    0.58    0.26
   0  -6   2    0.69    0.16
   0  -6   1   14.73    1.33
   0   6  -1   15.50    0.46
   0  -6   0    1.50    0.44
   0  -6  -1    0.53    0.27
   0  -6  -2   30.75    2.05
   0  -6  -3    9.36    1.12
   0  -6  -4    1.09    0.38
   0  -6  -5    3.02    0.65
   0  -6  -6   11.18    1.31
   0  -6  -7    0.51    0.28
   0  -6  -8    1.16    0.45
   0  -6  -9    0.51    0.29
   0  -6 -10    0.40    0.27
   0   7 -14    0.54    0.22
   0   7 -13    4.59    0.63
   0   7 -12    2.96    0.48
   0   7 -11    0.18    0.11
   0   7 -10    1.73    0.30
   0   7  -9    0.74    0.18
   0  -7   9    0.69    0.28
   0  -7   8    0.40    0.27
   0  -7   8    0.85    0.30
   0   7  -8    0.61    0.15
   0   7  -7    0.86    0.17
   0  -7   7    1.29    0.41
   0  -7   7    1.81    0.48
   0  -7   6    4.62    0.76
   0   7  -6    5.29    0.39
   0  -7   6    5.92    0.83
   0  -7   5    5.49    0.76
   0  -7   5    4.17    0.73
   0   7  -5    5.10    0.35
   0  -7   4   -0.03    0.12
   0  -7   4   -0.05    0.05
   0   7  -4    0.10    0.05
   0  -7   3    8.82    0.69
   0   7  -3    8.66    0.42
   0   7  -2    4.00    0.25
   0  -7   2    3.68    0.71
   0  -7   1    2.86    0.62
   0  -7   0    7.97    1.09
   0  -7  -1    0.69    0.31
   0  -7  -2    2.20    0.57
   0  -7  -3    9.49    1.24
   0  -7  -4    3.32    0.74
   0  -7  -5   10.72    1.38
   0  -7  -6    5.38    1.00
   0  -7  -7    0.91    0.45
   0  -7  -8    0.20    0.27
   0   8 -14    5.27    0.76
   0   8 -13    0.09    0.03
   0   8 -12    0.04    0.06
   0   8 -11    0.08    0.06
   0   8 -10   17.79    1.09
   0  -8  10   13.29    1.41
   0   8  -9    6.09    0.59
   0  -8   9    5.46    0.90
   0  -8   8    2.80    0.65
   0   8  -8    2.20    0.32
   0   8  -7    0.23    0.11
   0  -8   7    0.41    0.28
   0   8  -6    2.25    0.28
   0  -8   6    1.37    0.47
   0  -8   5    0.09    0.16
   0   8  -5    0.02    0.03
   0  -8   4    0.47    0.26
   0   8  -4    0.25    0.09
   0   8  -3    1.46    0.18
   0  -8   3    1.30    0.43
   0  -8   2    0.14    0.22
   0  -8   1    2.20    0.63
   0  -8   0    4.79    0.92
   0  -8  -1    0.39    0.27
   0  -8  -2    0.25    0.24
   0  -8  -3    2.91    0.78
   0  -8  -4    2.79    0.78
   0  -8  -5    2.54    0.72
   0   9 -13   -0.10    0.10
   0   9 -12    0.41    0.18
   0   9 -11    0.18    0.08
   0   9 -10    4.81    0.61
   0  -9  10    3.56    0.79
   0  -9   9    0.56    0.33
   0   9  -9    0.69    0.21
   0  -9   8    0.41    0.31
   0   9  -8    1.00    0.24
   0  -9   7    0.59    0.26
   0   9  -7    0.64    0.17
   0  -9   6   -0.02    0.11
   0  -9   5    2.22    0.64
   0  -9   4    0.05    0.24
   0  -9   3    2.45    0.66
   0  -9   2    0.28    0.15
   0  -9   1    1.52    0.55
   0  -9   0    1.86    0.61
   0  -9  -1    1.18    0.48
   0  -9  -2    0.45    0.26
   0 -10  10    1.20    0.45
   0 -10   9    0.19    0.27
   0 -10   8    0.18    0.22
   0 -10   7    1.79    0.60
   0 -10   6    1.91    0.65
   0 -10   5    0.29    0.30
   0 -10   4    0.11    0.15
   0 -10   3    0.69    0.42
   1 -10   2    0.58    0.38
   1 -10   3    0.28    0.25
   1 -10   4    0.00    0.04
   1 -10   5    0.22    0.28
   1 -10   6    0.42    0.20
   1 -10   7   -0.06    0.12
   1 -10   8   -0.33    0.31
   1 -10   9    0.37    0.24
   1 -10  10    0.03    0.19
   1  -9  -2    0.49    0.34
   1  -9  -1    1.30    0.49
   1  -9   0    2.67    0.75
   1  -9   1    0.78    0.43
   1  -9   2    0.14    0.16
   1  -9   3    1.75    0.56
   1  -9   4    0.81    0.41
   1  -9   5    1.87    0.56
   1  -9   6    0.69    0.33
   1  -9   7    2.37    0.62
  -1   9  -8    1.77    0.38
   1  -9   8    1.23    0.47
  -1   9  -9    1.98    0.43
   1  -9   9    2.20    0.59
  -1   9 -10   -0.13    0.28
   1  -9  10    0.03    0.06
  -1   9 -11    0.80    0.25
  -1   9 -12   -0.21    0.28
  -1   9 -13   -0.06    0.23
   1  -8  -5    0.46    0.35
   1  -8  -4    2.40    0.68
   1  -8  -3    3.77    0.83
   1  -8  -2    1.62    0.53
   1  -8  -1   -0.02    0.15
   1  -8   0    1.65    0.54
   1  -8   1    0.78    0.38
   1  -8   2    4.99    0.89
   1  -8   3   -0.07    0.16
  -1   8  -4    1.24    0.23
   1  -8   4    1.42    0.46
   1  -8   5    0.32    0.21
  -1   8  -5    0.25    0.12
   1  -8   6   -0.04    0.14
  -1   8  -6   -0.33    0.14
   1  -8   7    0.89    0.32
  -1   8  -7    0.70    0.19
  -1   8  -8    0.01    0.11
   1  -8   8    0.14    0.06
   1  -8   9    0.51    0.26
  -1   8  -9    0.18    0.08
  -1   8 -10    1.00    0.29
   1  -8  10    1.25    0.42
  -1   8 -11    0.80    0.26
  -1   8 -12    0.65    0.26
  -1   8 -13    0.90    0.31
  -1   8 -14    0.08    0.19
   1  -7  -8    0.57    0.36
   1  -7  -7    1.91    0.60
   1  -7  -6    0.98    0.36
   1  -7  -5    2.36    0.61
   1  -7  -4   35.25    2.42
   1  -7  -3    9.62    1.20
   1  -7  -2    0.24    0.17
   1  -7  -1    0.14    0.14
   1  -7   0    1.36    0.44
   1  -7   1    0.94    0.34
   1  -7   2   17.98    1.58
  -1   7  -2   18.57    0.78
  -1   7  -3   12.92    0.72
   1  -7   3   11.06    0.68
   1  -7   3   11.08    1.21
  -1   7  -4    0.82    0.18
   1  -7   4    0.73    0.29
   1  -7   4    0.68    0.21
  -1   7  -5    2.54    0.34
   1  -7   5    2.63    0.57
   1  -7   5    1.72    0.36
  -1   7  -6    0.14    0.08
   1  -7   6    0.04    0.04
   1  -7   6    0.12    0.10
   1  -7   7    0.48    0.23
  -1   7  -7    0.74    0.20
   1  -7   7    0.62    0.23
  -1   7  -8    0.48    0.19
   1  -7   8    0.29    0.15
  -1   7  -8    0.75    0.22
   1  -7   8    0.56    0.22
   1  -7   9    3.77    0.66
  -1   7  -9    3.27    0.46
  -1   7  -9    4.48    0.57
  -1   7 -10    2.45    0.44
   1  -7  10    3.11    0.57
  -1   7 -11    0.41    0.15
  -1   7 -12   -0.20    0.14
  -1   7 -13    0.43    0.13
  -1   7 -14    0.27    0.05
   1  -6 -10    0.48    0.27
   1  -6  -9    1.61    0.54
   1  -6  -8    1.51    0.45
   1  -6  -7    0.82    0.35
   1  -6  -6    3.39    0.69
   1  -6  -5    1.48    0.43
   1  -6  -4    1.59    0.45
   1  -6  -3    8.93    1.04
   1  -6  -2    6.69    0.87
   1  -6  -1    0.21    0.19
   1  -6   0    1.09    0.34
   1  -6   1    1.52    0.40
  -1   6  -2   10.02    0.56
   1  -6   2   11.24    1.08
  -1   6  -2   10.20    0.80
  -1   6  -3    0.90    0.23
   1  -6   3    0.49    0.22
   1  -6   3    0.63    0.16
  -1   6  -3    0.80    0.16
  -1   6  -4   13.55    0.73
  -1   6  -4   12.63    0.90
   1  -6   4   12.48    1.13
   1  -6   4   13.27    0.86
  -1   6  -5    0.11    0.06
  -1   6  -5    0.32    0.14
   1  -6   5    0.20    0.15
   1  -6   5    0.10    0.09
  -1   6  -6    2.01    0.29
  -1   6  -6    2.08    0.35
   1  -6   6    2.03    0.36
   1  -6   6    2.34    0.46
  -1   6  -7    3.62    0.46
   1  -6   7    2.66    0.42
  -1   6  -7    4.39    0.46
   1  -6   7    3.28    0.54
   1  -6   8    3.98    0.56
   1  -6   8    4.51    0.63
  -1   6  -8    5.08    0.54
  -1   6  -8    4.22    0.49
   1  -6   9    0.86    0.27
  -1   6  -9    0.89    0.23
  -1   6 -10    2.08    0.40
  -1   6 -11    1.81    0.38
  -1   6 -12    5.74    0.75
  -1   6 -13    1.48    0.40
  -1   6 -14   -0.04    0.16
   1  -5 -12    5.09    0.93
   1  -5 -11    8.07    1.14
   1  -5 -10    3.84    0.77
   1  -5  -9    0.28    0.22
   1  -5  -8    1.42    0.43
   1  -5  -7    0.96    0.21
   1  -5  -7    1.36    0.41
   1  -5  -6   10.25    0.61
  -1   5   6    9.38    0.86
   1  -5  -6    9.90    1.06
  -1   5   5   31.18    1.49
   1  -5  -5   29.80    1.84
   1  -5  -4   37.12    2.04
   1  -5  -3    2.74    0.50
   1  -5  -2    0.06    0.07
  -1   5   2    0.06    0.06
  -1   5   1    1.79    0.28
   1  -5  -1    1.65    0.38
   1  -5   0    0.47    0.21
  -1   5   0    0.28    0.12
   1  -5   1    0.11    0.10
  -1   5  -1    0.05    0.03
  -1   5  -1    0.06    0.06
   1  -5   2   22.90    0.89
  -1   5  -2   20.76    0.85
   1  -5   2   24.20    1.43
  -1   5  -2   24.11    1.16
  -1   5  -3    6.46    0.44
   1  -5   3    7.13    0.48
   1  -5   3    6.30    0.70
   1  -5   4    0.55    0.20
  -1   5  -4    0.90    0.17
   1  -5   4    0.78    0.16
  -1   5  -5    1.88    0.25
   1  -5   5    1.55    0.34
   1  -5   5    2.00    0.28
   1  -5   6   10.19    0.87
  -1   5  -6   10.03    0.65
  -1   5  -6   10.14    0.72
   1  -5   6    9.91    0.71
   1  -5   7   14.63    1.05
  -1   5  -7   13.90    0.84
  -1   5  -7   16.39    0.89
   1  -5   7   13.38    0.88
  -1   5  -8    0.99    0.23
   1  -5   8    0.71    0.22
   1  -5   8    1.14    0.26
  -1   5  -8    0.91    0.19
  -1   5  -9    0.64    0.15
  -1   5  -9    0.53    0.19
  -1   5 -10   11.81    0.93
  -1   5 -10    9.99    0.62
  -1   5 -11    0.01    0.05
  -1   5 -11   -0.03    0.02
  -1   5 -12    0.22    0.09
  -1   5 -13    0.30    0.14
  -1   5 -14    0.33    0.16
  -1   5 -15   -0.62    0.30
   1  -4 -12    0.15    0.22
   1  -4 -11    4.85    0.80
   1  -4 -10    0.41    0.19
   1  -4 -10    0.20    0.16
   1  -4  -9    0.02    0.07
   1  -4  -9    0.09    0.15
   1  -4  -8    0.40    0.19
   1  -4  -8    0.38    0.17
  -1   4   8    0.10    0.10
   1  -4  -7    0.61    0.23
   1  -4  -7    0.46    0.16
   1  -4  -6    4.34    0.59
  -1   4   6    4.34    0.56
   1  -4  -6    4.98    0.48
   1  -4  -5    0.54    0.13
  -1   4   5    0.53    0.18
   1  -4  -5    0.44    0.16
   1  -4  -4    0.26    0.13
  -1   4   4    0.27    0.12
   1  -4  -4    0.32    0.09
   1  -4  -3   18.90    1.18
  -1   4   3   20.88    0.93
   1  -4  -2    1.36    0.29
   1  -4  -1    1.86    0.33
   1  -4   0    9.71    0.78
   1  -4   1   12.11    0.87
  -1   4  -1   12.24    0.55
   1  -4   1   11.64    0.44
   1  -4   2   36.43    1.11
  -1   4  -2   34.91    1.16
   1  -4   2   38.52    1.64
  -1   4  -2   38.38    1.40
  -1   4  -3  169.88    4.43
  -1   4  -3  176.04    4.19
   1  -4   3  171.56    4.13
  -1   4  -4    1.72    0.22
  -1   4  -4    1.99    0.27
   1  -4   4    1.94    0.21
   1  -4   4    2.07    0.33
   1  -4   5   19.87    1.09
  -1   4  -5   18.54    0.90
   1  -4   5   19.23    0.82
  -1   4  -5   19.66    0.88
  -1   4  -6    7.34    0.53
   1  -4   6    6.57    0.59
   1  -4   6    6.15    0.46
  -1   4  -6    6.00    0.46
   1  -4   7   -0.03    0.04
  -1   4  -7    0.02    0.02
   1  -4   7   -0.01    0.04
  -1   4  -7    0.00    0.05
  -1   4  -8    0.18    0.10
  -1   4  -8    0.12    0.07
   1  -4   8    0.14    0.05
  -1   4  -9   26.98    1.00
  -1   4  -9   29.22    1.43
  -1   4 -10    1.00    0.14
  -1   4 -10    1.56    0.33
  -1   4 -11   -0.02    0.04
  -1   4 -11    0.00    0.02
  -1   4 -12   20.75    1.45
  -1   4 -13    0.47    0.22
  -1   4 -14    1.42    0.42
  -1   4 -15   -0.16    0.28
   1  -3 -12    5.51    0.80
   1  -3 -12    4.14    0.69
   1  -3 -11    0.59    0.26
   1  -3 -11    0.17    0.14
   1  -3 -10   -0.29    0.16
   1  -3 -10    0.08    0.12
   1  -3  -9    0.24    0.12
  -1   3   9    0.03    0.09
   1  -3  -9    0.25    0.11
   1  -3  -8   -0.02    0.12
  -1   3   8    0.07    0.12
   1  -3  -7    3.93    0.51
   1  -3  -7    4.50    0.44
   1  -3  -6    0.17    0.09
   1  -3  -6    0.23    0.07
   1  -3  -5    0.22    0.11
  -1   3   5    0.14    0.05
   1  -3  -5    0.08    0.01
   1  -3  -4    6.96    0.37
   1  -3  -4    6.69    0.59
  -1   3   4    6.94    0.57
   1  -3  -3   20.36    1.03
   1  -3  -3   17.99    0.60
  -1   3   3   18.52    0.90
   1  -3  -2    4.67    0.45
  -1   3   2    4.76    0.36
   1  -3  -1   22.10    1.05
  -1   3   0   20.95    0.85
   1  -3   0   18.56    0.93
  -1   3  -1    0.35    0.10
   1  -3   1    0.44    0.13
  -1   3  -1    0.40    0.09
   1  -3   1    0.44    0.05
  -1   3  -2   27.51    1.01
   1  -3   2   27.63    0.72
  -1   3  -2   26.02    0.93
   1  -3   3   17.14    0.86
   1  -3   3   17.32    0.55
  -1   3  -3   17.08    0.74
  -1   3  -3   17.18    0.72
  -1   3  -4   16.43    0.71
   1  -3   4   16.13    0.56
  -1   3  -4   16.48    0.73
   1  -3   4   16.15    0.83
  -1   3  -5    5.62    0.43
   1  -3   5    6.95    0.36
  -1   3  -5    5.02    0.36
   1  -3   5    6.47    0.48
   1  -3   6   29.19    0.98
   1  -3   6   31.44    1.15
  -1   3  -6   28.55    0.96
   1  -3   7    3.26    0.30
  -1   3  -7    3.16    0.25
  -1   3  -7    3.08    0.37
  -1   3  -8    6.62    0.59
  -1   3  -8    5.47    0.31
   1  -3   8    5.58    0.44
  -1   3  -9    0.02    0.05
  -1   3 -10    5.05    0.61
  -1   3 -11    1.38    0.33
  -1   3 -12    3.91    0.61
  -1   3 -13   -0.04    0.12
  -1   3 -14    2.63    0.57
  -1   3 -15    0.80    0.31
   1  -2 -14    2.57    0.61
   1  -2 -13    2.37    0.48
   1  -2 -13    2.65    0.57
   1  -2 -12    0.29    0.12
   1  -2 -12    0.56    0.19
   1  -2 -11    1.27    0.30
   1  -2 -11    1.51    0.34
   1  -2 -10    0.82    0.21
   1  -2 -10    1.04    0.26
  -1   2   9    4.53    0.67
   1  -2  -9    4.26    0.47
   1  -2  -9    3.89    0.48
   1  -2  -8    1.27    0.22
   1  -2  -8    0.85    0.21
  -1   2   8    0.81    0.26
   1  -2  -7    2.59    0.34
   1  -2  -7    2.23    0.25
  -1   2   6    1.38    0.28
   1  -2  -6    1.22    0.23
   1  -2  -6    1.36    0.16
   1  -2  -5   20.31    0.95
   1  -2  -5   22.44    0.70
  -1   2   5   20.86    1.12
   1  -2  -4   68.97    1.61
   1  -2  -4   66.37    2.00
  -1   2   4   64.09    2.18
  -1   2   3    0.32    0.11
   1  -2  -3    0.38    0.05
   1  -2  -3    0.49    0.12
   1  -2  -2    0.49    0.11
   1  -2  -2    0.27    0.04
  -1   2   2    0.40    0.11
   1  -2  -1   35.80    1.15
   1  -2  -1   35.10    1.02
  -1   2   1   33.23    1.13
   1  -2   0   30.47    0.88
   1  -2   0   32.62    1.04
   1  -2   0   30.84    1.04
  -1   2   0   31.58    0.98
   1  -2   1  377.45    8.21
   1  -2   1  383.86    8.42
  -1   2  -1  377.31    8.43
  -1   2  -1  383.56    8.28
   1  -2   2  966.79   20.75
  -1   2  -2  955.07   20.62
   1  -2   2 1000.00   20.59
  -1   2  -2  952.66   20.83
  -1   2  -3  253.08    5.87
   1  -2   3  259.91    5.76
   1  -2   3  251.83    5.60
  -1   2  -3  255.47    5.60
  -1   2  -4   48.54    1.53
  -1   2  -4   47.51    1.22
   1  -2   4   47.87    1.36
   1  -2   4   48.56    1.26
  -1   2  -5    8.23    0.55
  -1   2  -5    7.85    0.32
  -1   2  -6    5.06    0.45
  -1   2  -7   38.19    1.55
  -1   2  -8   10.50    0.79
   1  -2   8   11.65    0.61
  -1   2  -9   13.19    0.97
  -1   2 -10    0.66    0.19
  -1   2 -11    0.32    0.13
  -1   2 -12    6.06    0.80
  -1   2 -13    0.63    0.21
  -1   2 -14    2.60    0.64
  -1   2 -15    0.20    0.22
   1  -1 -16    1.71    0.59
   1  -1 -15    0.17    0.15
   1  -1 -14    1.04    0.34
   1  -1 -13    0.88    0.25
   1  -1 -13    0.85    0.29
   1  -1 -12    3.01    0.44
   1  -1 -12    3.31    0.50
   1  -1 -11    1.01    0.24
   1  -1 -11    0.77    0.20
   1  -1 -10    0.05    0.07
   1  -1 -10    0.03    0.06
  -1   1   9    0.96    0.30
   1  -1  -9    1.10    0.20
   1  -1  -9    1.11    0.21
   1  -1  -8    4.49    0.40
  -1   1   8    4.13    0.59
   1  -1  -8    4.23    0.34
   1  -1  -7   17.43    0.67
  -1   1   6   17.22    1.06
   1  -1  -6   18.30    0.62
  -1   1   5   38.86    1.63
   1  -1  -5   42.19    1.12
   1  -1  -4    2.19    0.17
  -1   1   4    2.23    0.31
   1  -1  -3   70.63    1.88
  -1   1   3   74.17    2.27
  -1   1   2  111.69    2.99
   1  -1  -2  111.02    2.81
  -1   1   1   16.23    0.76
   1  -1  -1   16.30    0.71
   1  -1   0   14.48    0.64
  -1   1   0   15.30    0.71
   1  -1   0   14.37    0.69
   1  -1   1   10.01    0.51
  -1   1  -1    9.96    0.53
   1  -1   2    4.48    0.17
   1  -1   2    3.65    0.29
  -1   1  -2    3.54    0.32
  -1   1  -3   62.53    1.88
  -1   1  -4   69.56    2.08
  -1   1  -5   11.40    0.69
  -1   1  -6   17.59    0.94
  -1   1  -7   18.44    1.04
   1  -1   7   20.59    0.72
  -1   1  -8    8.98    0.41
  -1   1  -8   10.80    0.83
   1  -1   8   11.00    0.55
  -1   1  -9    3.93    0.27
  -1   1  -9    2.74    0.45
  -1   1 -10    0.97    0.28
  -1   1 -10    1.04    0.15
  -1   1 -11   -0.05    0.15
  -1   1 -11    0.07    0.03
  -1   1 -12    0.49    0.11
  -1   1 -12    0.55    0.24
  -1   1 -13    0.15    0.15
  -1   1 -14    0.47    0.30
  -1   1 -15    1.11    0.40
   1   0 -16   -0.45    0.26
   1   0 -15    0.01    0.14
   1   0 -14    0.65    0.23
   1   0 -13    1.30    0.32
   1   0 -13    1.49    0.28
   1   0 -12    0.06    0.07
   1   0 -12    0.06    0.04
   1   0 -11   10.82    0.68
   1   0 -11   11.19    0.77
   1   0 -10    0.70    0.16
   1   0  -9    1.77    0.22
  -1   0   9    2.14    0.45
  -1   0   8   20.75    1.34
   1   0  -8   23.35    0.84
   1   0  -7    0.40    0.08
  -1   0   6   62.75    2.32
   1   0  -6   62.84    1.66
  -1   0   5   92.98    2.94
   1   0  -5   95.29    2.38
   1   0  -4    0.09    0.04
  -1   0   4    0.09    0.06
   1   0  -3   36.02    1.25
  -1   0   3   35.96    1.42
   1   0  -2    1.50    0.21
   1   0  -1    6.85    0.49
   1   0   0    3.82    0.36
  -1   0  -1  305.82    7.08
   1   0   1  303.31    6.69
   1   0   2   38.16    1.04
  -1   0  -2   37.28    1.05
  -1   0  -2   36.78    1.36
   1   0   3    9.89    0.37
  -1   0  -3   10.32    0.63
  -1   0  -3    8.61    0.40
   1   0   3    9.76    0.53
   1   0   4    0.03    0.02
  -1   0  -4    0.08    0.07
  -1   0  -4   -0.01    0.01
   1   0   4    0.05    0.04
   1   0   5   56.98    1.57
  -1   0  -5   56.04    1.56
  -1   0  -5   56.23    1.99
  -1   0  -6   19.61    0.78
  -1   0  -6   18.42    1.06
  -1   0  -7    0.08    0.04
   1   0   7    0.20    0.07
  -1   0  -8    1.59    0.23
  -1   0  -8    1.27    0.30
   1   0   8    1.69    0.20
  -1   0  -9    1.85    0.39
  -1   0  -9    1.54    0.23
   1   0   9    1.67    0.23
  -1   0 -10    1.91    0.28
  -1   0 -10    1.56    0.38
  -1   0 -11    1.48    0.41
  -1   0 -11    0.82    0.19
  -1   0 -12    5.63    0.86
  -1   0 -12    5.12    0.51
  -1   0 -13    0.03    0.10
  -1   0 -14    1.32    0.48
  -1   0 -15    3.36    0.79
   1   1 -16    0.96    0.32
   1   1 -15    0.40    0.21
   1   1 -14    1.78    0.39
   1   1 -13   13.36    1.00
   1   1 -13   12.80    0.74
   1   1 -12    6.63    0.59
   1   1 -11    1.19    0.22
   1   1 -10    0.65    0.15
   1   1  -9   15.70    0.68
  -1  -1   9   12.52    1.13
   1   1  -8    0.43    0.09
  -1  -1   8    0.31    0.17
   1   1  -7    6.62    0.39
   1   1  -6   64.15    1.80
   1   1  -5   23.31    0.91
   1   1  -4   13.90    0.72
   1   1  -3    4.60    0.40
  -1  -1   2  142.52    3.80
   1   1  -2  136.51    3.63
  -1  -1   1   55.72    1.66
  -1  -1   1   51.92    1.82
   1   1  -1   51.08    1.75
   1   1   0   70.13    2.01
  -1  -1   0   69.93    2.18
  -1  -1   0   71.82    2.02
   1   1   0   69.16    2.17
  -1  -1  -1   43.11    1.57
   1   1   1   48.57    1.48
   1   1   1   44.75    1.56
  -1  -1  -1   45.26    1.45
  -1  -1  -2    8.82    0.66
   1   1   2   10.25    0.54
  -1  -1  -2   10.34    0.58
   1   1   2    9.40    0.59
  -1  -1  -3    5.04    0.41
  -1  -1  -3    5.72    0.52
   1   1   3    5.30    0.37
   1   1   3    5.71    0.43
   1   1   4    1.12    0.17
  -1  -1  -4    1.31    0.26
  -1  -1  -4    0.85    0.17
   1   1   4    0.99    0.15
   1   1   5    0.47    0.10
   1   1   5    0.32    0.08
  -1  -1  -5    0.47    0.13
  -1  -1  -5    0.44    0.15
  -1  -1  -6    0.53    0.15
  -1  -1  -6    0.46    0.17
  -1  -1  -7    6.33    0.68
  -1  -1  -7    6.68    0.57
   1   1   8  133.67    3.18
  -1  -1  -8  121.47    3.64
  -1  -1  -8  126.54    4.16
   1   1   9   44.36    1.48
  -1  -1  -9   45.42    1.84
  -1  -1  -9   47.58    2.30
  -1  -1 -10   18.50    1.43
  -1  -1 -10   16.89    1.07
  -1  -1 -11    2.24    0.39
  -1  -1 -11    2.39    0.53
  -1  -1 -12    3.49    0.50
  -1  -1 -12    2.56    0.58
  -1  -1 -13    0.11    0.10
  -1  -1 -14    2.53    0.66
  -1  -1 -15    3.31    0.84
   1   2 -16    0.05    0.09
   1   2 -15    0.71    0.25
   1   2 -14    0.10    0.08
   1   2 -13    1.43    0.30
   1   2 -12    0.16    0.10
   1   2 -11    0.18    0.10
   1   2 -10    0.18    0.07
  -1  -2   9    3.93    0.62
   1   2  -9    4.41    0.34
   1   2  -8    0.08    0.05
  -1  -2   8    0.07    0.09
   1   2  -7    0.30    0.09
   1   2  -6    4.09    0.47
   1   2  -6    4.68    0.37
   1   2  -5    9.60    0.72
  -1  -2   5    8.74    0.77
   1   2  -5    8.49    0.54
  -1  -2   4   11.69    0.86
   1   2  -4   12.42    0.81
   1   2  -4   10.67    0.65
   1   2  -3    7.94    0.55
  -1  -2   3    5.38    0.50
  -1  -2   3    6.50    0.61
   1   2  -3    8.46    0.63
   1   2  -2    0.34    0.11
  -1  -2   2    0.67    0.16
  -1  -2   2    0.40    0.14
   1   2  -2    0.43    0.14
  -1  -2   1   24.51    1.19
  -1  -2   1   23.92    1.10
   1   2  -1   24.13    1.10
  -1  -2   0  173.31    4.47
  -1  -2   0  172.86    4.50
   1   2   0  169.24    4.48
   1   2   0  170.47    4.45
   1   2   1    1.77    0.29
   1   2   1    1.42    0.24
  -1  -2  -1    1.30    0.24
   1   2   1    1.15    0.22
  -1  -2  -2   45.15    1.71
   1   2   2   43.86    1.57
  -1  -2  -2   45.65    1.78
   1   2   2   45.42    1.62
  -1  -2  -3    4.44    0.52
   1   2   3    4.41    0.41
  -1  -2  -3    4.01    0.44
   1   2   3    3.42    0.33
   1   2   4    4.55    0.40
  -1  -2  -4    5.39    0.59
  -1  -2  -4    5.04    0.52
   1   2   4    4.96    0.37
  -1  -2  -5    3.81    0.50
   1   2   5    3.40    0.33
  -1  -2  -5    3.06    0.41
   1   2   5    3.67    0.28
  -1  -2  -6    5.81    0.59
  -1  -2  -6    6.91    0.73
  -1  -2  -7    1.64    0.37
  -1  -2  -7    0.89    0.25
  -1  -2  -8    3.03    0.54
  -1  -2  -8    3.87    0.53
   1   2   8    4.43    0.32
  -1  -2  -9    0.51    0.24
   1   2   9    0.65    0.14
  -1  -2  -9    0.85    0.25
  -1  -2 -10    4.48    0.75
  -1  -2 -10    5.61    0.70
  -1  -2 -11    1.36    0.45
  -1  -2 -11    1.70    0.39
  -1  -2 -12   -0.01    0.22
  -1  -2 -13    1.06    0.40
  -1  -2 -14   -0.11    0.20
   1   3 -15    0.31    0.17
   1   3 -14   11.80    0.93
   1   3 -13    9.43    0.73
   1   3 -12    0.26    0.12
   1   3 -11    1.54    0.22
   1   3 -11    1.22    0.32
   1   3 -10    0.02    0.03
   1   3 -10    0.01    0.02
   1   3  -9    1.27    0.18
   1   3  -9    1.89    0.37
  -1  -3   8   12.59    1.14
   1   3  -8   12.63    0.62
   1   3  -8   12.44    0.99
   1   3  -7    0.05    0.10
   1   3  -7    0.05    0.02
  -1  -3   7    0.06    0.08
   1   3  -6    1.41    0.30
  -1  -3   6    1.42    0.35
   1   3  -6    1.11    0.18
  -1  -3   5    1.82    0.37
   1   3  -5    1.84    0.34
   1   3  -5    1.36    0.21
   1   3  -4    4.74    0.54
  -1  -3   4    4.79    0.58
   1   3  -4    4.64    0.42
  -1  -3   4    4.47    0.51
  -1  -3   3   51.33    2.02
   1   3  -3   53.04    2.06
   1   3  -3   53.97    1.79
  -1  -3   3   50.37    2.09
  -1  -3   2   23.16    1.24
   1   3  -2   23.66    1.26
  -1  -3   2   24.34    1.28
   1   3  -2   23.89    1.08
  -1  -3   1    0.56    0.18
  -1  -3   1    0.35    0.13
   1   3  -1    0.17    0.08
   1   3   0   51.20    1.84
  -1  -3   0   50.13    2.00
   1   3   0   47.40    1.88
   1   3   1  124.33    3.68
   1   3   1  123.95    3.66
   1   3   1  128.71    3.57
  -1  -3  -1  127.73    3.83
   1   3   2   34.20    1.59
  -1  -3  -2   31.46    1.56
   1   3   2   30.27    1.26
   1   3   2   31.56    1.40
  -1  -3  -3    0.16    0.07
  -1  -3  -3    0.24    0.11
   1   3   3    0.03    0.03
  -1  -3  -4    0.69    0.23
   1   3   4    0.67    0.18
   1   3   4    0.79    0.14
  -1  -3  -4    0.83    0.24
  -1  -3  -5    2.27    0.44
   1   3   5    1.69    0.27
   1   3   5    1.72    0.18
  -1  -3  -5    2.07    0.40
   1   3   6    2.84    0.34
  -1  -3  -6    3.42    0.56
  -1  -3  -6    2.63    0.46
   1   3   6    2.55    0.21
  -1  -3  -7   26.73    1.62
  -1  -3  -7   26.18    1.70
  -1  -3  -8   93.15    3.51
  -1  -3  -8   94.89    3.70
   1   3   8   88.93    2.41
   1   3   9   -0.04    0.05
  -1  -3  -9   -0.09    0.12
  -1  -3  -9    0.02    0.06
  -1  -3 -10   -0.05    0.08
  -1  -3 -10   -0.02    0.12
  -1  -3 -11    0.82    0.29
  -1  -3 -11    0.63    0.28
  -1  -3 -12    2.02    0.56
   1   4 -15    0.45    0.22
   1   4 -14    1.42    0.30
   1   4 -13    0.23    0.13
   1   4 -12    0.61    0.15
   1   4 -11    0.75    0.16
   1   4 -10    3.89    0.34
   1   4  -9    0.79    0.15
  -1  -4   8    1.17    0.37
   1   4  -8    1.31    0.19
   1   4  -7    1.03    0.17
  -1  -4   7    1.22    0.34
  -1  -4   6   11.79    0.96
  -1  -4   6   12.42    1.11
   1   4  -6   11.02    0.63
   1   4  -5    4.96    0.42
  -1  -4   5    5.30    0.69
  -1  -4   5    5.85    0.67
  -1  -4   4    2.65    0.46
  -1  -4   4    2.65    0.44
   1   4  -4    3.05    0.33
  -1  -4   3    0.33    0.14
  -1  -4   3    0.67    0.21
   1   4  -3    0.61    0.15
  -1  -4   2    0.56    0.20
  -1  -4   2    0.44    0.19
   1   4  -2    0.47    0.13
  -1  -4   1    0.18    0.08
   1   4  -1    0.32    0.12
  -1  -4   1    0.38    0.18
  -1  -4   0   23.48    1.42
   1   4   0   21.04    1.05
   1   4   1    0.22    0.11
  -1  -4  -1    0.42    0.20
   1   4   1    0.29    0.14
   1   4   1    0.18    0.09
   1   4   2   47.12    1.92
   1   4   2   45.55    1.56
   1   4   2   47.56    1.98
   1   4   3   23.05    1.26
  -1  -4  -3   22.46    1.48
   1   4   3   21.94    0.89
   1   4   3   23.62    1.39
  -1  -4  -4    3.80    0.60
   1   4   4    3.76    0.46
   1   4   4    3.90    0.28
  -1  -4  -5    2.51    0.50
   1   4   5    3.27    0.23
   1   4   5    3.03    0.42
  -1  -4  -5    2.46    0.45
  -1  -4  -6    0.08    0.09
   1   4   6    0.05    0.03
  -1  -4  -6   -0.02    0.06
  -1  -4  -7    0.51    0.24
  -1  -4  -7    0.63    0.25
  -1  -4  -8    6.36    0.87
  -1  -4  -8    7.56    0.95
   1   4   8    5.33    0.42
  -1  -4  -9    0.05    0.16
  -1  -4  -9    0.32    0.28
  -1  -4 -10    5.29    0.89
  -1  -4 -10    4.02    0.74
  -1  -4 -11    0.62    0.31
   1   5 -15    3.72    0.55
   1   5 -14    3.81    0.50
   1   5 -13    0.26    0.15
   1   5 -12    2.65    0.53
   1   5 -12    3.53    0.39
   1   5 -11    2.95    0.54
   1   5 -11    3.38    0.34
   1   5 -10    0.82    0.16
   1   5 -10    0.61    0.25
   1   5  -9    0.02    0.03
   1   5  -9   -0.02    0.10
   1   5  -8    3.32    0.31
   1   5  -8    3.02    0.54
  -1  -5   8    2.82    0.61
   1   5  -7    1.40    0.20
  -1  -5   7    1.01    0.31
  -1  -5   7    1.22    0.37
   1   5  -7    1.49    0.37
  -1  -5   6    2.22    0.45
   1   5  -6    2.81    0.50
   1   5  -6    2.27    0.27
  -1  -5   6    2.58    0.53
   1   5  -5    0.58    0.14
  -1  -5   5    0.81    0.29
  -1  -5   5    0.96    0.30
   1   5  -5    0.73    0.26
  -1  -5   4    1.22    0.32
   1   5  -4    1.37    0.34
  -1  -5   4    1.83    0.41
   1   5  -4    1.21    0.20
  -1  -5   3    0.72    0.25
   1   5  -3    0.81    0.16
  -1  -5   3    0.79    0.28
   1   5  -3    0.83    0.27
   1   5  -2   12.76    0.67
  -1  -5   2   12.07    1.08
   1   5  -2   10.67    0.96
  -1  -5   2   12.02    0.94
  -1  -5   1    1.77    0.41
   1   5  -1    1.86    0.25
   1   5  -1    1.79    0.38
  -1  -5   0    0.36    0.20
   1   5   0    0.46    0.17
   1   5   0    0.42    0.12
   1   5   0    0.48    0.19
   1   5   1   15.74    0.85
  -1  -5  -1   14.43    1.24
   1   5   1   13.85    1.05
   1   5   1   13.16    0.81
   1   5   2   20.06    0.85
   1   5   2   18.62    1.12
  -1  -5  -2   19.17    1.48
   1   5   3    3.17    0.48
  -1  -5  -3    3.78    0.65
   1   5   3    3.04    0.24
   1   5   4   11.13    0.97
   1   5   4   12.20    0.45
  -1  -5  -4   10.45    1.13
   1   5   5    0.15    0.13
  -1  -5  -5    0.18    0.14
   1   5   5    0.30    0.06
  -1  -5  -6    1.49    0.44
   1   5   6    1.77    0.18
  -1  -5  -7    0.03    0.08
  -1  -5  -8   -0.04    0.06
  -1  -5  -9    7.18    1.06
  -1  -5 -10    5.28    0.94
   1   6 -15    0.10    0.13
   1   6 -14    5.17    0.59
   1   6 -13   19.90    1.11
   1   6 -12    2.14    0.30
   1   6 -11    0.54    0.15
   1   6 -11    0.38    0.20
   1   6 -10    0.10    0.13
   1   6 -10    0.45    0.12
   1   6  -9    2.93    0.29
   1   6  -9    2.59    0.53
  -1  -6   8   18.69    1.72
  -1  -6   8   21.61    1.63
   1   6  -8   20.01    1.53
   1   6  -8   23.28    0.91
   1   6  -7   32.40    1.95
  -1  -6   7   35.10    2.10
  -1  -6   7   32.67    2.23
   1   6  -7   32.93    1.16
  -1  -6   6   10.61    1.17
   1   6  -6   10.66    0.59
   1   6  -6    9.23    0.99
  -1  -6   6   11.48    1.15
   1   6  -5    2.44    0.27
  -1  -6   5    2.21    0.49
  -1  -6   5    3.02    0.59
  -1  -6   4    3.03    0.56
  -1  -6   4    3.09    0.58
   1   6  -4    3.08    0.31
  -1  -6   3    0.63    0.24
   1   6  -3    1.17    0.18
  -1  -6   3    1.09    0.31
  -1  -6   2    0.06    0.07
  -1  -6   2    0.06    0.08
   1   6  -2   -0.03    0.07
  -1  -6   1    0.59    0.27
   1   6  -1    0.70    0.12
  -1  -6   0    9.26    1.09
   1   6   0   11.90    0.82
   1   6   0    9.79    0.48
  -1  -6  -1    0.80    0.33
   1   6   1    1.34    0.19
   1   6   1    0.98    0.15
  -1  -6  -2    2.50    0.56
   1   6   2    2.30    0.18
   1   6   2    2.05    0.26
   1   6   3   12.07    0.83
   1   6   3   11.55    0.37
  -1  -6  -3   12.64    1.33
   1   6   4    6.46    0.70
  -1  -6  -4    6.38    0.98
  -1  -6  -5    0.42    0.27
  -1  -6  -6    1.41    0.50
  -1  -6  -7    1.10    0.43
  -1  -6  -8    3.32    0.81
  -1  -6  -9    0.67    0.40
  -1  -6 -10    0.45    0.30
   1   7 -14    0.37    0.17
   1   7 -13    5.21    0.56
   1   7 -12    0.14    0.11
   1   7 -11    2.66    0.33
   1   7 -10    1.01    0.19
   1   7  -9    1.70    0.23
   1   7  -8    4.14    0.34
  -1  -7   8    4.27    0.76
  -1  -7   7    0.02    0.15
  -1  -7   7    0.08    0.06
   1   7  -7    0.07    0.07
  -1  -7   6    0.13    0.15
   1   7  -6    0.08    0.06
  -1  -7   6    0.13    0.16
  -1  -7   5    1.55    0.45
  -1  -7   5    1.70    0.48
   1   7  -5    2.12    0.23
  -1  -7   4    0.15    0.16
  -1  -7   4    0.01    0.13
   1   7  -4    0.04    0.03
  -1  -7   3    0.91    0.27
  -1  -7   3    0.92    0.37
   1   7  -3    0.89    0.14
  -1  -7   2    0.15    0.20
   1   7  -2    0.35    0.08
   1   7  -1    0.01    0.05
   1   7  -1    0.02    0.01
  -1  -7   1    0.00    0.06
  -1  -7   0    1.50    0.48
   1   7   0    1.84    0.24
   1   7   0    1.82    0.14
  -1  -7  -1   -0.12    0.14
  -1  -7  -2    4.44    0.84
  -1  -7  -3    0.99    0.41
  -1  -7  -4    0.72    0.35
  -1  -7  -5    3.67    0.82
  -1  -7  -6   -0.02    0.06
  -1  -7  -7    2.54    0.72
  -1  -7  -8    0.61    0.35
   1   8 -14    6.18    0.71
   1   8 -13    1.75    0.34
   1   8 -12    2.81    0.39
   1   8 -11    0.18    0.12
   1   8 -10    3.68    0.38
   1   8  -9    1.92    0.27
  -1  -8   9    1.18    0.43
  -1  -8   8    2.21    0.58
   1   8  -8    3.14    0.31
  -1  -8   7    1.04    0.38
   1   8  -7    1.20    0.18
   1   8  -6    0.03    0.04
  -1  -8   6   -0.09    0.17
   1   8  -5    4.09    0.29
  -1  -8   5    3.41    0.72
  -1  -8   4    0.72    0.34
   1   8  -4    1.34    0.15
  -1  -8   3    1.04    0.42
   1   8  -3    1.55    0.15
  -1  -8   2    2.96    0.71
  -1  -8   1    0.20    0.19
  -1  -8   0    0.87    0.41
  -1  -8  -1    0.61    0.37
  -1  -8  -2    1.70    0.58
  -1  -8  -3    0.69    0.37
  -1  -8  -4    2.06    0.65
  -1  -8  -5    4.50    0.99
   1   9 -13    0.26    0.15
   1   9 -12    4.95    0.58
   1   9 -11    1.24    0.28
   1   9 -10    0.07    0.09
  -1  -9   9    0.38    0.28
   1   9  -9    0.31    0.14
  -1  -9   8    0.82    0.36
   1   9  -8    0.95    0.19
   1   9  -7    3.59    0.35
  -1  -9   7    3.05    0.76
  -1  -9   6    4.01    0.87
  -1  -9   5    0.05    0.07
  -1  -9   4    0.12    0.20
  -1  -9   3    0.00    0.21
  -1  -9   2    0.63    0.36
  -1  -9   1    4.91    0.99
  -1  -9   0    2.20    0.68
  -1  -9  -1    0.40    0.32
  -1 -10  10   -0.27    0.24
  -1 -10   9    2.09    0.67
  -1 -10   8    2.29    0.71
  -1 -10   7    1.39    0.52
  -1 -10   6    1.03    0.46
  -1 -10   5    0.80    0.46
   2 -10   2    0.19    0.08
   2 -10   3    0.30    0.29
   2 -10   4    0.75    0.43
   2 -10   5    0.09    0.20
   2 -10   6    1.82    0.60
   2 -10   7   -0.02    0.10
   2 -10   8    0.07    0.15
   2 -10   9    1.10    0.39
   2  -9  -2    7.76    1.26
   2  -9  -1    8.53    1.30
   2  -9   0    0.21    0.29
   2  -9   1   -0.12    0.23
   2  -9   2   -0.53    0.31
   2  -9   3    4.04    0.87
   2  -9   4    6.02    1.05
   2  -9   5    2.46    0.65
   2  -9   6    0.93    0.42
   2  -9   7   -0.34    0.23
   2  -9   8   -0.17    0.16
  -2   9  -9    0.30    0.08
   2  -9   9    0.04    0.17
   2  -9  10    0.49    0.23
  -2   9 -10    0.25    0.21
  -2   9 -11   -0.02    0.18
  -2   9 -12    0.18    0.16
  -2   9 -13    1.48    0.51
   2  -8  -5    0.11    0.10
   2  -8  -4    2.07    0.60
   2  -8  -3    0.36    0.27
   2  -8  -2    3.01    0.69
   2  -8  -1   10.39    1.29
   2  -8   0    0.02    0.14
   2  -8   1    0.15    0.16
   2  -8   2    1.25    0.43
   2  -8   3    1.89    0.53
  -2   8  -4    4.37    0.56
   2  -8   4    4.35    0.80
   2  -8   5    0.80    0.33
  -2   8  -5    0.36    0.15
   2  -8   6    1.44    0.45
  -2   8  -6    2.61    0.48
   2  -8   7    1.41    0.44
  -2   8  -7    1.34    0.35
   2  -8   8   -0.01    0.12
  -2   8  -8    0.05    0.10
   2  -8   9    1.07    0.35
  -2   8  -9    0.92    0.33
   2  -8  10    0.11    0.15
  -2   8 -10    0.18    0.17
  -2   8 -11    1.32    0.44
  -2   8 -12    0.41    0.31
  -2   8 -13    0.37    0.24
   2  -7  -8    2.29    0.65
   2  -7  -7    0.13    0.22
   2  -7  -6    0.66    0.32
   2  -7  -5    0.13    0.20
   2  -7  -4   10.12    1.24
   2  -7  -3   13.19    1.38
   2  -7  -2    5.97    0.91
   2  -7  -1    1.05    0.37
   2  -7   0    2.04    0.51
   2  -7   1    0.32    0.20
   2  -7   2    0.07    0.05
   2  -7   3    1.32    0.24
   2  -7   3    1.43    0.22
  -2   7  -3    1.45    0.29
   2  -7   3    2.00    0.48
   2  -7   4    1.72    0.44
   2  -7   4    1.70    0.27
  -2   7  -4    1.63    0.32
  -2   7  -5    7.70    0.75
   2  -7   5    7.92    0.96
   2  -7   5    5.66    0.54
  -2   7  -6    6.71    0.73
   2  -7   6    5.13    0.75
   2  -7   6    4.96    0.54
  -2   7  -7    0.51    0.20
  -2   7  -7    0.67    0.19
   2  -7   7    0.55    0.27
   2  -7   7    0.59    0.20
   2  -7   8    3.61    0.60
  -2   7  -8    3.20    0.56
  -2   7  -8    2.88    0.36
  -2   7  -9    0.44    0.20
  -2   7  -9    0.41    0.14
   2  -7   9    0.05    0.07
   2  -7  10    0.21    0.15
  -2   7 -10    0.34    0.24
  -2   7 -11    2.04    0.52
  -2   7 -12    0.52    0.26
  -2   7 -13    0.32    0.25
  -2   7 -14    1.08    0.42
   2  -6 -10    0.06    0.08
   2  -6  -9    0.21    0.23
   2  -6  -8    0.16    0.12
   2  -6  -7    0.58    0.29
   2  -6  -6    0.33    0.23
   2  -6  -5    0.22    0.13
   2  -6  -4    7.52    0.93
   2  -6  -3    0.07    0.08
   2  -6  -2    2.66    0.53
   2  -6  -1    2.58    0.52
   2  -6   0    2.21    0.47
   2  -6   1    4.45    0.66
  -2   6  -2    9.06    0.70
   2  -6   2    7.14    0.84
   2  -6   2    8.22    0.43
   2  -6   2    7.28    0.57
  -2   6  -3    0.39    0.15
  -2   6  -3    0.38    0.13
  -2   6  -4    9.76    0.80
   2  -6   4   11.16    1.02
   2  -6   4   10.70    0.63
  -2   6  -4   10.27    0.70
  -2   6  -5   39.83    1.81
   2  -6   5   37.72    2.01
   2  -6   5   38.77    1.44
  -2   6  -5   39.69    1.51
   2  -6   6    4.99    0.65
   2  -6   6    5.39    0.48
  -2   6  -6    4.40    0.57
  -2   6  -6    5.06    0.46
  -2   6  -7    2.84    0.49
   2  -6   7    2.50    0.45
   2  -6   7    2.57    0.35
   2  -6   8    3.02    0.49
  -2   6  -8    4.00    0.59
   2  -6   9    1.10    0.29
  -2   6  -9    1.32    0.37
  -2   6 -10    2.96    0.57
  -2   6 -11    8.00    1.00
  -2   6 -12    6.51    0.95
  -2   6 -13    3.19    0.70
  -2   6 -14    0.77    0.35
   2  -5 -12    1.43    0.51
   2  -5 -11    1.70    0.50
   2  -5 -10    0.38    0.24
   2  -5  -9    6.21    0.90
   2  -5  -8    0.32    0.18
   2  -5  -7    1.63    0.24
   2  -5  -7    1.59    0.40
  -2   5   6    0.33    0.14
   2  -5  -6    0.41    0.10
   2  -5  -6    0.46    0.22
  -2   5   5    1.03    0.28
   2  -5  -5    1.26    0.33
   2  -5  -4    0.36    0.17
  -2   5   4    0.02    0.06
   2  -5  -3    1.96    0.40
   2  -5  -2    3.05    0.48
   2  -5  -1    0.10    0.04
   2  -5   0   11.68    0.94
   2  -5   1    3.50    0.50
   2  -5   1    3.70    0.40
   2  -5   1    3.94    0.22
  -2   5  -2    0.65    0.18
   2  -5   2    0.84    0.26
   2  -5   2    0.63    0.09
  -2   5  -3    0.03    0.02
   2  -5   3    0.07    0.04
   2  -5   3    0.08    0.09
  -2   5  -4    3.56    0.45
   2  -5   4    3.54    0.49
   2  -5   4    3.94    0.27
  -2   5  -5   26.34    1.40
   2  -5   5   26.57    1.44
   2  -5   5   28.71    0.96
   2  -5   6    8.07    0.74
  -2   5  -6    9.02    0.80
  -2   5  -6    8.52    0.52
   2  -5   6    9.36    0.52
  -2   5  -7    1.65    0.36
   2  -5   7    1.56    0.30
   2  -5   7    1.48    0.21
  -2   5  -8    2.12    0.42
   2  -5   8    1.95    0.33
  -2   5  -9    4.01    0.60
  -2   5 -10    0.30    0.11
  -2   5 -11    2.34    0.54
  -2   5 -12    0.35    0.19
  -2   5 -13    1.23    0.40
  -2   5 -14    0.22    0.18
   2  -4 -13   -0.08    0.16
   2  -4 -12    1.32    0.42
   2  -4 -11    0.31    0.15
   2  -4 -10    1.51    0.35
   2  -4 -10    0.63    0.23
   2  -4  -9   -0.01    0.10
   2  -4  -9   -0.05    0.10
   2  -4  -8    0.37    0.15
   2  -4  -8    0.36    0.10
  -2   4   8    0.70    0.28
   2  -4  -7    0.33    0.17
   2  -4  -7    0.34    0.10
   2  -4  -6    0.68    0.22
   2  -4  -6    0.52    0.11
  -2   4   6    0.58    0.26
  -2   4   5    7.75    0.84
   2  -4  -5    7.04    0.70
   2  -4  -5    8.38    0.40
  -2   4   4   15.83    1.09
   2  -4  -4   13.74    0.97
   2  -4  -4   16.40    0.52
   2  -4  -3    9.61    0.49
   2  -4  -3   12.19    0.85
   2  -4  -3   10.45    0.31
  -2   4   3   12.01    0.81
  -2   4   2   46.11    1.63
   2  -4  -2   41.80    1.75
   2  -4  -1   16.71    0.97
   2  -4  -1   14.95    0.46
   2  -4  -1   16.06    0.66
   2  -4   0    2.52    0.32
   2  -4   0    2.76    0.37
   2  -4   0    2.11    0.15
  -2   4  -1   57.25    2.02
   2  -4   1   59.68    2.08
   2  -4   1   57.52    1.43
   2  -4   1   55.61    2.07
  -2   4  -2    2.77    0.38
   2  -4   2    3.35    0.41
   2  -4   2    3.42    0.22
   2  -4   3  130.46    3.62
   2  -4   3  129.44    2.97
  -2   4  -4  174.27    4.55
   2  -4   4  178.29    4.41
  -2   4  -5   55.74    2.24
   2  -4   5   53.72    2.01
   2  -4   6    4.06    0.43
   2  -4   6    4.86    0.32
   2  -4   7    0.24    0.09
  -2   4  -7    0.35    0.17
   2  -4   7    0.26    0.10
  -2   4  -8    0.16    0.12
  -2   4  -9   22.19    1.51
  -2   4 -10    5.59    0.76
  -2   4 -11    3.51    0.65
  -2   4 -12    3.86    0.72
  -2   4 -13    0.88    0.35
  -2   4 -14   -0.02    0.13
  -2   4 -15    2.19    0.66
   2  -3 -13    5.41    0.79
   2  -3 -12   24.08    1.53
   2  -3 -12   18.60    1.48
   2  -3 -11    1.94    0.37
   2  -3 -11    2.18    0.46
   2  -3 -10    0.06    0.06
   2  -3 -10    0.07    0.05
   2  -3  -9    6.76    0.72
   2  -3  -9    7.96    0.59
  -2   3   9    5.89    0.92
   2  -3  -8    2.56    0.41
   2  -3  -8    2.29    0.26
  -2   3   8    2.04    0.52
   2  -3  -7    4.90    0.54
   2  -3  -7    5.17    0.33
   2  -3  -6    0.31    0.07
   2  -3  -6    0.20    0.10
  -2   3   6    0.40    0.21
   2  -3  -5   12.17    0.44
  -2   3   5   12.19    1.06
   2  -3  -5   13.16    0.81
   2  -3  -4    6.25    0.52
   2  -3  -4    6.07    0.29
  -2   3   4    5.48    0.65
   2  -3  -3   33.69    1.17
  -2   3   3   35.65    1.65
   2  -3  -3   35.27    1.35
  -2   3   2   -0.01    0.04
   2  -3  -2    0.09    0.06
   2  -3  -2    0.06    0.03
   2  -3  -1   35.01    1.25
  -2   3   1   30.95    1.38
   2  -3  -1   33.68    1.23
   2  -3  -1   31.42    1.30
   2  -3   0    0.38    0.11
   2  -3   0    0.46    0.16
   2  -3   0    0.47    0.12
  -2   3  -1    8.72    0.68
   2  -3   1    8.94    0.54
   2  -3   1    8.72    0.53
   2  -3   1    8.66    0.74
   2  -3   2    3.17    0.30
   2  -3   2    3.44    0.32
  -2   3  -2    3.39    0.42
  -2   3  -3   15.77    0.98
   2  -3   3   16.35    0.77
   2  -3   3   17.98    0.77
   2  -3   4    0.11    0.07
  -2   3  -4    0.13    0.10
   2  -3   4    0.15    0.07
   2  -3   5   44.62    1.42
   2  -3   5   45.27    1.37
  -2   3  -5   42.39    1.84
  -2   3  -6   10.66    0.87
   2  -3   6   11.60    0.56
   2  -3   6   10.26    0.53
   2  -3   7    9.24    0.50
  -2   3  -7    7.73    0.78
  -2   3  -8    0.51    0.22
   2  -3   8    0.42    0.10
  -2   3  -9    6.66    0.80
  -2   3 -10    3.57    0.61
  -2   3 -11    0.61    0.27
  -2   3 -12    4.41    0.78
  -2   3 -13    0.12    0.14
  -2   3 -14    0.31    0.20
  -2   3 -15   -0.09    0.14
   2  -2 -14    5.49    0.77
   2  -2 -13    3.99    0.60
   2  -2 -13    3.40    0.55
   2  -2 -12    0.38    0.18
   2  -2 -12    0.30    0.14
   2  -2 -11    5.25    0.61
   2  -2 -11    5.56    0.54
   2  -2 -10    0.43    0.17
   2  -2 -10    0.53    0.15
   2  -2  -9    2.27    0.35
   2  -2  -9    2.18    0.25
  -2   2   9    2.41    0.55
   2  -2  -8    2.05    0.21
   2  -2  -8    2.34    0.33
  -2   2   8    1.89    0.48
   2  -2  -7    2.62    0.33
   2  -2  -7    2.71    0.22
  -2   2   6    0.04    0.09
   2  -2  -6    0.02    0.01
   2  -2  -5    0.93    0.14
  -2   2   5    0.84    0.26
   2  -2  -4  129.95    3.37
  -2   2   4  119.74    4.02
   2  -2  -3   48.66    1.74
  -2   2   3   56.19    2.22
  -2   2   2   26.38    1.36
   2  -2  -2   27.28    1.22
  -2   2   1    5.50    0.54
   2  -2  -1    6.27    0.58
   2  -2   0    3.45    0.39
   2  -2   0    3.40    0.45
  -2   2  -1    6.24    0.58
   2  -2   1    5.75    0.50
  -2   2  -2   66.36    2.33
   2  -2   2   65.11    2.12
  -2   2  -3    2.49    0.37
   2  -2   3    2.82    0.33
   2  -2   3    2.89    0.20
  -2   2  -4    5.40    0.57
   2  -2   4    4.90    0.27
   2  -2   4    5.08    0.44
   2  -2   5    0.31    0.11
  -2   2  -5    0.32    0.14
  -2   2  -6    0.05    0.01
  -2   2  -7    2.48    0.44
   2  -2   7    2.71    0.27
  -2   2  -8    1.54    0.37
   2  -2   8    1.63    0.21
  -2   2  -9    0.68    0.27
  -2   2 -10    0.15    0.14
  -2   2 -11    3.88    0.70
  -2   2 -12    7.81    1.06
  -2   2 -13    0.11    0.07
  -2   2 -14    0.13    0.22
  -2   2 -15    2.80    0.74
   2  -1 -16    1.76    0.41
   2  -1 -15   -0.04    0.08
   2  -1 -14    0.16    0.14
   2  -1 -13    2.62    0.43
   2  -1 -13    3.66    0.51
   2  -1 -12    7.50    0.69
   2  -1 -12    7.93    0.64
   2  -1 -11   66.04    2.25
   2  -1 -11   61.62    2.01
   2  -1 -10    0.87    0.17
   2  -1  -9    0.31    0.09
  -2   1   9    0.24    0.17
  -2   1   8    2.63    0.56
   2  -1  -8    3.24    0.27
   2  -1  -7   48.52    1.47
  -2   1   7   50.14    2.50
   2  -1  -6    0.32    0.09
  -2   1   5   16.48    1.23
   2  -1  -5   15.81    0.87
   2  -1  -4   16.46    0.93
  -2   1   4   15.93    1.17
  -2   1   3   27.40    1.50
   2  -1  -3   25.36    1.24
  -2   1   2   30.61    1.55
   2  -1  -2   31.68    1.45
  -2   1   1   40.37    1.73
   2  -1  -1   41.77    1.79
   2  -1   0   36.40    1.56
   2  -1   0   39.11    1.74
  -2   1   0   40.05    1.72
   2  -1   1    2.32    0.34
  -2   1  -1    2.71    0.39
   2  -1   2    7.89    0.64
  -2   1  -2    8.06    0.72
  -2   1  -3    8.77    0.75
  -2   1  -4    2.61    0.42
   2  -1   4    2.23    0.18
  -2   1  -5    0.11    0.12
  -2   1  -6    2.05    0.39
  -2   1  -7    8.66    0.87
   2  -1   7   10.28    0.59
  -2   1  -8    2.17    0.44
   2  -1   8    3.26    0.31
  -2   1  -9    0.52    0.25
  -2   1 -10   70.95    3.22
  -2   1 -11   37.65    2.35
  -2   1 -12   15.81    1.56
  -2   1 -13    2.26    0.63
  -2   1 -14    1.45    0.53
  -2   1 -15    1.59    0.57
   2   0 -16    0.43    0.23
   2   0 -15    0.48    0.21
   2   0 -14    2.75    0.40
   2   0 -14    2.65    0.43
   2   0 -13    6.34    0.58
   2   0 -13    6.01    0.58
   2   0 -12    4.39    0.43
   2   0 -11    3.39    0.33
   2   0 -10    0.93    0.15
  -2   0   9   14.49    1.40
   2   0  -9   16.66    0.73
   2   0  -8    2.51    0.27
  -2   0   8    2.43    0.53
  -2   0   7    2.86    0.54
   2   0  -7    2.69    0.31
   2   0  -6    9.27    0.68
   2   0  -6    8.10    0.58
  -2   0   5   22.28    1.48
   2   0  -5   21.57    1.13
   2   0  -4    5.64    0.56
  -2   0   4    6.98    0.77
  -2   0   3    4.95    0.62
   2   0  -3    4.63    0.52
   2   0  -2    0.33    0.14
  -2   0   2    0.61    0.21
   2   0  -1    1.88    0.35
   2   0   0    1.18    0.29
  -2   0  -1   15.84    1.02
   2   0   1   16.63    1.13
  -2   0  -2  112.19    3.79
   2   0   2  127.55    3.20
   2   0   3   85.60    2.31
   2   0   3   79.70    2.70
   2   0   4    0.26    0.12
  -2   0  -4    0.48    0.17
   2   0   4    0.31    0.08
  -2   0  -5    3.68    0.32
  -2   0  -5    3.13    0.49
   2   0   5    2.98    0.23
   2   0   6    0.26    0.06
   2   0   6    0.24    0.10
  -2   0  -6    0.14    0.07
  -2   0  -6    0.40    0.18
  -2   0  -7    0.06    0.05
  -2   0  -7   -0.05    0.04
   2   0   7    0.12    0.07
  -2   0  -8    0.21    0.14
   2   0   8    0.15    0.09
  -2   0  -8    0.08    0.05
  -2   0  -9    0.03    0.05
  -2   0  -9    0.08    0.14
  -2   0 -10    1.49    0.23
  -2   0 -10    2.07    0.50
  -2   0 -11    0.67    0.29
  -2   0 -11    0.50    0.14
  -2   0 -12    5.55    0.95
  -2   0 -13    0.89    0.41
  -2   0 -14    1.66    0.59
  -2   0 -15    0.24    0.33
   2   1 -16    1.95    0.45
   2   1 -15    0.30    0.16
   2   1 -14    0.86    0.23
   2   1 -13    4.17    0.43
   2   1 -12    0.32    0.13
   2   1 -11   69.72    2.03
   2   1 -10   22.65    0.92
   2   1  -9    3.78    0.35
  -2  -1   8    1.21    0.39
   2   1  -8    1.26    0.21
  -2  -1   7    8.62    1.00
   2   1  -7    8.97    0.64
   2   1  -6   17.79    1.03
   2   1  -5    1.95    0.33
   2   1  -4    5.83    0.59
   2   1  -3    8.70    0.75
  -2  -1   2    7.24    0.75
   2   1  -2    8.27    0.75
   2   1  -1  152.41    4.56
  -2  -1   1  155.07    4.59
   2   1   0   40.46    1.57
   2   1   0   41.85    1.92
   2   1   1    0.34    0.16
  -2  -1  -1    0.17    0.10
   2   1   1    0.17    0.14
   2   1   1    0.11    0.06
   2   1   2    0.65    0.19
  -2  -1  -2    0.58    0.15
  -2  -1  -2    0.53    0.20
   2   1   2    0.44    0.13
  -2  -1  -3   68.79    2.25
   2   1   3   70.63    2.22
   2   1   3   66.85    2.45
  -2  -1  -4   50.04    2.39
   2   1   4   52.00    1.76
   2   1   4   50.66    1.98
  -2  -1  -5    2.00    0.30
   2   1   5    2.45    0.27
  -2  -1  -5    1.88    0.42
  -2  -1  -6    2.58    0.35
   2   1   6    2.67    0.27
   2   1   6    3.01    0.35
  -2  -1  -6    3.04    0.53
  -2  -1  -7    4.51    0.69
   2   1   7    4.75    0.42
  -2  -1  -7    4.10    0.47
  -2  -1  -8    6.07    0.59
  -2  -1  -8    6.22    0.84
   2   1   8    7.19    0.48
  -2  -1  -9   25.13    1.30
  -2  -1  -9   23.46    1.78
  -2  -1 -10   36.15    1.66
  -2  -1 -10   39.53    2.45
  -2  -1 -11    0.04    0.11
  -2  -1 -11    0.16    0.13
  -2  -1 -12    0.61    0.25
  -2  -1 -13    0.60    0.29
  -2  -1 -14    2.42    0.71
   2   2 -15    0.19    0.16
   2   2 -14    0.13    0.11
   2   2 -13    1.25    0.24
   2   2 -12   10.98    0.63
   2   2 -11    0.09    0.08
   2   2 -10    4.62    0.40
   2   2  -9   10.47    0.66
  -2  -2   8   36.53    2.31
   2   2  -8   37.30    1.49
  -2  -2   7    4.22    0.72
   2   2  -7    3.92    0.44
   2   2  -7    4.12    0.48
   2   2  -6    0.01    0.03
   2   2  -5    0.10    0.09
  -2  -2   5    0.10    0.09
   2   2  -4  137.20    4.09
   2   2  -4  131.46    4.08
  -2  -2   3    1.97    0.41
   2   2  -3    2.59    0.41
   2   2  -3    2.60    0.41
  -2  -2   2    2.84    0.48
   2   2  -2    2.44    0.41
  -2  -2   1    0.05    0.08
  -2  -2   1    0.08    0.07
   2   2  -1   -0.03    0.04
  -2  -2   0    3.70    0.45
   2   2   0    3.43    0.44
   2   2   0    3.87    0.56
  -2  -2   0    4.26    0.58
   2   2   1    0.17    0.11
   2   2   1    0.26    0.16
  -2  -2  -1    0.25    0.12
   2   2   1    0.16    0.09
   2   2   2   42.26    1.90
  -2  -2  -2   46.52    1.87
   2   2   2   46.36    1.84
   2   2   2   48.36    2.25
  -2  -2  -3   25.13    1.59
  -2  -2  -3   25.50    1.31
   2   2   3   24.94    1.34
   2   2   3   23.44    1.20
  -2  -2  -4    5.69    0.78
  -2  -2  -4    5.98    0.61
   2   2   4    5.54    0.57
   2   2   4    6.06    0.55
  -2  -2  -5    0.38    0.20
   2   2   5    0.28    0.11
  -2  -2  -5    0.29    0.13
  -2  -2  -6   10.08    1.09
  -2  -2  -6    8.59    0.79
   2   2   6    8.67    0.60
   2   2   6    9.04    0.64
  -2  -2  -7    2.61    0.55
   2   2   7    2.03    0.26
   2   2   7    2.39    0.28
  -2  -2  -7    1.38    0.32
  -2  -2  -8    0.47    0.30
   2   2   8    0.76    0.15
  -2  -2  -8    0.43    0.20
  -2  -2  -9    2.53    0.60
  -2  -2  -9    2.95    0.50
  -2  -2 -10    0.54    0.28
  -2  -2 -10    0.82    0.27
  -2  -2 -11    2.48    0.63
  -2  -2 -11    2.21    0.45
  -2  -2 -12    1.98    0.59
  -2  -2 -13   -0.16    0.30
  -2  -2 -14    0.77    0.38
   2   3 -15    0.17    0.13
   2   3 -14    4.27    0.46
   2   3 -13    1.02    0.21
   2   3 -12   -0.24    0.16
   2   3 -12    0.05    0.06
   2   3 -11   15.19    1.30
   2   3 -11   16.76    0.83
   2   3 -10   51.62    2.53
   2   3 -10   56.44    1.84
   2   3  -9    5.30    0.71
   2   3  -9    4.70    0.45
  -2  -3   8    8.88    1.13
   2   3  -8    7.82    0.63
   2   3  -7    0.41    0.13
   2   3  -7    0.48    0.18
  -2  -3   7    0.56    0.26
  -2  -3   6    0.27    0.22
   2   3  -6    0.34    0.14
  -2  -3   5    7.26    0.92
   2   3  -5    6.37    0.64
   2   3  -4    1.04    0.26
  -2  -3   4    1.16    0.33
   2   3  -3    5.40    0.61
   2   3  -3    7.03    0.73
  -2  -3   3    7.56    0.74
  -2  -3   3    6.59    0.81
  -2  -3   2    2.42    0.47
  -2  -3   2    2.64    0.43
   2   3  -2    1.91    0.37
  -2  -3   1    9.31    0.82
  -2  -3   1    6.92    0.76
   2   3  -1    8.36    0.81
   2   3   0   12.32    0.96
  -2  -3   0   13.69    1.01
   2   3   0   12.88    1.09
   2   3   1   18.32    1.25
  -2  -3  -1   16.39    1.13
   2   3   1   17.66    1.14
   2   3   1   18.71    1.37
  -2  -3  -2    1.60    0.34
   2   3   2    1.68    0.40
   2   3   2    1.06    0.27
   2   3   2    1.85    0.35
   2   3   3    1.14    0.32
  -2  -3  -3    1.22    0.31
   2   3   3    1.18    0.27
   2   3   3    1.71    0.33
  -2  -3  -4    4.92    0.72
  -2  -3  -4    5.13    0.65
   2   3   4    5.12    0.55
   2   3   4    4.59    0.53
   2   3   5    2.06    0.35
  -2  -3  -5    2.04    0.50
  -2  -3  -5    1.42    0.35
   2   3   6    0.90    0.21
   2   3   6    1.29    0.22
  -2  -3  -6    1.30    0.40
  -2  -3  -6    1.18    0.34
  -2  -3  -7    2.92    0.53
  -2  -3  -7    3.08    0.65
   2   3   7    2.85    0.36
   2   3   7    2.74    0.30
   2   3   8    0.11    0.06
  -2  -3  -8    0.12    0.15
  -2  -3  -9    1.71    0.43
  -2  -3  -9    2.38    0.62
  -2  -3 -10    2.28    0.63
  -2  -3 -10    2.47    0.53
  -2  -3 -11    0.87    0.40
  -2  -3 -12    3.58    0.86
   2   4 -15    0.66    0.21
   2   4 -14    4.33    0.46
   2   4 -13    0.38    0.14
   2   4 -12   10.10    1.12
   2   4 -12   11.83    0.69
   2   4 -11   35.68    2.18
   2   4 -11   38.40    1.41
   2   4 -10    0.98    0.20
   2   4 -10    0.79    0.30
   2   4  -9   27.56    1.80
   2   4  -9   23.58    1.14
   2   4  -8   17.70    1.43
  -2  -4   8   23.12    1.93
   2   4  -8   20.89    1.11
   2   4  -7    3.18    0.43
  -2  -4   7    2.62    0.62
   2   4  -7    1.99    0.44
   2   4  -7    2.18    0.34
   2   4  -6   85.44    2.92
   2   4  -6   94.61    3.54
  -2  -4   6   92.95    4.00
  -2  -4   5   67.19    3.16
   2   4  -5   62.49    2.72
  -2  -4   4   30.56    1.77
   2   4  -4   35.86    1.92
  -2  -4   4   31.78    2.03
   2   4  -4   31.68    1.58
  -2  -4   3   19.81    1.50
  -2  -4   3   19.30    1.36
   2   4  -3   21.08    1.42
   2   4  -3   18.64    1.19
  -2  -4   2    0.44    0.21
  -2  -4   2    0.40    0.18
   2   4  -2    0.41    0.17
  -2  -4   1    4.98    0.66
   2   4  -1    3.12    0.51
   2   4  -1    3.95    0.55
  -2  -4   1    4.93    0.67
  -2  -4   0    0.02    0.05
   2   4   0   -0.04    0.07
   2   4   0    0.05    0.04
   2   4   0   -0.07    0.08
   2   4   1    5.78    0.77
   2   4   1    6.33    0.74
  -2  -4  -1    5.91    0.74
   2   4   1    6.80    0.74
  -2  -4  -2   12.77    1.12
   2   4   2   12.07    0.95
   2   4   2   12.69    1.03
   2   4   2   12.48    1.18
   2   4   3    0.67    0.24
  -2  -4  -3    0.39    0.20
   2   4   3    0.62    0.19
   2   4   3    0.13    0.11
  -2  -4  -4    0.00    0.10
   2   4   4    0.06    0.11
   2   4   4    0.02    0.04
   2   4   4    0.08    0.06
  -2  -4  -5    1.26    0.37
  -2  -4  -6    0.20    0.15
   2   4   6    0.20    0.08
  -2  -4  -6    0.35    0.19
  -2  -4  -7    0.43    0.24
   2   4   7    0.29    0.09
  -2  -4  -7    0.15    0.06
  -2  -4  -8    2.13    0.56
  -2  -4  -8    2.12    0.52
  -2  -4  -9    0.79    0.31
  -2  -4  -9    1.09    0.41
  -2  -4 -10    0.76    0.41
  -2  -4 -10    0.75    0.34
   2   5 -15    0.33    0.15
   2   5 -14   16.64    0.93
   2   5 -13    6.88    0.54
   2   5 -12    8.70    0.59
   2   5 -11    1.23    0.22
   2   5 -10    6.08    0.89
   2   5 -10    7.30    0.55
   2   5  -9   41.58    2.41
   2   5  -9   39.74    1.56
   2   5  -8    3.65    0.67
   2   5  -8    4.83    0.50
   2   5  -7    0.18    0.06
   2   5  -7    0.31    0.18
  -2  -5   7    0.24    0.18
  -2  -5   6    0.91    0.32
   2   5  -6    0.94    0.33
   2   5  -6    0.86    0.23
  -2  -5   6    0.75    0.30
  -2  -5   5   -0.02    0.07
  -2  -5   5   -0.10    0.08
   2   5  -5    0.10    0.14
   2   5  -5    0.01    0.05
  -2  -5   4    0.79    0.29
  -2  -5   4    0.98    0.36
   2   5  -4    0.98    0.25
   2   5  -4    1.10    0.34
   2   5  -3    3.91    0.64
  -2  -5   3    4.59    0.72
   2   5  -3    4.18    0.53
  -2  -5   3    4.12    0.66
  -2  -5   2    0.56    0.23
   2   5  -2    0.78    0.28
  -2  -5   2    0.40    0.21
   2   5  -2    0.87    0.24
  -2  -5   1   13.20    1.20
   2   5  -1   14.11    1.18
   2   5  -1   12.50    0.98
   2   5   0    0.24    0.21
  -2  -5   0    0.11    0.12
   2   5   0    0.11    0.08
   2   5   1    0.49    0.20
   2   5   1    0.60    0.25
  -2  -5  -1    0.21    0.15
   2   5   2    2.14    0.49
  -2  -5  -2    1.93    0.47
   2   5   2    2.29    0.40
  -2  -5  -3    0.22    0.17
   2   5   3    0.11    0.13
   2   5   3    0.21    0.11
   2   5   4    0.71    0.28
   2   5   4    0.73    0.18
  -2  -5  -4    0.56    0.27
   2   5   5   -0.07    0.08
  -2  -5  -5   -0.03    0.12
  -2  -5  -6    0.19    0.14
   2   5   6   -0.02    0.06
   2   5   7    0.28    0.18
  -2  -5  -7    0.78    0.34
  -2  -5  -8    5.85    0.95
  -2  -5  -9    3.16    0.72
  -2  -5 -10    1.22    0.48
   2   6 -14    1.03    0.24
   2   6 -13   13.94    0.80
   2   6 -12   17.22    0.88
   2   6 -11    0.14    0.08
   2   6 -10    7.87    0.58
   2   6  -9    1.48    0.26
   2   6  -8   22.21    1.13
   2   6  -7    8.37    0.68
  -2  -6   7    8.52    1.24
  -2  -6   7    8.72    1.07
  -2  -6   6   24.45    1.82
  -2  -6   6   23.06    2.01
   2   6  -6   23.85    1.24
  -2  -6   5    0.16    0.22
   2   6  -5    0.28    0.13
  -2  -6   5    0.16    0.20
  -2  -6   4    0.79    0.34
  -2  -6   4    0.67    0.25
   2   6  -4    0.73    0.20
  -2  -6   3    4.82    0.75
  -2  -6   3    4.56    0.76
   2   6  -3    4.94    0.54
  -2  -6   2    0.14    0.15
  -2  -6   2    0.07    0.18
   2   6  -2    0.08    0.03
   2   6  -1    1.44    0.36
   2   6  -1    1.74    0.34
  -2  -6   1    1.51    0.45
   2   6   0    2.53    0.48
  -2  -6   0    2.50    0.57
   2   6   0    2.48    0.41
  -2  -6  -1   -0.03    0.07
   2   6   1    0.15    0.07
   2   6   1    0.02    0.07
  -2  -6  -2   -0.02    0.03
   2   6   2   -0.05    0.03
   2   6   2    0.04    0.03
  -2  -6  -3    0.25    0.21
   2   6   3    0.39    0.20
   2   6   4    2.77    0.59
  -2  -6  -4    2.41    0.60
  -2  -6  -5    1.46    0.49
  -2  -6  -6    0.55    0.32
  -2  -6  -7    0.56    0.33
  -2  -6  -8   -0.02    0.16
  -2  -6  -9    2.30    0.69
   2   7 -14   17.66    1.03
   2   7 -13    3.36    0.39
   2   7 -12    4.30    0.42
   2   7 -11    1.49    0.24
   2   7 -10    2.85    0.34
   2   7  -9   11.40    0.71
   2   7  -8    5.67    0.50
  -2  -7   7    3.76    0.76
   2   7  -7    3.71    0.42
  -2  -7   7    3.82    0.90
  -2  -7   6    0.30    0.31
  -2  -7   6   -0.09    0.16
   2   7  -6    0.23    0.10
  -2  -7   5   11.23    1.31
  -2  -7   5   10.50    1.34
   2   7  -5   10.14    0.75
  -2  -7   4    2.57    0.62
   2   7  -4    1.60    0.29
  -2  -7   4    2.36    0.57
  -2  -7   3    0.07    0.17
   2   7  -3   -0.02    0.03
  -2  -7   3   -0.05    0.16
   2   7  -2    0.07    0.08
  -2  -7   2    0.10    0.19
   2   7  -1    0.65    0.24
  -2  -7   1    0.92    0.36
   2   7  -1    1.00    0.22
  -2  -7   0    0.39    0.18
   2   7   0    0.31    0.13
  -2  -7  -1   12.19    1.43
  -2  -7  -2    8.32    1.21
  -2  -7  -3    1.17    0.46
  -2  -7  -4    2.00    0.60
  -2  -7  -5    0.36    0.29
  -2  -7  -6   -0.12    0.12
  -2  -7  -7   -0.44    0.30
  -2  -7  -8    1.14    0.49
   2   8 -13    0.48    0.17
   2   8 -12    1.37    0.24
   2   8 -11    8.43    0.59
   2   8 -10    1.13    0.20
   2   8  -9    0.17    0.10
  -2  -8   8    0.18    0.24
   2   8  -8    0.41    0.13
  -2  -8   7   24.43    2.14
   2   8  -7   28.62    1.17
  -2  -8   6    0.89    0.39
   2   8  -6    1.32    0.23
  -2  -8   5   10.22    1.35
   2   8  -5   12.53    0.75
  -2  -8   4    0.23    0.20
   2   8  -4    0.01    0.08
   2   8  -3    0.04    0.03
  -2  -8   3    0.17    0.22
  -2  -8   2    1.25    0.43
  -2  -8   1    0.29    0.22
  -2  -8   0    1.22    0.48
  -2  -8  -1    0.63    0.38
  -2  -8  -2    0.58    0.36
  -2  -8  -3    0.30    0.12
  -2  -8  -4   -0.15    0.27
   2   9 -12    3.82    0.45
   2   9 -11    0.41    0.15
   2   9 -10    0.38    0.13
   2   9  -9    1.42    0.22
  -2  -9   8   -0.01    0.23
   2   9  -8    0.04    0.06
  -2  -9   7    0.03    0.20
   2   9  -7    0.54    0.13
  -2  -9   6   14.17    1.74
  -2  -9   5   18.19    1.96
  -2  -9   4    0.53    0.35
  -2  -9   3    0.07    0.17
  -2  -9   2    1.42    0.55
  -2  -9   1    4.48    0.99
  -2  -9   0    4.88    1.05
   3 -10   3    0.21    0.23
   3 -10   4    3.85    0.91
   3 -10   5    0.05    0.32
   3 -10   6    3.77    0.88
   3 -10   7    0.32    0.25
   3 -10   8    0.46    0.34
   3  -9  -1    3.11    0.77
   3  -9   0    5.96    1.06
   3  -9   1    0.73    0.37
   3  -9   2    0.97    0.45
   3  -9   3    6.68    1.10
   3  -9   4    1.15    0.49
   3  -9   5    0.13    0.09
   3  -9   6    0.20    0.15
   3  -9   7    5.67    0.93
   3  -9   8    3.02    0.68
   3  -9   9    0.39    0.25
  -3   9 -10    0.15    0.12
  -3   9 -11    0.07    0.30
  -3   9 -12    0.36    0.25
   3  -8  -4   -0.01    0.11
   3  -8  -3    0.94    0.38
   3  -8  -2    5.76    0.95
   3  -8  -1    0.10    0.10
   3  -8   0    0.87    0.36
   3  -8   1    0.60    0.30
   3  -8   2    1.34    0.43
   3  -8   3    2.40    0.59
  -3   8  -4    7.32    0.84
   3  -8   4    5.86    0.92
  -3   8  -5    2.79    0.56
   3  -8   5    2.53    0.60
  -3   8  -6    0.20    0.12
   3  -8   6    0.03    0.09
  -3   8  -7   16.88    1.44
   3  -8   7   15.77    1.44
   3  -8   8    2.06    0.49
  -3   8  -8    0.88    0.33
   3  -8   9   -0.22    0.15
  -3   8  -9    0.00    0.08
  -3   8 -10    2.83    0.67
  -3   8 -11    5.83    1.09
  -3   8 -12    3.88    0.85
  -3   8 -13    1.15    0.44
   3  -7  -7    0.42    0.26
   3  -7  -6    0.55    0.29
   3  -7  -5    0.12    0.18
   3  -7  -4    0.53    0.27
   3  -7  -3    0.17    0.17
   3  -7  -2    0.47    0.25
   3  -7  -1    3.21    0.64
   3  -7   0    7.32    0.96
   3  -7   1    1.94    0.48
   3  -7   2    6.91    0.92
   3  -7   2    7.66    0.65
   3  -7   2    6.60    0.36
  -3   7  -3    4.84    0.65
   3  -7   3    4.24    0.71
   3  -7   3    3.76    0.54
   3  -7   3    3.99    0.35
   3  -7   4    0.47    0.26
  -3   7  -4    0.62    0.25
   3  -7   4    0.42    0.11
  -3   7  -5    4.94    0.72
   3  -7   5    3.19    0.60
   3  -7   5    4.56    0.41
   3  -7   6    0.64    0.15
   3  -7   6    0.61    0.27
   3  -7   7   16.94    1.36
  -3   7  -7   17.47    1.45
   3  -7   8    0.69    0.26
  -3   7  -8    1.31    0.43
   3  -7   9    0.76    0.24
  -3   7  -9    0.60    0.26
  -3   7 -10    0.26    0.27
  -3   7 -11    1.56    0.50
  -3   7 -12    1.96    0.58
  -3   7 -13    0.27    0.17
   3  -6  -9    0.66    0.36
   3  -6  -8    1.71    0.49
   3  -6  -7    0.10    0.13
   3  -6  -6    0.32    0.18
   3  -6  -5   -0.04    0.08
   3  -6  -4    0.65    0.25
   3  -6  -3    2.57    0.51
   3  -6  -2   14.84    1.23
   3  -6  -1    4.57    0.65
   3  -6   0   27.72    1.66
   3  -6   0   28.45    0.96
   3  -6   0   25.20    0.70
   3  -6   1   15.77    1.21
   3  -6   1   17.33    1.07
   3  -6   1   17.81    0.54
   3  -6   2    4.01    0.60
   3  -6   2    3.89    0.22
   3  -6   2    4.11    0.57
  -3   6  -3   10.69    1.01
   3  -6   3    8.64    0.89
   3  -6   3    8.60    0.39
   3  -6   3    9.03    0.91
   3  -6   4    4.98    0.30
  -3   6  -4    4.98    0.69
   3  -6   4    4.54    0.64
  -3   6  -5   45.07    2.29
   3  -6   5   47.39    2.22
   3  -6   5   49.70    1.42
  -3   6  -6   17.64    1.39
   3  -6   6   19.22    1.29
   3  -6   6   15.70    0.71
   3  -6   7   30.81    1.67
  -3   6  -7   33.67    2.05
   3  -6   8    3.16    0.48
  -3   6  -8    4.86    0.77
   3  -6   9    2.41    0.39
  -3   6  -9    1.98    0.52
   3  -6  10   -0.03    0.02
  -3   6 -10    0.03    0.07
  -3   6 -11    7.67    1.10
  -3   6 -12    2.77    0.66
  -3   6 -13    0.98    0.42
  -3   6 -14    2.76    0.75
   3  -5 -11    0.02    0.12
   3  -5 -10    4.83    0.83
   3  -5  -9    1.11    0.35
   3  -5  -8    7.00    0.91
   3  -5  -7    0.43    0.23
  -3   5   6    0.07    0.09
   3  -5  -6    0.09    0.04
   3  -5  -6   -0.06    0.12
   3  -5  -5    0.17    0.10
  -3   5   5    0.12    0.08
   3  -5  -5    0.05    0.05
   3  -5  -4    0.76    0.24
  -3   5   4    1.21    0.30
   3  -5  -4    1.14    0.15
   3  -5  -4    1.08    0.08
   3  -5  -3    3.61    0.24
   3  -5  -3    3.06    0.47
   3  -5  -3    2.93    0.12
   3  -5  -2    2.78    0.20
   3  -5  -2    2.99    0.28
   3  -5  -1    8.39    0.40
   3  -5  -1   10.38    0.85
   3  -5  -1   10.47    0.67
   3  -5   0    6.58    0.65
   3  -5   0    6.84    0.68
   3  -5   0    6.50    0.36
   3  -5   1   17.58    1.12
   3  -5   1   17.99    0.70
  -3   5  -2    1.70    0.37
   3  -5   2    1.66    0.38
   3  -5   2    1.69    0.19
   3  -5   2    1.43    0.30
  -3   5  -3    1.91    0.41
   3  -5   3    2.11    0.36
   3  -5   3    2.17    0.22
   3  -5   4    2.06    0.36
  -3   5  -4    1.64    0.38
   3  -5   4    1.88    0.21
  -3   5  -5   13.18    1.12
   3  -5   5   14.87    0.65
  -3   5  -6    3.21    0.56
   3  -5   6    2.60    0.39
   3  -5   6    3.82    0.31
   3  -5   7   14.59    0.93
  -3   5  -7   12.68    1.20
   3  -5   8    0.20    0.12
  -3   5  -8    0.30    0.19
   3  -5   9    9.45    0.59
  -3   5  -9    9.17    1.08
  -3   5 -10    1.37    0.44
  -3   5 -11    2.51    0.59
  -3   5 -12    0.05    0.11
  -3   5 -13    1.63    0.57
  -3   5 -14    0.54    0.37
   3  -4 -13   -0.35    0.22
   3  -4 -12    0.82    0.32
   3  -4 -11    0.00    0.07
   3  -4 -10    0.05    0.15
   3  -4  -9    5.56    0.73
   3  -4  -9    4.86    0.43
   3  -4  -8    0.06    0.07
   3  -4  -8    0.05    0.06
  -3   4   8   -0.01    0.16
   3  -4  -7    2.46    0.44
   3  -4  -7    2.24    0.20
   3  -4  -6    2.28    0.40
   3  -4  -6    2.10    0.17
   3  -4  -5    0.09    0.09
   3  -4  -5    0.12    0.05
  -3   4   5    0.13    0.09
  -3   4   4    2.94    0.53
   3  -4  -4    3.38    0.44
   3  -4  -4    3.88    0.37
   3  -4  -4    3.05    0.26
   3  -4  -3    1.32    0.26
   3  -4  -3    2.02    0.32
   3  -4  -3    1.39    0.24
  -3   4   3    1.24    0.31
   3  -4  -2   38.79    1.54
   3  -4  -2   37.07    1.52
   3  -4  -2   35.56    1.54
  -3   4   2   34.72    1.77
   3  -4  -1   10.57    0.72
   3  -4  -1   11.82    0.91
   3  -4   0   20.41    1.04
   3  -4   0   23.02    1.47
   3  -4   1    0.14    0.08
   3  -4   1    0.01    0.04
   3  -4   1   -0.08    0.14
   3  -4   2    4.92    0.67
  -3   4  -2    4.46    0.62
   3  -4   2    4.07    0.42
   3  -4   2    5.04    0.46
  -3   4  -3   18.94    1.35
   3  -4   3   17.66    0.95
  -3   4  -4   11.39    1.02
   3  -4   4   13.61    0.80
   3  -4   4   13.29    0.75
  -3   4  -5    0.10    0.09
   3  -4   5    0.35    0.12
   3  -4   5    0.40    0.13
   3  -4   6    0.54    0.14
  -3   4  -6    0.50    0.22
   3  -4   6    0.35    0.11
   3  -4   7    8.23    0.55
  -3   4  -7    8.49    0.97
   3  -4   7    8.65    0.55
   3  -4   8    6.83    0.38
  -3   4  -8   10.28    1.09
  -3   4  -9    0.01    0.13
  -3   4 -10    0.20    0.20
  -3   4 -11   -0.04    0.17
  -3   4 -12   -0.06    0.12
  -3   4 -13    3.34    0.77
  -3   4 -14    7.43    1.27
   3  -3 -13    0.10    0.16
   3  -3 -12    0.06    0.10
   3  -3 -12    0.08    0.06
   3  -3 -11    1.12    0.33
   3  -3 -11    0.92    0.22
   3  -3 -10    0.74    0.17
   3  -3 -10    0.39    0.18
   3  -3  -9    9.96    0.88
   3  -3  -9   11.06    0.56
   3  -3  -8    6.27    0.64
  -3   3   8    5.08    0.95
   3  -3  -8    5.39    0.34
   3  -3  -7   18.81    1.09
  -3   3   7   17.98    1.71
   3  -3  -7   18.61    0.73
   3  -3  -6    5.90    0.55
   3  -3  -6    4.74    0.37
  -3   3   5    7.30    0.94
   3  -3  -5    7.32    0.59
   3  -3  -4    7.17    0.62
  -3   3   4    7.24    0.88
  -3   3   3   12.62    1.09
   3  -3  -3   12.35    0.88
  -3   3   2    1.24    0.32
   3  -3  -2    1.26    0.29
  -3   3   1    1.65    0.37
   3  -3  -1    1.32    0.28
   3  -3  -1    1.72    0.38
   3  -3   0   20.34    1.17
   3  -3   0   23.48    1.53
   3  -3   1   28.37    1.39
   3  -3   1   26.34    1.66
  -3   3  -2   23.25    1.49
   3  -3   2   22.89    1.23
  -3   3  -3    2.55    0.48
   3  -3   3    2.95    0.41
   3  -3   3    2.33    0.24
  -3   3  -4    8.02    0.85
   3  -3   4    9.09    0.70
   3  -3   4    8.46    0.48
  -3   3  -5    3.16    0.54
   3  -3   5    3.23    0.28
   3  -3   5    3.28    0.40
   3  -3   6    1.95    0.21
   3  -3   6    1.81    0.28
  -3   3  -6    1.77    0.40
  -3   3  -7    5.34    0.77
   3  -3   7    4.32    0.41
  -3   3  -8    2.04    0.49
  -3   3  -9   20.32    1.68
  -3   3 -10    0.25    0.20
  -3   3 -11    0.64    0.32
  -3   3 -12   23.02    2.08
  -3   3 -13   28.25    2.48
  -3   3 -14    4.57    1.00
   3  -2 -14    8.19    0.94
   3  -2 -14    9.39    0.90
   3  -2 -13    2.59    0.49
   3  -2 -13    2.53    0.41
   3  -2 -12    5.05    0.64
   3  -2 -12    4.64    0.46
   3  -2 -11    0.21    0.14
   3  -2 -11    0.19    0.10
   3  -2 -10    0.10    0.11
   3  -2 -10    0.02    0.05
   3  -2  -9    4.64    0.35
   3  -2  -8    0.32    0.09
  -3   2   8    0.37    0.30
  -3   2   7    8.21    1.10
   3  -2  -7    7.00    0.52
   3  -2  -6    3.03    0.42
   3  -2  -5   24.35    1.30
   3  -2  -4    6.73    0.67
  -3   2   4    6.79    0.87
  -3   2   3    2.50    0.49
   3  -2  -3    2.73    0.44
   3  -2  -2    2.87    0.49
  -3   2   2    3.07    0.52
   3  -2  -1    2.22    0.40
  -3   2   1    1.89    0.40
   3  -2  -1    3.06    0.53
   3  -2   0   13.79    1.02
   3  -2   0   13.85    1.18
   3  -2   1    1.07    0.33
   3  -2   1    0.73    0.21
  -3   2  -2    0.68    0.23
   3  -2   2    1.07    0.26
   3  -2   3    3.68    0.49
  -3   2  -3    3.88    0.60
  -3   2  -4   48.48    2.37
   3  -2   4   49.42    2.04
  -3   2  -5   24.92    1.63
   3  -2   5   25.61    1.32
   3  -2   6    0.11    0.09
  -3   2  -6    0.08    0.04
  -3   2  -7    0.05    0.14
   3  -2   7    0.04    0.08
  -3   2  -8   13.90    1.33
  -3   2  -9    1.75    0.50
  -3   2 -10    0.02    0.12
  -3   2 -11    0.92    0.36
  -3   2 -12    0.49    0.38
  -3   2 -13    3.23    0.78
  -3   2 -14    3.56    0.90
   3  -1 -15    2.94    0.48
   3  -1 -14    2.62    0.46
   3  -1 -14    2.16    0.37
   3  -1 -13    0.23    0.11
   3  -1 -13    0.04    0.03
   3  -1 -12    3.23    0.34
   3  -1 -11    0.54    0.13
   3  -1 -10    7.72    0.50
   3  -1  -9    5.93    0.47
  -3   1   8    0.35    0.26
   3  -1  -8   -0.01    0.07
  -3   1   7   13.35    1.44
   3  -1  -7   14.59    0.96
   3  -1  -7   12.35    0.80
   3  -1  -6   13.79    0.97
   3  -1  -5    3.44    0.50
   3  -1  -4    1.31    0.31
  -3   1   4    1.09    0.35
   3  -1  -3    4.51    0.61
  -3   1   3    4.77    0.72
   3  -1  -2   30.15    1.72
  -3   1   2   24.38    1.61
  -3   1   1    0.05    0.06
   3  -1  -1   -0.01    0.05
   3  -1   0    2.59    0.51
   3  -1   0    2.08    0.41
  -3   1   0    2.72    0.50
   3  -1   1   63.81    2.66
   3  -1   1   76.17    3.11
  -3   1  -2   59.82    2.65
   3  -1   2   60.18    2.42
  -3   1  -3    4.46    0.68
   3  -1   4    6.33    0.46
  -3   1  -4    5.21    0.75
  -3   1  -5   36.75    2.10
   3  -1   5   33.83    1.15
  -3   1  -6   46.22    2.42
   3  -1   6   43.65    1.19
   3  -1   6   45.08    1.86
  -3   1  -7    3.66    0.64
   3  -1   7    3.99    0.46
  -3   1  -8    3.72    0.68
  -3   1  -9    2.94    0.63
  -3   1 -10   20.19    1.79
  -3   1 -11    8.28    1.19
  -3   1 -12   12.85    1.58
  -3   1 -13    1.43    0.58
  -3   1 -14    0.21    0.19
   3   0 -15    1.48    0.32
   3   0 -14    1.44    0.28
   3   0 -13    2.88    0.34
   3   0 -12   15.73    0.78
   3   0 -11    7.19    0.51
   3   0 -10    0.04    0.02
   3   0  -9    0.42    0.14
   3   0  -8    0.37    0.15
   3   0  -8    0.22    0.10
  -3   0   8    0.46    0.29
  -3   0   7    4.46    0.81
   3   0  -7    3.74    0.50
   3   0  -6    2.95    0.47
  -3   0   6    3.40    0.69
   3   0  -5    3.01    0.49
   3   0  -4   72.89    2.89
  -3   0   4   77.36    3.41
   3   0  -3   64.93    2.73
  -3   0   3   63.60    2.96
   3   0  -2   54.61    2.52
  -3   0   2   48.64    2.45
   3   0  -1   37.46    2.11
   3   0   0   15.58    1.31
   3   0   1    0.32    0.20
  -3   0  -2   20.32    1.45
   3   0   2   18.33    0.99
  -3   0  -3    8.70    1.02
   3   0   3   11.26    0.74
  -3   0  -4   62.23    3.04
   3   0   4   66.23    2.12
  -3   0  -5    8.20    1.01
   3   0   5    7.84    0.54
   3   0   5    8.35    0.78
   3   0   6    1.14    0.17
   3   0   6    1.17    0.27
  -3   0  -6    1.08    0.37
   3   0   7    0.88    0.12
  -3   0  -7    1.41    0.45
   3   0   7    0.94    0.23
  -3   0  -8    0.25    0.13
  -3   0  -9    7.01    1.02
  -3   0 -10    2.37    0.61
  -3   0 -11    2.51    0.65
  -3   0 -12    0.06    0.14
  -3   0 -13    1.90    0.69
  -3   0 -14    0.36    0.36
   3   1 -15    0.87    0.22
   3   1 -14    2.74    0.34
   3   1 -13    0.50    0.15
   3   1 -12    1.02    0.19
   3   1 -11   12.39    0.74
   3   1 -10   10.54    0.74
   3   1  -9    2.82    0.39
   3   1  -8    4.86    0.59
  -3  -1   8    4.66    0.89
   3   1  -7   19.60    1.28
  -3  -1   7   20.62    1.84
   3   1  -6    4.35    0.59
  -3  -1   6    4.30    0.79
   3   1  -5   14.28    1.13
   3   1  -4   21.14    1.43
   3   1  -3    4.46    0.65
   3   1  -2    0.21    0.16
  -3  -1   1    1.13    0.34
   3   1  -1    1.32    0.38
   3   1   0    1.41    0.39
  -3  -1   0    1.29    0.36
   3   1   0    0.97    0.25
   3   1   1    0.95    0.34
   3   1   1    0.97    0.31
   3   1   1    0.88    0.23
   3   1   2    4.18    0.61
   3   1   2    4.48    0.51
   3   1   2    4.37    0.70
  -3  -1  -3   58.72    2.83
   3   1   3   51.64    2.03
   3   1   4    2.09    0.33
  -3  -1  -4    1.28    0.38
   3   1   5    1.23    0.31
  -3  -1  -5    1.07    0.41
  -3  -1  -5    0.86    0.23
   3   1   5    0.71    0.19
   3   1   6    0.81    0.22
  -3  -1  -6    1.35    0.45
  -3  -1  -6    0.96    0.24
   3   1   6    0.71    0.16
   3   1   7    0.36    0.12
  -3  -1  -7    0.36    0.20
  -3  -1  -7    0.31    0.13
   3   1   8    0.54    0.12
  -3  -1  -8    0.36    0.23
  -3  -1  -8    0.59    0.19
  -3  -1  -9    4.50    0.54
  -3  -1  -9    4.19    0.83
  -3  -1 -10    0.99    0.43
  -3  -1 -10    0.81    0.23
  -3  -1 -11   14.94    1.73
  -3  -1 -12    0.39    0.35
  -3  -1 -13    0.29    0.22
  -3  -1 -14    0.52    0.37
   3   2 -15    0.14    0.11
   3   2 -14    3.43    0.38
   3   2 -13    7.34    0.55
   3   2 -12    1.79    0.28
   3   2 -11    2.83    0.37
   3   2 -10   75.38    2.59
   3   2  -9   26.41    1.38
   3   2  -8    0.41    0.20
  -3  -2   7   14.33    1.59
   3   2  -7   14.89    1.12
   3   2  -6    0.46    0.21
  -3  -2   6    0.72    0.34
  -3  -2   5   15.28    1.50
   3   2  -5   13.27    1.12
   3   2  -4   22.98    1.52
  -3  -2   4   26.08    1.91
   3   2  -3  308.90    8.45
  -3  -2   3  309.97    8.93
  -3  -2   2    0.04    0.08
   3   2  -2    0.02    0.09
  -3  -2   1    0.22    0.16
   3   2  -1    0.37    0.19
   3   2  -1    0.06    0.06
   3   2   0    4.10    0.55
   3   2   0    4.76    0.76
  -3  -2   0    5.57    0.78
   3   2   1   23.75    1.66
  -3  -2  -1   24.15    1.39
   3   2   1   24.31    1.40
   3   2   1   25.08    1.81
   3   2   2    2.68    0.59
  -3  -2  -2    3.43    0.50
   3   2   2    3.05    0.46
   3   2   3    3.65    0.64
  -3  -2  -3    4.40    0.58
   3   2   3    3.40    0.49
  -3  -2  -4   10.47    1.21
  -3  -2  -4   11.09    0.94
   3   2   4    9.07    0.89
   3   2   4   11.07    0.86
  -3  -2  -5   13.89    1.46
  -3  -2  -5   10.91    0.95
   3   2   5   12.80    0.91
   3   2   5   12.02    1.01
  -3  -2  -6    0.76    0.33
   3   2   6    0.49    0.16
  -3  -2  -6    0.49    0.20
   3   2   6    0.43    0.15
  -3  -2  -7    5.98    1.02
  -3  -2  -7    4.76    0.63
   3   2   7    4.43    0.45
   3   2   8    0.45    0.14
  -3  -2  -8    0.23    0.21
  -3  -2  -8    0.29    0.15
  -3  -2  -9    0.23    0.24
  -3  -2  -9   -0.04    0.04
  -3  -2 -10    0.58    0.28
  -3  -2 -10    0.39    0.18
  -3  -2 -11   -0.04    0.21
  -3  -2 -12    1.72    0.71
  -3  -2 -13    2.83    0.85
   3   3 -15    2.16    0.32
   3   3 -14    0.05    0.08
   3   3 -13    0.45    0.15
   3   3 -12    6.29    0.55
   3   3 -11   34.09    1.52
   3   3 -10    0.52    0.17
   3   3 -10    0.33    0.15
   3   3  -9   33.16    2.03
   3   3  -9   34.22    1.67
   3   3  -8   10.86    1.08
   3   3  -8   13.06    1.03
   3   3  -7    2.58    0.50
   3   3  -7    2.98    0.50
  -3  -3   7    3.69    0.83
   3   3  -6    3.51    0.60
   3   3  -6    4.23    0.63
  -3  -3   6    3.91    0.81
   3   3  -5   18.68    1.39
   3   3  -5   16.32    1.27
  -3  -3   5   19.25    1.75
   3   3  -4    6.79    0.81
   3   3  -4    7.62    0.85
  -3  -3   4    6.42    0.94
  -3  -3   3    0.42    0.30
   3   3  -3    0.61    0.26
   3   3  -2    6.88    0.87
  -3  -3   2    7.80    0.96
  -3  -3   1   27.79    1.61
   3   3  -1   27.07    1.63
   3   3  -1   23.29    1.72
  -3  -3   1   24.03    1.74
   3   3   0    1.87    0.51
   3   3   0    1.71    0.38
  -3  -3   0    1.61    0.37
  -3  -3  -1    3.75    0.57
   3   3   1    4.19    0.60
   3   3   1    4.41    0.78
   3   3   2    1.04    0.36
  -3  -3  -2    0.93    0.28
   3   3   2    1.13    0.30
   3   3   3    1.19    0.38
  -3  -3  -3    1.32    0.34
   3   3   3    1.44    0.36
  -3  -3  -4    3.97    0.60
   3   3   4    5.02    0.66
   3   3   4    4.69    0.61
   3   3   4    3.44    0.64
  -3  -3  -5    3.23    0.56
   3   3   5    3.37    0.50
   3   3   5    4.08    0.56
  -3  -3  -6    0.59    0.31
   3   3   6    0.64    0.20
  -3  -3  -6    0.60    0.24
   3   3   6    0.84    0.24
   3   3   7    1.44    0.30
  -3  -3  -7    1.75    0.55
  -3  -3  -7    1.52    0.39
  -3  -3  -8    0.02    0.07
  -3  -3  -8   -0.07    0.09
  -3  -3  -9    0.08    0.31
  -3  -3  -9    0.02    0.07
  -3  -3 -10    5.57    1.09
  -3  -3 -11    7.20    1.26
  -3  -3 -12    0.33    0.41
   3   4 -15    0.18    0.11
   3   4 -14    0.05    0.05
   3   4 -13    4.65    0.47
   3   4 -12   11.31    0.79
   3   4 -11    5.30    0.55
   3   4 -10   61.96    2.37
   3   4  -9    2.05    0.37
   3   4  -8    9.36    1.08
   3   4  -8   10.79    0.93
   3   4  -7    0.57    0.29
   3   4  -7    0.13    0.13
  -3  -4   7    0.37    0.20
   3   4  -6    0.90    0.27
   3   4  -6    0.66    0.27
  -3  -4   6    0.68    0.34
   3   4  -5    0.12    0.17
   3   4  -5    0.11    0.08
  -3  -4   5   -0.02    0.07
   3   4  -4    0.10    0.12
   3   4  -4    0.26    0.17
  -3  -4   4    0.13    0.18
  -3  -4   3   33.75    1.96
   3   4  -3   32.45    1.98
   3   4  -3   33.34    1.94
  -3  -4   3   32.82    2.19
  -3  -4   2   17.64    1.37
   3   4  -2   16.35    1.35
   3   4  -2   16.87    1.38
  -3  -4   2   17.63    1.51
  -3  -4   1    3.38    0.59
   3   4  -1    3.53    0.60
   3   4  -1    3.70    0.65
  -3  -4   1    3.94    0.70
  -3  -4   0    7.28    0.88
   3   4   0    8.05    0.92
   3   4   0    9.51    1.13
   3   4   1   -0.06    0.07
  -3  -4  -1    0.04    0.06
   3   4   1    0.08    0.11
   3   4   2    0.45    0.26
  -3  -4  -2    0.83    0.29
   3   4   2    0.35    0.18
   3   4   3    0.38    0.22
  -3  -4  -3    0.30    0.17
   3   4   3    0.33    0.17
   3   4   4    0.46    0.25
  -3  -4  -4    0.93    0.34
   3   4   4    1.01    0.29
   3   4   5    0.55    0.26
   3   4   5    0.62    0.17
  -3  -4  -5    0.70    0.30
  -3  -4  -6   11.13    1.17
   3   4   6   10.65    0.83
  -3  -4  -7    0.56    0.26
  -3  -4  -8    0.17    0.15
  -3  -4  -9   -0.09    0.11
  -3  -4  -9    0.14    0.09
  -3  -4 -10    0.36    0.18
   3   5 -14    2.92    0.37
   3   5 -13    2.96    0.37
   3   5 -12   12.88    0.83
   3   5 -11   24.02    1.27
   3   5 -10    0.25    0.06
   3   5  -9    5.49    0.62
   3   5  -8   32.89    1.74
   3   5  -7    2.91    0.49
   3   5  -6    0.48    0.20
  -3  -5   6    0.38    0.30
   3   5  -5    0.21    0.14
  -3  -5   5    0.15    0.16
  -3  -5   4   -0.14    0.16
  -3  -5   4    0.02    0.15
   3   5  -4    0.31    0.19
  -3  -5   3   28.41    1.92
   3   5  -3   26.21    1.70
  -3  -5   3   24.24    1.93
  -3  -5   2    3.51    0.67
  -3  -5   2    4.82    0.76
   3   5  -2    4.45    0.69
  -3  -5   1    3.58    0.66
   3   5  -1    3.58    0.65
  -3  -5   0    1.30    0.38
   3   5   0    1.25    0.39
  -3  -5  -1    0.74    0.32
   3   5   1    0.82    0.36
  -3  -5  -2    5.63    0.85
   3   5   2    6.46    0.81
   3   5   2    6.44    1.02
   3   5   3   15.76    1.61
  -3  -5  -3   14.53    1.41
   3   5   3   14.52    1.18
  -3  -5  -4   12.45    1.32
   3   5   4   12.03    1.00
   3   5   4    9.88    1.24
  -3  -5  -5    6.24    0.94
   3   5   5    5.16    0.86
   3   5   6    3.10    0.64
  -3  -5  -6    4.34    0.80
   3   5   7    0.78    0.30
  -3  -5  -7    1.26    0.47
  -3  -5  -8    1.16    0.44
  -3  -5  -9    0.03    0.13
   3   6 -14    1.19    0.23
   3   6 -13    1.24    0.25
   3   6 -12    0.27    0.13
   3   6 -11    1.86    0.32
   3   6 -10    1.05    0.24
   3   6  -9   15.08    1.07
   3   6  -8    0.28    0.12
   3   6  -8    0.94    0.27
   3   6  -7    0.43    0.19
   3   6  -6   14.36    1.13
  -3  -6   6   14.65    1.72
  -3  -6   5    9.68    1.17
   3   6  -5    9.03    0.90
  -3  -6   5    7.50    1.16
  -3  -6   4    8.17    1.06
   3   6  -4    8.16    0.87
  -3  -6   4    6.68    1.05
  -3  -6   3    0.98    0.41
  -3  -6   3    0.98    0.40
   3   6  -3    0.80    0.31
  -3  -6   2   10.81    1.26
   3   6  -2   11.43    1.10
  -3  -6   2   11.21    1.28
   3   6  -1    9.51    1.08
  -3  -6   1    9.15    1.16
   3   6  -1    8.81    0.99
   3   6   0    0.40    0.25
  -3  -6   0    0.30    0.25
   3   6   0    0.92    0.35
   3   6   1    1.59    0.40
  -3  -6  -1    0.84    0.35
   3   6   1    1.05    0.37
  -3  -6  -2    0.48    0.25
   3   6   2    0.82    0.28
   3   6   2    0.64    0.33
  -3  -6  -3    0.94    0.40
   3   6   3    0.92    0.41
   3   6   4   -0.10    0.12
  -3  -6  -4   -0.43    0.26
  -3  -6  -5    1.55    0.50
  -3  -6  -6    0.44    0.34
  -3  -6  -7    1.22    0.44
  -3  -6  -8    0.62    0.36
   3   7 -13    0.53    0.16
   3   7 -12    0.15    0.12
   3   7 -11    4.87    0.52
   3   7 -10    0.20    0.14
   3   7  -9   10.68    0.84
   3   7  -8    9.16    0.81
   3   7  -7    4.20    0.55
  -3  -7   6    9.16    1.23
   3   7  -6    7.89    0.79
  -3  -7   5    2.28    0.66
  -3  -7   5    2.81    0.69
   3   7  -5    3.19    0.50
  -3  -7   4   27.70    2.19
   3   7  -4   28.89    1.63
  -3  -7   4   24.04    2.11
   3   7  -3   17.72    1.29
  -3  -7   3   19.76    1.84
  -3  -7   3   17.16    1.69
  -3  -7   2    1.07    0.46
   3   7  -2    1.02    0.30
  -3  -7   1    3.07    0.72
   3   7  -1    3.35    0.56
  -3  -7   0    5.18    0.95
   3   7   0    5.95    0.77
  -3  -7  -1    0.55    0.32
  -3  -7  -2   12.92    1.56
  -3  -7  -3    3.71    0.84
  -3  -7  -4    1.13    0.44
  -3  -7  -5   -0.04    0.06
  -3  -7  -6    0.64    0.36
  -3  -7  -7    0.14    0.20
   3   8 -12    0.61    0.17
   3   8 -11    3.77    0.43
   3   8 -10    1.54    0.28
   3   8  -9    4.26    0.50
   3   8  -8    1.96    0.35
   3   8  -7    0.02    0.04
  -3  -8   6   20.72    2.01
   3   8  -6   20.28    1.25
  -3  -8   5    6.66    1.12
   3   8  -5    5.81    0.64
  -3  -8   4   16.66    1.82
   3   8  -4   16.00    1.07
  -3  -8   3    0.16    0.21
  -3  -8   2    2.76    0.73
  -3  -8   1   12.40    1.59
  -3  -8   0    0.41    0.28
  -3  -8  -1    0.23    0.20
  -3  -8  -2    0.21    0.08
  -3  -8  -3    0.47    0.28
   3   9 -12    0.14    0.11
   3   9 -11    3.50    0.40
   3   9 -10    0.12    0.08
   3   9  -9    1.18    0.25
   3   9  -8    2.26    0.34
  -3  -9   7    7.12    1.24
  -3  -9   6    4.96    1.04
  -3  -9   5    2.55    0.75
  -3  -9   4    0.32    0.27
  -3  -9   3    1.67    0.65
   4 -10   4    0.41    0.32
   4 -10   5    1.45    0.55
   4 -10   6    0.08    0.13
   4 -10   7   -0.16    0.21
   4  -9   0    0.17    0.20
   4  -9   1    0.17    0.20
   4  -9   2    0.16    0.13
   4  -9   3    1.11    0.43
   4  -9   4   12.34    1.49
   4  -9   5    1.96    0.57
   4  -9   6    1.98    0.59
   4  -9   7    4.16    0.91
   4  -9   8    0.31    0.29
   4  -8  -3   -0.06    0.18
   4  -8  -2    5.07    0.88
   4  -8  -1    0.06    0.09
   4  -8   0    0.58    0.29
   4  -8   1    9.09    1.16
   4  -8   2    6.37    0.99
   4  -8   3   10.36    1.24
   4  -8   4    2.26    0.56
  -4   8  -5    1.30    0.42
   4  -8   5    0.62    0.25
   4  -8   5    1.14    0.38
  -4   8  -6   16.09    1.58
   4  -8   6   15.88    1.48
  -4   8  -7    7.34    1.08
   4  -8   7    6.99    0.94
  -4   8  -8   19.04    1.81
   4  -8   8   15.88    1.40
  -4   8  -9    3.85    0.83
  -4   8 -10    0.06    0.12
  -4   8 -11    6.19    1.13
  -4   8 -12    0.49    0.36
   4  -7  -6    1.12    0.39
   4  -7  -5    0.25    0.17
   4  -7  -4   -0.02    0.11
   4  -7  -3    1.64    0.44
   4  -7  -2    0.75    0.28
   4  -7  -1    0.66    0.28
   4  -7   0    2.30    0.49
   4  -7   1    0.05    0.08
   4  -7   1    0.08    0.02
   4  -7   2    0.26    0.19
   4  -7   2    0.10    0.09
   4  -7   3    0.69    0.27
   4  -7   3    0.77    0.12
   4  -7   3    1.08    0.35
  -4   7  -4    5.00    0.82
   4  -7   4    4.93    0.75
   4  -7   4    4.30    0.30
   4  -7   4    3.97    0.69
   4  -7   5   14.73    1.30
   4  -7   5   16.07    0.69
  -4   7  -6   16.29    1.57
   4  -7   6   12.46    1.15
   4  -7   7    0.06    0.11
  -4   7  -7   -0.02    0.03
  -4   7  -8    0.08    0.17
   4  -7   8    0.45    0.21
  -4   7  -9    2.48    0.63
  -4   7 -10   -0.10    0.15
  -4   7 -11    1.45    0.57
  -4   7 -12    4.37    0.95
  -4   7 -13    0.04    0.12
   4  -6  -8    0.08    0.15
   4  -6  -7    0.12    0.05
   4  -6  -6    0.37    0.23
   4  -6  -5    0.17    0.13
   4  -6  -4    0.88    0.30
   4  -6  -3   -0.03    0.10
   4  -6  -2    6.60    0.78
   4  -6  -2    6.81    0.31
   4  -6  -2    6.68    0.51
   4  -6  -1    5.15    0.66
   4  -6  -1    5.53    0.31
   4  -6  -1    4.87    0.53
   4  -6   0    1.89    0.19
   4  -6   0    2.15    0.42
   4  -6   0    2.32    0.45
   4  -6   1   14.55    1.12
   4  -6   1   16.15    1.36
   4  -6   2    1.86    0.47
   4  -6   2    1.49    0.19
   4  -6   2    1.56    0.36
  -4   6  -3    1.77    0.45
   4  -6   3    0.93    0.32
   4  -6   3    1.04    0.17
   4  -6   3    1.11    0.30
   4  -6   4    0.35    0.11
   4  -6   4    0.25    0.21
  -4   6  -4    0.00    0.08
   4  -6   4    0.08    0.11
  -4   6  -5   10.40    1.20
   4  -6   5    8.13    0.83
   4  -6   5    9.27    0.54
  -4   6  -6   15.21    1.50
   4  -6   6   18.36    1.24
   4  -6   7    3.09    0.48
  -4   6  -7    3.47    0.70
  -4   6  -8    6.34    0.98
   4  -6   8    8.10    0.75
  -4   6  -9    0.29    0.21
   4  -6   9    0.00    0.05
  -4   6 -10    1.18    0.43
  -4   6 -11    2.83    0.73
  -4   6 -12    0.32    0.29
  -4   6 -13    0.88    0.46
   4  -5 -10    1.25    0.42
   4  -5  -9    0.00    0.05
   4  -5  -8    0.99    0.34
   4  -5  -7    5.12    0.71
   4  -5  -6    0.45    0.22
   4  -5  -6    0.52    0.08
   4  -5  -5    4.15    0.59
  -4   5   5    4.22    0.72
   4  -5  -5    4.82    0.29
   4  -5  -4    0.83    0.25
  -4   5   4    0.89    0.32
   4  -5  -4    0.99    0.23
   4  -5  -4    0.93    0.20
   4  -5  -3    0.13    0.07
   4  -5  -3    0.00    0.03
   4  -5  -3    0.09    0.07
   4  -5  -2    3.31    0.41
   4  -5  -2    2.66    0.41
   4  -5  -2    2.88    0.46
   4  -5  -1    3.00    0.38
   4  -5  -1    2.71    0.41
   4  -5  -1    2.92    0.52
   4  -5   0    2.20    0.36
   4  -5   0    1.54    0.28
   4  -5   0    2.31    0.50
   4  -5   1    5.18    0.51
   4  -5   1    4.95    0.53
   4  -5   1    5.03    0.80
   4  -5   2   -0.02    0.07
   4  -5   2    0.02    0.10
  -4   5  -3    3.18    0.63
   4  -5   3    2.47    0.56
   4  -5   3    2.96    0.41
   4  -5   3    3.17    0.39
  -4   5  -4    2.48    0.57
   4  -5   4    2.18    0.32
   4  -5   4    1.51    0.30
   4  -5   5    9.99    0.78
   4  -5   5    9.61    0.67
  -4   5  -6   31.52    2.15
   4  -5   6   28.19    1.40
   4  -5   7    1.84    0.31
  -4   5  -7    3.51    0.71
  -4   5  -8    9.71    1.22
   4  -5   8    8.55    0.64
   4  -5   9    5.60    0.38
  -4   5  -9    7.10    1.07
  -4   5 -10    0.45    0.28
  -4   5 -11    4.94    0.96
  -4   5 -12    0.53    0.34
  -4   5 -13    5.70    1.15
   4  -4 -12    1.10    0.38
   4  -4 -11    0.85    0.30
   4  -4 -10    0.57    0.26
   4  -4  -9    0.15    0.15
   4  -4  -9    0.33    0.10
   4  -4  -8    0.32    0.19
   4  -4  -8    0.24    0.07
   4  -4  -7    0.26    0.15
   4  -4  -7    0.22    0.07
  -4   4   7    0.34    0.25
  -4   4   6    4.19    0.83
   4  -4  -6    5.00    0.58
   4  -4  -6    4.20    0.39
   4  -4  -5    0.52    0.19
   4  -4  -5    0.55    0.19
   4  -4  -4    0.19    0.12
   4  -4  -4    0.39    0.17
   4  -4  -3    5.99    0.69
   4  -4  -3    7.53    0.62
   4  -4  -3    6.42    0.72
  -4   4   3    6.52    0.86
   4  -4  -2   11.73    0.96
   4  -4  -2   11.61    1.06
   4  -4  -1    0.32    0.13
   4  -4  -1    0.41    0.22
   4  -4   0   14.95    1.05
   4  -4   0   14.36    0.81
   4  -4   0   14.80    1.42
   4  -4   1    9.60    0.86
   4  -4   1   10.50    0.66
   4  -4   1    9.27    1.11
   4  -4   2    0.59    0.15
   4  -4   2    0.25    0.23
   4  -4   2    0.55    0.20
  -4   4  -3    2.04    0.49
   4  -4   3    1.85    0.36
   4  -4   3    1.54    0.45
   4  -4   3    1.73    0.26
  -4   4  -4    0.93    0.36
   4  -4   4    0.96    0.22
   4  -4   4    1.42    0.23
   4  -4   5    0.37    0.12
  -4   4  -5    0.32    0.24
   4  -4   5    0.46    0.16
   4  -4   6    2.03    0.28
  -4   4  -6    3.10    0.64
  -4   4  -7   27.00    2.04
   4  -4   7   28.33    1.11
  -4   4  -8   13.10    1.41
   4  -4   8   10.52    0.50
  -4   4  -9   13.71    1.49
  -4   4 -10    0.15    0.19
  -4   4 -11    0.61    0.39
  -4   4 -12    1.16    0.54
  -4   4 -13    3.66    0.93
   4  -3 -13    1.34    0.40
   4  -3 -12    0.09    0.14
   4  -3 -11    0.14    0.15
   4  -3 -11    0.10    0.08
   4  -3 -10    0.07    0.04
   4  -3 -10    0.13    0.07
   4  -3  -9    4.83    0.38
   4  -3  -9    5.89    0.66
   4  -3  -8    1.76    0.25
   4  -3  -7    4.83    0.55
   4  -3  -7    4.33    0.45
  -4   3   7    5.70    1.06
   4  -3  -6    0.05    0.07
  -4   3   6   -0.03    0.15
   4  -3  -5    3.04    0.48
   4  -3  -4    0.48    0.21
   4  -3  -3    3.00    0.53
   4  -3  -2    3.80    0.60
  -4   3   2    3.05    0.58
   4  -3  -2    2.65    0.54
   4  -3  -1    1.40    0.35
   4  -3  -1    2.46    0.55
   4  -3   0    4.90    0.64
   4  -3   0    5.71    0.88
   4  -3   1    9.60    0.90
   4  -3   1   10.59    1.20
  -4   3  -2   12.12    1.19
   4  -3   2   11.89    1.02
   4  -3   2   11.96    1.27
  -4   3  -3    1.96    0.49
   4  -3   3    1.53    0.35
   4  -3   4    0.01    0.12
  -4   3  -4    0.17    0.20
  -4   3  -5   12.57    1.32
   4  -3   5   10.89    0.93
   4  -3   5   12.52    0.57
  -4   3  -6   38.86    2.42
   4  -3   6   32.72    1.07
   4  -3   7    0.63    0.12
   4  -3   7    0.52    0.09
  -4   3  -8   55.12    3.11
  -4   3  -9    0.70    0.38
  -4   3 -10    3.08    0.73
  -4   3 -11    0.49    0.36
  -4   3 -12   10.69    1.50
  -4   3 -13    9.86    1.52
   4  -2 -14   -0.01    0.10
   4  -2 -14    0.16    0.12
   4  -2 -13    4.10    0.62
   4  -2 -13    3.15    0.38
   4  -2 -12    0.62    0.23
   4  -2 -12    0.64    0.16
   4  -2 -11    1.04    0.18
   4  -2 -10    0.63    0.15
   4  -2  -9    0.28    0.10
   4  -2  -8    0.08    0.05
   4  -2  -8    0.00    0.12
   4  -2  -7    0.30    0.14
  -4   2   7    0.47    0.30
   4  -2  -6    0.04    0.07
  -4   2   6    0.42    0.27
   4  -2  -5    0.88    0.28
  -4   2   5    1.29    0.46
   4  -2  -4    0.75    0.26
   4  -2  -3    0.29    0.16
   4  -2  -2   28.15    1.94
   4  -2  -1   50.75    2.55
   4  -2  -1   48.11    2.75
   4  -2   0    0.17    0.14
   4  -2   0    0.11    0.16
   4  -2   1   25.73    1.64
   4  -2   1   26.58    1.97
  -4   2  -2   22.83    1.67
   4  -2   2   23.48    1.50
   4  -2   2   20.01    1.69
  -4   2  -3   -0.13    0.13
   4  -2   3    0.18    0.17
  -4   2  -4   13.52    1.38
   4  -2   4   13.91    1.12
   4  -2   5    0.16    0.16
  -4   2  -5   -0.17    0.15
   4  -2   6    4.29    0.38
  -4   2  -6    5.36    0.89
  -4   2  -7   13.07    1.42
  -4   2  -8   14.56    1.55
  -4   2  -9   18.70    1.81
  -4   2 -10   11.73    1.49
  -4   2 -11    0.01    0.07
  -4   2 -12    0.47    0.36
  -4   2 -13    2.82    0.84
   4  -1 -15    5.77    0.61
   4  -1 -14    1.79    0.39
   4  -1 -14    1.88    0.31
   4  -1 -13    0.24    0.10
   4  -1 -12    0.56    0.15
   4  -1 -11    1.61    0.25
   4  -1 -10    0.67    0.18
   4  -1  -9   -0.03    0.11
   4  -1  -8    0.60    0.22
   4  -1  -7    0.06    0.09
  -4   1   7   -0.05    0.10
   4  -1  -6   11.77    1.07
  -4   1   6   12.75    1.52
   4  -1  -5   12.13    1.14
  -4   1   5   14.17    1.52
  -4   1   4    4.79    0.85
   4  -1  -4    4.96    0.73
   4  -1  -3    0.12    0.10
   4  -1  -2    3.97    0.71
   4  -1  -1    0.84    0.36
   4  -1   0    0.70    0.34
   4  -1   0    0.95    0.35
   4  -1   1   20.67    1.56
   4  -1   1   21.54    1.78
   4  -1   2    2.82    0.62
   4  -1   2    2.65    0.51
  -4   1  -3   15.22    1.45
   4  -1   3   14.70    1.22
  -4   1  -4   12.37    1.34
   4  -1   4    8.40    0.66
   4  -1   4   11.70    1.07
  -4   1  -5    0.25    0.12
   4  -1   5    0.41    0.13
   4  -1   5    0.09    0.14
  -4   1  -6   12.49    1.42
   4  -1   6   11.00    0.67
   4  -1   7    2.95    0.25
  -4   1  -7    4.37    0.83
  -4   1  -8   14.48    1.60
  -4   1  -9    2.54    0.68
  -4   1 -10    0.62    0.31
  -4   1 -11   13.42    1.72
  -4   1 -12    0.32    0.21
  -4   1 -13    4.60    1.07
   4   0 -15    0.41    0.15
   4   0 -14    0.12    0.07
   4   0 -13    0.26    0.11
   4   0 -12    2.96    0.37
   4   0 -11    3.70    0.44
   4   0 -10    0.61    0.18
   4   0  -9    8.59    0.86
   4   0  -8   71.24    2.90
   4   0  -7   40.59    2.14
  -4   0   7   40.02    2.93
   4   0  -6    0.20    0.16
  -4   0   6   -0.12    0.04
   4   0  -5    8.28    0.96
  -4   0   5   10.33    1.34
  -4   0   4    1.31    0.46
   4   0  -4    1.26    0.39
   4   0  -3   18.24    1.55
   4   0  -2   34.57    2.28
   4   0  -1  145.58    5.51
   4   0   0    9.23    1.18
   4   0   1    2.62    0.64
   4   0   2   12.26    0.89
   4   0   2   14.61    1.45
  -4   0  -3   15.03    1.45
   4   0   3   11.70    0.89
   4   0   3   14.49    1.22
   4   0   3   10.89    1.21
  -4   0  -4    7.38    1.09
   4   0   4    7.48    0.68
   4   0   4    5.98    0.81
  -4   0  -5    5.04    0.91
   4   0   5    4.79    0.52
   4   0   5    5.52    0.73
  -4   0  -6    1.06    0.45
   4   0   6    1.47    0.26
  -4   0  -7    2.55    0.71
   4   0   7    1.47    0.22
  -4   0  -8    7.96    1.24
   4   0   8    6.83    0.40
  -4   0  -9   24.25    2.25
  -4   0 -10    9.17    1.41
  -4   0 -11    8.08    1.38
  -4   0 -12    0.12    0.14
  -4   0 -13    0.75    0.45
   4   1 -15    0.12    0.09
   4   1 -14    1.32    0.24
   4   1 -13    1.50    0.26
   4   1 -12    0.12    0.07
   4   1 -11    0.03    0.04
   4   1 -10    2.62    0.41
   4   1 -10    3.00    0.50
   4   1  -9   26.73    1.63
   4   1  -8   22.04    1.52
   4   1  -7    0.58    0.23
   4   1  -6    0.40    0.21
  -4  -1   6    0.83    0.42
   4   1  -5    4.89    0.75
  -4  -1   5    5.79    1.00
   4   1  -4    1.58    0.43
   4   1  -3    2.01    0.50
   4   1  -2    3.54    0.70
   4   1  -1    5.62    0.92
   4   1   0   12.44    1.00
   4   1   0   14.76    1.53
   4   1   1   27.40    2.02
   4   1   1   29.35    1.61
   4   1   1   27.31    2.13
   4   1   2    5.96    0.85
   4   1   2    4.98    0.62
   4   1   2    4.66    0.83
   4   1   3    6.03    0.67
   4   1   3    5.75    0.80
   4   1   3    4.97    0.84
  -4  -1  -4    7.96    1.14
   4   1   4    6.86    0.71
   4   1   4    6.92    0.87
  -4  -1  -5   11.84    1.44
   4   1   5    8.99    0.79
  -4  -1  -6    1.07    0.44
   4   1   6    0.43    0.14
  -4  -1  -7    0.08    0.20
   4   1   7    0.35    0.12
  -4  -1  -8    6.29    1.13
   4   1   8    4.40    0.40
  -4  -1  -9    5.08    1.05
  -4  -1 -10    1.21    0.54
  -4  -1 -11    1.53    0.65
  -4  -1 -12    9.66    1.64
  -4  -1 -13    0.75    0.54
   4   2 -15    3.36    0.40
   4   2 -14    1.26    0.25
   4   2 -13    0.04    0.07
   4   2 -12    0.57    0.19
   4   2 -11    1.78    0.35
   4   2 -10   11.03    1.02
   4   2 -10    8.98    0.85
   4   2  -9   37.89    2.03
   4   2  -8   31.23    1.89
   4   2  -7    0.03    0.10
   4   2  -6    3.18    0.61
  -4  -2   6    4.55    0.96
   4   2  -5    0.89    0.31
  -4  -2   5    1.29    0.49
   4   2  -4    0.04    0.08
   4   2  -4    0.09    0.12
  -4  -2   3    0.71    0.36
   4   2  -3    0.73    0.24
   4   2  -3    0.29    0.13
  -4  -2   2    0.22    0.16
   4   2  -2    0.33    0.18
   4   2  -2    0.45    0.29
   4   2  -1    8.32    0.89
   4   2  -1    9.30    1.22
  -4  -2   1    7.62    1.04
   4   2   0    8.09    1.13
   4   2   0    7.83    0.86
   4   2   0    9.50    1.27
   4   2   1    1.12    0.42
   4   2   1    1.22    0.41
   4   2   1    0.91    0.28
   4   2   2   24.11    1.83
   4   2   2   21.45    1.45
   4   2   2   20.71    1.88
   4   2   3    0.18    0.20
   4   2   3    0.24    0.11
   4   2   3    0.26    0.15
   4   2   4    0.44    0.25
   4   2   4    0.31    0.16
   4   2   4    0.21    0.17
   4   2   5    0.32    0.16
  -4  -2  -5    0.30    0.22
  -4  -2  -6    8.60    1.31
  -4  -2  -6    9.01    0.93
   4   2   6    9.02    0.82
  -4  -2  -7    0.55    0.34
  -4  -2  -7    0.30    0.16
   4   2   7    0.49    0.15
  -4  -2  -8    0.19    0.07
  -4  -2  -9    5.67    1.14
  -4  -2 -10    7.66    1.35
  -4  -2 -11   11.92    1.76
  -4  -2 -12   -0.06    0.49
   4   3 -14    0.17    0.11
   4   3 -13    3.18    0.44
   4   3 -12    3.90    0.53
   4   3 -11    0.70    0.23
   4   3 -10   13.78    1.16
   4   3 -10   12.61    1.05
   4   3  -9   22.46    1.55
   4   3  -8    0.49    0.22
   4   3  -7    3.79    0.65
   4   3  -6    0.10    0.10
   4   3  -5    0.09    0.13
   4   3  -5    0.00    0.05
  -4  -3   5    0.12    0.12
  -4  -3   4    1.40    0.51
   4   3  -4    1.00    0.33
   4   3  -4    1.11    0.36
  -4  -3   3    1.92    0.55
   4   3  -3    3.08    0.57
   4   3  -3    3.52    0.69
   4   3  -2    9.93    1.05
   4   3  -2   11.81    1.33
  -4  -3   2   10.09    1.25
   4   3  -1   18.98    1.47
   4   3  -1   23.04    1.97
  -4  -3   1   19.05    1.73
   4   3   0    5.55    0.92
   4   3   0    7.49    0.90
   4   3   0    8.81    1.26
   4   3   1    4.79    0.94
   4   3   1    4.99    0.90
   4   3   1    4.18    0.67
   4   3   2    0.21    0.16
   4   3   2    0.34    0.25
  -4  -3  -2    0.22    0.18
   4   3   2    0.10    0.07
  -4  -3  -3    9.16    1.00
   4   3   3    8.11    1.01
   4   3   3    7.76    0.89
   4   3   3    7.82    1.14
  -4  -3  -4   14.74    1.29
   4   3   4   15.43    1.37
   4   3   4   12.98    1.13
   4   3   4   12.21    1.37
   4   3   5    3.33    0.67
  -4  -3  -5    3.84    0.64
   4   3   5    3.26    0.55
  -4  -3  -6   18.86    1.48
   4   3   6   17.81    1.23
  -4  -3  -7    0.85    0.30
  -4  -3  -8    0.81    0.34
  -4  -3  -8    1.29    0.38
  -4  -3  -9    1.66    0.62
  -4  -3  -9    1.27    0.37
  -4  -3 -10    4.99    1.10
  -4  -3 -11    0.34    0.39
  -4  -3 -12    4.55    1.08
   4   4 -14    0.19    0.13
   4   4 -13    0.02    0.07
   4   4 -12    0.11    0.09
   4   4 -11   -0.39    0.18
   4   4 -10   -0.66    0.23
   4   4 -10    0.07    0.08
   4   4  -9    0.17    0.13
   4   4  -8    0.37    0.20
   4   4  -7    1.21    0.37
   4   4  -6    0.48    0.24
   4   4  -5    1.96    0.49
   4   4  -4    4.92    0.80
  -4  -4   4    5.39    0.99
   4   4  -3   23.13    1.82
  -4  -4   3   20.20    1.86
   4   4  -2    9.48    1.19
  -4  -4   2   10.88    1.33
   4   4  -1    6.90    1.06
  -4  -4   1    5.70    0.95
   4   4   0    4.98    0.87
  -4  -4   0    4.44    0.73
   4   4   0    4.21    0.88
   4   4   1    4.75    0.95
   4   4   1    5.66    0.92
  -4  -4  -1    3.32    0.64
   4   4   2    0.05    0.15
   4   4   2    0.08    0.16
  -4  -4  -2   -0.01    0.05
   4   4   3    4.42    0.90
  -4  -4  -3    4.37    0.74
   4   4   3    4.36    0.74
   4   4   4    0.51    0.31
  -4  -4  -4    0.67    0.30
   4   4   5    0.63    0.30
  -4  -4  -5    1.09    0.39
   4   4   6    0.68    0.28
  -4  -4  -6    1.44    0.43
   4   4   7    0.10    0.04
  -4  -4  -7    0.57    0.29
   4   4   8    1.51    0.42
  -4  -4  -8    5.25    0.87
   4   4   9   -0.06    0.13
   4   4  10   -0.05    0.11
   4   5 -14    0.07    0.08
   4   5 -13    0.37    0.13
   4   5 -12    0.70    0.23
   4   5 -11   -0.07    0.13
   4   5 -10   -0.12    0.24
   4   5 -10    0.04    0.07
   4   5  -9    3.55    0.60
   4   5  -8    2.21    0.49
   4   5  -7    3.70    0.64
   4   5  -6    0.60    0.26
   4   5  -5    2.76    0.58
  -4  -5   4    0.25    0.20
   4   5  -4    0.03    0.16
  -4  -5   3    3.52    0.77
   4   5  -3    4.60    0.87
  -4  -5   2   69.13    3.37
   4   5  -2   68.46    3.45
  -4  -5   2   68.31    3.69
   4   5  -1   11.18    1.28
  -4  -5   1   16.02    1.50
   4   5  -1   15.97    1.63
   4   5   0    1.12    0.41
  -4  -5   0    0.69    0.33
   4   5   0    0.91    0.43
  -4  -5  -1    4.61    0.81
   4   5   1    4.44    0.83
   4   5   1    5.91    1.08
   4   5   2    1.63    0.55
  -4  -5  -2    1.36    0.44
   4   5   2    1.26    0.41
   4   5   3    1.15    0.46
  -4  -5  -3    0.91    0.36
  -4  -5  -4   12.30    1.39
   4   5   4   11.80    1.52
   4   5   5    0.31    0.23
  -4  -5  -5    0.08    0.13
   4   5   6    2.82    0.64
  -4  -5  -6    2.81    0.69
   4   5   7   -0.01    0.06
  -4  -5  -7    0.03    0.15
  -4  -5  -8    0.09    0.11
   4   6 -13    0.17    0.13
   4   6 -12   -0.01    0.03
   4   6 -11    0.14    0.04
   4   6 -10    3.05    0.50
   4   6  -9    2.97    0.54
   4   6  -8    1.67    0.40
   4   6  -7    0.39    0.20
   4   6  -6    1.24    0.37
   4   6  -5    0.06    0.10
   4   6  -4    6.72    0.93
  -4  -6   3   39.43    2.59
   4   6  -3   35.62    2.30
  -4  -6   2   14.25    1.52
   4   6  -2   12.75    1.36
  -4  -6   1    1.93    0.55
   4   6  -1    1.90    0.56
  -4  -6   0    8.93    1.21
   4   6   0    9.29    1.28
  -4  -6  -1    4.52    0.87
   4   6   1    6.34    1.08
  -4  -6  -2    0.44    0.28
   4   6   2    0.87    0.43
  -4  -6  -3    0.16    0.15
   4   6   3   -0.44    0.29
   4   6   4    0.61    0.35
  -4  -6  -4    1.06    0.43
  -4  -6  -5   -0.10    0.16
  -4  -6  -6    0.15    0.24
  -4  -6  -7   -0.11    0.20
   4   7 -12    2.30    0.40
   4   7 -11    1.43    0.33
   4   7 -10    0.09    0.15
   4   7  -9    1.31    0.31
   4   7  -8    0.49    0.24
   4   7  -7    0.07    0.10
   4   7  -6    0.31    0.20
   4   7  -5    0.22    0.11
  -4  -7   4    0.79    0.38
   4   7  -4    1.47    0.42
  -4  -7   3    1.08    0.45
   4   7  -3    1.19    0.41
  -4  -7   2    1.83    0.58
   4   7  -2    1.78    0.49
  -4  -7   1    2.54    0.68
   4   7  -1    2.99    0.65
  -4  -7   0    0.67    0.39
   4   7   0    0.49    0.28
  -4  -7  -1    0.51    0.33
  -4  -7  -2    0.24    0.28
  -4  -7  -3    1.74    0.58
  -4  -7  -4    0.79    0.41
  -4  -7  -5    4.21    0.95
   4   8 -11   -0.03    0.04
   4   8 -10    1.68    0.35
   4   8  -9   -0.02    0.10
   4   8  -8    0.02    0.09
   4   8  -7    1.36    0.36
   4   8  -6    0.43    0.18
   4   8  -5    1.46    0.38
  -4  -8   4    1.89    0.61
  -4  -8   3    5.17    1.05
  -4  -8   2   -0.35    0.27
  -4  -8   1    0.10    0.13
  -4  -8   0    0.23    0.20
  -4  -8  -1    0.93    0.44
   4   9 -10    0.34    0.15
   4   9  -9    0.22    0.09
   4   9  -8   -0.11    0.17
   5 -10   5    0.55    0.32
   5 -10   6   -0.14    0.25
   5  -9   1    0.38    0.26
   5  -9   2    0.89    0.38
   5  -9   3   -0.07    0.24
   5  -9   4    0.46    0.32
   5  -9   5    0.14    0.11
   5  -9   6    0.03    0.05
   5  -8  -2    0.06    0.07
   5  -8  -1    0.03    0.13
   5  -8   0    0.64    0.32
   5  -8   1    0.01    0.10
   5  -8   2    5.35    0.85
   5  -8   3    0.77    0.32
   5  -8   4    2.83    0.63
   5  -8   5    0.39    0.22
  -5   8  -6    0.99    0.44
   5  -8   6    0.54    0.27
   5  -8   6    1.25    0.40
   5  -8   7    1.58    0.50
  -5   8  -7    2.61    0.69
   5  -8   7    3.17    0.62
  -5   8  -8    2.98    0.82
  -5   8  -9    0.72    0.40
  -5   8 -10    1.85    0.65
  -5   8 -11    0.90    0.49
   5  -7  -5   -0.12    0.19
   5  -7  -4    0.94    0.34
   5  -7  -3    0.67    0.25
   5  -7  -2    0.20    0.17
   5  -7  -1   -0.05    0.11
   5  -7   0   -0.10    0.18
   5  -7   1    0.41    0.24
   5  -7   1    0.37    0.16
   5  -7   2    0.36    0.16
   5  -7   2    0.19    0.17
   5  -7   3    0.93    0.36
   5  -7   3    0.96    0.30
   5  -7   4    1.88    0.53
   5  -7   4    2.27    0.48
  -5   7  -5    0.37    0.25
   5  -7   5    0.17    0.19
   5  -7   5    0.14    0.09
   5  -7   6    1.24    0.45
  -5   7  -6    1.24    0.47
   5  -7   6    1.52    0.40
  -5   7  -7    0.32    0.24
   5  -7   7    0.30    0.16
  -5   7  -8    0.04    0.17
  -5   7  -9    0.38    0.25
  -5   7 -10    2.38    0.73
  -5   7 -11    4.60    1.07
  -5   7 -12    0.01    0.14
   5  -6  -7    0.77    0.35
   5  -6  -6    2.59    0.55
   5  -6  -5    0.30    0.18
   5  -6  -4    6.09    0.78
   5  -6  -3    0.82    0.28
   5  -6  -3    0.87    0.24
   5  -6  -2    0.17    0.11
   5  -6  -2    0.15    0.15
   5  -6  -1    0.22    0.14
   5  -6  -1    0.26    0.17
   5  -6   0    2.13    0.41
   5  -6   0    2.33    0.34
   5  -6   0    2.19    0.55
   5  -6   1    2.25    0.42
   5  -6   1    2.67    0.36
   5  -6   1    2.45    0.63
   5  -6   2   -0.01    0.02
   5  -6   2   -0.05    0.11
   5  -6   2   -0.01    0.05
   5  -6   3    1.00    0.39
   5  -6   3    1.05    0.23
   5  -6   3    0.71    0.23
  -5   6  -4    2.01    0.57
   5  -6   4    2.17    0.59
   5  -6   4    1.46    0.34
  -5   6  -5    1.50    0.50
   5  -6   5    0.90    0.39
   5  -6   5    1.27    0.31
  -5   6  -6    2.59    0.68
   5  -6   6    2.12    0.40
  -5   6  -7    0.12    0.23
   5  -6   7    0.02    0.07
  -5   6  -8    0.82    0.41
   5  -6   8    0.78    0.24
  -5   6  -9    0.77    0.45
  -5   6 -10    0.03    0.09
  -5   6 -11   -0.09    0.12
  -5   6 -12    1.33    0.55
   5  -5  -9    0.51    0.25
   5  -5  -8    0.33    0.21
   5  -5  -7    9.94    1.02
   5  -5  -6    3.16    0.53
   5  -5  -5    0.07    0.10
   5  -5  -5   -0.02    0.06
   5  -5  -4    2.92    0.47
   5  -5  -4    3.03    0.52
   5  -5  -3    1.95    0.40
   5  -5  -3    2.89    0.45
   5  -5  -3    2.90    0.54
   5  -5  -2    3.10    0.48
   5  -5  -2    3.75    0.49
   5  -5  -1    1.21    0.27
   5  -5  -1    0.77    0.24
   5  -5  -1    1.10    0.41
   5  -5   0    0.58    0.18
   5  -5   0    0.42    0.17
   5  -5   0    0.72    0.33
   5  -5   1    0.78    0.38
   5  -5   1    0.66    0.19
   5  -5   1    0.53    0.20
   5  -5   2    1.19    0.31
   5  -5   2    1.10    0.26
   5  -5   2    1.46    0.48
   5  -5   3    0.46    0.16
   5  -5   3    0.10    0.14
   5  -5   3    0.52    0.15
   5  -5   4    0.29    0.14
  -5   5  -4    0.04    0.09
   5  -5   4    0.34    0.27
  -5   5  -5    0.47    0.29
   5  -5   5    0.51    0.17
  -5   5  -6    4.88    0.93
   5  -5   6    5.79    0.57
  -5   5  -7    0.10    0.19
   5  -5   7    0.18    0.10
  -5   5  -8    1.28    0.50
   5  -5   8    0.66    0.16
  -5   5  -9    9.48    1.39
  -5   5 -10    9.12    1.42
  -5   5 -11    1.69    0.64
  -5   5 -12    0.80    0.43
   5  -4 -11    8.86    1.06
   5  -4 -10    3.46    0.63
   5  -4  -9    0.18    0.11
   5  -4  -8    0.45    0.20
   5  -4  -8    0.35    0.13
   5  -4  -7   -0.09    0.12
   5  -4  -7   -0.01    0.03
  -5   4   6    2.30    0.66
   5  -4  -6    2.39    0.44
  -5   4   5   -0.07    0.15
   5  -4  -5    0.00    0.07
   5  -4  -4    1.93    0.45
  -5   4   4    2.13    0.58
   5  -4  -4    1.64    0.41
   5  -4  -3    9.99    1.06
   5  -4  -3    9.86    1.10
  -5   4   3    8.35    1.11
   5  -4  -2    3.32    0.59
   5  -4  -2    4.04    0.75
   5  -4  -1    0.96    0.29
   5  -4  -1    0.74    0.35
   5  -4   0    0.54    0.25
   5  -4   0    0.58    0.31
   5  -4   1    5.42    0.72
   5  -4   1    5.24    0.98
   5  -4   2    6.09    0.76
   5  -4   2    5.12    0.94
   5  -4   3    1.38    0.47
   5  -4   3    1.15    0.34
  -5   4  -4    0.12    0.17
   5  -4   4    0.05    0.06
   5  -4   4    0.08    0.15
  -5   4  -5    4.72    0.88
   5  -4   5    3.43    0.35
  -5   4  -6    8.67    1.26
   5  -4   6    8.09    0.56
  -5   4  -7    0.04    0.15
   5  -4   7    0.25    0.07
  -5   4  -8    0.79    0.38
   5  -4   8    0.86    0.15
  -5   4  -9   -0.02    0.11
  -5   4 -10    0.24    0.21
  -5   4 -11    0.59    0.42
  -5   4 -12    0.32    0.37
   5  -3 -12    0.56    0.26
   5  -3 -11    0.26    0.18
   5  -3 -11    0.37    0.12
   5  -3 -10    0.74    0.17
   5  -3  -9    2.93    0.38
   5  -3  -8    0.94    0.23
   5  -3  -8    1.28    0.32
   5  -3  -7    0.40    0.20
  -5   3   6    1.82    0.60
   5  -3  -6    1.61    0.40
  -5   3   5    0.01    0.10
   5  -3  -5    0.05    0.11
  -5   3   4   -0.02    0.18
   5  -3  -4   -0.02    0.10
   5  -3  -3   17.71    1.62
   5  -3  -3   16.30    1.53
  -5   3   3   16.08    1.58
   5  -3  -2    2.72    0.59
  -5   3   2    3.11    0.68
   5  -3  -2    4.06    0.80
   5  -3  -1    1.36    0.41
   5  -3  -1    1.90    0.57
   5  -3   0    0.02    0.09
   5  -3   0    0.03    0.04
   5  -3   1    0.06    0.17
   5  -3   1    0.15    0.13
   5  -3   2    1.22    0.44
   5  -3   2    1.17    0.33
   5  -3   3    3.40    0.75
   5  -3   3    3.51    0.60
  -5   3  -4    5.32    0.95
   5  -3   4    2.75    0.65
  -5   3  -5    0.85    0.38
  -5   3  -6    1.82    0.59
   5  -3   7    3.99    0.39
  -5   3  -7    5.61    1.05
   5  -3   7    5.96    0.36
  -5   3  -8    1.19    0.47
  -5   3  -9    1.65    0.56
  -5   3 -10    0.11    0.12
  -5   3 -11    0.12    0.07
  -5   3 -12    0.85    0.43
   5  -2 -13    0.10    0.06
   5  -2 -12    0.05    0.07
   5  -2 -11    0.14    0.09
   5  -2 -10    2.98    0.42
   5  -2  -9   15.56    1.21
   5  -2  -9   15.07    1.05
   5  -2  -8    0.24    0.11
   5  -2  -7   19.95    1.50
   5  -2  -6   53.02    2.70
   5  -2  -5   22.13    1.73
  -5   2   5   22.06    2.05
   5  -2  -4    6.20    0.92
  -5   2   4    5.12    0.91
  -5   2   3    1.66    0.51
   5  -2  -3    1.58    0.49
   5  -2  -2    7.55    1.12
   5  -2  -2    6.84    1.07
  -5   2   2    5.56    0.91
   5  -2  -1   31.67    2.27
   5  -2  -1   29.38    2.39
   5  -2   0   29.92    2.13
   5  -2   0   33.36    2.58
   5  -2   1   12.29    1.27
   5  -2   1   17.02    1.76
   5  -2   2    0.16    0.19
   5  -2   2   -0.08    0.11
   5  -2   3    2.57    0.63
   5  -2   3    2.70    0.55
  -5   2  -4   -0.18    0.17
   5  -2   4    0.05    0.05
  -5   2  -5    1.23    0.46
   5  -2   6    3.15    0.39
  -5   2  -6    4.35    0.90
  -5   2  -7    2.24    0.70
   5  -2   7    0.73    0.16
  -5   2  -8    0.84    0.40
  -5   2  -9    4.56    1.01
  -5   2 -10    0.11    0.23
  -5   2 -11    1.32    0.60
  -5   2 -12    0.46    0.36
   5  -1 -14    0.06    0.04
   5  -1 -13    2.37    0.33
   5  -1 -12    0.70    0.20
   5  -1 -11    1.20    0.26
   5  -1 -10    0.05    0.11
   5  -1 -10    0.25    0.17
   5  -1  -9    0.01    0.07
   5  -1  -8    0.18    0.14
   5  -1  -7   32.29    2.07
   5  -1  -6   14.85    1.39
  -5   1   5    4.52    0.93
   5  -1  -5    3.76    0.71
  -5   1   4    1.43    0.48
   5  -1  -4    1.24    0.43
  -5   1   3    0.38    0.27
   5  -1  -3    0.84    0.36
  -5   1   2    0.02    0.05
   5  -1  -2    0.11    0.19
   5  -1  -1    2.46    0.66
  -5   1   1    0.55    0.30
   5  -1  -1    1.53    0.57
   5  -1   0   15.24    1.57
   5  -1   0   14.09    1.66
   5  -1   1    1.13    0.47
   5  -1   1    1.26    0.42
   5  -1   2    5.90    0.87
   5  -1   2    5.89    1.03
   5  -1   3    1.08    0.40
  -5   1  -4    0.05    0.05
   5  -1   4    0.02    0.08
   5  -1   4    0.11    0.07
  -5   1  -5    1.32    0.47
   5  -1   5    1.18    0.27
  -5   1  -6    7.38    1.21
   5  -1   6    6.55    0.62
  -5   1  -7    0.77    0.35
   5  -1   7    0.48    0.14
  -5   1  -8    3.50    0.88
   5  -1   8    2.97    0.25
  -5   1  -9    9.02    1.49
  -5   1 -10    0.41    0.31
  -5   1 -11    0.26    0.34
  -5   1 -12    0.51    0.36
   5   0 -14    0.90    0.21
   5   0 -13    2.99    0.40
   5   0 -12    0.22    0.11
   5   0 -11   -0.05    0.15
   5   0 -10    1.08    0.33
   5   0  -9    4.51    0.71
   5   0  -8   25.24    1.81
   5   0  -7   37.92    2.33
   5   0  -6   17.64    1.58
   5   0  -5    5.18    0.85
  -5   0   4    0.12    0.15
   5   0  -4    0.18    0.12
  -5   0   3    1.89    0.56
   5   0  -3    2.69    0.67
  -5   0   2    0.45    0.25
   5   0  -2    0.60    0.31
   5   0  -1    7.86    1.24
   5   0  -1    8.54    1.30
  -5   0   1    6.75    1.06
   5   0   0    1.51    0.54
   5   0   0    1.27    0.48
   5   0   1    0.39    0.27
   5   0   1    0.31    0.19
   5   0   2    0.04    0.13
   5   0   2    0.23    0.23
   5   0   2    0.40    0.16
   5   0   3    2.57    0.64
   5   0   3    2.98    0.48
   5   0   4    6.97    0.74
   5   0   4    6.02    0.97
  -5   0  -5    5.04    0.99
   5   0   5    3.60    0.51
  -5   0  -6    4.10    0.91
   5   0   6    2.82    0.43
  -5   0  -7    0.06    0.21
   5   0   7    0.27    0.12
  -5   0  -8    2.15    0.71
  -5   0  -9    0.91    0.49
  -5   0 -10    0.06    0.19
  -5   0 -11    0.72    0.43
  -5   0 -12    0.46    0.37
   5   1 -14    2.15    0.35
   5   1 -13    6.48    0.66
   5   1 -12    1.02    0.28
   5   1 -11    0.71    0.29
   5   1 -11    0.44    0.15
   5   1 -10    4.67    0.72
   5   1  -9   -0.02    0.03
   5   1  -8    5.39    0.83
   5   1  -7   30.23    2.11
   5   1  -6    6.69    0.97
   5   1  -5    6.39    0.98
   5   1  -4    3.07    0.70
  -5  -1   3    0.00    0.12
   5   1  -3    0.22    0.19
  -5  -1   2    2.05    0.58
   5   1  -2    1.73    0.56
  -5  -1   1    1.22    0.48
   5   1  -1    1.08    0.58
   5   1   0   37.61    2.74
   5   1   0   34.48    2.70
   5   1   1   19.19    1.87
   5   1   1   14.21    1.19
   5   1   1   17.74    1.90
   5   1   2    9.91    0.97
   5   1   2   11.06    1.44
   5   1   3    0.06    0.08
   5   1   3    0.17    0.14
   5   1   4    8.88    0.90
   5   1   4    5.61    0.96
   5   1   5   -0.01    0.10
   5   1   5    0.17    0.15
  -5  -1  -6   -0.15    0.18
   5   1   6    0.13    0.11
  -5  -1  -7   23.62    2.40
   5   1   7   19.84    1.23
  -5  -1  -8    0.60    0.39
  -5  -1  -9    4.88    1.13
  -5  -1 -10    7.19    1.41
  -5  -1 -11    0.17    0.09
   5   2 -14    0.18    0.10
   5   2 -13   -0.03    0.09
   5   2 -12    1.00    0.29
   5   2 -11    0.24    0.19
   5   2 -11    0.03    0.08
   5   2 -10    0.34    0.23
   5   2  -9    0.99    0.35
   5   2  -8    0.11    0.11
   5   2  -7    1.95    0.53
   5   2  -6    0.27    0.24
   5   2  -5    1.39    0.45
   5   2  -4    2.42    0.63
   5   2  -3    2.83    0.70
  -5  -2   2    0.16    0.15
   5   2  -2    0.05    0.10
   5   2  -2    0.22    0.27
   5   2  -1   10.15    1.05
  -5  -2   1    9.53    1.32
   5   2   0   29.04    1.87
   5   2   0   36.80    2.91
   5   2   1    4.50    0.70
   5   2   1    7.65    1.27
   5   2   2    0.52    0.32
   5   2   2    0.24    0.14
   5   2   3    0.48    0.32
   5   2   3    0.31    0.21
   5   2   4    0.26    0.18
   5   2   4    0.10    0.06
   5   2   5    0.24    0.16
   5   2   5    0.23    0.11
   5   2   6   -0.04    0.06
   5   2   6    0.15    0.12
   5   2   7    0.71    0.33
  -5  -2  -8    1.11    0.41
  -5  -2  -9    7.14    1.38
  -5  -2 -10    0.78    0.42
  -5  -2 -11    1.75    0.70
   5   3 -14    1.51    0.33
   5   3 -13    0.53    0.18
   5   3 -12    0.32    0.16
   5   3 -11    1.21    0.38
   5   3 -10    2.66    0.58
   5   3  -9    1.44    0.44
   5   3  -8    0.25    0.21
   5   3  -7    5.65    0.91
   5   3  -6    0.05    0.14
   5   3  -5   11.35    1.34
   5   3  -4    0.67    0.35
   5   3  -3   10.41    1.37
   5   3  -2    0.52    0.23
   5   3  -1   45.70    3.26
   5   3   0   77.28    4.51
   5   3   1   15.85    1.95
   5   3   2    0.36    0.30
   5   3   3    1.65    0.55
   5   3   4   -0.10    0.17
   5   3   5    5.60    0.97
   5   3   6    1.21    0.41
   5   3   7    1.40    0.43
   5   3   8    0.35    0.19
   5   3   9    0.87    0.33
   5   3  10    0.50    0.25
   5   3  11    0.00    0.09
   5   4 -13    0.54    0.20
   5   4 -12    2.00    0.43
   5   4 -11    0.41    0.23
   5   4 -10    0.85    0.32
   5   4  -9    0.00    0.05
   5   4  -8    3.92    0.73
   5   4  -7    6.85    1.00
   5   4  -6    0.19    0.20
   5   4  -5    0.17    0.11
   5   4  -4    0.72    0.34
   5   4  -3    2.96    0.72
   5   4  -2    2.83    0.77
   5   4  -1   57.32    3.70
   5   4   0   22.48    2.33
   5   4   1    1.37    0.56
   5   4   2    5.74    1.19
   5   4   3    0.05    0.23
   5   4   4   -0.09    0.13
   5   4   5    0.15    0.19
   5   4   6    0.24    0.06
   5   4   7    0.25    0.20
   5   4   8    0.00    0.06
   5   4   9    0.03    0.13
   5   5 -13    9.70    0.94
   5   5 -12   -0.06    0.18
   5   5 -11   -0.24    0.19
   5   5 -11    0.19    0.20
   5   5 -10    7.57    0.97
   5   5  -9    0.67    0.29
   5   5  -8    0.24    0.17
   5   5  -7    1.02    0.38
   5   5  -6    0.95    0.39
   5   5  -5    2.14    0.58
   5   5  -4    0.28    0.20
   5   5  -3    0.48    0.24
   5   5  -2    7.93    1.25
   5   5  -1    2.66    0.76
   5   5   0   -0.02    0.07
   5   5   1   -0.05    0.17
  -5  -5  -2    0.34    0.25
   5   5   2    0.01    0.08
   5   5   3    0.10    0.28
  -5  -5  -3    0.07    0.03
   5   5   4   -0.01    0.16
  -5  -5  -4    0.04    0.15
   5   5   5    0.81    0.41
  -5  -5  -5    0.50    0.32
   5   5   6    4.36    0.88
  -5  -5  -6    5.76    1.03
  -5  -5  -7    2.00    0.61
   5   6 -12    1.86    0.41
   5   6 -11    4.45    0.72
   5   6 -11    4.97    0.71
   5   6 -10    0.06    0.10
   5   6  -9    0.09    0.15
   5   6  -8    6.48    0.94
   5   6  -7   -0.04    0.16
   5   6  -6    3.95    0.76
   5   6  -5    0.42    0.27
   5   6  -4   -0.03    0.10
   5   6  -3    0.45    0.27
   5   6  -2    2.03    0.62
   5   6  -1    5.36    1.05
   5   6   0    0.73    0.41
  -5  -6  -1   -0.05    0.11
   5   6   1   -0.44    0.32
  -5  -6  -2    1.32    0.49
   5   6   2    2.26    0.72
  -5  -6  -3    0.77    0.35
   5   6   3    0.90    0.51
  -5  -6  -4    0.55    0.30
  -5  -6  -5   -0.04    0.11
  -5  -6  -6    3.67    0.84
   5   7 -11   -0.06    0.14
   5   7 -10    1.13    0.31
   5   7 -10    1.46    0.42
   5   7  -9    0.73    0.30
   5   7  -8    1.38    0.41
   5   7  -7    0.55    0.24
   5   7  -6    0.00    0.05
   5   7  -5    0.93    0.38
   5   7  -4    0.58    0.31
   5   7  -3   -0.04    0.23
   5   7  -2    1.72    0.56
   5   7  -1    5.74    1.04
  -5  -7   0    1.46    0.56
  -5  -7  -1    0.18    0.19
  -5  -7  -2    0.13    0.28
  -5  -7  -3    0.61    0.39
   5   8 -10    2.49    0.51
   5   8  -9    0.15    0.18
   5   8  -9   -0.04    0.26
   5   8  -8    0.50    0.25
   5   8  -7    0.71    0.27
   5   8  -6    0.67    0.26
   6  -9   2   -0.05    0.21
   6  -9   3    0.52    0.27
   6  -9   4   -0.15    0.20
   6  -9   5   -0.09    0.17
   6  -8  -1    0.93    0.37
   6  -8   0    0.96    0.35
   6  -8   1    0.17    0.08
   6  -8   2   -0.07    0.05
   6  -8   3    0.76    0.31
   6  -8   4    0.60    0.31
   6  -8   5    0.61    0.28
   6  -8   6    0.06    0.06
  -6   8  -8    0.34    0.30
   6  -8   8   -0.14    0.19
  -6   8  -9    0.46    0.39
   6  -8   9    0.32    0.31
  -6   8 -10    0.38    0.32
   6  -7  -3    2.82    0.58
   6  -7  -2    0.34    0.23
   6  -7  -1   -0.06    0.15
   6  -7   0    6.67    0.83
   6  -7   1    0.04    0.05
   6  -7   2    0.15    0.06
   6  -7   2    0.07    0.04
   6  -7   3    0.07    0.07
   6  -7   3    0.00    0.04
   6  -7   4   -0.50    0.30
   6  -7   4   -0.04    0.15
   6  -7   5   -0.03    0.12
   6  -7   5   -0.05    0.11
   6  -7   6    0.51    0.36
   6  -7   6    0.55    0.22
  -6   7  -6    0.10    0.14
  -6   7  -7   -0.09    0.19
   6  -7   7   -0.05    0.27
  -6   7  -8    0.10    0.23
  -6   7  -9    1.14    0.62
  -6   7 -10    0.96    0.48
   6  -6  -6   14.20    1.30
   6  -6  -5    3.98    0.65
   6  -6  -4    0.08    0.03
   6  -6  -3    1.21    0.34
   6  -6  -3    1.26    0.39
   6  -6  -2    2.51    0.46
   6  -6  -2    2.54    0.60
   6  -6  -1    4.68    0.62
   6  -6  -1    5.61    0.96
   6  -6   0    0.58    0.23
   6  -6   0    1.18    0.44
   6  -6   1    1.01    0.28
   6  -6   1    1.60    0.57
   6  -6   2    1.41    0.51
   6  -6   2    1.78    0.36
   6  -6   3    0.60    0.21
   6  -6   3    0.36    0.25
   6  -6   4    2.29    0.64
   6  -6   4    2.85    0.46
   6  -6   5    1.43    0.55
   6  -6   5    1.66    0.36
  -6   6  -6    0.40    0.29
   6  -6   6    0.32    0.26
   6  -6   6    0.40    0.17
  -6   6  -7    1.49    0.61
   6  -6   7    0.59    0.30
   6  -6   7    1.06    0.29
  -6   6  -8    0.15    0.32
  -6   6  -9    0.04    0.06
  -6   6 -10   -0.07    0.08
  -6   6 -11    0.80    0.48
   6  -5  -7    3.94    0.62
   6  -5  -6    2.56    0.48
   6  -5  -6    1.16    0.34
   6  -5  -5    4.03    0.57
   6  -5  -5    3.03    0.58
   6  -5  -4    9.82    0.87
   6  -5  -4    9.81    1.13
   6  -5  -3    8.80    0.79
   6  -5  -3    9.56    1.19
   6  -5  -2    1.97    0.36
   6  -5  -2    1.45    0.35
   6  -5  -2    1.13    0.42
   6  -5  -1    0.82    0.22
   6  -5  -1    0.89    0.29
   6  -5  -1    1.14    0.47
   6  -5   0    3.27    0.44
   6  -5   0    2.32    0.50
   6  -5   1    1.82    0.68
   6  -5   1    2.07    0.34
   6  -5   2    0.53    0.32
   6  -5   2    1.03    0.25
   6  -5   3    0.35    0.27
   6  -5   3    0.42    0.15
   6  -5   4    0.78    0.20
   6  -5   4    0.45    0.33
  -6   5  -5    0.73    0.38
   6  -5   5    0.42    0.15
   6  -5   5    0.41    0.34
  -6   5  -6    1.11    0.49
   6  -5   6    0.89    0.40
   6  -5   6    1.46    0.28
  -6   5  -7    1.65    0.62
   6  -5   7    1.18    0.24
  -6   5  -8    0.35    0.28
  -6   5  -9    0.51    0.40
  -6   5 -10    0.07    0.15
  -6   5 -11   -0.09    0.16
   6  -4  -9    1.46    0.39
   6  -4  -8    0.22    0.05
   6  -4  -8    0.27    0.18
   6  -4  -7    3.25    0.57
   6  -4  -6    9.05    1.05
   6  -4  -5   47.49    2.69
   6  -4  -4    6.22    0.98
   6  -4  -4    8.43    1.12
   6  -4  -3   28.66    2.11
   6  -4  -3   26.25    2.16
   6  -4  -2    2.85    0.65
   6  -4  -2    4.78    0.94
   6  -4  -1    1.10    0.35
   6  -4  -1    1.15    0.52
   6  -4   0    0.38    0.29
   6  -4   1   13.84    1.78
   6  -4   2   19.75    2.10
   6  -4   3    1.69    0.56
   6  -4   4    1.57    0.56
  -6   4  -5    2.90    0.79
   6  -4   5    1.16    0.47
   6  -4   5    2.15    0.28
   6  -4   6    0.09    0.07
  -6   4  -6    0.11    0.28
   6  -4   6    0.30    0.24
  -6   4  -7    2.73    0.79
   6  -4   7    2.32    0.29
  -6   4  -8    0.24    0.40
  -6   4  -9   -0.05    0.23
  -6   4 -10    0.60    0.44
  -6   4 -11    0.26    0.32
   6  -3 -10   -0.04    0.08
   6  -3  -9    4.59    0.67
   6  -3  -9    3.95    0.55
   6  -3  -8   -0.08    0.15
   6  -3  -7    0.01    0.12
   6  -3  -6    0.26    0.17
   6  -3  -5   15.47    1.56
   6  -3  -4   19.34    1.84
   6  -3  -3   39.99    2.83
   6  -3  -2    2.90    0.77
   6  -3  -1    4.72    1.03
   6  -3   0    1.52    0.59
   6  -3   1    0.36    0.36
   6  -3   2    6.47    1.18
   6  -3   3    0.01    0.14
   6  -3   4    0.99    0.44
  -6   3  -5    0.50    0.30
   6  -3   5    0.32    0.29
  -6   3  -6    0.32    0.28
   6  -3   6    0.10    0.10
  -6   3  -7   -0.01    0.06
  -6   3  -8    6.24    1.23
  -6   3  -9   -0.33    0.29
  -6   3 -10    0.10    0.20
  -6   3 -11    0.30    0.30
   6  -2 -12    2.97    0.42
   6  -2 -11    3.87    0.52
   6  -2 -10    0.04    0.05
   6  -2 -10   -0.09    0.19
   6  -2  -9    0.30    0.18
   6  -2  -8    6.91    0.94
   6  -2  -7   -0.09    0.11
   6  -2  -6    2.89    0.66
   6  -2  -5   46.19    2.91
   6  -2  -4   -0.06    0.12
   6  -2  -3   21.50    2.12
   6  -2  -2    0.20    0.23
   6  -2  -1    3.54    0.90
   6  -2   0    6.36    1.22
   6  -2   1    3.90    0.95
   6  -2   2    1.01    0.49
   6  -2   3    0.11    0.22
   6  -2   4    1.41    0.53
   6  -2   5    2.85    0.71
  -6   2  -5    2.90    0.79
  -6   2  -6    3.38    0.90
   6  -2   6    2.40    0.64
   6  -2   6    2.91    0.43
  -6   2  -7    2.94    0.84
  -6   2  -8    1.17    0.55
  -6   2  -9    0.09    0.29
  -6   2 -10   -0.05    0.13
  -6   2 -11    0.06    0.05
   6  -1 -13    8.58    0.75
   6  -1 -12    2.10    0.40
   6  -1 -11   10.89    1.11
   6  -1 -11   11.36    1.01
   6  -1 -10    3.30    0.62
   6  -1  -9    0.82    0.31
   6  -1  -8    2.47    0.60
   6  -1  -7    0.13    0.03
   6  -1  -6    5.91    0.99
   6  -1  -5    9.13    1.28
   6  -1  -4    1.40    0.50
   6  -1  -3   33.57    2.75
   6  -1  -2   27.50    2.54
   6  -1  -1   23.88    2.42
   6  -1   0   -0.02    0.18
   6  -1   1    0.62    0.50
   6  -1   2   28.41    2.56
   6  -1   3   12.49    1.62
   6  -1   4    6.58    0.71
   6  -1   4    8.83    1.30
   6  -1   5    0.02    0.16
   6  -1   5    0.12    0.13
  -6   1  -6    5.28    1.10
   6  -1   6    3.91    0.79
   6  -1   6    4.55    0.58
  -6   1  -7    0.02    0.24
  -6   1  -8    1.44    0.61
  -6   1  -9   12.03    1.86
  -6   1 -10    1.07    0.58
  -6   1 -11   -0.92    0.53
   6   0 -13    0.20    0.13
   6   0 -12   -0.08    0.16
   6   0 -11    0.02    0.10
   6   0 -10    0.70    0.27
   6   0  -9    1.43    0.45
   6   0  -8    3.98    0.79
   6   0  -7    0.07    0.10
   6   0  -6    5.36    0.97
   6   0  -5    0.09    0.15
   6   0  -4    5.21    1.02
   6   0  -3   12.31    1.64
   6   0  -2    9.22    1.46
   6   0  -1    2.93    0.88
   6   0   0    7.95    1.43
   6   0   1   14.35    1.88
   6   0   2    8.17    0.85
   6   0   2   13.07    1.72
   6   0   3    3.40    0.83
   6   0   3    3.93    0.60
   6   0   4    0.67    0.35
   6   0   4    0.82    0.26
   6   0   5    0.11    0.23
   6   0   5    0.53    0.23
   6   0   6    0.22    0.23
   6   0   6    0.56    0.26
  -6   0  -7   -0.56    0.38
   6   0   7   -0.01    0.11
  -6   0  -8    0.25    0.31
  -6   0  -9    3.90    1.10
  -6   0 -10    0.09    0.22
   6   1 -13    2.83    0.49
   6   1 -12    0.44    0.15
   6   1 -12    0.26    0.20
   6   1 -11    2.13    0.55
   6   1 -10    0.36    0.22
   6   1  -9    7.68    1.09
   6   1  -8    4.53    0.86
   6   1  -7    1.94    0.59
   6   1  -6    0.33    0.24
   6   1  -5    1.42    0.52
   6   1  -4    2.05    0.66
   6   1  -3    0.19    0.24
   6   1  -2   11.48    1.73
   6   1  -1   65.65    4.26
   6   1   0   20.89    2.37
   6   1   1   24.81    2.53
   6   1   2   44.50    2.37
   6   1   2   56.75    3.75
   6   1   3   10.89    1.10
   6   1   3   10.54    1.51
   6   1   4    1.91    0.63
   6   1   4    1.36    0.38
   6   1   5    0.21    0.12
   6   1   5    0.25    0.12
   6   1   6    0.10    0.20
   6   1   7    4.49    0.83
   6   1   8    0.68    0.34
   6   1   9    0.41    0.23
  -6  -1  -9    0.17    0.14
  -6  -1 -10    0.71    0.44
   6   2 -13    0.09    0.10
   6   2 -12    1.16    0.39
   6   2 -12    0.74    0.20
   6   2 -11    0.50    0.24
   6   2 -10    1.95    0.54
   6   2  -9    0.13    0.12
   6   2  -8    3.67    0.77
   6   2  -7    0.28    0.21
   6   2  -6   20.40    1.96
   6   2  -5    5.66    1.05
   6   2  -4    3.18    0.80
   6   2  -3    3.30    0.84
   6   2  -2    0.89    0.46
   6   2  -1   10.97    1.72
   6   2   0    0.90    0.65
   6   2   1   72.85    4.68
   6   2   2    2.49    0.79
   6   2   3    1.72    0.63
   6   2   4    4.44    0.94
   6   2   5    0.16    0.15
   6   2   6    0.11    0.24
   6   2   7    0.45    0.25
   6   2   8    0.15    0.16
   6   2   9    0.40    0.25
   6   3 -12    0.81    0.34
   6   3 -12    0.75    0.29
   6   3 -11    8.12    1.07
   6   3 -10    0.24    0.20
   6   3  -9    0.50    0.29
   6   3  -8   10.25    1.32
   6   3  -7    0.40    0.24
   6   3  -6    1.09    0.42
   6   3  -5    0.11    0.24
   6   3  -4    0.09    0.11
   6   3  -3    1.28    0.57
   6   3  -2    0.16    0.17
   6   3  -1    7.21    1.38
   6   3   0   39.98    3.47
   6   3   1    1.83    0.75
   6   3   2    1.78    0.64
   6   3   3    0.87    0.48
   6   3   4    0.91    0.45
   6   3   5    0.02    0.14
   6   3   6    0.18    0.23
   6   3   7   -0.14    0.15
   6   3   8    2.35    0.59
   6   3   9    0.86    0.31
   6   4 -12    2.03    0.53
   6   4 -12    2.41    0.52
   6   4 -11    0.50    0.25
   6   4 -10    1.42    0.48
   6   4  -9    4.71    0.87
   6   4  -8    0.17    0.12
   6   4  -7    0.21    0.28
   6   4  -6   20.80    2.01
   6   4  -5    0.62    0.35
   6   4  -4    1.34    0.54
   6   4  -3    0.38    0.24
   6   4  -2    0.62    0.41
   6   4  -1    3.12    0.94
   6   4   0    1.44    0.69
   6   4   1    6.80    1.40
   6   4   2    9.09    1.63
   6   4   3    2.18    0.74
   6   4   4    1.32    0.57
   6   4   5    0.12    0.26
   6   4   6    0.28    0.17
   6   4   7    0.91    0.38
   6   4   8    2.52    0.62
   6   5 -11    0.24    0.19
   6   5 -10    0.18    0.19
   6   5  -9    0.89    0.37
   6   5  -8    1.74    0.54
   6   5  -7    0.56    0.32
   6   5  -6    1.01    0.44
   6   5  -5    2.41    0.68
   6   5  -4    0.14    0.24
   6   5  -3    0.40    0.25
   6   5  -2   -0.40    0.31
   6   5  -1    1.22    0.61
   6   5   0    0.46    0.33
   6   5   1   28.94    2.97
   6   5   2    0.01    0.22
   6   5   3   -0.08    0.17
   6   5   4   -0.08    0.30
   6   5   5   -0.51    0.33
   6   5   6   -0.18    0.26
   6   6 -11    1.20    0.40
   6   6 -10    0.30    0.23
   6   6  -9    0.05    0.14
   6   6  -8    2.69    0.68
   6   6  -7    0.16    0.08
   6   6  -6    2.46    0.67
   6   6  -5    2.47    0.68
   6   6  -4    3.97    0.91
   6   6  -3    1.69    0.60
   6   6  -2    1.17    0.57
   6   6  -1    5.64    1.21
   6   6   0    0.11    0.13
   6   6   1    0.38    0.32
   6   6   2    0.09    0.08
   6   7 -10    0.19    0.19
   6   7  -9   -0.27    0.20
   6   7  -8    0.33    0.24
   6   7  -7    0.74    0.35
   6   7  -6    0.86    0.37
   6   7  -5    0.07    0.18
   6   7  -4    0.40    0.29
   6   7  -3    2.91    0.79
   6   7  -2    0.51    0.38
   6   8  -8    1.86    0.53
   6   8  -7    1.37    0.47
   7  -8   1    0.28    0.12
   7  -8   2    0.19    0.09
   7  -8   3   -0.05    0.15
   7  -8   4    1.01    0.37
   7  -7  -1    0.31    0.15
   7  -7   0    0.87    0.29
   7  -7   1    1.66    0.41
   7  -7   2    0.25    0.15
   7  -7   3   -0.06    0.14
   7  -7   3    0.08    0.05
   7  -7   4    0.15    0.15
   7  -7   4    0.05    0.04
   7  -7   5    0.07    0.26
   7  -7   5    0.24    0.17
   7  -7   6   -0.44    0.31
   7  -7   7    0.14    0.24
  -7   7  -8   -0.03    0.11
   7  -7   8    0.30    0.39
  -7   7  -9    1.61    0.65
   7  -7   9    0.95    0.45
   7  -6  -4    0.04    0.11
   7  -6  -3    4.16    0.63
   7  -6  -2   14.14    1.15
   7  -6  -2   15.10    1.68
   7  -6  -1    5.84    0.70
   7  -6  -1    6.76    1.19
   7  -6   0    2.25    0.42
   7  -6   0    2.80    0.83
   7  -6   1    0.78    0.24
   7  -6   1    1.20    0.52
   7  -6   2    0.08    0.05
   7  -6   2    0.14    0.13
   7  -6   3    9.19    0.85
   7  -6   3    8.93    1.49
   7  -6   4    6.02    1.21
   7  -6   4    7.71    0.77
   7  -6   5    2.66    0.79
   7  -6   5    2.44    0.43
   7  -6   6    0.69    0.41
   7  -6   7    0.28    0.24
  -7   6  -8   -0.29    0.28
   7  -6   8   -0.06    0.19
  -7   6  -9    2.20    0.83
   7  -6   9    0.63    0.36
   7  -5  -6    2.88    0.52
   7  -5  -5    0.41    0.19
   7  -5  -5    0.32    0.21
   7  -5  -4    2.35    0.64
   7  -5  -3    8.91    1.32
   7  -5  -2    1.06    0.44
   7  -5  -1    4.58    1.04
   7  -5   0    1.90    0.71
   7  -5   1   -0.04    0.19
   7  -5   2    3.22    0.91
   7  -5   2    3.09    0.41
   7  -5   3    1.31    0.55
   7  -5   3    1.32    0.28
   7  -5   4    0.03    0.18
   7  -5   4    0.07    0.05
   7  -5   5    0.28    0.13
   7  -5   5    0.05    0.19
   7  -5   6    0.03    0.06
   7  -5   6   -0.12    0.08
  -7   5  -7    0.26    0.28
   7  -5   7    0.49    0.35
  -7   5  -8    0.18    0.22
   7  -5   8   -0.09    0.17
  -7   5  -9    0.26    0.23
   7  -5   9   -0.07    0.24
   7  -4  -8    0.89    0.33
   7  -4  -7    1.39    0.46
   7  -4  -6    0.14    0.23
   7  -4  -5    2.65    0.68
   7  -4  -4   13.78    1.64
   7  -4  -3    3.19    0.81
   7  -4  -2    7.88    1.38
   7  -4  -1    0.77    0.40
   7  -4   0   -0.04    0.07
   7  -4   1    1.62    0.65
   7  -4   2    3.19    0.93
   7  -4   3    5.80    1.20
   7  -4   4    0.10    0.09
   7  -4   5    0.68    0.38
   7  -4   6    0.22    0.10
   7  -4   6    0.03    0.15
  -7   4  -7    0.80    0.45
   7  -4   7    0.22    0.17
  -7   4  -8    0.24    0.20
   7  -4   8    0.45    0.30
  -7   4  -9    3.52    1.03
   7  -3 -10    5.40    0.80
   7  -3  -9    0.93    0.35
   7  -3  -8    0.26    0.16
   7  -3  -7    1.90    0.56
   7  -3  -6    1.97    0.59
   7  -3  -5    0.29    0.27
   7  -3  -4    9.94    1.46
   7  -3  -3    3.97    0.96
   7  -3  -2    2.07    0.73
   7  -3  -1    1.54    0.63
   7  -3   0    0.09    0.15
   7  -3   1    1.66    0.68
   7  -3   2    6.78    1.35
   7  -3   3    3.67    0.96
   7  -3   4    2.88    0.83
   7  -3   5   15.04    1.84
   7  -3   6    4.18    0.94
   7  -3   7   -0.03    0.06
  -7   3  -7    0.16    0.37
  -7   3  -8    0.62    0.29
   7  -3   8    0.65    0.32
  -7   3  -9    0.56    0.34
   7  -2 -12    1.51    0.34
   7  -2 -11   -0.02    0.15
   7  -2 -11    0.62    0.29
   7  -2 -10    0.42    0.26
   7  -2  -9    0.78    0.33
   7  -2  -8    0.28    0.17
   7  -2  -7    0.04    0.11
   7  -2  -6    0.73    0.39
   7  -2  -5    9.20    1.39
   7  -2  -4    1.17    0.49
   7  -2  -3   15.86    2.01
   7  -2  -2    0.91    0.46
   7  -2  -1    2.56    0.87
   7  -2   0    1.02    0.54
   7  -2   1    0.21    0.11
   7  -2   2    2.53    0.84
   7  -2   3    3.94    1.00
   7  -2   4   10.60    1.57
   7  -2   5    0.16    0.09
   7  -2   6   -0.03    0.08
   7  -2   7    0.80    0.42
  -7   2  -8    0.27    0.33
   7  -2   8    0.25    0.22
  -7   2  -9    0.33    0.30
   7  -2   9   -0.10    0.11
   7  -1 -12   -0.03    0.16
   7  -1 -11    0.39    0.26
   7  -1 -10    0.49    0.27
   7  -1  -9    0.21    0.18
   7  -1  -8    2.78    0.72
   7  -1  -7    0.18    0.22
   7  -1  -6    1.24    0.50
   7  -1  -5    6.97    1.23
   7  -1  -4    0.82    0.41
   7  -1  -3    5.49    1.22
   7  -1  -2    0.42    0.17
   7  -1  -1    5.74    1.31
   7  -1   0    5.71    1.27
   7  -1   1    3.05    0.94
   7  -1   2    0.42    0.32
   7  -1   3   30.51    2.80
   7  -1   4   10.10    1.54
   7  -1   5   11.21    1.54
   7  -1   6    0.21    0.17
   7  -1   7    0.27    0.23
   7  -1   8    0.55    0.31
   7  -1   9    2.44    0.66
  -7   1  -9    8.07    1.61
   7   0 -12    2.67    0.54
   7   0 -11    1.14    0.39
   7   0 -10    0.60    0.30
   7   0  -9    0.67    0.34
   7   0  -8    0.02    0.11
   7   0  -7    0.55    0.33
   7   0  -6    0.71    0.40
   7   0  -5   10.25    1.55
   7   0  -4    0.63    0.45
   7   0  -3   43.97    3.52
   7   0  -2    0.82    0.53
   7   0  -1    3.20    0.98
   7   0   0    1.17    0.60
   7   0   1    1.15    0.58
   7   0   2    1.62    0.70
   7   0   3   21.29    2.34
   7   0   4    1.67    0.64
   7   0   5    6.92    1.23
   7   0   6    0.20    0.21
   7   0   7    2.01    0.61
   7   0   8    0.13    0.12
   7   1 -11    0.15    0.20
   7   1 -10    3.09    0.74
   7   1  -9    0.42    0.29
   7   1  -8    4.59    0.95
   7   1  -7    0.06    0.13
   7   1  -6   -0.14    0.23
   7   1  -5    0.72    0.41
   7   1  -4    5.84    1.21
   7   1  -3    1.47    0.63
   7   1  -2    1.32    0.67
   7   1  -1    2.78    0.93
   7   1   0    4.55    1.20
   7   1   1    3.00    0.97
   7   1   2    0.68    0.38
   7   1   3    0.28    0.22
   7   1   4    0.87    0.45
   7   1   5    2.09    0.69
   7   1   6   -0.01    0.10
   7   1   7    0.14    0.19
   7   1   8    0.55    0.28
   7   2 -11   13.13    1.51
   7   2 -10    0.53    0.32
   7   2  -9   -0.01    0.05
   7   2  -8   -0.12    0.27
   7   2  -7    1.15    0.53
   7   2  -6    2.02    0.66
   7   2  -5    8.78    1.46
   7   2  -4    0.90    0.49
   7   2  -3   12.98    1.92
   7   2  -2   14.19    2.08
   7   2  -1    8.19    1.61
   7   2   0    0.67    0.58
   7   2   1    0.19    0.26
   7   2   2    0.99    0.53
   7   2   3    0.04    0.15
   7   2   4    0.64    0.48
   7   2   5   -0.09    0.07
   7   2   6    1.65    0.55
   7   2   7    1.50    0.52
   7   3 -10    0.20    0.22
   7   3  -9    2.86    0.73
   7   3  -8    2.33    0.68
   7   3  -7   -0.02    0.19
   7   3  -6    0.13    0.19
   7   3  -5    1.20    0.54
   7   3  -4    0.19    0.31
   7   3  -3    0.05    0.06
   7   3  -2    0.91    0.49
   7   3  -1    2.47    0.89
   7   3   0    8.35    1.67
   7   3   1    1.29    0.63
   7   3   2    9.84    1.75
   7   3   3    5.36    1.23
   7   3   4    2.78    0.82
   7   3   5    0.12    0.20
   7   3   6    0.43    0.28
   7   3   7    0.50    0.32
   7   4 -10    0.05    0.14
   7   4  -9    0.07    0.14
   7   4  -8    0.88    0.44
   7   4  -7    0.38    0.34
   7   4  -6   -0.03    0.25
   7   4  -5    1.79    0.66
   7   4  -4    1.17    0.56
   7   4  -3    5.40    1.26
   7   4  -2    0.49    0.45
   7   4  -1   19.03    2.53
   7   4   0    4.51    1.23
   7   4   1    2.21    0.94
   7   4   2   -0.09    0.35
   7   4   3    0.12    0.34
   7   4   4    1.25    0.66
   7   4   5    0.14    0.12
   7   4   6   -0.02    0.07
   7   5  -9    0.71    0.39
   7   5  -8    1.20    0.50
   7   5  -7    1.20    0.49
   7   5  -6    0.48    0.37
   7   5  -5    2.28    0.73
   7   5  -4    4.93    1.13
   7   5  -3   -0.01    0.33
   7   5  -2    2.83    0.92
   7   5  -1   -0.17    0.30
   7   5   0    2.28    0.88
   7   5   1    2.64    0.98
   7   5   2   16.28    2.29
   7   5   3    0.53    0.47
   7   5   4    0.11    0.10
   7   6  -8    0.14    0.21
   7   6  -7   -0.07    0.18
   7   6  -6    0.25    0.26
   7   6  -5    7.29    1.34
   7   6  -4    1.47    0.63
   7   6  -3    1.46    0.61
   7   6  -2    0.87    0.48
   7   6  -1    1.32    0.66
   7   6   0    3.08    0.96
   7   6   1    0.28    0.12
   7   7  -7    0.01    0.20
   7   7  -6    8.75    1.39
   7   7  -5    3.59    0.91
   7   7  -4    1.01    0.48
   7   7  -3   -0.19    0.25
   8  -7   1    0.41    0.22
   8  -7   2    1.30    0.36
   8  -7   3    0.18    0.11
   8  -7   5   -0.17    0.42
   8  -7   6    1.21    0.55
   8  -7   7   -0.10    0.25
   8  -6  -1    4.45    0.62
   8  -6   0    2.53    0.46
   8  -6   0    2.14    0.77
   8  -6   1    0.06    0.03
   8  -6   1    0.31    0.40
   8  -6   2    0.94    0.27
   8  -6   2    0.16    0.24
   8  -6   3    0.16    0.28
   8  -6   3    0.16    0.12
   8  -6   4    0.19    0.21
   8  -6   4    0.27    0.15
   8  -6   5    0.79    0.49
   8  -6   6    0.18    0.23
   8  -6   7    1.09    0.54
   8  -5  -4    0.02    0.36
   8  -5  -3    2.42    0.79
   8  -5  -2    2.44    0.80
   8  -5  -1    0.31    0.32
   8  -5   0    0.45    0.28
   8  -5   1    0.50    0.43
   8  -5   2    0.51    0.42
   8  -5   3    1.38    0.65
   8  -5   3    0.93    0.23
   8  -5   4    0.90    0.44
   8  -5   4    1.77    0.32
   8  -5   5    0.33    0.27
   8  -5   6    1.24    0.63
   8  -5   7    8.08    1.49
   8  -4  -7    0.31    0.10
   8  -4  -6    0.10    0.18
   8  -4  -5   -0.03    0.25
   8  -4  -4    0.95    0.46
   8  -4  -3    0.81    0.42
   8  -4  -2    0.28    0.25
   8  -4  -1   -0.07    0.26
   8  -4   0    0.80    0.52
   8  -4   1    2.54    0.88
   8  -4   2    1.56    0.62
   8  -4   3    0.03    0.15
   8  -4   4    0.22    0.22
   8  -4   5    1.69    0.65
   8  -4   6    1.80    0.71
   8  -4   7    0.33    0.24
   8  -3  -9    0.11    0.18
   8  -3  -8    0.07    0.10
   8  -3  -7    0.25    0.32
   8  -3  -6    0.34    0.32
   8  -3  -5    0.22    0.24
   8  -3  -4    0.00    0.26
   8  -3  -3    0.32    0.17
   8  -3  -2    0.46    0.40
   8  -3  -1    7.64    1.57
   8  -3   0    8.44    1.67
   8  -3   1   -0.25    0.38
   8  -3   2    1.37    0.57
   8  -3   3    0.63    0.43
   8  -3   4    1.13    0.53
   8  -3   5    6.30    1.33
   8  -3   6    6.60    1.31
   8  -3   7    4.55    1.03
   8  -2  -9    1.84    0.58
   8  -2  -8    0.39    0.31
   8  -2  -7    0.63    0.35
   8  -2  -6   -0.10    0.10
   8  -2  -5    0.24    0.32
   8  -2  -4    0.22    0.26
   8  -2  -3    3.67    1.03
   8  -2  -2    3.11    1.01
   8  -2  -1    9.74    1.82
   8  -2   0    4.95    1.33
   8  -2   1    0.30    0.32
   8  -2   2    0.54    0.45
   8  -2   3    0.11    0.22
   8  -2   4    4.97    1.19
   8  -2   5    3.40    0.93
   8  -2   6    0.54    0.34
   8  -2   7    1.42    0.53
   8  -1  -9    0.55    0.33
   8  -1  -8    0.80    0.40
   8  -1  -7    0.35    0.41
   8  -1  -6    0.20    0.22
   8  -1  -5    0.07    0.17
   8  -1  -4    0.18    0.13
   8  -1  -3    0.28    0.29
   8  -1  -2    2.18    0.85
   8  -1  -1    6.21    1.48
   8  -1   0    0.18    0.29
   8  -1   1    0.43    0.29
   8  -1   2    0.91    0.44
   8  -1   3    0.63    0.50
   8  -1   4   -0.04    0.18
   8  -1   5    0.22    0.23
   8  -1   6   -0.07    0.13
   8   0  -9    9.65    1.45
   8   0  -8   -0.09    0.17
   8   0  -7    0.48    0.34
   8   0  -6   -0.10    0.20
   8   0  -5    2.49    0.85
   8   0  -4    1.08    0.52
   8   0  -3    1.34    0.69
   8   0  -2    0.34    0.19
   8   0  -1    0.59    0.47
   8   0   0    0.01    0.31
   8   0   1    0.15    0.37
   8   0   2    1.53    0.75
   8   0   3    0.66    0.45
   8   0   4    0.10    0.18
   8   0   5    0.11    0.09
   8   0   6   -0.24    0.22
   8   1  -9    0.47    0.35
   8   1  -8    2.72    0.83
   8   1  -7    1.89    0.70
   8   1  -6    0.54    0.37
   8   1  -5    0.49    0.34
   8   1  -4    0.59    0.37
   8   1  -3    0.61    0.53
   8   1  -2    0.46    0.40
   8   1  -1    0.63    0.49
   8   1   0    0.22    0.29
   8   1   1   -0.07    0.26
   8   1   2    0.26    0.27
   8   1   3    1.08    0.56
   8   1   4    2.55    0.83
   8   1   5    5.10    1.11
   8   2  -8   -0.02    0.18
   8   2  -7    0.21    0.14
   8   2  -6    1.39    0.61
   8   2  -5    0.00    0.07
   8   2  -4    0.64    0.49
   8   2  -3    0.36    0.34
   8   2  -2   -0.07    0.11
   8   2  -1    1.40    0.70
   8   2   0    1.15    0.69
   8   2   1    2.38    0.94
   8   2   2   -0.07    0.31
   8   2   3    0.28    0.20
   8   2   4   -0.14    0.19
   8   2   5    0.81    0.45
   8   3  -8    0.70    0.46
   8   3  -7    0.09    0.28
   8   3  -6   -0.05    0.15
   8   3  -5    1.73    0.69
   8   3  -4    0.29    0.35
   8   3  -3   10.16    1.86
   8   3  -2    5.53    1.39
   8   3  -1    0.26    0.40
   8   3   0    1.05    0.68
   8   3   1   -0.15    0.23
   8   3   2    0.52    0.43
   8   3   3    0.82    0.52
   8   3   4    1.50    0.65
   8   4  -7    0.15    0.20
   8   4  -6    1.28    0.59
   8   4  -5    1.31    0.61
   8   4  -4    0.83    0.53
   8   4  -3    4.09    1.20
   8   4  -2    4.46    1.25
   8   4  -1   -0.67    0.49
   8   4   0    0.66    0.41
   8   4   1    0.35    0.35
   8   4   2    0.14    0.30
   8   5  -5    1.41    0.65
   8   5  -4    9.02    1.69
   8   5  -3    6.88    1.53
   8   5  -2    0.55    0.42
   8   5  -1    0.35    0.27
   8   5   0    0.24    0.27
   9  -6   2    0.55    0.20
   9  -6   2    0.42    0.38
   9  -6   3    0.73    0.35
   9  -6   4    0.08    0.20
   9  -5  -3    0.91    0.56
   9  -5  -2    0.10    0.24
   9  -5  -1    0.39    0.23
   9  -5   0    0.06    0.21
   9  -5   1    5.84    1.40
   9  -5   2    4.11    1.17
   9  -5   3    0.07    0.16
   9  -5   3    0.22    0.13
   9  -5   4   -0.70    0.48
   9  -4  -6    0.84    0.51
   9  -4  -5   -0.15    0.25
   9  -4  -4    0.01    0.14
   9  -4  -3    0.33    0.27
   9  -4  -2    1.70    0.74
   9  -4  -1    2.51    1.00
   9  -4   0    0.24    0.19
   9  -4   1    1.78    0.86
   9  -4   2    2.54    0.95
   9  -4   3    0.17    0.24
   9  -4   4    1.34    0.63
   9  -3  -6    0.82    0.54
   9  -3  -5    0.22    0.19
   9  -3  -4    0.96    0.48
   9  -3  -3    0.13    0.22
   9  -3  -2    0.16    0.28
   9  -3  -1    0.64    0.50
   9  -3   0    1.26    0.67
   9  -3   1    7.41    1.70
   9  -3   2    0.63    0.53
   9  -3   3    0.40    0.43
   9  -2  -6    0.42    0.26
   9  -2  -5   -0.05    0.35
   9  -2  -4   -0.12    0.29
   9  -2  -3    0.57    0.31
   9  -2  -2    0.28    0.43
   9  -2  -1    1.75    0.82
   9  -2   0    0.92    0.52
   9  -2   1    0.08    0.24
   9  -2   2    0.22    0.28
   9  -2   3    0.41    0.17
   9  -1  -6    8.47    1.57
   9  -1  -5   -0.55    0.41
   9  -1  -4    0.14    0.12
   9  -1  -3    0.08    0.21
   9  -1  -2    0.96    0.59
   9  -1  -1    0.55    0.49
   9  -1   0    0.91    0.65
   9  -1   1    1.56    0.84
   9  -1   2    0.41    0.40
   9  -1   3    0.29    0.18
   9   0  -5    0.84    0.57
   9   0  -4    1.59    0.73
   9   0  -3    0.03    0.10
   9   0  -2    0.32    0.26
   9   0  -1    1.08    0.61
   9   0   0    0.39    0.36
   9   0   1    1.83    0.84
   9   0   2   -0.01    0.23
   9   1  -5    0.90    0.52
   9   1  -4    5.56    1.38
   9   1  -3    0.29    0.45
   9   1  -2    0.14    0.25
   9   1  -1    5.17    1.44
   9   1   0    5.97    1.55
   9   1   1    0.17    0.20
   0   0   0    0.00    0.00
;
loop_
_space_group_symop_operation_xyz
'x, y, z'
'-x, -y, -z'
loop_
_atom_site_label
_atom_site_type_symbol
_atom_site_fract_x
_atom_site_fract_y
_atom_site_fract_z
_atom_site_U_iso_or_equiv
_atom_site_adp_type
_atom_site_occupancy
_atom_site_site_symmetry_order
_atom_site_calc_flag
_atom_site_refinement_flags_posn
_atom_site_refinement_flags_adp
_atom_site_refinement_flags_occupancy
_atom_site_disorder_assembly
_atom_site_disorder_group
C1 C 0.4910(3) 0.1203(2) 0.86985(15) 0.0217(5) Uani 1 1 d . . . . .
C2 C 0.6695(3) 0.1701(2) 0.83660(14) 0.0206(5) Uani 1 1 d . . . . .
C3 C 0.8186(3) 0.2572(2) 0.92903(14) 0.0230(5) Uani 1 1 d . . . . .
H3A H 0.916215 0.311075 0.899584 0.028 Uiso 1 1 calc R U . . .
H3B H 0.866031 0.168400 0.956701 0.028 Uiso 1 1 calc R U . . .
C4 C 0.7525(3) 0.3980(2) 1.02558(15) 0.0248(5) Uani 1 1 d . . . . .
H4A H 0.844833 0.433154 1.088648 0.030 Uiso 1 1 calc R U . . .
H4B H 0.736184 0.500820 1.003028 0.030 Uiso 1 1 calc R U . . .
C5 C 0.5290(3) 0.4166(2) 1.16872(15) 0.0252(5) Uani 1 1 d . . . . .
H5 H 0.610263 0.503446 1.220032 0.030 Uiso 1 1 calc R U . . .
C6 C 0.3648(3) 0.3714(2) 1.20108(15) 0.0242(5) Uani 1 1 d . . . . .
H6 H 0.336584 0.427547 1.272925 0.029 Uiso 1 1 calc R U . . .
C7 C 0.2402(3) 0.2406(2) 1.12574(14) 0.0223(5) Uani 1 1 d . . . . .
C8 C 0.2868(3) 0.1579(2) 1.01896(14) 0.0200(5) Uani 1 1 d . . . . .
H8 H 0.205669 0.069967 0.968295 0.024 Uiso 1 1 calc R U . . .
C9 C 0.4529(3) 0.2054(2) 0.98746(14) 0.0199(5) Uani 1 1 d . . . . .
C10 C 0.5788(3) 0.3375(2) 1.06188(14) 0.0219(5) Uani 1 1 d . . . . .
C11 C 0.6814(3) 0.1399(2) 0.72671(15) 0.0228(5) Uani 1 1 d . . . . .
H11 H 0.576011 0.088912 0.679913 0.027 Uiso 1 1 calc R U . . .
C12 C 0.8379(3) 0.1768(2) 0.67181(15) 0.0244(5) Uani 1 1 d . . . . .
C13 C 0.8157(3) 0.2338(2) 0.57687(15) 0.0255(5) Uani 1 1 d . . . . .
C14 C 1.1129(3) 0.2358(3) 0.55114(16) 0.0329(5) Uani 1 1 d . . . . .
H14 H 1.206928 0.255827 0.510601 0.039 Uiso 1 1 calc R U . . .
C15 C 1.1523(3) 0.1801(3) 0.64078(16) 0.0327(6) Uani 1 1 d . . . . .
H15 H 1.269939 0.162890 0.660508 0.039 Uiso 1 1 calc R U . . .
C16 C 1.0129(3) 0.1501(2) 0.70131(16) 0.0274(5) Uani 1 1 d . . . . .
H16 H 1.036791 0.111721 0.762329 0.033 Uiso 1 1 calc R U . . .
C17 C 0.0170(3) 0.2766(3) 1.25498(15) 0.0336(6) Uani 1 1 d . . . . .
H17A H 0.093695 0.256182 1.312615 0.050 Uiso 1 1 calc R U . . .
H17B H -0.105858 0.233022 1.258028 0.050 Uiso 1 1 calc R U . . .
H17C H 0.025292 0.400834 1.265831 0.050 Uiso 1 1 calc R U . . .
C18 C 0.6192(4) 0.3032(3) 0.44516(16) 0.0382(6) Uani 1 1 d . . . . .
H18A H 0.694018 0.410383 0.452263 0.057 Uiso 1 1 calc R U . . .
H18B H 0.494655 0.318511 0.431122 0.057 Uiso 1 1 calc R U . . .
H18C H 0.651981 0.209287 0.384248 0.057 Uiso 1 1 calc R U . . .
N1 N 0.9453(3) 0.2634(2) 0.51818(13) 0.0315(5) Uani 1 1 d . . . . .
O1 O 0.3738(2) 0.01520(17) 0.80264(10) 0.0309(4) Uani 1 1 d . . . . .
O2 O 0.0733(2) 0.18705(16) 1.14835(10) 0.0259(4) Uani 1 1 d . . . . .
O3 O 0.6447(2) 0.26042(17) 0.54699(10) 0.0305(4) Uani 1 1 d . . . . .
loop_
_atom_site_aniso_label
_atom_site_aniso_U_11
_atom_site_aniso_U_22
_atom_site_aniso_U_33
_atom_site_aniso_U_23
_atom_site_aniso_U_13
_atom_site_aniso_U_12
C1 0.0264(14) 0.0208(10) 0.0202(9) 0.0097(8) 0.0031(9) 0.0023(8)
C2 0.0226(13) 0.0187(9) 0.0234(9) 0.0103(7) 0.0051(8) 0.0033(8)
C3 0.0206(13) 0.0260(10) 0.0252(10) 0.0124(8) 0.0033(8) 0.0003(8)
C4 0.0273(14) 0.0237(10) 0.0235(10) 0.0093(8) 0.0001(9) -0.0004(9)
C5 0.0283(14) 0.0228(10) 0.0210(10) 0.0031(7) 0.0001(9) 0.0011(9)
C6 0.0294(14) 0.0256(10) 0.0169(9) 0.0053(7) 0.0033(8) 0.0038(9)
C7 0.0280(14) 0.0226(10) 0.0206(9) 0.0121(7) 0.0058(9) 0.0040(8)
C8 0.0244(13) 0.0184(9) 0.0187(9) 0.0081(7) 0.0015(8) 0.0026(8)
C9 0.0229(13) 0.0196(10) 0.0203(9) 0.0100(7) 0.0044(8) 0.0041(8)
C10 0.0256(14) 0.0210(10) 0.0207(9) 0.0099(7) -0.0001(8) 0.0016(8)
C11 0.0214(13) 0.0217(10) 0.0255(10) 0.0074(7) 0.0055(9) 0.0017(8)
C12 0.0297(15) 0.0182(10) 0.0230(10) 0.0027(7) 0.0073(9) 0.0009(8)
C13 0.0312(15) 0.0218(10) 0.0212(9) 0.0029(7) 0.0079(9) 0.0017(9)
C14 0.0300(16) 0.0379(12) 0.0278(11) 0.0063(9) 0.0139(10) -0.0044(10)
C15 0.0265(15) 0.0327(12) 0.0315(11) -0.0002(9) 0.0063(10) 0.0002(10)
C16 0.0308(15) 0.0254(10) 0.0259(10) 0.0063(8) 0.0097(9) 0.0036(9)
C17 0.0372(16) 0.0402(12) 0.0212(10) 0.0060(8) 0.0121(9) -0.0001(10)
C18 0.0514(19) 0.0440(13) 0.0248(11) 0.0162(9) 0.0090(10) 0.0117(11)
N1 0.0378(14) 0.0293(9) 0.0246(9) 0.0048(7) 0.0109(8) -0.0022(8)
O1 0.0297(10) 0.0371(8) 0.0206(7) 0.0036(6) 0.0036(6) -0.0054(7)
O2 0.0294(10) 0.0290(7) 0.0191(7) 0.0069(5) 0.0087(6) 0.0014(6)
O3 0.0345(11) 0.0406(8) 0.0206(7) 0.0139(6) 0.0076(6) 0.0071(7)
loop_
_atom_type_symbol
_atom_type_description
_atom_type_scat_dispersion_real
_atom_type_scat_dispersion_imag
_atom_type_scat_source
C C 0.0033 0.0016 'International Tables Vol C Tables 4.2.6.8 and 6.1.1.4'
H H 0.0000 0.0000 'International Tables Vol C Tables 4.2.6.8 and 6.1.1.4'
N N 0.0061 0.0033 'International Tables Vol C Tables 4.2.6.8 and 6.1.1.4'
O O 0.0106 0.0060 'International Tables Vol C Tables 4.2.6.8 and 6.1.1.4'
loop_
_geom_angle_atom_site_label_1
_geom_angle_atom_site_label_2
_geom_angle_atom_site_label_3
_geom_angle
_geom_angle_site_symmetry_1
_geom_angle_site_symmetry_3
O1 C1 C2 121.82(16) . .
O1 C1 C9 119.92(19) . .
C2 C1 C9 118.23(17) . .
C11 C2 C1 117.03(18) . .
C11 C2 C3 125.87(19) . .
C1 C2 C3 117.04(15) . .
C2 C3 C4 111.91(17) . .
C2 C3 H3A 109.2 . .
C4 C3 H3A 109.2 . .
C2 C3 H3B 109.2 . .
C4 C3 H3B 109.2 . .
H3A C3 H3B 107.9 . .
C10 C4 C3 113.47(15) . .
C10 C4 H4A 108.9 . .
C3 C4 H4A 108.9 . .
C10 C4 H4B 108.9 . .
C3 C4 H4B 108.9 . .
H4A C4 H4B 107.7 . .
C6 C5 C10 122.70(18) . .
C6 C5 H5 118.7 . .
C10 C5 H5 118.7 . .
C5 C6 C7 119.87(17) . .
C5 C6 H6 120.1 . .
C7 C6 H6 120.1 . .
O2 C7 C8 116.39(17) . .
O2 C7 C6 124.82(17) . .
C8 C7 C6 118.8(2) . .
C9 C8 C7 120.65(18) . .
C9 C8 H8 119.7 . .
C7 C8 H8 119.7 . .
C8 C9 C10 121.22(16) . .
C8 C9 C1 118.32(17) . .
C10 C9 C1 120.37(18) . .
C5 C10 C9 116.78(19) . .
C5 C10 C4 121.83(17) . .
C9 C10 C4 121.28(16) . .
C2 C11 C12 128.42(19) . .
C2 C11 H11 115.8 . .
C12 C11 H11 115.8 . .
C16 C12 C13 115.26(19) . .
C16 C12 C11 124.44(17) . .
C13 C12 C11 120.18(19) . .
N1 C13 O3 118.73(18) . .
N1 C13 C12 125.4(2) . .
O3 C13 C12 115.87(18) . .
N1 C14 C15 123.8(2) . .
N1 C14 H14 118.1 . .
C15 C14 H14 118.1 . .
C14 C15 C16 118.4(2) . .
C14 C15 H15 120.8 . .
C16 C15 H15 120.8 . .
C15 C16 C12 120.57(19) . .
C15 C16 H16 119.7 . .
C12 C16 H16 119.7 . .
O2 C17 H17A 109.5 . .
O2 C17 H17B 109.5 . .
H17A C17 H17B 109.5 . .
O2 C17 H17C 109.5 . .
H17A C17 H17C 109.5 . .
H17B C17 H17C 109.5 . .
O3 C18 H18A 109.5 . .
O3 C18 H18B 109.5 . .
H18A C18 H18B 109.5 . .
O3 C18 H18C 109.5 . .
H18A C18 H18C 109.5 . .
H18B C18 H18C 109.5 . .
C13 N1 C14 116.65(18) . .
C7 O2 C17 117.81(16) . .
C13 O3 C18 115.83(17) . .
loop_
_geom_bond_atom_site_label_1
_geom_bond_atom_site_label_2
_geom_bond_distance
_geom_bond_site_symmetry_2
C1 O1 1.233(2) .
C1 C2 1.485(3) .
C1 C9 1.493(2) .
C2 C11 1.348(2) .
C2 C3 1.506(3) .
C3 C4 1.530(3) .
C3 H3A 0.9700 .
C3 H3B 0.9700 .
C4 C10 1.497(3) .
C4 H4A 0.9700 .
C4 H4B 0.9700 .
C5 C6 1.373(3) .
C5 C10 1.397(3) .
C5 H5 0.9300 .
C6 C7 1.399(3) .
C6 H6 0.9300 .
C7 O2 1.361(3) .
C7 C8 1.393(3) .
C8 C9 1.387(3) .
C8 H8 0.9300 .
C9 C10 1.405(3) .
C11 C12 1.455(3) .
C11 H11 0.9300 .
C12 C16 1.387(3) .
C12 C13 1.419(3) .
C13 N1 1.310(3) .
C13 O3 1.360(3) .
C14 N1 1.349(3) .
C14 C15 1.368(3) .
C14 H14 0.9300 .
C15 C16 1.383(3) .
C15 H15 0.9300 .
C16 H16 0.9300 .
C17 O2 1.431(2) .
C17 H17A 0.9600 .
C17 H17B 0.9600 .
C17 H17C 0.9600 .
C18 O3 1.440(2) .
C18 H18A 0.9600 .
C18 H18B 0.9600 .
C18 H18C 0.9600 .
loop_
_geom_hbond_atom_site_label_D
_geom_hbond_atom_site_label_H
_geom_hbond_atom_site_label_A
_geom_hbond_distance_DH
_geom_hbond_distance_HA
_geom_hbond_distance_DA
_geom_hbond_angle_DHA
_geom_hbond_site_symmetry_A
_geom_hbond_publ_flag
C18 H18C O1 0.96 2.47 3.384(2) 158.5 2_656 yes
C17 H17B O1 0.96 2.59 3.459(3) 151.2 2_557 yes
C15 H15 O1 0.93 2.56 3.211(3) 127.3 1_655 yes
loop_
_geom_torsion_atom_site_label_1
_geom_torsion_atom_site_label_2
_geom_torsion_atom_site_label_3
_geom_torsion_atom_site_label_4
_geom_torsion
_geom_torsion_site_symmetry_1
_geom_torsion_site_symmetry_2
_geom_torsion_site_symmetry_3
_geom_torsion_site_symmetry_4
O1 C1 C2 C11 19.2(3) . . . .
C9 C1 C2 C11 -158.87(17) . . . .
O1 C1 C2 C3 -163.44(17) . . . .
C9 C1 C2 C3 18.5(2) . . . .
C11 C2 C3 C4 133.26(19) . . . .
C1 C2 C3 C4 -43.8(2) . . . .
C2 C3 C4 C10 47.2(2) . . . .
C10 C5 C6 C7 0.3(3) . . . .
C5 C6 C7 O2 -179.13(16) . . . .
C5 C6 C7 C8 0.4(3) . . . .
O2 C7 C8 C9 178.98(15) . . . .
C6 C7 C8 C9 -0.6(3) . . . .
C7 C8 C9 C10 0.1(3) . . . .
C7 C8 C9 C1 -176.29(15) . . . .
O1 C1 C9 C8 2.4(3) . . . .
C2 C1 C9 C8 -179.42(15) . . . .
O1 C1 C9 C10 -173.99(17) . . . .
C2 C1 C9 C10 4.1(2) . . . .
C6 C5 C10 C9 -0.8(3) . . . .
C6 C5 C10 C4 175.39(16) . . . .
C8 C9 C10 C5 0.6(3) . . . .
C1 C9 C10 C5 176.91(16) . . . .
C8 C9 C10 C4 -175.61(16) . . . .
C1 C9 C10 C4 0.7(3) . . . .
C3 C4 C10 C5 157.06(17) . . . .
C3 C4 C10 C9 -26.9(2) . . . .
C1 C2 C11 C12 179.50(16) . . . .
C3 C2 C11 C12 2.4(3) . . . .
C2 C11 C12 C16 40.5(3) . . . .
C2 C11 C12 C13 -143.74(19) . . . .
C16 C12 C13 N1 -0.7(3) . . . .
C11 C12 C13 N1 -176.91(16) . . . .
C16 C12 C13 O3 179.97(15) . . . .
C11 C12 C13 O3 3.8(2) . . . .
N1 C14 C15 C16 0.0(3) . . . .
C14 C15 C16 C12 -0.3(3) . . . .
C13 C12 C16 C15 0.6(3) . . . .
C11 C12 C16 C15 176.59(16) . . . .
O3 C13 N1 C14 179.78(16) . . . .
C12 C13 N1 C14 0.5(3) . . . .
C15 C14 N1 C13 -0.1(3) . . . .
C8 C7 O2 C17 -176.32(16) . . . .
C6 C7 O2 C17 3.3(3) . . . .
N1 C13 O3 C18 5.9(2) . . . .
C12 C13 O3 C18 -174.78(15) . . . .
