#------------------------------------------------------------------------------
#$Date: 2022-03-30 12:30:36 +0300 (Wed, 30 Mar 2022) $
#$Revision: 274125 $
#$URL: file:///home/coder/svn-repositories/cod/cif/8/10/49/8104962.cif $
#------------------------------------------------------------------------------
#
# This file is available in the Crystallography Open Database (COD),
# http://www.crystallography.net/
#
# All data on this site have been placed in the public domain by the
# contributors.
#
data_8104962
loop_
_publ_author_name
'Bai, Xiao-Hui'
'Xing, Yan'
'Liu, Si-Jie'
_publ_section_title
;
 Crystal structure of (4-chlorophenyl)(4-hydroxyphenyl)methanone,
 C13H9ClO2
;
_journal_issue                   1
_journal_name_full
'Zeitschrift f\"ur Kristallographie - New Crystal Structures'
_journal_page_first              65
_journal_page_last               66
_journal_paper_doi               10.1515/ncrs-2021-0397
_journal_volume                  237
_journal_year                    2022
_chemical_formula_moiety         'C13 H9 Cl O2'
_chemical_formula_sum            'C13 H9 Cl O2'
_chemical_formula_weight         232.65
_space_group_crystal_system      monoclinic
_space_group_IT_number           4
_space_group_name_Hall           'P 2yb'
_space_group_name_H-M_alt        'P 1 21 1'
_atom_sites_solution_hydrogens   mixed
_cell_angle_alpha                90
_cell_angle_beta                 105.591(3)
_cell_angle_gamma                90
_cell_formula_units_Z            2
_cell_length_a                   6.5465(9)
_cell_length_b                   8.0647(11)
_cell_length_c                   10.8476(15)
_cell_measurement_reflns_used    1121
_cell_measurement_temperature    296(2)
_cell_measurement_theta_max      27.33
_cell_measurement_theta_min      3.19
_cell_volume                     551.63(13)
_computing_cell_refinement       'Bruker SAINT'
_computing_data_collection       'Bruker APEX2'
_computing_data_reduction        'Bruker SAINT'
_computing_molecular_graphics    'Bruker SHELXTL [2]'
_computing_publication_material  'Bruker SHELXTL [2]'
_computing_structure_refinement  'SHELXL-2018/3 [2]'
_computing_structure_solution    'Bruker SHELXTL [2]'
_diffrn_ambient_temperature      296(2)
_diffrn_measured_fraction_theta_full 0.993
_diffrn_measured_fraction_theta_max 0.993
_diffrn_measurement_device_type  'Bruker APEX-II CCD'
_diffrn_measurement_method       '\f and \w scans'
_diffrn_radiation_type           MoK\a
_diffrn_radiation_wavelength     0.71073
_diffrn_reflns_av_R_equivalents  0.0248
_diffrn_reflns_av_unetI/netI     0.0500
_diffrn_reflns_Laue_measured_fraction_full 0.993
_diffrn_reflns_Laue_measured_fraction_max 0.993
_diffrn_reflns_limit_h_max       6
_diffrn_reflns_limit_h_min       -7
_diffrn_reflns_limit_k_max       9
_diffrn_reflns_limit_k_min       -8
_diffrn_reflns_limit_l_max       12
_diffrn_reflns_limit_l_min       -12
_diffrn_reflns_number            2796
_diffrn_reflns_point_group_measured_fraction_full 0.868
_diffrn_reflns_point_group_measured_fraction_max 0.868
_diffrn_reflns_theta_full        24.996
_diffrn_reflns_theta_max         24.996
_diffrn_reflns_theta_min         1.949
_diffrn_source                   'fine-focus sealed tube'
_exptl_absorpt_coefficient_mu    0.326
_exptl_absorpt_correction_T_max  0.944
_exptl_absorpt_correction_T_min  0.923
_exptl_absorpt_correction_type   multi-scan
_exptl_absorpt_process_details   'SADABS; Bruker, 2008 [1]'
_exptl_crystal_colour            colourless
_exptl_crystal_density_diffrn    1.401
_exptl_crystal_density_method    'not measured'
_exptl_crystal_description       block
_exptl_crystal_F_000             240
_exptl_crystal_size_max          0.250
_exptl_crystal_size_mid          0.200
_exptl_crystal_size_min          0.180
_refine_diff_density_max         0.245
_refine_diff_density_min         -0.162
_refine_diff_density_rms         0.044
_refine_ls_abs_structure_details
; 
 Refined as an inversion twin. 
;
_refine_ls_abs_structure_Flack   0.0(2)
_refine_ls_extinction_coef       .
_refine_ls_extinction_method     none
_refine_ls_goodness_of_fit_ref   1.024
_refine_ls_hydrogen_treatment    constr
_refine_ls_matrix_type           full
_refine_ls_number_parameters     146
_refine_ls_number_reflns         1690
_refine_ls_number_restraints     1
_refine_ls_restrained_S_all      1.024
_refine_ls_R_factor_all          0.0867
_refine_ls_R_factor_gt           0.0532
_refine_ls_shift/su_max          0.000
_refine_ls_shift/su_mean         0.000
_refine_ls_structure_factor_coef Fsqd
_refine_ls_weighting_details
'w=1/[\s^2^(Fo^2^)+(0.0900P)^2^+0.0100P] where P=(Fo^2^+2Fc^2^)/3'
_refine_ls_weighting_scheme      calc
_refine_ls_wR_factor_gt          0.1301
_refine_ls_wR_factor_ref         0.1507
_reflns_Friedel_coverage         0.622
_reflns_Friedel_fraction_full    0.721
_reflns_Friedel_fraction_max     0.721
_reflns_number_gt                1253
_reflns_number_total             1690
_reflns_threshold_expression     'I > 2\s(I)'
_cod_data_source_file            suppl_j_ncrs-2021-0397_suppl.cif
_cod_data_source_block           1
_cod_original_sg_symbol_H-M      'P 21'
_cod_database_code               8104962
_shelx_space_group_comment
; 
The symmetry employed for this shelxl refinement is uniquely defined 
by the following loop, which should always be used as a source of 
symmetry information in preference to the above space-group names. 
They are only intended as comments. 
;
_shelx_estimated_absorpt_t_min   0.923
_shelx_estimated_absorpt_t_max   0.944
_shelx_res_file
; 
TITL 1 in P21 
    1.res 
    created by SHELXL-2018/3 at 18:53:56 on 14-Oct-2021 
CELL  0.71073    6.5465    8.0647   10.8476    90.000   105.591    90.000 
ZERR        2    0.0009    0.0011    0.0015     0.000     0.003     0.000 
LATT -1 
SYMM             - X ,    0.50000 + Y ,            - Z 
SFAC C  H  Cl O 
UNIT 26  18  2  4 
OMIT 0 50 
L.S. 6 
ACTA 
BOND $H 
FMAP 2 
PLAN 20 
HTAB O1 O2_$1 
CONF 
TWIN 
WGHT    0.090000    0.010000 
BASF   0.04424 
FVAR       0.26372 
RESI 0 
HTAB 
SIZE 0.25 0.20 0.18 
EQIV $1 x, y+1, z 
HTAB O1 O2_$1 
TEMP    23 
MOLE 1 
C1    1    0.169959    0.390195    0.949390    11.00000    0.04804    0.04604 = 
         0.06739    0.01148    0.00070    0.00298 
C2    1    0.144968    0.291944    0.839021    11.00000    0.05752    0.03271 = 
         0.07467   -0.00043   -0.01286   -0.00509 
AFIX  43 
H2    2    0.038138    0.212591    0.818033    11.00000   -1.20000 
AFIX   0 
C3    1    0.278901    0.313983    0.762839    11.00000    0.06412    0.03556 = 
         0.05499    0.00222    0.00757    0.00255 
AFIX  43 
H3    2    0.264049    0.248080    0.690608    11.00000   -1.20000 
AFIX   0 
C4    1    0.436125    0.433390    0.792328    11.00000    0.05368    0.02539 = 
         0.05781   -0.00061   -0.00306    0.00322 
C5    1    0.459892    0.529199    0.902210    11.00000    0.05762    0.03899 = 
         0.05744   -0.00360    0.00244   -0.01079 
AFIX  43 
H5    2    0.565132    0.609892    0.922246    11.00000   -1.20000 
AFIX   0 
C6    1    0.328333    0.505766    0.982327    11.00000    0.06305    0.04393 = 
         0.05939   -0.00588    0.00039   -0.00241 
AFIX  43 
H6    2    0.347685    0.567569    1.056967    11.00000   -1.20000 
AFIX   0 
C7    1    0.578576    0.451454    0.707734    11.00000    0.04736    0.04042 = 
         0.05905   -0.00699    0.00257    0.00681 
C8    1    0.644166    0.617715    0.675584    11.00000    0.04888    0.03888 = 
         0.05189   -0.00890    0.00273    0.00640 
C9    1    0.821260    0.634873    0.628089    11.00000    0.05569    0.04958 = 
         0.05654   -0.00703    0.01986    0.01564 
AFIX  43 
H9    2    0.898507    0.541350    0.618271    11.00000   -1.20000 
AFIX   0 
C10   1    0.882518    0.786687    0.595921    11.00000    0.04346    0.06526 = 
         0.05340   -0.00898    0.01641    0.00690 
AFIX  43 
H10   2    1.002962    0.796166    0.566481    11.00000   -1.20000 
AFIX   0 
C11   1    0.766825    0.926631    0.606765    11.00000    0.04785    0.05241 = 
         0.03934   -0.00269    0.01491    0.00239 
C12   1    0.587623    0.911627    0.649272    11.00000    0.05213    0.04104 = 
         0.05752   -0.00071    0.01818    0.01313 
AFIX  43 
H12   2    0.506712    1.004984    0.654059    11.00000   -1.20000 
AFIX   0 
C13   1    0.527667    0.759787    0.684615    11.00000    0.04181    0.03926 = 
         0.06061   -0.00440    0.01901    0.00548 
AFIX  43 
H13   2    0.407997    0.751506    0.714936    11.00000   -1.20000 
AFIX   0 
CL1   3   -0.001247    0.363851    1.046507    11.00000    0.07809    0.08539 = 
         0.08421    0.00723    0.02370   -0.00841 
O1    4    0.835842    1.072583    0.572796    11.00000    0.06933    0.05168 = 
         0.07145    0.00689    0.03086    0.00135 
AFIX   3 
H1    2    0.756229    1.146993    0.582516    11.00000   -1.50000 
AFIX   0 
O2    4    0.638807    0.326413    0.663741    11.00000    0.08228    0.03800 = 
         0.09939   -0.01621    0.02288    0.01360 
HKLF 4 
  
  
  
  
REM  1 in P21 
REM wR2 = 0.1507, GooF = S = 1.024, Restrained GooF = 1.024 for all data 
REM R1 = 0.0532 for 1253 Fo > 4sig(Fo) and 0.0867 for all 1690 data 
REM 146 parameters refined using 1 restraints 
  
END 
  
WGHT      0.0508      0.0967 
  
REM Instructions for potential hydrogen bonds 
HTAB O1 O2_$1 
  
REM Highest difference peak  0.245,  deepest hole -0.162,  1-sigma level  0.044 
Q1    1   0.5487  0.8904  0.7035  11.00000  0.05    0.24 
Q2    1   0.0309  0.3716  0.9680  11.00000  0.05    0.22 
Q3    1   0.7165  0.9306  0.6770  11.00000  0.05    0.21 
Q4    1   0.5007  0.7703  0.7431  11.00000  0.05    0.20 
Q5    1   0.7711  0.6232  0.6946  11.00000  0.05    0.20 
Q6    1   0.0351  0.3643  0.8629  11.00000  0.05    0.18 
Q7    1   0.6235  0.6007  0.7358  11.00000  0.05    0.18 
Q8    1   0.6842  0.6118  0.6042  11.00000  0.05    0.18 
Q9    1   0.1704  0.2908  0.9096  11.00000  0.05    0.17 
Q10   1  -0.0407  0.3617  1.1231  11.00000  0.05    0.17 
Q11   1   0.6470  0.8867  0.5791  11.00000  0.05    0.16 
Q12   1   0.6167  0.2059  0.6957  11.00000  0.05    0.16 
Q13   1   0.5355  0.6586  0.6528  11.00000  0.05    0.16 
Q14   1   0.8078  1.0550  0.6409  11.00000  0.05    0.15 
Q15   1  -0.1311  0.3613  0.9296  11.00000  0.05    0.15 
Q16   1   0.4504  0.4366  0.8455  11.00000  0.05    0.15 
Q17   1   0.1920  0.5082  0.9576  11.00000  0.05    0.14 
Q18   1  -0.1413  0.3587  1.0109  11.00000  0.05    0.14 
Q19   1   0.4619  0.5265  0.9422  11.00000  0.05    0.14 
Q20   1   0.4254  0.3322  0.7910  11.00000  0.05    0.14 
;
_shelx_hkl_file
; 
  -1   0   0    6.15    0.20 
  -1   0   0    6.01    0.15 
  -2   0   0   16.62    0.37 
  -2   0   0   16.93    0.46 
  -3   0   0    0.13    0.07 
  -3   0   0    0.07    0.09 
  -4   0   0    0.07    0.08 
  -4   0   0    0.19    0.05 
  -4   0   0    0.05    0.14 
  -5   0   0    7.38    0.35 
  -5   0   0    7.43    0.50 
  -6   0   0    2.97    0.47 
  -7   0   0    1.96    0.43 
   0  -1   0   -0.20    0.02 
  -1  -1   0  148.31    2.71 
  -1  -1   0  154.39    2.30 
  -1   1   0  152.65    2.75 
  -2  -1   0   23.41    0.51 
  -2  -1   0   23.12    0.55 
  -2   1   0   22.94    0.58 
  -2   1   0   22.68    0.40 
  -3  -1   0    0.28    0.11 
  -3  -1   0    0.37    0.09 
  -3   1   0    0.32    0.13 
  -3   1   0    0.41    0.07 
  -4  -1   0    6.46    0.40 
  -4  -1   0    6.76    0.32 
  -4   1   0    6.59    0.25 
  -4   1   0    6.59    0.45 
  -5  -1   0    0.38    0.15 
  -5  -1   0    0.24    0.17 
  -5   1   0    0.42    0.24 
  -6  -1   0    2.40    0.39 
  -6   1   0    2.01    0.39 
  -7  -1   0    0.40    0.30 
  -7   1   0    0.22    0.38 
   0  -2   0  202.94    3.37 
  -1  -2   0   46.25    0.83 
  -1   2   0   45.11    0.68 
  -1   2   0   43.85    0.83 
  -2  -2   0   31.99    0.71 
  -2  -2   0   31.17    0.68 
  -2   2   0   30.51    0.72 
  -3  -2   0   14.74    0.51 
   3  -2   0   15.40    0.28 
  -3  -2   0   14.96    0.46 
  -3   2   0   14.86    0.56 
  -4  -2   0    4.73    0.30 
  -4  -2   0    4.74    0.34 
  -4   2   0    5.16    0.45 
  -5  -2   0    3.87    0.32 
  -5  -2   0    4.50    0.42 
  -5   2   0    4.55    0.53 
  -6  -2   0    0.49    0.25 
  -6   2   0    0.39    0.28 
  -7  -2   0    2.02    0.45 
  -7   2   0    1.88    0.47 
   0  -3   0    0.00    0.05 
  -1  -3   0    4.93    0.23 
  -1   3   0    4.83    0.24 
  -1   3   0    4.69    0.15 
  -2  -3   0   34.73    0.78 
  -2   3   0   34.32    0.81 
  -3  -3   0    0.79    0.15 
  -3  -3   0    0.80    0.15 
  -3   3   0    0.59    0.17 
  -4  -3   0    0.20    0.13 
  -4  -3   0    0.36    0.14 
  -4   3   0    0.32    0.21 
  -5  -3   0    0.48    0.20 
  -5  -3   0    0.44    0.18 
  -5   3   0    0.47    0.30 
  -6  -3   0    2.44    0.40 
  -6   3   0    2.39    0.50 
  -7  -3   0    1.34    0.41 
  -7   3   0    0.53    0.43 
   0  -4   0   43.07    0.85 
  -1  -4   0   35.25    0.79 
  -1   4   0   34.74    0.83 
  -1   4   0   35.57    0.66 
  -2  -4   0    0.51    0.13 
  -2   4   0    0.64    0.07 
  -2   4   0    0.68    0.15 
  -3  -4   0    6.63    0.38 
  -3   4   0    6.80    0.44 
  -4  -4   0    0.50    0.18 
  -4  -4   0    0.63    0.20 
  -4   4   0    0.78    0.28 
  -5  -4   0    8.00    0.50 
  -5  -4   0    8.36    0.55 
  -5   4   0    7.09    0.62 
  -6  -4   0    2.74    0.45 
  -6   4   0    3.08    0.61 
  -7  -4   0    0.50    0.34 
  -7   4   0    0.27    0.52 
   0   5   0   -0.03    0.09 
   0   5   0    0.11    0.07 
  -1  -5   0    0.59    0.14 
  -1   5   0    0.86    0.11 
  -1   5   0    0.64    0.15 
  -2  -5   0    1.06    0.19 
  -2   5   0    1.07    0.20 
  -3  -5   0    0.08    0.14 
  -3   5   0    0.03    0.18 
  -4  -5   0    2.94    0.35 
  -4   5   0    2.62    0.41 
  -5  -5   0    0.27    0.22 
  -5   5   0   -0.16    0.37 
   0   6   0    2.90    0.22 
   0   6   0    2.90    0.28 
  -1   6   0    5.85    0.27 
  -1   6   0    5.57    0.39 
   1   6   0    5.63    0.32 
  -2  -6   0    3.13    0.32 
  -2   6   0    3.30    0.37 
  -3  -6   0    8.43    0.50 
  -3   6   0    8.14    0.58 
  -4   6   0    2.91    0.48 
  -5   6   0    0.24    0.46 
   0   7   0    0.10    0.10 
   0   7   0    0.17    0.14 
   1   7   0    7.96    0.40 
  -1   7   0    8.77    0.52 
  -2   7   0    3.75    0.43 
   2   7   0    4.32    0.32 
  -3   7   0    1.69    0.38 
   3   7   0    2.44    0.27 
   4   7   0    3.46    0.31 
  -4   7   0    2.21    0.52 
  -5   7   0   -0.38    0.54 
   0   8   0    1.48    0.27 
   1   8   0    1.70    0.23 
  -1   8   0    1.11    0.29 
  -2   8   0    0.54    0.30 
   2   8   0    0.94    0.19 
   3   8   0    4.11    0.33 
   0   9   0    0.47    0.20 
   1   9   0    2.15    0.27 
  -1   9   0    0.58    0.30 
   0  10   0    2.27    0.35 
  -8   0   1    0.82    0.43 
  -7   0   1    0.43    0.34 
  -6   0   1    6.63    0.56 
  -5   0   1   -0.02    0.19 
  -5   0   1    0.06    0.10 
  -4   0   1    5.35    0.26 
  -4   0   1    5.52    0.37 
  -3   0   1   76.85    1.29 
  -3   0   1   76.10    1.44 
  -2   0   1   18.29    0.47 
  -2   0   1   18.15    0.39 
  -1   0   1  156.11    2.59 
   0   0   1   -0.03    0.02 
   1   0   1    0.57    0.07 
  -1   0  -1    0.49    0.08 
  -2   0  -1   99.33    1.67 
   2   0   1   98.37    1.53 
  -2   0  -1   97.95    1.47 
   3   0   1    4.25    0.20 
  -3   0  -1    4.29    0.15 
  -3   0  -1    4.33    0.30 
   4   0   1   16.27    0.45 
  -4   0  -1   16.48    0.38 
  -4   0  -1   17.18    0.65 
  -5   0  -1    1.85    0.32 
  -6   0  -1    0.15    0.25 
  -7   0  -1    1.51    0.44 
  -7  -1   1    0.90    0.33 
  -7   1   1    0.89    0.38 
  -6  -1   1    0.12    0.13 
  -6  -1   1    0.23    0.23 
  -6   1   1    0.23    0.27 
  -5  -1   1    1.40    0.25 
  -5  -1   1    1.87    0.23 
  -5   1   1    1.76    0.32 
  -4  -1   1    3.12    0.31 
  -4  -1   1    3.31    0.24 
  -4   1   1    3.17    0.18 
  -4   1   1    3.24    0.36 
  -3  -1   1    2.16    0.21 
  -3  -1   1    1.96    0.17 
  -3   1   1    1.97    0.12 
  -3   1   1    2.03    0.24 
  -2  -1   1   30.39    0.65 
  -2  -1   1   31.22    0.63 
  -2   1   1   31.64    0.54 
  -2   1   1   31.06    0.69 
  -1   1   1   22.53    0.46 
  -1   1   1   23.16    0.40 
   0  -1   1   46.16    0.72 
   0   1   1   43.44    0.73 
   0   1  -1   47.73    0.75 
   1  -1   1   87.81    1.42 
  -1  -1  -1   88.66    1.43 
  -1   1  -1   90.38    1.42 
   1   1   1   86.99    1.38 
  -1   1  -1   88.36    1.34 
   2  -1   1   38.62    0.62 
  -2  -1  -1   37.89    0.80 
  -2   1  -1   37.52    0.66 
   2   1   1   36.92    0.72 
  -2   1  -1   37.39    0.81 
  -3  -1  -1    2.83    0.11 
  -3  -1  -1    2.68    0.23 
   3  -1   1    2.65    0.14 
  -3   1  -1    2.65    0.14 
   3   1   1    2.52    0.18 
  -3   1  -1    2.82    0.29 
  -4  -1  -1    2.72    0.30 
   4  -1   1    2.93    0.18 
  -4   1  -1    3.08    0.34 
  -4   1  -1    3.09    0.17 
   4   1   1    3.06    0.22 
  -5  -1  -1    0.38    0.19 
  -5   1  -1    0.48    0.25 
   5   1   1    0.60    0.15 
  -6  -1  -1    0.44    0.26 
  -6   1  -1    0.34    0.30 
  -7  -1  -1    0.73    0.38 
  -7   1  -1    0.61    0.40 
  -7  -2   1    0.73    0.34 
  -7   2   1    0.56    0.42 
  -6  -2   1    5.63    0.51 
  -6  -2   1    5.33    0.39 
  -6   2   1    5.83    0.63 
  -5  -2   1   10.35    0.56 
  -5  -2   1   10.37    0.47 
  -5   2   1   10.72    0.67 
  -4  -2   1    2.75    0.29 
  -4  -2   1    2.67    0.24 
  -4   2   1    2.71    0.21 
  -4   2   1    2.96    0.40 
  -3  -2   1    3.72    0.25 
  -3  -2   1    3.47    0.23 
  -3   2   1    3.47    0.29 
  -3   2   1    3.57    0.13 
  -2  -2   1    9.88    0.33 
  -2  -2   1   10.01    0.33 
  -2   2   1   10.08    0.22 
  -2   2   1    9.98    0.37 
  -1  -2   1   63.24    1.08 
  -1   2   1   63.41    1.12 
  -1   2   1   64.14    0.99 
   1   2  -1   63.05    0.97 
   0  -2   1   78.53    1.23 
   0   2   1   79.33    1.25 
   0   2  -1   78.27    1.25 
   1  -2   1  214.09    3.29 
  -1   2  -1  217.81    3.63 
   1   2   1  215.01    3.44 
  -2  -2  -1   22.54    0.60 
  -2   2  -1   23.28    0.61 
   3  -2   1    5.43    0.16 
  -3  -2  -1    5.78    0.34 
  -3   2  -1    5.72    0.38 
  -4  -2  -1    1.11    0.22 
  -4   2  -1    1.25    0.15 
  -4   2  -1    1.04    0.23 
   4   2   1    1.37    0.19 
  -5  -2  -1    1.20    0.26 
  -5   2  -1    1.35    0.16 
   5   2   1    1.47    0.22 
  -5   2  -1    1.14    0.30 
  -6  -2  -1    3.60    0.48 
   6   2   1    4.61    0.32 
  -6   2  -1    3.34    0.51 
  -7  -2  -1    1.92    0.45 
  -7   2  -1    1.68    0.50 
  -7  -3   1    0.89    0.34 
  -7  -3   1    0.24    0.22 
  -7   3   1    0.33    0.42 
  -6  -3   1    2.51    0.41 
  -6  -3   1    2.12    0.32 
  -6   3   1    2.30    0.49 
  -5  -3   1    3.82    0.40 
  -5  -3   1    3.48    0.33 
  -5   3   1    3.68    0.56 
  -4  -3   1    4.98    0.34 
  -4  -3   1    4.91    0.36 
  -4   3   1    4.81    0.44 
  -3  -3   1    4.82    0.29 
  -3  -3   1    4.76    0.28 
  -3   3   1    4.60    0.35 
  -2  -3   1   47.99    0.97 
  -2   3   1   47.44    0.76 
  -2   3   1   45.71    1.00 
   2   3  -1   46.64    0.75 
  -1  -3   1    3.64    0.20 
  -1   3   1    3.94    0.16 
  -1   3   1    4.02    0.22 
   0  -3   1    8.91    0.27 
   0   3  -1    9.21    0.30 
   0   3   1    8.93    0.28 
   1  -3   1    7.86    0.20 
   1   3   1    7.66    0.28 
  -1   3  -1    7.83    0.30 
  -2   3  -1   40.18    0.90 
   2   3   1   39.60    0.85 
  -3  -3  -1    8.92    0.43 
   3   3   1    8.86    0.37 
  -3   3  -1    8.61    0.46 
  -4  -3  -1    0.61    0.19 
  -4   3  -1    0.69    0.27 
   4   3   1    0.95    0.19 
  -5  -3  -1    0.21    0.18 
   5   3   1    0.69    0.18 
  -5   3  -1    0.23    0.25 
  -5   3  -1    0.42    0.12 
  -6  -3  -1    0.10    0.26 
  -6   3  -1    0.37    0.34 
  -7  -3  -1    0.51    0.36 
  -7   3  -1    0.56    0.48 
  -7  -4   1    0.88    0.35 
  -7   4   1    0.72    0.55 
  -6  -4   1    0.84    0.25 
  -6  -4   1    1.27    0.31 
  -6   4   1    0.83    0.41 
  -5  -4   1   -0.04    0.15 
  -5  -4   1    0.17    0.16 
  -5   4   1   -0.01    0.30 
  -4  -4   1    6.69    0.41 
  -4  -4   1    6.28    0.42 
  -4   4   1    5.80    0.49 
  -3  -4   1    6.50    0.36 
  -3   4   1    6.02    0.42 
  -2  -4   1    7.88    0.36 
   2   4  -1    8.11    0.23 
  -2   4   1    8.32    0.40 
  -2   4   1    8.08    0.24 
  -1  -4   1   60.25    1.17 
  -1   4   1   62.07    1.25 
  -1   4   1   62.92    1.07 
   0  -4   1    0.54    0.10 
   0   4  -1    0.51    0.11 
   0   4   1    0.61    0.11 
   1  -4   1    4.48    0.18 
   1   4   1    4.34    0.24 
  -1   4  -1    4.26    0.27 
  -2   4  -1   20.93    0.64 
   2   4   1   18.74    0.56 
  -3   4  -1    1.12    0.24 
   3   4   1    0.83    0.17 
   4   4   1    2.95    0.29 
  -4   4  -1    3.37    0.51 
  -5  -4  -1    3.23    0.42 
  -5   4  -1    3.30    0.25 
   5   4   1    3.51    0.32 
  -5   4  -1    3.24    0.49 
  -6  -4  -1    0.39    0.28 
  -6   4  -1    0.48    0.45 
  -7  -4  -1    0.81    0.37 
  -7   4  -1    0.78    0.54 
  -6  -5   1    0.03    0.20 
  -6   5   1   -0.27    0.51 
  -5  -5   1    0.46    0.22 
  -5   5   1    0.03    0.36 
  -4  -5   1    0.49    0.21 
  -4   5   1    0.59    0.26 
  -3  -5   1    0.53    0.17 
  -3   5   1    0.61    0.21 
  -2  -5   1    7.52    0.38 
  -2   5   1    7.60    0.43 
  -1  -5   1    2.94    0.22 
  -1   5   1    2.63    0.25 
  -1   5   1    2.58    0.18 
   0  -5   1    5.19    0.26 
   0   5   1    5.26    0.26 
   0   5  -1    5.19    0.30 
  -1   5  -1    4.41    0.30 
   1   5   1    4.11    0.26 
  -2   5  -1    0.38    0.16 
   2   5   1    0.31    0.13 
   3   5   1    0.02    0.12 
  -3   5  -1    0.13    0.20 
   4   5   1    0.27    0.15 
  -4   5  -1    0.05    0.26 
  -5   5  -1    1.20    0.46 
  -5   5  -1    2.03    0.23 
   5   5   1    2.59    0.29 
  -6   5  -1   -0.18    0.49 
  -6   5  -1    0.50    0.15 
  -6  -6   1    0.10    0.28 
  -6   6   1   -1.06    0.56 
  -5  -6   1    0.84    0.32 
  -5   6   1    0.86    0.51 
  -4  -6   1    2.73    0.40 
  -4   6   1    2.16    0.44 
  -3  -6   1    0.13    0.16 
  -3   6   1    0.19    0.21 
  -2  -6   1    4.45    0.34 
  -2   6   1    4.72    0.39 
  -1  -6   1    0.39    0.13 
  -1   6   1    0.45    0.13 
  -1   6   1    0.36    0.15 
   0  -6   1   18.89    0.56 
   0   6   1   17.29    0.65 
   0   6   1   19.17    0.57 
   0   6  -1   17.96    0.62 
  -1   6  -1    4.03    0.34 
   1   6   1    3.71    0.28 
  -2   6  -1    0.23    0.18 
   2   6   1    0.35    0.16 
   3   6   1    2.43    0.28 
  -3   6  -1    2.03    0.34 
   4   6   1    0.67    0.21 
  -4   6  -1   -0.26    0.31 
  -5   6  -1    0.90    0.18 
  -5   6  -1    0.25    0.48 
  -6   6  -1    0.47    0.57 
  -6   6  -1    1.43    0.23 
  -5  -7   1    0.22    0.27 
  -5   7   1   -0.42    0.54 
  -4  -7   1    0.32    0.25 
  -4   7   1   -0.09    0.39 
  -3  -7   1    0.89    0.26 
  -3   7   1    0.95    0.34 
  -2  -7   1    0.82    0.21 
  -2   7   1    0.58    0.23 
  -1  -7   1    5.06    0.36 
  -1   7   1    5.10    0.43 
   0   7  -1    8.41    0.47 
   0   7   1    8.19    0.49 
   0   7   1    7.65    0.40 
   0   7  -1    8.93    0.37 
   1   7   1    5.79    0.37 
  -1   7  -1    5.60    0.43 
   2   7   1    2.44    0.30 
  -2   7  -1    1.48    0.29 
  -3   7  -1   -0.07    0.27 
   3   7   1    0.39    0.19 
  -4   7  -1   -0.38    0.37 
   4   7   1    1.00    0.25 
  -4   8   1   -0.67    0.47 
  -2   8   1   -0.10    0.24 
  -1   8   1    2.29    0.38 
   1   8  -1    3.32    0.25 
   1   8  -1    3.19    0.31 
   0   8   1    2.05    0.32 
   0   8  -1    2.52    0.34 
   1   8   1    0.37    0.18 
  -1   8  -1    0.20    0.20 
  -2   8  -1    0.12    0.25 
   2   8   1    0.94    0.23 
   3   8   1    1.35    0.26 
  -3   8  -1    0.29    0.38 
   1   9  -1    3.96    0.33 
  -1   9   1    2.65    0.45 
   0   9   1    2.83    0.37 
   0   9  -1    2.60    0.36 
   1   9   1    2.46    0.27 
   1   9   1    2.13    0.30 
   2   9   1    3.27    0.33 
   0  10   1    1.38    0.29 
   0  10  -1    0.72    0.14 
  -8   0   2    0.65    0.41 
  -7   0   2    0.36    0.34 
  -6   0   2    5.81    0.50 
  -5   0   2    4.51    0.28 
  -5   0   2    4.20    0.44 
  -4   0   2   40.31    0.85 
  -4   0   2   41.17    1.01 
  -3   0   2   12.32    0.45 
  -3   0   2   12.56    0.37 
  -2   0   2    0.55    0.11 
  -2   0   2    0.56    0.09 
  -1   0   2   21.46    0.43 
   0   0   2    2.12    0.13 
   0   0  -2    1.86    0.10 
   1   0   2  934.35   21.02 
  -1   0  -2  985.00   20.31 
  -1   0  -2 1000.00   24.33 
  -2   0  -2    1.79    0.11 
   2   0   2    1.84    0.14 
  -2   0  -2    1.59    0.18 
  -3   0  -2   28.45    0.55 
  -3   0  -2   29.25    0.78 
   3   0   2   28.32    0.63 
   4   0   2    2.80    0.22 
  -4   0  -2    3.05    0.26 
  -4   0  -2    3.15    0.35 
  -5   0  -2   -0.02    0.19 
  -6   0  -2    1.47    0.34 
  -7   0  -2    0.59    0.38 
  -8  -1   2    0.84    0.42 
  -8   1   2    0.42    0.44 
  -7  -1   2    0.57    0.33 
  -7   1   2    0.65    0.39 
  -6  -1   2    0.54    0.16 
  -6  -1   2    0.42    0.22 
  -6   1   2    0.37    0.27 
  -5  -1   2    7.17    0.37 
  -5  -1   2    6.80    0.48 
  -5   1   2    6.29    0.50 
  -5   1   2    6.81    0.31 
  -4  -1   2    2.36    0.21 
  -4  -1   2    2.26    0.27 
  -4   1   2    2.26    0.17 
  -4   1   2    2.35    0.30 
  -3  -1   2   49.14    1.01 
  -3  -1   2   50.21    0.97 
  -3   1   2   48.49    0.88 
  -3   1   2   49.30    1.07 
  -2  -1   2    4.45    0.21 
  -2  -1   2    4.62    0.21 
  -2   1   2    4.92    0.19 
  -2   1   2    5.12    0.25 
  -1  -1   2   14.00    0.35 
   1   1  -2   14.38    0.28 
  -1   1   2   14.22    0.34 
  -1   1   2   13.96    0.35 
   0  -1   2   63.87    1.03 
   0   1   2   65.12    1.06 
   0   1  -2   65.26    1.01 
   1  -1   2   79.34    1.23 
  -1  -1  -2   78.05    1.34 
  -1   1  -2   79.69    1.24 
   1   1   2   78.04    1.30 
  -1   1  -2   81.41    1.31 
  -2  -1  -2    7.25    0.20 
  -2  -1  -2    6.78    0.31 
   2  -1   2    6.68    0.22 
  -2   1  -2    6.91    0.22 
  -2   1  -2    6.96    0.31 
   2   1   2    6.89    0.27 
   3  -1   2   41.60    0.77 
  -3  -1  -2   42.32    0.99 
  -3  -1  -2   42.04    0.71 
   3   1   2   40.05    0.85 
  -3   1  -2   40.55    0.76 
  -3   1  -2   41.82    0.99 
  -4  -1  -2    1.78    0.27 
   4   1   2    1.56    0.20 
  -4   1  -2    1.92    0.16 
  -4   1  -2    1.57    0.27 
  -5  -1  -2    0.67    0.23 
  -5   1  -2    0.58    0.25 
   5   1   2    0.52    0.17 
  -6  -1  -2    1.07    0.33 
  -6   1  -2    1.31    0.36 
  -7  -1  -2    0.54    0.35 
  -7   1  -2    1.07    0.42 
  -7  -2   2    0.41    0.20 
  -7  -2   2    1.06    0.33 
  -7   2   2    0.60    0.44 
  -6  -2   2    2.81    0.32 
  -6  -2   2    3.16    0.41 
  -6   2   2    2.89    0.47 
  -5  -2   2    5.37    0.43 
  -5  -2   2    5.30    0.36 
  -5   2   2    4.90    0.54 
  -4  -2   2    7.69    0.41 
  -4  -2   2    7.90    0.38 
  -4   2   2    7.60    0.26 
  -4   2   2    7.88    0.51 
  -3  -2   2    2.01    0.19 
  -3  -2   2    1.89    0.19 
  -3   2   2    1.95    0.13 
  -3   2   2    1.97    0.26 
  -2  -2   2   41.34    0.80 
  -2  -2   2   42.93    0.84 
  -2   2   2   40.53    0.87 
   2   2  -2   41.76    0.66 
  -2   2   2   39.94    0.72 
  -1  -2   2   46.25    0.86 
  -1   2   2   46.78    0.82 
   1   2  -2   47.44    0.77 
  -1   2   2   46.80    0.90 
   0  -2   2   27.15    0.52 
   0   2  -2   27.22    0.51 
   0   2   2   26.91    0.55 
   1  -2   2   99.18    1.51 
   1   2   2   98.65    1.62 
  -1   2  -2   96.24    1.54 
  -1   2  -2   97.85    1.60 
  -2  -2  -2   24.08    0.65 
   2  -2   2   24.64    0.44 
   2   2   2   24.41    0.59 
  -2   2  -2   24.19    0.65 
  -2   2  -2   23.83    0.52 
  -3  -2  -2   13.11    0.53 
   3  -2   2   13.32    0.33 
  -3   2  -2   13.49    0.55 
  -3   2  -2   13.06    0.37 
   3   2   2   13.19    0.45 
  -4  -2  -2    1.57    0.26 
  -4   2  -2    1.47    0.25 
   4   2   2    1.64    0.24 
  -4   2  -2    1.82    0.19 
  -5  -2  -2    3.12    0.40 
  -5   2  -2    3.03    0.47 
   5   2   2    2.81    0.28 
  -6  -2  -2    2.75    0.45 
  -6   2  -2    3.45    0.53 
   6   2   2    3.28    0.33 
  -7  -2  -2    0.52    0.37 
  -7   2  -2    1.40    0.47 
  -7  -3   2    0.29    0.20 
  -7  -3   2    0.81    0.33 
  -7   3   2    0.81    0.51 
  -6  -3   2    2.23    0.36 
  -6  -3   2    1.86    0.29 
  -6   3   2    1.59    0.44 
  -5  -3   2    5.90    0.44 
  -5  -3   2    5.66    0.40 
  -5   3   2    5.49    0.59 
  -4  -3   2    1.52    0.24 
  -4  -3   2    1.50    0.23 
  -3  -3   2    3.13    0.23 
  -3  -3   2    2.81    0.23 
   3   3  -2    3.05    0.14 
  -3   3   2    2.84    0.15 
  -3   3   2    2.96    0.28 
  -2  -3   2    6.76    0.31 
  -2   3   2    7.39    0.25 
   2   3  -2    6.84    0.19 
  -2   3   2    7.21    0.34 
  -1  -3   2   17.61    0.46 
  -1   3   2   17.69    0.42 
   1   3  -2   18.61    0.39 
  -1   3   2   17.69    0.51 
   0  -3   2   27.07    0.56 
   0   3  -2   26.86    0.55 
   0   3  -2   26.93    0.56 
   0   3   2   27.17    0.59 
   1  -3   2   14.95    0.33 
  -1   3  -2   15.44    0.40 
  -1   3  -2   15.63    0.44 
   1   3   2   15.44    0.45 
  -2   3  -2   18.05    0.46 
  -2   3  -2   18.59    0.58 
   2   3   2   18.09    0.53 
  -3  -3  -2   11.12    0.51 
  -3   3  -2   10.76    0.54 
  -3   3  -2   11.01    0.37 
   3   3   2   10.62    0.43 
  -4  -3  -2    0.33    0.18 
  -4   3  -2    0.21    0.23 
  -4   3  -2    0.34    0.12 
   4   3   2    0.45    0.18 
  -5  -3  -2    0.49    0.21 
  -5   3  -2    0.54    0.28 
   5   3   2    0.84    0.23 
  -5   3  -2    0.72    0.16 
  -6  -3  -2    1.86    0.40 
   6   3   2    2.62    0.30 
  -6   3  -2    1.73    0.47 
  -7  -3  -2    0.63    0.37 
  -7   3  -2    1.20    0.50 
  -7  -4   2    0.67    0.29 
  -7  -4   2    0.39    0.24 
  -7   4   2    0.61    0.55 
  -6  -4   2    0.32    0.20 
  -6  -4   2    0.43    0.22 
  -6   4   2   -0.26    0.42 
  -5  -4   2    8.80    0.51 
  -5  -4   2    9.45    0.54 
  -5   4   2    8.93    0.70 
  -4  -4   2    4.78    0.36 
  -4  -4   2    4.85    0.37 
  -4   4   2    5.33    0.49 
  -3  -4   2    2.32    0.25 
  -3   4   2    2.55    0.32 
  -2  -4   2   13.39    0.47 
   2   4  -2   13.01    0.32 
  -2   4   2   13.18    0.37 
  -2   4   2   13.66    0.52 
  -1  -4   2    3.70    0.23 
  -1   4   2    3.92    0.27 
  -1   4   2    3.89    0.21 
   1   4  -2    3.94    0.19 
   0  -4   2   11.09    0.34 
   0   4  -2   11.34    0.34 
   0   4   2   11.51    0.38 
   0   4  -2   11.36    0.37 
   1  -4   2   30.79    0.60 
   1   4   2   31.01    0.74 
  -1   4  -2   31.39    0.73 
   2   4   2   19.82    0.60 
  -2   4  -2   21.17    0.66 
  -3   4  -2    1.24    0.25 
  -3   4  -2    1.71    0.20 
   3   4   2    1.42    0.22 
   4   4   2    2.14    0.30 
  -4   4  -2    1.91    0.22 
  -4   4  -2    1.74    0.33 
  -5  -4  -2    0.24    0.23 
  -5   4  -2    0.40    0.15 
  -5   4  -2    0.40    0.34 
   5   4   2    0.34    0.23 
  -6  -4  -2    2.54    0.45 
  -6   4  -2    2.64    0.56 
  -7  -5   2    0.70    0.30 
  -7  -5   2    0.04    0.23 
  -7   5   2   -0.72    0.55 
  -6  -5   2    0.47    0.25 
  -6   5   2    0.39    0.54 
  -5  -5   2    0.47    0.22 
  -5   5   2    0.06    0.37 
  -4  -5   2    2.58    0.32 
  -4   5   2    3.15    0.48 
  -3  -5   2    3.16    0.31 
  -3   5   2    3.53    0.39 
  -2  -5   2    1.98    0.23 
  -2   5   2    1.63    0.19 
  -2   5   2    1.87    0.25 
   2   5  -2    1.64    0.14 
  -1  -5   2    0.31    0.11 
  -1   5   2    0.30    0.11 
  -1   5   2    0.22    0.13 
   1   5  -2    0.23    0.09 
   0  -5   2    2.39    0.19 
   0   5  -2    2.36    0.22 
   0   5   2    2.27    0.21 
   1  -5   2    4.56    0.21 
  -1   5  -2    4.75    0.31 
   1   5   2    4.64    0.30 
  -2   5  -2    6.86    0.42 
   2   5   2    7.05    0.38 
   3   5   2    3.88    0.33 
  -3   5  -2    3.79    0.27 
  -3   5  -2    4.06    0.45 
   4   5   2    0.31    0.20 
  -4   5  -2    0.01    0.25 
  -4   5  -2    0.19    0.13 
  -5   5  -2    0.88    0.40 
  -5   5  -2    1.00    0.20 
   5   5   2    1.37    0.31 
  -6   5  -2    0.48    0.50 
  -6  -6   2    0.28    0.26 
  -6   6   2   -0.72    0.57 
  -5  -6   2    0.86    0.29 
  -5   6   2    0.31    0.41 
  -4  -6   2    0.31    0.19 
  -4   6   2    0.41    0.28 
  -3  -6   2    1.89    0.29 
  -3   6   2    1.76    0.33 
  -2  -6   2    8.30    0.44 
  -2   6   2    8.37    0.52 
   2   6  -2    8.20    0.31 
  -1  -6   2    2.33    0.24 
  -1   6   2    2.26    0.23 
   1   6  -2    2.34    0.20 
  -1   6   2    2.50    0.31 
   0  -6   2   18.91    0.55 
   0   6  -2   19.81    0.64 
   0   6   2   19.87    0.60 
   1   6   2    6.33    0.38 
  -1   6  -2    6.78    0.40 
  -2   6  -2    2.34    0.35 
   2   6   2    2.22    0.31 
  -3   6  -2    0.29    0.13 
  -3   6  -2    0.05    0.22 
   3   6   2    0.15    0.18 
   4   6   2    2.30    0.36 
  -4   6  -2    2.23    0.26 
  -4   6  -2    1.79    0.42 
  -5   6  -2    1.48    0.24 
  -5   6  -2    1.03    0.52 
  -5  -7   2    0.23    0.27 
  -5   7   2   -0.17    0.53 
  -4  -7   2    0.53    0.24 
  -4   7   2    0.24    0.42 
  -3  -7   2    1.78    0.30 
  -3   7   2    2.04    0.41 
  -2  -7   2    1.85    0.29 
  -2   7   2    1.39    0.29 
  -1  -7   2    3.35    0.29 
   1   7  -2    3.33    0.24 
   1   7  -2    3.39    0.29 
  -1   7   2    3.40    0.38 
   0   7   2   15.90    0.58 
   0   7   2   16.74    0.69 
   0   7  -2   16.31    0.63 
  -1   7  -2    6.44    0.45 
   1   7   2    6.05    0.42 
   2   7   2    2.13    0.34 
  -2   7  -2    1.55    0.30 
  -3   7  -2    0.52    0.16 
  -3   7  -2    0.24    0.28 
   3   7   2    0.46    0.25 
  -4   7  -2    0.41    0.16 
  -4   7  -2   -0.34    0.37 
   4   7   2    0.88    0.26 
  -5   7  -2    0.57    0.19 
  -5   7  -2   -0.14    0.55 
  -4  -8   2    0.00    0.21 
  -4   8   2   -0.68    0.47 
  -3  -8   2    1.28    0.31 
  -3   8   2    1.57    0.47 
  -2  -8   2    1.12    0.26 
  -2   8   2    1.34    0.38 
  -1  -8   2    1.37    0.25 
   1   8  -2    1.73    0.21 
  -1   8   2    1.64    0.34 
   0   8  -2    2.48    0.32 
   0   8  -2    3.14    0.26 
   0   8   2    2.15    0.30 
   0   8   2    2.56    0.34 
  -1   8  -2    0.22    0.19 
   1   8   2    0.64    0.22 
  -1   8  -2    0.69    0.17 
  -2   8  -2    0.42    0.16 
   2   8   2    0.35    0.23 
  -2   8  -2   -0.16    0.23 
  -3   8  -2    0.70    0.19 
   3   8   2    0.91    0.29 
  -3   8  -2   -0.11    0.33 
   4   8   2    1.96    0.34 
  -4   8  -2    1.11    0.22 
  -4   8  -2   -0.19    0.48 
  -3  -9   2    0.45    0.26 
  -3   9   2    0.15    0.47 
  -2   9   2    0.26    0.35 
  -1   9   2    0.66    0.32 
   0   9  -2    0.58    0.15 
   0   9   2    1.30    0.30 
  -1   9  -2    0.55    0.17 
   1   9   2    0.72    0.23 
  -2   9  -2    0.68    0.18 
  -3   9  -2    0.38    0.18 
  -8   0   3    0.78    0.42 
  -7   0   3    0.75    0.36 
  -6   0   3    1.32    0.31 
  -6   0   3    1.25    0.21 
  -5   0   3    2.65    0.24 
  -5   0   3    2.85    0.40 
  -4   0   3    0.27    0.10 
  -4   0   3    0.30    0.15 
  -3   0   3    8.43    0.36 
  -3   0   3    8.42    0.32 
  -2   0   3   45.42    0.86 
  -2   0   3   45.56    0.86 
  -1   0   3   13.36    0.37 
   0   0   3  287.88    4.90 
   0   0  -3  282.47    4.58 
  -1   0  -3   87.21    1.41 
  -1   0  -3   82.19    1.33 
   1   0   3   83.52    1.39 
   2   0   3    1.56    0.17 
  -2   0  -3    1.56    0.18 
  -2   0  -3    1.70    0.13 
   3   0   3   23.87    0.59 
  -3   0  -3   23.19    0.51 
  -3   0  -3   23.48    0.71 
  -4   0  -3   -0.14    0.15 
   4   0   3   -0.15    0.12 
  -5   0  -3    1.58    0.31 
  -6   0  -3    1.33    0.39 
  -7   0  -3    0.77    0.39 
  -8  -1   3    1.24    0.42 
  -8   1   3    1.11    0.49 
  -7  -1   3    0.85    0.35 
  -7   1   3    0.70    0.40 
  -6  -1   3    0.01    0.11 
  -6  -1   3    0.03    0.19 
  -6   1   3    0.12    0.26 
  -5  -1   3    1.82    0.24 
  -5  -1   3    1.66    0.26 
  -5   1   3    1.92    0.20 
  -5   1   3    1.72    0.30 
  -4  -1   3   10.07    0.40 
  -4  -1   3   10.64    0.46 
  -4   1   3    9.96    0.35 
  -4   1   3   10.05    0.52 
  -3  -1   3   23.61    0.60 
  -3  -1   3   23.38    0.60 
  -3   1   3   23.61    0.54 
  -3   1   3   23.34    0.66 
  -2  -1   3    1.95    0.16 
  -2  -1   3    2.00    0.14 
  -2   1   3    1.76    0.16 
  -2   1   3    1.87    0.17 
  -1  -1   3   30.64    0.63 
  -1   1   3   30.86    0.63 
   1   1  -3   31.27    0.56 
  -1   1   3   30.79    0.61 
   0  -1   3  100.91    1.61 
   0   1   3  103.45    1.65 
   0   1  -3  103.17    1.58 
  -1  -1  -3   11.62    0.37 
  -1  -1  -3   12.23    0.30 
   1  -1   3   11.37    0.32 
  -1   1  -3   11.73    0.33 
   1   1   3   11.34    0.35 
  -1   1  -3   11.12    0.30 
  -2  -1  -3    7.32    0.34 
   2  -1   3    7.43    0.27 
  -2  -1  -3    7.50    0.24 
   2   1   3    7.40    0.30 
  -2   1  -3    7.31    0.25 
  -2   1  -3    7.34    0.33 
  -3  -1  -3    3.12    0.17 
   3  -1   3    3.21    0.23 
  -3  -1  -3    3.14    0.29 
  -3   1  -3    3.19    0.30 
  -3   1  -3    2.99    0.19 
   3   1   3    2.96    0.24 
  -4  -1  -3    2.36    0.34 
  -4   1  -3    2.79    0.38 
   4   1   3    2.67    0.27 
  -4   1  -3    2.58    0.21 
  -5  -1  -3    1.34    0.28 
   5   1   3    1.30    0.24 
  -5   1  -3    1.46    0.29 
  -6  -1  -3    0.72    0.33 
  -6   1  -3    0.14    0.30 
  -7  -1  -3    1.15    0.42 
  -7   1  -3    1.33    0.45 
  -8  -2   3    0.61    0.34 
  -8   2   3    0.56    0.49 
  -7  -2   3    0.48    0.28 
  -7  -2   3    0.08    0.15 
  -7   2   3    0.36    0.43 
  -6  -2   3    0.44    0.21 
  -6  -2   3    0.17    0.15 
  -6   2   3    0.14    0.27 
  -5  -2   3    8.73    0.51 
  -5  -2   3    9.18    0.46 
  -5   2   3    8.76    0.64 
  -4  -2   3   11.41    0.46 
  -4  -2   3   11.08    0.47 
  -4   2   3   10.99    0.35 
  -4   2   3   11.66    0.58 
  -3  -2   3    3.90    0.23 
  -3  -2   3    4.19    0.26 
  -3   2   3    4.13    0.31 
  -3   2   3    3.92    0.21 
  -2  -2   3    2.40    0.14 
  -2  -2   3    2.34    0.18 
  -2   2   3    2.38    0.20 
   2   2  -3    2.41    0.13 
  -2   2   3    2.09    0.17 
  -1  -2   3    0.94    0.13 
   1   2  -3    1.13    0.10 
  -1   2   3    1.19    0.15 
  -1   2   3    1.02    0.12 
   0  -2   3   20.87    0.47 
   0   2   3   21.57    0.51 
   0   2  -3   21.43    0.46 
   1  -2   3    8.77    0.27 
   1   2   3    9.40    0.33 
  -1   2  -3    9.38    0.29 
  -1   2  -3    9.56    0.32 
  -2  -2  -3   40.85    0.96 
   2  -2   3   40.54    0.74 
   2   2   3   41.63    0.89 
  -2   2  -3   41.24    0.80 
  -2   2  -3   42.31    0.92 
  -3  -2  -3    4.65    0.35 
  -3   2  -3    5.08    0.25 
   3   2   3    5.10    0.31 
  -3   2  -3    5.22    0.38 
  -4  -2  -3    0.09    0.16 
  -4   2  -3    0.14    0.20 
  -4   2  -3    0.10    0.11 
   4   2   3    0.03    0.15 
  -5  -2  -3    0.18    0.20 
  -5   2  -3    0.18    0.24 
   5   2   3    0.16    0.18 
  -6  -2  -3    0.55    0.32 
  -6   2  -3    0.60    0.35 
  -7  -2  -3    0.67    0.39 
  -7   2  -3    0.96    0.45 
  -7  -3   3    0.51    0.22 
  -7  -3   3    0.88    0.28 
  -7   3   3    0.46    0.44 
  -6  -3   3    3.03    0.37 
  -6  -3   3    2.97    0.39 
  -6   3   3    2.72    0.50 
  -5  -3   3   10.32    0.51 
  -5  -3   3    9.89    0.53 
  -5   3   3   10.70    0.71 
  -4  -3   3   17.39    0.61 
  -4  -3   3   18.28    0.62 
  -4   3   3   17.68    0.72 
  -3  -3   3   11.00    0.43 
  -3  -3   3   10.71    0.40 
  -3   3   3   11.29    0.34 
  -3   3   3   11.57    0.50 
   3   3  -3   11.46    0.27 
  -2  -3   3    9.63    0.37 
  -2   3   3    9.93    0.34 
   2   3  -3    9.93    0.26 
  -2   3   3    9.70    0.41 
  -1  -3   3   82.05    1.42 
   1   3  -3   80.37    1.31 
  -1   3   3   79.72    1.49 
  -1   3   3   80.65    1.39 
   0  -3   3   15.76    0.41 
   0   3  -3   15.64    0.40 
   0   3  -3   15.61    0.37 
   0   3   3   15.81    0.45 
   1  -3   3    3.96    0.17 
   1   3   3    4.09    0.25 
  -1   3  -3    4.44    0.25 
  -1   3  -3    3.99    0.21 
   2  -3   3   24.29    0.48 
  -2   3  -3   25.44    0.71 
  -2   3  -3   24.72    0.59 
   2   3   3   24.70    0.66 
  -3   3  -3    7.09    0.47 
   3   3   3    6.90    0.38 
  -3   3  -3    7.34    0.32 
  -4  -3  -3    2.06    0.31 
  -4   3  -3    1.95    0.22 
   4   3   3    2.39    0.31 
  -4   3  -3    1.83    0.32 
  -5  -3  -3    1.30    0.30 
  -5   3  -3    0.82    0.18 
   5   3   3    1.56    0.30 
  -5   3  -3    0.99    0.32 
  -6  -3  -3    0.35    0.30 
  -6   3  -3    0.22    0.37 
   6   3   3    0.49    0.25 
  -7  -4   3    0.82    0.29 
  -7  -4   3    0.44    0.23 
  -7   4   3    0.60    0.56 
  -6  -4   3    0.51    0.22 
  -6  -4   3    0.49    0.22 
  -6   4   3    0.12    0.43 
  -5  -4   3    5.59    0.44 
  -5  -4   3    5.99    0.44 
  -5   4   3    6.10    0.63 
  -4  -4   3    1.65    0.24 
  -4  -4   3    1.75    0.26 
  -4   4   3    1.53    0.29 
  -3  -4   3    6.86    0.38 
  -3   4   3    7.12    0.45 
  -3   4   3    6.65    0.28 
  -2  -4   3   13.12    0.47 
  -2   4   3   12.69    0.41 
  -2   4   3   12.62    0.52 
   2   4  -3   12.91    0.34 
  -1  -4   3   14.43    0.46 
  -1   4   3   15.38    0.55 
  -1   4   3   15.23    0.46 
   1   4  -3   15.67    0.40 
   0  -4   3   11.97    0.37 
   0   4  -3   11.73    0.36 
   0   4  -3   12.39    0.37 
   0   4   3   11.94    0.42 
   1  -4   3    7.25    0.25 
  -1   4  -3    7.27    0.34 
  -1   4  -3    7.28    0.29 
   1   4   3    6.99    0.34 
  -2   4  -3    1.41    0.22 
  -2   4  -3    1.70    0.18 
   2   4   3    1.81    0.23 
  -3   4  -3    3.20    0.41 
  -3   4  -3    3.06    0.25 
   3   4   3    3.11    0.32 
   4   4   3    0.23    0.21 
  -4   4  -3    0.46    0.15 
  -4   4  -3    0.25    0.25 
  -5   4  -3    0.79    0.35 
   5   4   3    0.95    0.29 
  -5   4  -3    0.71    0.18 
  -6  -4  -3    0.92    0.35 
  -6   4  -3    0.38    0.41 
   6   4   3    1.46    0.31 
  -7  -5   3    0.59    0.28 
  -7  -5   3    0.33    0.25 
  -7   5   3    0.04    0.63 
  -6  -5   3    1.47    0.32 
  -6  -5   3    1.52    0.30 
  -6   5   3    0.94    0.58 
  -5  -5   3    1.34    0.31 
  -5   5   3    1.21    0.42 
  -4  -5   3    3.47    0.36 
  -4   5   3    3.38    0.44 
  -3  -5   3    0.40    0.16 
  -3   5   3    0.33    0.19 
  -2  -5   3    0.63    0.16 
  -2   5   3    0.74    0.18 
   2   5  -3    0.85    0.12 
  -2   5   3    0.80    0.16 
  -1  -5   3   10.51    0.41 
  -1   5   3   10.31    0.40 
   1   5  -3   10.01    0.34 
  -1   5   3    9.99    0.47 
   0  -5   3    1.87    0.18 
   0   5   3    2.06    0.22 
   0   5  -3    1.70    0.19 
   0   5  -3    1.86    0.20 
  -1   5  -3    7.37    0.38 
  -1   5  -3    7.36    0.33 
   1   5   3    7.12    0.38 
   2   5   3    3.39    0.31 
  -2   5  -3    3.23    0.37 
  -2   5  -3    3.06    0.26 
  -3   5  -3    1.63    0.21 
  -3   5  -3    1.18    0.28 
   3   5   3    1.48    0.28 
  -4   5  -3    0.10    0.25 
  -4   5  -3    0.15    0.14 
   4   5   3    0.13    0.22 
   5   5   3    0.62    0.29 
  -5   5  -3    0.28    0.17 
  -5   5  -3   -0.13    0.34 
  -6   5  -3    1.00    0.51 
  -6   5  -3    0.88    0.29 
   6   5   3    2.03    0.35 
  -6  -6   3    0.47    0.28 
  -6   6   3   -0.34    0.59 
  -5  -6   3    0.17    0.21 
  -5   6   3    0.00    0.42 
  -4  -6   3    0.98    0.24 
  -4   6   3    1.05    0.35 
  -3  -6   3    1.63    0.27 
  -3   6   3    1.46    0.30 
  -2  -6   3   -0.01    0.11 
   2   6  -3    0.15    0.10 
  -2   6   3    0.09    0.16 
  -1  -6   3    0.47    0.14 
   1   6  -3    0.44    0.13 
  -1   6   3    0.37    0.17 
   1   6  -3    0.57    0.13 
  -1   6   3    0.41    0.16 
   0  -6   3    0.22    0.10 
   0   6  -3    0.16    0.12 
   0   6   3    0.08    0.13 
   0   6  -3    0.12    0.12 
  -1   6  -3    8.45    0.45 
  -1   6  -3    8.56    0.39 
   1   6   3    9.40    0.47 
  -2   6  -3    1.18    0.20 
  -2   6  -3    0.96    0.24 
   2   6   3    1.25    0.26 
  -3   6  -3    1.15    0.30 
  -3   6  -3    1.76    0.24 
   3   6   3    2.09    0.35 
  -4   6  -3    0.75    0.18 
  -4   6  -3    0.61    0.34 
   4   6   3    0.95    0.31 
  -5   6  -3   -0.28    0.40 
   5   6   3    0.41    0.27 
  -5   6  -3    0.15    0.17 
  -5  -7   3    0.48    0.27 
  -5   7   3    0.11    0.54 
  -4  -7   3    1.01    0.29 
  -4   7   3    0.95    0.45 
  -3  -7   3    1.91    0.31 
  -3   7   3    1.66    0.39 
  -2  -7   3    2.87    0.32 
  -2   7   3    2.91    0.42 
  -1  -7   3    1.33    0.21 
  -1   7   3    1.37    0.23 
   1   7  -3    1.19    0.17 
  -1   7   3    1.22    0.25 
   0   7   3    5.41    0.38 
   0   7  -3    5.56    0.32 
   1   7   3    7.60    0.46 
  -1   7  -3    8.77    0.71 
  -1   7  -3    8.23    0.40 
   2   7   3    2.35    0.36 
  -2   7  -3    1.54    0.33 
  -2   7  -3    2.21    0.26 
  -3   7  -3    3.37    0.31 
   3   7   3    3.14    0.41 
  -3   7  -3    2.04    0.39 
  -4   7  -3   -0.30    0.38 
   4   7   3    1.06    0.31 
  -4   7  -3    0.71    0.20 
  -4  -8   3    0.06    0.21 
  -4   8   3   -0.23    0.47 
  -3  -8   3    0.49    0.23 
  -3   8   3    0.05    0.36 
  -2  -8   3    0.05    0.14 
  -2   8   3   -0.06    0.26 
  -1   8   3    0.98    0.28 
   1   8  -3    0.57    0.15 
   0   8  -3    2.43    0.25 
   0   8   3    2.28    0.31 
   0   8   3    2.78    0.35 
  -1   8  -3    1.19    0.21 
   1   8   3    1.33    0.28 
   2   8   3    0.23    0.25 
  -2   8  -3    0.34    0.16 
  -3   8  -3    0.40    0.16 
   3   8   3    0.39    0.28 
  -3  -9   3    0.05    0.20 
  -3   9   3   -0.35    0.42 
  -2   9   3    1.22    0.44 
   1   9  -3    0.13    0.12 
  -1   9   3    0.34    0.29 
   0   9   3    1.28    0.30 
   0   9  -3    0.64    0.17 
   1   9   3    0.97    0.26 
  -1   9  -3    0.99    0.22 
  -2   9  -3    0.67    0.20 
   2   9   3    1.17    0.28 
  -8   0   4    0.82    0.42 
  -7   0   4    0.38    0.32 
  -6   0   4    0.20    0.13 
  -6   0   4    0.09    0.22 
  -5   0   4    0.21    0.21 
  -5   0   4    0.51    0.15 
  -4   0   4    5.54    0.38 
  -4   0   4    5.62    0.29 
  -3   0   4   79.69    1.43 
  -3   0   4   80.37    1.47 
  -2   0   4   50.58    0.92 
  -2   0   4   51.18    0.97 
  -1   0   4    0.73    0.08 
  -1   0   4    0.91    0.15 
   0   0   4   15.61    0.44 
   0   0  -4   15.75    0.38 
  -1   0  -4    0.33    0.09 
   1   0   4    0.36    0.12 
  -1   0  -4    0.26    0.08 
  -2   0  -4   52.58    1.09 
  -2   0  -4   51.53    0.95 
   2   0   4   52.15    1.03 
   3   0   4    0.66    0.16 
  -3   0  -4    0.73    0.13 
  -3   0  -4    0.43    0.16 
   4   0   4    2.62    0.32 
  -4   0  -4    2.59    0.37 
  -5   0  -4    0.35    0.24 
  -6   0  -4    0.24    0.32 
  -8  -1   4    0.80    0.37 
  -8   1   4    0.59    0.45 
  -7  -1   4    0.61    0.30 
  -7   1   4    0.38    0.38 
  -6  -1   4    1.17    0.27 
  -6  -1   4    1.13    0.21 
  -6   1   4    1.09    0.32 
  -5  -1   4    3.60    0.38 
  -5  -1   4    3.65    0.31 
  -5   1   4    3.48    0.46 
  -5   1   4    3.83    0.27 
  -4  -1   4    2.96    0.29 
  -4  -1   4    2.83    0.25 
  -4   1   4    2.93    0.23 
  -4   1   4    3.08    0.36 
  -3  -1   4   21.00    0.58 
  -3  -1   4   20.43    0.55 
  -3   1   4   20.88    0.62 
  -3   1   4   21.82    0.55 
  -2  -1   4   84.15    1.37 
  -2  -1   4   85.28    1.50 
  -2   1   4   87.31    1.47 
  -2   1   4   86.24    1.48 
   2   1  -4   85.82    1.37 
  -1  -1   4    9.65    0.34 
   1   1  -4   10.18    0.29 
  -1   1   4    9.85    0.36 
  -1   1   4    9.83    0.31 
   0  -1   4   46.40    0.87 
   0   1  -4   44.34    0.82 
   0   1   4   44.75    0.89 
  -1  -1  -4    8.73    0.28 
   1  -1   4    8.36    0.32 
  -1   1  -4    9.07    0.30 
  -1   1  -4    8.95    0.29 
   1   1   4    9.21    0.35 
  -2  -1  -4    9.80    0.31 
  -2  -1  -4    9.82    0.41 
   2  -1   4    9.47    0.37 
   2   1   4    9.63    0.38 
  -2   1  -4    9.73    0.39 
  -2   1  -4    9.44    0.31 
  -3  -1  -4    1.41    0.16 
  -3  -1  -4    1.17    0.21 
   3  -1   4    1.41    0.20 
  -3   1  -4    1.43    0.16 
   3   1   4    1.41    0.21 
  -3   1  -4    1.96    0.28 
  -4  -1  -4   11.47    0.60 
   4   1   4   11.28    0.51 
  -4   1  -4   11.08    0.59 
  -4   1  -4   11.24    0.40 
  -5  -1  -4    1.05    0.29 
  -5   1  -4    1.24    0.30 
  -6  -1  -4    0.67    0.35 
  -6   1  -4    0.98    0.37 
  -8  -2   4    0.51    0.33 
  -8   2   4    0.18    0.50 
  -7  -2   4    1.27    0.33 
  -7  -2   4    0.78    0.22 
  -7   2   4    0.77    0.48 
  -6  -2   4    0.50    0.18 
  -6  -2   4    0.48    0.20 
  -6   2   4    0.59    0.33 
  -5  -2   4    1.16    0.22 
  -5  -2   4    1.02    0.21 
  -5   2   4    1.16    0.32 
  -4  -2   4    3.63    0.30 
  -4  -2   4    3.55    0.29 
  -4   2   4    3.35    0.24 
  -4   2   4    3.78    0.40 
  -3  -2   4    3.04    0.20 
  -3  -2   4    3.13    0.24 
  -3   2   4    3.07    0.28 
  -3   2   4    3.27    0.23 
  -2  -2   4    2.12    0.20 
  -2  -2   4    2.04    0.12 
  -2   2   4    2.06    0.20 
   2   2  -4    2.16    0.14 
  -2   2   4    2.11    0.22 
  -1  -2   4   13.79    0.42 
  -1   2   4   14.58    0.44 
   1   2  -4   13.72    0.36 
  -1   2   4   14.32    0.44 
   0  -2   4    8.33    0.30 
   0   2   4    8.40    0.34 
   1  -2   4    6.06    0.27 
  -1   2  -4    6.92    0.27 
  -1   2  -4    6.54    0.26 
   1   2   4    6.74    0.32 
   2  -2   4    4.68    0.26 
  -2   2  -4    4.80    0.25 
   2   2   4    4.61    0.30 
  -2   2  -4    5.25    0.32 
  -3  -2  -4    1.39    0.23 
  -3   2  -4    1.66    0.20 
  -3   2  -4    1.15    0.22 
   3   2   4    1.71    0.24 
  -4  -2  -4    5.28    0.45 
  -4   2  -4    4.83    0.31 
  -4   2  -4    5.23    0.46 
   4   2   4    5.26    0.39 
  -5  -2  -4    0.60    0.27 
  -5   2  -4    0.37    0.26 
   5   2   4    0.40    0.24 
  -6  -2  -4    1.37    0.40 
  -6   2  -4    1.72    0.44 
  -7  -3   4    1.06    0.30 
  -7  -3   4    0.39    0.21 
  -7   3   4    0.71    0.50 
  -6  -3   4    1.43    0.27 
  -6  -3   4    1.70    0.30 
  -6   3   4    1.53    0.48 
  -5  -3   4    4.42    0.38 
  -5  -3   4    4.48    0.37 
  -5   3   4    4.33    0.57 
  -4  -3   4   11.38    0.47 
  -4  -3   4   11.16    0.49 
  -4   3   4   11.41    0.60 
  -4   3   4   10.99    0.39 
  -3  -3   4    2.02    0.18 
  -3  -3   4    1.89    0.23 
  -3   3   4    2.18    0.26 
  -3   3   4    2.17    0.22 
   3   3  -4    2.09    0.15 
  -2  -3   4   15.07    0.49 
  -2   3   4   14.44    0.46 
   2   3  -4   14.51    0.38 
  -2   3   4   14.43    0.52 
  -1  -3   4    7.08    0.31 
  -1   3   4    7.38    0.33 
  -1   3   4    7.49    0.34 
   1   3  -4    7.29    0.27 
   0  -3   4   15.43    0.44 
   0   3   4   15.91    0.49 
   0   3  -4   16.17    0.38 
   0   3  -4   15.91    0.43 
   1  -3   4    9.97    0.32 
  -1   3  -4    9.93    0.35 
   1   3   4    9.60    0.40 
  -1   3  -4   10.00    0.37 
   2  -3   4    9.51    0.39 
   2   3   4    7.87    0.40 
  -2   3  -4    8.30    0.33 
  -2   3  -4    8.13    0.42 
   3   3   4    6.30    0.40 
  -3   3  -4    6.03    0.31 
  -3   3  -4    6.01    0.44 
  -4  -3  -4    1.22    0.27 
  -4   3  -4    1.07    0.26 
   4   3   4    1.29    0.29 
  -4   3  -4    1.38    0.21 
  -5  -3  -4    0.72    0.30 
  -5   3  -4    0.81    0.20 
  -5   3  -4    0.70    0.30 
   5   3   4    0.61    0.29 
  -6  -3  -4    0.23    0.31 
  -6   3  -4    1.09    0.41 
   6   3   4    0.86    0.34 
  -7  -4   4    0.22    0.20 
  -7  -4   4    0.09    0.19 
  -7   4   4   -0.44    0.51 
  -6  -4   4    0.28    0.20 
  -6  -4   4    0.31    0.17 
  -6   4   4    0.21    0.43 
  -5  -4   4    0.47    0.20 
  -5  -4   4    0.48    0.16 
  -5   4   4    0.41    0.31 
  -4  -4   4   13.01    0.57 
  -4  -4   4   12.49    0.51 
  -4   4   4   13.01    0.68 
  -3  -4   4    0.08    0.11 
  -3   4   4    0.08    0.14 
   3   4  -4    0.11    0.09 
  -3   4   4    0.12    0.15 
  -2  -4   4    3.71    0.28 
  -2   4   4    4.09    0.33 
   2   4  -4    3.92    0.21 
  -2   4   4    3.99    0.29 
  -1  -4   4    6.15    0.31 
  -1   4   4    5.79    0.32 
   1   4  -4    5.83    0.26 
   1   4  -4    6.01    0.23 
  -1   4   4    5.61    0.34 
   0  -4   4    0.94    0.14 
   0   4  -4    0.89    0.12 
   0   4   4    1.03    0.18 
   0   4  -4    0.93    0.13 
   1  -4   4    1.80    0.16 
   1   4   4    2.02    0.25 
  -1   4  -4    1.71    0.20 
  -1   4  -4    1.79    0.24 
  -2   4  -4   14.97    0.49 
  -2   4  -4   14.00    0.57 
   2   4   4   14.78    0.57 
   3   4   4    5.59    0.42 
  -3   4  -4    5.50    0.32 
  -3   4  -4    5.96    0.49 
   4   4   4   -0.31    0.23 
  -4   4  -4    0.20    0.22 
  -4   4  -4   -0.01    0.13 
  -5   4  -4    0.62    0.32 
  -5   4  -4    0.29    0.18 
   5   4   4    0.26    0.29 
  -6   4  -4    0.85    0.44 
   6   4   4    0.62    0.35 
  -7  -5   4    0.55    0.27 
  -7   5   4   -0.25    0.64 
  -6  -5   4    0.11    0.21 
  -6   5   4   -0.49    0.51 
  -5  -5   4    0.89    0.26 
  -5   5   4    0.58    0.37 
  -4  -5   4    1.27    0.26 
  -4   5   4    1.38    0.33 
  -3  -5   4    7.88    0.45 
  -3   5   4    8.01    0.51 
  -2  -5   4    2.04    0.25 
  -2   5   4    2.21    0.29 
   2   5  -4    2.03    0.20 
  -2   5   4    1.95    0.30 
  -1  -5   4    2.69    0.24 
   1   5  -4    2.73    0.22 
  -1   5   4    2.72    0.29 
  -1   5   4    2.24    0.29 
   0  -5   4    0.14    0.09 
   0   5   4    0.04    0.14 
   0   5  -4    0.17    0.11 
   0   5  -4    0.19    0.11 
  -1   5  -4    9.21    0.38 
   1   5   4    9.60    0.47 
  -1   5  -4    9.21    0.43 
  -2   5  -4   10.33    0.43 
  -2   5  -4   10.94    0.55 
   2   5   4   11.31    0.53 
   3   5   4    6.06    0.45 
  -3   5  -4    5.13    0.49 
  -3   5  -4    6.17    0.36 
  -4   5  -4    0.76    0.30 
   4   5   4    0.98    0.35 
  -4   5  -4    0.97    0.21 
  -5   5  -4    0.28    0.18 
  -5   5  -4    0.68    0.37 
   5   5   4    0.39    0.33 
  -6  -6   4    0.48    0.27 
  -6   6   4   -0.32    0.60 
  -5  -6   4    0.76    0.27 
  -5   6   4    0.58    0.46 
  -4  -6   4    1.41    0.30 
  -4   6   4    0.73    0.31 
  -3  -6   4    1.99    0.31 
  -3   6   4    1.68    0.33 
  -2  -6   4    0.64    0.18 
   2   6  -4    0.42    0.13 
  -2   6   4    0.43    0.19 
  -2   6   4    0.60    0.22 
  -1  -6   4    1.75    0.23 
  -1   6   4    1.34    0.25 
   1   6  -4    1.46    0.19 
  -1   6   4    1.58    0.25 
   0  -6   4    1.50    0.22 
   0   6   4    1.61    0.25 
   0   6  -4    1.68    0.21 
   1   6   4   11.20    0.55 
  -1   6  -4   11.44    0.45 
  -2   6  -4    4.68    0.31 
   2   6   4    4.87    0.41 
  -3   6  -4    2.22    0.26 
   4   6   4    1.33    0.37 
  -4   6  -4    1.51    0.26 
   5   6   4    0.74    0.32 
  -5   6  -4    0.35    0.20 
  -5  -7   4    1.82    0.39 
  -5   7   4    1.04    0.59 
  -4  -7   4    1.22    0.31 
  -4   7   4    0.72    0.44 
  -3  -7   4    0.67    0.23 
  -3   7   4    1.03    0.36 
  -2  -7   4   -0.01    0.13 
   2   7  -4    0.05    0.11 
  -2   7   4   -0.08    0.20 
  -1  -7   4    0.18    0.12 
  -1   7   4    0.08    0.14 
  -1   7   4   -0.06    0.16 
   1   7  -4    0.10    0.12 
   0   7   4    1.10    0.25 
   0   7  -4    1.49    0.22 
  -1   7  -4   11.51    0.49 
   1   7   4   11.78    0.58 
  -2   7  -4    1.87    0.27 
   2   7   4    2.17    0.36 
  -3   7  -4    0.92    0.23 
   3   7   4    0.90    0.31 
   4   7   4    0.30    0.28 
  -4   7  -4    0.09    0.18 
  -4  -8   4    0.20    0.22 
  -4   8   4   -0.13    0.48 
  -3  -8   4    0.04    0.17 
  -3   8   4    0.01    0.35 
  -2  -8   4    0.56    0.20 
  -2   8   4    0.47    0.29 
  -1   8   4    0.33    0.24 
   1   8  -4    0.17    0.13 
   0   8   4    0.67    0.24 
   0   8   4    1.34    0.27 
   0   8  -4    0.86    0.19 
  -1   8  -4    0.73    0.19 
   1   8   4    0.48    0.23 
  -2   8  -4    0.67    0.20 
   2   8   4    0.28    0.25 
   3   8   4    0.78    0.32 
  -3   8  -4    0.89    0.24 
  -3  -9   4   -0.02    0.18 
  -3   9   4   -0.43    0.41 
  -2   9   4    0.96    0.41 
  -1   9   4    0.67    0.30 
   1   9  -4    0.16    0.13 
   0   9  -4    0.23    0.16 
   0   9   4    1.06    0.25 
  -1   9  -4    0.01    0.13 
   1   9   4    0.10    0.22 
  -2   9  -4    0.12    0.18 
   2   9   4   -0.01    0.25 
  -8   0   5    0.49    0.38 
  -7   0   5    0.35    0.30 
  -6   0   5    0.27    0.23 
  -6   0   5    0.23    0.13 
  -5   0   5    0.09    0.13 
  -5   0   5    0.09    0.20 
  -4   0   5   -0.08    0.10 
  -4   0   5    0.13    0.15 
  -3   0   5    3.89    0.28 
  -3   0   5    3.93    0.28 
  -2   0   5    0.17    0.08 
  -2   0   5    0.06    0.12 
  -1   0   5    4.80    0.18 
  -1   0   5    5.32    0.30 
   0   0  -5    8.87    0.31 
   0   0   5    9.29    0.38 
  -1   0  -5   77.23    1.38 
   1   0   5   76.27    1.41 
  -1   0  -5   76.51    1.32 
   2   0   5   34.65    0.83 
  -2   0  -5   35.26    0.87 
  -2   0  -5   35.29    0.75 
   3   0   5    0.31    0.19 
  -3   0  -5    0.13    0.15 
  -3   0  -5    0.11    0.13 
  -4   0  -5    0.12    0.17 
   4   0   5   -0.13    0.20 
  -5   0  -5    0.13    0.23 
  -6   0  -5    0.39    0.32 
  -8  -1   5    1.03    0.38 
  -8   1   5    0.63    0.46 
  -7  -1   5    0.84    0.30 
  -7  -1   5    1.02    0.23 
  -7   1   5    0.73    0.40 
  -6  -1   5    2.60    0.30 
  -6  -1   5    1.91    0.31 
  -6   1   5    2.49    0.42 
  -5  -1   5    2.50    0.36 
  -5  -1   5    2.70    0.30 
  -5   1   5    2.37    0.34 
  -5   1   5    2.67    0.26 
  -4  -1   5    1.66    0.25 
  -4  -1   5    1.82    0.24 
  -4   1   5    1.46    0.24 
  -4   1   5    1.90    0.23 
  -3  -1   5   11.20    0.38 
  -3  -1   5   10.91    0.42 
  -3   1   5   10.62    0.41 
  -3   1   5   10.66    0.44 
  -2  -1   5   18.07    0.53 
  -2  -1   5   17.16    0.39 
  -2   1   5   17.39    0.49 
  -2   1   5   18.23    0.53 
   2   1  -5   18.00    0.44 
  -1  -1   5    2.46    0.23 
  -1   1   5    2.12    0.25 
  -1   1   5    2.17    0.16 
   1   1  -5    2.42    0.18 
   0  -1   5    4.16    0.27 
   0   1   5    4.82    0.30 
   0   1  -5    4.59    0.23 
   1  -1   5   79.83    1.44 
  -1  -1  -5   79.52    1.37 
  -1   1  -5   81.89    1.39 
  -1   1  -5   80.80    1.39 
   1   1   5   80.22    1.49 
   2  -1   5   11.34    0.44 
  -2  -1  -5   11.39    0.37 
  -2  -1  -5   11.42    0.47 
  -2   1  -5   11.12    0.44 
  -2   1  -5   11.07    0.38 
   2   1   5   11.28    0.47 
   3  -1   5    6.81    0.40 
  -3  -1  -5    6.56    0.31 
  -3  -1  -5    7.06    0.44 
   3   1   5    6.88    0.44 
  -3   1  -5    6.82    0.34 
  -3   1  -5    6.59    0.43 
  -4  -1  -5    0.22    0.19 
  -4   1  -5    0.03    0.13 
  -4   1  -5    0.04    0.17 
   4   1   5   -0.17    0.18 
  -5  -1  -5    0.48    0.27 
  -5   1  -5    0.42    0.26 
  -6  -1  -5    0.92    0.37 
  -6   1  -5    1.16    0.38 
  -7  -2   5    0.41    0.19 
  -7  -2   5    0.43    0.24 
  -7   2   5   -0.12    0.39 
  -6  -2   5    0.55    0.20 
  -6  -2   5    0.56    0.20 
  -6   2   5    0.19    0.33 
  -5  -2   5    0.26    0.15 
  -5  -2   5    0.30    0.16 
  -5   2   5    0.32    0.14 
  -5   2   5    0.33    0.26 
  -4  -2   5    2.32    0.25 
  -4  -2   5    2.34    0.27 
  -4   2   5    2.34    0.36 
  -4   2   5    2.05    0.25 
  -3  -2   5    0.68    0.11 
  -3  -2   5    0.71    0.16 
  -3   2   5    0.57    0.16 
  -3   2   5    0.53    0.15 
  -2  -2   5    5.99    0.32 
  -2   2   5    5.88    0.31 
  -2   2   5    6.15    0.35 
   2   2  -5    5.98    0.25 
  -1  -2   5   11.32    0.41 
  -1   2   5   11.77    0.41 
  -1   2   5   11.51    0.44 
   1   2  -5   11.68    0.36 
   0  -2   5    2.62    0.23 
   0   2  -5    2.81    0.19 
   0   2   5    2.86    0.26 
   1  -2   5    2.71    0.24 
  -1   2  -5    2.89    0.19 
   1   2   5    2.77    0.27 
  -1   2  -5    2.95    0.21 
   2  -2   5    0.26    0.16 
   2   2   5    0.34    0.18 
  -2   2  -5    0.19    0.12 
  -2   2  -5    0.31    0.12 
  -3  -2  -5    0.70    0.20 
  -3   2  -5    0.86    0.20 
   3   2   5    1.10    0.25 
  -3   2  -5    1.01    0.19 
  -4  -2  -5    0.03    0.17 
  -4   2  -5   -0.01    0.13 
   4   2   5   -0.02    0.21 
  -4   2  -5    0.17    0.17 
  -5  -2  -5    0.32    0.27 
   5   2   5   -0.03    0.26 
  -5   2  -5    0.48    0.26 
  -6  -2  -5    0.85    0.37 
  -6   2  -5    0.37    0.33 
  -7  -3   5    0.48    0.22 
  -7   3   5    0.74    0.52 
  -6  -3   5    2.56    0.34 
  -6  -3   5    2.44    0.35 
  -6   3   5    2.17    0.53 
  -5  -3   5    9.69    0.49 
  -5  -3   5   10.23    0.53 
  -5   3   5    9.44    0.69 
  -4  -3   5   15.48    0.55 
  -4  -3   5   16.66    0.62 
  -4   3   5   16.61    0.71 
  -4   3   5   16.18    0.52 
  -3  -3   5   11.71    0.49 
   3   3  -5   12.15    0.36 
  -3   3   5   12.40    0.54 
  -3   3   5   12.23    0.47 
  -2  -3   5   22.88    0.66 
  -2   3   5   25.08    0.73 
   2   3  -5   24.57    0.56 
  -2   3   5   24.07    0.67 
  -1  -3   5    3.48    0.25 
  -1   3   5    3.41    0.30 
  -1   3   5    3.39    0.26 
   1   3  -5    3.60    0.22 
   0  -3   5   28.37    0.68 
   0   3   5   27.70    0.75 
   0   3  -5   28.92    0.66 
   1  -3   5    2.53    0.22 
   1   3   5    2.43    0.28 
  -1   3  -5    2.65    0.21 
  -1   3  -5    2.53    0.22 
  -2   3  -5    3.26    0.31 
  -2   3  -5    3.85    0.28 
   2   3   5    3.88    0.35 
   3   3   5    6.91    0.49 
  -3   3  -5    6.51    0.45 
  -3   3  -5    6.79    0.37 
  -4   3  -5    0.21    0.19 
   4   3   5    0.10    0.26 
  -4   3  -5    0.10    0.15 
  -5  -3  -5    1.70    0.39 
  -5   3  -5    1.41    0.34 
  -5   3  -5    0.97    0.23 
   5   3   5    0.99    0.38 
  -6  -3  -5    0.80    0.35 
  -6   3  -5    1.02    0.38 
  -7  -4   5    0.35    0.22 
  -7   4   5   -0.22    0.57 
  -6  -4   5    0.32    0.21 
  -6   4   5   -0.05    0.45 
  -5  -4   5    1.84    0.30 
  -5   4   5    1.68    0.42 
  -4  -4   5    8.19    0.47 
  -4   4   5    8.21    0.58 
  -3  -4   5    4.51    0.35 
  -3   4   5    4.61    0.36 
   3   4  -5    4.45    0.25 
  -3   4   5    4.81    0.41 
  -2  -4   5    5.00    0.33 
   2   4  -5    4.90    0.26 
  -2   4   5    5.32    0.38 
  -2   4   5    4.82    0.36 
  -1  -4   5   14.62    0.50 
  -1   4   5   14.65    0.54 
   1   4  -5   15.15    0.46 
  -1   4   5   14.77    0.57 
   0  -4   5    1.00    0.16 
   0   4  -5    1.01    0.16 
   0   4   5    0.98    0.21 
   1  -4   5    2.14    0.20 
  -1   4  -5    1.95    0.21 
   1   4   5    2.41    0.31 
  -2   4  -5    5.10    0.60 
  -2   4  -5    5.39    0.33 
   2   4   5    5.34    0.41 
  -3   4  -5    1.38    0.22 
  -3   4  -5    1.03    0.23 
   3   4   5    1.47    0.32 
   4   4   5    0.09    0.31 
  -4   4  -5    0.18    0.21 
  -4   4  -5    0.24    0.18 
  -5   4  -5   -0.13    0.17 
  -5   4  -5    0.40    0.27 
   5   4   5   -0.30    0.34 
  -7  -5   5    0.02    0.23 
  -7   5   5   -0.24    0.64 
  -6  -5   5    0.57    0.25 
  -6   5   5   -0.27    0.52 
  -5  -5   5    3.19    0.40 
  -5   5   5    2.83    0.53 
  -4  -5   5    5.27    0.43 
  -4   5   5    5.26    0.56 
  -3  -5   5    5.55    0.40 
  -3   5   5    6.11    0.49 
  -2  -5   5    1.18    0.22 
  -2   5   5    1.23    0.24 
   2   5  -5    1.22    0.17 
  -2   5   5    1.10    0.25 
  -1  -5   5    1.89    0.24 
   1   5  -5    1.90    0.22 
  -1   5   5    2.27    0.32 
  -1   5   5    1.82    0.27 
   0  -5   5    3.84    0.27 
   0   5  -5    4.07    0.29 
   0   5   5    4.29    0.37 
  -1   5  -5    0.20    0.14 
   1   5   5    0.05    0.18 
   2   5   5    5.63    0.45 
  -2   5  -5    5.55    0.34 
  -3   5  -5    1.66    0.25 
   3   5   5    1.39    0.34 
  -4   5  -5    0.89    0.21 
   4   5   5    1.07    0.37 
   5   5   5    0.56    0.37 
  -5   5  -5    0.02    0.20 
  -6  -6   5    0.85    0.31 
  -6   6   5   -0.55    0.60 
  -5  -6   5    0.31    0.24 
  -5   6   5   -0.45    0.43 
  -4  -6   5    0.05    0.17 
  -4   6   5   -0.16    0.30 
  -3  -6   5    1.73    0.28 
  -3   6   5    1.67    0.32 
  -2  -6   5    0.84    0.21 
   2   6  -5    0.46    0.15 
  -2   6   5    0.52    0.22 
  -2   6   5    0.59    0.21 
  -1  -6   5    1.41    0.22 
   1   6  -5    1.08    0.18 
  -1   6   5    0.66    0.23 
  -1   6   5    0.70    0.20 
   0   6   5    0.19    0.20 
   0   6  -5    0.25    0.15 
   1   6   5    0.43    0.22 
  -1   6  -5    0.50    0.17 
   2   6   5    0.59    0.27 
  -2   6  -5    0.64    0.19 
   3   6   5    1.92    0.40 
  -3   6  -5    1.21    0.25 
   4   6   5    0.69    0.36 
  -4   6  -5    0.53    0.22 
  -5  -7   5    1.05    0.31 
  -5   7   5    0.11    0.55 
  -4  -7   5    0.36    0.21 
  -4   7   5    0.12    0.42 
  -3  -7   5    4.40    0.42 
  -3   7   5    3.78    0.48 
  -2  -7   5    3.04    0.33 
   2   7  -5    3.25    0.29 
  -2   7   5    3.18    0.46 
  -1  -7   5    2.76    0.29 
   1   7  -5    2.66    0.27 
  -1   7   5    3.43    0.40 
  -1   7   5    3.05    0.37 
   0   7   5    2.13    0.35 
   0   7  -5    2.26    0.27 
   1   7   5    0.89    0.29 
  -1   7  -5    0.74    0.18 
  -2   7  -5    1.31    0.25 
   2   7   5    1.10    0.33 
  -3   7  -5    0.35    0.21 
   3   7   5    0.38    0.31 
  -4   7  -5    2.05    0.33 
   4   7   5    2.72    0.71 
  -4  -8   5    0.11    0.20 
  -4   8   5   -0.34    0.46 
  -3  -8   5    0.25    0.19 
  -3   8   5   -0.16    0.35 
  -2  -8   5    1.04    0.24 
  -2   8   5    1.20    0.39 
   1   8  -5    0.04    0.14 
  -1   8   5    0.41    0.25 
   0   8   5    0.40    0.26 
   0   8  -5    0.57    0.19 
   0   8   5    1.12    0.24 
   1   8   5    0.27    0.27 
  -1   8  -5    0.39    0.19 
  -2   8  -5    0.47    0.22 
   2   8   5    0.16    0.27 
   3   8   5    0.79    0.45 
  -3   8  -5    0.36    0.22 
  -2   9   5    0.25    0.35 
  -1   9   5    1.20    0.32 
  -1   9  -5    0.03    0.18 
   1   9   5   -0.14    0.24 
  -8   0   6    0.70    0.40 
  -7   0   6    1.58    0.38 
  -6   0   6    0.31    0.15 
  -6   0   6    0.34    0.24 
  -5   0   6   -0.05    0.12 
  -5   0   6   -0.08    0.18 
  -4   0   6    2.05    0.32 
  -4   0   6    1.97    0.26 
  -3   0   6    1.97    0.26 
  -3   0   6    2.25    0.24 
  -2   0   6    9.21    0.31 
  -2   0   6    9.23    0.42 
  -1   0   6   18.61    0.58 
  -1   0   6   17.92    0.42 
   0   0  -6   -0.02    0.08 
   0   0   6    0.31    0.18 
   1   0   6    5.67    0.37 
  -1   0  -6    5.38    0.29 
   2   0   6    1.83    0.28 
  -2   0  -6    1.47    0.24 
  -2   0  -6    1.54    0.20 
   3   0   6    3.75    0.42 
  -3   0  -6    3.58    0.29 
  -3   0  -6    3.36    0.35 
  -4   0  -6    2.63    0.39 
  -5   0  -6    0.24    0.24 
  -6   0  -6    0.66    0.36 
  -7  -1   6    0.35    0.25 
  -7  -1   6    0.28    0.17 
  -7   1   6    0.50    0.36 
  -6  -1   6    0.48    0.18 
  -6  -1   6    0.44    0.20 
  -6   1   6    0.40    0.16 
  -6   1   6    0.55    0.29 
  -5  -1   6    2.07    0.31 
  -5  -1   6    2.16    0.30 
  -5   1   6    1.96    0.27 
  -5   1   6    2.25    0.35 
  -4  -1   6    4.30    0.32 
  -4  -1   6    4.67    0.35 
  -4   1   6    4.64    0.35 
  -4   1   6    4.74    0.43 
  -3  -1   6    4.01    0.31 
  -3  -1   6    3.75    0.24 
  -3   1   6    4.03    0.31 
  -3   1   6    4.09    0.32 
  -2  -1   6   18.86    0.47 
  -2  -1   6   16.53    0.56 
  -2   1   6   16.90    0.57 
   2   1  -6   17.60    0.47 
  -2   1   6   17.06    0.50 
  -1  -1   6   25.84    0.70 
  -1   1   6   26.35    0.72 
   1   1  -6   26.00    0.61 
  -1   1   6   26.14    0.62 
   0  -1   6    6.39    0.36 
   0   1   6    6.29    0.38 
   0   1  -6    6.25    0.28 
   1  -1   6   10.99    0.48 
  -1   1  -6   10.48    0.39 
   1   1   6   10.65    0.48 
  -1   1  -6   10.30    0.36 
   2  -1   6    2.88    0.36 
  -2  -1  -6    2.97    0.25 
  -2   1  -6    2.75    0.26 
   2   1   6    3.12    0.37 
  -2   1  -6    3.19    0.27 
  -3  -1  -6    4.61    0.39 
   3  -1   6    4.01    0.42 
  -3  -1  -6    4.27    0.30 
   3   1   6    4.10    0.46 
  -3   1  -6    4.10    0.36 
  -3   1  -6    4.33    0.31 
  -4  -1  -6    1.77    0.31 
  -4   1  -6    1.36    0.22 
   4   1   6    1.57    0.34 
  -4   1  -6    1.52    0.27 
  -5  -1  -6    0.80    0.31 
  -5   1  -6    0.40    0.25 
  -6  -1  -6    0.70    0.39 
  -6   1  -6    0.74    0.35 
  -7  -2   6    0.22    0.18 
  -7   2   6   -0.52    0.37 
  -6  -2   6    0.33    0.19 
  -6   2   6   -0.01    0.32 
  -5  -2   6    0.19    0.16 
  -5   2   6    0.27    0.14 
  -5   2   6    0.02    0.25 
  -4  -2   6    0.05    0.14 
  -4   2   6    0.07    0.15 
  -4   2   6    0.25    0.20 
  -3  -2   6    2.78    0.28 
  -3   2   6    2.82    0.29 
  -3   2   6    2.95    0.33 
  -2  -2   6    0.89    0.19 
   2   2  -6    1.05    0.15 
  -2   2   6    0.93    0.16 
  -2   2   6    1.16    0.22 
  -1  -2   6    3.96    0.31 
  -1   2   6    4.12    0.34 
  -1   2   6    3.95    0.26 
   1   2  -6    3.97    0.24 
   0  -2   6    1.93    0.25 
   0   2   6    2.21    0.29 
   0   2  -6    1.89    0.19 
   1  -2   6    1.85    0.24 
  -1   2  -6    1.74    0.20 
   1   2   6    1.53    0.25 
  -1   2  -6    1.32    0.18 
   2  -2   6    1.06    0.23 
  -2   2  -6    0.83    0.16 
  -2   2  -6    0.93    0.18 
   2   2   6    1.11    0.26 
   3   2   6    5.26    0.47 
  -3   2  -6    5.34    0.34 
  -3   2  -6    5.23    0.40 
  -4  -2  -6    2.13    0.36 
  -4   2  -6    1.97    0.26 
  -4   2  -6    2.47    0.38 
   4   2   6    2.09    0.40 
  -5  -2  -6    0.78    0.31 
  -5   2  -6    0.38    0.25 
   5   2   6   -0.10    0.34 
  -7  -3   6    0.25    0.21 
  -7   3   6   -0.79    0.44 
  -6  -3   6    0.90    0.25 
  -6   3   6    0.74    0.45 
  -5  -3   6    3.99    0.38 
  -5   3   6    3.72    0.54 
  -4  -3   6    8.96    0.49 
  -4   3   6    8.49    0.44 
  -4   3   6    8.55    0.56 
  -3  -3   6    5.39    0.37 
  -3   3   6    6.07    0.41 
  -3   3   6    5.57    0.40 
   3   3  -6    5.56    0.29 
  -2  -3   6    1.92    0.25 
  -2   3   6    1.72    0.25 
  -2   3   6    2.07    0.28 
   2   3  -6    2.04    0.22 
  -1  -3   6   17.54    0.57 
  -1   3   6   17.74    0.61 
   1   3  -6   18.11    0.52 
  -1   3   6   16.53    0.61 
   0  -3   6    4.22    0.31 
   0   3  -6    4.51    0.28 
   0   3   6    4.47    0.37 
   1  -3   6    2.57    0.26 
  -1   3  -6    2.79    0.26 
   1   3   6    2.77    0.35 
   2   3   6    6.35    0.48 
  -2   3  -6    5.92    0.35 
   3   3   6    5.10    0.51 
  -3   3  -6    4.70    0.34 
  -4   3  -6    1.12    0.23 
   4   3   6    1.21    0.38 
   5   3   6   -0.42    0.36 
  -7  -4   6    0.34    0.24 
  -7   4   6   -0.34    0.58 
  -6  -4   6    0.24    0.22 
  -6   4   6   -0.40    0.46 
  -5  -4   6    0.47    0.22 
  -5   4   6    0.10    0.31 
  -4  -4   6    2.04    0.33 
  -4   4   6    1.97    0.34 
  -3  -4   6    5.65    0.40 
   3   4  -6    5.97    0.32 
  -3   4   6    6.80    0.48 
  -3   4   6    6.02    0.43 
  -2  -4   6    1.08    0.21 
   2   4  -6    0.91    0.17 
  -2   4   6    0.76    0.20 
  -2   4   6    0.92    0.25 
  -1  -4   6    0.94    0.20 
  -1   4   6    0.75    0.19 
   1   4  -6    0.80    0.16 
  -1   4   6    0.65    0.22 
   0  -4   6    0.48    0.15 
   0   4  -6    0.35    0.15 
   0   4   6    0.49    0.22 
  -1   4  -6    0.87    0.18 
   1   4   6    1.20    0.27 
  -2   4  -6    0.49    0.18 
   2   4   6    0.49    0.27 
   3   4   6    1.14    0.35 
  -3   4  -6    1.15    0.23 
   4   4   6   -0.27    0.35 
  -4   4  -6    0.21    0.19 
  -5   4  -6   -0.17    0.20 
   5   4   6   -0.53    0.33 
  -6  -5   6    0.59    0.27 
  -6   5   6   -0.09    0.54 
  -5  -5   6    0.57    0.24 
  -5   5   6    0.24    0.38 
  -4  -5   6    0.74    0.23 
  -4   5   6    0.68    0.32 
  -3  -5   6    2.23    0.31 
  -3   5   6    2.34    0.32 
   3   5  -6    2.30    0.25 
  -3   5   6    2.63    0.40 
  -2  -5   6    4.14    0.35 
   2   5  -6    4.51    0.30 
  -2   5   6    3.89    0.38 
  -2   5   6    4.17    0.43 
  -1  -5   6    2.71    0.27 
  -1   5   6    2.35    0.32 
  -1   5   6    2.58    0.33 
   1   5  -6    2.46    0.26 
   0  -5   6    0.70    0.15 
   0   5   6    0.68    0.24 
   0   5  -6    0.88    0.19 
   1   5   6    0.39    0.23 
  -1   5  -6    0.50    0.17 
  -2   5  -6    3.84    0.34 
   2   5   6    3.63    0.45 
   3   5   6    2.27    0.44 
  -3   5  -6    2.76    0.33 
   4   5   6    1.39    0.44 
  -4   5  -6    1.20    0.27 
  -6  -6   6    1.03    0.33 
  -6   6   6    0.66    0.65 
  -5  -6   6    0.29    0.22 
  -5   6   6   -0.81    0.44 
  -4  -6   6    1.50    0.31 
  -4   6   6    1.66    0.45 
  -3  -6   6    2.18    0.34 
  -3   6   6    2.20    0.40 
  -2  -6   6    5.49    0.39 
  -2   6   6    4.69    0.45 
  -2   6   6    5.10    0.48 
   2   6  -6    4.88    0.33 
  -1  -6   6    0.41    0.15 
  -1   6   6    0.48    0.24 
   1   6  -6    0.15    0.14 
  -1   6   6    0.32    0.18 
   0   6  -6    1.22    0.22 
   0   6   6    1.15    0.30 
   1   6   6    0.45    0.29 
  -1   6  -6    0.56    0.19 
  -2   6  -6    1.69    0.26 
   2   6   6    1.75    0.40 
  -3   6  -6    0.15    0.20 
   3   6   6   -0.09    0.34 
  -4   6  -6    0.09    0.22 
   4   6   6    0.16    0.37 
  -5  -7   6    0.14    0.23 
  -5   7   6   -0.69    0.53 
  -4  -7   6    0.57    0.24 
  -4   7   6    0.13    0.44 
  -3  -7   6    1.67    0.33 
  -3   7   6    1.40    0.43 
  -2  -7   6    0.99    0.24 
   2   7  -6    0.83    0.19 
  -2   7   6    1.24    0.34 
  -1   7   6    0.53    0.28 
  -1   7   6    0.63    0.23 
   1   7  -6    0.29    0.17 
   0   7   6   -0.14    0.25 
   0   7  -6    0.00    0.15 
   1   7   6    1.25    0.37 
  -1   7  -6    0.99    0.22 
  -2   7  -6    1.93    0.30 
   2   7   6    1.52    0.41 
   3   7   6   -0.37    0.32 
  -3   7  -6    0.01    0.20 
  -4  -8   6    0.36    0.23 
  -4   8   6   -0.71    0.47 
  -3  -8   6    0.14    0.17 
  -3   8   6   -0.11    0.37 
  -2  -8   6    0.64    0.33 
  -2   8   6    0.77    0.36 
  -1   8   6    0.79    0.29 
   1   8  -6    0.03    0.15 
   0   8   6    0.16    0.30 
   0   8  -6    0.52    0.20 
  -1   8  -6   -0.04    0.19 
   1   8   6   -0.08    0.29 
   2   8   6   -0.40    0.30 
  -2   8  -6   -0.03    0.17 
  -1   9   6    1.57    0.35 
  -7   0   7    0.01    0.29 
  -6   0   7    0.09    0.14 
  -6   0   7    0.06    0.20 
  -5   0   7    0.37    0.18 
  -5   0   7    0.54    0.22 
  -4   0   7    0.76    0.21 
  -4   0   7    0.78    0.22 
  -3   0   7    0.01    0.16 
  -3   0   7    0.08    0.15 
  -2   0   7   28.74    0.81 
  -1   0   7    0.13    0.19 
   0   0   7    2.19    0.30 
   0   0  -7    2.09    0.24 
  -1   0  -7    2.21    0.26 
   1   0   7    1.98    0.31 
   2   0   7    3.84    0.48 
  -2   0  -7    3.93    0.33 
  -2   0  -7    4.11    0.32 
   3   0   7    1.07    0.32 
  -3   0  -7    1.31    0.22 
  -3   0  -7    1.32    0.23 
  -4   0  -7    1.26    0.28 
  -5   0  -7    1.97    0.39 
  -7  -1   7    0.67    0.22 
  -7   1   7   -0.03    0.31 
  -6  -1   7    0.99    0.24 
  -6   1   7    0.69    0.30 
  -6   1   7    0.97    0.21 
  -5  -1   7    3.77    0.35 
  -5   1   7    3.77    0.34 
  -5   1   7    3.48    0.45 
  -4  -1   7    2.10    0.30 
  -4   1   7    2.25    0.33 
  -4   1   7    1.87    0.28 
  -3  -1   7    7.01    0.43 
  -3   1   7    6.63    0.38 
  -3   1   7    6.58    0.43 
  -2  -1   7    5.15    0.37 
  -2   1   7    5.21    0.29 
  -2   1   7    5.12    0.41 
   2   1  -7    5.09    0.28 
  -1  -1   7    1.44    0.26 
   1   1  -7    1.00    0.16 
  -1   1   7    1.06    0.25 
  -1   1   7    1.19    0.15 
   0  -1   7    0.67    0.23 
   0   1   7    0.28    0.20 
   0   1  -7    0.31    0.15 
   1  -1   7    2.61    0.33 
   1   1   7    3.19    0.44 
  -1   1  -7    2.87    0.28 
  -2  -1  -7   13.37    0.48 
   2  -1   7   13.94    0.62 
  -2   1  -7   13.52    0.58 
  -2   1  -7   13.63    0.52 
   2   1   7   13.37    0.64 
  -3  -1  -7    3.23    0.28 
   3   1   7    3.50    0.44 
  -3   1  -7    3.81    0.36 
  -3   1  -7    3.00    0.31 
  -4  -1  -7    5.59    0.50 
   4   1   7    4.35    0.58 
  -4   1  -7    5.76    0.47 
  -4   1  -7    5.04    0.40 
  -5  -1  -7    1.23    0.35 
  -5   1  -7    1.22    0.32 
  -7  -2   7    0.53    0.22 
  -7   2   7    0.07    0.41 
  -6  -2   7    0.22    0.19 
  -6   2   7    0.21    0.34 
  -5  -2   7    1.27    0.26 
  -5   2   7    0.57    0.28 
  -5   2   7    1.01    0.21 
  -4  -2   7    0.15    0.18 
  -4   2   7    0.44    0.21 
  -4   2   7    0.19    0.19 
  -3  -2   7    3.60    0.35 
  -3   2   7    3.82    0.40 
  -3   2   7    3.57    0.32 
  -2  -2   7    1.31    0.25 
   2   2  -7    1.14    0.18 
  -2   2   7    1.16    0.18 
  -2   2   7    1.33    0.28 
  -1  -2   7    1.11    0.22 
  -1   2   7    0.95    0.26 
   1   2  -7    1.05    0.17 
  -1   2   7    1.14    0.17 
   0  -2   7    4.54    0.39 
   0   2  -7    4.13    0.29 
   0   2   7    4.66    0.42 
   1  -2   7    0.77    0.23 
  -1   2  -7    0.74    0.18 
   1   2   7    0.89    0.27 
   2  -2   7    2.62    0.37 
  -2   2  -7    3.18    0.32 
   2   2   7    3.72    0.45 
  -3   2  -7    0.14    0.17 
   3   2   7   -0.07    0.30 
  -4   2  -7    0.13    0.20 
   4   2   7   -0.10    0.34 
  -7  -3   7    0.50    0.24 
  -7   3   7    0.42    0.53 
  -6  -3   7    0.40    0.22 
  -6   3   7   -0.15    0.38 
  -5  -3   7    1.09    0.26 
  -5   3   7    0.93    0.33 
  -4  -3   7   16.44    0.66 
  -4   3   7   16.00    0.73 
  -4   3   7   16.24    0.63 
  -3  -3   7   10.83    0.53 
  -3   3   7   11.10    0.57 
   3   3  -7   10.70    0.41 
  -3   3   7   10.95    0.54 
  -2  -3   7    2.23    0.32 
   2   3  -7    2.67    0.26 
  -2   3   7    2.42    0.28 
  -2   3   7    2.35    0.33 
  -1  -3   7   15.09    0.58 
   1   3  -7   15.15    0.51 
  -1   3   7   14.70    0.63 
  -1   3   7   14.31    0.56 
   0  -3   7    0.69    0.21 
   0   3  -7    0.72    0.18 
   0   3   7    0.43    0.24 
   1  -3   7    2.15    0.31 
   1   3   7    2.57    0.38 
  -1   3  -7    2.35    0.29 
  -2   3  -7    0.29    0.16 
   2   3   7    0.32    0.30 
  -3   3  -7    3.58    0.34 
   3   3   7    3.37    0.48 
   4   3   7   -0.33    0.35 
  -4   3  -7    0.24    0.22 
   5   3   7   -0.70    0.37 
  -7  -4   7    1.11    0.31 
  -7   4   7    0.71    0.66 
  -6  -4   7    0.42    0.25 
  -6   4   7   -0.48    0.44 
  -5  -4   7    3.12    0.40 
  -5   4   7    2.55    0.46 
  -4  -4   7    2.47    0.35 
  -4   4   7    2.49    0.38 
  -4   4   7    3.12    0.38 
  -3  -4   7    3.76    0.36 
   3   4  -7    3.34    0.28 
  -3   4   7    3.67    0.44 
  -3   4   7    3.38    0.40 
  -2  -4   7    2.40    0.32 
   2   4  -7    1.86    0.23 
  -2   4   7    1.93    0.33 
  -2   4   7    1.99    0.31 
  -1  -4   7    3.23    0.32 
  -1   4   7    3.21    0.33 
   1   4  -7    3.50    0.29 
  -1   4   7    3.45    0.45 
   0  -4   7    6.89    0.40 
   0   4   7    6.85    0.53 
   0   4  -7    7.08    0.39 
   1   4   7    0.61    0.30 
  -1   4  -7    0.50    0.18 
  -2   4  -7    0.52    0.18 
   2   4   7    0.67    0.34 
  -3   4  -7    0.03    0.20 
   3   4   7   -0.31    0.36 
  -4   4  -7    0.16    0.22 
   4   4   7   -0.20    0.41 
  -6  -5   7    0.34    0.25 
  -6   5   7   -0.71    0.52 
  -5  -5   7    0.72    0.26 
  -5   5   7    0.04    0.41 
  -4  -5   7    2.19    0.37 
  -4   5   7    1.38    0.39 
  -3  -5   7    2.39    0.34 
  -3   5   7    2.06    0.34 
   3   5  -7    2.06    0.25 
  -3   5   7    2.24    0.37 
  -2  -5   7    1.96    0.28 
   2   5  -7    1.85    0.24 
  -2   5   7    2.01    0.32 
  -2   5   7    2.01    0.34 
  -1  -5   7    1.37    0.23 
   1   5  -7    1.27    0.22 
  -1   5   7    1.96    0.30 
  -1   5   7    2.10    0.34 
   0  -5   7    2.28    0.29 
   0   5   7    1.70    0.34 
   0   5  -7    2.38    0.28 
  -1   5  -7    0.71    0.19 
   1   5   7    0.66    0.32 
   2   5   7    0.50    0.37 
  -2   5  -7    0.70    0.21 
  -3   5  -7    1.23    0.28 
   3   5   7    1.29    0.46 
  -4   5  -7   -0.22    0.21 
   4   5   7   -0.81    0.40 
  -5   6   7   -0.57    0.45 
  -4  -6   7    0.49    0.23 
  -4   6   7    0.04    0.37 
  -3  -6   7    0.04    0.17 
  -3   6   7   -0.19    0.23 
  -2  -6   7    0.36    0.18 
  -2   6   7    0.16    0.26 
  -2   6   7    0.52    0.24 
   2   6  -7    0.26    0.17 
  -1  -6   7    0.51    0.17 
   1   6  -7    0.12    0.16 
  -1   6   7    0.43    0.20 
  -1   6   7   -0.12    0.26 
   0   6   7    0.24    0.29 
   0   6  -7    0.38    0.19 
   1   6   7    0.80    0.37 
  -1   6  -7    0.58    0.21 
   2   6   7    1.88    0.46 
  -2   6  -7    1.51    0.27 
  -3   6  -7    0.33    0.25 
   3   6   7   -0.90    0.39 
  -5  -7   7    0.26    0.25 
  -5   7   7   -0.59    0.55 
  -4  -7   7    0.65    0.25 
  -4   7   7   -0.12    0.41 
  -3  -7   7    0.70    0.24 
  -3   7   7    0.27    0.35 
  -2  -7   7    3.95    0.38 
  -2   7   7    4.16    0.51 
   2   7  -7    3.75    0.36 
  -1   7   7    1.55    0.33 
  -1   7   7    0.32    0.32 
   1   7  -7    0.85    0.21 
   0   7   7    0.78    0.35 
   0   7  -7    1.13    0.23 
  -1   7  -7    2.27    0.32 
   1   7   7    1.99    0.46 
   2   7   7    0.33    0.42 
  -2   7  -7    0.61    0.25 
  -3  -8   7    0.74    0.25 
  -3   8   7    0.23    0.42 
  -2   8   7    0.44    0.35 
   1   8  -7    0.84    0.24 
  -1   8   7    0.13    0.35 
  -1   8   7    1.64    0.36 
   0   8  -7    0.10    0.20 
   0   8   7   -0.43    0.31 
  -1   8  -7    1.14    0.29 
   1   8   7    0.65    0.43 
  -7   0   8    0.47    0.23 
  -6   0   8    3.39    0.37 
  -5   0   8    0.13    0.17 
  -4   0   8    0.81    0.24 
  -3   0   8    0.82    0.26 
  -2   0   8    2.17    0.32 
  -1   0   8   -0.03    0.23 
   0   0  -8    4.83    0.34 
   0   0   8    4.71    0.49 
  -1   0  -8    0.03    0.15 
   1   0   8   -0.01    0.27 
   2   0   8    3.50    0.43 
  -2   0  -8    4.07    0.34 
  -3   0  -8   -0.09    0.18 
  -7  -1   8    0.54    0.21 
  -6  -1   8    0.28    0.19 
  -6   1   8    0.40    0.18 
  -5  -1   8    0.13    0.18 
  -5   1   8    0.30    0.19 
  -4  -1   8    0.97    0.26 
  -4   1   8    0.81    0.25 
  -3  -1   8    4.72    0.43 
  -3   1   8    4.36    0.45 
  -2  -1   8    5.12    0.44 
  -2   1   8    5.30    0.48 
  -1  -1   8    0.64    0.26 
   1   1  -8    0.46    0.16 
  -1   1   8    1.11    0.30 
   0  -1   8    3.24    0.47 
   0   1  -8    3.77    0.32 
   0   1   8    4.01    0.49 
   1  -1   8    2.18    0.36 
   1   1   8    2.16    0.37 
  -1   1  -8    2.17    0.27 
   2  -1   8    1.19    0.32 
   2   1   8    0.74    0.36 
  -2   1  -8    0.87    0.22 
  -3   1  -8    0.11    0.19 
   3   1   8   -0.47    0.34 
  -5  -1  -8    0.75    0.30 
  -7  -2   8    0.83    0.25 
  -7   2   8    0.39    0.41 
  -6  -2   8    0.92    0.26 
  -6   2   8    0.37    0.34 
  -5  -2   8    0.19    0.19 
  -5   2   8    0.38    0.19 
  -5   2   8   -0.11    0.25 
  -4  -2   8    0.50    0.21 
  -4   2   8    0.49    0.23 
  -4   2   8    0.15    0.20 
  -3  -2   8    1.84    0.32 
  -3   2   8    1.02    0.21 
  -3   2   8    1.72    0.33 
  -2  -2   8    3.39    0.40 
  -2   2   8    3.35    0.30 
   2   2  -8    3.31    0.30 
  -2   2   8    3.68    0.50 
  -1  -2   8    1.65    0.30 
   1   2  -8    1.48    0.22 
  -1   2   8    1.62    0.33 
  -1   2   8    1.73    0.22 
   0  -2   8    0.87    0.28 
   0   2   8    0.90    0.31 
   0   2  -8    0.80    0.20 
   1  -2   8    1.55    0.30 
  -1   2  -8    1.55    0.25 
   1   2   8    1.78    0.38 
  -2   2  -8    0.61    0.22 
   2   2   8    0.58    0.37 
   3   2   8   -0.40    0.35 
  -3   2  -8    0.25    0.22 
   4   2   8    0.32    0.45 
  -4   2  -8    0.91    0.27 
  -7  -3   8    0.66    0.27 
  -7   3   8   -0.14    0.51 
  -6  -3   8    0.52    0.24 
  -6   3   8   -0.57    0.38 
  -5  -3   8    0.50    0.24 
  -5   3   8    0.21    0.29 
  -5   3   8    0.41    0.20 
  -4  -3   8    5.76    0.45 
  -4   3   8    5.99    0.47 
  -4   3   8    4.34    0.46 
  -3  -3   8    5.29    0.44 
  -3   3   8    4.81    0.48 
   3   3  -8    5.07    0.35 
  -3   3   8    4.67    0.41 
  -2  -3   8    0.99    0.25 
  -2   3   8    1.09    0.32 
   2   3  -8    0.94    0.20 
  -2   3   8    0.80    0.20 
  -1  -3   8    0.70    0.24 
  -1   3   8    0.54    0.16 
  -1   3   8    0.81    0.30 
   1   3  -8    0.62    0.19 
   0  -3   8    3.74    0.41 
   0   3  -8    3.60    0.34 
   0   3   8    3.54    0.51 
   1  -3   8    1.28    0.25 
   1   3   8    1.19    0.38 
  -1   3  -8    0.88    0.20 
  -2   3  -8    0.34    0.21 
   2   3   8    0.31    0.37 
  -3   3  -8    1.17    0.28 
   3   3   8    1.52    0.49 
  -4   3  -8   -0.19    0.23 
   4   3   8   -0.78    0.39 
  -6  -4   8    1.22    0.33 
  -6   4   8    0.04    0.49 
  -5  -4   8    0.65    0.27 
  -5   4   8    0.12    0.35 
  -4  -4   8    0.47    0.22 
  -4   4   8    0.60    0.24 
  -4   4   8    0.24    0.25 
  -3  -4   8    5.59    0.44 
  -3   4   8    5.01    0.51 
   3   4  -8    5.17    0.35 
  -3   4   8    5.10    0.49 
  -2  -4   8    0.88    0.24 
   2   4  -8    0.98    0.21 
  -2   4   8    0.88    0.23 
  -2   4   8    0.78    0.32 
  -1  -4   8    2.34    0.34 
   1   4  -8    2.17    0.27 
  -1   4   8    3.12    0.41 
  -1   4   8    1.95    0.28 
   0  -4   8    0.83    0.21 
   0   4  -8    0.74    0.19 
   0   4   8    0.71    0.32 
   1   4   8    0.20    0.35 
  -1   4  -8    0.09    0.16 
  -2   4  -8    0.05    0.19 
   2   4   8   -0.46    0.35 
  -3   4  -8    0.12    0.19 
   3   4   8    0.10    0.43 
  -4   4  -8   -0.25    0.23 
  -6  -5   8    0.88    0.34 
  -6   5   8   -0.04    0.58 
  -5  -5   8    0.22    0.24 
  -5   5   8   -0.52    0.40 
  -4  -5   8    0.46    0.25 
  -4   5   8   -0.02    0.31 
  -3  -5   8    0.70    0.24 
  -3   5   8    0.24    0.23 
   3   5  -8    0.16    0.17 
  -3   5   8    0.12    0.27 
  -2  -5   8    1.77    0.29 
  -2   5   8    1.36    0.36 
   2   5  -8    0.97    0.22 
  -2   5   8    1.48    0.29 
  -1  -5   8    1.39    0.25 
  -1   5   8    1.83    0.29 
  -1   5   8    1.11    0.37 
   1   5  -8    1.40    0.25 
   0   5   8    0.93    0.36 
   0   5  -8    0.56    0.20 
   1   5   8   -0.58    0.33 
  -1   5  -8   -0.24    0.17 
   2   5   8   -0.26    0.41 
  -2   5  -8    0.26    0.23 
   3   5   8   -0.62    0.40 
  -3   5  -8    0.08    0.23 
  -5  -6   8    1.11    0.33 
  -5   6   8    0.41    0.53 
  -4  -6   8    0.44    0.24 
  -4   6   8    0.22    0.39 
  -3  -6   8    0.30    0.21 
  -3   6   8   -0.03    0.30 
  -2  -6   8    0.25    0.18 
  -2   6   8   -0.10    0.22 
  -2   6   8   -0.25    0.30 
   2   6  -8   -0.17    0.16 
  -1  -6   8    2.87    0.35 
  -1   6   8    2.51    0.45 
  -1   6   8    3.65    0.41 
   1   6  -8    2.49    0.32 
   0   6  -8    0.56    0.23 
   0   6   8    0.60    0.39 
  -1   6  -8    0.67    0.26 
   1   6   8   -0.24    0.40 
   2   6   8   -0.52    0.41 
  -2   6  -8   -0.23    0.21 
  -3   6  -8   -0.30    0.19 
  -4  -7   8    0.27    0.23 
  -4   7   8   -0.30    0.41 
  -3  -7   8    0.19    0.19 
  -3   7   8    0.11    0.35 
  -2  -7   8    1.16    0.26 
   2   7  -8    0.47    0.22 
  -2   7   8    1.30    0.38 
  -2   7   8    0.07    0.35 
  -1   7   8   -0.66    0.32 
   1   7  -8    0.03    0.18 
   0   7  -8   -0.08    0.20 
   0   7   8   -0.35    0.35 
   1   7   8   -0.43    0.39 
  -1   7  -8   -0.07    0.22 
  -2   8   8    0.49    0.35 
   1   8  -8    0.30    0.23 
  -1   8   8   -0.61    0.36 
  -7   0   9    0.56    0.21 
  -6   0   9    0.24    0.20 
  -5   0   9    0.23    0.21 
  -4   0   9    2.89    0.41 
  -3   0   9   -0.04    0.23 
  -2   0   9    1.14    0.32 
  -1   0   9   18.74    0.79 
   0   0   9    0.54    0.34 
  -1   0  -9    2.72    0.32 
   1   0   9    2.08    0.41 
   2   0   9   -0.27    0.34 
  -2   0  -9   -0.18    0.17 
   3   0   9   -0.35    0.44 
  -3   0  -9    0.19    0.20 
  -7  -1   9    0.62    0.22 
  -6  -1   9    0.41    0.21 
  -6   1   9    0.50    0.20 
  -5  -1   9    0.65    0.25 
  -5   1   9    0.72    0.25 
  -4  -1   9    1.52    0.31 
  -4   1   9    1.23    0.29 
  -3  -1   9    0.23    0.24 
  -3   1   9    0.10    0.25 
  -2  -1   9    8.04    0.57 
  -2   1   9    8.88    0.61 
  -1  -1   9    3.30    0.43 
   1   1  -9    2.93    0.30 
  -1   1   9    2.87    0.42 
   0  -1   9   -0.10    0.28 
   0   1   9    0.06    0.31 
   0   1  -9    0.15    0.18 
   1  -1   9    1.04    0.34 
   1   1   9    1.04    0.39 
  -1   1  -9    0.76    0.20 
   2  -1   9    1.34    0.37 
   2   1   9    1.42    0.44 
  -2   1  -9    0.87    0.24 
   3   1   9   -0.68    0.43 
  -3   1  -9    0.32    0.24 
  -7  -2   9    0.40    0.24 
  -6  -2   9    0.59    0.25 
  -5  -2   9    1.25    0.32 
  -5   2   9    1.33    0.29 
  -4  -2   9    1.87    0.32 
  -4   2   9    2.13    0.35 
  -3  -2   9    0.09    0.22 
  -3   2   9   -0.11    0.26 
  -2  -2   9    2.06    0.35 
   2   2  -9    2.00    0.26 
  -2   2   9    2.23    0.39 
  -1  -2   9    3.51    0.44 
   1   2  -9    3.21    0.33 
  -1   2   9    2.89    0.42 
   0  -2   9    2.94    0.39 
   0   2   9    2.91    0.45 
   0   2  -9    2.61    0.30 
   1  -2   9    1.10    0.31 
  -1   2  -9    1.11    0.25 
   1   2   9    1.46    0.44 
   2   2   9   -0.34    0.40 
  -2   2  -9    0.05    0.22 
   3   2   9   -0.73    0.45 
  -3   2  -9    0.14    0.22 
  -4   2  -9   -0.42    0.22 
   4   2   9   -1.04    0.45 
  -6  -3   9    0.43    0.25 
  -6   3   9   -0.35    0.38 
  -5  -3   9    0.64    0.26 
  -5   3   9    0.67    0.24 
  -5   3   9   -0.11    0.28 
  -4  -3   9    0.77    0.29 
  -4   3   9    0.39    0.24 
  -4   3   9    0.60    0.28 
  -3  -3   9    9.39    0.57 
  -3   3   9    9.12    0.64 
  -3   3   9    7.96    0.50 
   3   3  -9    8.41    0.43 
  -2  -3   9    2.44    0.38 
  -2   3   9    2.19    0.30 
  -2   3   9    2.20    0.39 
   2   3  -9    2.02    0.27 
  -1  -3   9    2.16    0.35 
  -1   3   9    1.18    0.37 
   1   3  -9    1.11    0.23 
  -1   3   9    1.79    0.24 
   0  -3   9    2.48    0.35 
   0   3  -9    2.04    0.28 
   0   3   9    2.53    0.46 
   1   3   9   -0.03    0.38 
  -1   3  -9    0.01    0.19 
  -2   3  -9    0.05    0.22 
   2   3   9   -0.54    0.41 
   3   3   9   -0.73    0.44 
  -3   3  -9   -0.08    0.24 
  -6  -4   9    1.14    0.33 
  -6   4   9   -0.44    0.48 
  -5  -4   9    0.81    0.30 
  -5   4   9    0.06    0.36 
  -4  -4   9    3.02    0.41 
  -4   4   9    2.28    0.39 
  -4   4   9    2.73    0.40 
  -3  -4   9    0.84    0.28 
  -3   4   9    0.42    0.23 
   3   4  -9    0.29    0.18 
  -3   4   9    0.20    0.29 
  -2  -4   9    2.36    0.36 
   2   4  -9    1.19    0.23 
  -2   4   9    1.70    0.40 
  -2   4   9    1.69    0.29 
  -1  -4   9    1.95    0.32 
   1   4  -9    1.47    0.27 
  -1   4   9    2.31    0.29 
  -1   4   9    1.34    0.40 
   0  -4   9    1.32    0.26 
   0   4  -9    0.87    0.23 
   0   4   9    0.93    0.42 
  -1   4  -9    0.70    0.25 
   1   4   9    0.87    0.45 
   2   4   9   -0.38    0.44 
  -2   4  -9    0.22    0.22 
  -3   4  -9   -0.29    0.23 
   3   4   9   -1.09    0.45 
  -5  -5   9    0.44    0.27 
  -5   5   9    0.49    0.46 
  -4  -5   9    0.87    0.29 
  -4   5   9   -0.02    0.32 
  -3  -5   9    0.24    0.21 
   3   5  -9   -0.03    0.17 
  -3   5   9   -0.05    0.30 
  -3   5   9    0.03    0.24 
  -2  -5   9    0.20    0.18 
  -2   5   9   -0.52    0.32 
   2   5  -9   -0.09    0.19 
  -2   5   9    0.22    0.20 
  -1  -5   9    0.40    0.20 
  -1   5   9    0.65    0.20 
   1   5  -9    0.09    0.19 
  -1   5   9   -0.27    0.35 
   0   5  -9    0.04    0.21 
   0   5   9    0.29    0.42 
  -1   5  -9    0.48    0.25 
   1   5   9   -0.22    0.45 
   2   5   9   -0.74    0.47 
  -2   5  -9   -0.06    0.24 
  -5  -6   9    0.97    0.41 
  -5   6   9   -0.33    0.48 
  -4  -6   9    0.66    0.26 
  -4   6   9   -0.01    0.38 
  -3  -6   9    0.77    0.26 
  -3   6   9   -0.28    0.36 
  -3   6   9    0.09    0.31 
  -2  -6   9    0.61    0.23 
   2   6  -9    0.06    0.20 
  -2   6   9    0.92    0.31 
  -2   6   9   -0.11    0.35 
   1   6  -9   -0.09    0.20 
  -1   6   9   -0.19    0.37 
   0   6   9   -0.60    0.40 
   0   6  -9    0.01    0.23 
  -1   6  -9    0.16    0.26 
   1   6   9   -0.66    0.45 
   2   6   9    0.10    0.70 
  -2   6  -9    0.48    0.29 
  -3  -7   9    0.66    0.25 
  -3   7   9    0.40    0.39 
   2   7  -9    0.06    0.21 
  -2   7   9    0.84    0.36 
   1   7  -9   -0.14    0.22 
  -1   7   9   -0.83    0.39 
  -6   0  10    1.17    0.30 
  -5   0  10    3.46    0.45 
  -4   0  10    0.78    0.31 
  -3   0  10    0.57    0.30 
  -2   0  10    0.15    0.32 
  -1   0  10    3.57    0.48 
   0   0  10    0.10    0.37 
  -1   0 -10    1.22    0.26 
   1   0  10    1.33    0.47 
   2   0  10   -0.32    0.41 
  -2   0 -10   -0.34    0.18 
  -3   0 -10    0.57    0.24 
  -6  -1  10    0.42    0.23 
  -6   1  10    0.65    0.24 
  -5  -1  10    0.49    0.26 
  -5   1  10    0.33    0.25 
  -4  -1  10    0.09    0.25 
  -4   1  10    0.47    0.28 
  -3  -1  10    0.71    0.32 
  -3   1  10    0.63    0.32 
  -2  -1  10    1.11    0.36 
  -2   1  10    1.21    0.38 
  -1  -1  10    0.25    0.32 
   1   1 -10    0.23    0.16 
  -1   1  10    0.42    0.37 
   0  -1  10   -0.04    0.31 
   0   1  10   -0.46    0.35 
   0   1 -10    0.02    0.19 
   1  -1  10    0.36    0.37 
  -1   1 -10    0.37    0.23 
   1   1  10    0.33    0.44 
   2  -1  10   -0.33    0.34 
   2   1  10   -0.16    0.46 
  -2   1 -10   -0.03    0.22 
   3   1  10   -0.89    0.46 
  -3   1 -10    0.15    0.25 
  -6  -2  10    1.16    0.31 
  -6   2  10    0.86    0.27 
  -5  -2  10    1.11    0.34 
  -5   2  10    0.93    0.28 
  -4  -2  10    0.82    0.31 
  -4   2  10    0.29    0.28 
  -3  -2  10    1.50    0.35 
  -3   2  10    1.02    0.35 
  -2  -2  10    0.92    0.33 
   2   2 -10    0.26    0.18 
  -2   2  10    0.63    0.36 
  -1  -2  10    2.33    0.42 
   1   2 -10    1.46    0.24 
  -1   2  10    2.26    0.47 
   0  -2  10    2.07    0.39 
   0   2  10    1.61    0.49 
   0   2 -10    1.46    0.28 
   1  -2  10    0.41    0.32 
   1   2  10   -0.54    0.41 
  -1   2 -10   -0.02    0.22 
   2   2  10    0.32    0.49 
  -2   2 -10    0.32    0.25 
  -3   2 -10   -0.21    0.24 
  -6  -3  10    1.14    0.34 
  -5  -3  10    0.65    0.29 
  -5   3  10    0.68    0.28 
  -4  -3  10    0.80    0.30 
  -4   3  10    0.94    0.32 
  -3  -3  10    4.29    0.48 
  -3   3  10    4.65    0.58 
   3   3 -10    3.85    0.36 
  -2  -3  10    0.39    0.28 
   2   3 -10    0.01    0.18 
  -2   3  10   -0.44    0.32 
  -1  -3  10    1.19    0.34 
  -1   3  10    1.19    0.45 
   1   3 -10    0.52    0.22 
   0  -3  10    0.66    0.29 
   0   3  10   -0.49    0.41 
   0   3 -10    0.08    0.19 
   1   3  10   -0.69    0.44 
  -1   3 -10    0.14    0.24 
   2   3  10   -1.10    0.48 
  -2   3 -10   -0.10    0.22 
  -3   3 -10   -0.07    0.25 
  -5  -4  10    1.90    0.40 
  -4  -4  10    2.25    0.41 
  -4   4  10    1.28    0.35 
  -3  -4  10    0.45    0.27 
  -3   4  10   -0.28    0.32 
  -3   4  10    0.15    0.23 
   3   4 -10    0.08    0.18 
  -2  -4  10    2.99    0.42 
   2   4 -10    1.82    0.29 
  -2   4  10    2.13    0.49 
  -2   4  10    2.84    0.39 
  -1  -4  10    0.94    0.29 
  -1   4  10   -0.08    0.42 
   1   4 -10    0.23    0.23 
   0   4 -10    2.11    0.35 
   0   4  10    2.68    0.59 
  -1   4 -10   -0.12    0.23 
   1   4  10   -0.67    0.50 
   2   4  10   -0.81    0.51 
  -2   4 -10   -0.57    0.23 
  -5  -5  10    0.60    0.28 
  -5   5  10   -0.50    0.44 
  -4  -5  10    0.13    0.24 
  -4   5  10   -0.36    0.30 
  -3  -5  10    0.57    0.25 
   3   5 -10    0.14    0.20 
  -3   5  10    0.05    0.36 
  -3   5  10    0.42    0.28 
  -2  -5  10    0.80    0.25 
  -2   5  10    0.90    0.27 
  -2   5  10    0.18    0.40 
   2   5 -10    0.27    0.22 
  -1  -5  10    0.65    0.22 
  -1   5  10   -0.38    0.43 
   1   5 -10   -0.03    0.24 
   0   5  10   -0.95    0.44 
   0   5 -10   -0.13    0.23 
  -1   5 -10   -0.13    0.25 
  -4  -6  10    0.87    0.28 
  -4   6  10   -0.15    0.41 
  -3  -6  10    0.38    0.24 
   3   6 -10   -0.11    0.30 
  -3   6  10   -0.71    0.36 
  -3   6  10    0.56    0.33 
  -2  -6  10    0.45    0.21 
  -2   6  10    0.84    0.28 
   2   6 -10   -0.15    0.21 
  -1   6  10   -0.72    0.44 
   1   6 -10   -0.25    0.22 
   0   6  10   -0.53    0.51 
   0   6 -10    0.23    0.29 
  -6   0  11    1.13    0.31 
  -5   0  11    0.62    0.31 
  -4   0  11    1.13    0.36 
  -3   0  11    2.27    0.45 
  -2   0  11    0.56    0.39 
  -1   0  11    1.28    0.44 
   0   0  11    2.31    0.52 
   1   0  11    0.66    0.47 
   2   0  11   -0.19    0.53 
  -6  -1  11    0.85    0.31 
  -6   1  11    0.68    0.27 
  -5  -1  11    1.19    0.35 
  -5   1  11    0.92    0.32 
  -4  -1  11    0.54    0.33 
  -4   1  11    0.44    0.31 
  -3  -1  11    0.48    0.36 
  -3   1  11    0.52    0.37 
  -2  -1  11    0.94    0.39 
  -2   1  11    0.56    0.41 
  -1  -1  11    2.10    0.48 
  -1   1  11    1.62    0.48 
   0  -1  11    1.44    0.46 
   0   1  11    0.97    0.49 
   0   1 -11    0.56    0.23 
   1  -1  11   -0.17    0.41 
  -1   1 -11   -0.20    0.23 
   1   1  11   -0.57    0.45 
   2   1  11   -0.23    0.56 
  -2   1 -11    0.73    0.27 
  -6  -2  11    0.87    0.32 
  -6   2  11    1.26    0.30 
  -5  -2  11    0.87    0.34 
  -5   2  11    0.78    0.30 
  -4  -2  11    1.30    0.38 
  -4   2  11    1.19    0.37 
  -3  -2  11    1.02    0.38 
  -3   2  11    0.49    0.38 
  -2  -2  11    0.80    0.37 
  -2   2  11   -0.01    0.41 
  -1  -2  11    1.51    0.41 
  -1   2  11    1.24    0.49 
   1   2 -11    0.48    0.24 
   0  -2  11    2.81    0.48 
   0   2  11    1.49    0.57 
   0   2 -11    1.52    0.32 
   1  -2  11    1.90    0.44 
  -1   2 -11    1.23    0.32 
   1   2  11    0.38    0.58 
  -2   2 -11    0.03    0.26 
  -5  -3  11    0.69    0.31 
  -5   3  11    0.43    0.28 
  -4  -3  11    1.08    0.33 
  -4   3  11    0.57    0.34 
  -3  -3  11    1.09    0.36 
  -3   3  11    0.52    0.40 
  -2  -3  11    2.68    0.47 
  -2   3  11    1.72    0.51 
   2   3 -11    1.22    0.27 
  -1  -3  11    0.98    0.34 
  -1   3  11   -0.08    0.47 
   1   3 -11    0.29    0.24 
   0  -3  11    1.54    0.37 
   0   3 -11    0.60    0.29 
   0   3  11    0.24    0.55 
  -1   3 -11    0.29    0.28 
   1   3  11   -0.33    0.54 
  -2   3 -11    0.10    0.29 
  -5  -4  11    0.71    0.32 
  -4  -4  11    1.02    0.33 
  -4   4  11    0.60    0.36 
  -3  -4  11    2.27    0.40 
   3   4 -11    1.52    0.29 
  -3   4  11    1.46    0.46 
  -2  -4  11    0.56    0.28 
  -2   4  11   -0.13    0.42 
   2   4 -11    0.22    0.23 
  -1  -4  11    0.96    0.31 
  -1   4  11   -0.16    0.50 
   1   4 -11    0.16    0.22 
   0   4  11   -0.61    0.51 
   0   4 -11    0.35    0.29 
  -1   4 -11   -0.23    0.26 
   1   4  11   -1.28    0.55 
  -4  -5  11    0.77    0.31 
  -4   5  11   -0.16    0.37 
  -3  -5  11    0.51    0.25 
  -3   5  11    0.07    0.40 
   3   5 -11   -0.16    0.21 
  -2  -5  11    0.77    0.26 
  -2   5  11   -0.88    0.42 
   2   5 -11   -0.03    0.25 
  -1   5  11   -0.73    0.48 
   1   5 -11   -0.33    0.25 
   0   5 -11    0.06    0.25 
   0   5  11   -0.50    0.53 
  -5   0  12    2.20    0.43 
  -4   0  12    2.74    0.50 
  -3   0  12    0.70    0.40 
  -2   0  12    0.89    0.46 
  -1   0  12    0.60    0.46 
   0   0  12   -0.04    0.46 
   1   0  12   -0.20    0.49 
  -5  -1  12    0.35    0.33 
  -5   1  12    0.61    0.33 
  -4  -1  12    1.22    0.41 
  -4   1  12    0.74    0.38 
  -3  -1  12    0.57    0.38 
  -3   1  12    0.79    0.42 
  -2  -1  12    0.89    0.41 
  -2   1  12    0.00    0.43 
  -1  -1  12    0.65    0.42 
  -1   1  12    0.41    0.51 
   0  -1  12    0.07    0.41 
   0   1  12   -0.66    0.49 
   1  -1  12   -0.11    0.47 
  -1   1 -12   -0.24    0.24 
   1   1  12   -1.32    0.52 
  -5  -2  12    1.38    0.41 
  -5   2  12    1.05    0.36 
  -4  -2  12    0.84    0.37 
  -4   2  12    0.61    0.36 
  -3  -2  12    1.31    0.42 
  -3   2  12    1.42    0.47 
  -2  -2  12    2.39    0.50 
  -2   2  12    1.43    0.52 
  -1  -2  12    0.60    0.38 
   1   2 -12    0.16    0.26 
  -1   2  12   -0.28    0.48 
   0  -2  12    1.32    0.43 
   0   2 -12    0.19    0.26 
   0   2  12   -0.54    0.54 
   1   2  12   -1.15    0.55 
  -1   2 -12    0.11    0.28 
  -4  -3  12    1.42    0.40 
  -4   3  12    0.82    0.40 
  -3  -3  12    1.47    0.40 
  -3   3  12    0.49    0.43 
  -2  -3  12    2.92    0.49 
   2   3 -12    1.38    0.32 
  -2   3  12    2.13    0.59 
  -1  -3  12    0.86    0.38 
   1   3 -12    0.09    0.27 
  -1   3  12   -1.00    0.50 
   0  -3  12    0.96    0.38 
   0   3  12   -0.96    0.55 
   0   3 -12   -0.03    0.24 
  -3  -4  12    2.10    0.40 
   3   4 -12    0.82    0.29 
  -3   4  12    1.19    0.50 
  -2  -4  12    1.08    0.36 
   2   4 -12   -0.13    0.26 
  -2   4  12   -0.62    0.46 
  -1   4  12   -1.33    0.55 
   1   4 -12    0.08    0.28 
  -4   0  13    1.02    0.43 
  -3   0  13    0.92    0.46 
  -2   0  13    0.78    0.47 
  -1   0  13    0.35    0.49 
   0   0  13   -0.04    0.53 
  -4  -1  13    1.47    0.53 
  -4   1  13    1.24    0.46 
  -3  -1  13    1.12    0.46 
  -3   1  13    0.84    0.47 
  -2  -1  13    0.88    0.44 
  -2   1  13    0.29    0.50 
  -1  -1  13    1.45    0.50 
  -1   1  13    0.12    0.52 
  -3  -2  13    1.18    0.43 
  -3   2  13    0.79    0.50 
  -2  -2  13    1.31    0.43 
  -2   2  13    0.08    0.50 
  -1  -2  13    0.73    0.43 
  -1   2  13    0.12    0.59 
   0   0   0    0.00    0.00 
;
loop_
_space_group_symop_operation_xyz
'x, y, z'
'-x, y+1/2, -z'
loop_
_atom_site_label
_atom_site_type_symbol
_atom_site_fract_x
_atom_site_fract_y
_atom_site_fract_z
_atom_site_U_iso_or_equiv
_atom_site_adp_type
_atom_site_occupancy
_atom_site_site_symmetry_order
_atom_site_calc_flag
_atom_site_refinement_flags_posn
_atom_site_refinement_flags_adp
_atom_site_refinement_flags_occupancy
_atom_site_disorder_assembly
_atom_site_disorder_group
C1 C 0.1700(9) 0.3902(8) 0.9494(6) 0.0567(17) Uani 1 1 d . . . . .
C2 C 0.1450(10) 0.2919(7) 0.8390(6) 0.0609(19) Uani 1 1 d . . . . .
H2 H 0.038138 0.212591 0.818033 0.073 Uiso 1 1 calc R U . . .
C3 C 0.2789(10) 0.3140(7) 0.7628(6) 0.0532(16) Uani 1 1 d . . . . .
H3 H 0.264049 0.248080 0.690608 0.064 Uiso 1 1 calc R U . . .
C4 C 0.4361(9) 0.4334(7) 0.7923(6) 0.0491(16) Uani 1 1 d . . . . .
C5 C 0.4599(10) 0.5292(7) 0.9022(6) 0.0539(17) Uani 1 1 d . . . . .
H5 H 0.565132 0.609892 0.922246 0.065 Uiso 1 1 calc R U . . .
C6 C 0.3283(10) 0.5058(8) 0.9823(7) 0.0586(18) Uani 1 1 d . . . . .
H6 H 0.347685 0.567569 1.056967 0.070 Uiso 1 1 calc R U . . .
C7 C 0.5786(9) 0.4515(8) 0.7077(6) 0.0512(16) Uani 1 1 d . . . . .
C8 C 0.6442(9) 0.6177(8) 0.6756(6) 0.0486(15) Uani 1 1 d . . . . .
C9 C 0.8213(10) 0.6349(8) 0.6281(6) 0.0530(17) Uani 1 1 d . . . . .
H9 H 0.898507 0.541350 0.618271 0.064 Uiso 1 1 calc R U . . .
C10 C 0.8825(10) 0.7867(9) 0.5959(6) 0.0534(17) Uani 1 1 d . . . . .
H10 H 1.002962 0.796166 0.566481 0.064 Uiso 1 1 calc R U . . .
C11 C 0.7668(9) 0.9266(8) 0.6068(5) 0.0459(15) Uani 1 1 d . . . . .
C12 C 0.5876(9) 0.9116(8) 0.6493(6) 0.0496(15) Uani 1 1 d . . . . .
H12 H 0.506712 1.004984 0.654059 0.059 Uiso 1 1 calc R U . . .
C13 C 0.5277(9) 0.7598(7) 0.6846(6) 0.0462(15) Uani 1 1 d . . . . .
H13 H 0.407997 0.751506 0.714936 0.055 Uiso 1 1 calc R U . . .
Cl1 Cl -0.0012(3) 0.3639(3) 1.04651(18) 0.0822(7) Uani 1 1 d . . . . .
O1 O 0.8358(7) 1.0726(5) 0.5728(4) 0.0618(14) Uani 1 1 d . . . . .
H1 H 0.756229 1.146993 0.582516 0.093 Uiso 1 1 d R U . . .
O2 O 0.6388(8) 0.3264(6) 0.6637(5) 0.0735(15) Uani 1 1 d . . . . .
loop_
_atom_site_aniso_label
_atom_site_aniso_U_11
_atom_site_aniso_U_22
_atom_site_aniso_U_33
_atom_site_aniso_U_23
_atom_site_aniso_U_13
_atom_site_aniso_U_12
C1 0.048(3) 0.046(4) 0.067(4) 0.011(3) 0.001(3) 0.003(3)
C2 0.058(4) 0.033(4) 0.075(5) 0.000(3) -0.013(4) -0.005(3)
C3 0.064(4) 0.036(3) 0.055(4) 0.002(3) 0.008(3) 0.003(3)
C4 0.054(4) 0.025(3) 0.058(4) -0.001(3) -0.003(3) 0.003(3)
C5 0.058(4) 0.039(3) 0.057(4) -0.004(3) 0.002(3) -0.011(3)
C6 0.063(4) 0.044(4) 0.059(5) -0.006(3) 0.000(3) -0.002(3)
C7 0.047(4) 0.040(4) 0.059(4) -0.007(3) 0.003(3) 0.007(3)
C8 0.049(3) 0.039(3) 0.052(4) -0.009(3) 0.003(3) 0.006(3)
C9 0.056(4) 0.050(4) 0.057(4) -0.007(3) 0.020(3) 0.016(3)
C10 0.043(3) 0.065(5) 0.053(4) -0.009(3) 0.016(3) 0.007(3)
C11 0.048(3) 0.052(4) 0.039(3) -0.003(3) 0.015(3) 0.002(3)
C12 0.052(3) 0.041(4) 0.058(4) -0.001(3) 0.018(3) 0.013(3)
C13 0.042(3) 0.039(3) 0.061(4) -0.004(3) 0.019(3) 0.005(3)
Cl1 0.0781(12) 0.0854(14) 0.0842(14) 0.0072(11) 0.0237(10) -0.0084(12)
O1 0.069(3) 0.052(3) 0.071(3) 0.007(2) 0.031(2) 0.001(2)
O2 0.082(3) 0.038(3) 0.099(4) -0.016(2) 0.023(3) 0.014(2)
loop_
_atom_type_symbol
_atom_type_description
_atom_type_scat_dispersion_real
_atom_type_scat_dispersion_imag
_atom_type_scat_source
C C 0.0033 0.0016 'International Tables Vol C Tables 4.2.6.8 and 6.1.1.4'
H H 0.0000 0.0000 'International Tables Vol C Tables 4.2.6.8 and 6.1.1.4'
Cl Cl 0.1484 0.1585 'International Tables Vol C Tables 4.2.6.8 and 6.1.1.4'
O O 0.0106 0.0060 'International Tables Vol C Tables 4.2.6.8 and 6.1.1.4'
loop_
_geom_angle_atom_site_label_1
_geom_angle_atom_site_label_2
_geom_angle_atom_site_label_3
_geom_angle
_geom_angle_site_symmetry_1
_geom_angle_site_symmetry_3
C6 C1 C2 120.8(6) . .
C6 C1 Cl1 119.3(5) . .
C2 C1 Cl1 119.9(5) . .
C3 C2 C1 119.6(6) . .
C3 C2 H2 120.2 . .
C1 C2 H2 120.2 . .
C2 C3 C4 120.6(6) . .
C2 C3 H3 119.7 . .
C4 C3 H3 119.7 . .
C3 C4 C5 119.3(6) . .
C3 C4 C7 118.6(6) . .
C5 C4 C7 122.1(5) . .
C6 C5 C4 120.9(6) . .
C6 C5 H5 119.6 . .
C4 C5 H5 119.6 . .
C1 C6 C5 118.8(6) . .
C1 C6 H6 120.6 . .
C5 C6 H6 120.6 . .
O2 C7 C8 120.7(6) . .
O2 C7 C4 118.9(6) . .
C8 C7 C4 120.4(5) . .
C13 C8 C9 117.9(6) . .
C13 C8 C7 122.0(6) . .
C9 C8 C7 120.0(5) . .
C10 C9 C8 120.9(6) . .
C10 C9 H9 119.5 . .
C8 C9 H9 119.5 . .
C9 C10 C11 120.4(6) . .
C9 C10 H10 119.8 . .
C11 C10 H10 119.8 . .
O1 C11 C12 123.2(5) . .
O1 C11 C10 117.3(5) . .
C12 C11 C10 119.5(6) . .
C13 C12 C11 120.4(5) . .
C13 C12 H12 119.8 . .
C11 C12 H12 119.8 . .
C12 C13 C8 120.7(5) . .
C12 C13 H13 119.6 . .
C8 C13 H13 119.6 . .
C11 O1 H1 109.4 . .
loop_
_geom_bond_atom_site_label_1
_geom_bond_atom_site_label_2
_geom_bond_distance
_geom_bond_site_symmetry_2
C1 C6 1.368(8) .
C1 C2 1.408(9) .
C1 Cl1 1.745(6) .
C2 C3 1.368(9) .
C2 H2 0.9300 .
C3 C4 1.383(8) .
C3 H3 0.9300 .
C4 C5 1.394(9) .
C4 C7 1.481(8) .
C5 C6 1.391(8) .
C5 H5 0.9300 .
C6 H6 0.9300 .
C7 O2 1.225(8) .
C7 C8 1.478(10) .
C8 C13 1.394(8) .
C8 C9 1.396(9) .
C9 C10 1.363(9) .
C9 H9 0.9300 .
C10 C11 1.382(8) .
C10 H10 0.9300 .
C11 O1 1.347(7) .
C11 C12 1.376(8) .
C12 C13 1.372(9) .
C12 H12 0.9300 .
C13 H13 0.9300 .
O1 H1 0.8200 .
loop_
_geom_hbond_atom_site_label_D
_geom_hbond_atom_site_label_H
_geom_hbond_atom_site_label_A
_geom_hbond_distance_DH
_geom_hbond_distance_HA
_geom_hbond_distance_DA
_geom_hbond_angle_DHA
_geom_hbond_site_symmetry_A
_geom_hbond_publ_flag
O1 H1 O2 0.82 1.96 2.741(6) 160.0 1_565 yes
O1 H1 O2 0.82 1.96 2.741(6) 160.0 1_565 yes
loop_
_geom_torsion_atom_site_label_1
_geom_torsion_atom_site_label_2
_geom_torsion_atom_site_label_3
_geom_torsion_atom_site_label_4
_geom_torsion
_geom_torsion_site_symmetry_1
_geom_torsion_site_symmetry_2
_geom_torsion_site_symmetry_3
_geom_torsion_site_symmetry_4
C6 C1 C2 C3 -0.9(9) . . . .
Cl1 C1 C2 C3 179.6(5) . . . .
C1 C2 C3 C4 -1.0(9) . . . .
C2 C3 C4 C5 1.3(8) . . . .
C2 C3 C4 C7 179.4(5) . . . .
C3 C4 C5 C6 0.2(9) . . . .
C7 C4 C5 C6 -177.8(5) . . . .
C2 C1 C6 C5 2.4(9) . . . .
Cl1 C1 C6 C5 -178.1(5) . . . .
C4 C5 C6 C1 -2.1(9) . . . .
C3 C4 C7 O2 -39.1(8) . . . .
C5 C4 C7 O2 138.9(7) . . . .
C3 C4 C7 C8 140.0(6) . . . .
C5 C4 C7 C8 -42.0(8) . . . .
O2 C7 C8 C13 157.3(6) . . . .
C4 C7 C8 C13 -21.8(9) . . . .
O2 C7 C8 C9 -19.3(9) . . . .
C4 C7 C8 C9 161.6(5) . . . .
C13 C8 C9 C10 2.3(9) . . . .
C7 C8 C9 C10 178.9(6) . . . .
C8 C9 C10 C11 -1.6(10) . . . .
C9 C10 C11 O1 -179.7(6) . . . .
C9 C10 C11 C12 -0.6(10) . . . .
O1 C11 C12 C13 -178.8(6) . . . .
C10 C11 C12 C13 2.1(9) . . . .
C11 C12 C13 C8 -1.4(10) . . . .
C9 C8 C13 C12 -0.8(9) . . . .
C7 C8 C13 C12 -177.4(6) . . . .
