#------------------------------------------------------------------------------
#$Date: 2022-03-16 12:05:57 +0200 (Wed, 16 Mar 2022) $
#$Revision: 273735 $
#$URL: file:///home/coder/svn-repositories/cod/cif/8/10/47/8104775.cif $
#------------------------------------------------------------------------------
#
# This file is available in the Crystallography Open Database (COD),
# http://www.crystallography.net/
#
# All data on this site have been placed in the public domain by the
# contributors.
#
data_8104775
loop_
_publ_author_name
'Chong, Yan Yi'
'Mark-Lee, Wun Fui'
'Mohamed Tahir, Mohamed Ibrahim'
'Kassim, Mohammad B.'
_publ_section_title
;
 Crystal structure of ethyl-2-(3-benzoylthioureido)propanoate, C13H16N2O3S
;
_journal_issue                   3
_journal_name_full
'Zeitschrift f\"ur Kristallographie - New Crystal Structures'
_journal_page_first              591
_journal_page_last               593
_journal_paper_doi               10.1515/ncrs-2020-0623
_journal_volume                  236
_journal_year                    2021
_chemical_formula_moiety         'C13 H16 N2 O3 S'
_chemical_formula_sum            'C13 H16 N2 O3 S'
_chemical_formula_weight         280.34
_chemical_name_common            'ethyl 2-(3-benzoylthioureido)propanoate'
_chemical_name_systematic
'ethyl 2-methyl-4-thio-6-oxo-6-phenyl-3,5-diazahexanoate'
_space_group_crystal_system      triclinic
_space_group_IT_number           2
_space_group_name_Hall           '-P 1'
_space_group_name_H-M_alt        'P -1'
_atom_sites_solution_hydrogens   mixed
_cell_angle_alpha                106.183(5)
_cell_angle_beta                 111.506(5)
_cell_angle_gamma                97.589(4)
_cell_formula_units_Z            2
_cell_length_a                   8.1998(4)
_cell_length_b                   9.1320(4)
_cell_length_c                   10.7062(6)
_cell_measurement_reflns_used    7953
_cell_measurement_temperature    293(2)
_cell_measurement_theta_max      71.3
_cell_measurement_theta_min      4.7
_cell_volume                     691.27(7)
_computing_cell_refinement       'CrysAlis PRO [1]'
_computing_data_collection       'CrysAlis PRO [1]'
_computing_data_reduction        'CrysAlis PRO [1]'
_computing_molecular_graphics    'OLEX2 [5])'
_computing_publication_material  'PLATON [4]'
_computing_structure_refinement  'SHELXL-2016/6 [3]'
_computing_structure_solution    'SHELXT 2018/2 [2]'
_diffrn_ambient_temperature      293(2)
_diffrn_measured_fraction_theta_full 0.998
_diffrn_measured_fraction_theta_max 0.985
_diffrn_measurement_device_type  'Oxford Diffraction Gemini'
_diffrn_measurement_method       \w
_diffrn_radiation_type           CuK\a
_diffrn_radiation_wavelength     1.54178
_diffrn_reflns_av_R_equivalents  0.0255
_diffrn_reflns_av_unetI/netI     0.0165
_diffrn_reflns_Laue_measured_fraction_full 0.998
_diffrn_reflns_Laue_measured_fraction_max 0.985
_diffrn_reflns_limit_h_max       10
_diffrn_reflns_limit_h_min       -10
_diffrn_reflns_limit_k_max       11
_diffrn_reflns_limit_k_min       -11
_diffrn_reflns_limit_l_max       12
_diffrn_reflns_limit_l_min       -12
_diffrn_reflns_number            13964
_diffrn_reflns_point_group_measured_fraction_full 0.998
_diffrn_reflns_point_group_measured_fraction_max 0.985
_diffrn_reflns_theta_full        67.679
_diffrn_reflns_theta_max         71.332
_diffrn_reflns_theta_min         4.748
_diffrn_source                   'fine-focus sealed tube'
_exptl_absorpt_coefficient_mu    2.143
_exptl_absorpt_correction_T_max  0.94
_exptl_absorpt_correction_T_min  0.74
_exptl_absorpt_correction_type   multi-scan
_exptl_absorpt_process_details   'CrysAlis [1]'
_exptl_crystal_colour            colourless
_exptl_crystal_density_diffrn    1.347
_exptl_crystal_density_method    'not measured'
_exptl_crystal_description       plate
_exptl_crystal_F_000             296
_exptl_crystal_size_max          0.220
_exptl_crystal_size_mid          0.140
_exptl_crystal_size_min          0.030
_refine_diff_density_max         0.310
_refine_diff_density_min         -0.231
_refine_diff_density_rms         0.050
_refine_ls_extinction_coef       .
_refine_ls_extinction_method     none
_refine_ls_goodness_of_fit_ref   1.042
_refine_ls_hydrogen_treatment    mixed
_refine_ls_matrix_type           full
_refine_ls_number_parameters     182
_refine_ls_number_reflns         2644
_refine_ls_number_restraints     2
_refine_ls_restrained_S_all      1.043
_refine_ls_R_factor_all          0.0373
_refine_ls_R_factor_gt           0.0346
_refine_ls_shift/su_max          0.000
_refine_ls_shift/su_mean         0.000
_refine_ls_structure_factor_coef Fsqd
_refine_ls_weighting_details
'w=1/[\s^2^(Fo^2^)+(0.0595P)^2^+0.1994P] where P=(Fo^2^+2Fc^2^)/3'
_refine_ls_weighting_scheme      calc
_refine_ls_wR_factor_gt          0.0932
_refine_ls_wR_factor_ref         0.0957
_reflns_Friedel_coverage         0.000
_reflns_Friedel_fraction_full    .
_reflns_Friedel_fraction_max     .
_reflns_number_gt                2445
_reflns_number_total             2644
_reflns_threshold_expression     'I > 2\s(I)'
_cod_data_source_file            suppl_j_ncrs-2020-0623_suppl.cif
_cod_data_source_block           a
_cod_database_code               8104775
_shelx_space_group_comment
;
The symmetry employed for this shelxl refinement is uniquely defined
by the following loop, which should always be used as a source of
symmetry information in preference to the above space-group names.
They are only intended as comments.
;
_shelx_res_file
;
TITL a_a.res in P-1
    a.res
    created by SHELXL-2016/6 at 15:43:54 on 22-Oct-2020
REM Old TITL a in P-1
REM SHELXT solution in P-1: R1 0.113, Rweak 0.005, Alpha 0.042
REM <I/s>   0.000 for    0 systematic absences,  Orientation as input
REM Formula found by SHELXT:  C13 N2 O3 S
CELL  1.54178   8.1998   9.1320  10.7062  106.183  111.506   97.589
ZERR    1.000   0.0004   0.0004   0.0006    0.005    0.005    0.004
LATT  1
SFAC C H N O S
UNIT 26 32 4 6 2
L.S. 20
DFIX 0.86 0.02 N1 H1A N2 H2A
BOND $H
ACTA
LIST 6
FMAP 2
PLAN 20
WGHT    0.059500    0.199400
FVAR       0.80578
S1    5    0.428968    0.749981    0.955137    11.00000    0.03552    0.02278 =
         0.02410    0.00528    0.01644    0.00021
O1    4    0.582784    0.848925    0.613332    11.00000    0.03789    0.02838 =
         0.02413    0.00527    0.01568    0.00007
O2    4    0.243466    0.452860    0.420962    11.00000    0.04877    0.03285 =
         0.02700    0.01107    0.01167    0.00165
O3    4    0.091570    0.280508    0.480942    11.00000    0.02850    0.02909 =
         0.02514    0.00142    0.00904   -0.00254
N1    3    0.588709    0.901856    0.836624    11.00000    0.02779    0.01981 =
         0.02227    0.00363    0.01287    0.00049
N2    3    0.434562    0.640572    0.699219    11.00000    0.03145    0.02171 =
         0.02294    0.00511    0.01422    0.00030
C1    1    0.783372    1.089931    0.796354    11.00000    0.02418    0.02199 =
         0.02913    0.00810    0.01544    0.00610
C2    1    0.910745    1.153018    0.939460    11.00000    0.02812    0.02534 =
         0.03002    0.01007    0.01401    0.00572
AFIX  43
H2    2    0.902510    1.104922    1.003690    11.00000   -1.20000
AFIX   0
C3    1    1.049525    1.287227    0.986087    11.00000    0.02808    0.02888 =
         0.03824    0.00655    0.01208    0.00245
AFIX  43
H3    2    1.135636    1.328195    1.081110    11.00000   -1.20000
AFIX   0
C4    1    1.059601    1.359998    0.891010    11.00000    0.03350    0.02541 =
         0.05300    0.01169    0.02347    0.00151
AFIX  43
H4    2    1.153061    1.449758    0.922111    11.00000   -1.20000
AFIX   0
C5    1    0.931212    1.299895    0.749683    11.00000    0.04219    0.03390 =
         0.04920    0.02369    0.02772    0.00937
AFIX  43
H5    2    0.937126    1.350950    0.686857    11.00000   -1.20000
AFIX   0
C6    1    0.793643    1.163795    0.701206    11.00000    0.03228    0.03141 =
         0.03163    0.01402    0.01680    0.00815
AFIX  43
H6    2    0.708961    1.122355    0.605722    11.00000   -1.20000
AFIX   0
C7    1    0.642137    0.937396    0.737956    11.00000    0.02440    0.02333 =
         0.02578    0.00879    0.01204    0.00650
C8    1    0.483298    0.759887    0.820294    11.00000    0.02145    0.02267 =
         0.02389    0.00741    0.00950    0.00367
C9    1    0.332750    0.482456    0.670263    11.00000    0.02981    0.02192 =
         0.02361    0.00415    0.01192   -0.00121
AFIX  13
H9    2    0.251469    0.491004    0.718485    11.00000   -1.20000
AFIX   0
C10   1    0.219252    0.406858    0.509504    11.00000    0.02824    0.02272 =
         0.02682    0.00642    0.01081    0.00634
C11   1   -0.024151    0.191271    0.329826    11.00000    0.02843    0.03471 =
         0.02565    0.00185    0.00455    0.00545
AFIX  23
H11A  2    0.048876    0.157055    0.279343    11.00000   -1.20000
H11B  2   -0.093019    0.256178    0.285852    11.00000   -1.20000
AFIX   0
C12   1   -0.150021    0.050950    0.322674    11.00000    0.03330    0.03285 =
         0.03950    0.00386    0.00294   -0.00026
AFIX 137
H12A  2   -0.229608   -0.010463    0.224172    11.00000   -1.50000
H12B  2   -0.220676    0.086364    0.373689    11.00000   -1.50000
H12C  2   -0.080314   -0.012834    0.365584    11.00000   -1.50000
AFIX   0
C13   1    0.458497    0.382733    0.724454    11.00000    0.04271    0.02702 =
         0.02936    0.00904    0.00465    0.00193
AFIX 137
H13A  2    0.387471    0.278342    0.700561    11.00000   -1.50000
H13B  2    0.525739    0.430600    0.826769    11.00000   -1.50000
H13C  2    0.541315    0.376581    0.680090    11.00000   -1.50000
REM #####
REM #####
AFIX   0
H1A   2    0.607412    0.976173    0.910677    11.00000    0.03102
H2A   2    0.463296    0.656980    0.636701    11.00000    0.04602
HKLF 4




REM  a_a.res in P-1
REM R1 =  0.0346 for    2445 Fo > 4sig(Fo)  and  0.0373 for all    2644 data
REM    182 parameters refined using      2 restraints

END

WGHT      0.0592      0.1990

REM Highest difference peak  0.310,  deepest hole -0.231,  1-sigma level  0.050
Q1    1   0.4570  0.7496  0.8798  11.00000  0.05    0.31
Q2    1   0.7068  1.0320  0.7769  11.00000  0.05    0.26
Q3    1   0.4315  0.8410  1.0100  11.00000  0.05    0.21
Q4    1   0.8372  1.1215  0.8583  11.00000  0.05    0.21
Q5    1   0.2767  0.4466  0.5975  11.00000  0.05    0.21
Q6    1   0.3617  0.6445  0.9076  11.00000  0.05    0.20
Q7    1   0.3929  0.5652  0.6929  11.00000  0.05    0.20
Q8    1   0.3966  0.4292  0.6785  11.00000  0.05    0.19
Q9    1   0.3100  0.7573  0.8963  11.00000  0.05    0.19
Q10   1   0.7654  1.1475  0.7587  11.00000  0.05    0.19
Q11   1   0.1809  0.4778  0.4665  11.00000  0.05    0.19
Q12   1   0.5803  0.9394  0.7763  11.00000  0.05    0.18
Q13   1   0.8043  1.1003  0.7434  11.00000  0.05    0.18
Q14   1   1.0258  1.3557  0.9572  11.00000  0.05    0.18
Q15   1   0.4522  0.6512  0.9598  11.00000  0.05    0.17
Q16   1   0.8374  1.2530  0.7394  11.00000  0.05    0.17
Q17   1   0.5555  0.8287  0.8362  11.00000  0.05    0.17
Q18   1   0.4964  0.6836  0.7807  11.00000  0.05    0.17
Q19   1   0.4171  0.7118  0.7570  11.00000  0.05    0.16
Q20   1  -0.1282  0.0368  0.2256  11.00000  0.05    0.16
;
_shelx_hkl_file
;
   0   0  -1    7.00    0.50
   0   0   1    7.80    0.70
   0   0   1    7.80    0.60
   0   0   1    7.30    0.60
   0   0  -1    7.00    0.60
   0   0  -1    7.20    0.70
   0   0  -2  108.49    2.90
   0   0  -2  103.79    2.80
   0   0  -2  109.89    2.50
   0   0  -2  101.39    3.30
   0   0   2   96.39    2.60
   0   0  -2  109.09    2.80
   0   0   2  107.39    3.40
   0   0   2  106.29    2.80
   0   0  -3  941.81   10.30
   0   0  -3  935.61    9.10
   0   0  -3  902.21   10.60
   0   0   3  925.81    9.60
   0   0  -3  909.21   12.00
   0   0   3  941.61   10.20
   0   0  -3  935.71   11.80
   0   0   3  962.00    9.20
   0   0  -3  941.21   12.10
   0   0   3  919.21   12.10
   0   0   3  942.81    9.10
   0   0  -4  277.17    7.00
   0   0   4  253.97    6.50
   0   0   4  286.87    5.50
   0   0   4  271.57    6.30
   0   0   4  278.47    4.90
   0   0   4  279.87    5.90
   0   0  -4  274.37    6.30
   0   0  -4  298.17    8.10
   0   0   4  288.17    6.10
   0   0   4  289.47    7.90
   0   0   4  274.07    5.40
   0   0  -4  289.27    6.30
   0   0  -4  258.67    7.60
   0   0  -4  266.47    5.00
   0   0   5  106.49    3.60
   0   0   5  110.09    4.40
   0   0   5  101.69    4.50
   0   0   5  104.29    3.90
   0   0  -5  102.59    4.90
   0   0  -5  109.69    4.60
   0   0  -5  103.69    4.40
   0   0  -5  114.29    5.80
   0   0  -5   99.59    4.30
   0   0   5  101.69    4.10
   0   0  -6   71.09    4.10
   0   0  -6   64.59    3.90
   0   0   6   67.19    3.80
   0   0   6   68.29    3.60
   0   0  -6   65.89    3.90
   0   0   6   70.99    4.20
   0   0   7    1.00    0.80
   0   0  -7    1.50    0.70
   0   0   7    1.20    0.70
   0   0  -7    0.00    0.90
   0   0  -7    2.10    1.00
   0   0   8   87.79    4.70
   0   0  -8   87.59    5.40
   0   0  -8   82.79    5.40
   0   0   8   90.39    5.10
   0   0   8   91.79    5.00
   0   0   8   85.39    4.60
   0   0   9  149.69    6.20
   0   0   9  165.28    6.70
   0   0   9  156.58    6.90
   0   0   9  165.78    6.60
   0   0  10    0.60    0.70
   0   0  10   -0.10    0.90
   0   0  10   -0.20    0.80
   0   0  10    1.60    1.00
   0   0  11   60.79    2.80
   0  -1  11    3.50    0.90
   0  -1  11    3.00    1.00
   0  -1  10   12.80    1.90
   0  -1  10   16.40    2.20
   0  -1  10   12.70    2.00
   0  -1   9    1.30    0.90
   0  -1   9   -0.20    1.00
   0  -1   9    0.10    0.70
   0  -1   9   -0.60    0.90
   0  -1   8   45.10    3.40
   0  -1   8   43.60    3.50
   0   1  -8   42.80    3.70
   0   1  -8   44.20    3.70
   0  -1   7  117.69    5.30
   0   1  -7  113.19    5.60
   0  -1   7  111.09    5.00
   0   1  -7  114.39    5.50
   0   1  -7  116.19    5.60
   0   1  -6  179.68    8.10
   0  -1   6  177.68    5.50
   0   1  -6  184.48    6.20
   0   1  -6  188.18    7.10
   0  -1   6  184.08    6.30
   0  -1   6  176.38    6.00
   0   1  -6  177.08    6.10
   0  -1   5  153.28    4.90
   0   1  -5  160.58    6.90
   0   1  -5  157.18    5.80
   0  -1   5  146.89    4.40
   0  -1   5  151.58    5.00
   0  -1   5  146.89    4.90
   0   1  -5  151.58    6.20
   0  -1   4   53.89    2.30
   0   1  -4   53.09    2.90
   0  -1   4   49.30    2.50
   0   1  -4   46.80    3.10
   0  -1   4   52.99    2.60
   0  -1   4   52.29    2.50
   0   1  -4   55.89    3.30
   0   1  -3  766.32    7.00
   0  -1   3  720.73    8.80
   0  -1   3  755.32    7.90
   0   1  -3  708.13   10.00
   0  -1   3  708.93    6.20
   0   1  -3  740.53    6.20
   0  -1   3  752.72    7.90
   0   1  -3  765.52   10.30
   0   1  -3  724.33    9.20
   0   1  -2  968.50    8.20
   0  -1   2  959.60    8.20
   0   1  -2  978.20    5.60
   0   1  -1 1205.28    5.00
   0  -1   1 1186.78    8.10
   0  -1   0    0.90    0.30
   0   1   0    0.50    0.30
   0   1   0    1.10    0.50
   0   1   1   10.50    1.10
   0   1   1   10.90    1.20
   0  -1  -1   10.40    0.90
   0  -1  -1   12.50    1.20
   0   1   1   10.90    0.60
   0  -1  -1   10.80    1.00
   0  -1  -2   73.29    2.40
   0  -1  -2   80.89    3.50
   0  -1  -2   74.69    3.10
   0  -1  -2   80.39    2.80
   0   1   2   75.19    3.40
   0   1   2   75.09    3.20
   0  -1  -2   73.49    2.90
   0  -1  -2   78.49    3.00
   0   1   2   73.79    3.00
   0  -1  -2   72.59    1.90
   0  -1  -3  494.05    8.10
   0   1   3  484.15    7.40
   0  -1  -3  471.25    9.00
   0  -1  -3  466.35    7.20
   0   1   3  482.15    8.70
   0  -1  -3  468.15    7.70
   0  -1  -3  482.35    9.00
   0   1   3  457.15    9.10
   0   1   3  475.65   10.00
   0   1   3  479.25    7.40
   0  -1  -3  471.85    9.70
   0   1   3  451.55    7.70
   0  -1  -3  486.05    8.60
   0  -1  -3  484.55    6.60
   0   1   4   38.60    2.20
   0   1   4   39.50    2.50
   0  -1  -4   41.90    2.60
   0  -1  -4   43.10    3.20
   0  -1  -4   42.30    2.20
   0   1   4   39.30    2.70
   0   1   4   40.50    2.50
   0  -1  -4   40.30    2.10
   0  -1  -4   41.80    2.80
   0  -1  -4   42.00    2.80
   0   1   4   40.50    2.20
   0  -1  -5  124.89    4.20
   0  -1  -5  122.09    5.00
   0   1   5  131.09    5.00
   0   1   5  118.89    4.50
   0  -1  -5  122.99    5.20
   0  -1  -5  129.39    5.50
   0   1   5  132.79    4.50
   0   1   5  129.49    5.50
   0   1   5  126.19    5.00
   0   1   6   65.59    3.50
   0  -1  -6   60.09    3.90
   0   1   6   55.39    3.50
   0  -1  -6   58.29    4.00
   0   1   6   64.19    4.40
   0  -1  -6   61.59    3.20
   0  -1  -6   64.39    4.30
   0  -1  -7  333.67   10.60
   0  -1  -7  347.07   10.60
   0   1   7  343.67   10.70
   0   1   8   50.49    4.00
   0   1   8   48.00    3.50
   0  -1  -8   50.19    3.40
   0   1   8   53.09    3.70
   0   1   9   40.40    3.20
   0   1   9   36.70    3.30
   0   1   9   34.00    2.90
   0   1  10    3.80    1.00
   0   1  10    4.90    1.30
   0   1  10    4.20    1.10
   0  -2  11    0.60    0.80
   0  -2  11   -0.10    0.90
   0  -2  10    1.80    0.90
   0  -2  10    2.70    1.10
   0  -2  10    0.40    0.80
   0  -2   9  349.87    9.90
   0  -2   9  373.26    9.80
   0  -2   9  386.26   10.10
   0  -2   9  347.57    9.60
   0  -2   9  373.06   10.10
   0  -2   9  361.96    8.40
   0  -2   8   19.10    2.20
   0   2  -8   19.40    2.40
   0  -2   8   19.90    2.30
   0   2  -7    0.70    0.40
   0  -2   7    1.00    0.70
   0  -2   7    0.40    0.80
   0   2  -7    1.60    0.80
   0   2  -7    0.80    0.50
   0  -2   7    0.20    0.70
   0  -2   6   34.60    2.60
   0   2  -6   33.80    2.90
   0  -2   6   29.90    2.40
   0   2  -6   35.20    2.70
   0   2  -6   37.40    3.80
   0  -2   6   35.70    2.80
   0   2  -6   35.30    2.70
   0   2  -6   36.90    3.10
   0  -2   5  113.49    4.30
   0   2  -5  108.09    4.10
   0   2  -5  124.89    4.90
   0  -2   5  117.89    4.40
   0  -2   5  112.69    3.80
   0   2  -5  119.29    5.60
   0   2  -4  325.27    6.10
   0  -2   4  350.46    5.70
   0  -2   4  307.77    7.00
   0  -2   4  348.67    6.40
   0  -2   4  353.26    6.70
   0   2  -4  324.87    6.80
   0   2  -4  356.66    8.50
   0   2  -4  327.57    8.20
   0   2  -4  355.46    7.20
   0  -2   4  339.27    5.70
   0   2  -3  162.88    2.30
   0  -2   3  175.38    4.20
   0   2  -3  181.08    5.40
   0   2  -3  169.68    3.80
   0  -2   3  180.38    3.90
   0  -2   3  164.68    4.40
   0   2  -3  182.18    4.60
   0  -2   3  186.18    4.30
   0   2  -3  174.98    2.40
   0   2  -3  180.98    4.00
   0   2  -2  816.42    7.20
   0   2  -2  805.12    5.40
   0   2  -2  820.62    7.40
   0  -2   2  815.12    7.00
   0  -2   1   64.69    1.90
   0  -2   1   65.19    2.10
   0   2  -1   68.49    3.00
   0   2  -1   62.09    2.00
   0   2  -1   63.69    2.10
   0  -2   1   65.59    2.10
   0   2   0  885.81    9.70
   0   2   0  893.01    9.20
   0  -2   0  896.71    8.90
   0   2   1 2429.16   20.20
   0   2   1 2350.96   17.40
   0   2   1 2362.96   14.30
   0  -2  -1 2448.06   18.60
   0   2   1 2374.26   18.70
   0   2   1 2396.86   11.90
   0  -2  -1 2413.06   20.00
   0  -2  -1 2448.66   15.30
   0  -2  -1 2319.17   13.30
   0  -2  -1 2313.97   16.80
   0  -2  -2  551.84    8.50
   0   2   2  553.94    7.50
   0  -2  -2  566.04    7.40
   0   2   2  532.05    7.80
   0   2   2  542.45   10.80
   0   2   2  574.34    7.10
   0   2   2  556.84    8.10
   0   2   2  524.55    8.20
   0  -2  -2  548.25   10.70
   0   2   3   52.79    2.90
   0   2   3   52.49    3.10
   0  -2  -3   56.69    2.40
   0   2   3   56.69    2.90
   0  -2  -3   58.49    3.20
   0  -2  -3   60.99    2.80
   0   2   3   57.09    2.60
   0   2   4  193.08    6.60
   0  -2  -4  198.88    5.10
   0  -2  -4  210.08    5.60
   0   2   4  202.28    5.50
   0   2   4  198.58    6.30
   0  -2  -4  192.48    5.80
   0  -2  -4  201.88    6.70
   0   2   5   82.59    4.80
   0  -2  -5   93.39    3.90
   0   2   5   88.89    4.10
   0   2   5   87.89    4.70
   0  -2  -5   89.29    4.90
   0  -2  -5   90.79    4.50
   0  -2  -5   86.09    4.70
   0  -2  -5   82.09    4.80
   0  -2  -6   12.80    1.70
   0   2   6   16.80    2.50
   0   2   6   10.00    2.00
   0  -2  -6   11.50    2.00
   0  -2  -6   12.70    2.00
   0  -2  -6   12.70    2.10
   0  -2  -6   10.90    1.90
   0   2   6   11.30    1.80
   0   2   7  100.49    4.90
   0   2   7   96.99    4.80
   0  -2  -7  100.49    5.90
   0  -2  -7  101.29    4.80
   0   2   7  106.39    5.10
   0   2   7  102.49    5.40
   0   2   7  100.49    6.10
   0  -2  -7   98.09    6.00
   0   2   8   -0.40    1.10
   0   2   8   -1.00    0.80
   0   2   8    0.50    0.60
   0   2   9    3.70    1.00
   0   2   9    4.30    1.30
   0   2   9    3.60    1.00
   0   2  10   41.20    2.40
   0   2  10   38.80    2.30
   0  -3  11    2.70    1.00
   0  -3  11    4.00    0.90
   0  -3  11    5.40    1.10
   0  -3  10    8.90    1.50
   0  -3  10    7.80    1.60
   0  -3  10    7.20    1.50
   0  -3   9    5.80    1.40
   0  -3   9    4.70    1.10
   0  -3   9    6.10    1.60
   0  -3   9    4.70    1.10
   0  -3   9    4.40    1.20
   0  -3   8  142.99    5.90
   0  -3   8  157.98    6.80
   0  -3   8  149.29    6.30
   0   3  -8  143.49    6.50
   0  -3   7  221.78    6.70
   0   3  -7  215.08    7.20
   0   3  -7  227.68    7.50
   0   3  -7  241.28    8.30
   0   3  -7  225.88    7.10
   0  -3   7  229.58    7.60
   0  -3   7  230.88    7.40
   0   3  -6  155.78    5.70
   0  -3   6  148.69    5.00
   0   3  -6  151.48    5.40
   0  -3   6  151.58    5.60
   0  -3   6  153.98    5.70
   0   3  -6  155.68    6.20
   0   3  -6  150.38    5.20
   0  -3   5  783.62   11.20
   0  -3   5  720.03   12.40
   0   3  -5  807.12   10.80
   0   3  -5  784.22   10.20
   0   3  -5  758.82   10.90
   0  -3   5  778.42   11.60
   0   3  -5  814.92   12.70
   0   3  -5  753.02   11.10
   0  -3   5  775.52    9.90
   0  -3   4  146.39    4.60
   0   3  -4  140.59    4.30
   0   3  -4  149.39    4.30
   0  -3   4  143.69    4.20
   0  -3   4  141.79    3.80
   0  -3   4  131.19    4.80
   0   3  -4  132.29    4.00
   0   3  -4  140.19    5.80
   0   3  -4  147.59    4.90
   0   3  -4  139.79    3.60
   0  -3   3  512.45    6.90
   0  -3   3  487.65    6.90
   0   3  -3  510.85    7.50
   0  -3   3  510.85    6.70
   0   3  -3  468.25    9.50
   0   3  -3  484.85    7.40
   0  -3   3  498.45    7.80
   0  -3   3  455.75    7.80
   0   3  -2  743.03    7.70
   0  -3   2  726.53    8.30
   0   3  -2  756.62    9.00
   0   3  -2  713.43    9.00
   0  -3   2  715.53    8.80
   0   3  -2  727.43    8.10
   0  -3   1   46.90    2.30
   0   3  -1   46.40    1.60
   0   3  -1   45.40    2.30
   0  -3   1   46.40    2.10
   0   3  -1   43.30    2.20
   0   3  -1   44.90    3.10
   0   3  -1   45.20    2.30
   0   3  -1   45.50    2.50
   0   3   0    6.50    1.30
   0   3   0    5.60    0.80
   0   3   0    6.90    1.10
   0  -3   0    6.20    1.10
   0   3   0    5.10    0.90
   0  -3   0    6.70    1.00
   0  -3   0    6.00    0.90
   0   3   1  105.79    3.90
   0   3   1  109.59    3.20
   0   3   1  100.79    3.70
   0  -3  -1  104.89    3.20
   0  -3  -1  113.49    3.60
   0  -3  -1  103.49    3.20
   0   3   1  104.59    3.70
   0  -3  -1  108.69    3.20
   0  -3  -1  104.59    3.30
   0  -3  -2  240.18    5.30
   0   3   2  226.98    6.10
   0   3   2  235.98    5.70
   0  -3  -2  234.18    5.80
   0   3   2  235.18    5.40
   0  -3  -2  232.28    5.70
   0   3   2  223.08    6.30
   0  -3  -2  230.88    5.10
   0  -3  -2  225.18    6.40
   0  -3  -2  241.48    5.80
   0   3   2  240.58    6.20
   0   3   2  230.68    5.50
   0  -3  -2  224.28    4.70
   0  -3  -3    3.60    1.00
   0  -3  -3    3.90    0.80
   0  -3  -3    2.70    0.80
   0  -3  -3    2.80    1.00
   0   3   3    2.90    1.20
   0   3   3    3.30    1.10
   0  -3  -3    2.80    0.70
   0  -3  -3    2.50    0.80
   0   3   3    1.70    0.70
   0   3   3    4.60    1.10
   0   3   3    2.80    0.80
   0   3   3    2.60    0.90
   0  -3  -3    3.50    1.00
   0  -3  -4  562.14   12.40
   0   3   4  565.84   10.50
   0   3   4  581.34   12.00
   0  -3  -4  568.04   11.80
   0  -3  -4  575.04   11.70
   0  -3  -4  588.74   10.60
   0   3   4  562.34   12.30
   0  -3  -4  566.34    9.50
   0  -3  -4  568.14    9.90
   0  -3  -5    2.70    0.80
   0  -3  -5    3.50    0.90
   0  -3  -5    3.50    1.30
   0   3   5    2.90    1.00
   0  -3  -5    4.40    1.30
   0   3   5    4.60    1.20
   0  -3  -6   93.79    4.60
   0  -3  -6   86.79    5.50
   0  -3  -6   94.09    5.60
   0   3   6   83.19    5.50
   0   3   6   86.89    5.40
   0   3   7  198.58    7.20
   0  -3  -7  209.88    6.90
   0   3   7  211.38    7.80
   0   3   7  195.08    6.90
   0   3   8   18.70    2.10
   0   3   8   17.50    2.10
   0   3   8   15.20    2.20
   0   3   9   17.40    1.70
   0   3   9   15.10    1.70
   0  -4  12   12.20    1.30
   0  -4  11   33.70    2.40
   0  -4  10  263.07    7.70
   0  -4  10  248.98    8.00
   0  -4  10  250.67    8.20
   0  -4  10  272.47    7.50
   0  -4   9   13.60    1.90
   0  -4   9   16.20    2.00
   0  -4   9   13.50    1.90
   0  -4   9   13.60    2.10
   0  -4   9   12.50    1.90
   0   4  -9   15.40    2.30
   0  -4   8   51.39    3.90
   0  -4   8   52.29    3.90
   0  -4   8   49.10    3.50
   0   4  -8   48.90    3.80
   0  -4   7    6.20    1.40
   0   4  -7    7.40    1.30
   0   4  -7    5.30    1.10
   0  -4   7    6.10    1.20
   0  -4   7    6.90    1.40
   0  -4   6   65.89    4.30
   0   4  -6   70.09    3.90
   0  -4   6   68.99    4.00
   0  -4   6   70.59    3.90
   0  -4   6   72.29    3.50
   0   4  -5   68.89    3.60
   0  -4   5   72.09    3.50
   0  -4   5   70.39    3.80
   0  -4   5   65.39    4.00
   0  -4   5   69.19    3.10
   0   4  -5   75.29    3.70
   0   4  -5   71.09    3.20
   0   4  -4  740.53   14.20
   0   4  -4  769.82   12.10
   0   4  -4  784.22   11.40
   0  -4   4  794.32    9.30
   0  -4   4  735.13   12.00
   0   4  -4  788.12   10.00
   0   4  -4  793.92   10.20
   0  -4   4  822.22   10.30
   0  -4   4  751.72    9.00
   0  -4   4  790.52   11.70
   0   4  -3    2.20    0.60
   0   4  -3    1.90    0.60
   0  -4   3    2.90    1.00
   0  -4   3    1.90    0.60
   0  -4   3    1.80    0.60
   0  -4   3    1.40    0.50
   0   4  -3    3.90    1.00
   0  -4   3    2.30    0.90
   0   4  -3    1.90    0.70
   0  -4   3    2.30    0.60
   0   4  -3    1.40    0.60
   0   4  -2  730.33    8.80
   0   4  -2  735.93    9.20
   0   4  -2  744.13   10.50
   0   4  -2  766.22    9.00
   0  -4   2  741.33   10.00
   0   4  -2  764.62    8.30
   0  -4   2  711.53   10.20
   0  -4   2  721.53    8.50
   0  -4   1  202.88    5.30
   0   4  -1  192.78    4.30
   0   4  -1  182.18    4.40
   0   4  -1  191.88    4.80
   0  -4   1  181.18    4.40
   0   4  -1  194.58    5.50
   0   4  -1  184.98    5.30
   0   4  -1  191.78    4.70
   0  -4   0    0.50    0.50
   0   4   0    1.00    0.60
   0  -4   0    1.40    0.80
   0   4   0    0.50    0.50
   0  -4   0    0.90    0.50
   0   4   0    0.90    0.60
   0   4   0    1.10    0.50
   0   4   1   48.10    3.00
   0  -4  -1   53.59    2.70
   0  -4  -1   50.89    2.60
   0   4   1   49.50    3.10
   0  -4  -1   54.69    3.00
   0   4   1   48.20    3.10
   0   4   1   47.90    2.80
   0  -4  -1   52.69    2.70
   0  -4  -1   50.99    2.60
   0   4   2  213.38    7.00
   0   4   2  221.38    6.40
   0  -4  -2  217.08    5.90
   0   4   2  222.58    6.90
   0  -4  -2  221.18    6.20
   0  -4  -2  217.18    5.70
   0  -4  -2  218.88    6.30
   0   4   2  214.98    6.20
   0   4   2  224.38    7.00
   0  -4  -2  236.58    6.60
   0   4   3  121.69    5.50
   0  -4  -3  127.79    5.20
   0  -4  -3  119.19    4.70
   0   4   3  119.79    5.60
   0  -4  -3  119.59    4.50
   0  -4  -3  123.59    5.30
   0  -4  -3  123.99    5.40
   0   4   3  130.39    5.30
   0   4   3  116.69    5.80
   0   4   3  120.29    5.00
   0  -4  -4    0.60    0.70
   0   4   4   -0.40    0.80
   0  -4  -4    1.00    0.70
   0  -4  -4    0.70    0.60
   0  -4  -4    0.00    0.70
   0   4   4   -0.20    1.00
   0  -4  -4   -1.70    0.80
   0   4   5   12.90    2.20
   0  -4  -5   18.20    2.50
   0  -4  -5   17.70    2.30
   0  -4  -5   14.60    2.10
   0  -4  -5   17.70    2.10
   0  -4  -5   16.70    2.40
   0   4   5   21.80    2.80
   0   4   6  100.09    4.90
   0  -4  -6  104.79    5.00
   0  -4  -6   98.79    5.40
   0   4   6  100.29    4.90
   0  -4  -6  101.19    5.50
   0   4   6  106.69    5.40
   0   4   7   83.19    4.70
   0   4   7   83.69    4.30
   0   4   8   20.20    2.10
   0   4   8   21.40    2.00
   0  -5  12    0.50    0.60
   0  -5  11   19.00    1.90
   0  -5  10   12.00    1.70
   0  -5  10   11.80    1.70
   0  -5   9    1.50    0.90
   0  -5   9   -0.90    0.80
   0  -5   9    1.00    0.70
   0   5  -9    1.30    0.80
   0  -5   9   -0.80    0.90
   0  -5   8   40.40    2.90
   0  -5   8   44.40    3.20
   0   5  -8   40.90    3.70
   0  -5   8   41.80    3.50
   0  -5   8   38.40    3.30
   0  -5   8   36.80    3.00
   0  -5   7  102.79    5.10
   0  -5   7  100.19    4.60
   0  -5   7  100.19    5.80
   0   5  -7   97.69    4.70
   0  -5   7   99.09    5.30
   0   5  -7  103.49    5.70
   0   5  -6    0.60    0.70
   0   5  -6    0.60    0.70
   0  -5   6    0.70    0.90
   0  -5   6    2.20    1.00
   0   5  -6    0.20    0.80
   0  -5   6   -1.80    0.80
   0   5  -5  110.69    4.40
   0   5  -5  106.69    5.20
   0   5  -5  106.29    4.40
   0  -5   5   99.59    4.90
   0   5  -5   99.29    4.80
   0  -5   5  115.29    4.10
   0  -5   5  100.29    5.20
   0   5  -4   22.50    2.00
   0  -5   4   20.70    1.70
   0   5  -4   20.90    1.90
   0  -5   4   22.40    2.40
   0   5  -4   21.80    2.20
   0   5  -4   21.80    2.40
   0  -5   4   22.20    2.30
   0  -5   3  336.47    7.80
   0  -5   3  352.76    8.50
   0   5  -3  336.07    8.60
   0   5  -3  342.97    7.10
   0   5  -3  360.56    8.50
   0   5  -3  352.76    7.50
   0  -5   3  360.56    6.90
   0   5  -3  356.26    7.10
   0  -5   3  333.07    8.30
   0  -5   2  210.88    6.40
   0   5  -2  223.78    5.70
   0  -5   2  218.58    5.50
   0  -5   2  221.88    6.40
   0   5  -2  221.48    5.90
   0   5  -2  217.68    5.50
   0   5  -2  207.98    6.50
   0   5  -2  203.58    6.50
   0  -5   1   54.19    2.80
   0   5  -1   54.69    3.00
   0  -5   1   56.69    3.30
   0  -5   1   59.09    3.40
   0   5  -1   59.09    3.20
   0   5  -1   54.99    2.70
   0   5  -1   53.59    3.50
   0  -5   0  115.39    4.80
   0   5   0  110.89    4.60
   0   5   0  105.49    4.90
   0   5   0  104.69    4.80
   0  -5   0  110.49    4.20
   0  -5  -1  234.48    7.20
   0   5   1  219.88    7.40
   0  -5  -1  225.88    6.20
   0  -5  -1  226.28    6.30
   0   5   1  235.18    7.30
   0   5   1  228.58    6.80
   0   5   1  219.08    7.40
   0  -5  -2  165.18    5.70
   0   5   2  146.79    6.40
   0   5   2  163.18    6.70
   0   5   2  155.58    6.00
   0  -5  -2  169.88    6.40
   0  -5  -2  163.88    5.50
   0   5   2  165.38    6.20
   0   5   2  152.38    6.70
   0  -5  -3   24.60    2.40
   0   5   3   23.60    2.80
   0   5   3   26.50    3.10
   0   5   3   26.00    2.90
   0  -5  -3   24.70    2.40
   0  -5  -3   30.20    2.90
   0  -5  -3   27.60    2.40
   0  -5  -3   26.70    2.60
   0  -5  -4   97.09    4.60
   0   5   4  103.19    5.20
   0   5   4  102.09    6.10
   0   5   4  102.59    4.70
   0  -5  -4  106.59    5.10
   0  -5  -4  104.89    5.40
   0  -5  -4  101.29    5.30
   0   5   4  102.49    6.10
   0  -5  -4  101.69    5.20
   0   5   4   97.99    4.80
   0  -5  -5  427.56   10.10
   0   5   5  433.06   10.20
   0   5   5  415.46    9.70
   0   5   5  426.66   10.90
   0   5   6   30.30    2.60
   0   5   6   25.10    2.60
   0   5   7   50.59    3.40
   0   5   7   52.09    3.00
   0   5   8   41.10    2.00
   0  -5  -8   40.30    2.30
   0   5   8   42.60    2.40
   0  -6  11    1.20    0.60
   0  -6  10   98.49    4.60
   0  -6  10   93.09    4.30
   0  -6   9   62.39    3.70
   0  -6   9   62.59    3.90
   0  -6   8    0.80    0.80
   0   6  -8    0.50    0.70
   0  -6   8    0.60    1.00
   0  -6   8    1.20    0.60
   0   6  -8    0.60    0.70
   0  -6   7   79.99    5.30
   0   6  -7   72.19    5.00
   0  -6   7   71.19    4.70
   0   6  -7   82.49    4.40
   0   6  -6    4.80    1.20
   0   6  -6    5.20    1.50
   0  -6   6    5.20    1.40
   0   6  -6    5.60    1.30
   0  -6   6    3.40    1.10
   0   6  -6    2.70    1.10
   0   6  -5  103.19    4.70
   0  -6   5  106.59    5.50
   0   6  -5  107.79    5.50
   0  -6   5   98.69    5.50
   0   6  -5  111.79    5.90
   0   6  -5  105.49    4.70
   0   6  -4    1.70    1.00
   0   6  -4    2.00    0.90
   0   6  -4    2.10    1.00
   0  -6   4    2.20    1.00
   0   6  -4    2.20    0.90
   0  -6   4    2.00    0.80
   0  -6   4    2.30    0.70
   0  -6   4    2.50    1.00
   0   6  -3    0.20    0.60
   0   6  -3    0.00    0.80
   0   6  -3    0.20    0.70
   0  -6   3    2.70    0.90
   0   6  -3    0.30    0.50
   0  -6   3    0.50    0.70
   0  -6   3    1.20    0.70
   0   6  -3    1.40    0.70
   0  -6   3    0.10    0.50
   0   6  -2  120.89    4.60
   0  -6   2  122.89    5.50
   0   6  -2  112.79    5.50
   0   6  -2  114.89    4.90
   0  -6   2  116.89    5.40
   0  -6   2  128.99    4.80
   0   6  -2  122.99    5.80
   0  -6   1   31.50    2.90
   0   6  -1   27.80    2.20
   0   6  -1   27.30    2.60
   0   6  -1   28.20    2.80
   0  -6   1   27.40    2.70
   0  -6   1   29.50    2.40
   0   6   0  127.79    5.50
   0   6   0  133.79    6.20
   0  -6   0  142.59    6.10
   0  -6   0  136.59    5.30
   0   6   0  130.99    6.00
   0   6   1  245.28    8.70
   0   6   1  266.77    8.20
   0  -6  -1  264.27    7.60
   0  -6  -1  272.07    8.70
   0   6   1  276.77    9.00
   0   6   1  270.77    8.50
   0   6   1  246.28    8.90
   0   6   2   56.89    4.40
   0   6   2   62.19    4.60
   0   6   2   58.79    4.50
   0  -6  -2   62.79    4.30
   0  -6  -2   55.89    3.70
   0   6   2   57.79    4.00
   0   6   3  290.07    8.50
   0  -6  -3  304.07    8.60
   0  -6  -3  293.37    8.80
   0   6   3  309.97    9.00
   0  -6  -3  317.87    9.60
   0   6   3  285.97   10.10
   0   6   3  293.37    8.10
   0   6   3  311.37    8.80
   0   6   3  329.27   10.80
   0   6   3  289.77    8.60
   0  -6  -3  307.07    8.90
   0  -6  -4  395.06   10.20
   0   6   4  399.26    9.60
   0   6   4  394.36    9.90
   0  -6  -4  394.36    9.70
   0  -6  -4  397.96   10.10
   0   6   4  410.56   10.60
   0   6   4  386.46    9.30
   0  -6  -5   12.90    1.70
   0   6   5   12.70    1.80
   0   6   5   14.50    1.80
   0   6   5   14.80    2.10
   0   6   6   21.00    1.90
   0   6   6   15.50    2.00
   0  -6  -6   18.20    2.10
   0  -6  -7    4.30    0.90
   0   6   7    2.60    0.70
   0  -7  11   -0.40    0.70
   0  -7  10    1.50    0.70
   0  -7  10    1.50    0.80
   0  -7   9   81.69    4.30
   0  -7   9   80.69    4.00
   0  -7   8    2.50    0.80
   0  -7   8    0.30    0.50
   0  -7   8    1.10    0.90
   0   7  -8    1.90    0.80
   0  -7   7  261.07    9.00
   0  -7   7  245.98    7.40
   0   7  -7  242.08    7.80
   0  -7   7  252.77    7.60
   0  -7   7  242.28    9.10
   0  -7   7  242.48    7.30
   0   7  -7  239.28    9.20
   0  -7   6  147.09    7.10
   0  -7   6  157.58    7.00
   0   7  -6  151.78    7.00
   0   7  -6  154.58    7.40
   0   7  -6  147.59    6.10
   0  -7   6  145.49    5.50
   0  -7   6  154.58    5.80
   0   7  -5   -0.20    0.80
   0   7  -5    1.70    0.80
   0   7  -5    2.10    1.20
   0   7  -5    1.30    0.60
   0  -7   5    0.40    1.00
   0  -7   5    0.40    0.80
   0   7  -4   13.50    1.80
   0   7  -4   18.10    2.50
   0   7  -4   19.60    2.60
   0  -7   4   18.30    1.90
   0  -7   4   17.70    2.40
   0  -7   4   18.20    2.40
   0   7  -4   15.90    2.10
   0  -7   4   20.20    2.40
   0  -7   3   46.10    3.80
   0  -7   3   42.20    3.50
   0  -7   3   49.10    3.90
   0   7  -3   42.50    3.80
   0  -7   3   42.60    3.00
   0   7  -3   43.30    3.80
   0   7  -3   40.00    3.20
   0   7  -3   42.90    3.10
   0   7  -2   10.50    1.60
   0   7  -2    7.70    1.70
   0  -7   2    8.80    1.70
   0  -7   2    9.20    1.60
   0  -7   2   11.20    2.00
   0   7  -1   45.90    4.00
   0  -7   1   44.30    3.20
   0   7  -1   46.90    3.60
   0  -7   1   44.90    3.70
   0   7   0    0.10    0.70
   0  -7   0    1.50    0.80
   0   7   0    0.30    0.70
   0   7   0   -0.30    0.80
   0   7   0    1.00    0.70
   0  -7   0    1.20    0.80
   0   7   1    5.30    1.40
   0  -7  -1    5.20    1.30
   0  -7  -1    5.10    1.20
   0   7   1    1.00    0.80
   0  -7  -1    4.00    1.30
   0  -7  -1    4.60    1.40
   0   7   1    4.10    1.20
   0   7   1    2.80    0.90
   0  -7  -1    2.70    1.00
   0   7   1    3.80    1.10
   0  -7  -1    1.80    1.00
   0   7   1    4.40    1.20
   0   7   1    4.20    1.10
   0   7   2  617.24   11.70
   0  -7  -2  591.84   12.50
   0   7   2  628.44   12.90
   0   7   2  591.44   12.60
   0  -7  -2  647.94   12.50
   0   7   2  568.84   12.20
   0  -7  -2  608.24   12.90
   0  -7  -2  628.74   13.20
   0   7   3   10.30    1.80
   0   7   3   11.90    1.70
   0   7   3   10.70    1.70
   0   7   3   11.00    1.80
   0  -7  -3    9.30    1.60
   0  -7  -3    7.20    1.50
   0  -7  -3    9.30    1.70
   0  -7  -4   84.69    4.40
   0  -7  -4   87.09    4.50
   0   7   4   90.49    4.70
   0   7   4   77.49    4.00
   0  -7  -4   77.19    4.40
   0   7   4   91.59    4.50
   0   7   4   79.39    3.90
   0  -7  -5   47.80    2.80
   0   7   5   51.09    3.20
   0   7   5   56.39    2.90
   0  -7  -5   53.39    3.20
   0   7   6   17.20    1.50
   0  -7  -6   17.70    1.50
   0  -8  10    0.80    0.70
   0  -8  10    1.30    0.60
   0  -8   9   41.70    2.70
   0  -8   9   41.80    2.90
   0  -8   8  186.48    6.20
   0  -8   8  201.48    6.50
   0  -8   7   43.50    3.20
   0  -8   7   48.50    3.30
   0   8  -6   30.50    2.70
   0  -8   6   32.50    2.80
   0  -8   6   36.00    2.90
   0   8  -6   27.90    2.70
   0   8  -5   26.00    2.60
   0  -8   5   20.80    2.20
   0   8  -5   22.50    2.90
   0   8  -5   24.20    2.60
   0  -8   5   22.30    2.30
   0  -8   5   25.20    2.40
   0   8  -5   23.30    3.00
   0  -8   5   26.60    2.60
   0  -8   5   23.90    2.40
   0  -8   4    5.10    1.20
   0   8  -4    4.50    1.20
   0  -8   4    4.10    1.30
   0   8  -4    6.90    1.50
   0   8  -4    5.40    1.30
   0  -8   4    6.90    1.30
   0  -8   4    7.00    1.40
   0  -8   4    6.90    1.50
   0   8  -3   25.90    2.60
   0   8  -3   23.30    3.00
   0  -8   3   27.60    2.70
   0   8  -3   26.70    2.40
   0  -8   3   23.40    2.40
   0   8  -3   25.30    2.50
   0  -8   3   28.20    2.50
   0  -8   3   23.90    2.90
   0   8  -3   28.90    2.90
   0  -8   3   25.90    2.90
   0  -8   3   24.00    2.40
   0  -8   3   24.70    2.50
   0   8  -2   17.10    2.30
   0   8  -2   17.90    2.10
   0   8  -2   17.30    2.30
   0  -8   2   20.00    2.20
   0   8  -2   20.30    2.90
   0  -8   2   20.00    2.60
   0   8  -2   18.50    2.30
   0  -8   2   19.00    2.50
   0  -8   2   15.10    2.10
   0   8  -2   17.60    2.10
   0  -8   2   19.20    2.20
   0   8  -1   54.89    4.00
   0  -8   1   57.69    3.90
   0   8  -1   54.69    3.90
   0   8  -1   57.69    3.90
   0   8  -1   56.49    4.10
   0   8  -1   57.19    4.60
   0  -8   1   58.59    3.80
   0  -8   1   53.69    3.70
   0   8   0   66.49    4.30
   0  -8   0   68.19    4.20
   0   8   0   69.59    4.30
   0   8   0   67.29    4.30
   0  -8   0   63.39    3.90
   0  -8   0   66.89    4.20
   0   8   0   68.59    4.50
   0   8   1  149.88    6.30
   0  -8  -1  160.28    6.50
   0  -8  -1  158.78    6.20
   0   8   1  160.98    6.50
   0  -8  -1  157.18    6.20
   0   8   1  149.69    6.40
   0   8   1  151.78    5.70
   0  -8  -2   73.99    4.20
   0   8   2   70.39    4.20
   0   8   2   74.19    3.90
   0   8   2   76.19    4.30
   0  -8  -2   81.59    4.50
   0  -8  -3    1.20    0.70
   0  -8  -3    1.10    0.70
   0  -8  -3    2.60    0.90
   0   8   3    3.60    0.90
   0   8   3    1.10    0.70
   0   8   3    1.60    0.70
   0   8   3    2.50    0.90
   0  -8  -4    3.70    0.90
   0  -8  -4    3.50    0.90
   0   8   4    3.60    0.90
   0   8   4    2.10    0.60
   0   8   4    3.50    0.80
   0  -9   9   11.90    1.40
   0  -9   9    9.70    1.30
   0   9  -8    6.50    1.20
   0  -9   8    5.60    1.10
   0  -9   8    4.70    0.90
   0  -9   7   39.40    2.90
   0   9  -7   36.00    2.90
   0   9  -6   73.99    4.30
   0  -9   6   77.39    4.10
   0  -9   5  355.56    9.00
   0  -9   5  341.67    8.60
   0  -9   5  355.96    8.80
   0  -9   4   44.40    3.30
   0  -9   4   47.00    3.40
   0   9  -4   42.80    3.40
   0  -9   4   47.00    3.20
   0   9  -4   44.40    3.40
   0  -9   4   44.70    3.30
   0   9  -3   18.80    2.20
   0   9  -3   19.70    2.40
   0  -9   3   20.10    2.20
   0  -9   3   17.70    2.20
   0   9  -3   20.90    2.30
   0  -9   3   20.60    2.30
   0   9  -3   21.90    2.20
   0  -9   2    5.00    1.20
   0  -9   2    2.40    1.00
   0   9  -2    2.40    1.10
   0  -9   2    3.00    1.10
   0   9  -2    1.80    0.70
   0   9  -2    3.60    1.10
   0   9  -1   41.10    3.30
   0   9  -1   40.10    3.20
   0   9  -1   45.30    3.30
   0  -9   1   45.80    3.40
   0  -9   1   46.60    3.40
   0   9   0   73.99    4.30
   0   9   0   67.29    3.50
   0   9   0   68.59    4.10
   0   9   0   65.69    4.00
   0  -9   0   66.39    3.90
   0  -9   0   60.79    3.50
   0  -9   0   75.69    4.20
   0  -9  -1    0.60    0.60
   0  -9  -1    0.20    0.60
   0  -9  -1    0.30    0.70
   0   9   1   -0.70    0.70
   0   9   1    0.00    0.40
   0  -9  -2    2.60    0.90
   0  -9  -2    3.40    0.80
   0   9   2    4.70    0.80
   0   9   2    2.40    0.80
   0  -9  -2    2.50    0.80
   0   9   2    2.60    0.80
   0  -9  -3   67.29    2.80
   0   9   3   80.69    3.00
   0 -10   8   63.39    2.90
   0  10  -8   58.79    2.60
   0 -10   7    0.50    0.50
   0  10  -7    0.50    0.50
   0 -10   6   56.99    3.20
   0  10  -6   55.39    3.30
   0  10  -6   55.99    3.30
   0  10  -5    2.90    0.90
   0 -10   5    0.90    0.60
   0 -10   5    2.00    0.80
   0 -10   5    1.70    0.70
   0  10  -4   20.30    2.10
   0  10  -4   21.90    2.10
   0 -10   4   18.70    2.00
   0 -10   4   22.60    2.10
   0 -10   3   82.79    4.10
   0  10  -3   89.89    3.90
   0  10  -3   82.49    4.20
   0  10  -3   89.09    4.10
   0 -10   3   87.89    4.20
   0 -10   2   10.50    1.50
   0  10  -2    9.70    1.40
   0  10  -2    9.90    1.50
   0  10  -2    9.10    1.20
   0  10  -2    9.60    1.50
   0 -10   2   10.30    1.60
   0  10  -1   10.90    1.20
   0  10  -1    9.10    1.30
   0 -10   1    7.40    1.30
   0 -10   1    8.70    1.30
   0  10  -1   10.10    1.50
   0  10   0   70.49    3.30
   0 -10   0   64.29    3.10
   0  10   0   64.89    3.10
   0 -10   0   59.99    2.90
   0 -10   0   58.19    2.60
   0  10   1   50.49    2.40
   0  10   1   50.69    2.40
   0 -10  -1   49.60    2.30
   0  11  -5   33.30    1.90
   0  11  -4   27.90    1.80
   0 -11   4   30.20    1.90
   0 -11   3    2.80    0.60
   0  11  -3    3.10    0.70
   1 -11   2   33.50    2.00
   1 -11   2   30.50    1.90
   1 -11   3   29.00    2.00
  -1  11  -3   26.70    1.80
   1 -11   3   27.90    1.90
  -1  11  -3   26.50    1.80
   1 -11   4  104.59    3.60
  -1  11  -4  100.79    3.40
  -1  11  -4   96.39    3.20
   1 -11   4  102.59    3.60
  -1  11  -4   98.39    3.50
  -1  11  -5   15.60    1.50
  -1  11  -5   15.80    1.40
  -1  11  -6   58.39    2.60
   1 -10  -1   14.10    1.40
   1 -10  -1   14.80    1.40
   1 -10  -1   14.40    1.40
  -1  10   1   17.10    1.60
  -1  10   1   16.80    1.50
  -1  10   1   14.00    1.50
  -1  10   0   50.69    2.80
   1 -10   0   49.80    2.90
  -1  10   0   45.30    2.90
  -1  10   0   46.30    2.80
   1 -10   0   51.19    3.00
  -1  10  -1    2.00    0.80
   1 -10   1    0.90    0.70
  -1  10  -1    0.60    0.70
   1 -10   1    2.50    0.90
  -1  10  -1    1.90    0.60
   1 -10   2    0.50    0.80
  -1  10  -2    1.50    0.70
   1 -10   2    1.20    0.70
  -1  10  -2    0.50    0.50
  -1  10  -2    0.90    0.60
  -1  10  -2    0.20    0.60
  -1  10  -3   32.30    2.60
  -1  10  -3   37.90    2.90
   1 -10   3   42.00    3.00
   1 -10   3   41.30    3.00
   1 -10   4   32.40    2.60
  -1  10  -4   32.60    2.60
  -1  10  -4   33.10    2.70
   1 -10   4   33.00    2.40
   1 -10   4   31.80    2.60
   1 -10   5   22.50    2.00
   1 -10   5   24.00    2.20
  -1  10  -5   19.50    2.10
   1 -10   5   22.90    2.10
  -1  10  -5   20.00    1.90
  -1  10  -6    5.60    1.20
   1 -10   6    4.90    1.10
   1 -10   7   60.69    3.10
  -1  10  -7   62.19    3.30
  -1  10  -8    0.30    0.50
   1 -10   8   -0.80    0.70
   1  -9  -3  100.49    3.90
  -1   9   3  103.99    3.70
  -1   9   3  106.59    4.10
   1  -9  -3   83.69    3.50
   1  -9  -3   86.49    3.30
   1  -9  -2   27.30    2.20
  -1   9   2   31.60    2.40
  -1   9   2   29.80    2.50
   1  -9  -2   31.10    2.40
  -1   9   2   32.40    2.60
   1  -9  -2   29.10    2.40
  -1   9   1    0.20    0.80
   1  -9  -1   -0.60    1.00
   1  -9  -1    0.00    0.70
   1  -9  -1    0.50    0.60
   1  -9  -1    1.60    0.80
   1  -9  -1    0.20    0.50
  -1   9   1    0.80    0.70
  -1   9   1   -0.30    0.80
   1  -9   0   35.60    2.90
   1  -9   0   33.70    2.90
   1  -9   0   29.80    2.50
   1  -9   0   34.20    2.90
  -1   9   0   36.70    2.80
  -1   9   0   32.10    2.90
   1  -9   0   34.80    2.90
  -1   9   0   34.40    2.90
  -1   9   0   34.80    3.00
  -1   9  -1   96.49    4.80
   1  -9   1   92.29    4.70
   1  -9   1   96.29    4.80
  -1   9  -1   92.79    4.70
  -1   9  -1   90.59    4.80
  -1   9  -1   86.49    4.80
  -1   9  -1   94.59    4.70
   1  -9   1   91.19    4.80
  -1   9  -2  113.39    4.90
  -1   9  -2  110.59    5.40
   1  -9   2  109.19    5.30
   1  -9   2  114.89    5.40
  -1   9  -2  116.89    5.50
  -1   9  -2  112.69    5.10
  -1   9  -3   79.59    4.70
   1  -9   3   89.69    4.80
   1  -9   3   81.09    4.50
   1  -9   3   85.59    4.20
  -1   9  -3   85.89    4.80
   1  -9   4  114.49    5.30
   1  -9   4  109.29    5.20
   1  -9   4  116.89    5.00
  -1   9  -4  107.79    5.20
  -1   9  -5    9.50    1.60
   1  -9   5    8.30    1.40
   1  -9   5    6.30    1.30
   1  -9   5    6.30    1.30
   1  -9   6  197.38    6.50
   1  -9   6  213.58    6.80
   1  -9   7   43.30    3.00
   1  -9   8    0.00    0.50
   1  -9   9   58.59    2.60
  -1   8   5    4.30    0.80
   1  -8  -5    3.60    0.90
   1  -8  -5    4.10    0.90
  -1   8   5    5.00    0.80
  -1   8   4    2.30    0.90
   1  -8  -4    1.00    0.70
  -1   8   4    0.50    0.70
   1  -8  -4    1.40    0.80
   1  -8  -3   97.59    4.80
  -1   8   3   96.19    4.80
  -1   8   3   94.39    4.80
  -1   8   3   93.29    4.50
   1  -8  -3   94.99    4.60
   1  -8  -3   93.79    4.70
  -1   8   2    2.60    1.10
   1  -8  -2    2.00    1.00
  -1   8   2    3.30    1.10
  -1   8   2    3.80    1.10
   1  -8  -2    1.30    0.80
   1  -8  -2    3.50    1.10
  -1   8   1  206.78    7.70
  -1   8   1  195.98    7.40
   1  -8  -1  215.08    7.50
   1  -8  -1  214.08    7.10
  -1   8   1  224.08    7.50
   1  -8  -1  224.28    7.20
   1  -8  -1  209.28    7.30
  -1   8   1  215.58    7.60
  -1   8   0  233.48    8.20
  -1   8   0  226.58    7.60
  -1   8   0  204.28    7.60
  -1   8   0  235.98    7.60
   1  -8   0  231.08    7.60
   1  -8   0  223.68    7.10
   1  -8   0  223.48    7.40
  -1   8   0  234.68    9.00
  -1   8   0  241.98    9.30
  -1   8   0  223.18    7.40
   1  -8   0  237.18    7.70
  -1   8  -1    1.20    0.80
  -1   8  -1    2.30    1.00
   1  -8   1    1.10    0.60
   1  -8   1   -0.30    0.40
   1  -8   1    1.00    1.00
  -1   8  -1    0.50    0.60
  -1   8  -1    1.00    0.70
   1  -8   1    1.70    0.70
   1  -8   2   44.00    3.10
   1  -8   2   44.50    3.40
   1  -8   2   47.10    4.10
   1  -8   2   44.60    3.90
  -1   8  -2   51.19    3.70
  -1   8  -2   45.70    4.10
   1  -8   2   41.70    3.20
  -1   8  -2   43.50    3.40
  -1   8  -3  261.67    9.70
  -1   8  -3  255.07    8.40
   1  -8   3  274.07    9.30
  -1   8  -3  255.37    8.20
   1  -8   3  279.57    8.20
   1  -8   3  252.77    9.40
   1  -8   3  261.07    8.00
   1  -8   3  261.97    7.40
   1  -8   3  281.67    7.80
  -1   8  -3  256.77    7.70
   1  -8   4   -1.50    0.70
  -1   8  -4   -0.50    1.10
   1  -8   4    2.20    0.80
   1  -8   4    0.80    0.80
  -1   8  -4    0.60    0.80
  -1   8  -4   -0.60    0.40
  -1   8  -4    0.70    0.70
   1  -8   4   -2.70    1.10
   1  -8   4   -1.80    1.00
  -1   8  -4    1.90    0.80
  -1   8  -5   24.80    2.60
  -1   8  -5   17.60    2.20
   1  -8   5   18.30    2.10
   1  -8   5   18.60    2.10
   1  -8   5   19.00    2.30
  -1   8  -5   18.50    2.60
  -1   8  -5   18.80    2.40
  -1   8  -5   17.40    2.60
   1  -8   6   34.00    2.90
  -1   8  -6   32.20    3.00
   1  -8   6   35.80    2.90
  -1   8  -6   29.70    2.80
   1  -8   7    0.00    0.70
   1  -8   8  218.18    6.50
   1  -8   8  212.88    6.50
   1  -8   9    6.20    1.20
   1  -8  10   31.70    1.90
   1  -7  -6   74.69    3.10
  -1   7   6   77.19    3.70
  -1   7   6   84.09    3.50
   1  -7  -6   81.09    3.70
   1  -7  -5    3.20    0.90
  -1   7   5    3.50    1.00
   1  -7  -5    1.90    0.90
  -1   7   5    2.10    1.00
  -1   7   5    3.20    1.10
  -1   7   4   60.19    4.10
  -1   7   4   54.19    3.70
   1  -7  -4   56.49    3.80
   1  -7  -4   59.39    4.00
   1  -7  -4   52.39    3.50
  -1   7   4   55.69    3.60
  -1   7   4   52.59    3.60
   1  -7  -3    1.10    0.80
   1  -7  -3    0.50    0.70
   1  -7  -3    1.50    0.70
  -1   7   3   -0.40    1.00
  -1   7   3    2.10    0.80
  -1   7   3    0.30    0.80
  -1   7   3    1.00    0.70
   1  -7  -2  101.99    5.10
  -1   7   2   99.79    5.70
   1  -7  -2  110.09    5.80
   1  -7  -2  103.09    5.20
  -1   7   2   99.39    5.20
  -1   7   2   91.29    5.00
  -1   7   2  103.89    5.10
   1  -7  -2   94.29    5.00
  -1   7   2  100.89    6.00
  -1   7   2   97.19    5.00
  -1   7   2   91.59    5.10
  -1   7   2  101.89    5.90
   1  -7  -2   92.69    4.80
  -1   7   1   12.80    1.90
  -1   7   1   16.30    2.10
   1  -7  -1   15.00    2.20
  -1   7   1   13.10    2.10
   1  -7  -1   13.30    2.20
   1  -7  -1   12.50    1.80
  -1   7   1   13.40    2.40
  -1   7   1   15.90    2.10
   1  -7  -1   14.90    2.00
  -1   7   1   13.20    2.00
  -1   7   1   18.00    2.50
  -1   7   0  164.88    7.40
   1  -7   0  185.08    7.40
  -1   7   0  167.48    7.20
   1  -7   0  175.88    6.20
   1  -7   0  180.18    7.60
   1  -7   1   17.60    2.40
  -1   7  -1   15.00    2.00
   1  -7   1   20.30    2.00
  -1   7  -1   20.70    2.70
   1  -7   1   20.40    2.50
   1  -7   2  264.87    9.10
   1  -7   2  269.57    8.50
  -1   7  -2  274.27    8.30
   1  -7   2  261.87    8.80
  -1   7  -2  255.27    9.00
  -1   7  -2  269.77    7.90
  -1   7  -2  277.47    7.40
  -1   7  -3   40.60    3.80
   1  -7   3   40.00    3.70
  -1   7  -3   41.20    3.00
  -1   7  -3   48.10    3.90
  -1   7  -3   44.40    3.20
   1  -7   3   47.00    3.70
  -1   7  -3   42.60    3.30
  -1   7  -4   77.19    5.10
   1  -7   4   80.89    4.80
  -1   7  -4   77.79    5.10
  -1   7  -4   81.29    4.30
  -1   7  -4   78.99    4.60
   1  -7   4   82.29    5.30
  -1   7  -4   75.59    4.20
  -1   7  -5   16.70    2.50
  -1   7  -5   14.10    1.90
  -1   7  -5   16.30    2.10
  -1   7  -5   18.50    2.50
   1  -7   5   16.70    2.50
   1  -7   5   19.20    2.40
  -1   7  -6   53.09    3.70
  -1   7  -6   54.39    3.90
  -1   7  -6   53.39    4.20
   1  -7   6   52.59    3.40
  -1   7  -6   60.69    4.60
   1  -7   6   54.79    4.40
   1  -7   6   57.09    3.50
   1  -7   7  196.48    6.60
  -1   7  -7  201.48    7.20
  -1   7  -7  202.68    8.20
   1  -7   7  188.08    6.40
   1  -7   8    3.10    1.00
   1  -7   8    3.00    1.10
   1  -7   8    2.30    0.90
   1  -7   8    1.80    0.80
   1  -7   9    0.10    0.70
   1  -7   9    0.60    0.70
   1  -7  10    1.20    0.70
   1  -7  11    5.40    1.10
   1  -6  -7   -0.10    0.80
  -1   6   7    0.80    0.60
  -1   6   7   -0.20    0.60
  -1   6   6   23.30    2.30
  -1   6   6   26.60    2.70
   1  -6  -6   24.30    2.20
   1  -6  -6   23.60    2.50
  -1   6   5   20.20    2.30
  -1   6   5   22.10    2.40
   1  -6  -5   24.20    2.40
  -1   6   5   16.60    2.10
   1  -6  -5   20.50    2.30
  -1   6   5   20.00    2.40
  -1   6   4  120.89    5.60
  -1   6   4  119.19    5.40
   1  -6  -4  119.69    5.50
   1  -6  -4  125.89    5.50
  -1   6   4  126.49    5.80
  -1   6   4  119.79    5.50
   1  -6  -4  121.09    5.50
   1  -6  -3   28.50    2.70
  -1   6   3   30.80    3.10
   1  -6  -3   34.10    3.20
   1  -6  -3   29.90    2.70
  -1   6   3   32.20    3.30
  -1   6   3   24.80    3.00
  -1   6   3   30.40    2.80
  -1   6   2    2.20    0.90
  -1   6   2    4.20    1.20
   1  -6  -2    3.00    1.10
   1  -6  -2    1.90    0.80
  -1   6   2    1.90    0.90
  -1   6   2    3.30    1.20
   1  -6  -2    3.20    1.00
  -1   6   2    2.60    1.20
  -1   6   1  371.16   10.40
   1  -6  -1  373.86    8.60
  -1   6   1  391.76    9.90
  -1   6   1  377.36   10.30
   1  -6  -1  415.86   10.40
  -1   6   1  379.96   10.50
  -1   6   1  383.06    9.40
   1  -6  -1  383.36    9.00
   1  -6   0   49.99    3.10
  -1   6   0   49.60    3.70
   1  -6   0   54.09    3.70
  -1   6   0   52.59    3.40
  -1   6  -1 1041.80   14.40
   1  -6   1 1132.49   13.50
  -1   6  -1 1060.99   16.60
  -1   6  -1 1056.79   14.80
   1  -6   1 1105.89   16.90
   1  -6   1 1150.68   16.10
  -1   6  -1 1088.29   12.90
   1  -6   2    9.30    1.70
   1  -6   2    9.60    1.30
  -1   6  -2    8.30    1.60
  -1   6  -2   10.30    1.60
  -1   6  -2   10.30    1.50
   1  -6   2   10.60    1.60
  -1   6  -2    9.50    1.80
  -1   6  -2   10.00    1.40
  -1   6  -3  142.79    6.30
  -1   6  -3  134.99    6.00
   1  -6   3  131.69    6.10
  -1   6  -3  146.69    5.50
   1  -6   3  144.69    5.90
  -1   6  -3  138.39    5.10
  -1   6  -3  138.49    5.00
  -1   6  -4    1.90    1.00
   1  -6   4    3.10    1.00
  -1   6  -4    3.80    1.10
  -1   6  -4    2.50    0.90
   1  -6   4    2.40    1.10
  -1   6  -4    1.60    0.80
  -1   6  -4    4.00    1.00
  -1   6  -5   44.10    3.70
   1  -6   5   42.80    3.80
   1  -6   5   46.10    3.40
  -1   6  -5   49.50    3.60
  -1   6  -5   44.10    3.60
  -1   6  -5   45.10    3.30
  -1   6  -5   44.30    3.20
  -1   6  -6    6.80    1.40
  -1   6  -6    6.20    1.60
   1  -6   6    6.70    1.70
  -1   6  -6    6.70    1.40
  -1   6  -6    5.90    1.30
  -1   6  -6    4.90    1.30
   1  -6   7   60.49    3.70
   1  -6   7   60.39    4.70
  -1   6  -7   62.69    4.50
   1  -6   7   61.19    3.50
   1  -6   7   60.29    4.20
  -1   6  -7   61.49    3.90
   1  -6   7   60.19    3.50
   1  -6   8   12.40    1.80
  -1   6  -8   14.00    2.00
   1  -6   8   12.40    1.90
   1  -6   8   11.90    1.70
   1  -6   9   81.89    4.40
   1  -6   9   85.19    4.20
   1  -6   9   90.39    4.90
   1  -6  10   62.49    3.40
   1  -6  11   17.50    1.60
  -1   5   8   11.10    1.60
  -1   5   8   13.00    1.50
   1  -5  -8   14.40    1.60
  -1   5   7   79.09    4.20
  -1   5   7   77.39    4.50
  -1   5   6  102.29    5.30
  -1   5   6   98.49    5.10
  -1   5   6   93.89    4.80
  -1   5   5    0.50    1.10
  -1   5   5    2.90    0.80
   1  -5  -5    2.60    1.00
   1  -5  -5    2.30    0.80
  -1   5   5    4.30    1.10
  -1   5   5    2.80    1.00
   1  -5  -5    2.50    1.00
  -1   5   5    2.70    0.80
  -1   5   5    2.30    0.90
   1  -5  -4    7.70    1.50
  -1   5   4    4.60    1.40
   1  -5  -4    5.40    1.20
  -1   5   4    6.30    1.60
   1  -5  -4    7.60    1.50
   1  -5  -3    0.70    0.60
  -1   5   3    0.30    0.80
   1  -5  -3    0.10    0.60
  -1   5   3    0.30    0.60
  -1   5   3   -0.20    0.80
   1  -5  -3   -0.50    0.50
  -1   5   3    0.50    0.80
  -1   5   3    0.30    0.70
  -1   5   2    4.60    1.10
  -1   5   2    6.90    1.50
  -1   5   2    4.40    1.20
   1  -5  -2    6.00    1.20
   1  -5  -2    7.60    1.40
  -1   5   2    6.00    1.40
  -1   5   2    7.30    1.40
   1  -5  -2    5.40    1.20
  -1   5   2    7.10    1.30
   1  -5  -1  368.36    7.90
   1  -5  -1  389.96    8.90
  -1   5   1  369.86    8.70
   1  -5  -1  366.56    7.60
  -1   5   1  396.66    7.70
  -1   5   1  360.76    8.80
   1  -5   0    2.00    0.70
  -1   5   0    2.40    0.80
   1  -5   0    4.70    0.90
  -1   5   0    1.80    0.80
   1  -5   0    2.20    0.80
  -1   5   0    2.40    0.70
  -1   5   0    2.10    0.80
   1  -5   1    2.00    0.80
  -1   5  -1    4.10    0.90
  -1   5  -1    2.60    0.80
   1  -5   1    2.40    0.70
  -1   5  -1    2.70    1.00
  -1   5  -1    4.30    0.90
  -1   5  -1    2.00    0.80
   1  -5   1    3.30    0.90
   1  -5   2  220.28    6.80
   1  -5   2  227.48    6.00
  -1   5  -2  222.28    6.00
  -1   5  -2  223.08    6.90
  -1   5  -2  219.68    5.70
  -1   5  -2  224.88    6.80
  -1   5  -2  221.18    5.50
   1  -5   2  232.48    5.10
  -1   5  -3    1.70    0.60
   1  -5   3    0.30    0.90
  -1   5  -3    1.40    0.60
   1  -5   3    0.90    0.50
  -1   5  -3    1.80    0.70
   1  -5   3    0.70    0.70
  -1   5  -3    2.30    0.90
  -1   5  -3    1.10    0.80
  -1   5  -3    2.20    0.80
   1  -5   4  469.65   10.90
  -1   5  -4  469.35   10.30
  -1   5  -4  455.35    9.00
   1  -5   4  486.35    9.90
   1  -5   4  496.15    9.60
  -1   5  -4  461.65   10.40
  -1   5  -4  483.65    9.70
  -1   5  -4  481.15    8.60
  -1   5  -5  170.18    6.60
   1  -5   5  171.68    7.00
  -1   5  -5  173.78    5.80
   1  -5   5  173.98    6.20
  -1   5  -5  169.18    6.20
  -1   5  -5  172.88    6.60
   1  -5   5  169.18    6.00
  -1   5  -6   89.99    4.40
  -1   5  -6   95.89    5.00
  -1   5  -6   94.39    5.10
   1  -5   6   89.09    4.80
   1  -5   6   88.99    5.40
  -1   5  -6   88.59    5.00
   1  -5   7    7.10    1.70
   1  -5   7    8.00    1.60
  -1   5  -7    5.60    1.50
   1  -5   8  160.98    5.90
   1  -5   8  162.78    6.90
   1  -5   8  166.58    6.30
  -1   5  -8  167.18    6.30
   1  -5   8  167.88    7.20
   1  -5   9    1.40    0.90
   1  -5   9    1.50    0.80
   1  -5   9   -1.00    1.40
   1  -5   9    2.30    0.90
   1  -5  10   13.20    1.70
   1  -5  10   13.20    1.80
   1  -5  11    5.30    1.10
  -1   4   9    0.50    0.70
  -1   4   9    0.00    0.60
  -1   4   8   58.19    3.60
  -1   4   8   55.39    3.70
  -1   4   7    8.20    1.50
  -1   4   7   10.50    1.70
  -1   4   6   55.89    3.70
   1  -4  -6   57.19    3.80
  -1   4   6   56.49    3.90
   1  -4  -6   60.49    3.70
   1  -4  -6   50.29    4.10
   1  -4  -6   58.19    4.00
  -1   4   6   53.59    4.40
  -1   4   6   60.19    4.60
  -1   4   6   56.39    3.70
  -1   4   5   46.70    3.40
   1  -4  -5   46.10    3.70
   1  -4  -5   47.20    3.30
   1  -4  -5   49.50    3.60
  -1   4   5   42.30    3.80
   1  -4  -5   48.50    3.30
   1  -4  -5   47.50    3.80
  -1   4   5   45.50    3.80
  -1   4   4    1.70    0.90
   1  -4  -4    1.50    0.90
  -1   4   4    2.20    0.90
  -1   4   4    0.00    0.80
   1  -4  -4    0.50    0.70
   1  -4  -4   -0.10    0.60
   1  -4  -4    2.80    1.10
   1  -4  -4    0.70    0.60
   1  -4  -3  175.58    6.00
  -1   4   3  173.78    5.50
   1  -4  -3  173.98    6.10
   1  -4  -3  174.28    5.40
  -1   4   3  182.28    5.60
   1  -4  -3  178.18    5.50
  -1   4   3  174.98    6.60
   1  -4  -3  186.78    6.20
  -1   4   3  187.58    6.50
  -1   4   3  181.58    6.50
   1  -4  -2  225.18    5.70
  -1   4   2  220.98    6.60
   1  -4  -2  233.68    6.20
  -1   4   2  228.88    6.30
   1  -4  -2  233.08    5.60
  -1   4   2  225.58    6.60
   1  -4  -2  216.98    5.60
  -1   4   2  226.28    5.60
   1  -4  -2  231.08    6.40
   1  -4  -2  241.28    6.20
  -1   4   2  230.78    5.90
   1  -4  -1  221.98    5.80
   1  -4  -1  213.28    5.20
  -1   4   1  210.48    5.30
  -1   4   1  215.18    4.90
  -1   4   1  205.88    5.70
  -1   4   1  204.18    5.70
   1  -4  -1  222.48    5.30
   1  -4  -1  207.88    5.00
  -1   4   1  207.98    5.20
   1  -4  -1  219.38    4.60
  -1   4   0   86.59    3.60
  -1   4   0   86.29    3.20
   1  -4   0   86.59    2.90
   1  -4   0   84.29    3.10
  -1   4   0   85.59    3.30
   1  -4   0   86.69    3.40
  -1   4   0   92.89    2.80
   1  -4   0   93.69    3.40
  -1   4   0   91.39    3.30
  -1   4  -1  219.98    4.50
  -1   4  -1  207.68    5.50
   1  -4   1  223.98    5.80
   1  -4   1  214.48    5.10
   1  -4   1  224.78    6.10
   1  -4   1  209.78    4.20
   1  -4   1  226.18    5.20
  -1   4  -1  210.98    5.00
  -1   4  -1  215.38    5.90
  -1   4  -1  213.88    4.90
   1  -4   2  284.97    6.10
  -1   4  -2  278.57    5.60
   1  -4   2  285.77    6.80
  -1   4  -2  285.87    5.90
  -1   4  -2  270.77    6.40
  -1   4  -2  273.07    6.60
   1  -4   2  286.97    5.70
  -1   4  -2  282.57    5.80
   1  -4   3  167.78    5.60
   1  -4   3  173.38    5.00
  -1   4  -3  169.38    4.70
  -1   4  -3  169.38    5.00
  -1   4  -3  180.38    5.50
  -1   4  -3  171.18    4.50
   1  -4   3  177.18    5.10
  -1   4  -3  173.28    5.50
   1  -4   4  158.58    5.10
  -1   4  -4  151.78    4.40
  -1   4  -4  155.28    5.40
  -1   4  -4  149.39    5.30
   1  -4   4  162.18    6.00
   1  -4   4  154.68    5.20
   1  -4   5  114.79    5.50
  -1   4  -5  127.89    6.80
   1  -4   5  121.39    5.00
  -1   4  -5  120.09    5.10
   1  -4   5  122.39    4.20
  -1   4  -5  115.89    4.70
  -1   4  -5  118.69    5.00
   1  -4   5  113.79    4.60
  -1   4  -6  309.57    8.80
  -1   4  -6  333.87    9.00
   1  -4   6  334.77   10.00
   1  -4   6  315.57    8.80
  -1   4  -6  321.07    8.70
   1  -4   6  315.07    7.60
  -1   4  -7  345.47    9.90
   1  -4   7  325.17    8.40
   1  -4   7  326.47    9.70
   1  -4   8  146.89    6.80
   1  -4   8  144.49    6.20
   1  -4   8  164.48    6.80
   1  -4   8  149.88    6.20
   1  -4   8  159.68    6.10
   1  -4   8  163.78    6.30
   1  -4   8  158.08    6.60
   1  -4   8  151.98    5.70
   1  -4   9   11.80    1.70
   1  -4   9   12.00    1.80
   1  -4   9   11.70    1.90
   1  -4  10    8.20    1.40
   1  -4  10    5.50    1.30
   1  -4  11  109.09    3.90
  -1   3  10   38.70    2.30
  -1   3  10   39.00    2.40
  -1   3   9   15.10    1.80
  -1   3   9   14.20    1.80
  -1   3   8   24.90    2.50
  -1   3   8   23.00    2.60
  -1   3   8   21.00    2.30
  -1   3   7   30.60    3.00
  -1   3   7   35.60    3.00
   1  -3  -7   36.20    3.00
  -1   3   7   34.70    3.10
  -1   3   7   36.80    3.60
   1  -3  -7   33.90    3.40
  -1   3   7   33.60    3.00
   1  -3  -7   36.50    3.50
  -1   3   7   37.60    3.80
   1  -3  -7   36.00    2.90
   1  -3  -6  255.07    7.50
   1  -3  -6  244.18    8.80
  -1   3   6  244.98    8.70
   1  -3  -6  256.37    9.10
   1  -3  -6  253.37    7.40
   1  -3  -6  250.07    7.80
  -1   3   6  249.78    7.70
  -1   3   6  254.17    9.20
   1  -3  -5   12.20    1.60
  -1   3   5   10.60    1.60
   1  -3  -5    9.80    1.40
   1  -3  -5   13.50    1.80
   1  -3  -5   14.10    1.80
  -1   3   5    9.70    1.80
   1  -3  -5   13.00    2.00
   1  -3  -5   11.70    1.80
  -1   3   5    8.90    1.70
   1  -3  -4  263.37    6.60
  -1   3   4  260.77    7.60
   1  -3  -4  268.07    7.60
  -1   3   4  256.47    6.60
   1  -3  -4  253.97    7.40
  -1   3   4  242.78    7.60
   1  -3  -4  263.17    6.50
   1  -3  -4  260.57    7.00
   1  -3  -4  260.87    6.50
   1  -3  -3  417.06    8.10
  -1   3   3  420.66    7.30
   1  -3  -3  424.96    7.30
  -1   3   3  410.76    7.40
  -1   3   3  416.26    8.50
  -1   3   3  396.16    8.70
   1  -3  -3  416.16    7.40
   1  -3  -3  421.76    8.30
   1  -3  -3  418.06    7.50
  -1   3   3  411.06    8.60
   1  -3  -3  414.86    8.40
   1  -3  -2  247.28    5.20
  -1   3   2  250.97    5.50
  -1   3   2  244.98    6.00
   1  -3  -2  241.68    5.00
   1  -3  -2  243.78    5.10
  -1   3   2  237.38    5.90
   1  -3  -2  245.68    5.70
  -1   3   2  238.08    5.00
   1  -3  -2  241.48    5.60
   1  -3  -2  253.07    5.70
  -1   3   1  220.48    4.50
  -1   3   1  226.78    4.90
   1  -3  -1  215.78    5.10
   1  -3  -1  233.38    4.70
   1  -3  -1  231.88    5.00
  -1   3   1  226.98    5.10
  -1   3   1  228.58    4.90
   1  -3  -1  230.28    4.60
  -1   3   0  718.63    7.90
   1  -3   0  690.03    9.00
   1  -3   0  720.03    8.00
  -1   3   0  723.83   10.50
  -1   3   0  680.43    8.70
   1  -3   0  734.73    8.10
  -1   3   0  692.23   11.70
  -1   3   0  710.63    8.50
   1  -3   0  741.43    6.70
   1  -3   0  723.93   10.40
   1  -3   1  123.09    3.70
  -1   3  -1  114.99    3.50
   1  -3   1  119.29    3.30
   1  -3   1  113.79    3.40
  -1   3  -1  119.49    3.60
   1  -3   1  111.39    3.00
  -1   3  -1  120.29    3.20
  -1   3  -1  114.99    3.60
   1  -3   2  461.75    7.70
  -1   3  -2  468.35    6.90
   1  -3   2  466.95    6.70
  -1   3  -2  472.05    7.30
  -1   3  -2  482.55    7.50
   1  -3   2  482.55    6.90
   1  -3   2  466.55    7.20
  -1   3  -3    1.70    0.50
  -1   3  -3    2.70    0.70
   1  -3   3    1.20    0.70
   1  -3   3    1.90    0.70
   1  -3   3    1.80    0.70
  -1   3  -3    1.30    0.90
  -1   3  -3    3.00    0.60
   1  -3   4   44.50    2.70
   1  -3   4   41.40    2.20
   1  -3   4   47.50    3.10
   1  -3   4   47.00    2.50
   1  -3   4   46.50    2.60
  -1   3  -4   46.80    3.60
  -1   3  -4   49.99    2.60
  -1   3  -4   46.50    2.90
  -1   3  -4   47.60    2.50
   1  -3   5  575.34   10.70
  -1   3  -5  629.54   14.90
   1  -3   5  595.64    9.70
  -1   3  -5  579.14    9.80
  -1   3  -5  593.64   10.00
   1  -3   5  560.44    9.00
   1  -3   5  616.84   12.20
  -1   3  -5  621.74   11.70
   1  -3   6   83.39    3.90
  -1   3  -6   85.39    4.30
  -1   3  -6   90.69    4.90
   1  -3   6   77.79    4.40
  -1   3  -6   82.09    4.20
  -1   3  -7   58.39    4.00
  -1   3  -7   53.69    3.80
   1  -3   7   57.09    3.60
   1  -3   7   59.09    4.20
   1  -3   8  476.25   10.80
   1  -3   8  455.85   12.10
   1  -3   8  483.15   10.00
   1  -3   8  485.35   10.90
   1  -3   8  441.56   10.90
   1  -3   8  483.05   11.80
   1  -3   8  468.55   10.30
   1  -3   9   56.99    3.80
   1  -3   9   55.89    3.50
   1  -3   9   54.19    4.00
   1  -3   9   54.39    3.80
   1  -3  10    0.60    0.80
   1  -3  10    1.50    0.70
   1  -3  11    0.20    0.60
  -1   2  10  155.28    5.50
  -1   2  10  156.68    5.40
  -1   2   9   59.19    3.80
  -1   2   9   56.39    4.10
  -1   2   8   54.29    4.00
   1  -2  -8   56.49    3.70
  -1   2   8   52.79    3.70
   1  -2  -8   52.29    3.40
  -1   2   8   56.89    3.70
   1  -2  -7    5.10    1.40
   1  -2  -7    6.20    1.30
   1  -2  -7    4.50    1.30
  -1   2   7    4.20    1.10
  -1   2   6   60.69    3.60
  -1   2   6   62.49    4.20
   1  -2  -6   61.29    4.20
   1  -2  -6   66.69    3.80
   1  -2  -6   66.09    4.40
   1  -2  -6   62.69    3.90
   1  -2  -6   62.79    3.50
  -1   2   6   66.89    4.20
   1  -2  -5  716.23   11.40
  -1   2   5  684.23   12.60
   1  -2  -5  717.83   11.80
  -1   2   5  706.93   12.30
   1  -2  -5  717.13   10.80
  -1   2   5  708.23   10.80
  -1   2   5  757.62   10.80
   1  -2  -5  686.73   12.40
   1  -2  -5  676.23   12.50
   1  -2  -4  919.01   11.70
   1  -2  -4  938.61   13.00
   1  -2  -4  926.01    9.80
  -1   2   4  948.51   11.30
   1  -2  -4  945.21   11.20
  -1   2   4  909.21   12.90
  -1   2   4  951.50   10.60
   1  -2  -4  938.71   12.80
  -1   2   4  957.10   12.90
   1  -2  -4  921.81   11.90
   1  -2  -3  471.15    6.40
   1  -2  -3  470.85    7.50
  -1   2   3  477.35    8.00
   1  -2  -3  472.95    7.20
   1  -2  -3  457.05    7.90
  -1   2   3  457.95    8.00
  -1   2   3  467.25    7.00
   1  -2  -3  470.45    7.00
   1  -2  -3  456.55    9.30
  -1   2   3  460.25    8.10
  -1   2   3  469.95    9.80
   1  -2  -3  457.15    8.00
  -1   2   2  172.38    5.30
   1  -2  -2  172.98    3.70
   1  -2  -2  175.18    3.70
   1  -2  -2  172.68    4.10
   1  -2  -2  176.28    5.50
  -1   2   2  175.98    4.40
   1  -2  -2  172.98    4.80
  -1   2   2  170.78    4.30
   1  -2  -2  179.98    5.20
  -1   2   2  170.28    4.30
  -1   2   2  176.78    5.50
   1  -2  -2  182.58    4.30
   1  -2  -2  170.78    4.20
  -1   2   1  834.92   10.60
  -1   2   1  806.62    6.10
   1  -2  -1  852.91    8.40
   1  -2  -1  831.42   10.60
   1  -2  -1  835.42    9.80
  -1   2   1  833.92   10.60
   1  -2   0  998.50    9.90
   1  -2   0  942.51    8.70
   1  -2   0  959.30    5.50
  -1   2   0  973.30    9.90
  -1   2   0  975.60    5.80
  -1   2   0  975.10    8.70
   1  -2   1  403.86    4.00
  -1   2  -1  404.36    5.40
  -1   2  -1  417.86    3.70
  -1   2  -2  353.46    4.60
  -1   2  -2  355.16    4.20
   1  -2   2  367.56    5.90
  -1   2  -2  358.76    4.70
  -1   2  -2  348.87    5.90
   1  -2   2  369.36    6.30
  -1   2  -2  336.67    7.30
  -1   2  -2  358.76    7.20
   1  -2   2  366.06    5.20
  -1   2  -2  358.76    4.30
   1  -2   3   43.00    2.30
   1  -2   3   44.70    2.60
   1  -2   3   40.30    2.30
  -1   2  -3   43.20    2.90
  -1   2  -3   42.10    3.00
  -1   2  -3   42.00    2.10
   1  -2   3   43.70    2.00
  -1   2  -3   51.59    2.70
   1  -2   3   44.40    2.00
  -1   2  -4   26.50    2.60
  -1   2  -4   29.90    2.30
  -1   2  -4   31.20    3.00
   1  -2   4   30.30    1.90
   1  -2   4   27.20    1.90
   1  -2   4   34.00    2.60
   1  -2   4   30.30    2.20
   1  -2   5   13.00    1.60
  -1   2  -5   15.40    1.70
  -1   2  -5   13.00    2.20
   1  -2   5   14.50    1.50
  -1   2  -5   16.80    2.00
   1  -2   5   12.20    1.50
   1  -2   5   16.40    1.90
   1  -2   6  317.67    8.80
  -1   2  -6  351.86    9.70
  -1   2  -6  334.37    8.60
  -1   2  -6  340.97   10.10
   1  -2   6  328.37    7.80
  -1   2  -7    9.30    1.60
  -1   2  -7    8.40    1.50
   1  -2   7    6.80    1.50
   1  -2   7    8.50    1.50
   1  -2   8  307.67    8.70
   1  -2   8  312.87    9.30
   1  -2   8  313.07    7.90
   1  -2   8  316.37    9.00
   1  -2   8  309.87    8.70
   1  -2   8  311.57    9.10
   1  -2   9  120.49    4.90
   1  -2   9  107.89    5.50
   1  -2   9  109.99    5.70
   1  -2   9  119.19    5.40
   1  -2  10    1.20    0.70
   1  -2  10    3.70    1.20
   1  -2  11    2.10    0.90
  -1   1  11   20.10    1.80
  -1   1  10   -1.70    0.80
  -1   1  10   -0.50    1.20
  -1   1   9   48.50    3.70
  -1   1   9   51.19    4.00
  -1   1   8  211.58    7.00
   1  -1  -8  214.48    6.90
   1  -1  -8  228.58    8.70
  -1   1   8  228.68    7.50
  -1   1   8  225.48    7.90
   1  -1  -8  228.88    8.60
   1  -1  -7   72.49    4.60
   1  -1  -7   76.99    4.80
  -1   1   7   76.09    4.00
   1  -1  -7   72.49    4.50
  -1   1   7   80.29    4.20
  -1   1   7   69.99    4.50
   1  -1  -7   78.89    4.10
   1  -1  -6  634.24   11.70
   1  -1  -6  617.04   11.80
  -1   1   6  641.24   10.40
   1  -1  -6  662.23   11.00
  -1   1   6  610.54   10.40
   1  -1  -6  600.34   10.30
  -1   1   6  633.14   12.20
  -1   1   6  656.73   11.60
   1  -1  -6  629.94   12.40
   1  -1  -6  609.14   12.00
  -1   1   6  654.33   12.40
   1  -1  -5    1.60    0.50
  -1   1   5    1.80    0.80
   1  -1  -5    0.90    0.80
   1  -1  -5    1.30    0.60
   1  -1  -5    2.20    0.70
   1  -1  -5    2.00    0.80
  -1   1   5    1.20    0.60
   1  -1  -5    1.80    0.80
  -1   1   5    0.30    0.50
  -1   1   5    0.70    0.60
  -1   1   5    0.30    0.70
  -1   1   4  417.16    6.70
   1  -1  -4  421.96    7.90
  -1   1   4  436.86    7.60
   1  -1  -4  406.26    7.00
  -1   1   4  412.26    7.60
   1  -1  -4  418.56    7.80
  -1   1   4  410.36    7.80
   1  -1  -4  423.76    7.50
   1  -1  -4  425.16    6.40
   1  -1  -4  401.56    7.40
   1  -1  -4  450.45    8.60
  -1   1   4  413.96    6.40
   1  -1  -3   88.39    3.20
   1  -1  -3   85.09    3.10
  -1   1   3   93.29    3.20
   1  -1  -3   84.19    2.40
  -1   1   3   90.09    3.00
   1  -1  -3   89.59    3.80
  -1   1   3   89.69    3.80
   1  -1  -3   88.99    3.30
  -1   1   3   89.99    3.50
   1  -1  -3   86.69    3.00
   1  -1  -3   86.79    2.90
   1  -1  -3   87.39    2.90
  -1   1   3   90.39    3.20
  -1   1   3   81.29    2.90
   1  -1  -3   84.89    3.70
   1  -1  -3   87.29    3.70
  -1   1   2 1584.44   12.00
  -1   1   2 1615.44   13.90
  -1   1   2 1560.24   13.00
   1  -1  -2 1647.34   14.10
   1  -1  -2 1666.13   11.90
   1  -1  -2 1641.54   13.50
  -1   1   1  657.53    6.40
   1  -1  -1  676.53    5.00
   1  -1  -1  661.83    6.40
  -1   1   1  678.43    6.80
  -1   1   0   17.80    1.10
  -1   1   0   17.10    1.10
  -1   1   0   18.60    1.00
   1  -1   0   18.30    1.00
   1  -1   0   17.80    1.10
   1  -1   1 5132.09   12.70
  -1   1  -1 5198.08   16.70
  -1   1  -2 1288.57   10.10
  -1   1  -2 1280.37   14.50
  -1   1  -2 1330.27   12.90
  -1   1  -2 1310.77   12.70
  -1   1  -2 1353.46   11.10
   1  -1   2 1318.57    7.40
  -1   1  -3    8.70    1.30
  -1   1  -3    7.50    1.60
   1  -1   3    7.90    1.20
   1  -1   3    9.20    1.30
   1  -1   3    6.70    0.70
  -1   1  -3    7.30    1.20
  -1   1  -3    7.80    1.40
   1  -1   3    9.40    0.90
  -1   1  -3    7.00    0.80
  -1   1  -3    7.00    1.10
   1  -1   3    7.80    1.00
   1  -1   4  281.47    5.70
  -1   1  -4  292.57    8.00
  -1   1  -4  300.27    7.80
   1  -1   4  285.17    5.60
  -1   1  -4  300.37    9.00
   1  -1   4  288.37    6.60
   1  -1   4  285.97    7.10
   1  -1   5  304.57    8.20
  -1   1  -5  301.67   10.30
  -1   1  -5  304.47    8.20
   1  -1   5  289.77    6.80
   1  -1   5  303.57    6.70
   1  -1   5  284.37    7.50
  -1   1  -5  308.57    8.90
  -1   1  -6  154.48    6.50
   1  -1   6  146.69    6.00
  -1   1  -6  149.79    6.90
   1  -1   6  157.38    5.60
   1  -1   6  163.48    6.70
   1  -1   7   33.10    3.20
  -1   1  -7   34.40    3.20
   1  -1   7   28.60    2.70
   1  -1   8  101.39    5.00
   1  -1   8  103.19    5.20
   1  -1   8  115.99    5.80
   1  -1   8  110.59    5.60
  -1   1  -8  114.69    6.10
  -1   1  -8   94.29    5.70
   1  -1   9   -0.30    0.90
   1  -1   9    0.30    0.80
   1  -1   9    0.30    0.70
   1  -1  10   43.60    3.30
   1  -1  10   40.50    3.10
   1  -1  11    4.60    0.90
  -1   0  11    1.90    0.90
  -1   0  10    2.20    1.00
  -1   0  10    1.80    1.00
  -1   0  10    0.80    0.80
  -1   0  10    2.40    1.20
  -1   0   9  136.39    6.30
  -1   0   9  138.79    6.00
  -1   0   9  143.49    6.40
  -1   0   9  144.19    6.10
   1   0  -9  138.49    5.60
  -1   0   9  138.49    6.10
   1   0  -8  128.89    6.40
   1   0  -8  131.29    6.30
  -1   0   8  128.09    6.30
   1   0  -8  134.19    5.50
  -1   0   8  118.49    5.40
   1   0  -7  249.08    8.10
  -1   0   7  229.68    6.90
   1   0  -7  247.68    7.90
  -1   0   7  246.68    8.00
   1   0  -7  235.78    7.80
   1   0  -7  238.38    7.50
  -1   0   6    2.90    1.00
   1   0  -6    2.50    0.90
   1   0  -6    3.30    1.00
   1   0  -6    3.10    1.00
  -1   0   6    2.00    0.80
   1   0  -6    2.10    0.80
   1   0  -6    2.20    0.70
   1   0  -6    1.70    0.60
  -1   0   6    2.00    0.60
   1   0  -6    0.50    1.00
  -1   0   5   59.19    3.00
   1   0  -5   57.69    3.10
  -1   0   5   52.59    2.70
  -1   0   5   63.49    2.70
  -1   0   5   64.09    3.30
   1   0  -5   60.69    3.10
  -1   0   5   64.09    2.90
   1   0  -5   60.29    3.20
   1   0  -5   60.69    3.30
   1   0  -5   56.89    2.40
   1   0  -4  424.36    7.80
   1   0  -4  384.56    6.00
   1   0  -4  425.26    8.10
   1   0  -4  411.96    7.20
   1   0  -4  410.76    6.90
  -1   0   4  412.36    6.50
   1   0  -4  415.56    7.00
   1   0  -4  412.36    6.10
  -1   0   4  418.96    7.30
   1   0  -4  416.16    7.10
  -1   0   4  402.66    6.00
  -1   0   4  415.06    7.70
  -1   0   4  406.46    6.20
  -1   0   3   51.69    2.70
   1   0  -3   49.50    2.10
   1   0  -3   50.39    2.10
   1   0  -3   51.19    2.10
   1   0  -3   48.90    2.00
  -1   0   3   55.19    2.00
  -1   0   3   53.19    2.20
   1   0  -3   52.79    2.70
   1   0  -3   49.40    1.80
   1   0  -3   50.79    2.40
   1   0  -3   51.29    2.50
  -1   0   3   46.80    2.30
  -1   0   2  311.17    2.60
   1   0  -2  309.17    3.40
  -1   0   2  302.77    5.20
  -1   0   2  307.47    4.80
   1   0  -2  305.07    3.70
   1   0  -2  306.77    4.80
  -1   0   1    8.90    0.50
  -1   0   1    7.90    0.80
   1   0  -1    9.60    0.80
   1   0   0  215.68    4.00
  -1   0   0  207.48    2.80
   1   0   0  213.98    4.10
  -1   0  -1  557.74    4.90
  -1   0  -1  572.14    6.10
   1   0   1  545.65    8.50
  -1   0  -1  533.45    7.10
  -1   0  -1  555.34    6.00
   1   0   1  538.25    6.90
  -1   0  -1  563.54    7.30
   1   0   1  522.65    5.90
  -1   0  -2  381.06    6.80
  -1   0  -2  384.66    6.90
  -1   0  -2  386.66    6.30
  -1   0  -2  392.06    6.50
  -1   0  -2  394.96    5.90
  -1   0  -2  366.76    8.30
   1   0   2  379.46    6.40
  -1   0  -2  390.96    7.90
   1   0   2  401.76    8.70
  -1   0  -2  381.66    6.80
   1   0   2  379.16    6.40
  -1   0  -3   63.39    3.00
   1   0   3   62.09    2.70
  -1   0  -3   62.69    2.60
  -1   0  -3   60.79    3.30
  -1   0  -3   58.19    3.00
  -1   0  -3   62.89    3.20
   1   0   3   60.19    2.40
   1   0   3   66.59    2.50
  -1   0  -3   56.39    3.00
  -1   0  -3   62.19    2.80
   1   0   3   66.19    2.60
   1   0   3   60.49    3.10
   1   0   3   61.99    2.60
  -1   0  -3   61.19    3.70
   1   0   3   60.89    2.90
   1   0   4 1034.10   12.60
   1   0   4 1037.70   11.50
  -1   0  -4 1022.20   11.90
  -1   0  -4 1108.99   15.50
  -1   0  -4 1049.99   17.60
  -1   0  -4 1057.09   15.30
  -1   0  -4 1025.70   13.90
   1   0   4 1047.90   11.90
   1   0   4 1010.60   14.10
   1   0   4 1097.89   12.50
  -1   0  -5  303.27    8.40
   1   0   5  297.97    7.10
  -1   0  -5  275.87    8.60
   1   0   5  286.47    7.70
   1   0   5  294.17    7.20
   1   0   5  296.67    8.60
  -1   0  -5  298.57   10.50
  -1   0  -6   11.30    2.00
   1   0   6   11.70    2.00
  -1   0  -6   11.70    1.80
  -1   0  -6   11.30    1.90
  -1   0  -7   20.30    2.70
   1   0   7   18.90    2.60
   1   0   8   16.30    2.20
  -1   0  -8   18.20    2.40
   1   0   8   16.90    2.40
   1   0   8   15.70    2.20
  -1   0  -8   17.10    2.30
   1   0   8   17.50    2.10
   1   0   9  234.28    7.80
   1   0   9  230.88    8.10
   1   0   9  246.58    7.30
   1   0  10   66.79    3.60
   1   0  10   68.59    3.80
  -1  -1  12   53.19    2.70
  -1  -1  11   15.90    2.00
  -1  -1  10   40.70    3.30
  -1  -1  10   42.20    3.40
  -1  -1  10   38.90    3.50
  -1  -1  10   41.70    3.50
  -1  -1   9    3.00    1.20
   1   1  -9    6.30    1.40
  -1  -1   9    3.40    1.00
  -1  -1   9    5.10    1.30
  -1  -1   9    4.50    1.30
  -1  -1   9    2.10    1.00
  -1  -1   9    1.80    0.90
  -1  -1   8 1188.88   16.60
  -1  -1   8 1223.58   18.80
   1   1  -8 1227.98   18.50
   1   1  -8 1210.48   17.70
   1   1  -7   19.80    2.20
  -1  -1   7   15.20    1.80
  -1  -1   7   19.80    2.30
   1   1  -7   17.90    2.10
   1   1  -7   18.20    2.10
   1   1  -7   19.10    2.10
   1   1  -6  349.27    8.10
   1   1  -6  324.57    8.50
   1   1  -6  351.96    7.90
   1   1  -6  351.96    8.00
  -1  -1   6  354.56    8.50
  -1  -1   6  344.97    7.20
   1   1  -6  348.97    7.80
  -1  -1   5  673.93    7.80
   1   1  -5  676.23   10.00
   1   1  -5  701.43    9.50
  -1  -1   5  695.23   10.60
   1   1  -5  667.83   10.60
  -1  -1   5  686.83    8.90
   1   1  -5  680.13    9.50
   1   1  -5  677.33    9.70
  -1  -1   4   55.69    2.40
  -1  -1   4   58.99    2.30
   1   1  -4   57.79    2.50
   1   1  -4   60.09    2.30
  -1  -1   4   58.79    2.30
   1   1  -4   57.19    2.30
  -1  -1   4   54.49    2.70
   1   1  -4   57.29    2.50
   1   1  -3  135.99    3.00
  -1  -1   3  134.89    3.50
   1   1  -3  124.49    3.10
  -1  -1   3  136.59    4.00
  -1  -1   3  130.19    3.00
   1   1  -3  135.39    3.20
   1   1  -2 2320.77   14.20
   1   1  -2 2431.86   10.90
  -1  -1   2 2365.56   14.30
  -1  -1   1   30.70    1.60
   1   1  -1   31.70    1.70
   1   1  -1   33.80    1.00
   1   1  -1   30.50    1.60
  -1  -1   1   32.80    1.70
   1   1   0   39.00    2.00
  -1  -1   0   43.50    2.00
  -1  -1   0   39.10    2.10
   1   1   0   43.40    2.30
   1   1   1  420.76    6.90
  -1  -1  -1  412.06    6.70
   1   1   1  419.16    6.70
  -1  -1  -1  432.66    6.80
   1   1   1  423.16    8.50
  -1  -1  -1  418.16    7.50
   1   1   2   83.69    2.50
  -1  -1  -2   87.79    3.60
   1   1   2   86.29    3.70
   1   1   2   80.69    3.10
  -1  -1  -2   79.39    3.20
  -1  -1  -2   82.89    3.40
   1   1   2   85.89    3.10
  -1  -1  -2   71.19    3.80
  -1  -1  -2   82.09    3.80
   1   1   2   83.19    3.40
   1   1   2   81.19    3.30
   1   1   2   84.59    4.50
  -1  -1  -2   79.89    2.10
  -1  -1  -2   80.49    2.80
  -1  -1  -3 3244.18   25.10
  -1  -1  -3 3138.49   27.90
   1   1   3 3302.67   20.10
   1   1   3 3462.25   19.90
   1   1   3 3464.55   22.40
   1   1   3 3346.67   19.10
   1   1   3 3256.77   23.80
  -1  -1  -4   76.19    4.90
   1   1   4   74.69    3.80
   1   1   4   72.59    4.20
  -1  -1  -4   68.19    4.20
   1   1   5    7.80    1.50
  -1  -1  -5    7.20    1.50
  -1  -1  -5    7.30    1.60
   1   1   5    9.40    1.60
  -1  -1  -6  276.07    9.70
  -1  -1  -6  289.67    9.20
   1   1   6  284.37    9.90
  -1  -1  -6  284.97    9.90
  -1  -1  -6  308.27    7.60
   1   1   7    5.20    1.10
   1   1   7    8.30    1.80
   1   1   7    6.70    1.50
  -1  -1  -7    3.10    1.20
  -1  -1  -7    3.10    1.30
   1   1   7    3.50    1.10
  -1  -1  -7    4.70    1.50
   1   1   8    3.40    1.20
   1   1   8    4.20    1.30
   1   1   8    3.70    1.20
   1   1   8    3.50    1.10
   1   1   9    6.60    1.40
   1   1   9    7.70    1.20
   1   1   9    7.90    1.50
   1   1  10    1.10    0.70
  -1  -2  12   13.60    1.50
  -1  -2  11   58.19    3.80
  -1  -2  10  119.59    5.80
  -1  -2  10  115.49    5.80
  -1  -2   9   77.59    3.80
  -1  -2   9   66.39    4.20
   1   2  -9   63.29    3.90
  -1  -2   9   67.39    4.20
  -1  -2   9   71.99    4.80
  -1  -2   9   68.49    4.20
  -1  -2   9   69.29    4.40
  -1  -2   9   70.79    4.50
  -1  -2   8  149.99    6.60
   1   2  -8  156.68    6.70
   1   2  -8  153.78    6.20
  -1  -2   8  148.29    5.80
   1   2  -8  151.88    6.40
   1   2  -8  149.29    5.40
   1   2  -7   58.29    4.00
   1   2  -7   54.99    3.50
   1   2  -7   56.29    3.80
   1   2  -7   55.19    3.40
  -1  -2   7   48.90    3.50
  -1  -2   7   49.20    3.10
   1   2  -7   58.79    3.60
   1   2  -6    0.00    0.70
  -1  -2   6    0.40    0.70
  -1  -2   6    0.40    0.60
   1   2  -6    0.80    0.70
   1   2  -6    0.00    0.50
  -1  -2   6    0.90    0.60
   1   2  -6    0.10    0.50
   1   2  -6   -0.20    0.50
   1   2  -5  254.27    4.80
   1   2  -5  253.47    5.80
   1   2  -5  258.47    6.20
  -1  -2   5  244.48    5.40
  -1  -2   5  262.07    6.70
  -1  -2   5  260.07    5.80
   1   2  -5  262.57    6.60
   1   2  -5  244.88    5.50
   1   2  -5  252.17    6.00
  -1  -2   4    4.00    1.00
   1   2  -4    4.10    0.80
  -1  -2   4    3.40    0.70
   1   2  -4    5.40    1.00
   1   2  -4    3.80    0.70
   1   2  -4    5.70    0.90
  -1  -2   4    3.90    0.90
  -1  -2   4    3.60    0.70
   1   2  -4    4.30    0.70
   1   2  -4    4.10    1.00
   1   2  -3   77.09    3.30
   1   2  -3   80.39    2.70
   1   2  -3   81.99    2.80
  -1  -2   3   77.29    2.90
  -1  -2   3   74.69    3.00
   1   2  -3   81.29    3.10
   1   2  -3   80.79    3.20
   1   2  -2 1006.80   11.00
  -1  -2   2  977.80   10.20
   1   2  -1    6.00    1.00
  -1  -2   1    4.80    1.00
  -1  -2   1    6.50    0.60
   1   2  -1    6.70    1.20
   1   2   0  442.86    6.40
  -1  -2   0  445.46    6.00
   1   2   0  438.86    8.80
   1   2   0  424.46    7.30
  -1  -2   0  441.66    7.60
   1   2   0  428.66    7.60
   1   2   0  433.16    6.30
  -1  -2   0  431.36    8.90
  -1  -2   0  440.86    8.20
   1   2   1  301.07    6.00
   1   2   1  284.77    6.00
   1   2   1  288.27    6.20
   1   2   1  286.47    5.90
  -1  -2  -1  294.67    6.10
   1   2   2   74.99    3.60
   1   2   2   75.19    3.50
  -1  -2  -2   74.99    3.60
  -1  -2  -2   78.69    2.90
  -1  -2  -2   75.99    2.80
   1   2   2   70.79    3.50
  -1  -2  -2   76.59    3.90
  -1  -2  -3    0.90    0.80
  -1  -2  -3    0.50    0.40
  -1  -2  -3   -0.20    0.70
   1   2   3    1.00    0.80
   1   2   3    1.00    0.90
   1   2   3    0.10    0.80
   1   2   3    1.00    0.60
  -1  -2  -3   -0.30    0.50
  -1  -2  -4   23.00    1.90
   1   2   4   21.90    2.50
   1   2   4   24.70    2.50
  -1  -2  -4   21.10    2.50
  -1  -2  -5    1.90    0.80
   1   2   5    2.10    1.00
  -1  -2  -5    3.30    1.20
  -1  -2  -5    2.40    0.90
   1   2   5    2.20    1.00
   1   2   6    5.90    1.60
  -1  -2  -6    4.50    1.10
   1   2   6    2.40    1.10
  -1  -2  -6    4.20    1.50
  -1  -2  -6    4.40    1.40
  -1  -2  -6    6.10    1.40
   1   2   7   40.80    3.30
   1   2   7   42.80    3.70
   1   2   7   45.90    3.30
   1   2   8  133.99    6.30
   1   2   8  134.89    5.30
   1   2   8  130.39    5.60
   1   2   9    5.80    1.20
   1   2   9    7.30    1.10
  -1  -3  11   -0.10    0.60
  -1  -3  11    0.30    0.80
  -1  -3  10  122.69    5.60
  -1  -3  10  119.49    5.90
  -1  -3  10  110.79    5.60
  -1  -3  10  121.19    5.00
  -1  -3  10  133.99    5.40
  -1  -3   9  302.57    8.00
  -1  -3   9  259.07    8.40
  -1  -3   9  290.17    7.60
  -1  -3   9  290.17    8.60
   1   3  -9  281.47    7.90
  -1  -3   9  301.07    9.60
  -1  -3   9  267.77    8.70
  -1  -3   8  126.49    5.40
   1   3  -8  135.89    6.20
  -1  -3   8  129.19    6.30
  -1  -3   7    6.60    1.30
   1   3  -7    6.40    1.30
  -1  -3   7    6.90    1.30
  -1  -3   7    6.80    1.50
   1   3  -7    8.60    1.60
  -1  -3   6  785.72   13.20
   1   3  -6  765.32   10.00
   1   3  -6  758.22   12.20
   1   3  -6  801.32   13.20
  -1  -3   6  786.92   11.50
  -1  -3   6  732.93   10.70
   1   3  -5  657.53   10.30
   1   3  -5  659.23    8.80
  -1  -3   5  655.73    9.00
  -1  -3   5  659.93    9.30
  -1  -3   5  686.13   11.30
   1   3  -5  657.13    8.80
   1   3  -5  665.43   13.00
   1   3  -5  675.93   10.80
   1   3  -4   49.90    2.70
   1   3  -4   48.60    2.40
   1   3  -4   46.30    2.20
   1   3  -4   49.90    2.30
  -1  -3   4   42.70    2.50
  -1  -3   4   46.90    2.70
  -1  -3   4   39.30    2.00
  -1  -3   4   46.20    2.80
   1   3  -4   48.00    3.20
  -1  -3   4   44.10    2.20
  -1  -3   4   46.00    2.10
  -1  -3   3  311.17    6.50
   1   3  -3  318.37    5.50
   1   3  -3  308.67    6.20
  -1  -3   3  305.67    5.30
  -1  -3   3  293.57    6.30
  -1  -3   3  289.07    5.70
   1   3  -3  294.47    5.20
  -1  -3   3  295.17    6.10
   1   3  -3  288.17    6.70
   1   3  -3  314.57    6.00
   1   3  -3  295.17    7.50
   1   3  -2  328.77    5.60
  -1  -3   2  340.57    6.60
   1   3  -2  351.86    7.00
   1   3  -2  350.46    6.40
   1   3  -2  349.37    6.20
  -1  -3   2  338.47    6.30
   1   3  -2  339.87    8.20
  -1  -3   2  364.26    7.00
   1   3  -1  192.08    5.80
  -1  -3   1  186.88    4.70
   1   3  -1  192.48    5.00
   1   3  -1  182.38    4.50
   1   3  -1  205.08    4.50
   1   3  -1  204.78    4.60
  -1  -3   1  205.58    5.70
   1   3  -1  186.58    4.20
  -1  -3   1  202.68    4.30
  -1  -3   1  190.48    5.70
   1   3   0   58.79    2.80
  -1  -3   0   56.59    2.60
   1   3   0   58.39    2.30
  -1  -3   0   63.89    2.80
   1   3   0   54.89    3.00
   1   3   0   59.39    3.00
  -1  -3   0   55.79    2.40
   1   3   0   55.89    2.70
   1   3   0   53.89    2.70
  -1  -3   0   58.29    2.80
  -1  -3   0   53.19    2.40
   1   3   0   61.49    2.70
  -1  -3  -1   35.40    2.30
   1   3   1   34.20    1.90
  -1  -3  -1   31.00    2.00
   1   3   1   34.70    2.50
  -1  -3  -1   33.90    2.20
   1   3   1   31.70    2.40
   1   3   1   33.50    2.00
  -1  -3  -1   32.90    2.10
  -1  -3  -1   36.30    1.90
  -1  -3  -1   33.40    2.50
   1   3   1   32.70    2.40
   1   3   1   34.20    2.20
  -1  -3  -2   93.99    3.90
   1   3   2   83.49    4.30
  -1  -3  -2   84.69    4.40
  -1  -3  -2   86.59    3.50
   1   3   2   84.09    4.30
  -1  -3  -2   95.49    3.30
   1   3   2   84.89    3.90
  -1  -3  -2   85.99    3.90
   1   3   2   94.29    4.40
  -1  -3  -2   85.99    3.80
  -1  -3  -3   33.30    2.70
  -1  -3  -3   30.50    3.00
  -1  -3  -3   32.50    2.40
   1   3   3   29.90    2.80
  -1  -3  -3   32.30    2.60
  -1  -3  -3   27.90    2.20
   1   3   3   27.10    2.70
   1   3   3   31.50    2.90
  -1  -3  -4  217.08    7.40
  -1  -3  -4  210.58    7.20
  -1  -3  -4  205.58    6.30
  -1  -3  -4  208.18    8.30
   1   3   4  212.58    8.20
   1   3   4  214.78    8.00
   1   3   5    4.10    1.30
  -1  -3  -5    5.70    1.10
  -1  -3  -5    4.60    1.20
  -1  -3  -5    6.50    1.60
  -1  -3  -5    4.90    1.30
  -1  -3  -5    6.40    1.70
  -1  -3  -5    3.60    1.30
   1   3   5    4.70    1.50
  -1  -3  -6   26.00    2.50
   1   3   6   27.50    2.50
  -1  -3  -6   26.10    3.00
  -1  -3  -6   23.70    2.80
   1   3   6   27.60    3.00
   1   3   6   21.70    2.50
   1   3   6   25.60    2.60
   1   3   7  109.49    5.70
   1   3   7  104.59    4.70
   1   3   7   97.09    4.90
   1   3   7   99.19    4.90
   1   3   8    3.90    0.90
   1   3   8    4.10    1.20
   1   3   8    7.40    1.20
   1   3   8    6.00    1.10
  -1  -4  12   10.90    1.20
  -1  -4  11   41.60    3.30
  -1  -4  11   49.00    3.00
  -1  -4  10   31.10    2.60
  -1  -4  10   33.00    2.80
  -1  -4  10   32.70    3.10
  -1  -4   9    9.20    1.60
  -1  -4   9    8.30    1.50
  -1  -4   9    9.80    1.50
  -1  -4   9    9.20    1.70
  -1  -4   9    9.00    1.80
  -1  -4   9    9.90    1.70
   1   4  -8    5.40    1.10
  -1  -4   8    5.00    1.20
  -1  -4   8    4.80    1.40
   1   4  -8    5.40    1.20
  -1  -4   7    2.90    0.80
  -1  -4   7    2.40    0.90
   1   4  -7    1.50    0.60
   1   4  -7    2.00    0.90
  -1  -4   7    1.70    0.80
   1   4  -6   62.39    3.70
  -1  -4   6   61.69    3.20
  -1  -4   6   63.59    4.10
  -1  -4   6   67.19    4.10
   1   4  -6   64.69    3.20
   1   4  -5   98.89    3.80
  -1  -4   5   98.19    4.40
  -1  -4   5   90.89    3.60
  -1  -4   5   97.69    4.70
   1   4  -5   93.89    5.20
  -1  -4   4  297.97    6.00
   1   4  -4  301.07    6.30
   1   4  -4  282.37    8.00
  -1  -4   4  288.27    6.90
   1   4  -4  305.07    7.00
   1   4  -4  294.57    5.90
  -1  -4   4  285.67    7.40
  -1  -4   4  286.17    6.00
   1   4  -4  282.77    7.30
   1   4  -3  109.99    3.30
   1   4  -3  112.69    3.70
  -1  -4   3  102.79    4.10
   1   4  -3  110.19    3.70
  -1  -4   3  103.19    3.90
  -1  -4   3  110.69    3.70
   1   4  -3  114.99    4.30
   1   4  -3  111.89    4.40
  -1  -4   3  102.69    4.30
   1   4  -2  437.96    7.40
  -1  -4   2  421.46    7.40
   1   4  -2  422.46    7.10
   1   4  -2  424.96    8.00
  -1  -4   2  425.56    7.20
   1   4  -2  432.36    8.50
  -1  -4   2  429.06    8.20
  -1  -4   1 3836.02   21.90
   1   4  -1 3860.61   23.70
   1   4  -1 4045.60   27.10
  -1  -4   1 3941.01   21.50
   1   4  -1 4049.40   24.00
   1   4  -1 4047.59   21.80
  -1  -4   1 3986.00   21.00
   1   4  -1 4017.10   23.70
   1   4   0   47.40    2.40
  -1  -4   0   44.70    2.50
  -1  -4   0   43.10    2.50
  -1  -4   0   44.40    2.50
   1   4   0   44.00    2.70
   1   4   0   46.40    3.00
  -1  -4   0   47.50    2.90
   1   4   0   46.10    3.20
   1   4   0   42.90    2.80
  -1  -4  -1  169.98    4.70
  -1  -4  -1  165.58    5.10
  -1  -4  -1  171.48    5.40
  -1  -4  -1  162.88    5.40
   1   4   1  183.58    6.40
   1   4   1  166.48    5.50
   1   4   1  178.18    4.90
  -1  -4  -1  180.88    5.80
   1   4   1  185.78    6.40
   1   4   1  176.58    6.40
   1   4   2   29.10    2.60
  -1  -4  -2   28.10    2.10
   1   4   2   27.30    2.80
  -1  -4  -2   28.30    2.50
  -1  -4  -2   30.90    2.40
   1   4   2   30.90    3.00
   1   4   2   31.10    2.90
  -1  -4  -2   30.90    2.60
  -1  -4  -2   27.60    2.40
  -1  -4  -3   42.50    3.30
  -1  -4  -3   42.90    3.00
  -1  -4  -3   44.80    3.50
  -1  -4  -3   45.60    3.40
  -1  -4  -3   49.40    3.60
   1   4   3   52.09    4.10
   1   4   3   51.39    4.10
  -1  -4  -3   49.20    3.40
   1   4   3   44.50    3.80
  -1  -4  -4   32.40    3.00
   1   4   4   31.10    3.50
  -1  -4  -4   29.70    3.00
  -1  -4  -4   29.10    2.60
   1   4   4   30.30    3.40
  -1  -4  -4   35.70    3.40
  -1  -4  -4   29.30    3.00
   1   4   5   -0.30    1.00
   1   4   5    0.30    0.90
  -1  -4  -5   -0.20    1.00
  -1  -4  -5    0.40    0.70
   1   4   5    0.30    0.80
  -1  -4  -5    0.10    0.80
  -1  -4  -5    0.30    0.70
   1   4   5    0.50    0.70
   1   4   6   51.59    3.50
   1   4   6   50.79    3.70
   1   4   6   51.99    3.30
   1   4   7   93.09    4.50
   1   4   8   65.99    2.90
  -1  -5  12   50.79    2.60
  -1  -5  11    0.50    0.70
  -1  -5  11    1.00    0.80
  -1  -5  10    6.70    1.40
  -1  -5  10    8.00    1.40
   1   5  -9   71.09    5.00
  -1  -5   9   65.99    3.80
   1   5  -9   67.59    4.00
  -1  -5   9   68.49    4.00
  -1  -5   9   59.59    3.90
   1   5  -8  105.69    6.00
  -1  -5   8   92.39    4.70
  -1  -5   8   94.09    5.60
   1   5  -8   99.49    4.70
  -1  -5   7  302.97    7.90
   1   5  -7  307.77    8.00
   1   5  -7  293.27    9.70
  -1  -5   7  328.77    9.80
  -1  -5   7  298.07    9.50
  -1  -5   6   28.40    2.90
   1   5  -6   27.40    2.40
   1   5  -6   25.40    2.80
  -1  -5   6   25.20    2.70
  -1  -5   6   27.90    2.30
   1   5  -5  145.99    5.10
   1   5  -5  151.78    5.80
  -1  -5   5  147.89    5.80
  -1  -5   5  149.19    4.90
   1   5  -5  142.89    6.10
  -1  -5   5  150.98    6.20
   1   5  -4   95.89    4.00
   1   5  -4   87.89    3.90
   1   5  -4   95.09    4.60
  -1  -5   4   98.19    3.80
  -1  -5   4   92.49    4.70
  -1  -5   4   94.79    3.90
   1   5  -4   91.79    4.70
  -1  -5   4   92.99    4.50
  -1  -5   3   27.80    2.60
   1   5  -3   27.50    2.10
  -1  -5   3   28.90    2.50
   1   5  -3   29.20    2.50
  -1  -5   3   25.60    2.10
   1   5  -3   26.90    2.50
   1   5  -3   27.20    2.20
  -1  -5   2  479.85    8.70
  -1  -5   2  461.45    9.80
   1   5  -2  470.95    9.70
   1   5  -2  469.75   10.30
   1   5  -2  450.65    8.30
   1   5  -1   65.39    3.20
  -1  -5   1   65.59    3.30
   1   5  -1   63.29    4.00
  -1  -5   1   68.29    3.90
  -1  -5   0   93.19    4.10
   1   5   0   96.49    4.00
   1   5   0   97.89    4.60
   1   5   0   87.29    4.90
   1   5   0   94.19    4.80
  -1  -5   0   99.39    4.80
   1   5   0   97.89    4.80
   1   5   1  147.69    6.60
  -1  -5  -1  146.49    5.60
  -1  -5  -1  142.89    5.30
   1   5   1  156.18    6.70
  -1  -5  -1  170.98    6.40
  -1  -5  -1  141.99    5.40
   1   5   1  152.68    6.50
   1   5   1  147.29    5.90
  -1  -5  -2  185.78    6.70
  -1  -5  -2  178.48    6.70
   1   5   2  180.38    7.70
  -1  -5  -2  185.38    6.30
   1   5   2  181.18    7.70
  -1  -5  -2  193.08    7.10
   1   5   2  197.78    8.00
  -1  -5  -3    0.60    0.60
   1   5   3    0.00    0.90
   1   5   3    1.30    0.70
  -1  -5  -3    2.10    0.80
  -1  -5  -3    1.30    0.80
   1   5   3   -1.20    1.00
  -1  -5  -3    0.20    1.00
  -1  -5  -4  181.88    6.80
  -1  -5  -4  193.88    6.70
   1   5   4  193.18    7.10
  -1  -5  -4  194.08    7.40
   1   5   4  197.78    6.60
  -1  -5  -4  187.88    7.40
  -1  -5  -5  140.29    6.10
   1   5   5  138.49    6.30
   1   5   6  105.59    5.00
   1   5   7    1.60    0.80
  -1  -6  12   10.00    1.20
  -1  -6  11   44.80    2.90
  -1  -6  11   44.40    2.80
  -1  -6  10   75.39    4.10
  -1  -6  10   74.29    3.90
  -1  -6   9    1.30    0.90
  -1  -6   9    3.50    1.00
   1   6  -9    2.00    0.90
  -1  -6   8   25.10    2.40
   1   6  -8   23.60    2.50
  -1  -6   8   23.80    2.20
   1   6  -8   24.60    3.00
  -1  -6   8   25.60    2.50
   1   6  -8   25.80    2.50
  -1  -6   8   20.30    2.70
  -1  -6   8   25.70    2.50
  -1  -6   7    5.40    1.40
  -1  -6   7    7.30    1.40
   1   6  -7    6.30    1.30
   1   6  -7    6.10    1.50
   1   6  -6  157.48    6.00
  -1  -6   6  152.28    7.00
   1   6  -6  157.78    7.10
  -1  -6   6  162.58    5.60
   1   6  -5   89.49    4.30
  -1  -6   5   80.19    4.10
   1   6  -5   89.29    5.20
   1   6  -5   90.09    4.40
  -1  -6   5   94.19    4.10
   1   6  -5   91.39    5.00
  -1  -6   5   94.69    5.30
   1   6  -4  103.09    4.60
  -1  -6   4   98.39    4.40
  -1  -6   4  102.09    5.40
   1   6  -4  103.29    4.60
   1   6  -4  100.59    5.30
   1   6  -4   97.89    5.30
  -1  -6   4  110.49    5.30
   1   6  -3   97.59    4.40
   1   6  -3   97.69    5.30
  -1  -6   3  100.89    4.40
  -1  -6   3  100.29    5.20
  -1  -6   3   93.99    4.90
   1   6  -3   97.59    5.10
  -1  -6   2   15.30    1.80
   1   6  -2   19.50    2.10
   1   6  -2   20.80    2.60
  -1  -6   2   19.80    2.40
  -1  -6   1  153.98    6.50
   1   6  -1  139.49    5.20
  -1  -6   1  152.68    5.70
   1   6  -1  154.48    6.90
   1   6  -1  162.78    6.30
   1   6   0  413.76   11.70
   1   6   0  444.66   11.30
  -1  -6   0  429.46   10.90
   1   6   0  421.56   10.90
   1   6   0  404.86   10.30
  -1  -6   0  426.76    9.70
  -1  -6  -1   83.39    4.50
  -1  -6  -1   84.09    5.00
   1   6   1   69.49    4.50
   1   6   1   86.59    5.40
   1   6   1   90.59    5.60
   1   6   1   75.39    5.20
   1   6   2   42.10    3.20
  -1  -6  -2   42.90    3.30
   1   6   2   42.20    3.40
   1   6   2   49.90    4.40
  -1  -6  -2   42.80    3.50
  -1  -6  -2   41.90    3.40
  -1  -6  -2   47.80    3.40
   1   6   2   50.39    4.20
   1   6   2   46.10    4.20
   1   6   2   43.90    3.20
   1   6   2   54.59    3.80
  -1  -6  -2   44.60    3.70
  -1  -6  -3    1.40    0.90
   1   6   3    0.00    0.70
   1   6   3   -0.10    0.70
  -1  -6  -3   -0.40    0.60
  -1  -6  -3    0.50    0.90
   1   6   3    1.30    1.10
  -1  -6  -4   60.49    3.90
   1   6   4   63.49    3.70
  -1  -6  -4   59.39    4.00
   1   6   4   65.19    4.30
  -1  -6  -5    3.50    0.90
   1   6   5    3.40    1.20
  -1  -6  -6    8.90    1.30
   1   6   6   11.30    1.50
  -1  -7  11    2.20    0.80
  -1  -7  11    3.50    0.80
  -1  -7  10   35.10    2.60
  -1  -7  10   29.30    2.50
  -1  -7   9   41.00    2.80
  -1  -7   9   38.80    3.10
  -1  -7   9   40.60    2.90
  -1  -7   8   43.60    3.30
   1   7  -8   44.60    3.40
  -1  -7   8   43.90    3.00
  -1  -7   8   41.90    3.20
   1   7  -8   50.69    3.40
   1   7  -7  381.16   11.60
   1   7  -7  361.86    9.20
   1   7  -7  369.16    9.60
  -1  -7   7  373.26    9.20
  -1  -7   7  386.46   11.40
  -1  -7   7  369.76    9.10
   1   7  -6  202.78    6.70
  -1  -7   6  201.58    6.60
   1   7  -6  197.28    7.10
  -1  -7   6  194.38    6.70
  -1  -7   6  196.48    8.20
   1   7  -6  201.78    8.40
  -1  -7   6  202.68    6.60
   1   7  -5  201.38    6.90
   1   7  -5  204.98    7.00
   1   7  -5  193.88    8.00
   1   7  -5  197.38    6.30
  -1  -7   5  179.58    6.40
   1   7  -5  196.28    7.90
  -1  -7   5  198.98    8.10
   1   7  -4  540.85   11.30
  -1  -7   4  553.74   11.20
   1   7  -4  561.84   13.30
  -1  -7   4  577.14   13.60
  -1  -7   4  544.35   12.80
   1   7  -4  561.44   13.50
   1   7  -3   79.99    5.30
  -1  -7   3   77.09    4.90
  -1  -7   3   84.39    4.40
  -1  -7   3   82.49    5.20
   1   7  -3   78.69    4.30
  -1  -7   2   11.30    2.00
   1   7  -2   11.70    1.70
   1   7  -2   11.20    2.10
  -1  -7   2   14.10    2.10
  -1  -7   2   15.60    2.00
   1   7  -2   10.90    1.90
  -1  -7   1   40.10    3.10
   1   7  -1   34.90    3.70
  -1  -7   1   41.10    3.60
   1   7  -1   38.70    3.30
   1   7   0   20.20    2.80
  -1  -7   0   23.70    2.50
  -1  -7   0   20.60    2.40
  -1  -7   0   25.00    2.50
   1   7   0   19.20    2.30
   1   7   0   22.30    2.40
  -1  -7   0   20.70    2.50
  -1  -7   0   22.40    2.70
   1   7   0   23.70    2.60
   1   7   0   20.80    2.50
   1   7   0   19.90    2.40
  -1  -7  -1  109.79    5.60
  -1  -7  -1  109.49    5.40
   1   7   1  111.29    5.40
   1   7   1  112.79    5.30
  -1  -7  -1  120.09    5.40
   1   7   1  106.79    6.30
  -1  -7  -1  114.09    5.80
   1   7   1  110.29    5.50
   1   7   1  104.39    5.30
  -1  -7  -2   14.80    2.00
  -1  -7  -2   18.60    2.40
   1   7   2   16.80    2.10
  -1  -7  -2   14.40    2.10
   1   7   2   15.60    2.10
   1   7   2   17.50    2.20
   1   7   2   17.70    2.20
  -1  -7  -3  126.39    5.80
   1   7   3  133.49    5.30
  -1  -7  -3  128.59    5.60
   1   7   3  136.29    5.30
   1   7   3  133.89    5.80
  -1  -7  -4    0.80    0.60
   1   7   4    0.50    0.50
  -1  -7  -4    1.00    0.60
  -1  -7  -4    0.80    0.60
   1   7   4    2.80    1.00
  -1  -7  -5   35.80    2.30
  -1  -7  -5   36.20    2.00
   1   7   5   37.20    2.40
  -1  -8  11   25.70    1.80
  -1  -8  11   24.10    1.60
  -1  -8  10    6.60    1.20
  -1  -8  10    6.60    1.10
  -1  -8   9   29.00    2.40
  -1  -8   9   29.50    2.50
  -1  -8   8    5.80    1.30
  -1  -8   8    4.70    1.20
  -1  -8   8    4.60    1.20
  -1  -8   7   80.29    4.30
  -1  -8   7   87.09    4.40
  -1  -8   6  183.28    6.30
  -1  -8   6  178.78    6.30
   1   8  -6  176.38    6.70
  -1  -8   6  175.98    6.60
  -1  -8   5  162.28    5.90
   1   8  -5  156.38    7.30
  -1  -8   5  163.08    6.10
   1   8  -5  159.48    6.30
   1   8  -5  152.98    7.30
  -1  -8   5  159.58    6.30
  -1  -8   5  154.28    6.00
   1   8  -5  156.68    6.30
  -1  -8   4  251.67    7.90
   1   8  -4  247.68    7.90
  -1  -8   4  249.88    7.70
   1   8  -4  243.68    9.40
  -1  -8   4  254.17    7.90
   1   8  -4  256.27    8.40
   1   8  -4  261.77    8.40
  -1  -8   4  240.78    7.50
   1   8  -4  253.67    7.70
   1   8  -4  246.68    8.00
   1   8  -3   59.89    4.10
   1   8  -3   54.79    3.70
  -1  -8   3   56.39    3.80
   1   8  -3   53.49    4.00
  -1  -8   3   62.59    3.90
   1   8  -3   61.39    4.80
  -1  -8   3   53.79    3.80
   1   8  -3   59.09    3.80
   1   8  -3   57.09    3.90
  -1  -8   2    0.40    0.70
  -1  -8   2   -0.70    0.60
   1   8  -2    1.20    0.80
   1   8  -2    2.10    0.90
  -1  -8   2   -0.30    1.10
   1   8  -2    1.00    0.90
  -1  -8   2    0.40    0.70
   1   8  -2    1.10    0.70
  -1  -8   1   33.30    3.00
  -1  -8   1   32.00    2.80
   1   8  -1   33.00    3.10
   1   8  -1   29.50    2.90
  -1  -8   1   34.40    2.80
  -1  -8   1   32.90    3.00
   1   8  -1   32.30    2.90
   1   8  -1   32.70    3.10
   1   8  -1   25.70    2.70
  -1  -8   0  195.48    7.30
  -1  -8   0  190.28    7.00
  -1  -8   0  199.88    7.60
   1   8   0  186.88    7.00
   1   8   0  208.18    7.20
   1   8   0  195.18    7.30
   1   8   0  188.68    6.90
  -1  -8  -1    0.70    0.80
   1   8   1   -0.10    0.60
   1   8   1    2.30    1.00
  -1  -8  -1   -0.40    0.90
  -1  -8  -1    0.40    0.70
   1   8   1    1.30    0.80
   1   8   2   36.10    2.70
  -1  -8  -2   31.00    2.70
  -1  -8  -2   33.70    2.60
  -1  -8  -2   29.20    2.70
   1   8   2   33.20    2.60
  -1  -8  -3    1.20    0.60
   1   8   3    0.70    0.50
  -1  -8  -3   -0.10    0.70
   1   8   3    0.50    0.50
   1   8   3   -0.50    0.70
  -1  -8  -3   -0.30    0.70
  -1  -9  10   -0.10    0.40
   1   9 -10    0.00    0.30
  -1  -9  10   -0.30    0.50
  -1  -9   9   42.70    2.60
   1   9  -9   40.60    2.70
  -1  -9   9   46.10    2.70
   1   9  -8    7.20    1.20
  -1  -9   8    7.70    1.30
  -1  -9   8    7.90    1.30
  -1  -9   7   12.30    1.60
   1   9  -7   14.90    2.00
  -1  -9   7   16.20    1.90
   1   9  -6   78.19    4.50
  -1  -9   6   77.29    4.10
  -1  -9   6   83.19    4.00
  -1  -9   5   88.89    4.40
   1   9  -5   82.49    4.60
  -1  -9   5   86.89    4.30
  -1  -9   5   83.49    4.50
   1   9  -5   88.69    4.50
  -1  -9   4   62.69    3.90
  -1  -9   4   66.69    3.90
   1   9  -4   64.79    3.80
   1   9  -4   64.79    4.10
  -1  -9   4   67.39    4.00
  -1  -9   4   68.59    3.70
   1   9  -4   63.29    4.00
  -1  -9   3   14.30    2.00
   1   9  -3   13.00    1.80
  -1  -9   3   13.20    1.80
  -1  -9   3   12.60    1.80
   1   9  -3   13.20    2.00
   1   9  -3   15.10    2.00
  -1  -9   2    3.30    1.00
  -1  -9   2    3.50    1.00
  -1  -9   2    5.70    1.20
   1   9  -2    3.70    1.10
   1   9  -2    5.00    1.30
   1   9  -2    4.60    1.30
   1   9  -1    2.30    1.00
   1   9  -1    3.30    1.10
  -1  -9   1    2.50    1.10
  -1  -9   1    1.60    0.80
   1   9  -1    3.10    1.10
  -1  -9   0   -0.20    0.80
  -1  -9   0    2.50    1.00
   1   9   0    1.10    0.70
   1   9   0    1.80    0.80
   1   9   0    1.30    0.70
  -1  -9  -1   17.30    1.80
  -1  -9  -1   16.90    1.70
   1   9   1   15.50    1.70
  -1  -9  -1   16.00    1.70
   1   9   1   18.70    1.80
   1   9   2   15.50    1.30
  -1  -9  -2   15.00    1.40
   1   9   2   15.10    1.30
  -1  -9  -2   16.20    1.50
  -1 -10   8    5.60    1.00
   1  10  -8    4.40    0.90
   1  10  -7    0.30    0.50
   1  10  -7   -0.60    0.50
  -1 -10   7    1.30    0.70
   1  10  -6    8.50    1.10
   1  10  -6    9.70    1.40
  -1 -10   6    8.50    1.30
  -1 -10   5   15.40    1.70
   1  10  -5   14.90    1.80
   1  10  -5   15.80    1.70
  -1 -10   5   15.60    1.60
   1  10  -4   62.49    3.20
  -1 -10   4   65.29    3.50
   1  10  -4   58.99    3.40
  -1 -10   4   56.79    3.10
   1  10  -4   59.89    3.30
  -1 -10   3   35.80    2.60
  -1 -10   3   32.90    2.40
   1  10  -3   35.70    2.60
   1  10  -3   36.90    2.50
  -1 -10   3   37.60    2.50
   1  10  -3   33.00    2.50
  -1 -10   2  115.79    4.40
   1  10  -2  109.69    4.20
   1  10  -2  113.69    4.40
   1  10  -2  112.89    4.40
  -1 -10   2  108.09    4.20
   1  10  -1    6.50    1.10
   1  10  -1    6.00    1.00
  -1 -10   1    4.70    1.00
  -1 -10   1    4.90    1.00
  -1 -10   0   85.59    3.10
   1  10   0   91.39    3.20
  -2  11  -2    7.30    1.00
   2 -11   2    5.40    0.90
  -2  11  -2   10.10    1.10
   2 -11   2    8.30    1.10
   2 -11   3    2.50    0.70
  -2  11  -3    2.10    0.70
  -2  11  -3    3.00    0.80
   2 -11   3    1.80    0.70
  -2  11  -4    5.30    0.90
  -2  11  -4    6.20    1.00
   2 -11   4    2.80    0.70
  -2  11  -5  132.09    3.90
  -2  11  -5  138.29    4.10
  -2  10   2  203.18    4.80
  -2  10   2  215.68    5.00
   2 -10  -2  211.28    4.60
   2 -10  -1   11.20    1.30
   2 -10  -1    9.60    1.20
  -2  10   1   10.40    1.30
   2 -10  -1   10.40    1.20
   2 -10  -1   10.50    1.30
  -2  10   1   11.00    1.40
  -2  10   0    8.80    1.40
  -2  10   0    6.90    1.10
  -2  10   0    9.10    1.30
   2 -10   0    6.80    1.20
  -2  10   0    5.30    1.10
   2 -10   0    6.80    1.20
   2 -10   1   31.70    2.50
  -2  10  -1   33.30    2.60
  -2  10  -1   29.50    2.50
  -2  10  -1   31.90    2.40
   2 -10   1   35.50    2.60
  -2  10  -2    0.80    0.70
   2 -10   2    1.30    0.80
  -2  10  -2    0.00    0.30
  -2  10  -2    0.60    0.70
   2 -10   2    0.60    0.80
  -2  10  -3   76.29    4.10
   2 -10   3   82.59    4.20
   2 -10   3   80.19    4.10
  -2  10  -3   80.89    4.30
   2 -10   4    6.00    1.30
   2 -10   4    6.50    1.30
  -2  10  -4    3.60    1.00
   2 -10   4    4.60    1.00
   2 -10   5   19.30    2.00
  -2  10  -5   17.70    2.00
   2 -10   5   17.70    2.00
   2 -10   5   16.50    1.80
   2 -10   6    2.30    0.70
  -2  10  -6    2.70    0.90
  -2  10  -7  138.99    4.40
   2 -10   7  131.59    4.20
  -2   9   4    6.50    1.00
  -2   9   4    6.00    1.00
   2  -9  -4    6.30    1.00
   2  -9  -4    4.80    0.90
   2  -9  -3    6.50    1.20
  -2   9   3    6.10    1.10
  -2   9   3    5.70    1.10
   2  -9  -3    8.40    1.30
   2  -9  -2   27.70    2.30
   2  -9  -2   27.70    2.50
  -2   9   2   29.20    2.50
  -2   9   2   30.60    2.40
  -2   9   2   28.70    2.50
   2  -9  -2   30.50    2.40
  -2   9   2   23.30    2.30
   2  -9  -1   34.60    2.70
   2  -9  -1   36.70    2.80
  -2   9   1   35.40    3.00
  -2   9   1   32.00    2.80
  -2   9   1   36.70    2.90
   2  -9  -1   33.00    2.70
  -2   9   1   33.00    2.70
   2  -9  -1   36.30    2.90
  -2   9   0   21.60    2.40
  -2   9   0   22.90    2.30
  -2   9   0   19.40    2.30
   2  -9   0   24.10    2.40
   2  -9   0   21.60    2.30
   2  -9   0   21.50    2.40
  -2   9   0   23.70    2.40
  -2   9  -1   73.89    4.50
   2  -9   1   80.89    4.40
  -2   9  -1   69.29    4.30
  -2   9  -1   82.59    4.50
   2  -9   1   79.29    4.40
   2  -9   1   80.59    4.40
   2  -9   2    1.30    0.80
  -2   9  -2    0.00    0.70
  -2   9  -2    1.70    0.90
   2  -9   2    1.20    0.80
  -2   9  -3    0.60    0.80
   2  -9   3    0.10    0.70
   2  -9   3    0.50    0.90
   2  -9   3    0.00    0.80
  -2   9  -4   39.90    3.30
   2  -9   4   45.10    3.40
   2  -9   4   48.20    3.40
   2  -9   4   47.50    3.30
   2  -9   5    1.00    0.70
   2  -9   5    0.30    0.60
   2  -9   5   -0.30    0.80
   2  -9   6   21.60    2.20
   2  -9   7   28.10    2.30
   2  -9   7   26.30    2.40
   2  -9   8    0.90    0.60
   2  -9   8    1.10    0.60
  -2   8   5   30.60    2.30
   2  -8  -5   25.10    2.20
   2  -8  -5   29.20    2.20
   2  -8  -4  202.28    6.30
  -2   8   4  200.38    6.40
  -2   8   4  183.58    6.30
   2  -8  -4  187.38    6.40
   2  -8  -3   65.89    4.10
  -2   8   3   72.09    4.20
  -2   8   3   71.39    3.90
   2  -8  -3   65.39    3.80
  -2   8   3   60.49    4.00
  -2   8   3   63.69    4.00
   2  -8  -2   72.99    4.40
  -2   8   2   69.59    4.30
   2  -8  -2   72.69    4.10
  -2   8   2   75.19    4.50
  -2   8   2   73.69    4.30
  -2   8   2   72.59    4.30
   2  -8  -1  151.98    6.20
   2  -8  -1  147.79    6.30
   2  -8  -1  144.79    5.80
  -2   8   1  153.48    6.40
   2  -8  -1  143.69    5.70
  -2   8   1  144.19    6.20
  -2   8   1  149.39    6.00
   2  -8  -1  137.29    5.70
  -2   8   1  151.38    6.50
   2  -8   0   96.19    4.90
  -2   8   0   96.79    6.00
  -2   8   0   94.49    5.80
  -2   8   0   84.19    4.80
   2  -8   0   93.79    4.80
  -2   8   0   97.99    5.10
  -2   8   0   93.99    5.10
   2  -8   0   93.49    4.40
   2  -8   0   92.29    4.90
   2  -8   0   90.79    4.70
  -2   8   0   98.39    4.80
  -2   8   0   92.39    4.60
   2  -8   1   32.70    2.90
  -2   8  -1   27.40    2.90
  -2   8  -1   26.90    2.80
   2  -8   1   32.40    3.50
   2  -8   1   28.70    2.70
  -2   8  -1   30.40    3.30
   2  -8   1   27.90    2.70
  -2   8  -1   32.90    3.00
   2  -8   1   31.00    3.10
  -2   8  -2    1.10    0.70
  -2   8  -2    2.50    1.10
   2  -8   2    0.80    0.70
  -2   8  -2    1.00    0.80
   2  -8   2    0.50    0.70
  -2   8  -2    0.50    0.70
   2  -8   2   -0.10    0.70
  -2   8  -3    3.10    1.00
  -2   8  -3    3.60    1.20
  -2   8  -3    2.50    0.90
  -2   8  -3    5.30    1.10
   2  -8   3    2.90    1.10
   2  -8   3    0.50    0.80
   2  -8   3    1.30    0.70
  -2   8  -4   33.70    2.90
  -2   8  -4   33.90    2.90
   2  -8   4   40.90    3.20
  -2   8  -4   30.70    3.40
   2  -8   4   38.50    3.20
   2  -8   4   38.40    3.00
  -2   8  -4   33.90    3.20
   2  -8   5    4.40    1.20
  -2   8  -5    4.90    1.20
   2  -8   5    4.00    1.20
   2  -8   5    4.40    1.30
  -2   8  -5    3.90    1.20
   2  -8   6    2.40    1.10
   2  -8   7   81.29    4.10
   2  -8   7   82.39    4.70
   2  -8   8   49.20    2.90
   2  -8   8   42.90    3.20
   2  -8   9   24.50    2.00
  -2   7   7   37.30    2.20
   2  -7  -7   36.50    2.10
  -2   7   7   33.30    2.10
   2  -7  -6   10.70    1.50
  -2   7   6    8.50    1.40
   2  -7  -6   10.70    1.40
  -2   7   6    9.00    1.40
   2  -7  -6    6.60    1.20
   2  -7  -5  281.37    8.10
  -2   7   5  293.47    8.10
  -2   7   5  279.37    8.20
  -2   7   5  283.67    7.90
   2  -7  -5  270.67    7.50
  -2   7   4   17.70    2.20
  -2   7   4   18.70    2.30
  -2   7   4   19.70    2.10
   2  -7  -4   16.40    2.20
   2  -7  -4   19.90    2.20
  -2   7   4   19.30    2.30
  -2   7   4   18.90    2.10
   2  -7  -3    5.20    1.20
  -2   7   3    4.10    1.20
  -2   7   3    5.30    1.40
  -2   7   3    3.40    1.20
  -2   7   3    3.50    1.00
   2  -7  -3    3.70    1.10
  -2   7   3    4.10    1.40
   2  -7  -3    2.80    1.00
   2  -7  -3    3.60    1.20
   2  -7  -2   69.39    4.20
   2  -7  -2   69.79    4.30
  -2   7   2   65.89    4.10
  -2   7   2   64.99    4.80
  -2   7   2   73.49    4.20
  -2   7   2   68.79    4.30
   2  -7  -2   64.39    3.80
   2  -7  -2   65.69    3.90
   2  -7  -2   75.79    4.90
  -2   7   2   69.49    5.00
  -2   7   2   69.59    4.30
   2  -7  -1   21.40    2.70
  -2   7   1   14.40    2.40
  -2   7   1   17.70    2.50
   2  -7  -1   20.50    2.60
  -2   7   0  157.08    6.40
   2  -7   0  173.18    7.60
  -2   7   0  167.88    7.30
   2  -7   0  168.08    6.90
  -2   7  -1   25.30    2.60
  -2   7  -1   26.40    2.60
  -2   7  -1   24.40    2.90
   2  -7   1   29.80    3.20
  -2   7  -2  258.57    7.90
  -2   7  -2  261.77    9.20
   2  -7   2  275.07    9.50
  -2   7  -2  256.47    8.20
   2  -7   2  264.87    8.50
  -2   7  -2  278.07    7.50
  -2   7  -3  202.58    7.10
  -2   7  -3  201.58    7.30
  -2   7  -3  200.08    6.60
   2  -7   3  194.38    8.10
  -2   7  -3  201.98    8.10
  -2   7  -4   14.80    2.10
  -2   7  -4   14.80    2.30
  -2   7  -4   14.40    2.00
  -2   7  -4   11.00    2.10
  -2   7  -4   12.10    1.80
   2  -7   4   13.20    2.20
  -2   7  -5    6.40    1.40
  -2   7  -5    4.50    1.30
  -2   7  -5    7.50    1.70
   2  -7   5    7.30    1.80
   2  -7   5   10.60    1.70
   2  -7   5    6.90    1.50
   2  -7   5    8.40    1.40
  -2   7  -5   10.50    1.90
  -2   7  -6   15.80    2.10
  -2   7  -6   15.60    2.30
   2  -7   6   18.50    2.10
  -2   7  -6   16.20    2.50
  -2   7  -6   18.10    2.40
   2  -7   7   12.60    1.70
   2  -7   7   15.50    2.20
   2  -7   7   16.60    2.00
   2  -7   8   11.90    1.60
   2  -7   8   11.50    1.90
   2  -7   8   12.10    1.70
   2  -7   9    0.60    0.70
   2  -7   9    0.80    0.70
   2  -7  10   10.30    1.70
  -2   6   8    1.90    0.70
   2  -6  -8   -0.30    0.60
   2  -6  -8    0.70    0.50
  -2   6   8    0.70    0.60
  -2   6   7   32.50    2.60
   2  -6  -7   30.30    2.50
  -2   6   7   28.60    2.60
   2  -6  -6  155.38    6.10
   2  -6  -6  151.68    5.70
  -2   6   6  157.08    6.10
  -2   6   6  156.18    6.20
  -2   6   6  160.28    6.30
   2  -6  -5   48.90    3.50
   2  -6  -5   47.60    3.60
  -2   6   5   46.00    3.60
   2  -6  -5   48.90    3.50
  -2   6   5   53.79    3.50
  -2   6   5   49.20    3.60
   2  -6  -5   48.20    3.40
  -2   6   5   50.99    3.70
  -2   6   5   48.70    3.60
   2  -6  -4   56.89    3.80
  -2   6   4   60.09    3.90
   2  -6  -4   58.39    3.90
   2  -6  -4   59.39    3.70
  -2   6   4   57.29    3.80
  -2   6   4   61.89    3.90
  -2   6   4   56.69    3.90
  -2   6   4   61.89    4.60
   2  -6  -4   55.09    4.10
  -2   6   4   63.09    4.80
   2  -6  -4   52.59    3.70
   2  -6  -4   60.49    3.90
  -2   6   4   61.59    3.80
   2  -6  -3  194.98    6.90
  -2   6   3  184.48    7.50
  -2   6   3  194.98    8.00
  -2   6   3  192.98    6.80
   2  -6  -3  184.58    6.50
   2  -6  -3  190.98    7.40
  -2   6   3  170.28    7.60
   2  -6  -2   35.80    2.90
  -2   6   2   33.90    3.40
   2  -6  -2   36.30    2.70
  -2   6   2   38.30    3.00
  -2   6   2   39.20    3.40
   2  -6  -2   38.30    3.30
   2  -6  -1   12.10    1.70
  -2   6   1   11.40    1.70
  -2   6   1   10.90    1.60
  -2   6   1   14.50    2.10
   2  -6  -1   14.50    2.00
  -2   6   0    1.10    0.70
   2  -6   0   -0.30    0.80
  -2   6   0    0.90    1.00
  -2   6   0   -0.40    0.70
   2  -6   0    0.20    0.70
  -2   6  -1  102.69    4.70
   2  -6   1  120.89    5.80
  -2   6  -1  103.79    5.30
  -2   6  -1  108.09    4.80
  -2   6  -2   34.70    2.70
  -2   6  -2   34.20    2.50
   2  -6   2   33.10    3.10
  -2   6  -2   29.20    2.90
   2  -6   2   33.70    2.80
   2  -6   2   33.90    2.70
  -2   6  -2   35.10    2.80
  -2   6  -3   79.59    4.30
  -2   6  -3   76.69    4.00
  -2   6  -3   75.09    4.70
  -2   6  -3   78.49    3.90
  -2   6  -3   73.79    4.50
   2  -6   3   85.39    4.50
   2  -6   3   81.39    5.00
  -2   6  -4  142.09    6.00
   2  -6   4  139.79    6.70
  -2   6  -4  136.89    6.20
   2  -6   4  136.19    5.90
  -2   6  -4  135.29    6.50
  -2   6  -4  133.79    5.70
  -2   6  -4  136.69    5.50
  -2   6  -5   74.69    4.20
  -2   6  -5   74.99    4.60
  -2   6  -5   66.99    4.70
   2  -6   5   79.09    4.70
   2  -6   5   76.89    5.20
  -2   6  -5   75.09    4.50
  -2   6  -5   74.79    4.60
  -2   6  -6   53.49    3.90
  -2   6  -6   52.39    4.20
   2  -6   6   48.80    3.80
   2  -6   6   49.90    4.30
   2  -6   6   53.69    3.30
  -2   6  -7    0.50    0.70
   2  -6   7    0.40    0.60
  -2   6  -7   -1.20    1.00
   2  -6   7    0.00    0.70
  -2   6  -7    0.50    0.70
   2  -6   7    0.10    1.10
   2  -6   8   39.60    3.10
   2  -6   8   35.80    2.80
   2  -6   8   38.90    3.40
   2  -6   9   11.30    1.80
   2  -6   9   12.50    1.60
   2  -6  10   70.89    3.40
  -2   5   9   92.89    3.60
  -2   5   9  106.59    3.70
   2  -5  -8    0.40    0.60
  -2   5   8    0.30    0.70
  -2   5   8    0.30    0.70
   2  -5  -7  138.89    5.70
  -2   5   7  143.19    5.90
  -2   5   7  145.49    6.10
  -2   5   6   96.49    5.00
  -2   5   6   93.39    5.00
   2  -5  -6   98.79    4.90
  -2   5   6  101.59    5.30
   2  -5  -6   99.59    4.70
   2  -5  -6   94.69    5.00
   2  -5  -6  105.29    5.10
  -2   5   6   90.89    5.00
  -2   5   5    0.00    0.80
   2  -5  -5   -1.20    0.70
   2  -5  -5    1.70    0.80
  -2   5   5    1.70    1.10
   2  -5  -5   -0.10    0.80
  -2   5   5    1.10    0.50
  -2   5   5    0.90    0.80
  -2   5   5   -0.30    0.50
   2  -5  -5    0.90    0.90
  -2   5   5    0.10    0.40
  -2   5   5   -0.30    0.90
  -2   5   5   -0.90    1.10
   2  -5  -4   46.00    3.30
   2  -5  -4   48.30    3.40
  -2   5   4   42.60    3.80
  -2   5   4   52.89    4.10
   2  -5  -4   54.59    3.90
  -2   5   4   46.40    3.30
   2  -5  -3    8.80    1.50
  -2   5   3    7.40    1.60
   2  -5  -3    9.40    1.60
   2  -5  -3   10.10    1.50
  -2   5   3    8.40    1.60
   2  -5  -3    8.80    1.40
  -2   5   3    9.50    1.40
  -2   5   3    9.20    1.80
   2  -5  -2   36.20    2.40
   2  -5  -2   33.10    2.60
   2  -5  -2   35.70    2.50
   2  -5  -2   34.60    2.60
  -2   5   2   32.20    3.00
  -2   5   2   32.80    2.80
   2  -5  -2   33.80    2.80
  -2   5   2   35.00    2.50
   2  -5  -1   62.39    3.30
  -2   5   1   61.69    3.30
   2  -5  -1   61.79    2.90
  -2   5   1   62.49    3.60
   2  -5  -1   61.49    3.40
  -2   5   1   61.39    3.30
  -2   5   1   62.29    3.50
   2  -5  -1   60.69    3.50
  -2   5   0  146.39    5.50
  -2   5   0  152.68    5.10
   2  -5   0  152.38    5.50
   2  -5   0  144.59    4.80
  -2   5   0  146.59    5.00
   2  -5   0  152.28    5.30
   2  -5   0  159.58    5.30
   2  -5   1   34.40    2.80
   2  -5   1   39.40    2.50
  -2   5  -1   36.80    2.80
  -2   5  -1   36.50    2.50
   2  -5   1   37.30    2.70
  -2   5  -1   33.10    2.40
  -2   5  -1   38.10    2.20
  -2   5  -2  612.54   10.40
   2  -5   2  629.24   11.10
  -2   5  -2  627.24   11.70
   2  -5   2  606.14   11.70
  -2   5  -2  618.94   11.50
  -2   5  -2  606.54   10.10
   2  -5   2  647.44   10.30
  -2   5  -3  166.68    5.40
  -2   5  -3  166.38    5.90
   2  -5   3  161.98    5.90
  -2   5  -3  166.48    5.60
   2  -5   3  159.08    6.30
  -2   5  -3  158.28    5.90
  -2   5  -3  158.88    6.20
  -2   5  -4    1.40    0.80
  -2   5  -4    1.20    0.60
   2  -5   4    0.20    0.90
  -2   5  -4    1.20    1.00
  -2   5  -4    1.10    1.00
   2  -5   4    0.30    0.80
  -2   5  -4    2.20    0.90
  -2   5  -5  222.88    7.20
  -2   5  -5  219.48    6.70
   2  -5   5  229.28    8.40
   2  -5   5  219.98    7.60
  -2   5  -5  214.28    7.50
  -2   5  -5  232.18    8.20
  -2   5  -5  221.38    7.30
   2  -5   6   18.20    2.50
   2  -5   6   16.10    2.30
  -2   5  -6   20.40    2.30
  -2   5  -6   16.80    2.40
  -2   5  -7    1.80    0.70
   2  -5   7    0.50    0.70
   2  -5   7    0.80    0.80
   2  -5   7    0.70    0.70
   2  -5   7   -0.10    0.80
   2  -5   8  234.38    8.10
   2  -5   8  254.17    7.50
   2  -5   8  243.88    8.50
   2  -5   9   -2.70    1.00
   2  -5  10   13.80    1.60
   2  -5  10   14.80    2.00
  -2   4  10    1.70    0.60
  -2   4  10    0.40    0.60
  -2   4   9   25.10    2.30
  -2   4   9   24.50    2.30
  -2   4   8    2.50    1.10
  -2   4   8    1.80    0.90
  -2   4   7    4.70    1.20
   2  -4  -7    7.70    1.50
  -2   4   7    4.10    1.20
   2  -4  -7    4.80    1.30
  -2   4   7    5.70    1.30
   2  -4  -6  175.88    6.50
  -2   4   6  168.58    6.50
   2  -4  -6  179.08    6.60
  -2   4   6  167.28    6.40
  -2   4   6  172.08    7.40
   2  -4  -6  169.28    6.90
  -2   4   6  175.58    6.70
  -2   4   6  177.48    7.80
  -2   4   6  165.28    6.40
   2  -4  -5    1.90    0.80
   2  -4  -5    1.70    0.90
  -2   4   5    4.80    1.20
  -2   4   5    2.10    1.10
   2  -4  -5    3.50    1.20
  -2   4   5    3.10    1.10
  -2   4   4  263.47    8.40
  -2   4   4  259.77    8.40
  -2   4   4  263.67    7.20
  -2   4   4  264.27    8.30
   2  -4  -4  267.47    7.80
   2  -4  -4  262.57    7.00
   2  -4  -4  267.17    7.30
   2  -4  -3  111.69    4.40
  -2   4   3  111.09    5.10
   2  -4  -3  116.29    4.40
   2  -4  -3  112.99    4.20
  -2   4   3  111.89    4.20
   2  -4  -3  122.49    4.20
   2  -4  -3  115.29    4.80
  -2   4   3  112.89    5.00
   2  -4  -2  681.03   10.00
  -2   4   2  710.83    9.60
  -2   4   2  692.53   11.90
   2  -4  -2  709.73    9.60
  -2   4   2  676.63   11.00
  -2   4   2  676.33    9.80
   2  -4  -2  691.33    9.30
   2  -4  -2  709.63   10.50
   2  -4  -2  716.53   11.10
  -2   4   2  679.73    9.50
  -2   4   2  683.83   11.30
   2  -4  -1  278.07    5.90
   2  -4  -1  279.27    5.30
  -2   4   1  295.57    6.60
   2  -4  -1  281.57    6.40
  -2   4   1  280.77    6.70
   2  -4  -1  278.07    5.80
  -2   4   1  280.87    6.50
  -2   4   1  272.57    6.00
   2  -4  -1  294.77    6.60
  -2   4   1  275.57    5.90
  -2   4   0   19.30    1.60
  -2   4   0   18.80    1.60
   2  -4   0   21.90    1.70
   2  -4   0   16.90    1.70
  -2   4   0   17.40    1.70
  -2   4   0   21.10    1.70
   2  -4   0   20.10    1.80
  -2   4   0   18.20    1.60
   2  -4   0   17.00    1.50
   2  -4   0   19.80    1.50
  -2   4  -1   20.80    1.90
   2  -4   1   17.80    1.80
  -2   4  -1   20.90    1.70
   2  -4   1   20.50    1.80
   2  -4   1   20.40    1.80
  -2   4  -1   21.20    1.70
  -2   4  -1   23.60    2.00
   2  -4   1   19.70    1.90
  -2   4  -1   19.80    1.60
  -2   4  -2  792.42   10.60
   2  -4   2  787.22   10.90
  -2   4  -2  773.32   10.20
   2  -4   2  779.02   11.40
   2  -4   2  771.32   11.80
  -2   4  -2  777.62   11.70
  -2   4  -2  773.62   11.20
  -2   4  -2  788.72   11.20
  -2   4  -2  779.62    9.50
   2  -4   3   95.89    4.50
  -2   4  -3   92.59    4.20
   2  -4   3   95.09    4.30
  -2   4  -3   99.79    3.80
  -2   4  -3   94.79    4.00
   2  -4   3   94.79    4.00
  -2   4  -3  109.59    5.30
  -2   4  -4    6.70    1.20
   2  -4   4    6.70    1.40
   2  -4   4    6.90    1.50
  -2   4  -4    5.90    1.10
  -2   4  -4    7.30    1.40
  -2   4  -4    8.70    1.70
  -2   4  -5   39.50    2.70
   2  -4   5   38.10    3.20
   2  -4   5   38.00    3.30
  -2   4  -5   35.20    3.00
   2  -4   6    4.20    1.30
   2  -4   6    4.30    1.20
  -2   4  -6    4.40    1.40
   2  -4   7  211.58    6.70
   2  -4   7  210.28    7.00
   2  -4   7  194.58    7.00
   2  -4   7  204.08    7.60
   2  -4   7  203.08    7.70
   2  -4   7  200.38    8.00
   2  -4   8   10.00    1.60
   2  -4   8   12.20    2.00
   2  -4   8   13.50    2.00
   2  -4   8   11.80    2.10
   2  -4   9  128.19    5.70
   2  -4   9  137.59    5.30
   2  -4  10    1.10    1.60
   2  -4  10   -0.70    0.90
  -2   3  10   38.60    2.60
  -2   3  10   36.20    2.40
  -2   3  10   37.40    2.70
  -2   3   9  126.99    5.50
  -2   3   9  135.39    5.70
  -2   3   8  119.19    5.60
  -2   3   8  124.29    5.70
   2  -3  -8  120.59    5.40
  -2   3   8  119.19    5.50
   2  -3  -8  119.69    5.40
  -2   3   7  108.89    5.30
   2  -3  -7  127.39    5.60
  -2   3   7  120.79    5.20
  -2   3   7  116.89    5.40
  -2   3   7  112.79    5.90
   2  -3  -7  116.19    5.40
   2  -3  -7  125.49    5.90
  -2   3   7  114.79    5.40
  -2   3   7  120.59    5.50
   2  -3  -6   14.90    1.90
   2  -3  -6   15.10    2.00
  -2   3   6   19.10    2.50
  -2   3   6   13.40    2.00
  -2   3   6   13.20    1.80
   2  -3  -6   13.20    2.10
   2  -3  -5    6.50    1.30
  -2   3   5    6.80    1.50
   2  -3  -5    6.20    1.40
   2  -3  -5    5.90    1.30
  -2   3   5    6.00    1.30
  -2   3   5    6.80    1.30
   2  -3  -4   15.80    1.70
   2  -3  -4   14.70    1.50
  -2   3   4   15.80    2.00
   2  -3  -4   16.60    1.80
   2  -3  -4   14.00    1.80
  -2   3   4   14.30    1.90
  -2   3   4   16.10    1.70
   2  -3  -4   18.00    1.70
   2  -3  -3  135.39    4.70
  -2   3   3  134.49    4.20
  -2   3   3  134.69    5.00
  -2   3   3  136.89    4.90
   2  -3  -3  132.79    4.10
   2  -3  -3  140.49    4.50
  -2   3   3  133.09    4.90
   2  -3  -3  134.49    4.30
   2  -3  -2  474.85    7.70
   2  -3  -2  470.55    6.60
  -2   3   2  475.35    6.90
  -2   3   2  472.25    6.90
  -2   3   2  475.95    8.60
  -2   3   2  468.15    8.40
  -2   3   2  464.05    8.20
   2  -3  -2  459.55    6.90
   2  -3  -2  486.85    8.00
   2  -3  -2  464.85    7.10
   2  -3  -1   59.09    2.30
  -2   3   1   56.09    2.40
  -2   3   1   57.69    2.70
   2  -3  -1   58.39    2.60
   2  -3  -1   51.89    2.20
  -2   3   1   52.99    2.40
   2  -3  -1   56.09    2.30
   2  -3  -1   58.19    2.50
   2  -3   0  337.97    5.90
  -2   3   0  345.17    5.70
   2  -3   0  343.27    6.70
  -2   3   0  349.77    6.30
   2  -3   0  329.37    5.40
   2  -3   0  355.16    6.20
  -2   3   0  354.66    6.10
   2  -3   0  348.87    5.40
  -2   3   0  353.76    7.20
  -2   3   0  333.27    7.50
   2  -3   0  332.47    6.40
  -2   3   0  343.17    5.70
  -2   3  -1  603.34    7.70
   2  -3   1  575.14    8.70
   2  -3   1  594.54    8.70
  -2   3  -1  600.14    8.10
  -2   3  -1  561.24    8.40
  -2   3  -1  608.04    8.00
   2  -3   1  580.54    7.70
   2  -3   1  582.94    8.20
  -2   3  -1  572.74    9.00
  -2   3  -2   17.90    1.70
  -2   3  -2   19.50    1.60
   2  -3   2   16.20    1.60
  -2   3  -2   20.60    1.60
   2  -3   2   17.50    1.60
  -2   3  -2   20.10    2.00
   2  -3   2   18.60    1.70
  -2   3  -2   18.30    1.40
  -2   3  -3   89.59    3.40
   2  -3   3   94.39    4.10
  -2   3  -3   87.79    3.50
   2  -3   3   86.49    3.90
  -2   3  -3   93.79    3.50
  -2   3  -3   83.29    3.70
   2  -3   3   97.39    3.70
   2  -3   3   95.49    4.20
  -2   3  -3  103.49    5.20
  -2   3  -3   96.59    5.00
   2  -3   4    4.10    1.10
   2  -3   4    3.10    0.80
   2  -3   4    2.10    0.90
   2  -3   4    3.90    1.00
  -2   3  -4    2.80    0.90
   2  -3   4    2.40    0.70
  -2   3  -4    2.60    1.00
  -2   3  -4    4.70    1.50
   2  -3   5  230.68    7.50
   2  -3   5  252.87    8.20
   2  -3   5  217.08    7.20
  -2   3  -5  243.58    7.60
  -2   3  -5  226.78    7.20
   2  -3   5  245.28    6.30
   2  -3   6   89.79    5.00
   2  -3   6   81.59    4.20
   2  -3   6   76.79    4.70
  -2   3  -6   84.89    5.30
  -2   3  -6   85.09    4.80
   2  -3   7   61.09    4.40
   2  -3   7   63.39    3.90
  -2   3  -7   63.39    4.60
   2  -3   8   20.60    2.20
   2  -3   8   21.30    2.60
   2  -3   9   31.50    2.70
   2  -3   9   29.60    2.90
   2  -3  10  106.89    4.30
   2  -3  10   97.49    4.50
  -2   2  11   35.30    2.30
  -2   2  11   33.70    2.30
  -2   2  10    3.20    1.20
  -2   2  10    2.50    1.10
  -2   2   9   13.90    2.00
  -2   2   9   17.20    2.20
   2  -2  -8    2.90    0.90
  -2   2   8    5.90    1.40
  -2   2   8    5.30    1.20
  -2   2   8    2.20    1.10
  -2   2   8    3.10    1.00
  -2   2   8    3.80    1.10
   2  -2  -7    2.20    0.80
   2  -2  -7    3.70    1.30
  -2   2   7    2.40    0.80
   2  -2  -7    1.00    0.80
  -2   2   7    3.40    1.00
   2  -2  -7    3.20    1.00
  -2   2   6  128.79    5.00
   2  -2  -6  149.79    5.80
  -2   2   6  137.79    5.80
   2  -2  -6  129.09    5.90
   2  -2  -6  131.39    5.80
   2  -2  -6  138.19    5.30
   2  -2  -6  133.29    4.90
  -2   2   6  132.39    5.70
   2  -2  -5  319.07    6.90
   2  -2  -5  312.37    8.20
   2  -2  -5  318.47    8.20
  -2   2   5  306.57    7.90
  -2   2   5  321.97    8.50
   2  -2  -5  309.57    7.70
  -2   2   5  301.77    7.00
  -2   2   5  309.57    8.00
   2  -2  -5  313.87    7.30
   2  -2  -4   43.40    2.80
  -2   2   4   39.80    2.70
   2  -2  -4   37.00    2.60
   2  -2  -4   39.30    2.30
  -2   2   4   43.90    2.90
   2  -2  -4   39.70    2.30
  -2   2   4   40.30    2.70
   2  -2  -4   41.60    2.60
  -2   2   4   42.80    2.40
  -2   2   4   40.80    2.60
   2  -2  -4   40.30    2.40
   2  -2  -3  192.18    3.60
  -2   2   3  180.88    5.10
   2  -2  -3  188.18    4.40
  -2   2   3  178.98    5.10
   2  -2  -3  181.58    4.40
  -2   2   3  190.28    5.10
   2  -2  -3  184.38    4.80
  -2   2   3  181.98    4.40
   2  -2  -3  194.18    4.80
   2  -2  -2  530.75    9.20
  -2   2   2  549.54    7.80
  -2   2   2  549.85    6.30
   2  -2  -2  560.54    7.60
  -2   2   2  557.94    8.00
   2  -2  -2  544.85    8.30
  -2   2   2  560.74    8.90
   2  -2  -2  547.25    4.20
  -2   2   2  547.05    8.30
   2  -2  -2  566.14    7.50
   2  -2  -1 2192.68   14.30
   2  -2  -1 2186.78   13.90
   2  -2  -1 2205.48   18.00
  -2   2   1 2187.18   14.50
  -2   2   1 2209.18   18.40
   2  -2   0 9999.00   35.10
   2  -2   0 9900.81   27.80
   2  -2   0 9910.71   29.40
   2  -2   0 9964.80   28.70
  -2   2   0 9703.23   29.70
  -2   2   0 9769.02   20.90
  -2   2   0 9889.61   36.90
  -2   2   0 9823.32   36.50
  -2   2  -1 1507.15   12.50
   2  -2   1 1594.14   13.30
   2  -2   1 1594.14   12.50
  -2   2  -1 1583.64   16.10
   2  -2   1 1589.34   12.50
   2  -2   1 1551.44   12.20
  -2   2  -1 1535.65   12.80
  -2   2  -1 1537.75    9.10
  -2   2  -1 1583.64   15.20
   2  -2   1 1554.24   13.20
  -2   2  -1 1553.64   13.80
  -2   2  -2    4.90    1.10
   2  -2   2    4.10    0.90
   2  -2   2    7.30    1.00
  -2   2  -2    4.50    1.10
   2  -2   2    4.30    0.90
  -2   2  -2    5.90    0.90
   2  -2   2    7.90    1.10
   2  -2   2    5.10    1.00
  -2   2  -2    5.60    0.90
  -2   2  -2    5.60    1.00
   2  -2   3   29.70    2.20
   2  -2   3   28.70    2.30
  -2   2  -3   30.20    2.20
   2  -2   3   34.90    2.40
  -2   2  -3   28.80    2.10
   2  -2   3   31.70    2.00
   2  -2   3   35.40    2.20
  -2   2  -3   31.90    3.00
  -2   2  -3   35.50    2.40
  -2   2  -3   28.30    2.60
   2  -2   3   31.50    1.80
   2  -2   4    0.90    0.70
  -2   2  -4    0.30    0.60
   2  -2   4    0.80    0.60
   2  -2   4    0.10    0.70
  -2   2  -4    0.80    0.70
  -2   2  -4    2.30    0.90
  -2   2  -4    1.60    1.10
   2  -2   4    1.20    0.90
   2  -2   5  136.19    6.00
  -2   2  -5  152.78    6.00
  -2   2  -5  135.19    6.30
  -2   2  -5  152.78    6.50
   2  -2   5  124.79    5.40
   2  -2   5  130.29    4.80
  -2   2  -5  143.69    5.60
   2  -2   6    5.30    1.40
   2  -2   6    7.70    1.50
  -2   2  -6    8.00    1.80
  -2   2  -6    7.10    1.40
  -2   2  -6    7.70    1.50
   2  -2   6    7.50    1.60
  -2   2  -7   52.59    4.40
   2  -2   7   55.89    3.70
   2  -2   7   55.89    4.00
   2  -2   7   56.69    4.20
   2  -2   7   51.99    4.10
   2  -2   8  174.98    7.00
   2  -2   8  167.38    5.90
   2  -2   8  167.38    7.00
   2  -2   9   61.59    3.90
   2  -2   9   65.59    4.20
   2  -2   9   66.89    3.90
   2  -2  10    2.20    1.00
   2  -2  10    2.40    0.70
  -2   1  11   82.29    4.00
  -2   1  11   86.69    4.20
  -2   1  10    2.20    0.90
  -2   1  10    2.00    1.20
   2  -1  -9   11.70    1.70
  -2   1   9   10.60    1.90
  -2   1   9   11.30    1.90
  -2   1   9   12.20    1.70
  -2   1   8  101.69    4.90
  -2   1   8  100.99    5.80
  -2   1   8   95.29    4.60
   2  -1  -8   96.79    5.60
   2  -1  -8   86.69    4.70
   2  -1  -7  511.65   10.80
   2  -1  -7  483.05   11.30
  -2   1   7  511.05   10.00
   2  -1  -7  515.45   10.40
   2  -1  -7  456.15    9.50
  -2   1   7  491.15   12.00
   2  -1  -7  504.85   11.70
  -2   1   7  479.55    9.80
   2  -1  -7  486.65   10.30
   2  -1  -6   13.60    1.70
  -2   1   6   12.70    1.50
   2  -1  -6   10.90    1.50
  -2   1   6   10.40    1.60
   2  -1  -6   11.60    1.50
  -2   1   6   12.90    1.90
   2  -1  -6   12.10    1.70
   2  -1  -6   12.90    1.80
  -2   1   6   12.00    1.50
   2  -1  -5   81.89    3.10
  -2   1   5   77.19    3.30
   2  -1  -5   79.89    3.40
   2  -1  -5   81.09    3.30
  -2   1   5   75.89    3.00
   2  -1  -5   78.89    3.80
  -2   1   5   82.79    3.70
  -2   1   5   78.79    4.00
   2  -1  -5   82.89    3.40
   2  -1  -5   80.29    3.90
   2  -1  -4   30.50    1.70
   2  -1  -4   29.70    2.20
   2  -1  -4   32.70    2.10
   2  -1  -4   30.00    1.80
   2  -1  -4   31.50    1.90
  -2   1   4   29.30    2.10
  -2   1   4   31.20    2.20
  -2   1   4   30.30    1.90
   2  -1  -4   28.10    2.10
  -2   1   4   29.20    1.90
  -2   1   3   19.90    1.80
   2  -1  -3   21.40    1.90
  -2   1   3   21.60    2.00
   2  -1  -3   20.90    1.50
  -2   1   3   19.80    1.60
  -2   1   3   21.50    1.60
   2  -1  -3   20.70    1.40
  -2   1   3   19.40    1.30
   2  -1  -3   20.10    1.90
  -2   1   2 6677.93   25.10
   2  -1  -2 6610.34   23.70
  -2   1   2 6840.72   24.70
   2  -1  -2 6612.24   25.10
  -2   1   2 6791.72   27.80
  -2   1   1 2679.53   15.20
   2  -1  -1 2643.74   14.90
   2  -1  -1 2645.74   17.20
  -2   1   0   18.60    1.40
  -2   1   0   16.30    1.20
  -2   1   0   13.90    1.60
   2  -1   0   18.20    1.70
   2  -1   1 1845.62   12.70
   2  -1   1 1754.72   14.00
   2  -1   1 1817.42   13.30
   2  -1   1 1806.82   16.70
   2  -1   1 1834.92   13.00
  -2   1  -1 1834.52   13.90
   2  -1   1 1778.42   12.50
  -2   1  -1 1829.22   11.10
  -2   1  -1 1827.72   13.70
  -2   1  -1 1789.62   12.80
  -2   1  -1 1722.03   17.20
  -2   1  -1 1796.02   15.00
  -2   1  -1 1827.62   18.40
  -2   1  -1 1739.93   16.90
   2  -1   2  958.20   12.00
   2  -1   2  964.50    9.70
   2  -1   2 1013.70   10.70
  -2   1  -2  923.41   14.40
   2  -1   2  913.11   10.30
   2  -1   2  949.51   10.40
  -2   1  -2  981.70   11.70
  -2   1  -2  966.60   10.20
  -2   1  -2  948.21   12.10
  -2   1  -2  901.01   12.10
   2  -1   3  111.99    4.60
  -2   1  -3  105.89    4.60
   2  -1   3   94.19    3.80
   2  -1   3  110.99    3.60
   2  -1   3  115.09    3.50
   2  -1   3  111.59    3.90
  -2   1  -3  110.19    3.90
  -2   1  -3  105.09    5.50
  -2   1  -3  101.19    4.50
  -2   1  -3  109.79    4.50
   2  -1   4   97.09    4.80
   2  -1   4   87.99    3.70
  -2   1  -4   91.89    4.60
   2  -1   4   78.99    3.90
  -2   1  -4   91.39    4.30
  -2   1  -4   92.19    3.90
  -2   1  -4   90.99    5.80
  -2   1  -4   84.19    4.70
  -2   1  -4   91.29    4.90
   2  -1   5   43.50    3.60
  -2   1  -5   44.30    3.60
  -2   1  -5   49.00    3.90
   2  -1   5   36.70    2.90
  -2   1  -5   46.60    3.40
  -2   1  -6   53.69    4.40
   2  -1   6   58.39    4.40
   2  -1   6   50.19    3.80
   2  -1   7   78.79    4.80
   2  -1   7   83.49    5.40
  -2   1  -7   68.19    4.90
   2  -1   7   72.69    4.30
  -2   1  -7   69.79    5.20
   2  -1   8    2.50    1.00
   2  -1   8    0.70    0.90
   2  -1   8    1.60    0.90
   2  -1   9    5.60    1.30
   2  -1   9    4.00    1.20
   2  -1  10    9.90    1.40
   2  -1  10    7.40    1.10
  -2   0  12   51.79    2.80
  -2   0  11    4.00    1.10
  -2   0  11    6.70    1.50
  -2   0  10   22.30    2.40
  -2   0  10   21.60    2.60
  -2   0   9   65.69    4.10
   2   0  -9   67.59    4.50
  -2   0   9   68.89    4.30
  -2   0   9   68.29    4.40
  -2   0   9   72.89    4.30
  -2   0   9   69.29    4.10
   2   0  -9   68.69    4.20
  -2   0   9   67.59    4.90
  -2   0   8   -0.30    0.90
   2   0  -8    2.60    0.90
   2   0  -8   -0.10    0.70
  -2   0   8    0.30    1.00
   2   0  -8    1.10    0.70
   2   0  -8    0.20    0.90
   2   0  -7  278.37    8.10
   2   0  -7  282.77    7.70
  -2   0   7  283.47    7.30
   2   0  -7  273.17    7.30
  -2   0   7  291.27    8.90
  -2   0   7  276.27    6.90
   2   0  -7  272.47    8.10
   2   0  -6   89.99    3.50
  -2   0   6   86.29    3.60
   2   0  -6   81.79    3.70
  -2   0   6   88.89    3.60
   2   0  -6   78.69    3.90
   2   0  -6   83.59    3.70
  -2   0   6   85.59    4.40
   2   0  -6   83.09    4.10
   2   0  -6   88.59    3.90
   2   0  -5  578.04    8.00
  -2   0   5  584.84    8.10
   2   0  -5  570.94    9.30
   2   0  -5  576.04    8.60
  -2   0   5  564.74   10.00
  -2   0   5  596.54    8.80
  -2   0   5  544.75    8.10
   2   0  -5  570.04    9.40
   2   0  -5  583.94    8.70
   2   0  -5  542.35    8.80
  -2   0   4  641.54    7.50
   2   0  -4  643.24    9.10
   2   0  -4  636.54    8.40
   2   0  -4  651.93    8.00
  -2   0   4  648.64    8.60
   2   0  -4  620.14    8.70
  -2   0   4  632.34    9.10
   2   0  -4  654.63    8.80
  -2   0   4  642.24   10.20
   2   0  -4  668.83    7.60
  -2   0   3  232.98    5.90
  -2   0   3  240.78    4.60
   2   0  -3  236.08    4.40
   2   0  -3  236.08    4.80
  -2   0   3  226.08    4.60
   2   0  -3  239.78    5.40
  -2   0   3  224.58    5.60
   2   0  -2   58.99    2.80
  -2   0   2   60.09    2.80
  -2   0   2   52.69    1.60
  -2   0   2   60.09    2.80
   2   0  -2   60.79    2.70
   2   0  -1 1636.84   14.70
  -2   0   1 1630.44   13.70
  -2   0   1 1577.84   12.80
   2   0  -1 1570.84   12.80
  -2   0   0 1327.37   10.20
   2   0   0 1306.27    9.30
   2   0   0 1338.27   14.00
   2   0   0 1351.96   14.50
  -2   0  -1  713.33    9.40
   2   0   1  729.23    8.30
  -2   0  -1  686.33    9.30
   2   0   1  721.03    9.40
   2   0   1  684.93    9.20
   2   0   1  716.93    9.00
  -2   0  -1  713.93    9.00
   2   0   1  722.13   10.80
  -2   0  -1  713.33    8.10
  -2   0  -1  699.03   12.10
   2   0   1  751.22   12.70
  -2   0  -2    4.80    1.10
  -2   0  -2    5.30    0.80
  -2   0  -2    8.30    1.10
   2   0   2    5.10    1.10
  -2   0  -2    5.30    1.10
   2   0   2   11.30    1.20
   2   0   2    4.80    0.90
   2   0   2    5.90    1.00
   2   0   2    6.10    0.90
  -2   0  -2   10.90    1.30
  -2   0  -2    5.60    1.30
  -2   0  -2    6.50    1.00
  -2   0  -2    7.10    1.00
  -2   0  -3  156.08    5.10
  -2   0  -3  165.98    6.10
   2   0   3  156.28    5.80
   2   0   3  173.68    5.10
  -2   0  -3  164.98    5.80
   2   0   3  154.78    4.70
  -2   0  -3  165.48    4.50
  -2   0  -3  155.88    7.00
  -2   0  -4  151.58    6.10
   2   0   4  151.18    5.30
  -2   0  -4  154.98    5.50
   2   0   4  154.68    6.30
  -2   0  -4  151.98    7.60
  -2   0  -5  357.66    9.20
  -2   0  -5  354.56    9.00
   2   0   5  338.77    8.90
   2   0   5  352.06   10.40
  -2   0  -5  343.77   10.60
  -2   0  -6    3.50    1.30
   2   0   6    4.40    1.40
  -2   0  -6    3.50    1.20
  -2   0  -6    4.30    1.10
  -2   0  -6    3.20    1.10
   2   0   7  124.19    6.00
   2   0   7  117.29    5.50
  -2   0  -7  125.59    6.10
  -2   0  -7  125.19    6.00
   2   0   8    6.90    1.60
   2   0   8    5.10    1.30
   2   0   8    6.50    1.60
   2   0   9   35.80    2.90
   2   0   9   39.40    3.10
   2   0  10   29.90    2.00
  -2  -1  12   51.39    3.10
  -2  -1  11   69.89    4.30
   2   1 -10    1.40    0.60
  -2  -1  10    1.90    1.10
  -2  -1  10    1.90    0.90
  -2  -1  10    1.40    0.80
  -2  -1  10    2.00    0.90
   2   1  -9    5.70    1.30
  -2  -1   9    3.20    1.10
  -2  -1   9    3.50    1.10
  -2  -1   9    5.80    1.30
  -2  -1   9    2.40    1.10
  -2  -1   9    4.30    1.40
   2   1  -9    4.70    1.10
   2   1  -8    5.80    1.20
   2   1  -8    4.40    1.10
   2   1  -8    6.00    1.40
  -2  -1   8    3.30    1.10
  -2  -1   8    6.80    1.60
   2   1  -7  458.45    8.70
   2   1  -7  432.76    9.60
  -2  -1   7  436.66    8.90
  -2  -1   7  437.46   10.80
   2   1  -7  449.26    9.70
   2   1  -6   24.00    1.80
   2   1  -6   22.40    1.60
   2   1  -6   21.90    2.00
  -2  -1   6   25.70    2.00
   2   1  -6   23.20    2.00
   2   1  -6   22.80    2.10
  -2  -1   6   23.20    2.30
  -2  -1   6   25.10    1.80
   2   1  -6   26.70    2.10
   2   1  -6   25.50    2.20
   2   1  -5  314.87    5.40
   2   1  -5  309.57    6.80
   2   1  -5  316.07    6.50
  -2  -1   5  321.87    7.40
   2   1  -5  331.07    6.40
   2   1  -5  314.27    6.60
  -2  -1   5  315.77    6.00
  -2  -1   4  644.64    8.50
   2   1  -4  659.83    8.40
   2   1  -4  644.44    8.20
   2   1  -4  660.13    9.10
  -2  -1   4  678.03    7.70
  -2  -1   4  657.93    7.40
  -2  -1   4  633.74    9.20
  -2  -1   4  641.04    9.30
   2   1  -3  167.78    3.60
   2   1  -3  170.58    3.90
  -2  -1   3  172.18    3.90
   2   1  -3  157.08    5.10
  -2  -1   3  160.48    5.00
  -2  -1   3  173.78    4.00
  -2  -1   3  165.08    4.00
  -2  -1   3  170.28    4.70
   2   1  -3  163.18    4.90
  -2  -1   2   15.90    1.60
   2   1  -2   19.50    1.80
  -2  -1   2   18.80    1.40
   2   1  -2   19.90    1.40
   2   1  -1 1419.56   15.00
   2   1  -1 1423.56   14.00
  -2  -1   0   14.00    1.80
   2   1   0   15.20    1.60
   2   1   0   14.30    1.40
   2   1   0   13.80    1.70
  -2  -1   0   17.60    1.50
  -2  -1   0   17.50    1.40
  -2  -1   0   16.50    1.30
   2   1   0   15.30    1.30
  -2  -1   0   15.30    1.90
   2   1   0   17.40    2.00
  -2  -1   0   13.30    1.70
   2   1   0   16.60    1.40
  -2  -1  -1  208.88    4.90
  -2  -1  -1  204.38    5.70
   2   1   1  204.18    4.50
  -2  -1  -1  202.88    4.80
   2   1   1  197.98    5.20
   2   1   1  203.88    5.10
   2   1   1  188.28    5.10
   2   1   1  201.28    6.10
  -2  -1  -1  186.38    6.20
   2   1   1  203.38    5.60
   2   1   2  560.84    9.70
  -2  -1  -2  579.24    7.00
  -2  -1  -2  596.54    9.10
  -2  -1  -2  597.24    9.30
   2   1   2  609.14    9.80
   2   1   2  577.14   10.20
  -2  -1  -2  594.94   11.10
  -2  -1  -3   62.59    3.40
   2   1   3   65.09    3.40
  -2  -1  -3   61.89    4.10
  -2  -1  -3   63.39    3.40
   2   1   3   60.59    3.80
  -2  -1  -4  240.08    7.30
  -2  -1  -4  243.38    7.40
  -2  -1  -4  219.68    8.30
   2   1   4  230.48    8.10
  -2  -1  -5   13.90    2.30
  -2  -1  -5   18.00    2.20
   2   1   5   17.70    2.50
  -2  -1  -5   17.00    2.20
  -2  -1  -5   15.30    2.40
  -2  -1  -6  125.49    6.20
  -2  -1  -6  122.89    6.10
   2   1   6  108.19    5.30
  -2  -1  -6  105.09    6.40
   2   1   6  104.99    5.10
   2   1   6  111.99    5.50
   2   1   6  116.09    6.60
  -2  -1  -6  122.49    7.00
   2   1   7   50.19    3.80
   2   1   7   49.90    3.80
   2   1   8    3.30    1.10
   2   1   8    2.80    1.20
   2   1   8    3.10    1.10
   2   1   9    2.90    0.90
   2   1   9    2.30    0.80
  -2  -2  12   21.20    2.10
  -2  -2  11   22.10    2.60
  -2  -2  10  120.09    5.90
   2   2 -10  116.39    5.40
  -2  -2  10  128.49    5.80
   2   2  -9  166.68    6.10
  -2  -2   9  161.18    6.30
  -2  -2   9  167.48    6.00
  -2  -2   9  165.08    6.40
   2   2  -9  174.58    7.00
  -2  -2   9  166.08    6.70
   2   2  -9  155.38    6.30
  -2  -2   9  145.09    6.20
  -2  -2   9  165.88    7.50
   2   2  -8   11.50    1.60
   2   2  -8   12.50    1.90
  -2  -2   8   12.10    1.80
   2   2  -8   10.70    1.70
  -2  -2   8   12.20    2.10
   2   2  -7  138.09    5.60
  -2  -2   7  122.29    4.80
   2   2  -7  114.09    5.00
   2   2  -7  128.99    4.40
   2   2  -7  133.69    5.30
  -2  -2   7  129.99    5.90
   2   2  -6    4.80    1.10
  -2  -2   6    5.70    1.10
   2   2  -6    4.10    0.80
   2   2  -6    3.30    0.90
   2   2  -6    6.30    1.20
  -2  -2   6    4.10    1.20
   2   2  -6    3.90    1.00
   2   2  -5 1270.87   13.60
  -2  -2   5 1292.77   13.20
  -2  -2   5 1306.47   12.60
   2   2  -5 1271.07   11.60
   2   2  -5 1296.47   13.20
   2   2  -5 1370.06   13.70
   2   2  -5 1381.26   17.50
   2   2  -4 1271.07   12.00
   2   2  -4 1259.77   12.20
   2   2  -4 1265.57   11.60
   2   2  -4 1276.27   10.80
  -2  -2   4 1284.47   12.00
  -2  -2   4 1275.77   11.90
   2   2  -4 1305.87   14.50
   2   2  -3  134.69    3.30
  -2  -2   3  129.49    3.60
   2   2  -3  140.79    3.80
  -2  -2   3  143.69    3.80
  -2  -2   3  136.19    4.00
   2   2  -3  135.49    3.90
   2   2  -2  443.86    6.90
  -2  -2   2  444.16    8.70
  -2  -2   2  432.66    6.50
   2   2  -2  433.16    8.50
   2   2  -2  455.05    9.30
  -2  -2   2  439.16    6.60
  -2  -2   2  462.55    7.20
   2   2  -2  417.46    4.30
  -2  -2   2  424.76    8.10
   2   2  -2  439.86    8.10
   2   2  -1   55.89    3.30
   2   2  -1   53.09    2.60
  -2  -2   1   61.29    2.60
  -2  -2   1   61.09    2.50
   2   2  -1   66.19    2.90
  -2  -2   1   60.59    2.60
  -2  -2   1   54.39    3.40
   2   2  -1   63.09    3.50
  -2  -2   1   56.19    3.40
   2   2   0   60.79    3.10
  -2  -2   0   62.39    2.60
  -2  -2   0   61.69    2.80
   2   2   0   63.39    2.60
  -2  -2   0   64.09    2.90
   2   2   0   58.79    2.90
  -2  -2   0   57.59    3.10
   2   2   0   62.79    2.80
   2   2   0   60.89    2.60
  -2  -2  -1   56.29    2.40
  -2  -2  -1   55.79    2.90
   2   2   1   55.19    3.30
  -2  -2  -1   54.39    2.80
   2   2   1   58.59    2.70
   2   2   1   59.19    3.30
  -2  -2  -1   59.79    2.60
   2   2   1   59.69    3.20
  -2  -2  -1   56.19    3.50
   2   2   1   59.99    3.20
  -2  -2  -2    5.90    1.40
   2   2   2    6.80    1.40
  -2  -2  -2    5.70    1.10
  -2  -2  -2    7.20    1.00
   2   2   2    6.40    1.00
   2   2   2    8.80    1.60
  -2  -2  -2    7.80    1.30
   2   2   2    7.00    1.30
   2   2   2    6.70    1.40
  -2  -2  -3    1.50    1.00
   2   2   3    0.30    0.80
  -2  -2  -3    0.90    0.70
  -2  -2  -3    0.40    0.70
  -2  -2  -3    0.10    0.60
   2   2   3    0.20    0.60
   2   2   3   -1.50    0.90
  -2  -2  -3    1.30    0.60
   2   2   4    6.20    1.50
  -2  -2  -4    7.50    1.60
  -2  -2  -4    6.60    1.40
  -2  -2  -4    5.40    1.40
  -2  -2  -5   54.49    4.10
  -2  -2  -5   49.30    4.30
  -2  -2  -5   50.79    3.90
   2   2   5   51.19    4.40
   2   2   6    3.70    1.30
   2   2   6    2.60    1.10
  -2  -2  -6    4.50    1.20
  -2  -2  -6    4.40    1.20
   2   2   7   91.19    4.80
   2   2   7   88.19    5.20
   2   2   8   21.70    2.10
   2   2   8   23.70    2.40
   2   2   9   20.70    1.70
  -2  -3  12   41.00    2.90
  -2  -3  11   11.20    1.50
  -2  -3  11    7.30    1.60
   2   3 -10   93.49    4.90
   2   3 -10   84.39    4.40
  -2  -3  10   94.39    4.40
  -2  -3  10   86.69    5.10
  -2  -3  10  100.49    5.10
  -2  -3   9   29.70    2.90
   2   3  -9   25.50    2.50
  -2  -3   9   30.00    2.60
  -2  -3   9   23.20    2.50
  -2  -3   9   29.70    3.20
  -2  -3   9   23.80    2.20
   2   3  -8   95.79    5.20
   2   3  -8  109.39    5.10
   2   3  -8  102.29    4.40
  -2  -3   8  101.59    5.70
  -2  -3   8   95.29    4.70
   2   3  -7   12.50    1.80
   2   3  -7   10.70    1.70
  -2  -3   7   12.70    1.70
   2   3  -7   10.80    1.40
   2   3  -7   13.30    1.70
  -2  -3   7   10.90    1.90
   2   3  -7   13.50    1.90
   2   3  -6    3.70    1.00
   2   3  -6    3.30    0.80
  -2  -3   6    3.20    0.90
  -2  -3   6    3.50    1.30
   2   3  -6    2.50    0.70
   2   3  -5  183.48    5.20
   2   3  -5  172.48    5.40
   2   3  -5  179.38    4.60
  -2  -3   5  172.18    5.90
   2   3  -5  174.98    4.70
  -2  -3   5  175.08    4.90
  -2  -3   5  187.48    5.20
   2   3  -5  187.08    6.60
   2   3  -4    4.80    0.80
  -2  -3   4    5.00    0.90
  -2  -3   4    5.60    0.90
   2   3  -4    4.60    0.80
  -2  -3   4    5.20    0.90
  -2  -3   4    5.10    1.10
  -2  -3   3   38.50    2.10
   2   3  -3   36.90    2.10
   2   3  -3   38.10    2.30
  -2  -3   3   37.90    2.10
   2   3  -3   39.10    2.30
   2   3  -3   38.60    2.20
  -2  -3   3   38.50    2.50
   2   3  -3   44.40    2.10
  -2  -3   3   41.10    2.60
  -2  -3   3   41.10    2.80
  -2  -3   3   40.50    2.20
   2   3  -2   19.70    1.50
   2   3  -2   17.40    1.40
   2   3  -2   19.20    1.30
  -2  -3   2   19.60    1.60
   2   3  -2   18.10    1.70
  -2  -3   2   20.50    1.50
  -2  -3   2   17.80    1.70
   2   3  -2   21.20    1.80
  -2  -3   2   18.80    1.70
   2   3  -2   21.40    1.60
  -2  -3   1    9.00    1.20
   2   3  -1   10.70    1.20
  -2  -3   1   11.00    1.20
  -2  -3   1   11.40    1.20
   2   3  -1   11.20    1.50
   2   3  -1   11.10    1.20
   2   3  -1   10.30    1.40
  -2  -3   1    9.00    1.30
   2   3  -1    9.60    1.20
  -2  -3   1   11.20    1.30
   2   3   0 2131.99   16.80
  -2  -3   0 2115.09   15.70
  -2  -3   0 2066.39   18.00
   2   3   0 2123.29   17.90
   2   3   0 2119.19   20.50
  -2  -3   0 2031.30   17.60
   2   3   0 2067.79   19.40
  -2  -3   0 2137.49   19.00
   2   3   0 2052.99   19.40
  -2  -3   0 2203.38   17.80
   2   3   0 2088.39   18.50
  -2  -3  -1  132.89    5.00
  -2  -3  -1  137.59    4.30
   2   3   1  142.79    5.80
  -2  -3  -1  131.09    5.40
  -2  -3  -1  127.09    4.80
   2   3   1  142.89    4.60
   2   3   1  145.09    5.70
  -2  -3  -1  141.09    4.80
   2   3   1  133.79    5.40
  -2  -3  -2   99.39    4.70
   2   3   2   95.99    5.20
  -2  -3  -2   96.79    5.20
   2   3   2   90.79    4.80
   2   3   2  104.29    4.10
  -2  -3  -2  100.19    4.60
   2   3   2  109.19    5.40
   2   3   2  104.09    5.20
  -2  -3  -2  102.89    4.00
  -2  -3  -3  215.98    6.20
  -2  -3  -3  222.48    7.50
  -2  -3  -3  216.38    7.50
  -2  -3  -3  205.58    8.20
   2   3   3  208.58    8.10
   2   3   3  211.78    8.20
  -2  -3  -4  400.36   12.20
   2   3   4  427.46   12.50
  -2  -3  -4  415.26   10.90
  -2  -3  -4  439.06    9.30
  -2  -3  -4  428.16   11.20
  -2  -3  -5   21.40    2.60
  -2  -3  -5   16.50    2.70
  -2  -3  -5   20.10    2.50
   2   3   5   22.30    2.60
  -2  -3  -5   19.50    2.80
  -2  -3  -5   18.50    2.60
   2   3   5   22.40    2.50
   2   3   6   11.10    1.80
   2   3   6   13.10    1.80
   2   3   7   72.79    4.30
   2   3   7   76.09    3.80
   2   3   7   72.09    3.90
   2   3   8    0.50    0.60
   2   3   8    0.70    0.60
  -2  -4  12    1.60    0.70
  -2  -4  11    8.20    1.40
  -2  -4  11    9.30    1.50
  -2  -4  11    8.90    1.70
   2   4 -10   43.70    3.30
  -2  -4  10   39.20    2.90
  -2  -4  10   44.80    3.20
  -2  -4  10   43.90    3.60
  -2  -4  10   42.20    3.30
  -2  -4   9    1.50    0.90
   2   4  -9    0.80    0.60
  -2  -4   9    0.60    0.70
  -2  -4   9    0.60    0.70
   2   4  -9    0.50    0.70
  -2  -4   9   -1.50    1.00
  -2  -4   9   -1.70    0.90
  -2  -4   8   12.20    1.80
   2   4  -8   10.70    1.60
   2   4  -8   10.70    1.90
  -2  -4   8   12.30    2.10
  -2  -4   7    1.40    1.00
   2   4  -7    1.40    0.70
  -2  -4   7    0.00    0.70
   2   4  -6  283.97    6.80
  -2  -4   6  291.07    7.20
   2   4  -6  271.97    6.70
   2   4  -5  280.97    6.60
   2   4  -5  283.17    6.40
  -2  -4   5  284.77    6.60
  -2  -4   5  275.67    8.00
   2   4  -4    0.80    0.60
   2   4  -4    3.00    0.70
   2   4  -4    0.60    0.60
   2   4  -4    1.30    0.70
  -2  -4   4    0.80    0.60
  -2  -4   4    2.60    1.00
   2   4  -4    0.60    0.60
   2   4  -3  122.09    3.70
   2   4  -3  115.39    4.40
   2   4  -3  116.39    4.70
   2   4  -3  114.29    4.10
   2   4  -3  115.99    4.40
  -2  -4   3  129.89    4.20
  -2  -4   3  114.49    4.00
  -2  -4   3  116.29    4.10
  -2  -4   3  114.69    4.70
  -2  -4   3  121.69    4.80
   2   4  -2   62.29    3.40
  -2  -4   2   62.39    3.50
   2   4  -2   59.69    3.00
  -2  -4   2   63.49    3.00
   2   4  -2   60.79    3.60
  -2  -4   2   60.19    3.00
   2   4  -2   64.39    3.00
   2   4  -2   67.19    3.20
   2   4  -1  169.98    6.30
  -2  -4   1  174.08    5.50
   2   4  -1  166.38    5.10
   2   4  -1  174.28    5.50
  -2  -4   1  183.08    5.20
  -2  -4   1  172.28    5.70
   2   4  -1  156.98    5.70
  -2  -4   0    5.40    1.00
   2   4   0    2.80    0.90
   2   4   0    3.40    0.90
  -2  -4   0    4.90    1.10
  -2  -4   0    3.80    0.90
   2   4   0    2.40    1.10
  -2  -4   0    5.00    1.10
   2   4   0    4.50    1.30
   2   4   0    3.80    1.10
  -2  -4   0    4.00    1.00
  -2  -4  -1   97.29    4.10
  -2  -4  -1   94.59    4.60
  -2  -4  -1   89.99    5.00
   2   4   1   95.09    4.10
   2   4   1   89.59    5.10
  -2  -4  -1   93.59    4.50
  -2  -4  -1   88.49    4.40
   2   4   1   91.99    5.30
   2   4   1   92.39    5.00
  -2  -4  -2   37.60    3.60
  -2  -4  -2   45.00    3.00
  -2  -4  -2   41.30    3.30
  -2  -4  -2   43.50    3.30
   2   4   2   45.90    3.90
   2   4   2   47.60    4.00
   2   4   2   46.70    3.90
  -2  -4  -3  380.66   10.50
  -2  -4  -3  401.16    9.10
  -2  -4  -3  390.16   10.50
  -2  -4  -3  380.86   11.90
   2   4   3  397.56   12.00
   2   4   4  226.38    7.90
   2   4   4  237.88    7.80
  -2  -4  -4  258.87    7.50
   2   4   4  276.17   10.20
  -2  -4  -4  252.07    8.70
  -2  -4  -4  246.48    8.70
   2   4   5    0.20    0.90
   2   4   5    0.70    0.70
   2   4   5   -0.20    0.80
   2   4   6   14.20    1.80
   2   4   6   12.20    1.80
   2   4   7   42.20    2.50
   2   4   7   37.10    2.30
  -2  -5  12   54.29    2.80
  -2  -5  11   22.30    2.20
  -2  -5  11   20.80    2.10
  -2  -5  10    0.20    0.90
  -2  -5  10    1.50    0.80
  -2  -5   9  399.26    9.00
  -2  -5   9  368.26    8.80
   2   5  -9  385.96   11.60
  -2  -5   9  380.46    9.30
  -2  -5   9  353.36    9.40
   2   5  -9  388.16    9.40
   2   5  -8   14.90    2.30
  -2  -5   8   15.50    2.00
   2   5  -8   15.70    2.00
  -2  -5   8   15.40    2.30
   2   5  -7  256.07    7.30
   2   5  -7  255.27    9.00
   2   5  -7  247.78    7.20
  -2  -5   7  262.17    7.60
  -2  -5   7  249.88    8.90
   2   5  -6   79.99    4.00
   2   5  -6   81.89    4.00
  -2  -5   6   79.79    4.00
   2   5  -6   79.49    4.80
  -2  -5   6   80.59    5.00
   2   5  -5   35.20    2.70
   2   5  -5   31.80    2.80
  -2  -5   5   34.50    2.60
   2   5  -5   33.30    2.40
  -2  -5   5   36.50    2.70
  -2  -5   5   32.90    3.00
  -2  -5   4   35.60    2.60
   2   5  -4   39.90    2.80
   2   5  -4   40.80    3.00
   2   5  -4   37.30    3.00
   2   5  -4   39.40    2.50
  -2  -5   4   38.50    3.20
   2   5  -3   31.00    2.50
   2   5  -3   29.70    2.80
  -2  -5   3   31.20    2.40
   2   5  -3   32.80    2.10
  -2  -5   3   30.60    2.80
   2   5  -3   33.50    2.50
   2   5  -3   31.40    2.50
  -2  -5   3   31.30    2.80
   2   5  -2   41.80    2.80
  -2  -5   2   44.00    2.80
   2   5  -2   39.50    3.30
  -2  -5   2   39.90    3.10
   2   5  -2   42.30    3.00
   2   5  -1   60.89    3.50
  -2  -5   1   67.59    3.60
   2   5  -1   66.89    4.50
  -2  -5   1   69.39    3.80
   2   5  -1   64.19    4.00
  -2  -5   1   63.69    3.90
   2   5  -1   61.29    3.70
   2   5   0   57.89    3.50
  -2  -5   0   59.99    3.50
   2   5   0   53.19    4.20
  -2  -5   0   62.29    3.80
  -2  -5   0   58.49    3.60
  -2  -5   0   62.09    4.00
   2   5   0   58.09    3.90
  -2  -5  -1   33.70    2.70
  -2  -5  -1   32.90    3.00
  -2  -5  -1   31.20    2.90
   2   5   1   29.40    3.30
   2   5   1   32.60    3.30
  -2  -5  -1   39.40    3.20
  -2  -5  -2 1567.74   20.50
  -2  -5  -2 1601.24   18.80
   2   5   2 1569.84   23.90
   2   5   2 1553.64   22.70
   2   5   2 1639.34   23.80
  -2  -5  -2 1581.44   20.90
  -2  -5  -3    1.20    0.70
   2   5   3    0.90    0.80
   2   5   3    2.20    1.10
  -2  -5  -3    0.60    0.60
  -2  -5  -3   -1.10    0.70
  -2  -5  -3   -0.10    0.60
   2   5   4   70.89    4.20
   2   5   4   71.19    4.40
   2   5   5   62.39    3.50
   2   5   5   62.39    3.90
  -2  -5  -5   57.39    3.80
   2   5   6   24.70    2.10
  -2  -6  12   12.10    1.40
  -2  -6  12   11.40    1.30
  -2  -6  11   22.30    2.10
  -2  -6  11   26.10    2.30
  -2  -6  10   67.59    3.90
  -2  -6  10   64.29    3.70
  -2  -6   9   -0.10    0.60
  -2  -6   9    1.10    0.80
   2   6  -9    1.10    0.70
  -2  -6   9    0.30    0.80
  -2  -6   8   65.99    4.00
   2   6  -8   66.99    4.00
  -2  -6   8   68.19    3.70
   2   6  -8   69.19    4.90
  -2  -6   8   67.49    3.90
   2   6  -8   61.19    3.80
  -2  -6   8   59.89    4.60
  -2  -6   8   66.69    3.90
   2   6  -7    2.50    1.00
  -2  -6   7    4.70    1.20
   2   6  -7    3.00    0.90
  -2  -6   7    5.10    1.70
   2   6  -7    3.40    1.10
   2   6  -6  146.59    5.90
   2   6  -6  145.79    6.70
  -2  -6   6  140.79    6.80
  -2  -6   6  145.99    5.60
   2   6  -6  131.09    5.30
  -2  -6   5   38.80    2.80
   2   6  -5   39.50    2.80
   2   6  -5   39.60    3.10
   2   6  -5   36.80    3.30
  -2  -6   5   38.70    3.00
  -2  -6   5   39.70    3.60
   2   6  -5   37.40    3.30
   2   6  -4    5.70    1.30
  -2  -6   4    5.10    1.20
   2   6  -4    7.80    1.70
  -2  -6   4    5.60    1.50
   2   6  -4    4.00    1.10
   2   6  -4    6.70    1.30
   2   6  -3  182.78    6.40
   2   6  -3  185.38    7.60
  -2  -6   3  196.08    6.50
  -2  -6   3  191.18    7.40
  -2  -6   3  188.48    7.30
   2   6  -3  183.88    6.60
   2   6  -2   10.20    1.60
  -2  -6   2   16.00    1.90
   2   6  -2   11.40    2.00
  -2  -6   2   11.30    1.90
  -2  -6   2   11.00    1.90
   2   6  -2   12.80    1.90
  -2  -6   1   89.49    4.50
   2   6  -1   77.99    4.30
   2   6  -1   83.49    5.60
  -2  -6   1   87.29    5.10
   2   6  -1   91.39    5.00
   2   6   0   11.00    2.20
  -2  -6   0   13.90    1.80
   2   6   0   11.10    1.80
  -2  -6   0   15.30    2.10
  -2  -6  -1  170.48    6.80
  -2  -6  -1  185.18    7.40
   2   6   1  184.88    8.40
  -2  -6  -1  191.58    7.60
  -2  -6  -1  194.78    6.80
   2   6   1  203.88    7.40
   2   6   1  191.38    6.80
   2   6   1  186.78    6.80
  -2  -6  -2   26.90    2.80
  -2  -6  -2   31.40    2.70
   2   6   2   20.70    2.40
  -2  -6  -2   23.00    2.50
  -2  -6  -2   24.40    2.80
   2   6   2   27.80    2.80
   2   6   2   26.70    2.50
  -2  -6  -3   10.20    1.70
  -2  -6  -3   11.70    1.90
   2   6   3   11.30    1.80
  -2  -6  -4   15.30    1.80
   2   6   4   17.70    2.20
  -2  -6  -4   15.90    2.00
  -2  -6  -5    1.50    0.60
   2   6   5    2.50    0.90
  -2  -7  12   11.40    1.20
  -2  -7  12   11.70    1.10
  -2  -7  11   77.49    3.40
  -2  -7  11   74.79    3.60
  -2  -7  10   88.99    4.30
  -2  -7  10   87.09    4.00
  -2  -7   9    0.10    0.70
  -2  -7   9   -0.80    0.80
  -2  -7   9   -0.40    0.90
   2   7  -8   39.80    3.10
  -2  -7   8   40.40    3.20
  -2  -7   8   38.00    3.00
   2   7  -8   39.60    3.10
  -2  -7   8   42.90    3.20
  -2  -7   7  303.27    8.40
   2   7  -7  292.57    8.60
  -2  -7   7  299.57    8.40
   2   7  -7  299.57    9.90
   2   7  -7  310.87    8.40
  -2  -7   7  302.57    8.30
  -2  -7   7  315.27    8.50
  -2  -7   6  217.48    7.00
   2   7  -6  218.58    7.50
   2   7  -6  221.88    6.90
   2   7  -6  214.38    7.20
   2   7  -6  227.08    8.60
  -2  -7   6  221.08    8.70
  -2  -7   6  205.18    7.00
  -2  -7   6  210.58    6.90
  -2  -7   5    0.00    0.80
  -2  -7   5    0.20    0.60
   2   7  -5   -0.20    0.70
   2   7  -5    4.20    1.10
   2   7  -5    2.60    0.70
   2   7  -5    2.70    0.90
   2   7  -5   -1.00    0.80
  -2  -7   5    0.00    0.90
  -2  -7   5    0.20    0.70
  -2  -7   5   -0.50    0.90
   2   7  -4  164.28    6.50
  -2  -7   4  157.48    6.20
   2   7  -4  158.38    6.10
   2   7  -4  162.78    7.50
  -2  -7   4  184.38    7.70
   2   7  -4  170.58    6.70
   2   7  -4  165.48    6.50
  -2  -7   3   17.20    2.10
   2   7  -3   12.50    2.20
  -2  -7   3   14.80    2.00
  -2  -7   3   10.90    1.90
   2   7  -3    9.60    1.60
  -2  -7   3   16.10    2.30
   2   7  -3   10.90    1.70
  -2  -7   3    9.30    1.70
   2   7  -3   12.70    1.90
   2   7  -3   14.80    2.10
   2   7  -3   13.30    1.90
  -2  -7   2   35.30    3.00
   2   7  -2   33.10    2.90
  -2  -7   2   34.00    2.90
   2   7  -2   33.00    3.00
   2   7  -2   32.20    2.80
   2   7  -2   31.90    3.00
  -2  -7   2   35.40    3.40
  -2  -7   2   27.60    2.80
  -2  -7   2   30.90    3.20
  -2  -7   2   36.40    3.30
  -2  -7   2   29.20    2.80
   2   7  -2   28.30    3.40
   2   7  -2   31.30    3.00
  -2  -7   1    9.50    1.70
  -2  -7   1    7.80    1.60
  -2  -7   1   11.80    1.80
   2   7  -1    9.10    1.60
   2   7  -1   10.80    1.90
  -2  -7   1    8.10    1.70
   2   7  -1    6.60    1.50
   2   7  -1    9.60    1.50
  -2  -7   1    6.80    1.60
  -2  -7   1    9.00    1.80
  -2  -7   1   10.00    1.70
   2   7  -1   11.10    1.80
   2   7  -1   11.00    1.70
  -2  -7   0   98.89    5.40
  -2  -7   0   93.69    5.10
  -2  -7   0  102.99    5.00
  -2  -7   0   97.29    5.40
   2   7   0   96.69    5.10
   2   7   0  100.49    4.80
  -2  -7   0  108.99    5.40
   2   7   0  100.79    5.30
   2   7   0  101.79    5.20
  -2  -7  -1   26.60    2.70
   2   7   1   25.60    2.60
  -2  -7  -1   28.70    3.00
   2   7   1   32.70    2.70
  -2  -7  -1   29.60    3.00
   2   7   1   28.50    2.80
   2   7   1   30.10    2.70
  -2  -7  -2   72.39    4.10
  -2  -7  -2   74.29    4.50
   2   7   2   81.49    4.10
  -2  -7  -2   71.29    4.30
   2   7   2   76.69    4.40
  -2  -7  -3  169.38    5.80
  -2  -7  -3  170.98    5.60
  -2  -7  -3  182.48    6.30
   2   7   3  178.28    6.20
  -2  -7  -4    3.70    0.80
  -2  -7  -4    2.10    0.60
  -2  -7  -4    3.00    0.80
   2   7   4    1.30    0.60
  -2  -8  11    1.20    0.70
  -2  -8  11    0.30    0.40
  -2  -8  10    2.30    0.80
  -2  -8  10    4.60    0.90
  -2  -8   9   33.60    2.70
  -2  -8   9   36.40    2.80
  -2  -8   9   36.00    2.70
  -2  -8   8    2.80    1.00
  -2  -8   8    4.70    1.20
  -2  -8   7   51.89    3.50
  -2  -8   7   60.89    3.80
  -2  -8   7   60.99    3.80
   2   8  -7   56.89    3.80
  -2  -8   6  119.79    5.20
  -2  -8   6  121.59    5.20
  -2  -8   6  108.69    5.20
   2   8  -6  113.19    5.40
  -2  -8   5   45.70    3.40
   2   8  -5   44.60    3.40
  -2  -8   5   43.80    3.20
  -2  -8   5   47.30    3.30
   2   8  -5   49.00    3.50
   2   8  -5   43.60    3.40
  -2  -8   5   47.00    3.50
   2   8  -5   48.40    3.50
   2   8  -5   43.20    3.50
   2   8  -4   38.40    3.20
   2   8  -4   40.50    3.20
  -2  -8   4   41.20    3.20
   2   8  -4   37.70    3.20
  -2  -8   4   42.60    3.30
  -2  -8   4   37.70    3.10
   2   8  -4   31.90    3.00
   2   8  -4   40.90    3.40
   2   8  -3  210.38    7.40
   2   8  -3  207.88    7.20
  -2  -8   3  212.68    7.50
  -2  -8   3  223.08    7.30
   2   8  -3  216.78    7.50
  -2  -8   3  208.08    7.20
   2   8  -3  203.78    7.50
   2   8  -3  212.28    7.60
  -2  -8   2    9.90    1.70
   2   8  -2   13.20    1.90
   2   8  -2   11.70    1.90
  -2  -8   2   16.40    2.20
   2   8  -2   16.20    2.20
  -2  -8   2   10.50    1.60
   2   8  -2   11.80    1.90
  -2  -8   1   50.99    3.70
  -2  -8   1   52.79    3.90
   2   8  -1   51.39    3.70
  -2  -8   1   49.00    3.40
   2   8  -1   47.60    3.30
  -2  -8   1   52.19    3.70
   2   8  -1   45.20    3.40
   2   8  -1   50.89    3.70
  -2  -8   0   96.99    5.00
  -2  -8   0   91.69    4.90
   2   8   0   94.59    4.80
   2   8   0   98.99    4.50
  -2  -8   0   96.29    4.80
   2   8   0   97.79    4.90
   2   8   0  105.89    4.90
  -2  -8  -1    8.50    1.50
   2   8   1    9.20    1.20
  -2  -8  -1    7.20    1.30
   2   8   1    6.70    1.20
  -2  -8  -1    7.30    1.50
  -2  -8  -2    8.40    1.40
  -2  -8  -2    5.70    1.10
   2   8   2    6.00    0.90
   2   8   2    7.70    1.20
  -2  -8  -3    0.60    0.40
  -2  -9  10   29.70    2.00
  -2  -9  10   32.30    1.90
   2   9 -10   31.90    2.10
  -2  -9   9   31.30    2.20
   2   9  -9   28.90    2.20
  -2  -9   9   30.30    2.20
  -2  -9   8   65.99    3.40
  -2  -9   8   62.59    3.30
   2   9  -8   64.59    3.60
  -2  -9   8   64.29    3.40
  -2  -9   7    0.70    0.60
   2   9  -7    2.70    0.90
  -2  -9   7    1.30    0.80
  -2  -9   7    2.10    0.60
   2   9  -7    3.20    0.80
  -2  -9   6  185.18    5.80
   2   9  -6  184.08    6.50
  -2  -9   6  179.88    6.00
  -2  -9   6  178.68    6.30
   2   9  -6  163.98    6.00
  -2  -9   5    0.40    0.50
   2   9  -5   -0.60    0.90
   2   9  -5    0.20    0.70
   2   9  -5    0.90    1.00
  -2  -9   5    0.50    0.80
  -2  -9   5    0.10    0.70
   2   9  -4    1.80    0.90
  -2  -9   4    1.30    0.60
  -2  -9   4   -0.50    0.50
  -2  -9   4    0.00    0.70
   2   9  -4    1.50    0.90
   2   9  -4    0.60    0.80
   2   9  -4    0.80    0.70
  -2  -9   3    3.60    1.00
   2   9  -3    3.80    1.10
  -2  -9   3    1.50    0.80
   2   9  -3    1.50    0.80
   2   9  -3    3.40    0.90
   2   9  -3    1.30    0.70
  -2  -9   2   16.90    2.10
   2   9  -2   19.10    2.10
   2   9  -2   20.40    2.00
  -2  -9   2   17.80    2.00
  -2  -9   2   19.60    2.00
   2   9  -2   18.70    2.00
   2   9  -2   18.60    2.10
  -2  -9   1   26.00    2.30
  -2  -9   1   24.50    2.30
   2   9  -1   28.90    2.50
   2   9  -1   28.50    2.20
   2   9  -1   30.10    2.40
   2   9  -1   31.60    2.50
  -2  -9   0   62.19    3.30
   2   9   0   58.99    3.00
  -2  -9   0   55.39    3.00
   2   9   0   59.29    2.70
  -2  -9  -1   52.49    2.60
  -2  -9  -1   51.09    2.40
   2  10  -8    0.70    0.50
  -2 -10   8    0.10    0.40
   2  10  -7   32.50    2.00
   2  10  -7   33.80    2.30
  -2 -10   7   34.40    2.10
   2  10  -6   27.00    2.10
  -2 -10   6   26.80    1.90
   2  10  -6   28.40    2.10
  -2 -10   5    7.20    1.10
   2  10  -5   10.00    1.40
   2  10  -5    6.20    1.00
  -2 -10   5    6.90    1.20
   2  10  -5    8.10    1.20
  -2 -10   4   36.60    2.40
   2  10  -4   40.40    2.50
  -2 -10   4   38.50    2.50
   2  10  -4   38.10    2.40
   2  10  -4   36.40    2.50
  -2 -10   3   26.60    2.00
   2  10  -3   24.60    1.90
   2  10  -3   26.50    1.90
  -2 -10   3   23.80    1.70
  -2 -10   3   25.40    1.80
   2  10  -3   25.00    2.00
  -2 -10   2    8.30    1.10
   2  10  -2    9.50    1.10
   2  10  -2    9.10    1.10
  -2 -10   2    8.70    1.10
   2  10  -2    9.70    1.20
  -3  11  -2   53.89    2.50
   3 -11   2   59.69    2.60
  -3  11  -2   57.09    2.60
   3 -11   3   12.40    1.30
  -3  11  -3   12.60    1.30
  -3  11  -3   11.90    1.30
   3 -10  -2    6.80    1.00
  -3  10   2    8.10    1.00
   3 -10  -2    6.70    0.90
  -3  10   2    9.00    1.20
   3 -10  -1   55.59    3.00
  -3  10   1   53.49    2.90
  -3  10   1   47.30    2.80
   3 -10  -1   52.79    2.60
  -3  10   0   -0.80    0.80
   3 -10   0    0.40    0.80
   3 -10   0    1.30    0.70
  -3  10   0    1.80    0.90
   3 -10   0   -0.10    0.50
  -3  10   0    1.50    0.70
   3 -10   1   25.70    2.20
  -3  10  -1   23.60    2.20
  -3  10  -1   23.50    2.30
   3 -10   1   23.10    2.10
   3 -10   1   24.90    2.20
   3 -10   2   20.20    2.10
  -3  10  -2   16.80    2.00
   3 -10   2   17.50    2.00
  -3  10  -2   18.20    2.10
   3 -10   3   40.60    2.90
   3 -10   3   43.70    3.00
  -3  10  -3   36.30    2.80
  -3  10  -3   41.10    2.90
   3 -10   3   37.50    2.50
   3 -10   4   39.90    2.80
  -3  10  -4   37.80    2.70
  -3  10  -4   37.00    2.70
   3 -10   4   37.30    2.50
  -3  10  -5   11.20    1.50
  -3  10  -5   14.10    1.70
   3 -10   5   12.70    1.50
  -3  10  -6   10.80    1.30
   3 -10   6   13.00    1.20
  -3  10  -6   11.60    1.30
   3 -10   6   10.80    1.30
   3 -10   6   11.60    1.40
   3  -9  -4    0.20    0.60
  -3   9   4    0.90    0.40
  -3   9   4    0.20    0.50
   3  -9  -4    0.30    0.60
   3  -9  -4    0.80    0.50
   3  -9  -3   40.20    2.80
   3  -9  -3   39.40    2.60
  -3   9   3   34.30    2.60
  -3   9   3   35.50    2.50
  -3   9   3   37.90    2.60
  -3   9   2    1.20    0.80
   3  -9  -2    1.20    0.90
   3  -9  -2    1.40    0.70
  -3   9   2    1.00    0.80
  -3   9   2    0.60    0.80
   3  -9  -1   31.40    2.80
   3  -9  -1   24.10    2.20
   3  -9  -1   23.80    2.20
  -3   9   1   30.10    2.50
  -3   9   1   26.60    2.60
  -3   9   1   29.90    2.80
  -3   9   1   27.60    2.40
   3  -9  -1   28.50    2.40
  -3   9   1   25.30    2.50
   3  -9   0   73.99    4.30
   3  -9   0   75.89    4.10
   3  -9   0   68.09    3.90
  -3   9   0   71.69    4.30
  -3   9   0   70.09    4.30
   3  -9   1  248.88    7.90
   3  -9   1  258.67    7.80
  -3   9  -1  242.08    7.90
   3  -9   1  257.47    7.70
  -3   9  -1  251.37    8.20
  -3   9  -2   25.00    2.70
   3  -9   2   32.30    2.90
   3  -9   2   25.70    2.60
   3  -9   2   31.20    2.50
   3  -9   2   29.60    2.70
  -3   9  -2   32.00    2.90
   3  -9   3   -0.10    0.80
  -3   9  -3    0.20    0.70
   3  -9   3    1.10    0.70
   3  -9   3   -0.20    0.90
   3  -9   4   46.20    3.40
  -3   9  -4   45.10    3.30
   3  -9   4   46.20    3.40
   3  -9   4   45.50    3.20
   3  -9   5    2.20    0.90
  -3   9  -5    0.90    0.80
   3  -9   5    1.20    0.80
  -3   9  -6    0.50    0.70
   3  -9   6   -0.20    0.70
   3  -9   7   22.50    1.90
  -3   9  -7   22.10    1.80
   3  -9   7   24.50    2.20
   3  -9   8   35.70    2.20
   3  -8  -6    0.60    0.60
   3  -8  -6    0.50    0.50
  -3   8   6    1.10    0.50
   3  -8  -6    0.80    0.50
   3  -8  -5   52.79    3.10
  -3   8   5   54.79    3.20
  -3   8   5   52.69    2.80
   3  -8  -5   52.19    3.00
   3  -8  -4  153.78    5.90
   3  -8  -4  149.09    5.40
  -3   8   4  149.39    5.80
  -3   8   4  152.38    5.60
  -3   8   4  150.58    5.70
   3  -8  -3   17.10    2.20
  -3   8   3   16.60    2.10
   3  -8  -3   17.10    2.00
  -3   8   3   16.80    2.20
  -3   8   3   16.70    2.00
  -3   8   3   16.60    2.00
   3  -8  -2    1.90    0.90
  -3   8   2    0.30    0.80
   3  -8  -2    1.50    0.90
  -3   8   2    2.80    0.90
  -3   8   2   -0.10    0.90
  -3   8   2    0.60    0.70
  -3   8   2    3.60    1.00
   3  -8  -1  224.18    7.80
  -3   8   1  198.58    7.50
   3  -8  -1  209.68    6.70
   3  -8  -1  219.38    7.10
  -3   8   1  218.88    7.00
  -3   8   1  230.38    8.00
   3  -8  -1  218.38    7.00
  -3   8   0   12.70    2.00
   3  -8   0   10.20    1.70
   3  -8   0   10.90    1.70
  -3   8   0   14.50    2.20
   3  -8   0   10.10    1.60
   3  -8   1    8.40    1.70
  -3   8  -1    6.50    1.40
  -3   8  -1    6.70    1.50
  -3   8  -1    5.60    1.30
   3  -8   1    7.70    1.50
  -3   8  -1    3.50    1.20
   3  -8   1    8.90    1.60
   3  -8   2   71.89    4.40
  -3   8  -2   63.19    4.30
  -3   8  -2   64.09    4.20
  -3   8  -2   65.39    4.30
   3  -8   2   68.19    4.20
  -3   8  -2   65.49    4.90
   3  -8   2   68.79    4.20
   3  -8   2   71.99    4.00
  -3   8  -3   47.20    3.80
  -3   8  -3   43.50    3.50
   3  -8   3   46.90    3.50
  -3   8  -3   46.80    4.20
  -3   8  -3   47.00    3.50
   3  -8   3   49.60    3.60
   3  -8   3   46.80    3.30
  -3   8  -4   37.20    3.40
  -3   8  -4   36.40    3.20
  -3   8  -4   38.90    3.10
   3  -8   4   33.70    3.00
   3  -8   4   37.90    3.20
   3  -8   4   35.90    2.90
   3  -8   5   41.50    3.20
   3  -8   5   43.20    3.20
   3  -8   6    1.00    0.70
   3  -8   7   41.90    2.80
   3  -8   7   42.60    3.30
   3  -8   8   22.00    2.10
   3  -7  -7   15.60    1.50
   3  -7  -7   15.40    1.40
  -3   7   7   17.40    1.70
   3  -7  -7   13.40    1.40
  -3   7   7   14.60    1.50
   3  -7  -7   14.70    1.50
   3  -7  -6   -0.20    0.70
  -3   7   6    0.70    0.60
   3  -7  -6    1.50    0.70
  -3   7   6    2.20    0.70
  -3   7   6    2.30    0.80
   3  -7  -6    1.70    0.80
  -3   7   5   10.10    1.70
   3  -7  -5    8.20    1.60
  -3   7   5    9.50    1.60
   3  -7  -5    8.50    1.50
  -3   7   5    7.10    1.50
   3  -7  -5   13.60    1.80
  -3   7   5    9.30    1.50
   3  -7  -4   29.10    2.80
  -3   7   4   32.10    2.90
   3  -7  -4   27.90    2.60
  -3   7   4   26.90    2.70
   3  -7  -4   31.70    2.70
  -3   7   4   30.20    2.80
   3  -7  -3   49.00    3.60
  -3   7   3   53.19    3.70
  -3   7   3   41.80    4.00
  -3   7   3   42.40    3.40
   3  -7  -3   44.80    3.20
  -3   7   3   48.40    3.60
  -3   7   3   49.99    3.60
  -3   7   2   30.50    2.90
  -3   7   2   28.60    2.60
   3  -7  -2   30.30    2.90
  -3   7   2   28.00    3.40
   3  -7  -2   31.10    3.40
   3  -7  -2   28.20    2.50
  -3   7   2   28.00    2.60
   3  -7  -2   27.80    2.90
  -3   7   2   28.50    2.80
   3  -7  -1  228.88    7.60
  -3   7   1  229.28    7.80
  -3   7   1  236.38    9.20
   3  -7  -1  259.07    9.40
  -3   7   1  230.58    7.80
  -3   7   1  236.08    7.90
  -3   7   0    0.90    0.60
  -3   7   0    1.60    1.00
   3  -7   0    0.70    0.80
  -3   7  -1    9.60    1.70
  -3   7  -1    8.20    1.90
  -3   7  -1    7.10    1.50
   3  -7   1    9.80    1.90
  -3   7  -2  142.19    6.30
  -3   7  -2  152.58    6.40
   3  -7   2  148.99    7.10
  -3   7  -2  140.09    7.00
  -3   7  -3   40.50    3.50
  -3   7  -3   37.20    3.20
  -3   7  -3   35.40    3.00
  -3   7  -3   38.70    3.70
   3  -7   3   38.50    3.40
   3  -7   3   35.00    3.50
  -3   7  -4   16.70    2.30
  -3   7  -4   14.30    2.10
   3  -7   4   15.30    2.00
  -3   7  -4   11.70    2.10
   3  -7   4   12.70    2.20
   3  -7   4   13.60    2.10
   3  -7   4   16.80    2.10
   3  -7   4   14.50    1.90
  -3   7  -4   12.50    1.90
  -3   7  -5    1.00    0.90
  -3   7  -5    0.40    0.60
   3  -7   5    1.80    0.90
  -3   7  -5    1.00    0.60
  -3   7  -5    0.90    0.90
   3  -7   5    1.80    0.80
   3  -7   6   13.60    1.80
   3  -7   7    0.80    0.70
   3  -7   7    1.90    1.30
   3  -7   7    0.70    0.70
   3  -7   8    8.40    2.00
   3  -7   8    9.40    1.60
  -3   6   8    2.70    0.80
   3  -6  -8    2.80    0.90
  -3   6   8    1.60    0.70
   3  -6  -7    3.10    1.00
  -3   6   7    1.90    0.90
  -3   6   7    4.40    0.90
  -3   6   7    2.40    1.00
   3  -6  -7    2.50    0.80
  -3   6   6  102.69    5.10
  -3   6   6  102.09    5.10
  -3   6   6   96.69    4.80
   3  -6  -6  100.49    4.70
   3  -6  -6   96.09    4.80
  -3   6   6   97.19    4.90
   3  -6  -5   87.89    4.80
   3  -6  -5   84.49    4.60
  -3   6   5   87.59    4.80
   3  -6  -5   85.69    4.50
  -3   6   5   86.59    4.80
  -3   6   5   93.09    4.90
  -3   6   5   87.89    4.80
  -3   6   5   86.09    4.60
   3  -6  -4    5.30    1.40
   3  -6  -4    6.30    1.40
  -3   6   4    5.40    1.20
   3  -6  -4    3.20    1.10
  -3   6   4    3.00    0.90
  -3   6   4    4.60    1.30
  -3   6   4    3.50    1.10
  -3   6   4    5.90    1.60
  -3   6   4    6.80    1.50
   3  -6  -4    6.50    1.50
  -3   6   4    4.60    1.30
   3  -6  -3   76.99    4.40
  -3   6   3   84.39    5.50
   3  -6  -3   89.29    4.80
  -3   6   3   78.59    4.90
   3  -6  -3   71.09    4.60
   3  -6  -2   42.60    3.20
  -3   6   2   35.10    3.00
  -3   6   2   45.30    3.90
   3  -6  -2   46.30    3.40
  -3   6   2   40.70    3.40
   3  -6  -2   40.70    3.30
  -3   6   1   24.20    2.30
  -3   6   1   23.60    2.80
  -3   6   1   21.20    2.30
   3  -6  -1   25.10    2.70
   3  -6  -1   22.50    2.70
   3  -6  -1   24.50    2.50
   3  -6  -1   25.80    2.50
  -3   6   0   20.70    2.20
  -3   6   0   21.10    2.30
   3  -6   0   24.80    2.70
  -3   6   0   19.80    2.40
   3  -6   0   19.70    2.50
  -3   6  -1   17.00    2.10
  -3   6  -1   16.10    2.10
  -3   6  -1   17.10    2.30
   3  -6   1   19.20    2.30
   3  -6   1   18.80    2.50
  -3   6  -2  100.59    5.00
  -3   6  -2  107.59    5.10
   3  -6   2   96.19    5.50
  -3   6  -2   99.09    5.50
   3  -6   2  101.79    5.30
  -3   6  -3  178.28    6.80
  -3   6  -3  173.38    6.50
   3  -6   3  166.08    7.20
  -3   6  -3  182.08    7.70
   3  -6   3  186.98    7.20
  -3   6  -4   35.90    3.20
   3  -6   4   33.20    3.40
  -3   6  -4   36.50    3.10
  -3   6  -4   39.10    3.80
   3  -6   4   33.80    3.20
  -3   6  -5   18.90    2.40
  -3   6  -5   18.70    2.30
  -3   6  -5   18.00    2.70
   3  -6   5   16.30    2.50
   3  -6   5   19.00    2.40
   3  -6   5   19.10    2.10
   3  -6   5   18.90    2.50
  -3   6  -6  468.85   11.60
   3  -6   6  455.65   10.00
  -3   6  -6  465.05   13.00
   3  -6   6  466.75   11.40
   3  -6   6  437.76    9.40
   3  -6   6  461.65    9.80
   3  -6   6  468.85   11.60
   3  -6   7   35.60    2.80
   3  -6   7   35.10    3.10
   3  -6   7   30.50    3.10
   3  -6   8   34.30    2.90
   3  -6   8   43.50    3.20
   3  -6   8   38.70    3.20
   3  -6   9    8.00    2.30
   3  -5  -9   16.10    1.70
  -3   5   9   15.70    1.60
  -3   5   8    0.30    0.80
  -3   5   8    0.50    0.50
  -3   5   8    0.30    0.70
   3  -5  -7   18.50    2.10
  -3   5   7   18.60    2.10
  -3   5   7   20.20    2.30
  -3   5   7   19.20    2.30
   3  -5  -6  128.19    5.80
   3  -5  -6  131.79    5.70
   3  -5  -6  131.69    5.60
   3  -5  -6  136.59    5.60
  -3   5   6  136.29    5.90
  -3   5   6  133.69    5.90
  -3   5   6  134.69    5.90
  -3   5   6  131.39    5.80
  -3   5   6  118.99    5.50
   3  -5  -5   23.10    2.50
   3  -5  -5   22.90    2.40
  -3   5   5   23.30    2.50
   3  -5  -5   27.40    2.60
   3  -5  -5   22.50    2.30
  -3   5   5   26.70    2.70
  -3   5   5   30.20    2.70
  -3   5   5   27.80    3.10
   3  -5  -5   29.90    3.00
  -3   5   5   23.10    2.50
  -3   5   5   23.90    2.90
  -3   5   5   27.10    2.60
   3  -5  -4   10.50    1.60
  -3   5   4    9.30    1.90
  -3   5   4   13.00    2.20
   3  -5  -4   11.70    1.60
   3  -5  -4   13.60    1.70
   3  -5  -4   14.10    1.80
  -3   5   4   11.10    1.90
  -3   5   4   12.60    1.80
   3  -5  -4   13.40    2.00
   3  -5  -3   13.30    1.80
   3  -5  -3   13.40    1.80
  -3   5   3   13.00    2.10
  -3   5   3   11.70    1.90
  -3   5   3   13.80    2.00
   3  -5  -3   10.50    1.50
   3  -5  -3   14.50    2.00
  -3   5   3   11.40    1.50
   3  -5  -2   80.29    3.90
  -3   5   2   81.19    4.00
  -3   5   2   88.69    4.90
   3  -5  -2   76.89    4.20
  -3   5   2   78.29    4.30
  -3   5   2   74.49    4.30
   3  -5  -2   83.89    3.90
   3  -5  -2   81.39    4.30
   3  -5  -1   46.20    2.80
  -3   5   1   46.20    2.90
  -3   5   1   45.50    3.00
  -3   5   1   48.30    3.20
  -3   5   1   50.49    3.30
   3  -5  -1   47.50    3.40
   3  -5  -1   43.30    3.10
  -3   5   1   47.80    3.20
   3  -5  -1   42.90    2.80
   3  -5  -1   47.60    3.00
  -3   5   0  474.75    9.40
  -3   5   0  491.05    9.60
   3  -5   0  491.15   10.70
  -3   5   0  487.15   10.40
   3  -5   0  483.75   10.70
   3  -5   0  475.45    9.80
  -3   5  -1    1.50    0.80
  -3   5  -1    2.80    0.90
  -3   5  -1    1.20    0.80
   3  -5   1    0.20    0.80
  -3   5  -1    2.70    0.80
  -3   5  -2   15.50    1.90
  -3   5  -2   16.60    1.90
  -3   5  -2   21.00    2.40
   3  -5   2   15.50    2.10
   3  -5   2   17.80    2.20
  -3   5  -2   18.50    1.90
  -3   5  -3  156.48    6.00
  -3   5  -3  148.99    5.70
   3  -5   3  148.89    6.40
  -3   5  -3  156.88    6.70
   3  -5   3  160.68    6.50
  -3   5  -4    3.10    1.00
   3  -5   4    4.10    1.20
   3  -5   4    3.20    1.30
  -3   5  -4    3.20    1.20
  -3   5  -5    7.40    1.40
  -3   5  -5    8.00    1.80
   3  -5   5    8.70    1.80
   3  -5   5    6.60    1.50
   3  -5   6    9.00    1.50
   3  -5   6   10.30    1.90
   3  -5   6    8.30    1.80
   3  -5   6    9.30    1.70
   3  -5   6    6.40    1.40
  -3   5  -6   11.00    2.10
  -3   5  -7  113.19    5.70
   3  -5   7  112.79    5.00
   3  -5   7  107.19    5.70
   3  -5   7  121.89    6.00
   3  -5   8    1.90    1.40
   3  -5   8    2.60    1.10
   3  -5   8    1.60    0.90
   3  -5   9   88.79    4.50
  -3   4  10    7.70    1.10
  -3   4  10   10.60    1.40
   3  -4 -10    8.50    1.10
  -3   4   9   10.90    1.50
  -3   4   9   12.50    1.70
  -3   4   9   12.40    1.70
  -3   4   8  116.39    5.20
  -3   4   8  121.39    5.50
  -3   4   8  116.79    5.50
   3  -4  -7   26.90    2.70
  -3   4   7   24.00    2.50
   3  -4  -7   23.10    2.40
  -3   4   7   19.20    2.30
  -3   4   7   24.00    2.60
  -3   4   7   23.90    2.60
   3  -4  -6  236.48    7.50
  -3   4   6  232.68    8.60
   3  -4  -6  245.88    8.40
  -3   4   6  244.38    7.80
  -3   4   6  240.38    8.80
   3  -4  -6  242.98    7.80
  -3   4   5  119.69    5.90
   3  -4  -5  118.09    5.00
   3  -4  -5  124.89    5.00
   3  -4  -5  131.19    6.00
  -3   4   5  130.29    5.40
  -3   4   5  118.69    6.00
   3  -4  -5  130.09    5.50
  -3   4   4  107.89    5.30
  -3   4   4  112.19    5.60
   3  -4  -4  107.19    4.80
  -3   4   4  104.79    5.30
   3  -4  -4  106.49    4.50
  -3   4   4  111.29    4.60
   3  -4  -4  109.09    5.20
   3  -4  -4  103.89    4.30
   3  -4  -4  103.99    4.60
   3  -4  -3  465.45    8.90
  -3   4   3  468.75    8.40
  -3   4   3  468.75   10.60
   3  -4  -3  452.95    9.70
   3  -4  -3  458.55    9.50
  -3   4   3  453.85   10.20
   3  -4  -3  453.45    8.80
  -3   4   3  454.25   10.30
  -3   4   3  462.75    8.60
   3  -4  -2   14.90    1.50
  -3   4   2   15.30    1.60
   3  -4  -2   14.40    1.70
  -3   4   2   14.90    1.90
  -3   4   2   13.00    1.70
   3  -4  -2   14.10    1.60
   3  -4  -2   15.20    1.70
  -3   4   2   15.30    1.50
  -3   4   2   12.60    1.70
   3  -4  -1    9.40    1.30
   3  -4  -1   10.70    1.20
  -3   4   1    9.50    1.20
  -3   4   1    7.60    1.20
  -3   4   1   10.20    1.40
   3  -4  -1    9.60    1.40
  -3   4   1    8.90    1.40
   3  -4  -1   12.10    1.40
   3  -4  -1    9.80    1.20
  -3   4   0  392.36    7.50
  -3   4   0  383.46    7.60
   3  -4   0  392.06    8.30
   3  -4   0  389.76    7.90
  -3   4   0  379.16    8.20
   3  -4   0  374.46    8.70
   3  -4   0  369.96    7.80
  -3   4   0  389.66    8.20
  -3   4   0  391.66    7.80
  -3   4  -1   84.69    3.70
  -3   4  -1   81.89    3.60
  -3   4  -1   80.69    4.10
   3  -4   1   78.99    3.90
   3  -4   1   74.69    3.50
  -3   4  -1   78.69    3.70
   3  -4   1   74.89    3.70
   3  -4   1   86.39    4.20
  -3   4  -1   79.49    3.60
  -3   4  -2  346.17    7.70
   3  -4   2  326.57    8.20
   3  -4   2  347.47    8.60
   3  -4   2  343.27    8.10
  -3   4  -2  347.97    7.60
   3  -4   3  156.18    6.10
   3  -4   3  162.18    6.10
  -3   4  -3  155.58    6.00
   3  -4   3  156.18    5.70
  -3   4  -3  145.49    5.10
  -3   4  -4    4.20    1.30
  -3   4  -4    3.60    1.20
   3  -4   4    3.30    1.10
   3  -4   4    2.90    1.00
   3  -4   4    2.90    1.10
  -3   4  -4    4.10    1.10
   3  -4   5   19.30    2.60
   3  -4   5   15.70    2.20
  -3   4  -5   17.20    2.30
   3  -4   6  447.06    9.80
   3  -4   6  459.35   11.60
   3  -4   6  471.75   12.10
  -3   4  -6  495.35   13.40
   3  -4   6  464.45   11.30
  -3   4  -7    5.60    1.70
   3  -4   7    5.10    1.20
   3  -4   7    5.40    1.60
   3  -4   7    7.30    1.50
   3  -4   7    5.60    1.60
   3  -4   8   64.49    4.00
   3  -4   8   65.19    4.40
   3  -4   8   72.19    4.30
   3  -4   9   33.90    2.70
   3  -4   9   32.60    3.40
   3  -4  10    0.00    0.70
  -3   3  11    7.20    1.00
  -3   3  10    4.10    1.00
  -3   3   9  135.89    5.70
  -3   3   9  141.09    5.60
  -3   3   9  131.09    5.80
   3  -3  -8  123.69    5.60
  -3   3   8  118.09    5.50
   3  -3  -8  128.79    5.80
  -3   3   8  116.59    5.50
  -3   3   8  111.19    5.30
  -3   3   8  115.59    5.60
   3  -3  -7    0.60    0.60
  -3   3   7    0.90    0.40
  -3   3   7    0.90    0.80
   3  -3  -7    1.20    0.90
  -3   3   7   -0.10    0.80
   3  -3  -7   -1.80    0.90
  -3   3   7    2.00    0.80
  -3   3   7    3.00    0.90
  -3   3   6  343.07    9.80
   3  -3  -6  371.96    9.20
   3  -3  -6  352.26    8.60
   3  -3  -6  375.26   10.00
  -3   3   6  350.36    8.90
   3  -3  -6  346.87    8.90
   3  -3  -5   77.69    3.90
  -3   3   5   79.59    4.50
   3  -3  -5   79.39    4.10
   3  -3  -5   81.69    4.10
   3  -3  -5   74.89    3.80
   3  -3  -5   78.19    4.30
  -3   3   5   74.49    3.80
  -3   3   5   78.39    4.40
   3  -3  -4    7.40    1.30
  -3   3   4    6.40    1.30
   3  -3  -4    8.50    1.20
   3  -3  -4   10.80    1.50
  -3   3   4    6.70    1.40
   3  -3  -4    7.80    1.20
   3  -3  -4    8.00    1.40
  -3   3   4    8.30    1.30
  -3   3   3   27.30    2.30
   3  -3  -3   27.20    2.20
   3  -3  -3   26.60    2.00
  -3   3   3   24.00    2.20
   3  -3  -3   25.50    2.00
   3  -3  -3   24.30    2.10
  -3   3   3   24.80    1.90
  -3   3   2  594.24    8.40
  -3   3   2  595.94    9.70
   3  -3  -2  584.94    8.60
  -3   3   2  589.84    8.20
   3  -3  -2  578.04    9.50
  -3   3   2  612.84   10.30
   3  -3  -2  592.84    8.20
   3  -3  -2  575.84    9.00
  -3   3   2  603.34    8.10
   3  -3  -2  600.74    8.10
  -3   3   1  549.45    7.40
   3  -3  -1  533.55    6.80
  -3   3   1  541.95    7.40
  -3   3   1  557.24    8.00
   3  -3  -1  512.15    8.50
  -3   3   1  553.74    8.30
  -3   3   1  552.94    9.30
   3  -3  -1  539.95    8.20
   3  -3  -1  520.35    7.70
   3  -3  -1  535.85    7.60
  -3   3   1  555.34    8.60
  -3   3   0  114.79    3.80
   3  -3   0  114.09    4.40
   3  -3   0  111.49    3.80
  -3   3   0  114.09    4.20
   3  -3   0  111.39    3.90
   3  -3   0  109.19    3.50
  -3   3   0  115.09    3.90
   3  -3   0  112.09    3.90
   3  -3   1 2370.86   18.80
  -3   3  -1 2335.97   16.10
   3  -3   1 2407.46   20.10
   3  -3   1 2415.06   16.90
  -3   3  -1 2425.76   19.80
   3  -3   1 2444.06   19.20
  -3   3  -1 2400.86   18.40
   3  -3   2   33.00    2.50
   3  -3   2   29.30    2.30
  -3   3  -2   30.30    2.00
   3  -3   2   29.30    2.40
  -3   3  -2   34.60    2.60
  -3   3  -2   31.60    2.40
   3  -3   2   29.40    2.30
  -3   3  -2   30.70    2.90
  -3   3  -2   28.50    2.20
   3  -3   3    1.60    1.00
  -3   3  -3    0.90    0.90
   3  -3   3    2.60    0.90
  -3   3  -3    0.70    0.70
   3  -3   3    0.50    0.50
   3  -3   3   -0.40    0.60
  -3   3  -3    0.60    0.70
  -3   3  -3    2.80    1.20
  -3   3  -3    0.20    0.50
   3  -3   4    8.70    1.70
   3  -3   4   13.90    2.00
   3  -3   4   10.30    1.70
  -3   3  -4   13.90    2.00
  -3   3  -4   13.80    1.80
   3  -3   4   14.00    1.80
  -3   3  -4   12.20    1.80
  -3   3  -4   14.00    1.70
   3  -3   5  210.28    8.00
  -3   3  -5  216.88    8.40
   3  -3   5  200.98    7.50
  -3   3  -5  189.68    7.20
  -3   3  -5  232.98    8.60
   3  -3   6    3.30    1.30
   3  -3   6    6.40    1.40
  -3   3  -6    2.90    1.20
   3  -3   7   -0.50    1.10
   3  -3   7   -0.60    1.10
   3  -3   7   -0.20    1.10
   3  -3   8   20.80    2.50
   3  -3   8   22.10    3.10
   3  -3   9   33.80    2.80
   3  -3  10  132.59    4.10
  -3   2  11    2.20    0.70
  -3   2  11    3.30    0.80
  -3   2  10    5.90    1.20
  -3   2  10    6.00    1.30
  -3   2   9   19.10    2.40
  -3   2   9   17.60    2.10
  -3   2   9   18.00    2.20
  -3   2   8   38.30    3.10
   3  -2  -8   46.60    3.60
  -3   2   8   40.00    3.20
   3  -2  -8   41.00    3.40
  -3   2   8   39.50    3.20
  -3   2   8   39.90    3.20
   3  -2  -8   41.70    3.30
   3  -2  -7  213.48    7.40
   3  -2  -7  216.48    6.90
  -3   2   7  206.18    7.50
   3  -2  -7  217.78    7.70
  -3   2   7  205.08    6.90
   3  -2  -7  214.88    7.20
   3  -2  -6  158.68    5.80
   3  -2  -6  161.68    5.60
   3  -2  -6  153.98    5.70
  -3   2   6  155.28    6.20
   3  -2  -6  162.78    6.20
  -3   2   6  160.78    5.70
   3  -2  -6  152.48    5.60
  -3   2   5  122.29    5.30
   3  -2  -5  129.59    5.20
   3  -2  -5  131.89    4.40
   3  -2  -5  132.29    5.00
   3  -2  -5  126.19    4.60
   3  -2  -5  129.49    4.80
  -3   2   5  125.59    5.40
  -3   2   5  131.59    5.40
  -3   2   5  131.49    4.70
   3  -2  -5  126.89    4.70
   3  -2  -4  200.48    5.30
  -3   2   4  179.48    5.10
   3  -2  -4  182.18    4.80
  -3   2   4  176.38    5.80
   3  -2  -4  185.68    5.10
   3  -2  -4  192.58    5.70
  -3   2   4  193.88    5.80
  -3   2   4  187.28    5.20
   3  -2  -4  191.18    5.10
   3  -2  -3    1.00    0.50
  -3   2   3    0.50    0.50
  -3   2   3    0.60    0.60
   3  -2  -3    1.20    0.60
   3  -2  -3    0.50    0.50
   3  -2  -3    0.90    0.50
  -3   2   3    1.00    0.70
   3  -2  -3    0.90    0.60
  -3   2   2   13.40    1.20
  -3   2   2   11.80    1.40
  -3   2   2   12.60    1.60
  -3   2   2   14.10    1.30
   3  -2  -2   11.70    1.00
   3  -2  -2   11.60    1.30
  -3   2   2   11.10    1.10
   3  -2  -2   13.60    1.40
  -3   2   2   12.60    1.50
   3  -2  -2   13.20    1.20
   3  -2  -2   10.50    1.10
  -3   2   2   12.00    1.30
   3  -2  -1  700.53    9.10
   3  -2  -1  694.93    8.90
   3  -2  -1  660.03    8.70
  -3   2   1  728.33   10.10
   3  -2  -1  721.33    8.20
   3  -2  -1  697.33    7.90
  -3   2   1  703.03    8.80
   3  -2  -1  660.03    7.40
   3  -2  -1  692.93   10.90
  -3   2   1  724.73    8.90
   3  -2   0  702.23    8.30
  -3   2   0  694.23    8.50
  -3   2   0  726.13    8.60
   3  -2   0  704.93    9.70
   3  -2   0  684.73    8.30
  -3   2   0  678.13    9.90
   3  -2   0  689.73    9.30
   3  -2   0  717.63    9.70
   3  -2   0  709.83    7.70
  -3   2   0  691.43    9.60
  -3   2   0  686.33    9.00
   3  -2   1   64.09    3.00
   3  -2   1   63.89    3.30
  -3   2  -1   66.19    3.30
   3  -2   1   71.49    3.30
   3  -2   1   70.09    2.90
  -3   2  -1   65.09    2.80
   3  -2   1   65.59    3.20
  -3   2  -1   66.59    3.10
  -3   2  -1   68.99    3.40
  -3   2  -1   61.99    2.90
   3  -2   2  945.11   13.80
   3  -2   2  977.30   12.20
  -3   2  -2 1015.70   13.40
  -3   2  -2  971.60   13.40
  -3   2  -2 1014.50   11.40
   3  -2   2 1025.90   12.30
   3  -2   2  951.60   12.70
   3  -2   2 1017.50   12.90
  -3   2  -2  955.30   16.60
  -3   2  -2  993.30   13.90
   3  -2   3   76.59    4.30
  -3   2  -3   76.89    4.30
  -3   2  -3   83.99    3.60
   3  -2   3   78.49    3.90
  -3   2  -3   76.59    4.30
   3  -2   3   78.19    3.90
   3  -2   3   71.39    3.50
  -3   2  -3   82.89    4.10
   3  -2   3   77.79    3.80
  -3   2  -3   77.49    3.90
  -3   2  -3   78.19    4.30
  -3   2  -3   85.09    5.60
  -3   2  -4  223.98    6.20
  -3   2  -4  219.08    8.00
   3  -2   4  217.98    7.10
  -3   2  -4  237.38    7.50
  -3   2  -4  215.98    7.90
   3  -2   4  226.48    6.80
  -3   2  -4  225.28    7.80
  -3   2  -4  222.58    7.00
   3  -2   4  232.18    8.00
   3  -2   5    7.50    1.60
  -3   2  -5   14.70    2.40
   3  -2   5    9.70    1.80
  -3   2  -5   10.40    1.80
  -3   2  -5   10.30    1.50
  -3   2  -5   10.30    1.70
  -3   2  -5    9.90    1.90
   3  -2   6   44.10    3.90
  -3   2  -6   47.30    3.80
   3  -2   6   41.80    3.60
  -3   2  -6   44.90    3.90
   3  -2   7   27.50    3.00
   3  -2   7   27.00    2.60
   3  -2   7   24.10    2.80
   3  -2   7   24.60    2.70
   3  -2   8   72.39    4.50
   3  -2   8   77.19    4.40
   3  -2   9  112.99    4.40
   3  -2   9  102.59    4.60
  -3   1  12   26.90    1.90
  -3   1  12   26.10    2.10
  -3   1  11   89.39    4.10
  -3   1  11   94.09    4.60
  -3   1  10   71.19    4.20
  -3   1  10   67.29    4.10
  -3   1  10   69.49    4.40
   3  -1  -9    2.40    1.00
  -3   1   9    3.70    1.00
  -3   1   9    2.60    1.10
  -3   1   9    4.20    1.00
  -3   1   9    0.00    1.30
   3  -1  -8  914.01   15.80
   3  -1  -8  877.31   14.40
  -3   1   8  898.21   17.40
  -3   1   8  897.81   14.30
   3  -1  -8  905.81   15.70
   3  -1  -8  852.71   14.70
   3  -1  -7   36.10    2.80
   3  -1  -7   29.60    2.70
   3  -1  -7   32.00    2.70
  -3   1   7   32.70    3.20
  -3   1   7   34.40    2.90
   3  -1  -7   33.60    3.00
  -3   1   7   31.90    2.60
  -3   1   6   17.00    2.00
   3  -1  -6   16.10    1.70
   3  -1  -6   15.90    1.90
   3  -1  -6   15.40    1.80
   3  -1  -6   16.20    1.80
  -3   1   6   16.40    2.10
  -3   1   6   17.10    1.80
   3  -1  -5   11.50    1.40
   3  -1  -5    8.60    1.40
  -3   1   5   10.50    1.50
   3  -1  -5    9.40    1.40
   3  -1  -5   10.90    1.40
  -3   1   5   11.20    1.40
  -3   1   5   11.30    1.60
  -3   1   4   43.80    2.40
   3  -1  -4   41.50    2.30
   3  -1  -4   44.40    2.50
   3  -1  -4   43.50    2.70
  -3   1   4   45.70    2.80
   3  -1  -4   45.30    2.40
  -3   1   4   44.20    2.60
  -3   1   3    4.00    0.80
   3  -1  -3    3.80    1.00
   3  -1  -3    3.40    0.80
   3  -1  -3    3.30    0.70
  -3   1   3    4.50    0.80
  -3   1   3    5.00    1.00
   3  -1  -3    3.80    0.90
  -3   1   3    3.60    0.80
   3  -1  -3    4.90    0.90
   3  -1  -3    2.60    0.60
  -3   1   2   47.50    2.20
   3  -1  -2   46.90    2.10
  -3   1   2   50.69    2.30
  -3   1   2   43.50    2.70
   3  -1  -2   46.20    2.00
   3  -1  -2   47.00    2.40
   3  -1  -2   43.60    2.20
  -3   1   2   48.80    2.60
   3  -1  -2   41.80    2.50
  -3   1   2   48.10    3.00
   3  -1  -2   44.10    2.90
   3  -1  -2   45.90    2.10
  -3   1   1   57.59    3.60
  -3   1   1   65.39    2.50
   3  -1  -1   62.19    2.70
   3  -1  -1   70.19    2.60
  -3   1   1   67.59    3.00
   3  -1  -1   69.39    2.40
   3  -1  -1   65.39    2.80
  -3   1   1   64.89    2.80
   3  -1  -1   64.19    3.60
  -3   1   1   70.99    3.50
  -3   1   1   69.09    2.00
   3  -1   0   27.40    2.00
  -3   1   0   28.30    1.80
  -3   1   0   26.30    2.10
  -3   1   0   24.60    1.60
   3  -1   0   25.20    1.90
   3  -1   0   27.50    1.60
   3  -1   0   30.80    1.90
   3  -1   0   26.60    1.50
  -3   1   0   28.90    2.10
  -3   1   0   30.10    1.80
   3  -1   0   27.10    2.00
  -3   1   0   28.80    2.10
  -3   1   0   31.20    1.90
   3  -1   1  961.90   12.60
  -3   1  -1  968.30   12.40
  -3   1  -1  935.61   10.50
  -3   1  -1  887.41   11.90
  -3   1  -1  966.60   10.00
  -3   1  -1  963.40   10.10
   3  -1   1  936.71   10.00
   3  -1   1  886.31   11.10
   3  -1   1  961.50   11.10
   3  -1   1  909.61   11.90
  -3   1  -1  922.51   12.20
  -3   1  -1  955.30    9.80
  -3   1  -1  923.71   11.60
  -3   1  -2   59.69    3.50
   3  -1   2   61.09    3.60
   3  -1   2   60.99    3.10
  -3   1  -2   63.39    2.80
  -3   1  -2   58.39    3.50
  -3   1  -2   58.69    2.80
  -3   1  -2   64.19    3.50
  -3   1  -2   58.69    2.70
   3  -1   2   59.89    3.10
   3  -1   2   63.29    3.40
  -3   1  -2   62.89    3.50
  -3   1  -3 1223.78   17.50
  -3   1  -3 1206.98   13.00
  -3   1  -3 1212.28   17.20
  -3   1  -3 1227.08   16.10
   3  -1   3 1235.98   14.90
   3  -1   3 1226.48   14.10
   3  -1   3 1259.37   15.50
  -3   1  -3 1212.68   16.50
  -3   1  -4    5.50    1.50
   3  -1   4    9.10    1.80
   3  -1   4    6.20    1.30
  -3   1  -4    6.30    1.50
  -3   1  -4    6.70    1.50
  -3   1  -4   11.40    1.40
   3  -1   5    3.70    1.30
   3  -1   5    3.30    1.10
  -3   1  -5    4.10    1.30
  -3   1  -5    5.90    1.50
  -3   1  -6   17.00    2.70
   3  -1   6   18.90    2.60
   3  -1   6   16.80    2.10
   3  -1   6   17.40    2.30
   3  -1   6   14.70    2.20
   3  -1   6   16.70    2.70
  -3   1  -6   19.10    2.60
   3  -1   7   31.80    3.10
  -3   1  -7   35.40    3.00
   3  -1   7   28.80    2.70
   3  -1   8   22.60    2.60
   3  -1   8   16.50    2.20
   3  -1   8   16.60    2.00
   3  -1   9    0.20    0.70
   3  -1   9    0.00    0.50
  -3   0  12    1.50    0.80
  -3   0  11    5.10    1.20
  -3   0  11    4.40    1.30
  -3   0  10  310.17    8.70
  -3   0  10  345.57    9.70
   3   0  -9  248.78    8.30
  -3   0   9  261.77    7.30
  -3   0   9  241.08    7.70
  -3   0   9  248.38    8.00
   3   0  -9  275.87    8.90
   3   0  -9  256.57    8.00
  -3   0   9  263.07    7.30
  -3   0   9  267.47    8.50
  -3   0   9  262.07    9.60
   3   0  -9  230.98    7.80
   3   0  -8    6.60    1.40
  -3   0   8    5.10    1.10
  -3   0   8    6.70    1.60
   3   0  -8    4.10    1.10
  -3   0   8    4.80    1.10
   3   0  -7  138.89    5.00
   3   0  -7  139.29    5.70
  -3   0   7  142.19    5.10
   3   0  -7  134.39    5.60
   3   0  -7  144.69    5.40
  -3   0   7  126.49    6.00
  -3   0   7  141.19    5.20
   3   0  -6   57.89    3.00
  -3   0   6   62.39    3.40
   3   0  -6   56.29    3.30
  -3   0   6   62.09    3.00
   3   0  -6   53.09    3.30
   3   0  -6   61.89    3.20
  -3   0   6   56.49    3.70
  -3   0   6   54.09    3.00
  -3   0   5  116.19    3.80
   3   0  -5  118.39    3.90
   3   0  -5  124.09    4.10
   3   0  -5  120.39    4.40
  -3   0   5  115.39    3.70
   3   0  -5  115.29    4.50
  -3   0   5  116.29    4.30
  -3   0   5  108.79    4.50
  -3   0   4  933.71   10.00
  -3   0   4  912.51   11.10
   3   0  -4  905.01    9.90
   3   0  -4  925.81    9.40
  -3   0   4  936.91   11.40
   3   0  -4  922.01   10.80
  -3   0   4  919.31   11.10
   3   0  -4  938.51   10.10
   3   0  -4  908.61   11.60
  -3   0   4  921.71    9.00
   3   0  -3   28.80    1.70
   3   0  -3   27.60    1.90
   3   0  -3   29.70    1.40
   3   0  -3   31.20    1.90
  -3   0   3   27.80    1.90
  -3   0   3   29.90    1.90
  -3   0   3   31.40    2.00
   3   0  -3   29.50    1.70
  -3   0   3   29.80    1.70
   3   0  -2    0.90    0.70
   3   0  -2    0.30    0.70
   3   0  -2    1.30    0.60
  -3   0   2    0.50    0.40
  -3   0   2    0.80    0.50
  -3   0   2    0.80    0.50
  -3   0   2    1.10    0.70
   3   0  -1   88.89    3.10
  -3   0   1   88.69    3.40
  -3   0   1   90.19    4.10
  -3   0   1   88.59    2.90
   3   0  -1   93.89    3.20
  -3   0   1   93.59    3.20
   3   0  -1   93.29    2.80
   3   0  -1   97.39    3.60
  -3   0   1   89.59    4.10
   3   0   0  167.38    4.80
  -3   0   0  168.78    4.90
  -3   0   0  164.88    4.20
  -3   0   0  170.08    4.20
  -3   0   0  156.58    4.30
   3   0   0  169.18    4.50
   3   0   0  164.48    3.90
   3   0   0  154.78    4.90
  -3   0   0  160.98    4.40
   3   0   1  113.79    4.50
   3   0   1  110.09    4.00
  -3   0  -1  112.49    3.60
  -3   0  -1  105.19    3.70
   3   0   1  111.49    3.50
   3   0   1  109.69    4.00
  -3   0  -1  105.19    4.20
   3   0   1  107.49    4.30
  -3   0  -1  102.19    3.70
   3   0   2    1.90    0.90
  -3   0  -2    1.40    0.60
  -3   0  -2    0.40    0.50
   3   0   2    1.40    0.80
   3   0   2    1.40    0.70
  -3   0  -2    1.10    0.80
   3   0   3   90.89    4.90
  -3   0  -3   90.89    4.10
  -3   0  -3   90.69    4.20
   3   0   3   97.59    4.50
  -3   0  -3   92.99    4.70
  -3   0  -4  139.09    6.90
   3   0   4  145.39    6.70
  -3   0  -4  136.49    5.50
  -3   0  -4  129.99    5.50
   3   0   5   49.60    4.20
  -3   0  -5   50.09    3.60
  -3   0  -5   47.40    3.60
  -3   0  -5   52.89    4.60
   3   0   6    2.10    1.00
   3   0   6    6.50    1.50
   3   0   6    3.50    1.10
  -3   0  -6    7.50    1.90
   3   0   7   71.29    4.20
   3   0   7   71.69    4.60
   3   0   8   86.89    4.50
   3   0   8   93.09    4.40
   3   0   8   90.29    4.70
   3   0   9    1.50    0.70
   3   0   9   -0.20    0.60
  -3  -1  12   15.40    1.80
  -3  -1  11  128.99    5.70
  -3  -1  10  221.28    6.90
  -3  -1  10  214.18    7.20
  -3  -1  10  210.88    7.70
  -3  -1  10  211.28    7.40
   3   1 -10  205.68    7.10
   3   1  -9  237.18    7.30
  -3  -1   9  237.98    7.20
  -3  -1   9  254.67    7.40
  -3  -1   9  241.18    7.80
   3   1  -9  243.18    8.30
  -3  -1   9  244.48    7.80
  -3  -1   9  229.98    9.00
   3   1  -9  236.68    7.80
  -3  -1   9  234.88    7.90
   3   1  -8    0.80    0.60
  -3  -1   8    2.20    1.00
   3   1  -8    1.00    0.70
  -3  -1   8    2.90    1.10
   3   1  -8    1.00    0.60
   3   1  -8   -0.10    0.90
   3   1  -7  136.79    5.00
   3   1  -7  132.09    5.40
   3   1  -7  132.09    5.40
   3   1  -7  131.79    5.10
  -3  -1   7  142.59    5.10
   3   1  -7  121.49    5.40
  -3  -1   7  127.39    5.90
  -3  -1   7  127.89    4.70
   3   1  -6  530.75    8.90
   3   1  -6  525.15    9.50
   3   1  -6  532.25    8.40
   3   1  -6  535.75   10.00
  -3  -1   6  540.35    9.00
   3   1  -6  522.25   10.40
  -3  -1   6  497.35   10.60
  -3  -1   5   21.00    1.60
   3   1  -5   21.30    1.70
   3   1  -5   18.40    1.60
  -3  -1   5   20.20    1.90
  -3  -1   5   17.80    1.60
   3   1  -5   19.20    1.80
  -3  -1   5   19.20    1.90
   3   1  -5   20.20    2.00
   3   1  -5   20.30    1.60
   3   1  -4  390.86    6.40
   3   1  -4  388.86    6.50
  -3  -1   4  403.56    7.60
   3   1  -4  391.06    6.40
  -3  -1   4  406.26    7.60
   3   1  -4  392.16    7.20
   3   1  -4  406.86    7.80
  -3  -1   4  409.96    6.70
  -3  -1   4  393.76    7.30
   3   1  -3  355.16    5.60
  -3  -1   3  372.76    6.90
  -3  -1   3  366.06    6.90
   3   1  -3  367.46    6.70
   3   1  -3  365.96    6.70
  -3  -1   3  360.26    6.00
  -3  -1   3  373.06    6.20
   3   1  -2    5.30    0.90
  -3  -1   2    7.50    0.90
  -3  -1   2    6.50    1.00
   3   1  -2    5.80    0.90
   3   1  -2    5.30    0.90
  -3  -1   2    5.40    0.80
   3   1  -2    5.30    1.00
  -3  -1   2    4.50    1.00
   3   1  -2    6.70    1.20
   3   1  -1  876.71   10.00
  -3  -1   1  919.71   10.70
  -3  -1   1  914.51    9.40
  -3  -1   1  908.31    9.70
   3   1  -1  903.61   10.90
   3   1  -1  883.81    8.40
   3   1  -1  851.51   11.40
  -3  -1   1  917.31   10.90
  -3  -1   1  869.41   13.80
   3   1  -1  841.42   13.60
   3   1  -1  869.81    9.80
  -3  -1   1  890.81   10.60
  -3  -1   0    5.30    1.10
   3   1   0    7.70    1.10
  -3  -1   0    5.40    1.00
   3   1   0    5.40    1.10
   3   1   0    5.40    1.00
  -3  -1   0    5.50    0.90
  -3  -1   0    6.20    1.10
  -3  -1   0    5.80    1.00
   3   1   0    6.10    1.20
  -3  -1  -1    7.70    1.50
   3   1   1    5.70    1.30
   3   1   1    6.80    1.10
  -3  -1  -1    6.50    1.20
  -3  -1  -1    5.00    1.00
   3   1   1    6.60    1.20
   3   1   1    5.20    1.30
  -3  -1  -2  186.38    5.90
  -3  -1  -2  185.18    6.00
   3   1   2  204.78    5.90
   3   1   2  201.98    6.70
  -3  -1  -2  184.18    7.10
   3   1   2  188.38    6.70
  -3  -1  -3   31.40    2.70
  -3  -1  -3   29.70    2.70
   3   1   3   34.70    2.90
  -3  -1  -3   32.10    3.30
   3   1   3   36.20    3.40
   3   1   4   51.89    4.30
  -3  -1  -4   58.39    4.00
  -3  -1  -4   56.99    4.00
  -3  -1  -4   58.09    4.70
  -3  -1  -5    3.20    1.30
   3   1   5    4.70    1.10
   3   1   5    2.60    1.00
   3   1   5    5.00    1.50
   3   1   5    5.60    1.20
  -3  -1  -5    3.30    1.30
  -3  -1  -5    2.50    1.00
  -3  -1  -5    1.60    0.80
   3   1   6    5.50    1.30
   3   1   6    6.30    1.50
  -3  -1  -6    7.70    1.30
   3   1   6    3.80    1.20
   3   1   7   12.40    1.80
   3   1   7   12.10    1.80
   3   1   8   69.69    3.50
   3   1   8   70.59    3.80
   3   1   8   69.39    3.60
  -3  -2  12    0.10    0.60
  -3  -2  11   10.90    1.80
  -3  -2  10    7.30    1.50
   3   2 -10    3.40    1.00
  -3  -2  10    7.80    1.40
  -3  -2  10    9.60    1.40
  -3  -2  10    5.60    1.30
   3   2 -10    8.60    1.60
   3   2  -9   19.20    2.20
  -3  -2   9   19.70    2.10
  -3  -2   9   12.00    1.70
   3   2  -9   15.80    2.20
  -3  -2   9   19.20    2.30
   3   2  -9   15.70    2.10
  -3  -2   9   20.20    2.70
   3   2  -8   66.39    3.80
   3   2  -8   65.99    4.20
   3   2  -8   65.49    4.10
  -3  -2   8   62.69    3.80
   3   2  -8   59.79    4.00
  -3  -2   8   55.69    4.30
   3   2  -7   83.39    3.90
   3   2  -7   83.89    4.40
   3   2  -7   85.89    3.80
   3   2  -7   79.49    4.20
  -3  -2   7   81.59    4.00
   3   2  -7   85.79    4.60
  -3  -2   7   72.39    4.50
   3   2  -6   45.10    2.70
   3   2  -6   48.00    3.00
   3   2  -6   46.60    3.00
  -3  -2   6   46.90    3.10
   3   2  -6   53.29    2.80
  -3  -2   6   52.99    3.00
   3   2  -6   51.09    3.40
  -3  -2   6   47.00    3.30
   3   2  -5   40.80    2.40
   3   2  -5   44.40    2.70
   3   2  -5   41.40    2.30
  -3  -2   5   48.80    2.90
  -3  -2   5   46.90    2.90
  -3  -2   5   48.30    2.60
   3   2  -5   50.49    3.10
   3   2  -5   45.50    2.80
  -3  -2   5   44.70    3.00
   3   2  -4 1111.89   10.90
   3   2  -4 1084.29   11.20
   3   2  -4 1104.19   10.80
  -3  -2   4 1099.39   12.90
   3   2  -4 1118.89   12.90
  -3  -2   4 1107.79   13.10
  -3  -2   4 1094.09   12.90
   3   2  -3    1.50    0.50
  -3  -2   3    1.80    0.60
  -3  -2   3    2.50    0.80
   3   2  -3    3.40    0.70
  -3  -2   3    1.80    0.70
   3   2  -3    2.10    0.80
  -3  -2   3    2.70    0.70
   3   2  -3    1.50    0.50
   3   2  -3    1.70    0.80
  -3  -2   2 1077.89   10.10
   3   2  -2  997.60   11.00
   3   2  -2 1046.50   12.60
  -3  -2   2 1038.50   10.30
   3   2  -2  997.70   12.00
  -3  -2   2 1027.40   12.20
   3   2  -1 1178.78   12.60
  -3  -2   1 1259.17   11.40
  -3  -2   1 1217.28   11.90
  -3  -2   1 1220.88   13.80
   3   2  -1 1176.18   14.40
  -3  -2   1 1264.47   12.90
  -3  -2   1 1209.18   12.40
   3   2  -1 1243.98   14.50
  -3  -2   1 1256.17   10.90
   3   2   0  173.08    6.10
  -3  -2   0  183.68    5.70
  -3  -2   0  175.88    5.40
   3   2   0  180.98    6.00
   3   2   0  178.48    5.20
   3   2   0  163.78    5.90
  -3  -2   0  173.08    6.10
   3   2   0  166.28    5.50
   3   2   1   23.60    2.00
   3   2   1   22.40    2.40
  -3  -2  -1   25.70    2.30
  -3  -2  -1   27.70    2.40
   3   2   1   23.80    2.50
  -3  -2  -1   20.60    2.40
   3   2   1   21.90    2.30
  -3  -2  -2   17.10    2.00
  -3  -2  -2   18.40    2.10
   3   2   2   20.70    2.40
  -3  -2  -2   21.10    2.70
   3   2   2   18.80    2.40
  -3  -2  -3   -0.40    1.00
   3   2   3   -0.20    1.00
  -3  -2  -3    0.20    1.00
  -3  -2  -3    1.40    0.90
  -3  -2  -3    0.90    0.80
   3   2   3    0.00    0.40
  -3  -2  -4  142.79    6.50
  -3  -2  -4  131.69    6.30
  -3  -2  -4  130.99    7.10
   3   2   4  148.29    7.40
   3   2   5   59.79    4.00
   3   2   5   60.19    4.20
   3   2   5   58.29    4.00
  -3  -2  -5   62.49    4.40
  -3  -2  -5   66.99    4.60
   3   2   6   63.39    4.10
   3   2   6   54.69    3.70
   3   2   7   90.89    4.30
   3   2   7   96.59    4.80
   3   2   7   95.09    4.30
   3   2   8   48.00    2.60
  -3  -3  12   95.89    3.60
  -3  -3  12   82.89    4.10
  -3  -3  11    8.20    1.30
  -3  -3  11    8.30    1.60
   3   3 -10  118.69    5.30
  -3  -3  10  113.69    4.80
  -3  -3  10  105.89    5.40
  -3  -3  10  107.39    5.40
   3   3 -10  120.59    5.60
  -3  -3  10  117.49    5.40
   3   3  -9  126.09    5.40
  -3  -3   9  125.19    5.50
  -3  -3   9  119.19    5.60
   3   3  -9  120.49    5.80
  -3  -3   9  120.79    5.50
  -3  -3   9  131.29    5.40
  -3  -3   9  118.29    6.50
   3   3  -8   79.19    4.10
   3   3  -8   87.69    4.90
   3   3  -8   88.99    4.80
   3   3  -8   79.49    4.80
  -3  -3   8   76.19    5.10
   3   3  -8   88.09    4.20
  -3  -3   8   85.09    4.50
   3   3  -7  144.99    5.90
   3   3  -7  141.49    5.10
   3   3  -7  148.09    5.20
   3   3  -7  150.28    5.90
  -3  -3   7  146.69    5.50
  -3  -3   7  133.99    6.30
   3   3  -7  152.48    6.30
   3   3  -6    4.10    1.00
   3   3  -6    3.90    0.90
  -3  -3   6    4.30    1.00
   3   3  -6    3.70    1.00
  -3  -3   6    4.60    1.10
  -3  -3   6    3.70    1.20
   3   3  -5  163.58    4.70
   3   3  -5  156.18    4.70
  -3  -3   5  169.88    5.50
  -3  -3   5  152.28    5.30
   3   3  -5  157.78    5.40
  -3  -3   5  159.88    5.90
   3   3  -5  156.48    4.80
   3   3  -4   74.29    2.90
   3   3  -4   74.59    3.30
   3   3  -4   68.09    3.50
  -3  -3   4   68.89    3.20
  -3  -3   4   75.09    3.60
   3   3  -4   68.49    3.10
  -3  -3   4   66.19    3.40
  -3  -3   4   78.19    3.80
   3   3  -3  700.13   10.00
   3   3  -3  700.53   10.70
   3   3  -3  712.03    9.30
  -3  -3   3  695.33    9.60
   3   3  -3  697.03   11.20
  -3  -3   3  676.03   10.50
  -3  -3   3  712.73   10.60
   3   3  -2  665.93   10.00
   3   3  -2  652.53   11.20
  -3  -3   2  704.33    9.00
  -3  -3   2  658.73   10.70
   3   3  -2  696.33   11.50
  -3  -3   2  665.93   10.70
  -3  -3   2  699.83    9.40
   3   3  -2  669.13    9.50
   3   3  -1  216.18    6.00
   3   3  -1  228.78    6.90
  -3  -3   1  222.88    5.40
  -3  -3   1  219.08    5.50
   3   3  -1  208.28    6.90
  -3  -3   1  216.38    6.30
  -3  -3   1  212.78    6.00
  -3  -3   0  242.68    5.80
  -3  -3   0  222.38    6.80
   3   3   0  239.78    7.60
   3   3   0  227.98    6.40
  -3  -3   0  225.58    7.10
   3   3   0  231.88    7.80
   3   3   0  216.98    7.40
  -3  -3   0  239.08    6.30
  -3  -3   0  227.98    6.90
   3   3   0  224.88    6.90
  -3  -3  -1  242.08    6.00
   3   3   1  230.48    8.40
  -3  -3  -1  230.38    7.20
  -3  -3  -1  234.58    7.40
  -3  -3  -1  228.78    7.90
   3   3   1  224.38    6.60
   3   3   1  220.68    7.80
   3   3   1  242.48    8.00
   3   3   2   14.80    2.20
  -3  -3  -2   16.90    2.20
  -3  -3  -2   17.10    2.20
  -3  -3  -2   18.30    2.50
   3   3   2   16.60    2.30
   3   3   3    8.10    1.90
  -3  -3  -3    7.50    1.60
  -3  -3  -3    8.50    1.60
  -3  -3  -3    9.00    2.00
   3   3   4  128.79    5.80
  -3  -3  -4  122.69    6.20
  -3  -3  -4  140.09    6.70
   3   3   4  115.59    5.70
   3   3   4  122.79    6.90
   3   3   5   74.69    4.50
   3   3   5   73.99    4.40
   3   3   6    2.90    0.90
   3   3   6    4.70    1.20
   3   3   6    3.40    0.90
   3   3   7    2.00    0.70
   3   3   7    2.80    0.70
  -3  -4  12    5.50    1.00
  -3  -4  11   12.00    1.60
  -3  -4  10   -0.10    0.90
  -3  -4  10    0.60    0.60
  -3  -4  10   -0.30    1.00
   3   4 -10   -0.60    0.60
  -3  -4  10    1.30    0.90
  -3  -4   9   10.20    1.50
   3   4  -9   10.40    1.70
  -3  -4   9    8.90    1.70
   3   4  -9    7.60    1.40
   3   4  -9    7.00    1.50
  -3  -4   9    8.10    1.60
  -3  -4   9    9.30    1.60
  -3  -4   9    4.30    1.30
   3   4  -8   48.30    3.30
   3   4  -8   50.39    4.00
   3   4  -8   49.50    3.30
  -3  -4   8   49.90    3.50
  -3  -4   8   50.09    4.20
   3   4  -7  127.79    5.00
   3   4  -7  129.39    5.10
  -3  -4   7  129.89    5.40
  -3  -4   7  127.59    6.30
   3   4  -7  132.89    5.70
   3   4  -6  486.65    9.10
   3   4  -6  501.75    9.40
   3   4  -6  485.15    9.40
  -3  -4   6  480.15   10.00
  -3  -4   6  489.85    9.80
  -3  -4   6  501.45   11.60
   3   4  -6  478.55   10.30
   3   4  -5  162.98    4.90
   3   4  -5  158.68    5.30
   3   4  -5  164.18    5.80
  -3  -4   5  155.98    5.50
   3   4  -5  157.78    5.20
  -3  -4   5  157.68    5.50
   3   4  -5  155.78    5.80
  -3  -4   5  162.78    6.30
  -3  -4   4  131.09    5.00
   3   4  -4  127.29    4.80
   3   4  -4  129.09    4.50
  -3  -4   4  120.59    4.80
  -3  -4   4  127.79    4.70
   3   4  -4  131.79    5.30
  -3  -4   4  136.49    5.50
  -3  -4   3    4.80    1.00
   3   4  -3    3.10    1.00
   3   4  -3    5.60    1.20
   3   4  -3    5.90    1.00
   3   4  -3    4.10    1.10
  -3  -4   3    4.50    1.10
  -3  -4   3    4.90    1.10
   3   4  -2  398.06    8.70
  -3  -4   2  424.86    9.50
  -3  -4   2  438.36    8.40
   3   4  -2  411.56   10.20
  -3  -4   2  425.86    9.30
   3   4  -2  436.76   10.10
  -3  -4   2  430.66    9.00
   3   4  -2  418.16    8.80
   3   4  -1  109.29    4.70
  -3  -4   1  123.09    4.50
  -3  -4   1  128.59    4.50
   3   4  -1  105.49    5.50
  -3  -4   1  119.29    5.20
   3   4  -1  127.09    5.80
  -3  -4   1  115.99    5.00
   3   4   0   71.99    3.90
  -3  -4   0   76.09    3.70
   3   4   0   75.39    5.00
  -3  -4   0   76.39    4.40
  -3  -4   0   78.79    4.30
  -3  -4   0   76.89    4.10
   3   4   1    3.60    1.40
  -3  -4  -1    2.50    0.90
   3   4   1    2.20    0.90
  -3  -4  -1    2.50    1.00
   3   4   1    2.10    1.40
  -3  -4  -1    3.40    1.10
  -3  -4  -1    3.20    1.30
   3   4   1    0.80    0.90
   3   4   2  103.49    5.80
  -3  -4  -2  101.09    5.40
  -3  -4  -2  100.59    5.50
  -3  -4  -2  103.79    6.10
   3   4   2  101.39    6.00
   3   4   3  595.74   12.30
  -3  -4  -3  600.34   13.30
  -3  -4  -3  609.54   13.70
   3   4   3  601.64   12.70
   3   4   4   61.79    4.10
   3   4   4   65.19    4.10
   3   4   5    1.30    0.70
   3   4   5    1.90    0.90
   3   4   5    2.20    0.90
   3   4   6   58.29    3.00
  -3  -4  -6   55.19    3.00
   3   4   6   54.99    2.90
  -3  -5  12   27.10    2.10
  -3  -5  11   20.60    2.10
  -3  -5  11   17.80    1.90
  -3  -5  10    2.00    0.80
  -3  -5  10    1.70    0.80
  -3  -5   9   19.50    2.10
   3   5  -9   21.70    2.30
  -3  -5   9   26.10    2.50
   3   5  -9   24.60    2.90
  -3  -5   9   21.50    2.40
   3   5  -9   24.10    2.40
  -3  -5   8   87.69    4.40
   3   5  -8   87.89    4.50
   3   5  -8   92.39    5.50
  -3  -5   8   87.69    4.40
   3   5  -8   81.19    4.30
  -3  -5   8   84.89    4.60
   3   5  -8   84.39    5.20
  -3  -5   8   93.29    4.70
  -3  -5   8   84.39    5.60
   3   5  -7  157.68    5.70
   3   5  -7  167.48    6.00
   3   5  -7  165.58    7.00
   3   5  -7  161.08    5.90
  -3  -5   7  159.28    7.20
  -3  -5   7  165.88    6.30
   3   5  -6   13.40    1.80
   3   5  -6   12.80    1.60
   3   5  -6   13.60    1.80
  -3  -5   6   12.10    1.70
  -3  -5   6   11.50    1.90
   3   5  -6   11.20    1.70
   3   5  -5  218.58    6.90
   3   5  -5  213.58    6.40
  -3  -5   5  218.58    6.80
  -3  -5   5  228.78    8.00
   3   5  -4  261.47    7.60
  -3  -5   4  269.27    7.40
   3   5  -4  271.57    8.50
   3   5  -4  274.57    6.80
   3   5  -4  275.97    8.30
  -3  -5   4  275.17    8.40
   3   5  -3   33.40    2.80
  -3  -5   3   35.50    2.70
   3   5  -3   37.40    3.40
  -3  -5   3   33.50    2.70
   3   5  -3   35.80    3.10
  -3  -5   3   36.40    3.10
  -3  -5   3   32.40    3.00
   3   5  -3   38.30    2.80
   3   5  -2  182.98    6.40
  -3  -5   2  189.28    6.20
   3   5  -2  179.58    7.60
  -3  -5   2  188.88    6.60
   3   5  -2  196.68    7.50
  -3  -5   2  197.78    7.10
   3   5  -2  184.08    6.60
   3   5  -1   51.99    3.50
  -3  -5   1   55.59    3.40
   3   5  -1   43.80    4.00
  -3  -5   1   53.29    3.70
  -3  -5   1   55.29    3.90
  -3  -5   0   53.09    3.40
  -3  -5   0   49.30    3.20
   3   5   0   50.49    4.40
  -3  -5   0   50.29    3.70
   3   5   0   48.90    3.40
  -3  -5   0   52.39    3.80
  -3  -5  -1  201.38    7.40
  -3  -5  -1  239.88    7.20
   3   5   1  217.68    7.50
   3   5   1  213.38    8.80
  -3  -5  -1  237.38    8.30
  -3  -5  -1  215.08    7.00
  -3  -5  -1  215.28    7.60
   3   5   1  229.28    7.60
   3   5   1  232.58    7.50
  -3  -5  -2   24.50    2.60
   3   5   2   29.40    2.80
   3   5   2   24.40    2.60
  -3  -5  -2   26.60    2.70
  -3  -5  -2   31.10    3.10
  -3  -5  -2   27.90    2.60
   3   5   2   28.80    2.70
  -3  -5  -3    4.80    1.10
   3   5   3    5.70    1.40
   3   5   3    9.30    1.60
   3   5   4    2.50    1.00
   3   5   4    1.80    0.90
   3   5   4    2.30    1.00
  -3  -5  -5   11.00    1.40
   3   5   5   11.50    1.30
   3   5   5   11.90    1.50
  -3  -6  12    0.80    0.50
  -3  -6  12    0.40    0.50
  -3  -6  11   20.80    2.00
  -3  -6  11   23.00    2.10
  -3  -6  10   43.00    3.00
  -3  -6  10   39.70    2.90
  -3  -6  10   44.60    3.20
  -3  -6   9   20.80    2.20
  -3  -6   9   20.70    2.20
  -3  -6   9   22.30    2.40
  -3  -6   8    9.80    1.70
   3   6  -8    9.80    1.50
  -3  -6   8   12.10    1.70
   3   6  -8   13.20    2.10
   3   6  -8   13.00    1.80
  -3  -6   8   10.60    1.70
  -3  -6   7   33.40    2.90
   3   6  -7   33.60    2.70
   3   6  -7   37.90    3.10
  -3  -6   7   38.20    3.10
  -3  -6   7   38.10    3.10
   3   6  -7   37.30    3.00
  -3  -6   7   42.70    3.20
   3   6  -7   29.60    3.00
  -3  -6   7   37.00    3.60
   3   6  -6 1613.24   20.00
  -3  -6   6 1606.94   19.50
   3   6  -6 1638.44   18.80
  -3  -6   6 1642.54   23.10
   3   6  -5  305.67    8.70
  -3  -6   5  307.07    8.50
   3   6  -5  330.87    8.10
  -3  -6   5  321.57    9.90
  -3  -6   4   90.19    4.60
   3   6  -4   89.29    4.80
   3   6  -4   96.79    5.60
  -3  -6   4   96.09    5.30
   3   6  -3   38.80    3.20
   3   6  -3   38.60    3.70
  -3  -6   3   39.80    3.50
   3   6  -3   42.20    3.40
  -3  -6   3   41.90    3.10
   3   6  -2   16.30    2.10
  -3  -6   2   19.00    2.20
   3   6  -2   15.50    2.40
  -3  -6   2   19.80    2.60
   3   6  -2   17.10    2.30
  -3  -6   1    5.80    1.50
  -3  -6   1    6.00    1.30
   3   6  -1    4.50    1.30
   3   6  -1    3.00    1.20
  -3  -6   1    4.10    1.10
   3   6  -1    3.60    1.00
  -3  -6   1    2.30    1.10
  -3  -6   1    4.70    1.30
   3   6  -1    2.90    1.10
   3   6  -1    0.90    0.90
  -3  -6   0   97.29    5.30
  -3  -6   0  114.59    5.10
   3   6   0  106.69    5.20
   3   6   0  103.29    5.10
   3   6   0  109.99    6.60
   3   6   0  100.09    5.10
  -3  -6   0  103.79    5.40
  -3  -6   0   93.19    5.30
   3   6   0  106.79    5.30
   3   6   0  105.29    4.90
   3   6   1   31.00    2.90
  -3  -6  -1   29.60    2.90
   3   6   1   32.60    3.00
  -3  -6  -1   31.50    2.70
  -3  -6  -1   26.70    2.70
  -3  -6  -1   28.50    3.00
   3   6   1   34.00    3.00
  -3  -6  -2    2.40    1.10
  -3  -6  -2    2.60    1.00
   3   6   2    3.60    1.00
  -3  -6  -2    2.90    1.20
   3   6   2    5.00    1.40
  -3  -6  -3   35.80    2.80
   3   6   3   38.50    2.70
   3   6   3   34.90    2.70
  -3  -6  -3   37.20    3.00
   3   6   3   40.40    3.10
   3   6   4   28.40    2.30
  -3  -6  -4   30.90    2.30
  -3  -7  12    6.80    0.90
  -3  -7  11  151.68    4.60
  -3  -7  11  151.78    4.90
  -3  -7  10    0.60    0.50
  -3  -7  10   -0.20    0.60
  -3  -7  10    0.20    0.70
   3   7 -10    1.20    0.80
  -3  -7   9   43.80    3.20
  -3  -7   9   44.60    2.90
  -3  -7   9   46.20    3.30
   3   7  -9   46.00    3.30
  -3  -7   8   -0.60    0.90
  -3  -7   8    0.20    0.80
   3   7  -8    0.20    0.60
  -3  -7   7   43.90    3.30
   3   7  -7   47.40    3.50
  -3  -7   7   47.60    3.50
   3   7  -7   47.40    3.30
  -3  -7   7   50.89    3.50
  -3  -7   7   49.20    3.40
   3   7  -7   49.99    3.60
  -3  -7   6    3.40    1.10
  -3  -7   6    3.30    1.00
   3   7  -6    1.50    0.60
  -3  -7   6    2.90    1.10
   3   7  -6    2.80    1.00
  -3  -7   6    1.90    0.80
   3   7  -6    3.80    1.20
  -3  -7   5   94.69    4.70
   3   7  -5   97.89    5.10
   3   7  -5   90.09    4.80
  -3  -7   5   97.29    4.90
  -3  -7   5  101.99    5.10
  -3  -7   5   96.39    4.90
  -3  -7   5   88.39    4.80
   3   7  -5  100.59    5.10
  -3  -7   4    0.00    0.80
  -3  -7   4    0.00    0.60
  -3  -7   4    0.20    0.70
   3   7  -4    0.10    0.60
   3   7  -4    0.10    0.80
   3   7  -4   -2.40    1.10
   3   7  -4   -0.50    0.60
  -3  -7   4    1.60    1.00
   3   7  -4    1.20    0.90
   3   7  -4    0.80    0.90
  -3  -7   3   15.70    2.00
  -3  -7   3   14.90    2.00
   3   7  -3   17.40    2.20
  -3  -7   3   14.30    2.10
   3   7  -3   12.70    1.90
   3   7  -3   16.50    2.00
   3   7  -3   17.70    2.60
  -3  -7   3   15.90    2.20
   3   7  -3   13.40    2.00
   3   7  -3   14.30    2.00
  -3  -7   2   46.60    3.70
   3   7  -2   46.50    3.50
   3   7  -2   52.99    3.60
  -3  -7   2   45.50    3.50
  -3  -7   2   52.99    3.60
   3   7  -2   47.60    3.60
  -3  -7   2   55.89    4.10
   3   7  -2   50.09    3.60
  -3  -7   1    0.40    0.80
   3   7  -1    1.80    0.90
  -3  -7   1    2.70    1.20
  -3  -7   1    1.80    0.90
   3   7  -1    2.10    1.00
   3   7  -1    1.50    0.60
  -3  -7   0   12.60    1.90
  -3  -7   0   11.20    1.90
  -3  -7   0   13.80    2.10
  -3  -7   0   13.00    1.80
   3   7   0   18.30    2.20
   3   7   0   13.20    1.70
   3   7   0   16.50    2.10
  -3  -7  -1   69.09    4.20
  -3  -7  -1   68.19    4.00
  -3  -7  -1   72.39    4.30
   3   7   1   78.69    3.80
  -3  -7  -2   75.59    3.90
  -3  -7  -2   84.99    4.20
  -3  -7  -2   81.69    3.80
   3   7   2   77.89    4.00
  -3  -7  -3   62.99    2.80
  -3  -7  -3   66.09    3.10
   3   7   3   62.29    3.00
  -3  -8  11    6.30    1.00
  -3  -8  10    7.10    1.20
  -3  -8  10    9.30    1.20
  -3  -8   9    8.10    1.40
  -3  -8   9    6.10    1.30
   3   8  -9    7.60    1.30
   3   8  -9    9.80    1.40
  -3  -8   8   37.90    2.90
  -3  -8   8   36.90    2.90
   3   8  -8   36.80    2.80
  -3  -8   7   83.29    4.30
  -3  -8   7   83.89    4.30
  -3  -8   7   85.69    4.40
   3   8  -7   83.89    4.40
   3   8  -7   83.59    4.50
  -3  -8   6   36.60    2.90
  -3  -8   6   35.70    2.90
   3   8  -6   35.60    3.00
   3   8  -6   40.50    3.10
  -3  -8   6   38.10    3.10
   3   8  -6   39.40    3.10
   3   8  -6   35.50    3.10
  -3  -8   5  148.59    5.80
   3   8  -5  141.39    5.80
  -3  -8   5  149.39    5.80
   3   8  -5  146.09    5.90
  -3  -8   5  140.89    5.90
   3   8  -5  146.09    6.10
   3   8  -4  143.99    6.00
  -3  -8   4  146.59    5.60
  -3  -8   4  136.19    5.80
   3   8  -4  142.29    5.70
  -3  -8   4  137.59    5.90
   3   8  -4  152.38    6.20
  -3  -8   3   62.79    3.90
  -3  -8   3   55.79    3.80
   3   8  -3   59.79    3.90
   3   8  -3   63.89    3.70
  -3  -8   3   52.89    3.60
   3   8  -3   64.89    4.10
   3   8  -3   60.49    3.90
  -3  -8   2   61.99    3.90
  -3  -8   2   58.79    3.90
   3   8  -2   59.79    3.80
   3   8  -2   59.89    3.40
   3   8  -2   62.49    3.90
   3   8  -2   65.19    3.90
  -3  -8   1    2.80    1.00
  -3  -8   1    1.80    1.00
   3   8  -1    1.90    0.90
  -3  -8   1    2.60    1.00
   3   8  -1    1.70    0.80
   3   8  -1    2.10    0.80
   3   8   0   30.80    2.30
  -3  -8   0   29.80    2.60
  -3  -8   0   26.90    2.40
  -3  -8   0   26.50    2.40
   3   8   0   29.70    2.20
  -3  -8  -1   27.70    2.20
  -3  -8  -1   29.40    2.10
  -3  -8  -1   28.50    2.20
   3   8   1   24.00    1.90
  -3  -9  10   10.70    1.10
   3   9 -10   10.60    1.20
  -3  -9   9   35.00    2.20
   3   9  -9   34.30    2.30
  -3  -9   9   35.10    2.20
  -3  -9   8   89.89    3.80
  -3  -9   8   83.99    3.60
   3   9  -8   85.39    3.90
  -3  -9   8   89.99    3.80
   3   9  -8   91.29    3.80
  -3  -9   7    8.40    1.30
   3   9  -7    8.90    1.30
  -3  -9   7    8.80    1.30
  -3  -9   7    8.40    1.30
   3   9  -7   10.50    1.40
  -3  -9   6    1.70    0.80
   3   9  -6   -0.40    0.70
   3   9  -6    0.20    0.60
  -3  -9   6   -0.50    0.90
   3   9  -6    0.00    0.70
  -3  -9   5    4.70    1.00
   3   9  -5    4.90    1.10
   3   9  -5    5.70    1.10
  -3  -9   5    6.50    1.30
   3   9  -5    4.70    1.10
   3   9  -5    5.50    1.20
  -3  -9   4   23.60    2.20
   3   9  -4   23.70    2.20
   3   9  -4   22.10    2.00
  -3  -9   4   23.90    2.20
   3   9  -4   22.40    2.10
   3   9  -4   24.80    2.30
  -3  -9   3    1.00    0.70
   3   9  -3    1.10    0.80
   3   9  -3    0.10    0.40
  -3  -9   3   -0.30    0.50
  -3  -9   3    0.20    0.70
   3   9  -3    0.10    0.60
   3   9  -3    0.20    0.60
  -3  -9   2   38.50    2.50
  -3  -9   2   47.60    2.90
   3   9  -2   38.60    2.60
  -3  -9   2   40.20    2.50
   3   9  -2   40.30    2.60
   3   9  -2   40.00    2.60
  -3  -9   1    0.70    0.50
  -3  -9   1   -0.50    0.70
   3   9  -1    1.30    0.60
   3   9  -1    0.00    0.50
   3  10  -7   59.39    2.50
   3  10  -6   15.10    1.30
   3  10  -6   16.40    1.50
   3  10  -5    7.20    1.00
   3  10  -5    7.20    0.90
  -3 -10   5    6.70    1.00
   3  10  -5    7.80    1.10
   3  10  -4   40.20    2.10
  -3 -10   4   38.70    2.10
   3  10  -4   45.00    2.20
   4 -10  -2   25.10    1.80
  -4  10   2   23.00    1.70
  -4  10   2   25.00    1.70
   4 -10  -1   15.30    1.60
  -4  10   1   20.70    1.80
  -4  10   1   17.80    1.70
  -4  10   0    1.00    0.70
   4 -10   0    2.30    0.80
   4 -10   0    1.50    0.70
  -4  10   0    1.90    0.80
   4 -10   0    1.00    0.60
  -4  10   0    2.00    0.80
   4 -10   1   49.40    2.90
  -4  10  -1   46.00    2.90
   4 -10   1   49.20    3.00
   4 -10   1   49.40    2.90
  -4  10  -1   45.80    3.00
   4 -10   2   28.00    2.20
  -4  10  -2   29.80    2.10
  -4  10  -2   31.90    2.20
   4 -10   2   30.00    2.40
  -4  10  -2   28.90    2.30
  -4  10  -2   27.50    2.30
  -4  10  -3    7.70    1.30
  -4  10  -3    8.50    1.30
  -4  10  -3    8.80    1.30
  -4  10  -3   11.70    1.40
   4 -10   3    9.10    1.20
  -4  10  -4   23.30    2.00
  -4  10  -4   23.60    1.90
  -4  10  -4   22.60    1.90
   4 -10   4   24.70    1.90
  -4  10  -4   25.60    2.00
  -4  10  -5    9.70    1.20
  -4  10  -5    7.70    1.00
  -4  10  -5    7.70    1.10
   4 -10   5   10.70    1.20
   4 -10   5    9.70    1.20
   4 -10   5   11.00    1.40
   4  -9  -4   49.80    2.70
  -4   9   4   44.70    2.50
  -4   9   4   44.50    2.40
   4  -9  -4   48.90    2.50
   4  -9  -4   50.49    2.50
   4  -9  -3   26.30    2.30
   4  -9  -3   28.20    2.10
  -4   9   3   24.20    2.10
  -4   9   3   22.90    2.10
   4  -9  -3   27.80    2.00
   4  -9  -2    8.80    1.50
  -4   9   2    8.30    1.40
  -4   9   2    9.00    1.50
   4  -9  -2    9.10    1.30
  -4   9   1   -0.60    1.00
   4  -9  -1    0.80    0.70
   4  -9  -1    0.90    0.60
  -4   9   1    0.50    0.70
  -4   9   1    0.30    0.70
   4  -9   0  180.68    6.60
   4  -9   0  191.48    6.40
  -4   9   0  182.38    6.60
   4  -9   0  192.48    6.20
  -4   9   0  180.98    6.70
   4  -9   1   22.50    2.40
  -4   9  -1   27.40    2.60
   4  -9   1   27.80    2.60
  -4   9  -1   24.20    2.40
  -4   9  -1   25.70    2.50
   4  -9   1   27.10    2.50
  -4   9  -1   27.50    2.70
   4  -9   2   35.80    3.00
  -4   9  -2   33.20    2.80
   4  -9   2   35.90    3.00
  -4   9  -2   35.40    2.90
   4  -9   2   34.00    2.90
  -4   9  -2   32.20    2.80
   4  -9   2   37.80    2.80
  -4   9  -2   33.50    2.90
  -4   9  -3    2.00    0.90
   4  -9   3    1.40    0.90
   4  -9   3    1.70    1.00
  -4   9  -3    4.00    1.10
   4  -9   3    0.40    0.70
  -4   9  -4   18.00    1.90
   4  -9   4   15.90    1.90
  -4   9  -4   18.10    2.00
   4  -9   5   -0.40    0.60
   4  -9   5    0.70    0.70
   4  -9   6   -0.10    0.60
   4  -9   6    0.30    0.50
   4  -9   6   -0.10    0.70
   4  -9   7    0.40    0.50
   4  -8  -6   26.50    1.80
   4  -8  -6   24.00    1.70
  -4   8   6   23.70    1.70
   4  -8  -6   25.80    1.80
   4  -8  -5   38.90    2.60
  -4   8   5   35.60    2.50
   4  -8  -5   39.20    2.60
  -4   8   5   33.60    2.40
   4  -8  -5   37.10    2.40
   4  -8  -5   37.20    2.50
   4  -8  -4   81.29    4.20
   4  -8  -4   85.89    4.10
  -4   8   4   83.29    4.30
  -4   8   4   85.39    4.30
   4  -8  -3    4.10    1.30
  -4   8   3    1.90    0.80
   4  -8  -3    2.80    0.90
  -4   8   3    3.40    1.10
   4  -8  -2   24.00    2.60
  -4   8   2   24.10    2.60
   4  -8  -2   24.10    2.30
  -4   8   2   24.20    2.50
  -4   8   2   25.10    2.60
   4  -8  -1   18.40    2.30
   4  -8  -1   23.60    2.40
  -4   8   1   21.10    2.50
   4  -8  -1   23.50    2.30
  -4   8   1   22.10    2.50
   4  -8   0   21.00    2.50
  -4   8   0   24.10    2.60
  -4   8   0   22.40    2.50
  -4   8   0   25.00    2.60
   4  -8   0   27.80    2.60
  -4   8   0   24.10    2.60
   4  -8   0   26.30    2.50
  -4   8   0   22.90    2.60
  -4   8  -1    4.70    1.40
   4  -8   1    2.70    1.10
  -4   8  -1    1.70    0.90
  -4   8  -1    2.20    0.80
   4  -8   1    3.50    1.10
  -4   8  -1    4.00    1.20
   4  -8   1    5.10    1.30
   4  -8   1    3.10    0.90
  -4   8  -2    0.80    0.70
   4  -8   2    0.50    0.80
  -4   8  -2    1.10    0.70
   4  -8   2    0.40    0.70
  -4   8  -2    0.30    0.70
   4  -8   2    0.10    0.70
   4  -8   2   -0.40    0.90
   4  -8   3   49.80    3.70
   4  -8   3   51.99    3.80
  -4   8  -3   53.79    3.50
   4  -8   3   58.09    3.90
   4  -8   3   50.79    3.50
  -4   8  -3   55.89    3.80
  -4   8  -4    3.90    1.00
   4  -8   4    4.90    1.10
   4  -8   4    3.40    1.10
   4  -8   5   34.10    2.80
   4  -8   6    0.70    0.60
   4  -8   6    1.30    0.90
   4  -8   7    5.30    0.90
   4  -8   7    6.60    1.30
   4  -8   8    6.20    1.00
   4  -7  -7   48.90    2.50
  -4   7   7   45.20    2.50
  -4   7   7   48.00    2.70
   4  -7  -7   46.30    2.50
   4  -7  -7   52.69    2.80
   4  -7  -7   47.60    2.60
   4  -7  -6    4.90    1.10
  -4   7   6    5.30    1.20
   4  -7  -6    5.50    1.10
  -4   7   6    5.00    1.10
   4  -7  -6    5.50    1.10
   4  -7  -6    4.80    1.10
   4  -7  -5   51.29    3.40
  -4   7   5   51.19    3.50
  -4   7   5   49.10    3.50
   4  -7  -5   49.70    3.30
  -4   7   5   57.59    3.50
   4  -7  -5   55.49    3.50
  -4   7   4    9.00    1.60
   4  -7  -4   11.00    1.70
  -4   7   4   10.20    1.80
   4  -7  -4    8.90    1.60
   4  -7  -4    9.50    1.50
  -4   7   3   10.30    1.60
   4  -7  -3    8.50    1.60
  -4   7   3    7.20    1.40
  -4   7   3    6.80    1.50
   4  -7  -3    7.30    1.40
   4  -7  -3    8.40    1.60
  -4   7   2    7.40    1.50
   4  -7  -2    9.00    1.60
  -4   7   2    7.80    1.80
  -4   7   2    7.00    1.70
   4  -7  -2    3.90    1.00
   4  -7  -1  145.99    6.30
  -4   7   1  129.99    6.00
  -4   7   1  126.79    5.70
  -4   7   1  152.58    7.20
   4  -7  -1  150.48    7.20
   4  -7  -1  146.49    5.70
  -4   7   1  140.89    6.00
   4  -7  -1  142.79    5.50
  -4   7   1  131.89    5.90
   4  -7  -1  130.99    6.60
  -4   7   1  149.59    6.40
   4  -7   0   38.80    3.30
  -4   7   0   37.50    3.20
  -4   7   0   34.60    3.20
   4  -7   0   39.30    3.70
   4  -7   0   40.20    3.10
  -4   7   0   37.40    3.10
  -4   7   0   41.50    3.70
   4  -7   0   39.50    3.60
   4  -7   0   39.30    3.00
  -4   7   0   39.50    3.20
   4  -7   1   49.50    3.70
  -4   7  -1   38.20    3.40
  -4   7  -1   43.00    3.60
   4  -7   1   47.70    3.40
   4  -7   1   44.70    4.00
  -4   7  -1   44.80    4.00
   4  -7   1   41.10    3.60
   4  -7   1   48.50    3.40
   4  -7   1   42.50    3.10
  -4   7  -1   41.60    3.10
  -4   7  -1   40.70    3.30
   4  -7   2  217.08    7.60
  -4   7  -2  220.08    8.10
  -4   7  -2  229.38    8.10
   4  -7   2  251.47    8.00
  -4   7  -2  216.08    7.00
   4  -7   2  230.98    8.90
  -4   7  -2  226.08    9.10
   4  -7   2  232.88    8.60
   4  -7   2  237.68    7.70
   4  -7   2  217.08    7.00
   4  -7   3   -2.50    1.00
  -4   7  -3   -0.10    0.90
  -4   7  -3    0.50    0.60
   4  -7   3    0.70    0.80
  -4   7  -3    0.20    0.80
   4  -7   3    1.30    1.00
  -4   7  -3    3.20    0.90
   4  -7   3    0.10    0.90
   4  -7   3    0.40    0.70
   4  -7   3   -0.30    0.90
   4  -7   4    7.50    1.50
  -4   7  -4    2.80    0.90
  -4   7  -4    4.00    1.00
  -4   7  -4    3.70    1.10
   4  -7   4    4.50    1.30
   4  -7   5   19.70    2.50
   4  -7   5   17.90    2.10
   4  -7   5   17.90    2.10
   4  -7   6   10.30    1.80
   4  -7   6    9.30    1.40
   4  -7   6    7.00    1.70
   4  -7   7   64.79    3.70
   4  -7   7   68.69    4.00
   4  -7   8   77.39    3.60
  -4   6   8    5.50    1.00
  -4   6   8    8.70    1.20
   4  -6  -8    6.00    1.10
   4  -6  -8    8.60    1.20
  -4   6   7    6.30    1.30
   4  -6  -7    8.70    1.40
  -4   6   7    8.60    1.40
   4  -6  -7    8.80    1.50
   4  -6  -7    7.60    1.40
  -4   6   7    7.90    1.40
   4  -6  -6  124.59    5.30
  -4   6   6  118.49    5.50
   4  -6  -6  125.09    5.20
  -4   6   6  116.49    5.30
   4  -6  -6  114.69    5.30
  -4   6   6  111.69    5.10
   4  -6  -5   29.70    2.80
   4  -6  -5   24.80    2.50
   4  -6  -5   26.90    2.50
  -4   6   5   27.20    2.80
  -4   6   5   24.20    2.50
   4  -6  -5   28.80    2.70
  -4   6   5   30.60    2.80
  -4   6   5   27.30    2.50
   4  -6  -4   97.59    5.00
   4  -6  -4  101.99    5.00
   4  -6  -4   99.19    4.90
  -4   6   4   96.99    4.90
   4  -6  -4  101.49    5.30
  -4   6   4  101.39    5.80
   4  -6  -4  107.79    5.70
   4  -6  -4   98.19    4.90
  -4   6   4   96.99    6.10
   4  -6  -4  106.29    5.00
  -4   6   4  107.69    5.40
   4  -6  -3   17.80    2.10
   4  -6  -3   18.00    2.10
   4  -6  -3   18.70    2.10
  -4   6   3   16.30    2.10
  -4   6   3   18.60    2.70
   4  -6  -3   20.50    2.70
   4  -6  -3   23.80    2.60
  -4   6   3   15.50    2.30
  -4   6   3   21.70    2.70
   4  -6  -3   22.60    2.50
   4  -6  -3   17.80    2.10
  -4   6   3   19.20    2.30
   4  -6  -2   52.09    3.40
  -4   6   2   54.39    3.70
   4  -6  -2   63.59    4.40
  -4   6   2   53.69    4.20
   4  -6  -2   61.19    4.60
   4  -6  -2   55.69    4.00
  -4   6   2   50.89    3.90
  -4   6   1    1.80    0.80
  -4   6   1    2.10    1.00
   4  -6  -1    0.90    0.80
   4  -6  -1    1.70    1.00
   4  -6  -1    1.30    0.80
  -4   6   0    3.40    1.00
  -4   6   0    6.80    1.40
   4  -6   0    4.40    1.40
  -4   6   0    5.00    1.40
   4  -6   0    3.90    1.10
  -4   6  -1   22.60    2.50
  -4   6  -1   21.80    2.50
   4  -6   1   24.70    2.80
  -4   6  -1   23.80    2.90
   4  -6   1   25.10    2.80
  -4   6  -2   37.00    3.30
   4  -6   2   37.10    3.50
  -4   6  -2   39.80    3.30
  -4   6  -2   41.50    3.80
   4  -6   2   40.70    3.60
  -4   6  -3  141.49    6.40
  -4   6  -3  141.09    6.30
   4  -6   3  138.29    6.70
  -4   6  -3  137.09    7.00
   4  -6   3  141.79    6.60
   4  -6   4    9.30    1.60
  -4   6  -4    8.60    1.70
  -4   6  -4   11.40    1.90
  -4   6  -4    7.80    1.80
   4  -6   4    8.80    1.70
   4  -6   4    7.40    1.70
   4  -6   4    8.40    1.50
  -4   6  -5    7.60    1.60
  -4   6  -5    8.70    1.70
   4  -6   5    8.60    1.50
  -4   6  -5   10.80    2.00
   4  -6   5    8.60    1.80
   4  -6   5    8.00    1.50
   4  -6   5    7.60    1.60
   4  -6   6    0.10    2.20
   4  -6   6   -0.20    0.90
   4  -6   6    0.60    0.90
   4  -6   7   96.69    4.90
   4  -6   7   99.49    4.90
   4  -6   7   99.89    5.00
   4  -6   8   -0.90    0.90
  -4   5   9   53.09    2.80
  -4   5   9   49.40    2.80
   4  -5  -9   50.89    2.90
  -4   5   8    2.30    0.80
  -4   5   8    3.30    1.00
   4  -5  -8    2.20    0.90
   4  -5  -8    3.30    1.00
  -4   5   8    4.60    1.20
  -4   5   7    0.60    0.60
  -4   5   7   -1.40    0.90
   4  -5  -7    0.00    0.90
   4  -5  -7    0.50    0.70
  -4   5   7    1.20    1.00
   4  -5  -6   51.19    3.70
  -4   5   6   57.09    3.90
   4  -5  -6   56.29    3.60
  -4   5   6   52.89    3.60
  -4   5   6   56.99    3.90
  -4   5   6   55.89    3.80
   4  -5  -5   13.60    1.90
   4  -5  -5   13.60    1.90
  -4   5   5   10.00    2.00
   4  -5  -5   17.40    2.10
  -4   5   5   13.70    1.90
  -4   5   5   13.40    1.90
   4  -5  -5   14.30    2.00
  -4   5   5   11.50    2.10
   4  -5  -5   12.60    1.90
   4  -5  -5   14.60    2.10
  -4   5   5   12.80    1.80
  -4   5   5   12.10    1.70
   4  -5  -4  131.29    5.50
   4  -5  -4  137.39    6.10
  -4   5   4  123.39    6.40
   4  -5  -4  135.59    5.60
  -4   5   4  130.99    6.50
   4  -5  -4  133.29    6.20
  -4   5   4  132.59    5.50
   4  -5  -3    2.70    0.80
  -4   5   3    2.60    1.20
   4  -5  -3    2.80    1.00
  -4   5   3    4.60    1.40
  -4   5   3    2.20    0.90
   4  -5  -3    2.50    1.00
   4  -5  -3    1.50    0.60
   4  -5  -2  322.07    7.50
  -4   5   2  300.47    8.00
  -4   5   2  309.47    9.10
   4  -5  -2  321.37    9.70
   4  -5  -2  294.47    8.50
  -4   5   2  305.27    9.20
   4  -5  -2  297.67    7.90
  -4   5   2  309.97    9.10
   4  -5  -2  319.77    9.10
  -4   5   1   23.60    2.30
   4  -5  -1   25.00    2.60
  -4   5   1   23.90    2.50
   4  -5  -1   21.00    2.60
   4  -5  -1   19.10    2.20
  -4   5   1   25.10    2.70
  -4   5   1   23.80    2.60
  -4   5   0  666.43   11.90
  -4   5   0  662.73   12.10
   4  -5   0  646.84   12.70
  -4   5   0  655.83   13.10
   4  -5   0  671.53   13.40
   4  -5   0  644.14   12.00
  -4   5   0  673.63   13.00
   4  -5   0  658.03   12.40
  -4   5  -1    1.50    0.80
  -4   5  -1    0.70    0.80
  -4   5  -1    0.80    0.80
   4  -5   1    0.60    0.60
   4  -5   1    1.20    0.90
   4  -5   1    2.00    0.90
  -4   5  -1   -0.40    0.80
  -4   5  -2    1.90    0.90
  -4   5  -2    3.30    1.20
  -4   5  -2    1.00    0.70
   4  -5   2    1.90    0.80
   4  -5   2    2.80    1.20
   4  -5   2    3.30    1.00
  -4   5  -2    1.80    1.00
  -4   5  -2    1.90    0.90
  -4   5  -3   56.39    3.90
   4  -5   3   61.49    4.30
  -4   5  -3   59.09    4.50
   4  -5   3   62.59    4.30
   4  -5   3   56.69    4.00
  -4   5  -3   61.69    4.60
  -4   5  -3   58.19    3.80
  -4   5  -4    0.40    1.00
  -4   5  -4    1.10    0.70
   4  -5   4    1.50    0.90
   4  -5   4   -0.20    0.70
  -4   5  -4   -0.10    1.00
  -4   5  -5    1.90    0.90
   4  -5   5    1.00    1.50
  -4   5  -5   -0.20    0.90
   4  -5   5    2.80    1.30
   4  -5   5    1.90    1.20
   4  -5   5    1.10    0.90
   4  -5   5    2.70    1.00
  -4   5  -6    6.00    1.40
  -4   5  -6    3.40    1.10
   4  -5   6    4.10    2.30
   4  -5   6    2.70    1.20
   4  -5   6    4.60    1.40
   4  -5   7  104.59    5.40
   4  -5   7  115.59    5.50
   4  -5   7  113.89    5.60
  -4   4  10   16.10    1.50
  -4   4  10   14.10    1.40
  -4   4  10   15.80    1.60
   4  -4 -10   18.00    1.60
  -4   4   9    7.60    1.30
  -4   4   9    4.90    1.20
   4  -4  -9    6.60    1.30
  -4   4   8   21.70    2.40
  -4   4   8   25.00    2.50
   4  -4  -8   20.90    2.20
  -4   4   8   19.20    2.40
   4  -4  -7   55.79    3.80
   4  -4  -7   61.79    3.90
  -4   4   7   62.39    3.90
   4  -4  -7   62.39    3.80
  -4   4   7   60.99    4.00
  -4   4   7   65.19    4.20
  -4   4   7   61.99    4.10
  -4   4   6  113.29    5.30
   4  -4  -6  112.09    5.00
   4  -4  -6  113.09    5.20
  -4   4   6  107.79    6.00
   4  -4  -6  110.99    5.80
  -4   4   6  112.99    5.40
  -4   4   6  117.49    5.40
   4  -4  -6  108.39    5.20
   4  -4  -5  224.28    7.10
   4  -4  -5  210.38    7.40
  -4   4   5  208.48    8.10
   4  -4  -5  213.08    6.90
  -4   4   5  219.78    8.30
   4  -4  -5  214.58    7.80
  -4   4   5  200.38    7.80
  -4   4   5  215.28    7.10
   4  -4  -4   64.69    3.60
   4  -4  -4   64.39    4.10
  -4   4   4   62.49    4.30
   4  -4  -4   69.59    3.90
  -4   4   4   68.49    4.50
   4  -4  -4   67.59    4.20
  -4   4   4   69.09    3.80
   4  -4  -3  177.78    5.50
  -4   4   3  160.38    6.30
   4  -4  -3  167.48    5.70
   4  -4  -3  169.68    6.30
  -4   4   3  164.28    6.70
   4  -4  -3  165.58    6.00
  -4   4   3  165.68    5.40
  -4   4   2  344.67    7.50
  -4   4   2  338.77    7.70
  -4   4   2  330.37    8.40
  -4   4   2  341.87    9.20
   4  -4  -2  348.07    7.80
   4  -4  -2  351.86    7.90
  -4   4   1  303.97    7.40
  -4   4   1  310.37    7.60
   4  -4  -1  317.07    7.90
   4  -4  -1  305.57    8.60
   4  -4  -1  303.57    7.80
  -4   4   1  316.97    8.70
   4  -4  -1  310.67    7.70
   4  -4  -1  310.57    7.20
  -4   4   1  309.77    8.00
  -4   4   0  105.89    4.40
  -4   4   0   94.99    4.30
   4  -4   0   93.49    4.40
  -4   4   0   99.99    4.70
  -4   4   0   92.99    4.70
   4  -4   0   97.09    4.80
   4  -4   0   93.99    4.20
   4  -4   0  105.19    4.70
  -4   4   0  104.49    4.60
  -4   4  -1  214.48    6.60
   4  -4   1  216.78    6.80
   4  -4   1  211.68    7.10
   4  -4   1  213.38    6.10
  -4   4  -1  207.28    7.10
   4  -4   1  210.08    6.90
  -4   4  -1  216.68    7.10
  -4   4  -1  208.28    6.60
  -4   4  -2    9.80    1.50
   4  -4   2    7.70    1.50
   4  -4   2    8.20    1.50
  -4   4  -2   11.70    1.80
   4  -4   2    8.10    1.60
  -4   4  -2   13.20    2.10
  -4   4  -2    8.50    1.50
   4  -4   3  120.49    5.50
   4  -4   3  117.49    5.60
   4  -4   3  112.79    5.40
  -4   4  -3  115.19    6.10
  -4   4  -3  114.89    5.20
   4  -4   4    3.80    1.20
   4  -4   4    4.30    1.20
   4  -4   4    4.30    1.30
  -4   4  -4    5.90    1.50
  -4   4  -4    4.50    1.10
   4  -4   5    1.00    1.60
   4  -4   5    0.70    0.90
   4  -4   5    0.60    1.00
  -4   4  -5    0.30    1.00
   4  -4   5    1.60    0.90
  -4   4  -5    0.10    0.90
  -4   4  -6   50.99    3.70
   4  -4   6   48.70    4.10
   4  -4   6   53.69    4.00
   4  -4   6   53.09    3.90
   4  -4   7   38.70    3.10
   4  -4   7   41.10    3.50
   4  -4   7   40.00    4.20
   4  -4   8    7.10    1.30
   4  -4   9    6.40    0.90
  -4   3  11   42.90    2.30
  -4   3  10    1.10    0.60
  -4   3  10    2.10    0.80
  -4   3  10    2.00    0.80
   4  -3 -10    0.70    0.60
  -4   3   9   53.99    3.70
  -4   3   9   56.29    3.60
  -4   3   9   52.49    3.80
  -4   3   8   30.20    2.90
  -4   3   8   33.40    2.90
   4  -3  -8   26.80    2.60
   4  -3  -8   28.70    2.70
  -4   3   8   27.70    2.70
  -4   3   8   30.90    2.90
   4  -3  -8   31.60    2.90
  -4   3   7    9.90    1.80
   4  -3  -7   13.80    1.90
  -4   3   7    9.40    1.80
   4  -3  -7   10.30    1.70
   4  -3  -7   15.30    2.30
   4  -3  -7    9.90    1.60
  -4   3   7   13.40    2.00
  -4   3   7   11.30    1.80
   4  -3  -7   14.70    2.00
   4  -3  -6  115.49    5.50
   4  -3  -6  109.19    5.00
  -4   3   6  101.09    5.60
   4  -3  -6  108.59    5.60
  -4   3   6  103.39    5.00
   4  -3  -6  110.19    5.00
   4  -3  -5  130.19    5.70
  -4   3   5  126.39    6.00
   4  -3  -5  120.39    5.00
  -4   3   5  121.09    5.90
   4  -3  -5  119.99    5.50
  -4   3   5  118.69    5.10
   4  -3  -5  119.89    4.90
  -4   3   4   87.79    4.10
   4  -3  -4   88.19    4.50
  -4   3   4   90.99    4.90
   4  -3  -4   94.89    4.20
   4  -3  -4   91.39    4.50
  -4   3   4   96.79    4.30
   4  -3  -4  101.69    4.10
  -4   3   3  497.25    9.10
  -4   3   3  475.35    9.60
  -4   3   3  482.65   10.80
   4  -3  -3  476.55    8.90
   4  -3  -3  473.35    9.30
  -4   3   3  486.95    8.80
   4  -3  -3  496.75    8.00
  -4   3   2 1398.66   14.50
  -4   3   2 1409.26   14.00
  -4   3   2 1349.36   14.70
   4  -3  -2 1308.87   15.60
  -4   3   2 1444.46   17.80
   4  -3  -2 1390.16   14.80
   4  -3  -2 1350.16   14.10
  -4   3   2 1402.56   15.70
  -4   3   1  850.01   11.30
   4  -3  -1  847.22   11.20
   4  -3  -1  817.42   12.90
   4  -3  -1  809.62   11.70
  -4   3   1  847.92   13.50
   4  -3  -1  815.42   11.90
   4  -3  -1  831.02   10.60
  -4   3   1  829.82   12.10
  -4   3   1  839.32   10.90
   4  -3   0  463.45    8.40
   4  -3   0  462.75    9.60
   4  -3   0  464.35    8.40
  -4   3   0  439.56    9.90
   4  -3   0  443.06    9.20
   4  -3   0  477.15    9.70
  -4   3   0  456.15    9.40
  -4   3   0  429.66    8.90
  -4   3  -1  968.40   12.50
  -4   3  -1  991.30   15.00
   4  -3   1 1075.49   14.90
   4  -3   1 1021.30   14.80
   4  -3   1 1014.70   14.40
  -4   3  -1 1039.40   15.30
  -4   3  -1  997.50   13.70
  -4   3  -2   28.30    2.20
  -4   3  -2   28.80    2.70
   4  -3   2   23.50    2.40
  -4   3  -2   30.00    2.80
   4  -3   2   26.30    2.60
   4  -3   2   28.70    2.60
  -4   3  -2   28.00    2.80
  -4   3  -2   26.90    2.40
  -4   3  -3  362.36   10.40
  -4   3  -3  374.26    8.30
  -4   3  -3  372.06   10.30
   4  -3   3  366.26    9.50
  -4   3  -3  375.16    9.90
   4  -3   3  366.16    9.60
   4  -3   3  363.56    9.30
  -4   3  -3  356.76   10.40
  -4   3  -3  371.26    9.10
   4  -3   4   67.89    4.80
   4  -3   4   71.59    4.50
  -4   3  -4   78.79    5.20
  -4   3  -4   72.19    4.20
  -4   3  -4   73.59    4.60
   4  -3   5   40.30    3.80
   4  -3   5   38.40    3.20
   4  -3   5   33.60    2.90
   4  -3   5   35.70    3.30
   4  -3   5   44.80    3.60
   4  -3   5   41.80    3.50
  -4   3  -5   38.50    3.80
   4  -3   5   40.60    3.30
  -4   3  -5   40.90    3.30
   4  -3   6    2.00    1.10
   4  -3   6    5.00    1.30
   4  -3   6    0.00    2.80
   4  -3   6    3.70    1.40
  -4   3  -6    0.50    0.90
   4  -3   7    7.30    1.60
   4  -3   7    5.10    1.40
   4  -3   8    2.80    1.00
   4  -3   9   54.39    2.60
  -4   2  11    1.70    0.70
  -4   2  11    1.90    0.80
  -4   2  11    2.00    0.90
  -4   2  10    0.90    0.70
  -4   2  10   -0.60    0.80
  -4   2  10    0.00    1.10
  -4   2   9   69.99    4.30
   4  -2  -8    4.50    1.30
  -4   2   8    2.80    0.90
  -4   2   8    3.50    1.10
  -4   2   8    2.90    1.00
   4  -2  -8    4.00    1.10
   4  -2  -8    5.50    1.40
   4  -2  -8    3.90    1.20
  -4   2   8    3.00    1.00
  -4   2   8    1.90    0.70
   4  -2  -7  354.16    9.50
   4  -2  -7  326.77    9.20
   4  -2  -7  335.67    8.90
   4  -2  -7  333.57    9.90
  -4   2   7  338.37    9.00
   4  -2  -7  326.57    8.90
   4  -2  -6  357.46    8.20
   4  -2  -6  359.76    8.90
   4  -2  -6  347.57    9.30
  -4   2   6  332.77    9.70
   4  -2  -6  357.36    8.70
  -4   2   6  329.97    9.60
   4  -2  -6  347.77    9.50
  -4   2   6  357.46    8.90
   4  -2  -6  357.16    8.60
  -4   2   5  209.68    6.40
   4  -2  -5  223.38    6.20
   4  -2  -5  231.38    6.60
   4  -2  -5  207.88    6.90
  -4   2   5  217.38    7.40
   4  -2  -5  223.38    6.50
  -4   2   5  215.38    6.50
   4  -2  -5  227.78    6.20
  -4   2   4   54.79    3.10
   4  -2  -4   58.19    3.00
   4  -2  -4   54.39    2.90
   4  -2  -4   53.29    3.40
  -4   2   4   55.39    3.60
   4  -2  -4   54.59    3.00
   4  -2  -4   59.29    2.80
  -4   2   3  434.76    8.20
  -4   2   3  445.26    8.10
   4  -2  -3  448.16    7.60
   4  -2  -3  413.76    8.70
   4  -2  -3  429.96    7.60
  -4   2   3  450.05    9.70
   4  -2  -3  440.46    7.80
  -4   2   2   70.69    2.80
   4  -2  -2   62.89    3.20
   4  -2  -2   69.29    3.40
  -4   2   2   66.19    3.70
   4  -2  -2   75.69    3.40
   4  -2  -2   68.09    2.90
  -4   2   2   61.69    3.10
   4  -2  -1  128.59    4.70
   4  -2  -1  132.69    4.30
  -4   2   1  123.59    5.00
   4  -2  -1  116.89    4.40
   4  -2  -1  127.89    4.70
   4  -2  -1  133.89    3.80
  -4   2   1  125.69    4.70
  -4   2   1  120.39    4.40
  -4   2   0   61.69    3.10
   4  -2   0   61.09    3.30
  -4   2   0   57.29    3.50
   4  -2   0   61.69    3.40
   4  -2   0   62.19    3.50
  -4   2   0   63.19    3.60
  -4   2   0   60.59    3.20
   4  -2   1  129.29    5.40
  -4   2  -1  130.39    5.40
  -4   2  -1  129.49    4.60
   4  -2   1  130.59    4.90
   4  -2   1  128.89    5.10
   4  -2   1  134.39    5.30
  -4   2  -1  123.29    5.30
  -4   2  -1  136.29    5.00
   4  -2   2  241.68    7.90
  -4   2  -2  259.57    7.90
  -4   2  -2  252.27    6.60
  -4   2  -2  251.17    6.00
   4  -2   2  239.28    7.10
   4  -2   2  245.88    7.10
  -4   2  -2  258.37    7.80
   4  -2   2  240.08    7.40
  -4   2  -2  239.78    8.00
  -4   2  -2  252.97    7.10
   4  -2   3   -0.50    1.20
  -4   2  -3   -0.30    0.70
   4  -2   3    0.40    0.60
  -4   2  -3    0.00    0.80
   4  -2   3    0.30    0.50
   4  -2   3    0.60    0.70
  -4   2  -3    0.60    0.90
   4  -2   4  424.16   11.80
  -4   2  -4  420.56    9.40
  -4   2  -4  427.36   11.10
   4  -2   4  420.06   10.30
  -4   2  -4  426.06   11.80
   4  -2   5   79.49    5.30
   4  -2   5   73.79    4.40
  -4   2  -5   81.29    4.40
   4  -2   5   83.79    4.90
   4  -2   5   78.09    4.70
  -4   2  -5   81.39    5.00
   4  -2   5   75.99    4.60
  -4   2  -5   81.79    5.30
   4  -2   5   82.99    4.60
   4  -2   5   83.99    4.80
   4  -2   6    4.10    1.30
   4  -2   6    2.50    1.00
  -4   2  -6    3.20    1.20
   4  -2   7   59.59    4.00
   4  -2   8    7.20    1.40
   4  -2   8    6.90    1.20
   4  -2   9    3.70    0.80
  -4   1  12  141.29    4.20
  -4   1  12  150.78    5.10
  -4   1  11   28.20    2.50
  -4   1  10    9.00    1.60
  -4   1  10    7.30    1.40
  -4   1   9   72.09    4.00
  -4   1   9   62.99    4.10
  -4   1   9   70.79    3.90
   4  -1  -9   68.69    4.20
  -4   1   9   69.09    4.10
   4  -1  -9   60.39    4.00
   4  -1  -8  175.58    7.00
   4  -1  -8  165.18    6.50
  -4   1   8  166.48    7.50
   4  -1  -8  168.38    7.10
  -4   1   8  164.18    6.40
   4  -1  -8  159.18    6.40
   4  -1  -7   44.70    3.10
   4  -1  -7   44.50    3.40
   4  -1  -7   43.30    3.40
   4  -1  -7   44.30    3.20
  -4   1   7   42.70    3.60
  -4   1   7   39.30    3.20
  -4   1   7   39.90    3.10
   4  -1  -7   40.40    3.10
   4  -1  -6  141.09    5.10
   4  -1  -6  130.39    5.30
   4  -1  -6  134.09    5.70
  -4   1   6  126.49    5.70
   4  -1  -6  140.99    5.20
  -4   1   6  141.89    5.80
  -4   1   6  144.09    5.40
   4  -1  -6  139.69    5.10
  -4   1   5    1.50    0.70
   4  -1  -5    0.60    0.60
   4  -1  -5   -0.10    0.50
   4  -1  -5    0.10    0.80
  -4   1   5    1.20    0.90
  -4   1   5    0.40    0.60
   4  -1  -5    0.20    0.70
  -4   1   4  431.06    8.10
   4  -1  -4  418.46    7.70
  -4   1   4  416.86    8.50
   4  -1  -4  413.96    8.00
   4  -1  -4  407.06    8.80
  -4   1   4  422.66    9.20
   4  -1  -4  418.26    7.60
   4  -1  -4  435.96    7.00
   4  -1  -3  243.08    5.60
  -4   1   3  248.08    6.20
  -4   1   3  246.18    6.20
   4  -1  -3  236.78    5.70
   4  -1  -3  252.27    6.40
   4  -1  -3  228.78    5.80
  -4   1   3  236.58    6.70
   4  -1  -3  246.88    5.40
   4  -1  -3  238.48    5.60
  -4   1   3  252.27    5.70
   4  -1  -2  130.29    4.50
   4  -1  -2  130.09    4.10
   4  -1  -2  140.19    4.50
  -4   1   2  132.29    5.00
  -4   1   2  147.49    4.60
   4  -1  -2  127.49    4.50
  -4   1   2  141.89    4.50
   4  -1  -2  139.99    3.80
  -4   1   2  130.09    4.10
  -4   1   1  276.87    6.20
  -4   1   1  264.87    6.20
  -4   1   1  270.07    6.10
   4  -1  -1  291.87    6.10
   4  -1  -1  289.47    6.40
   4  -1  -1  302.97    6.00
   4  -1  -1  281.97    6.90
  -4   1   1  266.47    7.10
   4  -1  -1  281.87    7.00
  -4   1   1  269.97    6.20
   4  -1   0    7.60    1.30
  -4   1   0    7.10    1.20
  -4   1   0    5.40    0.90
  -4   1   0    5.40    0.90
   4  -1   0    6.20    1.00
   4  -1   0    6.20    1.00
  -4   1   0    7.80    1.40
   4  -1   0    5.10    1.20
   4  -1   0   10.60    1.50
  -4   1   0    6.30    1.10
   4  -1   1  482.55   10.40
  -4   1  -1  475.15    9.60
  -4   1  -1  460.45    8.60
  -4   1  -1  448.26    8.20
   4  -1   1  495.25    8.90
  -4   1  -1  478.35   10.20
   4  -1   1  440.36    9.30
   4  -1   1  456.45    9.90
  -4   1  -1  442.86   10.10
   4  -1   2   67.99    4.20
  -4   1  -2   71.09    4.20
  -4   1  -2   55.79    3.20
  -4   1  -2   62.19    3.20
  -4   1  -2   60.79    3.90
   4  -1   2   63.89    3.40
   4  -1   2   58.39    3.50
   4  -1   2   61.39    3.90
  -4   1  -2   59.69    4.00
   4  -1   3    1.50    0.90
  -4   1  -3    1.00    0.70
  -4   1  -3    0.90    0.70
  -4   1  -3    2.20    0.70
   4  -1   3    0.80    0.70
  -4   1  -3    2.40    1.10
  -4   1  -4    2.60    1.00
  -4   1  -4    4.90    1.30
   4  -1   5   34.70    3.60
   4  -1   5   35.60    3.30
   4  -1   5   29.70    2.60
  -4   1  -5   41.50    3.30
   4  -1   5   39.50    3.40
  -4   1  -5   30.40    3.20
   4  -1   6   43.60    3.20
   4  -1   6   41.60    3.50
   4  -1   7    6.40    1.20
   4  -1   7    8.20    1.70
   4  -1   8   18.60    1.90
   4  -1   8   15.50    1.70
  -4   0  12    2.90    0.80
  -4   0  12    2.70    1.00
  -4   0  11    1.00    0.70
  -4   0  10   14.80    1.90
  -4   0  10   14.40    1.80
  -4   0  10   13.40    2.00
  -4   0  10   12.80    1.90
   4   0  -9  188.88    6.60
  -4   0   9  184.58    6.50
  -4   0   9  189.38    7.00
  -4   0   9  189.08    6.80
   4   0  -9  189.28    7.40
  -4   0   9  168.38    7.70
   4   0  -9  175.38    7.30
   4   0  -9  186.68    6.90
  -4   0   9  183.78    6.60
  -4   0   9  180.08    6.40
   4   0  -9  179.68    7.00
   4   0  -8    7.80    1.50
   4   0  -8    7.50    1.50
   4   0  -8   11.40    1.90
  -4   0   8    9.40    1.90
   4   0  -8    9.90    1.70
  -4   0   8    9.50    1.60
   4   0  -7  227.38    6.80
   4   0  -7  217.48    7.30
   4   0  -7  223.78    7.70
   4   0  -7  232.58    7.00
  -4   0   7  231.18    8.00
  -4   0   7  229.58    7.00
  -4   0   6   16.10    1.70
   4   0  -6   16.30    1.80
   4   0  -6   14.40    1.80
   4   0  -6   14.50    1.90
  -4   0   6   17.70    2.00
   4   0  -6   17.40    1.80
  -4   0   6   20.50    2.20
  -4   0   5 1670.93   16.30
   4   0  -5 1657.03   15.90
  -4   0   5 1703.73   18.00
  -4   0   5 1679.23   18.50
   4   0  -5 1687.63   17.60
   4   0  -5 1721.33   18.70
   4   0  -5 1684.33   15.80
  -4   0   5 1726.83   17.30
   4   0  -4  297.87    6.30
   4   0  -4  307.97    7.00
  -4   0   4  298.77    7.40
  -4   0   4  303.37    7.40
   4   0  -4  315.57    7.50
   4   0  -4  284.47    6.40
  -4   0   4  306.37    7.30
   4   0  -4  305.47    6.20
   4   0  -3  104.99    3.60
  -4   0   3  104.89    4.20
  -4   0   3  102.89    4.20
   4   0  -3  102.49    3.90
   4   0  -3  100.19    4.00
   4   0  -3  111.49    4.20
  -4   0   3  105.79    4.20
   4   0  -3  107.09    3.30
   4   0  -3   93.49    3.70
   4   0  -2    2.10    0.60
   4   0  -2    2.60    0.70
   4   0  -2    0.60    0.50
  -4   0   2    1.20    0.70
  -4   0   2    2.20    0.70
  -4   0   2    1.70    0.70
  -4   0   2    1.20    0.70
   4   0  -2    1.50    0.70
  -4   0   2    1.00    0.50
   4   0  -1   19.00    1.80
  -4   0   1   17.30    1.60
  -4   0   1   16.80    1.80
  -4   0   1   15.90    1.60
  -4   0   1   18.10    1.70
   4   0  -1   19.90    1.80
   4   0  -1   19.90    1.90
   4   0  -1   17.80    1.90
  -4   0   1   18.70    1.60
   4   0   0    6.00    1.20
  -4   0   0    8.00    1.20
  -4   0   0    8.40    1.20
   4   0   0    6.10    1.10
  -4   0   0    5.00    1.00
  -4   0   0    6.80    1.40
   4   0   0    6.60    1.30
   4   0   0    6.10    1.30
   4   0   1   38.60    3.00
  -4   0  -1   36.80    2.50
  -4   0  -1   34.70    2.40
  -4   0  -1   31.50    2.50
  -4   0  -1   34.70    2.50
   4   0   1   33.10    2.60
   4   0   1   31.70    2.60
  -4   0  -1   36.50    2.90
   4   0   1   35.30    2.90
  -4   0  -2   51.29    4.00
   4   0   2   55.29    4.00
  -4   0  -2   45.60    3.00
  -4   0  -2   51.59    3.20
  -4   0  -2   51.09    3.30
   4   0   2   50.69    3.40
  -4   0  -2   50.49    3.60
   4   0   2   52.39    3.70
  -4   0  -2   50.99    3.10
  -4   0  -3   12.60    2.10
   4   0   3   15.10    2.20
  -4   0  -3   14.30    1.80
  -4   0  -3   16.40    1.90
  -4   0  -3   15.90    2.00
  -4   0  -3   16.00    2.20
  -4   0  -3   12.90    1.80
   4   0   3   15.10    2.10
   4   0   4  113.49    6.30
  -4   0  -4  108.19    5.20
  -4   0  -4  111.39    5.00
  -4   0  -4  109.79    5.90
  -4   0  -4  117.79    6.70
   4   0   5  130.49    6.20
   4   0   5  121.89    5.50
  -4   0  -5  131.19    5.80
   4   0   6    1.90    0.90
   4   0   6    0.70    0.90
   4   0   7   12.60    1.60
   4   0   7   10.80    1.70
   4   0   8   30.50    2.20
   4   0   8   32.40    2.20
  -4  -1  12  110.89    4.40
  -4  -1  12   98.59    4.70
  -4  -1  11   10.00    1.60
  -4  -1  11   11.70    1.60
   4   1 -10   91.49    4.60
  -4  -1  10   95.39    4.70
   4   1 -10   94.59    4.90
  -4  -1  10  106.89    5.20
  -4  -1  10   98.69    4.80
   4   1  -9    9.80    1.50
  -4  -1   9   12.10    1.80
  -4  -1   9   12.30    1.80
  -4  -1   9   12.40    1.90
   4   1  -9   14.60    2.20
  -4  -1   9   14.20    2.00
  -4  -1   9   13.20    2.30
   4   1  -9   13.50    1.90
   4   1  -8   -1.00    0.70
   4   1  -8    1.60    0.80
  -4  -1   8    2.30    1.00
   4   1  -8    1.90    0.90
   4   1  -8    0.70    0.60
  -4  -1   8    1.40    0.90
   4   1  -8    2.40    1.00
  -4  -1   8    0.80    0.70
   4   1  -7   73.49    3.80
   4   1  -7   75.69    4.00
   4   1  -7   78.59    4.40
  -4  -1   7   73.19    3.80
   4   1  -7   77.19    4.60
   4   1  -7   69.09    3.80
  -4  -1   7   72.19    4.50
  -4  -1   6   -0.30    0.50
   4   1  -6    0.60    0.60
  -4  -1   6   -0.20    0.70
   4   1  -6    0.80    0.70
  -4  -1   6    0.60    0.60
   4   1  -6   -0.10    0.70
  -4  -1   6    0.90    0.70
   4   1  -6   -0.30    0.60
   4   1  -6    0.30    0.50
  -4  -1   5    1.40    0.60
   4   1  -5    0.00    0.60
   4   1  -5    1.00    0.70
  -4  -1   5    0.10    0.80
  -4  -1   5    0.30    0.60
   4   1  -5    0.50    0.70
  -4  -1   5    0.20    0.70
   4   1  -5    0.50    0.50
  -4  -1   5    1.40    0.80
   4   1  -4   50.19    2.60
  -4  -1   4   56.39    3.30
   4   1  -4   53.89    3.10
   4   1  -4   52.89    3.10
  -4  -1   4   57.39    3.00
  -4  -1   4   53.99    3.30
   4   1  -4   57.09    2.60
  -4  -1   3    2.70    0.80
   4   1  -3    2.30    0.70
  -4  -1   3    3.80    0.90
   4   1  -3    1.80    0.80
   4   1  -3    2.60    0.80
  -4  -1   3    4.00    0.90
   4   1  -3    2.10    0.80
   4   1  -3    2.20    0.70
   4   1  -2  223.18    4.60
   4   1  -2  220.88    5.60
  -4  -1   2  224.08    5.40
  -4  -1   2  204.68    5.30
  -4  -1   2  223.58    6.30
   4   1  -2  217.08    6.10
  -4  -1   2  225.58    6.10
   4   1  -2  227.58    5.40
   4   1  -1  394.66    7.90
  -4  -1   1  423.26    8.70
  -4  -1   1  411.46    7.70
  -4  -1   1  403.16    7.70
   4   1  -1  410.76    8.70
  -4  -1   1  418.06    8.70
   4   1  -1  393.46    9.10
  -4  -1   1  401.46    8.60
   4   1   0  888.11   13.40
   4   1   0  848.12   12.20
  -4  -1   0  869.11   11.70
  -4  -1   0  842.72   11.50
  -4  -1   0  872.21   12.90
   4   1   0  886.41   13.40
  -4  -1   0  880.31   13.40
   4   1   0  873.81   14.30
  -4  -1   0  857.91   14.10
  -4  -1  -1    3.60    1.20
   4   1   1    1.60    0.90
  -4  -1  -1    1.10    0.60
  -4  -1  -1    0.90    0.70
   4   1   1    0.60    0.80
  -4  -1  -1    0.80    0.70
  -4  -1  -1    1.60    0.80
   4   1   1    2.10    1.10
  -4  -1  -1    0.40    0.60
   4   1   1    0.60    0.70
   4   1   2  204.68    7.80
  -4  -1  -2  191.88    6.20
  -4  -1  -2  186.48    6.60
  -4  -1  -2  195.28    6.90
  -4  -1  -2  191.48    7.20
   4   1   2  189.68    7.30
  -4  -1  -2  184.08    7.90
   4   1   3   61.59    4.60
  -4  -1  -3   59.99    3.70
  -4  -1  -3   58.59    4.00
  -4  -1  -3   61.79    4.10
  -4  -1  -3   59.79    4.30
   4   1   3   61.29    4.30
  -4  -1  -3   58.29    4.70
  -4  -1  -4  104.29    5.20
   4   1   4  102.69    6.10
   4   1   4   95.39    4.90
   4   1   4   94.49    4.80
   4   1   4  103.29    5.40
  -4  -1  -4  103.49    5.00
  -4  -1  -4  102.49    5.40
  -4  -1  -4   95.69    5.30
  -4  -1  -4   94.19    5.90
  -4  -1  -4  102.19    5.90
   4   1   5   21.20    2.30
   4   1   5   19.00    2.40
  -4  -1  -5   28.10    2.60
   4   1   5   22.20    2.30
  -4  -1  -5   27.10    2.70
   4   1   6    4.90    1.20
   4   1   6    4.30    1.20
   4   1   7    7.00    1.20
   4   1   7    4.10    1.10
   4   1   7    5.30    1.20
  -4  -2  12    3.90    1.00
  -4  -2  12    2.60    1.00
  -4  -2  11    6.20    1.30
  -4  -2  11    6.00    1.30
  -4  -2  11    6.70    1.60
  -4  -2  10    0.40    0.80
   4   2 -10    2.30    0.80
  -4  -2  10    0.40    0.80
  -4  -2  10    1.00    0.80
  -4  -2  10    3.50    1.30
  -4  -2  10    2.90    0.90
   4   2 -10    0.40    0.70
   4   2  -9   62.19    4.30
   4   2  -9   64.39    3.90
  -4  -2   9   58.29    3.70
  -4  -2   9   62.89    3.90
  -4  -2   9   63.19    4.10
   4   2  -9   62.29    4.40
  -4  -2   9   66.79    3.80
   4   2  -9   65.49    4.00
  -4  -2   9   63.59    4.70
   4   2  -8   63.59    4.00
   4   2  -8   66.79    3.90
   4   2  -8   65.19    4.30
  -4  -2   8   66.19    4.00
   4   2  -8   66.19    4.50
   4   2  -8   65.09    3.90
  -4  -2   8   63.99    4.60
   4   2  -7  133.79    5.10
   4   2  -7  133.09    5.00
   4   2  -7  126.99    5.60
  -4  -2   7  137.39    5.40
   4   2  -7  139.49    6.10
   4   2  -7  128.89    5.00
  -4  -2   7  140.09    6.20
   4   2  -6  327.97    7.50
   4   2  -6  327.07    7.50
  -4  -2   6  327.97    8.80
   4   2  -6  334.67    8.70
  -4  -2   6  346.07    7.90
   4   2  -6  338.57    9.00
   4   2  -6  338.37    7.40
  -4  -2   6  357.46    9.00
   4   2  -5   38.50    2.40
  -4  -2   5   34.00    2.80
  -4  -2   5   39.60    3.00
   4   2  -5   37.80    2.80
   4   2  -5   36.50    2.80
   4   2  -5   42.00    2.40
  -4  -2   5   40.70    2.80
   4   2  -4   75.09    3.20
   4   2  -4   72.29    3.30
  -4  -2   4   73.69    3.90
   4   2  -4   70.69    3.80
   4   2  -4   71.99    3.70
  -4  -2   4   74.69    3.90
   4   2  -3   81.39    3.60
  -4  -2   3   84.19    4.10
  -4  -2   3   82.59    3.20
  -4  -2   3   81.79    4.10
   4   2  -3   85.19    4.10
   4   2  -3   83.69    3.70
   4   2  -3   80.29    4.10
  -4  -2   2  378.36    7.10
  -4  -2   2  354.76    7.20
  -4  -2   2  360.56    8.40
   4   2  -2  370.76    8.70
   4   2  -2  350.76    8.70
   4   2  -2  345.17    7.60
   4   2  -1  253.67    6.80
  -4  -2   1  267.77    6.30
  -4  -2   1  266.57    6.50
   4   2  -1  277.47    7.80
  -4  -2   1  283.47    7.30
   4   2  -1  251.07    7.80
  -4  -2   1  258.27    7.40
   4   2   0   76.49    4.20
   4   2   0   67.29    3.70
  -4  -2   0   72.89    3.50
  -4  -2   0   74.19    3.70
  -4  -2   0   77.39    4.20
   4   2   0   77.29    4.50
  -4  -2   0   72.69    4.00
   4   2   0   71.39    4.40
  -4  -2   0   73.69    4.50
   4   2   1  113.09    5.60
  -4  -2  -1  107.19    4.60
  -4  -2  -1  111.59    5.30
  -4  -2  -1  116.99    4.90
  -4  -2  -1  128.79    5.70
  -4  -2  -1  115.19    5.30
   4   2   1  116.89    5.80
  -4  -2  -1  119.89    6.30
   4   2   2  450.55   12.00
  -4  -2  -2  429.26    9.70
  -4  -2  -2  439.96   10.80
  -4  -2  -2  425.76   10.80
  -4  -2  -2  399.26   11.50
  -4  -2  -2  423.56   11.00
   4   2   2  446.06   11.60
  -4  -2  -2  424.56   12.40
   4   2   3    9.60    2.00
   4   2   3    9.30    1.60
   4   2   3    8.70    1.60
  -4  -2  -3    9.80    1.70
  -4  -2  -3    9.60    1.80
  -4  -2  -3    9.40    1.70
  -4  -2  -3   10.50    2.10
  -4  -2  -3    9.10    1.90
   4   2   3   10.40    1.70
   4   2   4   21.90    2.40
  -4  -2  -4   21.70    2.40
   4   2   4   23.70    2.70
  -4  -2  -4   24.20    2.50
   4   2   4   21.30    2.40
   4   2   5   54.49    3.60
   4   2   5   52.49    3.60
   4   2   5   53.99    3.70
   4   2   6   14.20    1.70
   4   2   6   17.40    1.90
   4   2   7   11.40    1.20
   4   2   7   12.10    1.30
  -4  -3  12  153.48    4.60
  -4  -3  11    6.40    1.40
  -4  -3  11    7.40    1.30
   4   3 -10   26.50    2.60
  -4  -3  10   31.00    2.80
  -4  -3  10   23.30    2.50
  -4  -3  10   28.30    2.80
  -4  -3  10   30.50    2.70
   4   3 -10   26.40    2.60
   4   3  -9  299.37    8.40
  -4  -3   9  300.87    8.50
   4   3  -9  314.17    9.60
  -4  -3   9  307.07    8.90
   4   3  -9  296.97    9.70
  -4  -3   9  318.47    8.60
   4   3  -9  295.87    8.40
  -4  -3   9  292.27   10.10
  -4  -3   9  323.77    8.80
   4   3  -8    8.10    1.40
   4   3  -8    7.70    1.30
   4   3  -8    8.70    1.70
   4   3  -8    7.60    1.70
  -4  -3   8    7.80    1.50
  -4  -3   8    8.70    1.70
   4   3  -8    6.30    1.30
   4   3  -7   20.10    2.10
   4   3  -7   22.90    2.20
  -4  -3   7   20.50    2.40
  -4  -3   7   25.20    2.50
   4   3  -7   20.70    2.40
   4   3  -7   18.50    2.30
  -4  -3   7   21.20    2.50
   4   3  -6    0.70    0.60
  -4  -3   6    1.00    0.80
  -4  -3   6    1.10    0.70
   4   3  -6    0.10    0.70
  -4  -3   6    0.40    0.70
   4   3  -6    0.50    0.70
   4   3  -6    0.90    0.70
  -4  -3   6    1.50    0.90
   4   3  -5  220.38    5.80
   4   3  -5  221.68    6.20
  -4  -3   5  207.58    7.00
   4   3  -5  219.98    6.20
  -4  -3   5  206.98    6.90
   4   3  -5  203.68    6.90
   4   3  -5  215.28    6.90
   4   3  -4  125.49    4.80
  -4  -3   4  131.79    4.60
  -4  -3   4  124.99    5.30
  -4  -3   4  123.49    5.30
   4   3  -4  123.29    5.30
   4   3  -4  123.29    4.90
   4   3  -4  116.19    5.10
   4   3  -3   14.40    1.80
  -4  -3   3   12.60    1.40
  -4  -3   3   12.50    1.80
   4   3  -3   14.00    1.90
   4   3  -3   12.90    1.50
   4   3  -3   11.00    1.70
   4   3  -2   21.40    2.20
  -4  -3   2   22.90    2.00
   4   3  -2   19.30    2.30
  -4  -3   2   19.60    2.20
   4   3  -2   22.00    2.40
   4   3  -2   19.50    2.40
  -4  -3   1  374.86    8.20
   4   3  -1  359.76   10.10
  -4  -3   1  371.56    9.40
   4   3  -1  364.16    8.80
   4   3  -1  395.66   10.20
   4   3  -1  352.96   10.10
  -4  -3   0  118.39    4.70
  -4  -3   0  111.79    4.70
   4   3   0  106.49    4.90
  -4  -3   0  113.99    5.40
   4   3   0  117.09    5.90
   4   3   0  106.99    5.80
  -4  -3  -1   86.09    4.80
  -4  -3  -1   90.59    4.50
  -4  -3  -1   86.99    5.00
  -4  -3  -1   85.39    5.20
   4   3   1   88.49    5.40
  -4  -3  -1   95.09    4.50
   4   3   1   92.19    5.40
   4   3   2 1004.70   18.60
  -4  -3  -2 1025.90   15.50
   4   3   2  962.00   15.60
   4   3   2  959.80   15.30
   4   3   2 1008.90   15.70
  -4  -3  -2  969.20   15.40
  -4  -3  -2  989.90   17.20
  -4  -3  -2  980.60   16.70
  -4  -3  -2  966.30   18.30
  -4  -3  -2 1006.90   17.40
   4   3   2 1014.90   18.10
   4   3   3    2.20    0.90
   4   3   3    3.80    1.00
   4   3   3    3.30    1.10
  -4  -3  -3    4.60    1.30
  -4  -3  -3    4.90    1.30
  -4  -3  -3    2.60    1.00
  -4  -3  -3    2.90    1.10
   4   3   4    0.70    0.70
   4   3   4    0.60    0.90
   4   3   5    4.60    1.10
   4   3   5    2.80    1.00
   4   3   5    4.20    1.00
   4   3   6   12.00    1.40
   4   3   6   12.40    1.50
  -4  -4  12    2.80    0.90
  -4  -4  11  111.79    4.60
  -4  -4  10   47.30    3.40
   4   4  -9   54.59    3.60
  -4  -4   9   60.19    3.60
  -4  -4   9   60.69    3.80
   4   4  -9   58.79    3.70
  -4  -4   9   60.79    4.10
  -4  -4   9   59.49    3.90
   4   4  -9   61.09    3.80
   4   4  -8    8.30    1.50
   4   4  -8    8.20    1.50
   4   4  -8    7.00    1.50
  -4  -4   8    8.10    1.60
   4   4  -8    8.10    1.80
  -4  -4   8    7.60    1.50
  -4  -4   8    8.60    1.80
   4   4  -7   81.39    4.10
   4   4  -7   83.79    4.30
  -4  -4   7   82.19    4.80
  -4  -4   7   82.09    4.50
   4   4  -7   87.39    4.90
   4   4  -7   88.69    5.10
  -4  -4   7   96.59    5.50
   4   4  -6  113.89    4.60
   4   4  -6  107.59    4.70
  -4  -4   6  104.29    5.20
   4   4  -6  117.39    5.00
  -4  -4   6  103.69    5.20
  -4  -4   6  114.69    5.10
   4   4  -6  109.19    5.40
   4   4  -6  107.49    5.40
  -4  -4   6  119.89    5.70
   4   4  -5  178.18    6.20
  -4  -4   5  167.18    6.50
  -4  -4   5  178.98    6.70
   4   4  -5  185.88    6.00
   4   4  -5  185.28    7.00
  -4  -4   4   96.59    4.30
   4   4  -4   96.79    4.60
  -4  -4   4   93.59    4.80
  -4  -4   4   93.79    4.80
   4   4  -4   81.59    4.80
   4   4  -4   91.59    4.90
   4   4  -3   31.70    2.80
  -4  -4   3   35.50    2.60
   4   4  -3   32.90    3.10
  -4  -4   3   30.50    2.80
   4   4  -3   33.30    3.10
   4   4  -3   29.60    3.10
   4   4  -2    9.40    1.60
  -4  -4   2   11.00    1.50
  -4  -4   2    9.90    1.40
   4   4  -2    9.90    1.90
   4   4  -2   11.80    2.00
   4   4  -2    9.90    1.90
  -4  -4   2   10.90    1.70
   4   4  -1    2.00    1.00
  -4  -4   1    2.20    0.70
   4   4  -1    0.90    0.70
  -4  -4   1    3.00    1.00
   4   4  -1    1.90    1.30
   4   4  -1    3.10    1.20
   4   4   0  119.49    5.40
  -4  -4   0  118.79    5.10
  -4  -4   0  121.29    6.00
   4   4   0  113.09    6.30
   4   4   1   88.49    4.70
  -4  -4  -1   84.49    4.50
  -4  -4  -1   89.59    5.20
   4   4   1   91.89    5.70
   4   4   1   87.49    4.80
   4   4   1   87.89    4.40
   4   4   2  237.18    7.70
  -4  -4  -2  239.08    7.60
   4   4   2  239.88    8.00
  -4  -4  -2  226.48    7.90
   4   4   2  233.28    7.20
   4   4   3  110.29    5.20
  -4  -4  -3  108.29    5.10
   4   4   3  114.69    5.50
   4   4   4   21.30    2.20
   4   4   4   23.90    2.40
   4   4   5    4.20    0.90
   4   4   5    8.00    1.10
  -4  -5  12  110.29    4.00
  -4  -5  11   47.60    3.00
  -4  -5  10  101.99    4.50
  -4  -5  10  105.19    4.70
   4   5  -9    1.90    0.90
  -4  -5   9    4.10    1.00
   4   5  -9    2.60    0.90
  -4  -5   9    2.50    0.90
   4   5  -9    1.80    0.80
  -4  -5   9    4.80    1.20
  -4  -5   9    2.40    1.00
  -4  -5   8  108.49    5.00
   4   5  -8  114.49    5.10
  -4  -5   8  110.09    5.10
   4   5  -8  119.29    5.30
  -4  -5   8  108.99    5.40
  -4  -5   8  114.29    5.30
  -4  -5   8  109.69    6.00
  -4  -5   7  165.28    6.20
   4   5  -7  172.68    6.00
   4   5  -7  167.78    6.30
  -4  -5   7  161.48    6.10
   4   5  -7  164.18    6.20
   4   5  -7  171.58    6.40
  -4  -5   7  157.58    6.40
   4   5  -7  164.38    7.00
  -4  -5   7  171.68    6.30
  -4  -5   7  178.18    7.50
   4   5  -7  163.18    6.20
   4   5  -6   52.99    3.60
   4   5  -6   48.00    3.30
  -4  -5   6   47.60    3.50
   4   5  -6   50.99    3.80
  -4  -5   6   57.79    4.10
   4   5  -5  646.34   12.60
  -4  -5   5  616.64   12.60
  -4  -5   5  624.44   11.80
  -4  -5   5  610.54   12.60
   4   5  -5  663.53   13.80
   4   5  -4  133.89    5.90
  -4  -5   4  133.99    5.40
  -4  -5   4  128.69    5.80
  -4  -5   4  132.49    5.90
   4   5  -4  146.69    6.60
   4   5  -4  116.19    6.10
   4   5  -3   63.29    4.10
  -4  -5   3   71.99    3.90
  -4  -5   3   70.69    4.40
   4   5  -3   69.19    4.80
  -4  -5   3   71.19    4.40
   4   5  -3   73.69    4.80
   4   5  -3   65.79    4.80
   4   5  -2  145.99    6.20
  -4  -5   2  165.18    5.90
   4   5  -2  159.18    7.60
  -4  -5   2  163.28    6.70
   4   5  -2  169.18    7.40
   4   5  -2  139.29    7.10
   4   5  -1   54.39    3.70
  -4  -5   1   46.10    3.60
   4   5  -1   50.49    3.70
  -4  -5   1   55.09    3.40
   4   5  -1   59.59    3.90
   4   5  -1   50.69    3.50
   4   5  -1   49.20    4.40
  -4  -5   1   54.79    4.00
   4   5  -1   58.09    4.70
  -4  -5   1   50.59    3.80
  -4  -5   1   45.70    3.60
  -4  -5   0   25.40    2.70
  -4  -5   0   23.30    2.30
  -4  -5   0   24.40    2.60
   4   5   0   27.50    2.70
   4   5   0   28.50    2.70
   4   5   0   25.50    2.60
  -4  -5   0   25.40    2.80
   4   5   0   23.40    2.40
  -4  -5  -1  144.49    6.30
   4   5   1  161.58    6.40
  -4  -5  -1  151.78    5.90
   4   5   1  165.18    6.60
  -4  -5  -1  150.58    6.50
   4   5   1  151.18    6.00
  -4  -5  -2   56.79    3.80
   4   5   2   62.09    3.90
  -4  -5  -2   65.19    4.00
   4   5   2   58.09    3.90
  -4  -5  -3   46.20    3.00
   4   5   3   43.90    3.00
   4   5   3   43.20    3.10
   4   5   4   13.40    1.50
  -4  -5  -4   12.50    1.50
   4   5   4   10.50    1.40
  -4  -6  12    0.10    0.50
  -4  -6  11    1.00    0.60
  -4  -6  11    0.10    0.70
  -4  -6  11    1.90    0.90
  -4  -6  10   56.39    3.40
  -4  -6  10   53.49    3.30
  -4  -6  10   57.99    3.50
  -4  -6   9    0.10    0.80
  -4  -6   9    1.90    0.90
  -4  -6   8   28.40    2.70
  -4  -6   8   25.50    2.60
   4   6  -8   28.20    2.60
  -4  -6   8   27.90    2.70
  -4  -6   8   33.10    2.90
  -4  -6   7   -0.10    0.80
  -4  -6   7   -1.00    0.70
   4   6  -7   -0.50    0.70
   4   6  -7    1.50    0.60
   4   6  -7   -1.30    0.70
  -4  -6   7    0.20    0.80
  -4  -6   7    0.20    0.70
   4   6  -7    0.20    0.90
   4   6  -7    0.50    0.60
  -4  -6   6   12.00    1.80
  -4  -6   6    9.30    1.60
   4   6  -6   12.90    1.90
  -4  -6   6   10.60    1.70
   4   6  -6   11.50    1.90
   4   6  -6   10.80    1.70
   4   6  -6   10.40    1.70
  -4  -6   5  213.98    7.10
   4   6  -5  226.08    7.80
  -4  -6   5  208.28    7.20
   4   6  -5  212.88    7.30
  -4  -6   5  224.88    7.30
  -4  -6   5  241.38    8.10
   4   6  -5  228.38    7.50
   4   6  -5  215.68    7.20
  -4  -6   4   27.70    2.60
   4   6  -4   27.00    2.90
  -4  -6   4   28.40    2.70
   4   6  -4   26.40    2.60
  -4  -6   4   29.70    2.70
   4   6  -4   33.30    3.40
  -4  -6   4   28.90    3.00
   4   6  -4   33.30    2.90
   4   6  -4   32.10    2.80
   4   6  -3   24.00    2.70
  -4  -6   3   26.40    2.70
  -4  -6   3   25.30    2.50
   4   6  -3   22.50    2.40
   4   6  -3   27.30    3.10
   4   6  -3   24.70    3.10
  -4  -6   3   23.50    2.70
   4   6  -3   25.10    2.50
  -4  -6   2   63.39    3.80
   4   6  -2   64.69    4.10
   4   6  -2   57.29    3.90
  -4  -6   2   56.09    4.00
   4   6  -2   67.19    4.10
   4   6  -2   59.29    4.80
   4   6  -2   62.59    4.00
  -4  -6   2   56.19    4.10
   4   6  -2   64.49    3.90
   4   6  -1   41.10    3.30
  -4  -6   1   38.00    3.30
   4   6  -1   40.80    3.20
   4   6  -1   39.60    3.10
   4   6  -1   39.70    3.20
  -4  -6   1   40.30    3.50
  -4  -6   1   37.10    3.30
  -4  -6   1   44.30    3.10
   4   6  -1   39.40    3.20
   4   6   0    5.80    1.40
  -4  -6   0    6.40    1.50
  -4  -6   0    5.80    1.40
   4   6   0    5.10    1.20
  -4  -6   0    5.90    1.40
   4   6   0    4.80    1.20
  -4  -6  -1   24.80    2.50
   4   6   1   25.90    2.40
  -4  -6  -1   23.70    2.50
   4   6   1   26.90    2.60
  -4  -6  -1   27.00    2.60
   4   6   1   25.60    2.40
  -4  -6  -2    0.30    0.50
  -4  -6  -2    0.50    0.60
   4   6   2   -0.30    0.80
   4   6   2    0.00    0.70
  -4  -6  -2   -0.10    0.50
  -4  -6  -3   49.00    2.40
   4   6   3   57.89    2.70
  -4  -6  -3   55.29    2.90
   4   6   3   56.49    2.90
  -4  -7  11  156.48    4.50
  -4  -7  11  149.59    4.60
   4   7 -11  152.78    4.70
  -4  -7  10   17.30    1.80
  -4  -7  10   17.60    1.70
  -4  -7  10   16.20    1.80
   4   7 -10   18.90    2.00
  -4  -7   9    1.20    0.80
  -4  -7   9   -0.30    0.70
  -4  -7   9    1.20    0.70
   4   7  -9    1.00    0.80
  -4  -7   8  121.49    5.30
  -4  -7   8  109.69    5.10
   4   7  -8  115.79    5.30
  -4  -7   7    0.00    0.80
   4   7  -7   -0.10    0.60
  -4  -7   7   -0.60    1.10
  -4  -7   7    0.50    0.60
   4   7  -7    0.00    0.90
   4   7  -7   -0.70    1.00
  -4  -7   6   16.30    2.10
  -4  -7   6   16.10    2.10
   4   7  -6   15.60    2.00
  -4  -7   6   15.80    2.00
   4   7  -6   14.70    2.00
  -4  -7   5   82.69    4.40
   4   7  -5   87.89    4.70
  -4  -7   5   79.89    4.50
   4   7  -5   81.79    4.60
   4   7  -5   80.09    4.50
  -4  -7   4    0.10    1.00
  -4  -7   4    0.40    0.70
   4   7  -4    0.40    0.70
  -4  -7   4    0.40    0.90
   4   7  -4    1.50    0.80
  -4  -7   3  115.69    5.50
  -4  -7   3  118.89    5.30
   4   7  -3  123.69    5.40
   4   7  -3  120.49    5.50
  -4  -7   3  120.49    5.80
   4   7  -3  122.69    5.40
  -4  -7   2  126.09    5.80
   4   7  -2  141.19    5.70
  -4  -7   2  144.59    5.90
   4   7  -2  134.79    5.60
  -4  -7   2  125.19    5.90
   4   7  -2  125.69    5.60
   4   7  -2  144.29    5.60
  -4  -7   1   76.19    4.50
  -4  -7   1   80.59    4.50
   4   7  -1   79.69    4.10
  -4  -7   1   79.29    4.40
   4   7  -1   83.59    4.20
  -4  -7   1   83.49    4.60
   4   7  -1   78.99    4.20
  -4  -7   0   25.40    2.40
  -4  -7   0   21.30    2.20
   4   7   0   27.30    2.30
  -4  -7   0   24.80    2.30
   4   7   0   26.20    2.20
  -4  -7   0   30.70    2.60
   4   7   0   23.40    2.20
  -4  -7  -1   26.70    2.20
   4   7   1   28.30    2.00
  -4  -7  -1   27.40    2.20
   4   7   1   27.40    2.00
  -4  -7  -1   28.00    2.30
  -4  -7  -2    0.20    0.50
   4   7   2    0.80    0.50
  -4  -8  10    2.10    0.70
  -4  -8  10    3.70    0.90
  -4  -8  10    4.80    0.90
   4   8 -10    3.50    0.80
   4   8 -10    2.90    0.80
  -4  -8   9    5.10    1.10
  -4  -8   9    5.00    1.00
   4   8  -9    3.90    1.00
   4   8  -9    4.40    1.00
  -4  -8   8  124.79    4.90
  -4  -8   8  119.59    4.80
   4   8  -8  119.49    4.70
  -4  -8   8  133.79    4.70
   4   8  -8  119.09    4.80
   4   8  -8  131.19    5.10
  -4  -8   7   42.10    2.90
   4   8  -7   40.30    2.80
  -4  -8   7   36.90    2.80
   4   8  -7   36.50    2.70
  -4  -8   7   39.50    2.80
   4   8  -7   41.60    3.00
   4   8  -7   39.70    3.00
  -4  -8   6   16.40    1.80
  -4  -8   6   16.90    2.00
   4   8  -6   16.30    1.90
   4   8  -6   18.60    1.90
  -4  -8   6   15.60    1.90
   4   8  -6   17.80    2.00
  -4  -8   5   24.80    2.30
   4   8  -5   24.80    2.40
  -4  -8   5   27.00    2.50
   4   8  -5   26.10    2.50
  -4  -8   4   41.20    2.80
  -4  -8   4   41.80    3.00
   4   8  -4   46.30    3.10
   4   8  -4   40.60    3.00
  -4  -8   4   37.80    2.90
   4   8  -4   40.20    3.00
   4   8  -4   38.20    2.90
  -4  -8   3    1.40    0.70
  -4  -8   3    0.50    0.70
   4   8  -3    2.00    0.70
  -4  -8   3    0.60    0.60
   4   8  -3    0.80    0.70
   4   8  -3    0.20    0.90
   4   8  -3    1.90    0.70
  -4  -8   2   -0.70    0.80
  -4  -8   2    0.40    0.80
   4   8  -2   -0.50    0.50
   4   8  -2    2.10    0.80
   4   8  -2    0.70    0.50
   4   8  -2    2.10    0.70
  -4  -8   1   -0.30    0.70
  -4  -8   1    0.30    0.60
   4   8  -1    0.30    0.30
  -4  -8   1   -0.20    0.50
   4   8  -1   -0.50    0.70
  -4  -8   0    5.50    1.00
  -4  -8   0    7.20    1.00
  -4  -9   9    1.20    0.50
  -4  -9   9    0.20    0.40
  -4  -9   9    0.10    0.50
  -4  -9   8   12.20    1.30
  -4  -9   8   11.80    1.30
   4   9  -8   13.00    1.30
  -4  -9   8   13.80    1.40
   4   9  -8   12.00    1.30
  -4  -9   7    1.80    0.60
  -4  -9   7    0.10    0.50
   4   9  -7    1.90    0.60
   4   9  -7    0.80    0.50
  -4  -9   7    0.90    0.50
   4   9  -7    1.40    0.60
  -4  -9   6   10.70    1.30
   4   9  -6    8.70    1.20
   4   9  -6    9.80    1.10
  -4  -9   6    9.60    1.30
   4   9  -6   11.00    1.40
   4   9  -6    8.40    1.30
  -4  -9   5   10.10    1.10
   4   9  -5   10.50    1.30
  -4  -9   5   10.60    1.40
   4   9  -5    9.40    1.30
   4   9  -5   11.90    1.40
  -4  -9   4   24.60    1.80
   4   9  -4   25.20    2.00
  -4  -9   4   20.40    1.80
   4   9  -4   23.80    1.90
   4   9  -4   22.10    1.80
  -4  -9   3   15.40    1.40
   4   9  -3   16.10    1.50
  -4  -9   3   14.90    1.40
   4   9  -3   16.10    1.50
   4   9  -3   15.40    1.30
   5 -10  -1    4.70    0.90
  -5  10   1    4.70    0.90
   5 -10   0   -0.10    0.50
   5 -10   0    0.70    0.50
  -5  10   0    0.00    0.60
   5 -10   1   26.20    2.00
  -5  10  -1   23.40    1.70
  -5  10  -1   26.50    1.90
  -5  10  -1   26.00    1.80
   5 -10   2   62.79    2.90
  -5  10  -2   61.99    2.80
   5 -10   2   64.19    2.90
  -5  10  -2   63.69    2.90
  -5  10  -2   67.49    2.80
  -5  10  -2   61.39    2.90
  -5  10  -3   16.00    1.50
   5 -10   3   16.70    1.50
  -5  10  -3   13.20    1.40
   5 -10   3   14.90    1.40
  -5  10  -3   15.30    1.40
   5  -9  -4   55.39    2.70
  -5   9   4   51.79    2.60
   5  -9  -4   53.99    2.50
   5  -9  -3  105.59    4.20
  -5   9   3  107.49    4.20
   5  -9  -3  104.19    3.80
  -5   9   3   95.99    3.50
   5  -9  -2   12.90    1.70
  -5   9   2   13.10    1.70
   5  -9  -2   11.30    1.30
  -5   9   2    9.60    1.30
   5  -9  -1    8.10    1.50
  -5   9   1   10.60    1.40
  -5   9   1   10.20    1.40
  -5   9   1    9.10    1.40
  -5   9   0    3.70    1.20
   5  -9   0    6.00    1.30
  -5   9   0    6.90    1.30
   5  -9   0    4.20    1.00
  -5   9   0    4.80    1.10
  -5   9   0    5.80    1.20
  -5   9  -1    5.20    1.30
   5  -9   1    4.90    1.30
  -5   9  -1    5.90    1.20
  -5   9  -1    6.10    1.40
  -5   9  -1    4.20    1.00
   5  -9   1    4.70    1.00
   5  -9   2   11.30    1.80
  -5   9  -2   12.40    1.70
  -5   9  -2   13.40    1.70
  -5   9  -2   11.90    1.50
   5  -9   2   11.70    1.50
  -5   9  -2   11.90    1.60
  -5   9  -3   -0.40    0.70
   5  -9   3    0.20    0.70
  -5   9  -3    0.10    0.60
  -5   9  -3    0.10    0.60
   5  -9   3    1.40    0.80
   5  -9   3    0.00    0.60
  -5   9  -4   10.60    1.40
  -5   9  -4   10.30    1.40
   5  -9   4    9.30    1.30
   5  -9   4   10.00    1.40
   5  -9   4   10.10    1.50
  -5   9  -5    2.30    0.70
  -5   9  -5    2.60    0.80
   5  -9   5    4.00    0.90
   5  -9   5    1.60    0.70
   5  -9   5    2.50    0.90
  -5   8   6   35.70    2.10
   5  -8  -6   35.90    2.00
   5  -8  -6   37.50    2.10
   5  -8  -5   33.00    2.30
  -5   8   5   29.40    2.30
   5  -8  -5   32.60    2.30
  -5   8   5   34.10    2.10
   5  -8  -5   34.10    2.30
   5  -8  -4    2.30    0.90
  -5   8   4    2.20    0.80
  -5   8   4    3.00    1.00
   5  -8  -4    2.20    0.80
   5  -8  -4    2.90    1.00
   5  -8  -3    0.40    0.90
  -5   8   3    0.40    0.80
   5  -8  -3   -0.80    0.70
   5  -8  -3   -0.10    0.60
   5  -8  -2    0.80    1.00
  -5   8   2    0.90    0.70
  -5   8   2    1.10    0.60
  -5   8   2    0.50    0.80
   5  -8  -2    0.70    0.80
  -5   8   1    4.20    1.30
   5  -8  -1    4.70    1.30
  -5   8   1    3.70    1.10
  -5   8   1    4.30    1.20
   5  -8  -1    4.10    1.10
  -5   8   1    4.00    1.10
   5  -8   0   17.60    2.30
  -5   8   0   19.10    2.30
  -5   8   0   16.10    2.10
   5  -8   0   18.70    2.20
  -5   8   0   18.40    2.10
   5  -8   0   19.50    2.10
  -5   8   0   19.00    2.30
   5  -8   1   21.20    2.40
  -5   8  -1   20.60    2.10
  -5   8  -1   22.20    2.40
  -5   8  -1   21.40    2.40
   5  -8   1   25.60    2.60
   5  -8   1   22.20    2.20
  -5   8  -1   21.70    2.40
   5  -8   2   65.39    4.20
   5  -8   2   64.79    3.80
  -5   8  -2   70.49    4.00
   5  -8   3   59.49    3.80
   5  -8   3   54.19    3.50
   5  -8   4   30.00    2.50
   5  -8   4   36.00    3.00
   5  -8   4   30.10    2.50
   5  -8   5   39.10    2.60
   5  -8   5   37.90    2.80
   5  -8   5   37.80    2.60
   5  -8   5   36.20    2.80
   5  -8   6   88.69    3.70
   5  -8   6   85.49    3.30
   5  -8   6   82.89    3.70
  -5   7   7    3.40    0.80
   5  -7  -7    3.80    0.80
   5  -7  -7    2.00    0.70
   5  -7  -7    2.40    0.70
   5  -7  -6   12.20    1.50
  -5   7   6   13.00    1.80
   5  -7  -6   13.70    1.70
   5  -7  -6   12.40    1.70
   5  -7  -6   12.40    1.60
   5  -7  -5  141.09    5.50
  -5   7   5  140.19    5.70
   5  -7  -5  137.19    5.40
   5  -7  -5  138.39    5.50
   5  -7  -5  140.69    5.40
   5  -7  -4    4.40    1.10
  -5   7   4    5.00    1.30
   5  -7  -4    5.80    1.30
   5  -7  -4    4.90    1.20
   5  -7  -4    5.10    1.20
   5  -7  -3   36.10    3.10
  -5   7   3   34.70    3.00
  -5   7   3   36.80    3.10
  -5   7   3   38.10    3.20
   5  -7  -3   33.90    2.80
   5  -7  -3   37.60    3.10
   5  -7  -3   37.20    2.90
   5  -7  -2   70.19    4.40
  -5   7   2   59.89    4.00
  -5   7   2   63.79    4.10
  -5   7   2   68.89    4.20
   5  -7  -2   64.89    3.90
  -5   7   2   66.69    4.30
   5  -7  -1   57.89    4.10
  -5   7   1   50.99    3.90
  -5   7   1   55.49    3.90
  -5   7   1   53.79    3.80
   5  -7  -1   57.39    3.70
  -5   7   1   58.09    3.80
  -5   7   1   56.79    4.00
  -5   7   0    1.40    0.80
   5  -7   0    0.80    0.80
  -5   7   0    0.70    0.60
  -5   7   0    1.00    0.80
  -5   7   0    2.50    1.10
   5  -7   0    1.50    0.90
  -5   7   0    2.30    0.70
   5  -7   0   -0.20    0.90
  -5   7  -1    3.30    0.90
   5  -7   1    0.20    1.00
  -5   7  -1    0.20    0.90
  -5   7  -1    2.50    1.00
   5  -7   1    0.50    0.70
   5  -7   1   -0.10    0.80
   5  -7   1    2.30    0.90
   5  -7   2   13.90    2.00
  -5   7  -2   13.70    2.10
  -5   7  -2   14.60    2.20
   5  -7   2   15.50    2.00
   5  -7   3    7.20    1.50
   5  -7   3    5.40    1.20
   5  -7   4   75.29    4.20
   5  -7   4   84.49    4.90
   5  -7   4   75.19    4.20
   5  -7   4   82.69    4.70
   5  -7   5    0.70    0.60
   5  -7   5   -0.20    1.00
   5  -7   5   -0.60    0.80
   5  -7   6    2.20    0.90
   5  -7   6    2.20    1.00
   5  -7   7    7.00    1.20
   5  -7   7    7.10    1.20
  -5   6   8  104.29    4.00
   5  -6  -8  101.19    4.00
   5  -6  -8  106.49    3.90
  -5   6   7   10.60    1.70
   5  -6  -7    9.50    1.50
   5  -6  -7   10.00    1.60
   5  -6  -7   11.00    1.60
  -5   6   6   88.59    4.70
   5  -6  -6   91.09    4.50
   5  -6  -6   87.19    4.60
   5  -6  -6   87.09    4.50
   5  -6  -5   -0.70    0.70
  -5   6   5    0.40    0.80
   5  -6  -5    2.20    1.10
   5  -6  -5    1.80    0.90
   5  -6  -5    1.70    0.90
   5  -6  -4   -0.50    0.70
  -5   6   4    0.20    0.70
  -5   6   4    1.00    0.80
  -5   6   4   -0.10    0.90
   5  -6  -4    0.70    0.60
   5  -6  -4    0.00    0.60
   5  -6  -4    1.20    0.80
   5  -6  -4    1.10    0.80
   5  -6  -3   21.60    2.40
  -5   6   3   22.00    2.50
  -5   6   3   18.00    2.30
   5  -6  -3   23.40    2.40
   5  -6  -3   22.90    2.80
   5  -6  -3   24.70    3.00
   5  -6  -3   26.40    2.90
  -5   6   3   23.90    3.00
  -5   6   3   19.30    2.60
   5  -6  -3   24.40    2.60
   5  -6  -3   23.70    2.30
  -5   6   3   27.90    2.70
  -5   6   3   22.90    2.60
   5  -6  -2   30.40    2.80
  -5   6   2   25.80    2.70
  -5   6   2   32.80    2.90
   5  -6  -2   31.70    3.20
  -5   6   2   29.50    2.70
   5  -6  -2   29.80    2.70
  -5   6   2   29.90    2.80
   5  -6  -2   29.40    3.30
   5  -6  -2   26.20    2.80
   5  -6  -2   22.50    2.50
  -5   6   2   29.80    2.80
  -5   6   1    9.70    1.70
   5  -6  -1    8.80    1.60
  -5   6   1    8.40    1.70
  -5   6   1    9.40    1.60
  -5   6   1    7.90    1.50
   5  -6  -1    9.20    1.60
   5  -6  -1   10.40    1.90
   5  -6  -1   10.70    2.00
   5  -6  -1   11.00    1.90
   5  -6   0   62.99    4.20
  -5   6   0   51.59    4.00
   5  -6   0   59.19    3.80
   5  -6   0   59.49    4.30
   5  -6   0   65.19    4.60
   5  -6   0   55.19    3.50
   5  -6   1   80.39    4.70
  -5   6  -1   72.19    4.60
  -5   6  -1   72.09    4.60
   5  -6   1   80.49    4.60
   5  -6   1   76.29    4.90
  -5   6  -1   72.59    5.10
   5  -6   1   77.39    5.00
   5  -6   1   75.19    4.20
  -5   6  -1   68.99    4.00
   5  -6   2  122.79    5.90
  -5   6  -2  118.79    6.00
  -5   6  -2  120.29    6.00
  -5   6  -2  120.49    6.60
   5  -6   2  138.49    6.60
   5  -6   2  117.49    5.20
  -5   6  -2  117.99    5.80
   5  -6   3   19.90    2.40
  -5   6  -3   18.60    2.40
  -5   6  -3   20.50    2.50
   5  -6   3   17.30    2.20
  -5   6  -3   14.60    2.40
   5  -6   3   18.30    2.20
  -5   6  -4   32.00    3.20
  -5   6  -4   34.90    3.20
   5  -6   4   32.00    2.80
   5  -6   4   37.00    3.40
   5  -6   4   33.90    2.90
   5  -6   4   34.60    3.10
   5  -6   5  103.49    4.60
   5  -6   5  100.79    5.30
   5  -6   5  100.49    4.50
   5  -6   5  100.09    5.10
   5  -6   6   45.10    3.40
   5  -6   6   41.80    3.10
   5  -6   7   -0.50    0.80
  -5   5   9   27.30    2.10
   5  -5  -9   28.40    1.90
   5  -5  -9   28.10    2.10
   5  -5  -9   25.80    1.90
  -5   5   8   -0.60    0.80
   5  -5  -8    0.10    0.70
   5  -5  -8    0.90    0.70
  -5   5   7   11.40    1.80
   5  -5  -7   11.20    1.70
   5  -5  -7   12.20    1.80
   5  -5  -7   11.00    1.70
   5  -5  -6   35.20    2.90
  -5   5   6   34.40    2.80
  -5   5   6   38.30    3.20
   5  -5  -6   36.30    3.00
  -5   5   6   35.80    2.90
   5  -5  -6   34.70    2.90
   5  -5  -6   31.40    2.90
   5  -5  -6   37.90    3.10
  -5   5   6   33.90    3.00
   5  -5  -5  166.28    6.20
  -5   5   5  152.58    6.20
  -5   5   5  159.38    6.30
  -5   5   5  156.28    6.40
   5  -5  -5  166.48    6.40
   5  -5  -5  160.28    6.90
  -5   5   5  161.38    7.60
   5  -5  -5  171.38    6.50
  -5   5   5  162.18    7.60
   5  -5  -5  160.98    6.90
   5  -5  -5  169.98    6.60
  -5   5   5  163.28    6.40
   5  -5  -5  174.38    6.40
  -5   5   4    9.80    1.60
  -5   5   4   11.70    1.80
  -5   5   4    8.60    1.50
   5  -5  -4   12.80    1.80
   5  -5  -4   13.90    2.10
  -5   5   4   13.10    2.30
  -5   5   4   10.90    2.00
   5  -5  -4   12.30    1.80
   5  -5  -4   10.90    1.80
   5  -5  -4   14.10    1.80
  -5   5   3   46.10    3.70
   5  -5  -3   44.00    3.90
   5  -5  -3   44.30    3.60
  -5   5   3   41.90    3.90
   5  -5  -3   44.70    3.30
  -5   5   3   40.30    3.70
  -5   5   2   10.30    1.60
   5  -5  -2   10.80    2.10
   5  -5  -2    9.40    1.80
  -5   5   2    9.60    1.90
   5  -5  -2   10.60    1.70
  -5   5   1  544.65   11.70
   5  -5  -1  546.95   12.90
   5  -5  -1  557.54   12.00
  -5   5   1  543.05   13.30
   5  -5  -1  563.24   12.10
  -5   5   0    4.60    1.20
  -5   5   0    6.70    1.50
   5  -5   0    5.80    1.50
   5  -5   0    4.30    1.20
  -5   5   0    8.80    1.70
   5  -5   0    7.30    1.60
  -5   5   0    7.10    1.50
  -5   5  -1  141.29    6.10
  -5   5  -1  144.49    6.30
  -5   5  -1  144.39    6.90
   5  -5   1  155.08    6.90
   5  -5   1  141.09    6.50
  -5   5  -1  131.49    6.10
  -5   5  -2    4.60    1.30
  -5   5  -2    3.80    1.20
  -5   5  -2    4.80    1.40
   5  -5   2    6.20    1.50
   5  -5   2    7.00    1.60
  -5   5  -2    7.10    1.60
  -5   5  -2    6.40    1.40
  -5   5  -3    2.30    1.00
   5  -5   3    0.10    0.80
  -5   5  -3    0.00    0.70
   5  -5   3   -0.20    0.80
  -5   5  -3    0.60    0.90
   5  -5   3    1.00    0.80
   5  -5   3    0.20    0.60
   5  -5   3    0.60    0.70
  -5   5  -3    1.90    0.80
  -5   5  -4   47.80    3.70
   5  -5   4   43.30    3.30
  -5   5  -4   44.30    4.10
   5  -5   4   41.70    3.60
   5  -5   4   44.90    3.20
   5  -5   4   46.90    3.60
  -5   5  -4   41.40    3.40
   5  -5   5   32.90    2.70
   5  -5   5   31.00    3.10
   5  -5   5   29.80    2.90
   5  -5   6    7.40    1.60
   5  -5   6    9.00    1.70
   5  -5   7   12.40    1.70
  -5   4  10   32.00    2.20
   5  -4 -10   37.30    2.20
   5  -4  -9    0.30    0.70
   5  -4  -9   -0.40    0.60
  -5   4   8  250.67    7.90
   5  -4  -8  244.38    7.50
   5  -4  -8  252.07    7.50
   5  -4  -7   68.79    4.10
  -5   4   7   70.29    4.00
  -5   4   7   67.39    4.20
   5  -4  -7   68.29    4.00
  -5   4   7   65.39    3.80
   5  -4  -7   70.09    4.20
   5  -4  -7   73.19    4.30
  -5   4   7   66.29    4.20
   5  -4  -7   67.29    4.10
   5  -4  -6   79.39    4.30
  -5   4   6   73.19    4.20
  -5   4   6   77.29    4.40
   5  -4  -6   76.39    4.30
  -5   4   6   69.29    4.10
   5  -4  -6   72.39    4.60
   5  -4  -6   76.49    4.40
  -5   4   6   71.89    5.10
   5  -4  -6   64.19    4.50
   5  -4  -6   72.69    4.30
  -5   4   6   72.59    4.40
   5  -4  -6   76.59    4.30
   5  -4  -5   57.19    3.50
   5  -4  -5   54.59    4.00
  -5   4   5   57.79    4.60
   5  -4  -5   55.29    3.70
  -5   4   5   56.19    4.50
   5  -4  -5   53.49    4.00
  -5   4   5   59.99    3.90
   5  -4  -4   13.70    2.10
  -5   4   4   16.30    2.50
   5  -4  -4   14.50    1.90
   5  -4  -4   15.10    2.00
  -5   4   4   15.00    1.90
  -5   4   3  164.28    6.00
   5  -4  -3  161.28    6.50
  -5   4   3  166.28    7.30
   5  -4  -3  166.18    5.90
  -5   4   2    1.80    0.80
  -5   4   2    2.60    0.80
   5  -4  -2    1.30    1.00
   5  -4  -2    1.40    0.80
  -5   4   2    0.10    1.10
   5  -4  -2    1.40    0.70
   5  -4  -2    2.10    0.90
  -5   4   1  393.46    9.40
   5  -4  -1  401.76   10.60
   5  -4  -1  405.66    9.60
  -5   4   1  410.46   11.20
   5  -4  -1  393.96    9.80
  -5   4   1  379.16    9.80
  -5   4   0   89.99    4.40
  -5   4   0   82.39    4.40
  -5   4   0   81.69    4.70
   5  -4   0   87.69    4.90
   5  -4   0   86.99    4.30
  -5   4   0   75.69    4.90
   5  -4   0   87.89    4.80
  -5   4   0   87.69    4.80
  -5   4  -1  215.08    7.30
   5  -4   1  241.08    8.00
  -5   4  -1  216.78    8.20
   5  -4   1  230.18    7.90
  -5   4  -1  221.28    8.00
  -5   4  -1  219.38    7.50
  -5   4  -2  382.06   10.00
   5  -4   2  417.46   10.70
  -5   4  -2  403.36   11.20
   5  -4   2  409.76   10.80
  -5   4  -2  422.26   11.70
  -5   4  -2  395.86   10.20
   5  -4   3  147.29    6.50
   5  -4   3  159.48    6.90
  -5   4  -3  167.98    7.80
  -5   4  -3  165.28    6.70
   5  -4   4    2.40    1.00
   5  -4   4    4.40    1.00
   5  -4   4    4.70    1.50
   5  -4   4    1.90    0.70
   5  -4   4    4.50    1.30
  -5   4  -4    2.00    0.90
   5  -4   5    0.70    0.80
   5  -4   5    0.30    1.20
   5  -4   5    1.40    0.80
   5  -4   6   48.70    3.70
   5  -4   7    1.80    1.00
   5  -3 -11   50.59    2.50
  -5   3  10    2.50    1.00
  -5   3  10    2.70    0.90
   5  -3 -10    3.70    0.90
  -5   3   9    2.80    1.00
  -5   3   9    1.30    0.80
   5  -3  -9    1.10    0.80
  -5   3   8  158.18    5.90
  -5   3   8  156.18    6.40
  -5   3   8  165.58    6.10
  -5   3   8  163.38    6.90
   5  -3  -8  160.98    6.30
   5  -3  -8  162.68    6.20
  -5   3   8  165.68    6.70
   5  -3  -8  162.38    6.20
   5  -3  -8  148.59    6.00
   5  -3  -7   -1.80    0.80
  -5   3   7    0.80    0.70
  -5   3   7    0.20    0.80
  -5   3   7    0.30    0.80
   5  -3  -7   -1.80    1.00
  -5   3   7    1.40    0.90
  -5   3   7   -1.60    1.00
   5  -3  -7    0.60    0.70
   5  -3  -7   -0.60    0.70
   5  -3  -7    0.60    0.70
   5  -3  -7    0.80    0.90
  -5   3   7    0.10    0.60
   5  -3  -6   53.99    4.10
  -5   3   6   50.49    4.20
   5  -3  -6   56.29    3.70
  -5   3   6   54.59    4.40
   5  -3  -6   52.49    4.00
  -5   3   6   56.59    3.90
   5  -3  -6   58.29    3.60
   5  -3  -5   42.30    3.50
  -5   3   5   41.90    3.70
   5  -3  -5   44.50    3.20
   5  -3  -5   42.30    3.40
  -5   3   5   42.20    3.20
  -5   3   4   22.20    2.30
   5  -3  -4   20.30    2.40
  -5   3   4   17.30    2.40
   5  -3  -4   20.40    2.10
   5  -3  -4   19.60    2.20
  -5   3   4   20.70    2.10
  -5   3   3   11.60    1.60
   5  -3  -3   13.10    1.90
  -5   3   3   15.20    2.30
   5  -3  -3   10.60    1.50
  -5   3   2  162.48    5.70
   5  -3  -2  167.48    6.50
   5  -3  -2  160.28    5.90
  -5   3   2  170.48    7.00
   5  -3  -2  156.38    5.80
   5  -3  -2  174.58    5.40
  -5   3   2  161.48    6.10
  -5   3   1    3.70    1.00
   5  -3  -1    1.80    0.80
   5  -3  -1    2.70    0.90
  -5   3   1    4.30    1.30
   5  -3  -1    4.10    0.90
   5  -3  -1    2.20    1.00
  -5   3   1    2.40    0.90
   5  -3   0   25.20    2.50
  -5   3   0   21.90    2.60
   5  -3   0   26.60    2.70
   5  -3   0   26.80    2.70
  -5   3   0   26.40    2.70
  -5   3   0   25.00    2.50
  -5   3  -1  372.46    8.80
   5  -3   1  382.66    9.60
  -5   3  -1  364.26   10.40
   5  -3   1  371.16   10.20
   5  -3   1  365.86    9.80
  -5   3  -1  378.26   10.60
  -5   3  -1  371.36    9.50
  -5   3  -2   20.30    2.20
   5  -3   2   20.50    2.40
  -5   3  -2   21.50    2.60
   5  -3   2   20.90    2.50
   5  -3   2   20.20    2.50
  -5   3  -2   19.60    2.60
  -5   3  -2   21.80    2.40
  -5   3  -3   15.50    2.00
   5  -3   3   15.40    2.20
  -5   3  -3   18.60    2.50
   5  -3   3   16.60    2.30
  -5   3  -3   18.00    2.70
  -5   3  -3   16.80    2.20
   5  -3   4   17.70    2.20
   5  -3   4   14.40    2.10
   5  -3   4   17.20    2.20
  -5   3  -4   18.10    2.50
   5  -3   4   17.90    2.00
  -5   3  -4   19.70    2.30
   5  -3   5   10.90    1.70
   5  -3   5   12.40    1.90
   5  -3   5   15.30    2.20
  -5   3  -5   14.70    2.10
   5  -3   6   43.10    3.30
   5  -3   6   39.10    3.30
   5  -3   7   15.80    1.80
  -5   2  11   46.00    3.10
  -5   2  10  253.77    7.70
  -5   2  10  256.97    8.20
  -5   2   9   66.29    3.80
  -5   2   9   69.09    4.20
  -5   2   9   63.69    4.40
  -5   2   9   67.39    3.90
  -5   2   8   29.40    2.70
  -5   2   8   30.70    2.80
  -5   2   8   28.60    2.60
   5  -2  -8   32.20    2.90
  -5   2   8   28.20    2.90
   5  -2  -8   28.50    2.60
   5  -2  -8   27.50    2.70
   5  -2  -7  193.38    7.10
   5  -2  -7  177.58    7.30
  -5   2   7  174.58    7.60
   5  -2  -7  196.58    6.90
  -5   2   7  184.28    7.80
   5  -2  -7  177.58    7.40
  -5   2   7  190.58    7.10
   5  -2  -7  194.78    6.70
   5  -2  -6  101.09    4.90
   5  -2  -6   94.29    5.20
  -5   2   6   94.09    5.50
   5  -2  -6  100.09    4.80
   5  -2  -6   86.09    5.00
  -5   2   6   95.89    5.00
   5  -2  -6  102.09    4.50
  -5   2   5   17.30    2.10
   5  -2  -5   16.80    1.90
   5  -2  -5   15.00    2.10
  -5   2   5   16.20    2.30
   5  -2  -5   14.40    1.80
  -5   2   4  114.99    5.00
   5  -2  -4  114.99    5.20
  -5   2   4  107.29    5.50
   5  -2  -4  112.99    4.50
   5  -2  -3  162.18    5.90
  -5   2   3  164.98    6.70
   5  -2  -3  157.58    5.60
   5  -2  -3  163.58    5.10
  -5   2   3  162.18    5.70
  -5   2   3  162.88    5.80
   5  -2  -2   27.10    2.50
   5  -2  -2   27.00    2.30
  -5   2   2   24.30    2.60
   5  -2  -2   24.50    2.40
   5  -2  -2   25.10    2.40
   5  -2  -2   29.10    2.10
  -5   2   2   26.20    2.40
   5  -2  -1    0.00    0.70
  -5   2   1    0.90    1.00
   5  -2  -1    0.20    0.70
   5  -2  -1    0.00    0.90
  -5   2   1    0.70    0.80
  -5   2   0   17.00    2.00
   5  -2   0   17.70    2.00
  -5   2   0   22.30    2.60
   5  -2   0   23.20    2.50
   5  -2   0   19.30    2.30
  -5   2   0   16.40    2.00
  -5   2  -1  205.08    6.50
   5  -2   1  206.98    6.70
  -5   2  -1  205.98    7.70
   5  -2   1  202.78    7.20
   5  -2   1  208.28    7.50
  -5   2  -1  202.98    6.80
   5  -2   2   34.40    3.30
  -5   2  -2   34.80    2.80
   5  -2   2   36.50    3.00
  -5   2  -2   37.70    3.40
   5  -2   2   36.60    3.20
   5  -2   2   34.70    3.20
  -5   2  -2   30.90    3.20
  -5   2  -2   38.60    3.10
   5  -2   3  127.19    6.60
  -5   2  -3  112.79    5.20
  -5   2  -3  119.19    6.10
   5  -2   3  123.99    6.20
   5  -2   3  125.09    5.80
  -5   2  -3  125.89    5.70
   5  -2   4   88.69    5.60
   5  -2   4   74.89    4.50
   5  -2   4   82.59    4.80
  -5   2  -4   77.49    4.30
   5  -2   4   83.39    4.70
  -5   2  -4   75.59    4.90
  -5   2  -4   79.69    4.60
   5  -2   4   75.59    4.00
   5  -2   5   -0.10    0.80
   5  -2   5    1.30    0.80
   5  -2   6    0.10    0.80
   5  -2   7   61.99    3.40
   5  -2   7   66.59    3.30
   5  -1 -12   24.00    1.70
  -5   1  12   28.60    2.20
  -5   1  11  317.97    8.80
  -5   1  11  331.17    7.00
  -5   1  10    5.80    1.20
  -5   1  10    7.20    1.50
  -5   1  10    5.30    1.50
  -5   1  10    5.50    1.10
   5  -1  -9    0.60    0.60
  -5   1   9    1.20    0.80
  -5   1   9    0.50    0.60
  -5   1   9    0.70    0.80
   5  -1  -9   -0.10    0.90
  -5   1   9   -0.60    0.60
   5  -1  -8    5.00    1.20
   5  -1  -8    3.50    1.20
  -5   1   8    3.60    1.10
  -5   1   8    6.90    1.40
   5  -1  -8    7.70    1.50
   5  -1  -8    5.90    1.30
  -5   1   8    6.10    1.30
   5  -1  -8    3.10    1.30
   5  -1  -8    4.80    1.30
  -5   1   8    4.20    1.10
   5  -1  -7   88.89    4.50
   5  -1  -7   94.89    5.10
   5  -1  -7   79.19    4.90
  -5   1   7   79.19    4.90
   5  -1  -7   87.99    4.60
  -5   1   7   87.99    4.80
   5  -1  -7   93.79    4.50
  -5   1   6   62.29    3.80
   5  -1  -6   57.89    3.50
   5  -1  -6   60.39    3.90
   5  -1  -6   63.69    4.20
  -5   1   6   62.19    4.30
   5  -1  -6   64.09    3.80
  -5   1   5    8.60    1.50
   5  -1  -5    8.20    1.30
  -5   1   5    8.40    1.70
   5  -1  -5    7.60    1.40
   5  -1  -5    7.00    1.40
  -5   1   5    5.60    1.30
   5  -1  -5    7.60    1.40
   5  -1  -4  378.26    8.10
  -5   1   4  386.26    9.30
   5  -1  -4  401.76    8.80
   5  -1  -4  385.26    9.10
  -5   1   4  388.56    9.90
   5  -1  -4  375.76    7.70
  -5   1   4  365.46    8.60
  -5   1   3  414.46    9.20
  -5   1   3  429.46    9.30
   5  -1  -3  441.66    8.80
   5  -1  -3  459.05    9.40
   5  -1  -3  445.46    9.50
  -5   1   3  421.66   10.20
   5  -1  -3  426.66    9.10
   5  -1  -3  465.25    7.90
  -5   1   3  438.36    8.70
  -5   1   2    1.40    0.60
  -5   1   2    0.20    0.70
   5  -1  -2    0.80    0.60
   5  -1  -2    0.40    0.50
   5  -1  -2    0.10    0.60
  -5   1   2    1.00    0.80
   5  -1  -2   -0.10    0.80
   5  -1  -2    0.90    0.80
  -5   1   2    1.70    0.80
  -5   1   1  116.89    4.80
  -5   1   1  120.09    4.80
  -5   1   1  129.69    4.90
   5  -1  -1  116.99    5.20
  -5   1   1  120.69    5.60
   5  -1  -1  118.79    5.30
  -5   1   1  118.29    4.80
   5  -1   0    2.00    0.80
  -5   1   0    0.90    0.70
  -5   1   0    0.70    0.60
   5  -1   0    1.80    1.00
   5  -1   0    0.50    0.80
  -5   1   0    0.70    0.60
   5  -1   1   26.30    2.80
  -5   1  -1   28.10    2.60
  -5   1  -1   23.10    2.10
  -5   1  -1   18.50    2.30
   5  -1   1   21.70    2.40
   5  -1   1   25.30    2.70
  -5   1  -1   21.00    2.20
   5  -1   2   40.00    3.60
  -5   1  -2   38.90    3.00
  -5   1  -2   38.10    2.80
  -5   1  -2   40.50    3.50
   5  -1   2   40.60    3.30
   5  -1   2   39.60    3.50
  -5   1  -2   34.70    3.00
  -5   1  -3    5.50    1.70
   5  -1   3    7.20    1.50
  -5   1  -3    4.00    1.10
  -5   1  -3    4.10    1.00
  -5   1  -3    4.30    1.30
   5  -1   3    5.40    1.20
   5  -1   4    0.70    0.70
   5  -1   4    0.50    0.50
   5  -1   4    1.00    0.90
  -5   1  -4    1.30    0.80
  -5   1  -4    0.50    0.80
   5  -1   5   37.90    3.30
   5  -1   6   51.69    3.60
   5  -1   7    3.20    1.00
   5  -1   7    3.00    0.80
   5   0 -12   74.49    3.10
  -5   0  12   77.79    3.90
  -5   0  11  108.99    4.60
  -5   0  11  104.59    4.40
  -5   0  11  102.39    5.30
  -5   0  10    5.10    1.30
  -5   0  10    2.40    0.80
  -5   0  10    2.80    1.10
  -5   0  10    3.90    1.40
   5   0  -9  153.68    6.10
  -5   0   9  166.38    6.30
  -5   0   9  160.38    6.50
  -5   0   9  172.28    7.40
   5   0  -9  175.98    6.70
  -5   0   9  167.18    6.60
  -5   0   9  153.98    6.10
   5   0  -9  168.68    6.50
   5   0  -8  154.18    6.00
  -5   0   8  141.59    5.70
  -5   0   8  146.79    5.80
   5   0  -8  154.98    6.70
   5   0  -8  156.08    7.00
  -5   0   8  151.18    6.80
   5   0  -8  152.18    6.10
  -5   0   8  151.98    6.30
   5   0  -8  147.99    5.90
  -5   0   7   14.20    1.90
   5   0  -7   13.40    1.80
   5   0  -7   14.60    2.10
   5   0  -7   15.30    2.20
   5   0  -7   15.80    2.00
  -5   0   6    1.20    0.70
   5   0  -6    0.30    0.70
  -5   0   6    0.90    1.00
   5   0  -6    0.20    0.70
   5   0  -6    0.20    0.60
  -5   0   6    2.10    0.90
   5   0  -6    0.40    0.80
  -5   0   5   29.60    2.50
   5   0  -5   33.70    2.50
  -5   0   5   30.80    2.90
   5   0  -5   34.40    2.80
   5   0  -5   36.30    3.00
  -5   0   5   32.10    2.80
   5   0  -5   31.80    2.40
   5   0  -4  420.56    8.30
  -5   0   4  389.66    9.50
  -5   0   4  382.86    9.40
   5   0  -4  389.86    9.00
   5   0  -4  430.66    9.40
   5   0  -4  406.56    9.10
  -5   0   4  414.46    9.70
   5   0  -4  413.16    7.60
   5   0  -3   76.49    3.40
  -5   0   3   69.79    3.90
  -5   0   3   65.99    3.80
   5   0  -3   68.09    3.70
   5   0  -3   77.59    3.80
   5   0  -3   70.79    4.00
  -5   0   3   70.59    4.10
   5   0  -3   74.09    3.90
  -5   0   2  234.28    6.60
  -5   0   2  239.78    7.10
  -5   0   2  249.97    7.30
   5   0  -2  245.08    7.00
   5   0  -2  234.68    7.30
  -5   0   2  241.08    7.50
   5   0  -2  248.28    7.60
  -5   0   2  247.58    6.30
  -5   0   1    0.60    0.60
  -5   0   1    1.30    0.80
   5   0  -1    0.90    0.70
  -5   0   1    1.40    0.90
   5   0  -1    1.60    1.10
   5   0  -1    1.00    0.80
  -5   0   1    1.00    0.70
  -5   0   0  125.49    5.80
   5   0   0  127.59    5.60
  -5   0   0  125.29    5.00
  -5   0   0  123.09    4.80
  -5   0   0  123.79    5.20
   5   0   0  124.99    5.40
   5   0   0  120.29    5.50
  -5   0   0  128.29    5.80
   5   0   0  123.19    5.80
  -5   0   0  135.19    5.20
  -5   0  -1   14.30    2.20
   5   0   1   13.40    2.00
  -5   0  -1   12.80    1.70
  -5   0  -1   15.00    1.80
  -5   0  -1   13.60    1.80
  -5   0  -1   15.70    2.20
   5   0   1   15.10    2.10
   5   0   1   12.30    1.90
   5   0   2   49.40    4.00
  -5   0  -2   48.90    3.40
  -5   0  -2   46.80    3.20
  -5   0  -2   50.39    3.60
  -5   0  -2   46.80    3.80
   5   0   2   49.00    3.70
   5   0   2   55.69    4.20
  -5   0  -2   46.80    4.10
   5   0   3   33.20    3.40
   5   0   3   23.50    2.60
   5   0   3   32.30    3.00
  -5   0  -3   25.60    2.60
  -5   0  -3   26.20    2.50
  -5   0  -3   28.20    3.10
   5   0   3   27.90    2.50
   5   0   3   31.00    3.10
   5   0   4   62.39    3.80
   5   0   4   67.69    4.40
  -5   0  -4   67.39    4.10
  -5   0  -4   66.89    3.90
   5   0   5   65.69    3.70
   5   0   5   73.69    4.50
   5   0   6    3.60    0.90
   5   0   6    5.20    1.30
   5   0   7    9.30    1.30
   5   0   7   10.10    1.20
  -5  -1  12   92.59    4.50
  -5  -1  11    7.60    1.40
  -5  -1  11   10.00    1.80
  -5  -1  10   70.29    4.20
  -5  -1  10   63.39    3.90
  -5  -1  10   70.19    4.80
   5   1  -9    8.60    1.50
  -5  -1   9    9.50    1.60
  -5  -1   9    9.20    1.60
  -5  -1   9   11.20    2.10
  -5  -1   9    8.00    1.30
   5   1  -9   10.00    1.60
  -5  -1   9    9.50    1.70
   5   1  -8    4.50    1.20
   5   1  -8    4.00    1.20
   5   1  -8    2.10    1.10
   5   1  -8    4.20    1.10
  -5  -1   8    1.40    0.80
  -5  -1   7   14.50    1.80
   5   1  -7   13.10    1.80
   5   1  -7   14.90    2.10
   5   1  -7   13.50    2.00
   5   1  -7   10.10    1.50
  -5  -1   6  130.79    5.20
   5   1  -6  121.99    4.90
  -5  -1   6  121.19    5.90
   5   1  -6  128.89    5.80
   5   1  -6  129.29    5.80
   5   1  -6  131.09    4.90
   5   1  -5    4.90    1.10
  -5  -1   5    7.20    1.50
  -5  -1   5    8.50    1.60
   5   1  -5    5.20    1.20
   5   1  -5    4.90    1.20
   5   1  -5    6.00    1.00
   5   1  -4  379.96    7.70
  -5  -1   4  365.26    9.40
   5   1  -4  369.86    9.10
  -5  -1   4  354.66    9.30
   5   1  -4  386.96    8.80
   5   1  -3  270.87    6.10
  -5  -1   3  267.37    7.90
  -5  -1   3  262.67    7.80
   5   1  -3  265.67    7.70
   5   1  -3  272.67    6.90
  -5  -1   3  282.07    7.80
   5   1  -3  276.87    7.90
  -5  -1   2   71.99    3.60
  -5  -1   2   70.79    4.10
   5   1  -2   70.09    4.00
   5   1  -2   72.19    3.70
  -5  -1   2   70.49    4.00
   5   1  -2   76.79    4.40
  -5  -1   1  243.58    6.80
  -5  -1   1  235.28    6.70
  -5  -1   1  251.97    7.70
   5   1  -1  245.18    7.60
   5   1  -1  227.58    7.60
  -5  -1   1  246.28    7.70
   5   1  -1  244.58    8.10
  -5  -1   1  255.67    6.70
  -5  -1   0  210.08    6.60
  -5  -1   0  207.48    6.40
  -5  -1   0  217.08    7.30
   5   1   0  212.98    7.50
   5   1   0  200.18    7.30
  -5  -1   0  215.78    7.50
   5   1   0  212.98    7.90
  -5  -1   0  214.38    7.90
  -5  -1  -1   -0.10    0.20
   5   1   1   -0.60    1.10
  -5  -1  -1    0.30    0.60
  -5  -1  -1    1.50    0.70
  -5  -1  -1    1.30    0.70
  -5  -1  -1    0.70    0.60
   5   1   1    0.70    0.80
   5   1   2  164.68    7.40
   5   1   2  161.88    6.50
  -5  -1  -2  149.69    6.00
  -5  -1  -2  146.49    5.90
  -5  -1  -2  168.18    6.80
  -5  -1  -2  144.69    6.70
   5   1   2  159.08    7.10
  -5  -1  -2  149.49    7.40
   5   1   3    0.40    0.80
   5   1   3    0.80    1.00
  -5  -1  -3    0.30    0.60
   5   1   3    1.20    0.60
  -5  -1  -3   -0.60    0.90
  -5  -1  -3    1.40    0.70
   5   1   3    0.30    0.60
   5   1   4   86.99    4.40
   5   1   4   88.89    4.50
   5   1   4   97.79    5.20
   5   1   5   -0.10    0.60
   5   1   5    0.60    0.80
   5   1   6   10.80    1.30
   5   1   6   11.30    1.50
  -5  -2  12    8.30    1.40
  -5  -2  11   19.00    2.10
  -5  -2  11   17.90    2.30
  -5  -2  10   75.39    4.30
  -5  -2  10   72.39    4.20
  -5  -2  10   73.09    4.80
  -5  -2  10   76.99    4.10
   5   2  -9   29.20    2.70
  -5  -2   9   31.00    2.80
  -5  -2   9   30.70    2.80
  -5  -2   9   33.40    3.30
  -5  -2   9   33.10    2.80
   5   2  -9   31.30    2.80
   5   2  -8  186.18    6.60
   5   2  -8  200.98    7.80
  -5  -2   8  192.58    6.90
   5   2  -8  195.48    7.70
   5   2  -8  192.28    6.50
   5   2  -7  232.38    7.00
  -5  -2   7  215.48    8.20
  -5  -2   7  232.48    7.30
   5   2  -7  232.48    8.10
   5   2  -7  238.78    8.30
   5   2  -7  234.78    6.90
   5   2  -6  158.48    5.50
  -5  -2   6  148.29    6.50
  -5  -2   6  155.28    5.70
   5   2  -6  154.18    6.40
   5   2  -6  149.19    6.30
   5   2  -5    3.80    1.00
  -5  -2   5    3.60    1.10
  -5  -2   5    3.50    1.10
   5   2  -5    2.70    1.00
   5   2  -5    4.60    1.20
   5   2  -4  207.38    6.20
  -5  -2   4  197.58    7.20
  -5  -2   4  203.88    7.30
   5   2  -4  199.78    7.10
   5   2  -4  195.68    6.40
   5   2  -3    0.10    0.80
  -5  -2   3    0.00    0.80
  -5  -2   3   -0.20    0.70
   5   2  -3   -0.10    0.80
   5   2  -3    0.10    0.90
  -5  -2   2   21.90    2.10
  -5  -2   2   17.60    1.90
  -5  -2   2   22.90    2.40
   5   2  -2   20.60    2.40
   5   2  -2   17.90    2.10
   5   2  -2   20.00    2.50
   5   2  -1    5.60    1.30
  -5  -2   1    5.20    1.10
  -5  -2   1    4.80    1.10
  -5  -2   1   10.50    1.70
   5   2  -1    7.30    1.50
  -5  -2   1    7.50    1.40
   5   2  -1   10.00    1.90
  -5  -2   0   29.70    2.50
  -5  -2   0   31.00    2.60
  -5  -2   0   32.90    3.10
   5   2   0   27.70    3.00
   5   2   0   27.40    2.90
  -5  -2   0   34.10    3.00
   5   2   0   30.00    3.10
  -5  -2  -1   73.89    4.20
  -5  -2  -1   75.19    4.20
  -5  -2  -1   68.59    4.50
  -5  -2  -1   74.89    4.90
   5   2   1   72.29    4.50
  -5  -2  -1   70.29    4.60
   5   2   1   78.19    5.10
   5   2   2   -0.20    1.10
   5   2   2    0.60    0.90
   5   2   2   -0.30    1.10
   5   2   2    0.60    0.80
  -5  -2  -2    1.10    0.80
  -5  -2  -2    0.20    0.70
  -5  -2  -2    1.90    0.80
  -5  -2  -2    1.20    1.20
  -5  -2  -2    4.00    1.10
   5   2   2   -1.80    1.10
   5   2   2   -0.50    0.90
   5   2   3  656.23   12.50
   5   2   3  652.93   12.50
   5   2   4    0.80    0.70
   5   2   4    0.60    0.80
   5   2   4    2.20    0.80
   5   2   5    0.10    0.60
   5   2   5    0.00    0.70
   5   2   6   44.70    2.20
   5   2   6   44.00    2.30
  -5  -3  12   12.70    1.40
  -5  -3  11    5.00    1.20
  -5  -3  11    5.90    1.10
  -5  -3  11    2.90    0.90
  -5  -3  10    9.10    1.50
  -5  -3  10    9.20    1.60
   5   3  -9   80.79    4.40
  -5  -3   9   81.69    4.50
  -5  -3   9   80.39    4.50
  -5  -3   9   80.59    4.60
  -5  -3   9   84.29    4.60
   5   3  -9   84.99    4.40
   5   3  -8    6.60    1.30
  -5  -3   8    6.30    1.40
   5   3  -8    7.70    1.50
  -5  -3   8    6.40    1.20
   5   3  -8    6.50    1.50
  -5  -3   8    6.80    1.40
   5   3  -8    7.10    1.50
  -5  -3   8    6.90    1.40
   5   3  -8    5.40    1.10
   5   3  -7    0.40    0.60
  -5  -3   7    0.30    0.80
  -5  -3   7    0.10    0.60
   5   3  -7    0.40    0.90
   5   3  -6   28.60    2.40
  -5  -3   6   20.70    2.60
  -5  -3   6   24.70    2.80
  -5  -3   6   30.80    2.70
   5   3  -6   30.30    3.00
   5   3  -6   27.80    2.80
   5   3  -5  138.09    5.40
  -5  -3   5  126.39    6.00
  -5  -3   5  133.69    6.20
   5   3  -5  139.59    6.30
   5   3  -5  140.19    5.90
   5   3  -4   67.89    3.90
  -5  -3   4   69.09    4.50
  -5  -3   4   68.29    4.40
   5   3  -4   69.89    4.40
   5   3  -4   69.59    4.40
   5   3  -3   44.60    3.30
  -5  -3   3   44.80    3.60
  -5  -3   3   52.39    3.80
   5   3  -3   53.59    3.90
   5   3  -3   48.90    3.90
  -5  -3   2   19.60    2.00
  -5  -3   2   19.30    2.50
   5   3  -2   19.90    2.50
   5   3  -2   18.10    2.20
   5   3  -2   19.90    2.60
  -5  -3   1    0.50    0.60
  -5  -3   1    0.80    0.70
   5   3  -1    0.70    0.80
   5   3  -1    2.00    1.10
   5   3  -1    1.30    1.00
   5   3   0  250.47    7.80
   5   3   0  250.67    7.70
  -5  -3   0  243.48    7.50
  -5  -3   0  255.37    8.70
   5   3   0  237.08    8.40
   5   3   0  257.17    9.40
  -5  -3   0  240.28    7.90
   5   3   1   18.80    2.20
  -5  -3  -1   20.20    2.20
  -5  -3  -1   22.40    2.40
  -5  -3  -1   19.20    2.40
   5   3   1   18.50    2.30
   5   3   2    9.80    1.70
   5   3   2    9.70    1.60
   5   3   2   12.60    1.90
   5   3   3    3.00    1.00
   5   3   3    2.50    1.00
   5   3   3    2.70    1.00
   5   3   4   65.39    3.50
   5   3   4   62.69    3.40
   5   3   4   65.99    3.40
   5   3   5   30.10    2.00
   5   3   5   31.20    2.00
  -5  -4  12    5.80    1.00
   5   4 -11   28.40    2.40
  -5  -4  11   30.00    2.40
   5   4 -10   81.49    4.40
  -5  -4  10   87.59    4.60
  -5  -4   9   76.29    4.00
   5   4  -9   74.19    4.10
   5   4  -9   73.29    4.30
  -5  -4   9   80.69    4.30
   5   4  -9   77.49    4.30
  -5  -4   9   74.09    4.40
  -5  -4   9   77.79    4.40
  -5  -4   8    7.10    1.50
   5   4  -8   11.10    1.70
   5   4  -8    8.60    1.40
  -5  -4   8    7.50    1.50
   5   4  -8    9.30    1.50
  -5  -4   8    8.40    1.60
   5   4  -8   11.30    2.00
  -5  -4   8    7.80    1.60
  -5  -4   7   65.49    3.90
   5   4  -7   73.29    4.00
   5   4  -7   66.09    4.00
  -5  -4   7   67.39    3.90
   5   4  -7   74.49    4.20
  -5  -4   7   69.19    4.70
  -5  -4   7   70.29    4.30
   5   4  -7   70.99    4.70
   5   4  -7   75.59    4.80
  -5  -4   7   69.39    4.10
   5   4  -6 1818.12   20.40
  -5  -4   6 1785.92   23.00
  -5  -4   6 1778.92   23.00
   5   4  -6 1800.62   23.30
   5   4  -6 1813.72   22.20
   5   4  -5   18.10    2.20
  -5  -4   5   13.40    2.10
  -5  -4   5   12.80    2.10
   5   4  -5   15.10    2.20
   5   4  -5   15.40    2.00
   5   4  -4   29.10    2.90
  -5  -4   4   30.00    3.10
  -5  -4   4   28.30    3.00
   5   4  -4   32.20    3.20
   5   4  -4   25.10    2.90
   5   4  -3   36.80    3.20
  -5  -4   3   37.70    3.40
  -5  -4   3   39.00    3.50
   5   4  -3   37.40    3.50
   5   4  -3   38.40    3.70
  -5  -4   2    0.20    0.60
   5   4  -2    0.80    0.90
  -5  -4   2    0.50    0.60
   5   4  -2   -0.20    0.80
   5   4  -2   -0.30    1.00
   5   4  -2    1.70    0.60
   5   4  -1   72.39    4.30
  -5  -4   1   61.59    3.70
  -5  -4   1   66.59    4.50
   5   4  -1   61.99    4.10
   5   4  -1   58.79    4.60
   5   4  -1   65.89    4.10
  -5  -4   1   62.39    4.20
  -5  -4   1   67.99    4.40
   5   4  -1   60.69    3.70
   5   4   0   12.70    1.80
  -5  -4   0   16.90    2.00
  -5  -4   0   12.10    2.00
   5   4   0   17.30    2.20
  -5  -4   0   15.60    2.20
  -5  -4   0   16.50    2.20
   5   4   1   13.30    1.90
   5   4   1   16.50    2.20
  -5  -4  -1   12.80    2.00
   5   4   2   60.19    3.80
  -5  -4  -2   52.69    3.50
   5   4   2   57.19    3.60
  -5  -4  -2   52.69    3.60
   5   4   3   99.99    4.40
  -5  -4  -3  101.89    4.20
   5   4   3  106.69    4.40
  -5  -4  -3  109.29    4.40
   5   4   4   10.40    1.30
   5   4   4    9.20    1.10
  -5  -5  12    5.00    0.90
  -5  -5  11   24.50    2.10
  -5  -5  10    0.60    0.70
  -5  -5  10    0.10    0.60
  -5  -5  10    0.40    0.70
   5   5 -10    1.30    0.70
  -5  -5   9    6.10    1.30
   5   5  -9    5.30    1.20
  -5  -5   9    7.30    1.30
   5   5  -9    5.20    1.10
  -5  -5   9    4.30    1.30
   5   5  -9    5.60    1.30
  -5  -5   8  157.98    6.20
   5   5  -8  164.08    6.20
  -5  -5   8  156.98    6.10
   5   5  -8  168.08    6.30
  -5  -5   8  155.58    6.40
  -5  -5   8  167.38    6.40
   5   5  -8  167.68    6.40
  -5  -5   7   26.50    2.70
   5   5  -7   35.40    3.00
  -5  -5   7   29.50    2.80
   5   5  -7   32.20    2.80
  -5  -5   7   29.90    2.90
  -5  -5   7   30.70    2.80
   5   5  -7   31.20    2.80
  -5  -5   6    2.10    0.80
   5   5  -6    2.70    1.00
   5   5  -6    3.70    1.10
  -5  -5   6    4.10    1.20
  -5  -5   6    3.90    1.30
   5   5  -6    2.00    0.80
  -5  -5   6    3.40    1.10
  -5  -5   6    2.40    0.90
   5   5  -6    3.00    1.10
   5   5  -6    3.10    0.90
   5   5  -6    1.20    0.80
   5   5  -6    1.10    0.70
   5   5  -5    0.00    1.00
  -5  -5   5   -2.30    1.20
   5   5  -5    0.40    0.70
  -5  -5   5   -2.70    1.20
   5   5  -5    3.90    1.20
  -5  -5   5    1.00    0.60
   5   5  -5   -0.40    0.90
  -5  -5   5    1.40    0.70
   5   5  -5   -0.40    0.90
   5   5  -4  153.18    6.50
   5   5  -4  168.68    6.40
  -5  -5   4  159.98    6.90
   5   5  -4  159.88    6.20
  -5  -5   4  159.48    6.90
   5   5  -4  170.88    7.30
   5   5  -4  147.09    7.10
  -5  -5   4  155.88    6.60
   5   5  -4  155.28    6.00
  -5  -5   4  160.38    7.00
   5   5  -4  162.28    6.30
   5   5  -3   48.10    3.50
  -5  -5   3   39.40    3.30
  -5  -5   3   40.40    3.50
   5   5  -3   42.80    3.20
   5   5  -3   44.00    3.50
  -5  -5   3   38.90    3.40
   5   5  -3   43.00    3.90
  -5  -5   3   40.50    3.50
  -5  -5   3   37.60    3.40
   5   5  -2   87.09    4.90
  -5  -5   2   82.29    4.80
   5   5  -2   94.99    4.90
   5   5  -2   87.79    4.70
   5   5  -2   93.99    4.60
  -5  -5   2   89.49    5.20
  -5  -5   2   82.99    5.00
  -5  -5   2   88.49    5.20
  -5  -5   1   26.20    2.80
   5   5  -1   29.70    2.80
   5   5  -1   32.10    2.90
  -5  -5   1   34.70    3.20
  -5  -5   1   34.70    3.10
   5   5  -1   30.20    2.70
  -5  -5   0   45.80    3.50
   5   5   0   49.10    3.50
   5   5   0   48.80    3.50
  -5  -5   0   48.50    3.70
   5   5   0   45.20    3.10
  -5  -5  -1   77.69    4.30
   5   5   1   79.09    4.20
   5   5   1   74.79    4.20
  -5  -5  -1   79.79    4.30
  -5  -5  -2    5.90    1.10
  -5  -5  -2    7.30    1.20
   5   5   2    7.60    1.30
   5   5   2    9.90    1.40
  -5  -5  -2    9.00    1.40
  -5  -5  -2    8.20    1.30
   5   5   3    1.40    0.60
   5   5   3    1.10    0.60
  -5  -5  -3    0.60    0.60
   5   5   3    1.40    0.60
  -5  -6  12    0.40    0.40
   5   6 -12    1.20    0.50
  -5  -6  11   64.29    2.80
  -5  -6  11   58.29    2.90
  -5  -6  11   61.79    2.90
   5   6 -11   58.89    3.20
  -5  -6  10   97.59    4.20
  -5  -6  10  102.09    4.30
   5   6 -10   96.19    4.50
  -5  -6   9   50.39    3.30
  -5  -6   9   52.79    3.40
  -5  -6   9   53.49    3.40
   5   6  -9   52.09    3.50
   5   6  -9   51.69    3.30
  -5  -6   8   22.20    2.40
  -5  -6   8   24.30    2.40
   5   6  -8   19.90    2.20
  -5  -6   8   26.50    2.40
   5   6  -8   19.90    2.30
   5   6  -8   23.30    2.40
  -5  -6   7  268.67    8.10
  -5  -6   7  247.18    7.70
   5   6  -7  267.27    8.00
   5   6  -7  265.27    8.00
   5   6  -7  267.37    7.90
  -5  -6   6   26.60    2.60
  -5  -6   6   28.60    2.70
   5   6  -6   30.80    2.80
   5   6  -6   32.30    2.90
   5   6  -6   28.10    2.60
  -5  -6   5  177.08    6.50
   5   6  -5  184.78    7.10
  -5  -6   5  172.38    6.60
   5   6  -5  183.58    6.60
   5   6  -5  174.08    6.60
  -5  -6   5  184.48    7.10
   5   6  -5  179.78    6.60
   5   6  -5  173.98    6.50
  -5  -6   4   35.70    2.90
   5   6  -4   37.60    3.00
  -5  -6   4   37.10    3.10
   5   6  -4   36.40    3.00
  -5  -6   4   40.10    3.40
   5   6  -4   37.40    2.90
   5   6  -3    8.90    1.70
   5   6  -3    9.10    1.60
  -5  -6   3    9.70    1.70
  -5  -6   3   10.80    1.90
   5   6  -3    6.70    1.40
  -5  -6   2    0.80    0.80
   5   6  -2    1.60    0.90
   5   6  -2    1.20    0.90
  -5  -6   2    1.40    0.90
   5   6  -2    1.30    0.80
   5   6  -2    2.70    1.00
  -5  -6   1   39.60    3.20
   5   6  -1   46.60    3.30
   5   6  -1   45.10    3.20
  -5  -6   1   39.30    2.90
  -5  -6   1   40.00    3.30
   5   6  -1   41.50    3.00
  -5  -6   0   11.20    1.70
   5   6   0   11.00    1.60
   5   6   0   11.30    1.60
  -5  -6   0    9.90    1.50
  -5  -6   0   12.00    1.70
   5   6   0   11.90    1.50
  -5  -6  -1   81.59    3.70
   5   6   1   85.09    3.70
  -5  -6  -1   76.89    3.50
   5   6   1   82.99    3.60
  -5  -6  -1   82.19    3.70
  -5  -6  -1   85.49    3.60
   5   6   2    2.10    0.60
   5   6   2    2.40    0.60
   5   6   2    2.30    0.70
  -5  -7  11   39.20    2.00
  -5  -7  11   38.50    2.00
  -5  -7  11   40.50    2.10
   5   7 -11   39.30    2.20
  -5  -7  10    1.50    0.70
  -5  -7  10    0.10    0.50
  -5  -7  10   -0.80    0.60
   5   7 -10    0.40    0.60
  -5  -7   9    0.70    0.50
  -5  -7   9    0.00    0.60
  -5  -7   9    0.40    0.70
   5   7  -9    0.80    0.70
  -5  -7   8   14.30    1.80
  -5  -7   8   14.30    1.90
   5   7  -8   16.10    1.90
   5   7  -8   12.80    1.80
  -5  -7   7   30.20    2.60
  -5  -7   7   31.50    2.70
   5   7  -7   33.90    2.70
  -5  -7   7   33.90    2.60
   5   7  -7   33.30    2.80
  -5  -7   6   17.50    2.00
  -5  -7   6   16.50    2.00
   5   7  -6   19.10    2.10
  -5  -7   6   19.50    2.10
   5   7  -6   17.10    2.10
   5   7  -6   16.40    2.00
  -5  -7   5   19.70    2.10
  -5  -7   5   18.90    2.20
   5   7  -5   21.50    2.30
   5   7  -5   18.80    2.00
  -5  -7   4   60.49    3.60
  -5  -7   4   63.79    3.70
   5   7  -4   65.89    3.80
   5   7  -4   62.99    3.70
  -5  -7   4   61.69    4.00
   5   7  -4   66.19    3.60
  -5  -7   3    9.30    1.50
  -5  -7   3   11.80    1.60
   5   7  -3   11.50    1.60
   5   7  -3   12.90    1.70
  -5  -7   3   14.10    1.90
   5   7  -3   11.40    1.60
   5   7  -3   11.90    1.50
   5   7  -2  110.29    4.30
  -5  -7   2  110.49    4.80
  -5  -7   2  100.99    4.20
   5   7  -2  106.49    4.40
   5   7  -2  102.49    4.20
  -5  -7   2  107.69    4.90
   5   7  -2  104.99    4.40
  -5  -7   1    0.70    0.60
   5   7  -1    1.30    0.60
  -5  -7   1    0.20    0.60
  -5  -7   1    0.70    0.50
   5   7  -1   -0.10    0.70
  -5  -7   1    1.30    0.50
  -5  -7   1    0.90    0.70
   5   7  -1    0.30    0.40
  -5  -7   0   28.20    2.00
   5   7   0   23.90    1.60
  -5  -7   0   26.60    1.90
   5   7   0   25.80    1.70
  -5  -7   0   28.70    1.80
  -5  -8  10  106.99    3.20
  -5  -8   9   23.90    1.80
  -5  -8   9   21.20    1.80
   5   8  -9   21.50    1.80
   5   8  -9   23.60    1.90
  -5  -8   8   28.90    2.10
  -5  -8   8   26.40    2.10
   5   8  -8   28.70    2.00
   5   8  -8   29.60    2.20
  -5  -8   7   69.49    3.30
  -5  -8   7   68.59    3.40
   5   8  -7   69.99    3.40
  -5  -8   7   66.39    3.10
   5   8  -7   68.59    3.40
  -5  -8   6   10.60    1.30
  -5  -8   6   13.10    1.50
   5   8  -6   10.80    1.40
   5   8  -6   10.00    1.40
  -5  -8   6   13.90    1.60
   5   8  -6    9.50    1.40
  -5  -8   5    5.90    1.10
   5   8  -5    6.70    1.20
   5   8  -5    7.90    1.30
  -5  -8   5    6.20    1.20
   5   8  -5    5.50    1.10
   5   8  -5    6.90    1.10
  -5  -8   4   26.20    2.00
  -5  -8   4   28.70    2.10
   5   8  -4   29.00    2.10
   5   8  -4   31.10    2.30
  -5  -8   4   26.80    2.10
   5   8  -4   24.20    2.00
   5   8  -4   26.50    1.90
  -5  -8   3   12.00    1.40
  -5  -8   3   13.70    1.40
  -5  -8   3   13.90    1.30
   5   8  -3   14.70    1.40
   5   8  -3   14.20    1.40
  -5  -8   3   12.20    1.40
   5   8  -3   11.30    1.30
  -5  -8   2    7.40    1.00
  -5  -8   2   10.30    1.20
  -5  -8   2    8.00    1.00
   6  -9  -3   16.20    1.50
  -6   9   3   17.80    1.50
   6  -9  -2   -0.20    0.60
  -6   9   2    1.30    0.70
  -6   9   2    1.90    0.60
  -6   9   2   -0.40    0.70
   6  -9  -1   17.00    1.80
  -6   9   1   19.20    1.80
  -6   9   1   20.20    1.70
  -6   9   1   23.10    1.90
   6  -9   0   15.70    1.80
  -6   9   0   17.90    1.80
  -6   9   0   18.70    1.80
   6  -9   0   16.30    1.50
   6  -9   1    5.50    1.10
  -6   9  -1    4.80    1.00
   6  -9   1    4.50    0.90
  -6   9  -1    4.30    1.00
   6  -9   2    9.20    1.30
  -6   9  -2    7.90    1.20
  -6   9  -2    9.00    1.30
   6  -9   2    8.90    1.20
   6  -9   2    8.50    1.20
  -6   9  -3   13.80    1.40
  -6   9  -3   13.70    1.40
   6  -9   3   13.30    1.40
   6  -9   3   15.10    1.60
   6  -9   3   16.50    1.50
   6  -9   4    0.80    0.40
   6  -8  -5   25.10    1.80
   6  -8  -5   25.70    1.80
   6  -8  -5   25.00    1.90
  -6   8   5   26.60    1.90
   6  -8  -5   24.30    1.80
   6  -8  -4    0.90    0.60
   6  -8  -4   -0.30    0.80
  -6   8   4    0.30    0.60
   6  -8  -4    0.40    0.50
   6  -8  -4   -0.30    0.60
   6  -8  -3   12.90    1.70
  -6   8   3   14.90    1.70
   6  -8  -3   15.80    1.70
  -6   8   3   13.30    1.60
  -6   8   3   14.10    1.70
   6  -8  -3   12.60    1.60
   6  -8  -2    0.60    0.70
  -6   8   2   -0.70    0.70
  -6   8   2    0.90    0.70
  -6   8   2    0.50    0.70
   6  -8  -2    0.10    0.60
   6  -8  -1   23.80    2.50
  -6   8   1   22.60    2.30
  -6   8   1   28.00    2.60
  -6   8   1   27.30    2.30
   6  -8   0   28.90    2.80
  -6   8   0   24.30    2.40
  -6   8   0   23.90    2.30
   6  -8   0   24.00    2.20
   6  -8   1    3.50    1.20
  -6   8  -1    3.40    1.10
  -6   8  -1    3.00    1.00
   6  -8   1    3.90    1.10
   6  -8   1    3.80    1.00
  -6   8  -1    3.90    1.10
   6  -8   2    0.60    0.80
  -6   8  -2    1.80    0.80
  -6   8  -2   -0.40    0.80
   6  -8   2    0.00    0.70
   6  -8   2   -0.30    0.80
  -6   8  -3   43.30    2.80
  -6   8  -3   43.80    2.80
   6  -8   3   48.90    3.00
   6  -8   3   48.60    3.30
   6  -8   3   46.10    2.90
   6  -8   3   49.80    3.10
  -6   8  -4    0.80    0.50
  -6   8  -4    1.20    0.60
   6  -8   4    1.50    0.70
   6  -8   4   -0.10    0.90
   6  -8   4    0.70    0.90
   6  -8   5   18.20    1.70
   6  -8   5   16.00    1.50
  -6   7   7   10.10    1.20
   6  -7  -7    8.60    1.10
   6  -7  -7    8.50    1.10
  -6   7   6   46.40    2.80
   6  -7  -6   49.30    2.80
   6  -7  -6   50.29    2.90
   6  -7  -5   40.60    2.80
   6  -7  -5   36.10    2.70
  -6   7   5   38.60    2.60
  -6   7   5   37.30    2.50
  -6   7   5   37.50    2.80
   6  -7  -5   35.00    2.60
   6  -7  -4   60.39    3.70
  -6   7   4   64.89    3.80
  -6   7   4   60.99    3.70
  -6   7   4   66.89    3.80
   6  -7  -4   64.79    3.70
   6  -7  -4   61.29    3.50
   6  -7  -3    7.50    1.50
  -6   7   3    7.60    1.50
  -6   7   3    6.90    1.50
   6  -7  -3    9.30    1.60
  -6   7   3    8.80    1.50
   6  -7  -3   10.00    1.40
   6  -7  -2   91.39    4.90
  -6   7   2   93.29    4.80
   6  -7  -2   86.19    4.60
  -6   7   2   84.99    4.30
   6  -7  -2   91.39    4.50
  -6   7   2   87.59    4.80
   6  -7  -1    5.70    1.40
  -6   7   1    6.40    1.40
   6  -7  -1   10.60    1.60
  -6   7   1    7.30    1.50
  -6   7   1    6.50    1.40
   6  -7   0  109.99    5.60
  -6   7   0  117.99    5.40
  -6   7   0  110.79    5.20
   6  -7   0  110.99    5.00
   6  -7   0  110.39    5.00
  -6   7   0  111.69    5.10
   6  -7   1   45.60    3.60
  -6   7  -1   44.00    3.30
   6  -7   1   38.90    3.10
  -6   7  -1   44.40    3.30
   6  -7   1   46.60    3.30
   6  -7   2    0.90    1.00
  -6   7  -2    0.60    0.70
  -6   7  -2    1.10    0.70
   6  -7   2    2.60    0.90
   6  -7   2    1.70    0.90
  -6   7  -3    5.20    1.20
  -6   7  -3    6.00    1.20
   6  -7   3    5.10    1.30
   6  -7   3    6.20    1.30
   6  -7   3    8.50    1.50
  -6   7  -4   13.70    1.60
  -6   7  -4   10.10    1.40
   6  -7   4   12.80    1.70
   6  -7   4   11.80    1.80
   6  -7   4   12.80    1.70
   6  -7   5   45.80    2.50
   6  -7   5   42.00    2.80
   6  -7   5   40.40    2.60
   6  -7   6   -0.30    0.60
  -6   6   8   10.50    1.30
   6  -6  -8   12.20    1.20
   6  -6  -8    9.10    1.20
   6  -6  -8    9.80    1.20
  -6   6   7   49.30    3.10
   6  -6  -7   50.19    2.90
   6  -6  -7   46.30    3.00
   6  -6  -7   51.79    3.10
  -6   6   6    1.10    0.80
  -6   6   6    1.50    0.70
   6  -6  -6    1.00    0.80
   6  -6  -6    1.00    0.70
   6  -6  -6    1.00    0.70
  -6   6   5    7.00    1.40
  -6   6   5    5.20    1.20
  -6   6   5    8.60    1.50
   6  -6  -5    4.80    1.30
   6  -6  -5    7.20    1.50
   6  -6  -5    3.30    1.00
   6  -6  -4   37.90    3.10
  -6   6   4   41.90    3.30
  -6   6   4   44.80    3.30
   6  -6  -4   40.40    3.10
  -6   6   4   35.50    3.10
   6  -6  -4   39.90    3.30
   6  -6  -4   46.70    3.30
   6  -6  -3   51.69    3.70
  -6   6   3   44.50    3.40
  -6   6   3   43.70    3.40
  -6   6   3   46.50    3.20
   6  -6  -3   44.50    3.30
   6  -6  -3   39.20    3.00
   6  -6  -2    1.80    1.00
  -6   6   2    2.10    1.10
   6  -6  -2    1.50    0.70
  -6   6   2    0.60    0.80
   6  -6  -1   36.20    3.30
  -6   6   1   34.80    3.10
  -6   6   1   39.80    3.20
   6  -6  -1   33.80    3.00
  -6   6   1   37.00    3.10
   6  -6  -1   36.70    2.90
   6  -6  -1   35.30    2.90
  -6   6   1   34.60    3.00
   6  -6   0   38.50    3.40
  -6   6   0   39.60    3.40
  -6   6   0   35.80    3.00
   6  -6   0   42.80    3.40
  -6   6   0   37.50    3.10
   6  -6   0   38.90    3.10
   6  -6   0   37.50    3.00
   6  -6   1   80.49    4.80
  -6   6  -1   62.59    4.30
  -6   6  -1   69.09    4.10
   6  -6   1   78.19    4.40
   6  -6   1   76.09    4.40
  -6   6  -1   68.89    4.10
   6  -6   1   72.99    4.20
   6  -6   2   19.40    2.40
  -6   6  -2   15.50    2.00
  -6   6  -2   21.00    2.30
   6  -6   2   22.10    2.40
   6  -6   2   21.90    2.30
  -6   6  -3    4.10    1.10
  -6   6  -3    5.60    1.20
   6  -6   3    3.50    1.20
   6  -6   3    5.20    1.20
   6  -6   4   -0.10    0.60
   6  -6   4    0.80    0.90
   6  -6   4   -0.20    0.80
   6  -6   5   10.80    1.40
   6  -6   5   11.40    1.70
   6  -6   5   12.50    1.60
   6  -6   6   26.80    2.20
  -6   5   9    3.80    0.90
   6  -5  -9    2.90    0.70
   6  -5  -9    3.00    0.80
   6  -5  -9    5.00    0.90
  -6   5   8    8.20    1.40
   6  -5  -8   10.40    1.40
   6  -5  -8    9.10    1.30
   6  -5  -8   10.30    1.50
   6  -5  -8    6.40    1.20
  -6   5   7   54.69    3.40
  -6   5   7   58.29    3.40
  -6   5   7   65.79    3.90
   6  -5  -7   64.99    3.70
   6  -5  -7   59.49    3.40
   6  -5  -7   54.99    3.60
   6  -5  -7   57.49    3.60
  -6   5   6   35.50    3.00
  -6   5   6   39.80    3.20
   6  -5  -6   39.20    3.10
  -6   5   6   35.20    2.90
   6  -5  -6   37.50    3.20
   6  -5  -6   34.20    2.90
  -6   5   5  188.88    6.90
  -6   5   5  181.98    6.80
  -6   5   5  181.88    6.60
   6  -5  -5  184.68    6.80
   6  -5  -5  184.08    6.70
   6  -5  -5  184.38    7.00
   6  -5  -5  177.08    6.60
  -6   5   4  198.18    7.10
  -6   5   4  210.18    6.90
   6  -5  -4  207.18    7.20
  -6   5   4  203.38    7.30
   6  -5  -4  216.98    7.30
   6  -5  -4  215.38    7.60
   6  -5  -4  208.08    7.10
   6  -5  -3  122.99    5.60
  -6   5   3  136.29    5.90
  -6   5   3  125.99    5.70
   6  -5  -3  125.39    5.60
   6  -5  -3  132.39    6.70
   6  -5  -3  134.59    6.30
  -6   5   3  126.39    7.10
  -6   5   3  118.39    6.60
   6  -5  -3  138.39    5.80
   6  -5  -3  134.69    5.60
   6  -5  -2   13.80    2.00
  -6   5   2   13.60    1.90
   6  -5  -2   13.20    1.90
  -6   5   2   13.60    2.00
   6  -5  -2   13.80    1.90
   6  -5  -2   18.20    2.50
   6  -5  -2   16.80    2.20
  -6   5   2   18.20    2.70
   6  -5  -1    2.10    0.90
  -6   5   1    2.30    0.80
  -6   5   1    4.60    1.10
   6  -5  -1    4.80    1.20
  -6   5   1    3.30    1.00
   6  -5  -1    1.50    0.60
   6  -5  -1    2.50    1.20
   6  -5  -1    6.80    1.30
  -6   5   1    3.30    1.50
   6  -5  -1    3.60    1.00
   6  -5  -1    3.30    1.20
   6  -5   0  125.89    5.90
  -6   5   0  119.49    5.90
  -6   5   0  122.59    5.30
   6  -5   0  135.09    6.00
  -6   5   0  120.79    5.40
   6  -5   0  131.09    5.60
   6  -5   0  127.29    6.40
  -6   5   0  117.49    6.60
   6  -5   0  122.69    5.40
   6  -5   0  129.29    6.40
  -6   5   0  120.99    6.10
   6  -5   1   37.40    3.30
  -6   5  -1   32.00    3.10
  -6   5  -1   38.30    3.00
   6  -5   1   36.00    3.10
  -6   5  -1   35.10    2.90
   6  -5   1   34.90    3.00
   6  -5   1   30.70    3.20
   6  -5   1   33.60    2.90
  -6   5  -1   34.60    3.30
   6  -5   2   34.00    3.20
  -6   5  -2   25.40    2.80
  -6   5  -2   30.90    3.00
   6  -5   2   33.30    2.90
   6  -5   2   29.30    2.80
   6  -5   2   31.20    2.80
  -6   5  -2   35.80    3.30
   6  -5   3   74.49    4.20
   6  -5   3   78.39    4.30
   6  -5   3   71.49    4.60
   6  -5   4    3.50    1.20
   6  -5   4    3.40    1.00
   6  -5   5   27.40    2.60
   6  -5   5   30.60    2.30
   6  -5   6   -1.90    0.80
  -6   4  10   10.30    1.30
   6  -4 -10   11.00    1.20
  -6   4   9   50.19    3.10
   6  -4  -9   43.70    2.80
   6  -4  -9   44.10    2.80
   6  -4  -9   44.50    2.80
  -6   4   8    3.10    1.00
  -6   4   8    3.00    1.00
  -6   4   8    4.20    1.20
   6  -4  -8    2.60    1.00
   6  -4  -8    2.90    0.90
   6  -4  -8    3.10    1.00
   6  -4  -8    2.50    1.00
  -6   4   7  205.38    7.00
  -6   4   7  207.98    7.00
  -6   4   7  209.98    7.10
   6  -4  -7  217.58    7.10
   6  -4  -7  222.78    7.10
   6  -4  -7  215.68    7.30
   6  -4  -7  198.58    7.00
  -6   4   6   66.59    4.20
  -6   4   6   70.19    4.30
  -6   4   6   71.39    4.20
   6  -4  -6   77.69    4.40
   6  -4  -6   70.09    4.10
   6  -4  -6   73.99    4.30
   6  -4  -6   70.79    4.40
  -6   4   6   68.29    4.30
   6  -4  -6   70.59    4.30
  -6   4   5   17.80    2.20
  -6   4   5   19.60    2.30
  -6   4   5   18.00    2.10
   6  -4  -5   19.50    2.40
   6  -4  -5   18.20    2.10
   6  -4  -5   14.90    2.10
  -6   4   5   18.90    2.80
   6  -4  -5   20.40    2.30
  -6   4   5   18.80    2.70
   6  -4  -5   19.30    2.40
  -6   4   5   20.00    2.30
   6  -4  -5   23.20    2.40
  -6   4   4   66.79    4.30
  -6   4   4   71.39    4.20
   6  -4  -4   70.89    4.20
  -6   4   4   68.59    4.10
   6  -4  -4   69.49    4.90
   6  -4  -4   67.89    4.60
  -6   4   4   66.89    5.10
   6  -4  -4   69.79    4.10
   6  -4  -4   71.29    4.30
   6  -4  -4   70.49    4.10
  -6   4   3  220.18    7.50
   6  -4  -3  237.08    8.80
   6  -4  -3  239.68    8.10
  -6   4   3  212.68    9.00
   6  -4  -3  228.18    7.10
  -6   4   2   19.00    2.20
   6  -4  -2   17.00    2.40
   6  -4  -2   18.60    2.20
  -6   4   2   13.30    2.30
   6  -4  -2   20.60    2.50
  -6   4   1   55.49    3.80
   6  -4  -1   59.79    4.30
  -6   4   1   55.29    4.60
   6  -4  -1   61.59    4.30
  -6   4   1   53.29    4.00
  -6   4   0   34.30    3.10
   6  -4   0   38.70    3.40
  -6   4   0   38.10    3.70
   6  -4   0   40.40    3.60
  -6   4   0   37.10    3.40
   6  -4   1   11.50    1.80
  -6   4  -1   11.20    1.80
   6  -4   1   10.20    1.70
   6  -4   1   12.40    1.80
   6  -4   1   11.30    1.90
  -6   4  -1   12.30    2.20
   6  -4   1   10.70    2.00
  -6   4  -1   12.10    2.00
  -6   4  -2  393.56   10.50
   6  -4   2  397.76   10.00
   6  -4   2  393.86    9.70
   6  -4   2  389.96   10.40
  -6   4  -2  375.26   11.20
   6  -4   2  411.96   11.20
  -6   4  -2  407.06   10.80
   6  -4   3    2.60    1.10
   6  -4   3    2.50    1.00
   6  -4   3    2.50    1.10
  -6   4  -3    4.10    1.20
   6  -4   4   41.20    3.10
   6  -4   4   46.70    3.60
   6  -4   4   42.40    3.10
   6  -4   5    7.60    1.20
   6  -4   5    6.00    1.40
   6  -4   6    1.80    0.80
  -6   3  10    0.60    0.60
   6  -3 -10    1.70    0.70
  -6   3  10    2.80    0.80
  -6   3   9   99.99    4.40
  -6   3   9  101.39    4.50
  -6   3   9  101.89    4.80
  -6   3   9   99.89    5.00
   6  -3  -9   98.79    4.50
   6  -3  -9  107.69    4.70
  -6   3   8   29.90    2.70
  -6   3   8   30.00    2.80
  -6   3   8   33.70    2.80
  -6   3   8   28.40    3.00
   6  -3  -8   31.60    2.80
   6  -3  -8   28.70    2.70
  -6   3   7   15.30    2.00
  -6   3   7   17.20    2.20
  -6   3   7   17.90    2.10
   6  -3  -7   23.20    2.50
  -6   3   7   15.20    2.20
   6  -3  -7   21.00    2.30
  -6   3   7   21.00    2.50
   6  -3  -7   15.90    2.10
   6  -3  -7   17.40    2.20
  -6   3   6  107.29    5.10
  -6   3   6  109.89    5.30
  -6   3   6  107.29    4.90
   6  -3  -6  108.19    5.20
   6  -3  -6  115.39    5.30
   6  -3  -6  105.49    5.70
  -6   3   6  100.89    6.20
   6  -3  -6  101.99    5.00
  -6   3   6  107.79    6.40
   6  -3  -6  106.39    5.60
  -6   3   6  107.09    5.50
   6  -3  -6  107.19    5.20
   6  -3  -6  105.79    5.20
  -6   3   5  180.18    7.10
   6  -3  -5  184.28    7.40
  -6   3   5  172.78    8.00
   6  -3  -5  181.98    6.50
  -6   3   5  179.78    6.90
  -6   3   4  195.78    7.30
   6  -3  -4  201.28    8.00
   6  -3  -4  205.98    7.60
  -6   3   4  180.88    8.20
   6  -3  -4  206.28    6.70
  -6   3   4  194.18    6.90
  -6   3   3  111.19    5.40
   6  -3  -3  112.49    5.90
   6  -3  -3  115.39    5.50
  -6   3   3  112.29    6.40
   6  -3  -3  118.19    4.90
  -6   3   2   18.60    2.20
   6  -3  -2   17.70    2.30
   6  -3  -2   17.60    2.10
  -6   3   2   16.60    2.50
   6  -3  -2   19.10    2.40
   6  -3  -2   20.90    2.00
  -6   3   2   16.20    2.20
  -6   3   1   18.80    2.10
   6  -3  -1   20.20    2.40
  -6   3   1   18.50    2.60
   6  -3  -1   19.40    2.50
  -6   3   1   16.70    2.20
   6  -3   0    3.70    1.20
  -6   3   0    4.40    1.30
   6  -3   0    4.00    1.30
   6  -3   0    3.90    1.40
  -6   3   0    5.00    1.30
  -6   3  -1  120.99    5.50
   6  -3   1  121.49    5.60
  -6   3  -1  135.39    6.90
   6  -3   1  118.89    6.30
   6  -3   1  123.69    6.10
  -6   3  -1  118.99    5.80
   6  -3   2   55.59    3.80
   6  -3   2   57.49    3.70
  -6   3  -2   56.99    3.80
   6  -3   2   55.69    3.90
  -6   3  -2   55.69    4.30
   6  -3   2   54.79    4.10
  -6   3  -2   53.29    3.90
   6  -3   3   10.30    1.70
   6  -3   3   11.90    1.80
  -6   3  -3   11.30    1.70
   6  -3   3   13.70    2.10
  -6   3  -3   12.10    1.90
   6  -3   4    2.30    0.90
   6  -3   4    1.60    0.90
   6  -3   4    2.00    1.00
   6  -3   5   36.50    2.80
   6  -3   5   33.00    2.80
   6  -3   6   -0.90    0.70
  -6   2  11   12.20    1.20
  -6   2  11   11.70    1.20
   6  -2 -11   13.50    1.50
  -6   2  11   14.70    1.70
  -6   2  10  224.78    6.30
  -6   2  10  214.98    6.20
  -6   2  10  232.28    6.90
   6  -2 -10  220.78    6.60
  -6   2  10  217.18    7.30
  -6   2   9   18.60    2.10
  -6   2   9   17.20    2.10
  -6   2   9   19.30    2.20
  -6   2   9   20.80    2.60
   6  -2  -9   17.10    2.00
  -6   2   8   -0.10    1.00
  -6   2   8    1.20    0.70
  -6   2   8    1.10    0.80
  -6   2   8    0.60    0.90
   6  -2  -8   -2.60    0.90
   6  -2  -8    0.30    0.60
  -6   2   8   -0.20    1.00
  -6   2   7  164.78    6.30
  -6   2   7  163.88    6.10
   6  -2  -7  152.48    6.00
  -6   2   7  167.58    6.40
   6  -2  -7  163.28    7.10
  -6   2   7  167.68    7.30
  -6   2   7  151.18    7.30
   6  -2  -7  168.08    6.40
  -6   2   7  150.88    7.40
   6  -2  -7  142.49    6.70
  -6   2   7  157.28    6.80
   6  -2  -7  156.78    6.20
   6  -2  -7  166.08    6.40
  -6   2   6   45.10    3.60
   6  -2  -6   46.60    3.80
  -6   2   6   48.10    4.10
   6  -2  -6   48.00    3.40
   6  -2  -6   46.50    3.80
  -6   2   6   40.30    3.50
  -6   2   5  144.89    6.30
   6  -2  -5  139.99    6.40
  -6   2   5  131.39    6.90
   6  -2  -5  141.09    5.50
  -6   2   4    1.60    0.90
   6  -2  -4    2.50    0.90
  -6   2   4    0.90    0.80
   6  -2  -4    2.80    0.90
   6  -2  -3  145.79    6.10
   6  -2  -3  144.69    5.90
  -6   2   3  130.69    6.70
   6  -2  -3  146.29    6.10
  -6   2   3  130.79    5.70
  -6   2   3  135.39    5.80
   6  -2  -2   29.00    2.70
  -6   2   2   27.10    3.00
   6  -2  -2   25.20    2.70
   6  -2  -2   31.30    3.10
  -6   2   2   23.30    2.40
  -6   2   1   32.80    3.40
   6  -2  -1   30.00    3.00
   6  -2  -1   31.00    3.10
  -6   2   1   29.80    2.80
  -6   2   0   39.50    3.20
  -6   2   0   38.30    3.70
   6  -2   0   39.60    3.50
   6  -2   0   42.80    3.60
  -6   2   0   41.10    3.30
  -6   2  -1   29.10    2.70
  -6   2  -1   34.70    3.40
   6  -2   1   27.20    2.90
   6  -2   1   30.40    3.20
  -6   2  -1   29.90    2.90
   6  -2   2   17.90    2.20
   6  -2   2   19.20    2.20
   6  -2   2   19.30    2.30
  -6   2  -2   19.30    2.20
   6  -2   2   14.20    1.90
  -6   2  -2   20.10    2.60
   6  -2   2   20.30    2.60
   6  -2   2   18.60    2.50
  -6   2  -2   16.40    2.10
   6  -2   3   52.09    3.70
   6  -2   3   51.59    3.40
   6  -2   3   54.29    3.80
  -6   2  -3   49.30    3.50
  -6   2  -3   52.39    3.80
   6  -2   4   95.89    4.90
   6  -2   4   99.79    4.50
   6  -2   4  105.09    5.20
   6  -2   4  101.59    5.00
   6  -2   5    1.20    0.80
   6  -2   6    5.90    1.10
  -6   1  12   26.20    2.00
  -6   1  11   15.10    1.60
   6  -1 -11   15.60    1.70
  -6   1  11   14.60    2.00
  -6   1  11   15.30    1.60
  -6   1  10   -0.20    0.60
  -6   1  10   -0.20    0.70
  -6   1  10    0.10    0.70
   6  -1 -10    0.20    0.70
  -6   1  10   -0.20    0.90
  -6   1   9   10.00    1.60
  -6   1   9    9.60    1.60
   6  -1  -9   11.60    1.80
  -6   1   9   11.90    2.10
  -6   1   9   11.90    1.80
  -6   1   8   39.40    3.10
  -6   1   8   36.80    3.00
  -6   1   8   35.30    2.90
   6  -1  -8   41.70    3.30
  -6   1   8   45.60    3.90
   6  -1  -8   38.90    3.10
  -6   1   8   42.70    3.50
   6  -1  -7  179.18    6.50
  -6   1   7  177.78    6.40
  -6   1   7  180.88    6.50
   6  -1  -7  181.08    6.70
   6  -1  -7  183.28    7.30
   6  -1  -7  177.98    7.40
  -6   1   7  188.78    7.90
  -6   1   7  168.18    7.40
  -6   1   7  177.48    6.30
   6  -1  -7  174.88    6.40
  -6   1   7  177.48    7.20
   6  -1  -7  172.88    6.50
  -6   1   6    4.90    1.20
   6  -1  -6    6.10    1.40
   6  -1  -6    4.50    1.30
  -6   1   6    5.20    1.40
   6  -1  -6    4.40    1.10
  -6   1   5   12.10    1.80
  -6   1   5   11.10    2.00
   6  -1  -5   15.20    2.00
   6  -1  -5   11.30    1.90
  -6   1   5   14.50    2.20
   6  -1  -5   11.10    1.50
  -6   1   4   64.19    4.20
   6  -1  -4   78.99    4.40
   6  -1  -4   71.59    4.20
  -6   1   4   71.19    4.80
  -6   1   4   68.69    4.20
  -6   1   3  116.69    5.50
  -6   1   3  110.79    5.30
   6  -1  -3  114.99    5.50
  -6   1   3  101.79    5.70
   6  -1  -3  113.09    5.40
  -6   1   3  108.79    4.80
   6  -1  -2   87.19    4.90
  -6   1   2   91.59    5.40
   6  -1  -2   98.89    5.30
  -6   1   2   94.79    4.70
  -6   1   1   50.49    3.50
  -6   1   1   66.39    4.60
   6  -1  -1   59.79    4.10
   6  -1  -1   55.49    4.10
  -6   1   1   55.59    3.70
  -6   1   0   47.40    3.50
  -6   1   0   51.09    4.10
   6  -1   0   50.19    3.90
   6  -1   0   56.09    4.20
  -6   1   0   48.20    3.50
   6  -1   1    1.10    0.80
   6  -1   1   -1.10    0.60
  -6   1  -1    0.00    0.60
  -6   1  -1    1.10    1.00
   6  -1   1    0.10    0.30
   6  -1   1    0.20    0.70
  -6   1  -1   -0.10    0.60
   6  -1   2   34.40    2.80
   6  -1   2   35.90    3.50
   6  -1   2   38.10    3.30
   6  -1   2   34.30    3.10
  -6   1  -2   37.20    3.10
   6  -1   2   41.90    3.50
   6  -1   2   35.20    3.50
  -6   1  -2   33.80    3.00
   6  -1   3    9.70    1.70
   6  -1   3   15.60    1.90
   6  -1   3   12.70    1.90
  -6   1  -3   15.00    2.00
  -6   1  -3   16.20    2.10
   6  -1   4    5.90    1.20
   6  -1   4    7.60    1.50
   6  -1   5   20.90    2.20
   6  -1   6    7.70    1.10
   6   0 -12   62.19    2.60
  -6   0  12   67.49    3.50
  -6   0  11   66.19    3.50
  -6   0  11   69.99    3.60
   6   0 -11   63.79    3.40
  -6   0  11   68.99    4.20
  -6   0  10    1.50    0.80
  -6   0  10    0.70    0.70
   6   0 -10    1.90    0.80
  -6   0  10    1.80    1.10
  -6   0   9   97.89    4.90
  -6   0   9   95.59    4.90
  -6   0   9  102.39    4.90
   6   0  -9   96.39    4.90
  -6   0   9  101.59    5.80
   6   0  -9   97.59    4.90
  -6   0   9   96.39    5.20
   6   0  -8   80.79    4.40
  -6   0   8   79.69    4.40
  -6   0   8   84.69    4.50
   6   0  -8   85.49    4.70
   6   0  -8   97.29    5.50
  -6   0   8   91.79    5.70
  -6   0   8   81.39    4.40
   6   0  -8   80.49    4.50
  -6   0   8   78.09    4.80
  -6   0   7   26.20    2.70
   6   0  -7   27.10    2.60
  -6   0   7   31.60    2.80
  -6   0   7   29.70    2.70
   6   0  -7   30.10    2.70
   6   0  -7   30.90    3.10
   6   0  -7   29.80    3.10
  -6   0   7   30.90    3.40
  -6   0   7   26.30    2.50
   6   0  -7   27.40    2.70
  -6   0   6   60.59    4.00
   6   0  -6   61.89    3.70
  -6   0   6   56.19    4.40
   6   0  -6   64.09    4.30
   6   0  -6   67.69    4.40
   6   0  -6   67.69    3.70
  -6   0   5   11.90    1.80
   6   0  -5    9.50    1.50
  -6   0   5   10.50    1.90
   6   0  -5   11.70    1.80
   6   0  -5   10.20    1.70
  -6   0   5   13.00    2.00
  -6   0   4    3.40    1.10
  -6   0   4    1.00    1.00
   6   0  -4    1.90    1.00
   6   0  -4    1.10    0.80
   6   0  -4    2.10    1.00
  -6   0   3   85.09    4.80
  -6   0   3   78.69    4.60
   6   0  -3   88.49    4.70
   6   0  -3   82.39    4.80
  -6   0   3   72.59    4.70
   6   0  -3   92.89    4.90
  -6   0   2  274.87    8.40
  -6   0   2  254.87    7.70
  -6   0   2  262.47    8.20
   6   0  -2  272.17    8.20
   6   0  -2  260.37    8.50
  -6   0   2  260.57    8.80
   6   0  -2  259.97    8.60
  -6   0   1   55.39    3.80
  -6   0   1   45.60    3.30
  -6   0   1   52.59    3.70
   6   0  -1   52.19    3.90
  -6   0   1   49.40    3.90
   6   0  -1   48.40    3.80
  -6   0   1   55.29    3.50
  -6   0   0  391.66    9.60
   6   0   0  387.06   10.70
  -6   0   0  378.86   10.80
  -6   0   0  401.26    9.60
   6   0   1  208.58    8.00
   6   0   1  221.08    7.30
   6   0   1  198.48    6.70
  -6   0  -1  197.78    7.00
   6   0   1  188.98    6.80
  -6   0  -1  209.58    8.20
   6   0   1  203.08    7.70
   6   0   1  210.08    8.20
  -6   0  -1  206.98    7.10
   6   0   2  147.59    6.20
   6   0   2  154.28    5.90
   6   0   2  163.68    6.70
  -6   0  -2  162.58    6.30
  -6   0  -2  145.89    6.10
   6   0   3   41.80    3.00
   6   0   3   45.60    3.50
   6   0   4   29.30    2.70
   6   0   5   24.40    2.20
  -6  -1  12   67.29    3.10
  -6  -1  12   57.09    3.30
  -6  -1  11    1.30    0.70
  -6  -1  11    0.60    0.60
  -6  -1  11    1.50    0.90
  -6  -1  10   16.60    2.10
  -6  -1  10   17.20    2.10
   6   1 -10   18.40    2.10
  -6  -1  10   16.90    2.40
  -6  -1  10   19.90    2.10
   6   1  -9    3.50    1.10
  -6  -1   9    3.20    1.20
  -6  -1   9    2.10    0.90
  -6  -1   9    1.80    1.10
  -6  -1   9    3.00    1.10
   6   1  -9    1.30    1.30
  -6  -1   9    3.60    1.00
   6   1  -8   78.79    4.40
  -6  -1   8   77.39    4.30
  -6  -1   8   77.39    4.30
   6   1  -8   82.39    4.50
   6   1  -8   77.39    4.90
  -6  -1   8   74.39    5.10
  -6  -1   8   76.09    4.40
   6   1  -8   78.79    4.30
  -6  -1   7    5.00    1.30
   6   1  -7    3.70    1.10
  -6  -1   7    3.60    1.40
   6   1  -7    4.50    1.30
   6   1  -7    5.40    1.30
  -6  -1   7    4.70    1.50
  -6  -1   7    3.30    1.10
   6   1  -7    4.10    1.50
  -6  -1   6  126.39    5.60
   6   1  -6  126.69    5.20
  -6  -1   6  116.99    6.20
   6   1  -6  127.39    6.20
   6   1  -6  132.99    6.00
   6   1  -5  198.28    6.30
  -6  -1   5  187.18    7.60
  -6  -1   5  178.68    7.40
   6   1  -5  192.08    7.40
   6   1  -5  195.58    7.00
  -6  -1   4    2.10    1.00
  -6  -1   4   -0.50    0.90
   6   1  -4    0.70    0.80
   6   1  -4   -0.30    0.60
  -6  -1   3  163.18    6.80
  -6  -1   3  158.68    6.70
   6   1  -3  163.58    6.70
   6   1  -3  156.58    6.60
   6   1  -3  159.08    6.70
  -6  -1   2    9.40    1.70
  -6  -1   2    8.20    1.40
  -6  -1   2    9.60    1.80
   6   1  -2   11.70    1.90
  -6  -1   2    9.70    1.80
   6   1  -2    9.60    2.00
   6   1  -2   10.80    1.90
  -6  -1   1   96.59    4.80
  -6  -1   1   91.59    5.00
   6   1  -1   96.29    5.30
   6   1  -1   89.19    5.20
  -6  -1   1   89.79    5.20
   6   1  -1   93.99    5.40
   6   1   0   12.50    1.80
   6   1   0   11.40    1.60
   6   1   0   13.60    1.80
   6   1   0   13.60    1.80
  -6  -1   0   12.70    1.80
  -6  -1   0   16.60    2.20
   6   1   0   15.80    2.10
  -6  -1   0   13.00    2.00
   6   1   0   14.80    2.20
   6   1   0   17.90    2.40
   6   1   1  163.28    6.30
   6   1   1  161.18    6.00
  -6  -1  -1  164.88    6.30
  -6  -1  -1  156.58    6.10
  -6  -1  -1  150.68    6.50
   6   1   1  149.09    5.90
  -6  -1  -1  167.18    6.40
   6   1   2   85.89    4.30
   6   1   2   76.89    4.20
   6   1   2   87.79    4.40
   6   1   2   87.19    4.90
   6   1   3   34.20    2.60
   6   1   3   37.40    3.10
   6   1   4   23.80    2.00
   6   1   4   19.00    2.10
   6   1   5    1.70    0.50
   6   1   5    0.80    0.70
  -6  -1  -5    0.50    0.50
   6   2 -12   53.69    2.90
  -6  -2  11  153.28    5.50
  -6  -2  11  143.39    6.00
  -6  -2  11  151.78    5.20
  -6  -2  10   12.40    1.80
  -6  -2  10    9.30    1.60
   6   2 -10    9.60    1.50
  -6  -2  10    7.00    1.70
  -6  -2  10   12.60    1.80
   6   2  -9   50.39    3.40
  -6  -2   9   49.99    3.50
  -6  -2   9   55.79    3.60
  -6  -2   9   54.59    4.30
  -6  -2   9   52.89    3.60
  -6  -2   9   41.80    3.30
   6   2  -8   78.49    4.30
  -6  -2   8   85.29    4.40
  -6  -2   8   80.29    4.20
  -6  -2   8   81.49    5.20
  -6  -2   8   78.39    4.50
   6   2  -7   23.50    2.50
   6   2  -7   19.90    2.20
  -6  -2   7   19.20    2.70
   6   2  -7   24.70    2.80
   6   2  -7   26.40    2.90
  -6  -2   7   22.70    2.40
   6   2  -6    1.00    0.80
  -6  -2   6    2.20    1.10
  -6  -2   6   -0.20    0.80
   6   2  -6    0.40    0.90
   6   2  -6    0.50    0.70
  -6  -2   5   26.20    3.00
  -6  -2   5   26.80    3.00
   6   2  -5   28.80    3.00
   6   2  -5   29.10    2.90
   6   2  -5   31.00    2.80
   6   2  -4  140.09    5.60
  -6  -2   4  147.19    6.70
  -6  -2   4  141.39    6.60
   6   2  -4  146.29    6.60
   6   2  -3   43.00    3.20
  -6  -2   3   42.80    3.60
  -6  -2   3   44.00    3.70
   6   2  -3   39.20    3.50
   6   2  -3   40.70    3.50
   6   2  -3   40.60    3.50
  -6  -2   2    6.90    1.50
  -6  -2   2    5.30    1.20
  -6  -2   2    5.60    1.40
   6   2  -2    6.60    1.60
   6   2  -2    6.70    1.60
   6   2  -2    7.40    1.70
  -6  -2   1   31.70    3.00
   6   2  -1   25.60    2.40
   6   2  -1   23.60    2.30
   6   2  -1   28.10    2.60
   6   2  -1   29.30    2.60
  -6  -2   1   27.60    2.50
  -6  -2   1   29.60    3.00
   6   2  -1   29.10    2.70
   6   2  -1   30.20    3.10
   6   2  -1   25.20    2.80
   6   2  -1   34.80    3.50
  -6  -2   0  214.38    7.50
   6   2   0  226.18    7.20
  -6  -2   0  227.58    7.30
   6   2   0  220.58    7.20
  -6  -2   0  233.38    7.30
  -6  -2   0  238.98    8.40
   6   2   0  231.98    7.40
   6   2   1    1.00    0.70
   6   2   1    1.30    0.70
   6   2   1    0.40    0.90
  -6  -2  -1    1.20    0.70
  -6  -2  -1    3.00    0.90
   6   2   2  142.79    5.60
   6   2   2  145.79    5.60
   6   2   2  151.78    6.10
   6   2   3   74.59    3.70
   6   2   3   80.89    3.90
   6   2   3   83.19    4.20
   6   2   4    1.00    0.60
   6   2   4    1.10    0.70
  -6  -2  -4    2.80    0.80
   6   3 -12  113.19    4.00
  -6  -3  12  105.69    3.40
   6   3 -11    0.00    0.70
  -6  -3  11    1.80    0.80
  -6  -3  11    1.20    0.70
   6   3 -10    2.80    1.10
  -6  -3  10    3.30    1.00
   6   3 -10    4.40    1.00
  -6  -3  10    3.30    1.10
   6   3  -9    0.20    0.80
  -6  -3   9    2.00    1.00
  -6  -3   9    1.10    0.70
   6   3  -9    1.60    0.80
  -6  -3   9    1.00    0.80
  -6  -3   8   39.80    3.00
   6   3  -8   40.50    3.30
   6   3  -8   36.00    2.90
   6   3  -8   47.10    3.40
  -6  -3   8   34.60    3.00
  -6  -3   8   43.80    3.40
   6   3  -7   18.30    2.30
   6   3  -7   16.90    2.00
   6   3  -7   20.00    2.30
  -6  -3   7   15.90    2.40
   6   3  -7   18.50    2.40
   6   3  -7   21.50    2.60
  -6  -3   7   15.20    2.00
  -6  -3   7   20.00    2.30
   6   3  -6    0.70    0.70
  -6  -3   6    1.40    1.10
   6   3  -6    1.30    0.80
   6   3  -6   -1.50    0.90
  -6  -3   6    0.20    0.80
   6   3  -6    0.50    0.50
  -6  -3   6    0.30    0.70
   6   3  -5  946.11   15.00
   6   3  -5  922.11   14.10
   6   3  -5  934.01   14.70
  -6  -3   5  906.61   17.00
   6   3  -5  972.30   14.60
  -6  -3   5  926.61   17.10
   6   3  -5  962.90   17.10
  -6  -3   5  897.71   14.00
  -6  -3   5  934.71   15.80
   6   3  -5  938.61   14.30
  -6  -3   4  109.49    5.60
   6   3  -4  109.09    5.00
  -6  -3   4  106.49    5.80
   6   3  -4  109.89    4.90
  -6  -3   4  100.39    5.60
   6   3  -4  106.29    5.20
   6   3  -4  111.39    5.90
  -6  -3   4  103.09    5.40
   6   3  -4  103.69    4.70
  -6  -3   3   21.00    2.50
   6   3  -3   18.80    2.30
   6   3  -3   15.50    2.00
   6   3  -3   16.10    2.00
  -6  -3   3   15.80    2.30
   6   3  -3   19.50    2.00
  -6  -3   3   17.40    2.30
   6   3  -3   21.50    2.70
   6   3  -3   15.90    2.50
  -6  -3   3   17.40    2.10
  -6  -3   3   20.30    2.50
   6   3  -3   17.00    1.90
  -6  -3   2   24.50    2.70
   6   3  -2   26.50    2.60
  -6  -3   2   28.80    3.00
   6   3  -2   26.70    2.60
  -6  -3   2   26.30    2.90
   6   3  -2   26.20    2.50
   6   3  -2   25.30    2.90
   6   3  -2   23.10    2.80
   6   3  -2   31.00    3.30
  -6  -3   2   25.70    2.80
  -6  -3   1   78.99    4.60
   6   3  -1   79.59    4.40
   6   3  -1   80.39    4.40
  -6  -3   1   74.09    4.80
  -6  -3   1   77.39    4.70
   6   3   0   -0.40    0.80
   6   3   0    0.00    0.70
  -6  -3   0   -1.50    0.90
   6   3   1   54.29    3.60
   6   3   1   52.19    3.40
   6   3   1   60.79    3.90
   6   3   2   11.90    1.60
   6   3   2   11.50    1.60
   6   3   2   13.50    1.70
  -6  -3  -2   11.00    1.60
   6   3   3   -0.50    0.60
  -6  -3  -3    1.80    0.60
   6   3   3    1.50    0.60
   6   3   3   -0.40    0.70
  -6  -3  -3    0.10    0.50
   6   4 -12   67.49    2.80
  -6  -4  12   67.09    2.70
   6   4 -11    4.80    1.00
  -6  -4  11    3.10    0.80
   6   4 -11    3.50    0.90
   6   4 -10  148.99    5.60
   6   4 -10  156.68    5.50
  -6  -4  10  162.08    5.90
  -6  -4   9   19.30    2.00
   6   4  -9   24.10    2.50
   6   4  -9   23.20    2.40
  -6  -4   9   20.70    2.30
  -6  -4   8    5.00    1.30
   6   4  -8    5.00    1.20
   6   4  -8    7.20    1.50
  -6  -4   8    5.00    1.30
  -6  -4   7  100.49    5.00
   6   4  -7  106.29    5.20
  -6  -4   7   99.59    4.80
   6   4  -7  107.49    5.10
  -6  -4   7   99.19    5.10
  -6  -4   7  110.89    5.20
   6   4  -7  110.99    5.10
   6   4  -7  111.49    5.20
   6   4  -6   99.99    5.00
  -6  -4   6   90.09    4.60
  -6  -4   6   93.19    5.50
   6   4  -6   93.99    4.80
  -6  -4   6   89.39    5.40
  -6  -4   6   99.39    5.10
  -6  -4   6   97.69    4.70
   6   4  -6   98.59    4.80
  -6  -4   6  100.79    5.30
   6   4  -6   98.29    4.90
   6   4  -5   43.30    3.40
  -6  -4   5   44.70    3.80
   6   4  -5   51.79    3.50
  -6  -4   5   39.00    3.60
   6   4  -5   46.50    3.20
  -6  -4   5   44.60    3.70
   6   4  -5   43.80    3.20
   6   4  -4   59.29    4.00
   6   4  -4   61.99    4.00
  -6  -4   4   58.99    4.30
   6   4  -4   56.79    3.60
  -6  -4   4   55.39    4.20
  -6  -4   4   62.09    4.10
  -6  -4   4   57.19    4.20
   6   4  -4   60.19    3.70
   6   4  -3   17.30    2.30
   6   4  -3   17.80    2.20
   6   4  -3   16.40    2.10
  -6  -4   3   14.20    2.10
   6   4  -3   16.80    1.90
  -6  -4   3   19.00    2.40
  -6  -4   3   16.40    2.20
  -6  -4   3   16.00    2.30
   6   4  -2   45.40    3.40
   6   4  -2   46.50    3.40
  -6  -4   2   46.70    3.70
  -6  -4   2   43.90    3.60
   6   4  -1   14.60    2.00
   6   4  -1   12.50    1.80
  -6  -4   1   14.70    2.10
  -6  -4   1   11.00    1.80
   6   4   0   -0.30    1.10
   6   4   0   -0.40    0.80
   6   4   0    0.20    0.90
  -6  -4   0    1.70    0.90
  -6  -4   0    1.40    0.70
   6   4   1   27.40    2.40
  -6  -4  -1   23.30    2.30
   6   4   1   27.90    2.30
   6   4   1   32.90    2.50
  -6  -4  -1   29.20    2.60
   6   4   2   21.20    1.80
  -6  -4  -2   23.40    1.90
   6   4   2   24.10    1.90
  -6  -4  -2   23.20    1.90
  -6  -5  12   20.60    1.40
   6   5 -12   20.30    1.50
  -6  -5  11   66.59    3.10
   6   5 -11   71.79    3.40
   6   5 -11   75.79    3.20
  -6  -5  10   19.30    1.80
   6   5 -10   14.90    1.70
   6   5 -10   16.50    1.70
  -6  -5  10   16.90    1.90
   6   5 -10   16.30    1.80
   6   5 -10   17.90    1.80
  -6  -5   9    3.30    1.00
   6   5  -9    3.20    1.00
  -6  -5   9    4.20    1.00
   6   5  -9    3.00    1.00
  -6  -5   9    6.10    1.30
   6   5  -9    3.50    1.00
   6   5  -9    4.50    1.10
  -6  -5   8   33.30    2.80
   6   5  -8   36.90    3.00
  -6  -5   8   34.20    2.70
   6   5  -8   38.10    3.00
  -6  -5   8   35.50    2.80
   6   5  -8   34.40    2.90
   6   5  -8   38.50    3.10
  -6  -5   7   47.30    3.40
  -6  -5   7   45.00    3.30
   6   5  -7   45.60    3.30
   6   5  -7   45.30    3.30
   6   5  -7   49.99    3.50
  -6  -5   6   34.70    3.00
  -6  -5   6   34.00    2.90
   6   5  -6   36.00    3.00
   6   5  -6   36.10    3.00
   6   5  -6   35.30    2.90
   6   5  -6   36.80    3.00
   6   5  -5   69.49    4.10
   6   5  -5   66.39    4.00
  -6  -5   5   73.99    4.30
   6   5  -5   66.59    3.90
  -6  -5   5   75.89    4.80
   6   5  -5   63.39    3.90
   6   5  -4   33.40    2.90
  -6  -5   4   36.30    3.00
   6   5  -4   34.10    2.80
  -6  -5   4   35.40    3.10
  -6  -5   4   33.40    3.20
   6   5  -3  320.77    8.70
  -6  -5   3  293.77    8.50
   6   5  -3  308.97    8.60
   6   5  -3  305.27    7.90
  -6  -5   3  315.57    9.20
  -6  -5   3  319.47    9.60
  -6  -5   2   45.60    3.40
   6   5  -2   47.70    3.30
   6   5  -2   48.50    3.40
  -6  -5   2   45.30    3.50
  -6  -5   2   51.79    3.80
   6   5  -2   45.40    3.00
   6   5  -1    0.80    0.70
  -6  -5   1    3.40    1.10
   6   5  -1    0.80    0.60
  -6  -5   1    3.00    1.00
   6   5   0    5.10    1.10
  -6  -5   0    5.20    1.10
   6   5   0    4.40    1.00
  -6  -5   0    4.20    1.00
  -6  -5   0    3.70    1.00
   6   5   1   -0.20    0.60
  -6  -5  -1    0.30    0.50
   6   5   1    0.00    0.50
  -6  -5  -1    0.20    0.40
  -6  -5  -1   -0.30    0.60
  -6  -6  11   25.40    1.70
   6   6 -11   25.10    1.80
  -6  -6  10   63.99    3.00
  -6  -6  10   69.29    3.00
   6   6 -10   70.99    3.40
   6   6 -10   72.19    3.20
  -6  -6   9    7.50    1.20
  -6  -6   9    7.20    1.20
   6   6  -9    7.60    1.20
   6   6  -9    7.40    1.40
   6   6  -9    9.30    1.30
  -6  -6   8   58.39    3.50
  -6  -6   8   57.99    3.40
   6   6  -8   58.79    3.50
   6   6  -8   64.09    3.50
   6   6  -8   59.69    3.50
   6   6  -8   64.79    3.60
  -6  -6   7    0.10    0.70
   6   6  -7    0.80    0.80
  -6  -6   7    1.30    0.80
   6   6  -7    1.80    0.90
   6   6  -7    1.00    0.70
   6   6  -7    1.10    0.70
  -6  -6   6    6.40    1.30
   6   6  -6    3.60    1.00
  -6  -6   6    4.10    1.10
   6   6  -6    5.60    1.30
   6   6  -6    4.70    1.20
  -6  -6   5    3.00    0.90
   6   6  -5    4.70    1.20
  -6  -6   5    2.30    1.00
   6   6  -5    3.80    1.00
  -6  -6   5    4.00    1.00
   6   6  -5    2.50    0.70
  -6  -6   4    0.60    0.60
  -6  -6   4    0.00    0.80
   6   6  -4   -0.20    0.80
   6   6  -4    0.70    0.80
  -6  -6   4    1.10    0.70
   6   6  -4   -0.10    0.70
  -6  -6   3   38.00    2.90
   6   6  -3   42.40    2.90
   6   6  -3   40.00    2.90
   6   6  -3   39.40    2.70
  -6  -6   3   40.90    3.10
   6   6  -3   39.80    2.70
   6   6  -2   -0.10    0.70
  -6  -6   2    0.40    0.60
   6   6  -2    0.00    0.60
  -6  -6   2    0.20    0.60
   6   6  -2    0.50    0.60
   6   6  -1   21.30    1.90
  -6  -6   1   24.20    2.10
   6   6  -1   26.40    2.00
  -6  -6   1   23.50    2.10
  -6  -6   0    6.60    1.00
   6   6   0    6.20    0.90
  -6  -6   0    7.20    1.00
   6   6   0    6.10    0.90
  -6  -6   0    5.00    0.80
  -6  -7  10    6.60    0.90
   6   7 -10    7.70    1.00
   6   7 -10    5.50    0.90
  -6  -7   9   24.50    1.90
  -6  -7   9   30.50    2.00
   6   7  -9   24.20    1.80
   6   7  -9   25.60    2.00
   6   7  -9   24.30    1.90
  -6  -7   8    0.60    0.60
  -6  -7   8    1.10    0.70
   6   7  -8    0.50    0.50
   6   7  -8    0.10    0.60
   6   7  -8   -0.50    0.70
  -6  -7   7   24.70    2.10
  -6  -7   7   22.00    2.00
   6   7  -7   24.10    2.10
   6   7  -7   25.50    2.00
  -6  -7   6   40.10    2.50
  -6  -7   6   39.40    2.70
   6   7  -6   44.40    2.80
   6   7  -6   41.50    2.70
  -6  -7   6   45.40    2.60
   6   7  -6   39.80    2.50
  -6  -7   5    2.30    0.70
  -6  -7   5    3.10    0.90
   6   7  -5    3.90    0.90
   6   7  -5    3.20    0.90
  -6  -7   5    3.60    0.90
   6   7  -5    3.70    0.90
   6   7  -5    3.50    0.80
  -6  -7   4   40.60    2.40
  -6  -7   4   41.60    2.50
  -6  -7   4   41.50    2.60
   6   7  -4   40.40    2.50
   6   7  -4   37.40    2.40
   6   7  -4   40.30    2.30
   6   7  -4   41.70    2.50
  -6  -7   3   12.60    1.40
   6   7  -3   10.10    1.20
  -6  -7   3   14.90    1.50
  -6  -7   3   13.20    1.40
   6   7  -3   12.90    1.40
   6   7  -3   11.40    1.20
   6   7  -3   10.60    1.20
  -6  -7   2   27.40    1.80
  -6  -7   2   27.50    1.80
  -6  -7   2   29.30    1.70
   6   7  -2   28.20    1.80
  -6  -8   7  238.88    4.80
   6   8  -7  225.18    4.80
   6   8  -7  234.68    4.90
  -6  -8   6    0.10    0.50
   6   8  -6    0.20    0.40
   6   8  -6    0.30    0.40
   7  -9   0   14.10    1.40
  -7   9   0   16.20    1.30
  -7   9   0   17.50    1.40
   7  -8  -4   11.70    1.20
  -7   8   4    9.80    1.10
   7  -8  -4   10.60    1.10
   7  -8  -4    9.20    1.10
  -7   8   4   10.40    1.10
   7  -8  -3   13.30    1.50
  -7   8   3   12.70    1.40
   7  -8  -3   12.50    1.30
  -7   8   3   10.90    1.30
   7  -8  -3   11.40    1.20
   7  -8  -2    4.30    1.00
  -7   8   2    5.90    1.00
  -7   8   2    4.70    1.00
   7  -8  -1   31.00    2.50
  -7   8   1   29.30    2.30
  -7   8   1   30.10    2.30
   7  -8   0   37.70    2.70
  -7   8   0   38.60    2.50
  -7   8   0   32.80    2.40
   7  -8   0   37.40    2.30
   7  -8   1   56.39    3.20
  -7   8  -1   51.19    2.80
  -7   8  -1   47.90    2.70
   7  -8   1   51.29    2.80
  -7   8  -1   46.10    2.50
  -7   8  -2    0.60    0.50
  -7   8  -2    0.10    0.50
   7  -8   2   -0.20    0.70
   7  -8   2    0.20    0.70
   7  -8   3    9.90    1.20
   7  -8   3   10.90    1.10
   7  -7  -6    6.00    1.00
   7  -7  -6    6.70    1.00
  -7   7   6    8.60    1.00
   7  -7  -6    7.10    1.00
  -7   7   5   53.49    2.80
   7  -7  -5   50.89    3.00
  -7   7   5   50.69    2.80
  -7   7   5   51.49    2.70
   7  -7  -5   45.00    2.70
   7  -7  -5   49.20    2.70
   7  -7  -4    1.10    0.60
  -7   7   4    1.50    0.80
   7  -7  -4    1.90    0.80
   7  -7  -4    0.70    0.70
  -7   7   4    1.20    0.70
   7  -7  -4    2.60    0.80
   7  -7  -3   14.40    1.80
  -7   7   3   13.20    1.70
   7  -7  -3   12.30    1.70
  -7   7   3   15.40    1.90
   7  -7  -3   13.90    1.70
   7  -7  -2   13.30    1.90
  -7   7   2   13.90    1.80
   7  -7  -2   16.80    2.00
  -7   7   2   14.20    1.80
   7  -7  -2   14.20    1.60
   7  -7  -1   27.70    2.70
  -7   7   1   27.90    2.50
   7  -7  -1   29.50    2.60
  -7   7   1   25.40    2.40
   7  -7  -1   29.70    2.30
   7  -7   0    5.90    1.40
  -7   7   0    6.70    1.30
   7  -7   0    6.30    1.20
  -7   7   0    4.90    1.10
   7  -7   0    5.20    1.10
   7  -7   1    0.10    0.80
  -7   7  -1    1.60    0.70
  -7   7  -1    3.20    0.90
   7  -7   1    1.30    0.80
  -7   7  -2   27.00    2.10
  -7   7  -2   27.10    2.10
   7  -7   2   27.30    2.30
   7  -7   2   27.40    2.50
   7  -7   3   25.10    2.00
   7  -7   3   23.60    2.10
   7  -7   4   19.80    1.50
   7  -7   4   16.80    1.60
  -7   6   7    1.10    0.40
  -7   6   7    0.20    0.40
  -7   6   7   -0.20    0.60
   7  -6  -7    0.30    0.60
   7  -6  -7    0.20    0.60
  -7   6   6    2.30    0.70
  -7   6   6    3.80    1.00
  -7   6   6    0.60    0.50
   7  -6  -6    3.10    0.90
   7  -6  -6    2.70    0.80
  -7   6   5   13.90    1.80
  -7   6   5   13.20    1.70
  -7   6   5   12.60    1.50
   7  -6  -5   13.60    1.80
   7  -6  -5   11.90    1.60
  -7   6   4   29.70    2.70
   7  -6  -4   30.90    2.90
   7  -6  -4   30.60    2.70
  -7   6   4   28.20    2.70
   7  -6  -4   31.50    2.60
   7  -6  -3  217.48    7.20
  -7   6   3  224.48    7.30
   7  -6  -3  217.08    7.40
  -7   6   3  221.98    7.30
   7  -6  -3  217.18    7.00
   7  -6  -2   -0.40    1.10
  -7   6   2    0.00    0.70
   7  -6  -2   -0.50    0.70
  -7   6   2    0.40    0.80
   7  -6  -2   -1.90    0.90
  -7   6   2    0.30    0.80
   7  -6  -1   71.89    4.40
  -7   6   1   73.79    4.10
   7  -6  -1   76.79    4.40
  -7   6   1   75.09    4.20
   7  -6  -1   81.89    4.20
   7  -6   0    3.60    1.30
  -7   6   0    1.90    0.70
   7  -6   0    2.00    0.90
  -7   6   0    2.80    0.90
   7  -6   0    4.90    1.20
   7  -6   1  137.39    6.00
  -7   6  -1  126.99    5.00
   7  -6   1  136.19    5.40
  -7   6  -1  124.49    5.00
   7  -6   1  139.49    5.60
   7  -6   2   52.29    3.20
   7  -6   2   50.59    3.60
   7  -6   2   52.79    3.40
   7  -6   3   33.00    2.50
   7  -6   3   29.80    2.60
   7  -6   4   28.40    2.00
   7  -6   4   26.70    2.20
   7  -6   5    0.00    0.50
  -7   5   8    0.20    0.30
  -7   5   8    0.20    0.50
   7  -5  -8    1.00    0.60
  -7   5   7   20.60    2.00
  -7   5   7   22.80    2.10
  -7   5   7   19.50    2.00
   7  -5  -7   21.70    2.10
   7  -5  -7   19.10    2.00
  -7   5   6   55.49    3.50
  -7   5   6   54.69    3.60
  -7   5   6   56.19    3.30
   7  -5  -6   54.39    3.50
   7  -5  -6   54.79    3.50
  -7   5   5    7.30    1.50
  -7   5   5   10.00    1.70
   7  -5  -5    8.90    1.60
   7  -5  -5    9.10    1.60
  -7   5   4    7.10    1.40
   7  -5  -4    6.70    1.50
  -7   5   4    6.80    1.50
   7  -5  -4    8.70    1.60
   7  -5  -4    9.40    1.60
  -7   5   3   26.90    2.60
   7  -5  -3   28.60    2.90
  -7   5   3   28.80    2.70
   7  -5  -3   28.00    2.70
  -7   5   3   29.10    2.70
   7  -5  -3   22.40    2.30
   7  -5  -2   62.39    4.10
  -7   5   2   58.39    3.80
   7  -5  -2   53.19    3.90
  -7   5   2   63.09    3.90
   7  -5  -2   61.19    3.90
  -7   5   2   61.29    4.00
   7  -5  -1   11.40    1.80
  -7   5   1    8.70    1.60
   7  -5  -1   10.10    1.80
  -7   5   1   11.70    1.80
   7  -5  -1   12.80    1.80
   7  -5   0   -0.80    0.80
  -7   5   0   -0.10    0.80
   7  -5   0    0.50    0.90
  -7   5   0    0.60    0.60
   7  -5   0    1.20    1.00
   7  -5   1   16.10    2.00
   7  -5   1   18.90    2.20
   7  -5   2    2.60    0.90
   7  -5   2    4.40    1.10
   7  -5   3   44.10    2.90
   7  -5   3   50.49    3.20
   7  -5   3   46.20    3.30
   7  -5   4   31.30    2.50
   7  -5   4   35.60    2.30
   7  -5   5   10.80    1.30
  -7   4   9    5.60    0.90
  -7   4   9    4.30    0.90
  -7   4   9    5.30    1.00
   7  -4  -9    4.90    0.90
  -7   4   8    1.30    0.70
  -7   4   8    0.80    0.60
  -7   4   8    0.80    0.60
   7  -4  -8    1.10    0.80
   7  -4  -8    0.30    0.60
   7  -4  -8    0.70    0.70
  -7   4   7   68.49    4.00
  -7   4   7   67.59    3.90
  -7   4   7   73.09    3.80
   7  -4  -7   77.09    4.20
   7  -4  -7   73.09    4.00
   7  -4  -7   69.69    4.00
  -7   4   6   30.80    2.80
  -7   4   6   32.00    2.90
   7  -4  -6   30.80    2.80
   7  -4  -6   28.00    2.60
   7  -4  -6   27.80    2.70
  -7   4   5   12.60    1.80
  -7   4   5   12.30    1.90
   7  -4  -5   11.60    1.90
   7  -4  -5   12.40    1.80
   7  -4  -5   15.40    1.90
   7  -4  -5    9.90    1.70
  -7   4   4   39.00    3.30
  -7   4   4   46.80    3.40
   7  -4  -4   44.20    3.50
  -7   4   4   44.90    3.40
   7  -4  -4   45.90    3.50
  -7   4   4   46.60    3.40
   7  -4  -4   47.30    3.30
   7  -4  -4   46.00    3.40
  -7   4   3   47.50    3.70
  -7   4   3   46.50    3.40
   7  -4  -3   47.70    3.70
  -7   4   3   50.19    3.60
   7  -4  -3   47.70    3.50
  -7   4   3   44.30    3.40
  -7   4   2   41.30    3.10
   7  -4  -2   43.50    3.50
  -7   4   2   42.10    3.20
   7  -4  -2   36.80    3.10
   7  -4  -1   47.70    3.60
   7  -4  -1   47.70    3.70
   7  -4  -1   44.70    3.20
  -7   4   1   41.10    3.60
  -7   4   0   23.40    2.50
   7  -4   0   21.70    2.50
   7  -4   0   24.30    2.50
  -7   4   0   24.40    2.80
   7  -4   1   44.00    3.40
   7  -4   1   40.60    3.20
   7  -4   2   54.99    3.70
   7  -4   2   62.79    3.80
   7  -4   2   59.29    3.90
   7  -4   3    9.60    1.50
   7  -4   3   10.30    1.50
   7  -4   3   10.40    1.60
   7  -4   4    2.40    0.80
   7  -4   4    3.70    1.00
  -7   3  10   39.80    2.20
  -7   3  10   40.40    2.30
  -7   3  10   42.40    2.40
   7  -3 -10   38.80    2.40
  -7   3   9   34.70    2.60
  -7   3   9   32.40    2.50
  -7   3   9   37.80    2.60
   7  -3  -9   32.70    2.50
  -7   3   8    3.40    1.10
  -7   3   8    4.50    1.20
  -7   3   8    3.60    1.00
   7  -3  -8    4.60    1.20
   7  -3  -8    4.00    1.10
  -7   3   7    2.30    0.90
  -7   3   7    2.40    1.10
   7  -3  -7    2.20    1.00
   7  -3  -7    1.50    0.90
   7  -3  -7    2.10    0.90
  -7   3   6  172.08    6.50
  -7   3   6  176.68    6.60
   7  -3  -6  163.48    6.40
   7  -3  -6  168.08    6.50
   7  -3  -6  172.48    6.20
  -7   3   6  163.88    6.70
   7  -3  -6  161.78    6.50
  -7   3   5    3.70    1.20
  -7   3   5    5.90    1.40
  -7   3   5    5.60    1.30
   7  -3  -5    4.20    1.20
   7  -3  -5    4.90    1.20
  -7   3   5    4.20    1.10
   7  -3  -5    6.50    1.30
   7  -3  -5    3.50    1.10
  -7   3   5    2.00    1.00
  -7   3   4  156.88    6.80
  -7   3   4  166.08    6.20
   7  -3  -4  162.28    6.70
  -7   3   4  155.68    6.00
   7  -3  -4  157.98    6.40
   7  -3  -4  153.78    6.20
   7  -3  -4  155.08    7.00
   7  -3  -4  158.18    6.60
  -7   3   4  145.39    7.60
  -7   3   4  154.98    6.30
   7  -3  -4  168.78    5.90
  -7   3   3   79.69    4.80
  -7   3   3   78.99    4.20
   7  -3  -3   74.29    4.50
  -7   3   3   76.39    4.20
   7  -3  -3   82.09    4.60
   7  -3  -3   86.19    4.50
  -7   3   3   73.69    5.40
  -7   3   3   81.89    4.60
  -7   3   2   37.90    3.20
   7  -3  -2   42.10    3.40
   7  -3  -2   32.80    2.70
  -7   3   2   36.10    3.80
  -7   3   2   26.10    2.60
   7  -3  -2   29.20    3.00
   7  -3  -2   33.40    2.90
  -7   3   2   31.00    3.00
   7  -3  -1    0.10    0.90
   7  -3  -1    0.40    0.60
   7  -3  -1    2.80    0.80
  -7   3   1    0.70    1.00
   7  -3  -1   -0.70    1.00
  -7   3   1    0.50    0.60
  -7   3   1    0.60    0.60
  -7   3   0   -0.20    0.80
   7  -3   0    0.20    0.70
   7  -3   0   -0.30    1.00
  -7   3   0   -0.90    0.50
  -7   3  -1   -1.30    0.80
   7  -3   1    0.10    0.60
   7  -3   1   -0.90    0.90
  -7   3  -1   -0.20    0.50
   7  -3   2    7.00    1.40
   7  -3   2    7.00    1.30
   7  -3   3    4.20    1.20
   7  -3   3    2.60    0.90
   7  -3   3    3.90    0.90
   7  -3   4   25.80    2.00
   7  -3   4   22.60    2.00
   7  -2 -11   60.49    2.70
  -7   2  10   16.00    1.70
  -7   2  10   13.20    1.60
   7  -2 -10   10.90    1.50
  -7   2  10   15.80    1.90
  -7   2   9   85.19    4.20
  -7   2   9   83.39    4.20
  -7   2   9   90.99    4.10
   7  -2  -9   86.19    4.40
  -7   2   9   79.69    4.70
  -7   2   8    0.10    0.80
  -7   2   8    0.70    0.70
   7  -2  -8   -0.20    0.80
  -7   2   8    0.30    1.00
  -7   2   7    0.20    0.70
  -7   2   7   -0.20    1.00
   7  -2  -7   -0.70    1.20
   7  -2  -7   -0.20    0.90
  -7   2   7   -2.20    1.20
  -7   2   7   -0.10    0.80
   7  -2  -7   -0.90    0.60
  -7   2   7    0.70    0.60
  -7   2   6   11.70    2.00
  -7   2   6   12.10    1.80
  -7   2   6   15.60    2.00
   7  -2  -6   16.30    2.20
   7  -2  -6   15.10    2.10
  -7   2   6   14.60    1.90
   7  -2  -6   12.70    1.80
  -7   2   6   14.20    2.10
  -7   2   5    5.30    1.30
  -7   2   5    5.40    1.20
   7  -2  -5    3.40    1.00
  -7   2   5    3.30    1.00
   7  -2  -5    5.10    1.40
   7  -2  -5    5.70    1.40
   7  -2  -5    7.70    1.40
  -7   2   5    3.30    1.20
  -7   2   5    5.10    1.30
  -7   2   4   12.40    2.10
  -7   2   4   13.00    1.70
   7  -2  -4   10.90    1.70
  -7   2   4   11.80    1.70
   7  -2  -4   14.30    2.00
   7  -2  -4   14.30    2.00
   7  -2  -4   13.00    2.00
  -7   2   4   17.50    2.60
  -7   2   4   10.50    1.60
  -7   2   3  110.89    5.60
   7  -2  -3  119.29    5.60
   7  -2  -3  118.79    5.40
   7  -2  -3  111.69    5.20
  -7   2   3  110.79    6.40
  -7   2   3  108.69    5.30
   7  -2  -3  109.59    5.70
  -7   2   3  108.99    5.40
   7  -2  -2    8.60    1.50
   7  -2  -2    6.30    1.50
   7  -2  -2    6.40    1.30
   7  -2  -2    8.80    1.50
  -7   2   2    6.60    1.60
   7  -2  -2   13.00    2.10
  -7   2   2    6.10    1.40
   7  -2  -2    6.90    1.60
  -7   2   2    7.10    1.40
   7  -2  -1   61.79    4.10
   7  -2  -1   56.89    3.60
   7  -2  -1   61.99    3.70
   7  -2  -1   55.79    3.60
  -7   2   1   60.79    4.60
  -7   2   1   57.29    3.80
   7  -2  -1   54.79    4.20
   7  -2  -1   59.59    4.30
  -7   2   1   60.09    4.00
   7  -2   0   48.00    3.60
   7  -2   0   43.70    3.20
   7  -2   0   48.80    3.40
  -7   2   0   42.90    3.40
   7  -2   1    5.40    1.40
   7  -2   1    4.60    1.30
   7  -2   1    4.70    1.20
  -7   2  -1    5.80    1.20
   7  -2   2    7.60    1.50
   7  -2   2    7.10    1.40
   7  -2   2    8.90    1.50
   7  -2   3   20.30    2.20
   7  -2   3   22.20    2.10
   7  -2   3   25.90    2.40
   7  -2   4    1.70    0.70
   7  -2   4    1.00    0.60
   7  -1 -11    8.90    1.20
  -7   1  11    9.70    1.20
  -7   1  11   10.60    1.30
   7  -1 -11   10.30    1.30
  -7   1  10    5.30    1.10
  -7   1  10    4.60    1.00
   7  -1 -10    4.80    1.10
  -7   1  10    6.60    1.50
  -7   1   9    0.00    0.80
  -7   1   9    0.10    0.70
   7  -1  -9   -0.50    0.80
  -7   1   9    0.30    0.80
  -7   1   8    7.30    1.40
  -7   1   8    3.20    1.00
   7  -1  -8    5.70    1.40
  -7   1   8    5.90    1.60
  -7   1   8    5.90    1.30
  -7   1   7   52.19    3.90
  -7   1   7   50.89    3.50
  -7   1   7   57.29    3.70
   7  -1  -7   61.89    3.90
   7  -1  -7   57.39    4.00
  -7   1   7   53.39    3.70
   7  -1  -7   56.69    3.60
  -7   1   6   97.89    5.40
  -7   1   6  107.69    4.90
  -7   1   6  108.49    5.00
   7  -1  -6  112.69    5.30
   7  -1  -6  108.89    5.40
   7  -1  -6  100.19    5.40
  -7   1   6  108.89    5.30
  -7   1   5   26.20    2.80
   7  -1  -5   27.00    2.60
   7  -1  -5   26.60    2.60
   7  -1  -5   25.20    2.60
  -7   1   5   26.40    3.20
  -7   1   5   25.90    2.60
   7  -1  -4  245.18    7.70
   7  -1  -4  240.98    7.80
  -7   1   4  234.38    9.10
   7  -1  -4  225.18    7.90
  -7   1   4  227.98    7.50
  -7   1   4  221.18    8.00
  -7   1   3   16.50    2.10
   7  -1  -3   15.90    2.00
   7  -1  -3   14.80    1.90
   7  -1  -3   18.90    2.20
  -7   1   3   17.50    2.60
  -7   1   3   16.70    2.00
   7  -1  -3   15.10    2.20
   7  -1  -2    1.80    0.80
   7  -1  -2   -0.20    1.00
   7  -1  -2    1.10    0.60
   7  -1  -2    2.90    1.00
  -7   1   2    0.40    0.90
   7  -1  -2    1.50    0.90
  -7   1   2    1.10    0.90
   7  -1  -2   -0.40    1.00
   7  -1  -1   26.50    2.70
   7  -1  -1   25.40    2.40
   7  -1  -1   20.80    2.20
   7  -1  -1   22.50    2.40
  -7   1   1   18.60    2.60
  -7   1   1   23.20    2.40
   7  -1  -1   30.40    3.10
  -7   1   1   21.10    2.40
   7  -1   0    4.10    1.20
   7  -1   0    3.30    1.10
  -7   1   0    5.70    1.30
   7  -1   0    3.50    1.10
  -7   1   0    4.50    1.10
   7  -1   1   71.89    4.30
   7  -1   1   72.59    4.10
   7  -1   1   81.79    4.60
   7  -1   1   68.99    4.00
   7  -1   2   86.19    4.50
   7  -1   2   80.89    4.20
   7  -1   2   79.69    4.40
   7  -1   3   35.70    2.50
   7  -1   3   36.30    2.80
   7  -1   4   32.70    2.40
   7   0 -11   42.50    2.60
  -7   0  11   42.70    2.60
  -7   0  11   43.00    2.60
   7   0 -11   45.20    2.50
   7   0 -11   43.60    2.60
  -7   0  10   47.60    3.10
  -7   0  10   50.49    3.20
   7   0 -10   49.99    3.20
  -7   0  10   39.70    3.40
  -7   0   9   29.10    2.60
  -7   0   9   37.60    2.90
   7   0  -9   32.40    2.80
  -7   0   9   34.60    3.50
  -7   0   9   32.50    2.70
  -7   0   8   70.69    4.00
  -7   0   8   67.69    4.00
   7   0  -8   66.29    4.20
  -7   0   8   72.09    5.10
  -7   0   8   68.99    4.10
  -7   0   7   14.20    2.00
   7   0  -7   16.50    2.10
  -7   0   7   16.10    2.00
  -7   0   7   16.10    1.90
   7   0  -7   18.50    2.20
   7   0  -7   17.10    2.20
  -7   0   7   16.30    2.10
  -7   0   6   -0.50    0.70
   7   0  -6    0.20    0.80
   7   0  -6    1.10    0.90
  -7   0   6    1.00    0.90
   7   0  -6    0.40    0.80
   7   0  -6   -1.90    1.10
   7   0  -6   -2.00    0.90
  -7   0   6    1.10    0.90
  -7   0   5   20.70    2.50
   7   0  -5   20.30    2.20
   7   0  -5   22.20    2.40
  -7   0   5   23.90    2.80
   7   0  -5   21.60    2.40
   7   0  -5   18.50    2.40
  -7   0   5   20.90    2.40
  -7   0   4   59.29    4.00
   7   0  -4   64.29    3.90
  -7   0   4   61.49    4.40
  -7   0   4   59.59    4.30
   7   0  -4   58.19    3.80
   7   0  -4   53.69    4.00
  -7   0   4   54.59    3.70
  -7   0   3   36.10    3.20
   7   0  -3   38.00    3.00
  -7   0   3   39.00    3.40
  -7   0   3   39.70    3.50
   7   0  -3   41.30    3.20
   7   0  -3   40.90    3.50
  -7   0   3   39.90    3.70
  -7   0   3   37.40    3.00
   7   0  -3   40.80    3.50
  -7   0   2   35.60    3.20
   7   0  -2   40.20    3.00
   7   0  -2   35.90    3.00
   7   0  -2   34.10    2.90
   7   0  -2   41.40    3.60
  -7   0   2   33.70    3.40
  -7   0   2   31.50    2.70
   7   0  -2   39.00    3.50
   7   0  -1   22.60    2.40
   7   0  -1   19.80    2.20
   7   0  -1   23.00    2.30
  -7   0   1   24.90    2.50
   7   0  -1   18.10    2.10
   7   0   0    3.40    1.00
   7   0   0    1.90    0.70
   7   0   0    5.60    1.10
  -7   0   0    3.30    1.00
   7   0   0    4.70    1.20
   7   0   1  139.39    5.70
   7   0   1  142.99    5.60
   7   0   1  145.29    6.10
  -7   0  -2    3.20    1.00
   7   0   2    1.50    0.80
   7   0   2    2.10    1.00
   7   0   3  109.89    4.70
   7   0   4    9.00    1.20
   7   1 -12    8.50    1.00
   7   1 -11    0.30    0.50
  -7  -1  11    0.20    0.50
  -7  -1  11    0.20    0.50
   7   1 -11   -0.20    0.50
   7   1 -10   59.89    3.60
  -7  -1  10   60.39    3.50
  -7  -1  10   61.89    3.50
   7   1 -10   54.99    3.30
  -7  -1  10   57.49    3.40
   7   1  -9    1.40    0.90
  -7  -1   9    1.90    0.80
  -7  -1   9    1.10    0.80
   7   1  -9    0.60    0.60
  -7  -1   9    0.30    0.70
   7   1  -8   71.19    4.30
  -7  -1   8   80.19    4.20
  -7  -1   8   80.09    4.20
   7   1  -8   83.19    4.50
  -7  -1   8   77.29    4.40
  -7  -1   7   10.70    1.70
   7   1  -7   10.50    1.80
   7   1  -7    8.40    1.50
  -7  -1   7   11.90    1.80
  -7  -1   6  192.18    7.20
   7   1  -6  194.38    6.90
   7   1  -6  194.18    6.70
  -7  -1   6  180.68    7.90
   7   1  -6  197.78    7.00
  -7  -1   6  194.28    7.00
  -7  -1   5   72.39    4.50
   7   1  -5   68.09    4.00
   7   1  -5   73.59    4.20
  -7  -1   5   68.29    4.70
   7   1  -5   70.29    4.00
  -7  -1   5   66.99    4.70
   7   1  -5   71.99    4.30
   7   1  -5   77.49    4.90
  -7  -1   5   70.09    4.20
  -7  -1   5   64.39    4.20
  -7  -1   4   48.70    3.70
   7   1  -4   52.69    3.60
  -7  -1   4   48.30    3.90
  -7  -1   4   51.69    4.10
   7   1  -4   52.29    3.60
   7   1  -4   52.29    4.00
   7   1  -4   49.99    3.90
  -7  -1   4   46.20    3.40
  -7  -1   3    0.40    0.70
   7   1  -3   -1.10    0.70
   7   1  -3    1.00    0.80
  -7  -1   3    1.70    0.70
  -7  -1   3    1.00    0.70
   7   1  -3    0.60    0.80
   7   1  -3   -0.40    0.80
  -7  -1   3    0.00    0.80
   7   1  -3    2.50    1.20
   7   1  -3    3.80    1.30
  -7  -1   2    5.10    1.40
   7   1  -2    3.90    1.10
   7   1  -2    3.50    1.10
   7   1  -2    4.70    1.20
  -7  -1   2    3.80    1.20
  -7  -1   2    4.10    1.30
   7   1  -2    4.60    1.30
  -7  -1   1    2.10    1.10
   7   1  -1    1.50    0.60
   7   1  -1    0.40    0.70
   7   1  -1   -2.00    0.90
  -7  -1   1   -1.50    0.70
   7   1  -1   -0.70    1.00
  -7  -1   0   28.50    2.80
   7   1   0   34.50    2.80
   7   1   0   35.60    2.90
  -7  -1  -1  237.88    7.30
   7   1   1  244.78    7.70
   7   1   2    8.00    1.40
   7   1   3   46.60    2.80
   7   2 -12   17.50    1.50
   7   2 -11  190.58    5.70
  -7  -2  11  191.18    5.40
   7   2 -11  185.48    5.10
  -7  -2  11  187.38    5.30
   7   2 -10    3.90    1.10
  -7  -2  10    4.30    1.10
  -7  -2  10    4.70    1.00
   7   2 -10    3.80    1.00
  -7  -2  10    3.50    1.00
   7   2  -9   20.70    2.40
  -7  -2   9   22.20    2.20
  -7  -2   9   20.30    2.00
   7   2  -9   23.60    2.40
  -7  -2   9   18.40    2.10
   7   2  -8   34.80    3.00
   7   2  -8   38.70    3.10
  -7  -2   8   36.10    3.00
   7   2  -7  171.68    6.60
   7   2  -7  178.88    6.50
   7   2  -7  174.38    6.30
  -7  -2   7  171.58    6.60
   7   2  -6  182.08    6.80
   7   2  -6  188.38    6.50
   7   2  -6  177.88    6.50
  -7  -2   6  182.98    7.80
   7   2  -6  188.68    6.60
  -7  -2   6  182.18    6.60
  -7  -2   5   14.90    2.20
   7   2  -5   18.40    2.20
   7   2  -5   14.40    2.00
  -7  -2   5   15.40    2.30
   7   2  -5   15.40    2.00
  -7  -2   5   14.60    2.30
   7   2  -5   15.00    1.90
  -7  -2   5   17.30    2.00
  -7  -2   5   17.70    2.20
   7   2  -5   16.00    1.90
  -7  -2   4   56.89    4.10
   7   2  -4   58.69    3.80
  -7  -2   4   61.79    4.40
   7   2  -4   54.99    3.40
  -7  -2   4   52.19    4.10
   7   2  -4   52.79    3.60
  -7  -2   4   48.00    3.80
  -7  -2   3    3.80    1.20
   7   2  -3    4.10    1.00
   7   2  -3    3.90    1.10
  -7  -2   3    4.70    1.40
   7   2  -3    6.30    1.30
  -7  -2   2   50.19    3.80
   7   2  -2   55.99    3.60
   7   2  -2   49.99    3.50
  -7  -2   1    2.60    1.00
   7   2  -1    1.80    0.80
   7   2  -1    0.40    0.70
  -7  -2   0    2.60    1.10
   7   2   0    1.10    0.80
   7   2   0    1.80    0.70
   7   2   0    1.50    0.90
  -7  -2   0    0.70    0.80
   7   2   1   17.00    1.80
   7   2   1   20.30    1.90
   7   2   1   19.10    2.10
  -7  -2  -1   19.20    2.00
   7   2   2   54.79    2.70
   7   2   2   56.39    2.70
   7   2   2   56.99    3.10
  -7  -2  -2   50.89    3.00
   7   2   3   19.20    1.50
  -7  -2  -3   18.20    1.50
   7   3 -11   12.50    1.50
   7   3 -11   12.30    1.30
  -7  -3  11   14.10    1.50
   7   3 -10    1.40    0.70
  -7  -3  10    1.60    0.60
   7   3 -10    1.10    0.60
  -7  -3  10    2.40    0.90
   7   3  -9   83.89    4.40
   7   3  -9   80.19    4.20
  -7  -3   9   87.29    4.40
  -7  -3   8  358.76    8.60
   7   3  -8  349.47    9.20
   7   3  -8  354.16    8.90
  -7  -3   8  347.67    9.00
   7   3  -7   50.19    3.60
   7   3  -7   52.09    3.50
  -7  -3   7   51.29    3.50
   7   3  -7   46.00    3.30
   7   3  -6    2.00    1.00
   7   3  -6    1.70    1.00
   7   3  -6    0.70    0.80
  -7  -3   6    1.10    0.70
  -7  -3   6    1.50    0.90
   7   3  -6    2.70    0.90
   7   3  -5  193.88    6.70
   7   3  -5  209.88    6.80
  -7  -3   5  216.88    7.80
   7   3  -5  202.08    6.70
   7   3  -4  132.29    5.70
   7   3  -4  138.59    5.60
   7   3  -4  130.89    5.20
   7   3  -4  129.19    5.20
  -7  -3   4  125.59    6.00
   7   3  -4  129.19    5.20
  -7  -3   3   17.00    2.30
   7   3  -3   15.10    2.00
   7   3  -3   16.50    2.00
   7   3  -3   16.10    2.00
  -7  -3   3   13.70    2.00
  -7  -3   3   14.80    2.20
  -7  -3   2   24.60    2.60
   7   3  -2   23.50    2.40
   7   3  -2   25.00    2.40
  -7  -3   2   21.70    2.40
  -7  -3   2   22.30    2.50
  -7  -3   1   24.90    2.40
   7   3  -1   19.20    2.10
   7   3  -1   25.30    2.30
  -7  -3   1   17.60    2.20
  -7  -3   1   21.50    2.40
   7   3   0    2.60    0.80
   7   3   0    3.10    0.80
   7   3   0    2.80    1.00
  -7  -3   0    1.40    0.80
  -7  -3   0    2.40    0.90
   7   3   1    7.30    1.10
   7   3   1    6.70    1.00
   7   3   1    9.00    1.30
  -7  -3  -1    6.40    1.20
  -7  -3  -2    2.20    0.60
  -7  -3  -2    1.50    0.60
   7   4 -11   80.49    3.30
   7   4 -11   75.99    2.90
  -7  -4  11   84.19    3.40
   7   4 -11   79.99    3.10
   7   4 -11   85.69    3.30
   7   4 -10   57.59    3.20
   7   4 -10   53.69    3.00
  -7  -4  10   57.19    3.20
   7   4 -10   54.89    3.00
   7   4 -10   50.99    3.00
  -7  -4   9   43.00    2.70
   7   4  -9   43.30    3.00
   7   4  -9   46.40    3.00
  -7  -4   9   43.80    3.00
   7   4  -9   42.70    2.80
   7   4  -9   41.20    2.90
  -7  -4   8    5.00    1.10
   7   4  -8    5.00    1.20
   7   4  -8    5.10    1.20
  -7  -4   8    6.50    1.40
   7   4  -8    5.30    1.10
   7   4  -8    6.20    1.30
  -7  -4   7  140.79    5.70
   7   4  -7  152.28    5.80
  -7  -4   7  154.48    5.60
   7   4  -7  146.09    5.70
   7   4  -6    1.30    0.80
  -7  -4   6    0.90    0.70
   7   4  -6    1.90    0.80
  -7  -4   6    1.10    1.00
   7   4  -6    0.90    0.70
   7   4  -5   35.10    2.90
   7   4  -5   35.70    2.80
  -7  -4   5   39.90    3.40
   7   4  -5   33.60    2.70
   7   4  -4   14.60    1.90
   7   4  -4   10.50    1.60
   7   4  -4   18.30    1.90
  -7  -4   4   14.20    1.90
  -7  -4   4   10.00    1.80
   7   4  -3   -0.20    0.80
  -7  -4   3   -2.10    0.90
   7   4  -3    0.00    0.80
  -7  -4   3   -0.30    0.90
  -7  -4   3    0.40    0.50
   7   4  -2  122.59    5.00
   7   4  -2  129.99    5.10
  -7  -4   2  115.89    5.10
  -7  -4   2  124.69    5.50
   7   4  -1   92.39    4.10
  -7  -4   1   84.69    4.10
   7   4  -1   93.39    4.10
   7   4  -1   91.49    4.10
  -7  -4   1   90.49    4.30
  -7  -4   1   93.39    4.40
   7   4   0    3.00    0.90
  -7  -4   0    4.50    0.90
   7   4   0    3.40    0.80
   7   4   0    5.40    0.90
  -7  -4   0    3.70    1.00
   7   4   1   24.20    1.60
  -7  -4  -1   26.20    1.70
  -7  -4  -1   26.50    1.80
  -7  -5  11    3.10    0.60
  -7  -5  10   24.80    1.70
   7   5 -10   22.70    1.80
  -7  -5  10   24.80    1.90
   7   5 -10   22.80    1.80
   7   5 -10   23.70    1.90
  -7  -5   9   87.29    3.70
   7   5  -9   86.89    3.80
  -7  -5   9   95.59    3.90
   7   5  -9   85.79    3.70
   7   5  -9   87.59    3.80
  -7  -5   8    2.30    0.70
   7   5  -8   -0.20    0.80
  -7  -5   8    1.10    0.60
   7   5  -8    1.40    0.80
  -7  -5   8    0.60    0.60
   7   5  -8    0.50    0.60
   7   5  -8    0.50    0.60
  -7  -5   7  110.09    4.70
   7   5  -7  114.29    4.80
  -7  -5   7  112.79    4.50
   7   5  -7  107.59    4.60
   7   5  -7  105.69    4.30
   7   5  -7  109.99    4.60
  -7  -5   6   27.00    2.40
   7   5  -6   29.50    2.50
  -7  -5   6   26.20    2.30
   7   5  -6   31.90    2.50
   7   5  -6   25.90    2.30
  -7  -5   5   21.50    2.10
   7   5  -5   23.70    2.30
  -7  -5   5   25.10    2.30
   7   5  -5   24.70    2.30
   7   5  -5   23.20    2.10
   7   5  -4   44.60    3.00
   7   5  -4   49.70    3.10
   7   5  -4   45.30    2.80
  -7  -5   4   44.50    3.00
  -7  -5   3   18.50    1.70
   7   5  -3   18.10    1.90
  -7  -5   3   14.90    1.70
   7   5  -3   16.90    1.80
  -7  -5   3   14.50    1.80
   7   5  -2    7.30    1.20
  -7  -5   2    7.60    1.20
   7   5  -2    9.40    1.30
  -7  -5   2    8.90    1.30
   7   5  -1    7.90    1.10
  -7  -5   1    7.70    1.20
   7   5  -1    8.50    1.10
  -7  -5   1    7.30    1.10
  -7  -6   9    9.70    1.10
   7   6  -9    5.50    0.90
  -7  -6   9    9.20    1.00
   7   6  -9    7.90    1.10
   7   6  -9    9.30    1.10
  -7  -6   8   12.00    1.40
   7   6  -8   11.10    1.30
  -7  -6   8   12.70    1.40
   7   6  -8    9.60    1.30
   7   6  -8    9.10    1.10
  -7  -6   7    5.50    1.00
   7   6  -7    5.70    1.10
  -7  -6   7    4.80    1.00
   7   6  -7    6.70    1.10
   7   6  -7    4.60    1.00
   7   6  -7    3.90    0.80
  -7  -6   6   -0.30    0.50
   7   6  -6   -0.50    0.60
  -7  -6   6    0.20    0.60
   7   6  -6   -0.20    0.60
   7   6  -6    0.30    0.60
  -7  -6   5   -0.70    0.70
   7   6  -5   -0.40    0.70
  -7  -6   5   -0.70    0.70
   7   6  -5   -0.40    0.70
   7   6  -5    0.30    0.40
   7   6  -5   -2.60    0.70
  -7  -6   4    3.20    0.80
   7   6  -4    3.50    0.80
  -7  -6   4    1.60    0.70
   7   6  -4    3.50    0.80
   7   6  -4    2.60    0.70
   7   6  -3    3.70    0.70
  -7  -6   3    3.90    0.80
  -7  -6   3    2.30    0.70
   7   6  -3    3.20    0.80
  -7  -6   3    2.60    0.70
  -8   7   5  100.59    3.20
   8  -7  -5   99.99    3.30
   8  -7  -5  104.89    3.20
  -8   7   4   24.80    1.80
   8  -7  -4   22.60    1.80
  -8   7   4   22.80    1.70
   8  -7  -4   23.90    1.70
  -8   7   3    8.20    1.10
   8  -7  -3    8.20    1.20
  -8   7   3    7.80    1.10
   8  -7  -3    7.30    1.10
   8  -7  -2   11.00    1.30
  -8   7   2   14.00    1.50
   8  -7  -2   11.50    1.30
  -8   7   2   12.70    1.40
  -8   7   1    3.50    0.80
   8  -7  -1    5.10    1.00
  -8   7   1    3.50    0.80
  -8   7   1    5.70    0.90
  -8   7   0    1.30    0.50
   8  -7   0    2.80    0.60
  -8   7   0    2.60    0.70
   8  -7   0    0.60    0.60
  -8   7   0    1.20    0.60
   8  -7   1    1.80    0.60
   8  -7   1    0.70    0.70
  -8   6   6   17.10    1.60
   8  -6  -6   15.90    1.60
  -8   6   6   16.10    1.50
   8  -6  -6   15.20    1.50
  -8   6   5   38.80    2.50
   8  -6  -5   40.30    2.70
  -8   6   5   38.30    2.50
   8  -6  -5   35.70    2.50
  -8   6   4    4.60    1.00
   8  -6  -4    4.80    1.10
  -8   6   4    3.70    0.90
   8  -6  -4    3.50    0.90
  -8   6   3    1.90    0.80
   8  -6  -3    1.60    0.90
  -8   6   3    1.10    0.60
   8  -6  -3    1.70    0.70
   8  -6  -2   26.10    2.30
  -8   6   2   26.00    2.20
   8  -6  -2   30.60    2.60
  -8   6   2   27.20    2.30
  -8   6   2   25.00    2.10
  -8   6   1    7.60    1.20
   8  -6  -1    7.40    1.30
  -8   6   1    7.60    1.20
   8  -6  -1    8.90    1.30
  -8   6   1    7.70    1.30
   8  -6   0   20.40    2.00
   8  -6   0   23.10    2.00
  -8   6   0   21.80    2.00
   8  -6   1    8.10    1.20
   8  -6   1    9.00    1.30
   8  -6   1    8.40    1.40
  -8   6  -1    8.80    1.30
   8  -6   2   73.69    2.90
   8  -6   2   90.19    3.40
   8  -6   2   89.09    3.60
  -8   6  -2   78.99    3.30
  -8   5   7    9.90    1.30
   8  -5  -7    6.70    1.10
  -8   5   7    8.40    1.20
   8  -5  -7    7.40    1.10
  -8   5   6   77.79    3.70
   8  -5  -6   74.39    3.80
  -8   5   6   74.29    3.60
   8  -5  -6   79.49    3.80
  -8   5   5  218.48    6.40
   8  -5  -5  222.68    7.00
  -8   5   5  210.58    6.40
   8  -5  -5  222.28    6.70
  -8   5   4    3.70    1.00
   8  -5  -4    3.60    1.20
  -8   5   4    4.70    1.10
   8  -5  -4    6.00    1.30
  -8   5   4    5.10    1.10
  -8   5   3    1.60    0.80
   8  -5  -3    1.60    1.00
  -8   5   3    1.30    0.80
   8  -5  -3    1.20    0.80
  -8   5   3    1.40    0.80
  -8   5   2    9.50    1.40
   8  -5  -2   11.70    1.80
  -8   5   2    7.50    1.30
   8  -5  -2   11.60    1.60
  -8   5   2   10.80    1.60
   8  -5  -1   -0.80    0.90
   8  -5  -1    0.00    0.70
  -8   5   1    0.40    0.70
   8  -5   0   16.60    2.00
   8  -5   0   20.50    2.00
  -8   5   0   17.70    2.00
   8  -5   1    8.40    1.40
   8  -5   1    6.50    1.20
   8  -5   1    6.50    1.30
  -8   5  -1    5.30    1.10
   8  -5   2   49.99    2.70
   8  -5   2   51.69    2.80
   8  -5   2   51.99    2.90
  -8   5  -2   47.10    2.80
   8  -5   3   23.00    1.70
  -8   5  -3   22.20    1.60
  -8   4   8    7.30    1.10
   8  -4  -8    8.50    1.20
  -8   4   8    4.60    0.90
   8  -4  -8    8.20    1.10
   8  -4  -8    6.00    1.00
  -8   4   7   38.90    2.70
   8  -4  -7   37.90    2.70
  -8   4   7   39.00    2.70
   8  -4  -7   41.10    2.80
   8  -4  -7   40.00    2.70
  -8   4   6    4.60    1.20
   8  -4  -6    5.10    1.30
  -8   4   6    2.60    0.90
   8  -4  -6    5.10    1.20
   8  -4  -6    3.10    0.90
  -8   4   5   22.40    2.20
   8  -4  -5   21.60    2.40
  -8   4   5   17.00    2.00
   8  -4  -5   17.40    2.10
   8  -4  -5   18.80    2.00
  -8   4   5   19.20    2.10
  -8   4   4   20.40    2.10
   8  -4  -4   25.80    2.70
  -8   4   4   21.60    2.20
   8  -4  -4   27.20    2.60
  -8   4   4   23.00    2.40
  -8   4   3   59.49    3.50
   8  -4  -3   57.29    3.90
  -8   4   3   55.79    3.40
   8  -4  -3   61.89    3.80
  -8   4   3   55.39    3.70
   8  -4  -2   53.79    3.80
   8  -4  -2   55.79    3.50
  -8   4   2   50.79    3.50
   8  -4  -1   10.30    1.70
   8  -4  -1   10.50    1.60
  -8   4   1   10.50    1.70
   8  -4   0   -0.20    0.70
   8  -4   0   -0.50    0.80
  -8   4   0   -0.50    1.00
   8  -4   1    8.00    1.40
   8  -4   1   11.10    1.60
  -8   4  -1    9.10    1.40
   8  -4   2   17.80    1.80
   8  -4   2   20.30    1.90
  -8   4  -2   20.20    1.80
   8  -4   3   12.60    1.30
  -8   3   9   75.29    3.30
  -8   3   9   70.59    3.20
   8  -3  -9   66.49    3.10
  -8   3   8   44.70    2.90
  -8   3   8   46.20    2.90
   8  -3  -8   51.79    2.90
   8  -3  -8   44.30    2.90
  -8   3   7   38.30    2.80
   8  -3  -7   43.10    3.00
  -8   3   7   37.50    2.80
   8  -3  -7   42.60    3.00
   8  -3  -7   37.70    2.90
  -8   3   6    6.10    1.20
   8  -3  -6    5.70    1.40
  -8   3   6    5.70    1.20
   8  -3  -6    7.60    1.50
   8  -3  -6    7.30    1.40
  -8   3   6    5.50    1.30
  -8   3   5    3.80    1.00
   8  -3  -5    1.00    0.90
  -8   3   5    3.30    1.00
   8  -3  -5    2.80    1.10
   8  -3  -5    2.70    1.10
  -8   3   5    2.00    0.90
  -8   3   4   33.70    2.60
   8  -3  -4   34.50    3.10
  -8   3   4   36.40    2.80
   8  -3  -4   35.70    3.00
   8  -3  -4   33.60    2.90
  -8   3   4   33.30    3.00
   8  -3  -3   43.50    3.40
   8  -3  -3   43.90    3.30
   8  -3  -3   41.00    3.10
  -8   3   3   41.20    3.20
   8  -3  -2    8.00    1.60
   8  -3  -2    8.80    1.50
   8  -3  -2   10.70    1.60
   8  -3  -2    7.70    1.30
  -8   3   2    7.80    1.50
   8  -3  -1   -1.10    1.30
   8  -3  -1   -0.30    0.80
   8  -3  -1   -0.30    0.90
  -8   3   1   -0.40    0.60
   8  -3   0    0.50    0.80
   8  -3   0    0.30    0.80
  -8   3   0    1.70    0.90
   8  -3   1   11.50    1.70
   8  -3   1   10.80    1.60
  -8   3  -1    8.90    1.40
   8  -3   2    3.50    1.00
   8  -3   2    3.60    1.00
   8  -3   3    2.60    0.70
  -8   2  10    1.20    0.50
  -8   2  10    1.20    0.60
   8  -2 -10    0.50    0.50
  -8   2   9   21.40    1.90
  -8   2   9   21.10    1.90
   8  -2  -9   18.10    1.90
  -8   2   8    7.30    1.30
  -8   2   8    8.70    1.40
   8  -2  -8   11.60    1.50
   8  -2  -8    8.70    1.40
  -8   2   8   11.30    1.40
  -8   2   7   -0.50    0.80
  -8   2   7   -0.20    0.80
   8  -2  -7    0.20    0.80
   8  -2  -7    0.50    0.80
  -8   2   7   -0.40    0.80
  -8   2   6    0.80    0.70
  -8   2   6    0.70    0.70
   8  -2  -6    1.50    1.00
   8  -2  -6    0.40    0.90
  -8   2   6    1.10    0.80
   8  -2  -5   18.20    2.20
  -8   2   5   16.20    1.90
   8  -2  -5   15.90    2.20
   8  -2  -5   16.20    2.10
  -8   2   5   17.50    2.10
   8  -2  -4   74.89    4.40
   8  -2  -4   76.09    4.40
   8  -2  -4   75.99    4.40
  -8   2   4   72.79    4.30
  -8   2   3   71.69    4.20
   8  -2  -3   83.59    4.60
   8  -2  -3   81.89    4.50
   8  -2  -3   83.19    4.60
  -8   2   3   78.59    4.40
  -8   2   2   53.39    3.70
   8  -2  -2   60.59    3.90
   8  -2  -2   59.59    3.50
   8  -2  -2   62.29    3.80
   8  -2  -2   58.09    3.70
  -8   2   2   60.29    3.80
   8  -2  -1   13.80    1.90
   8  -2  -1   13.40    1.80
   8  -2  -1   12.70    1.60
   8  -2  -1   10.00    1.60
  -8   2   1   10.30    1.60
   8  -2   0  202.78    6.80
   8  -2   0  205.08    6.50
   8  -2   0  206.38    6.40
  -8   2   0  208.58    6.50
   8  -2   1    7.80    1.40
   8  -2   1    8.50    1.40
  -8   2  -2   16.70    1.90
   8  -2   2   15.00    1.70
   8  -2   2   17.90    1.70
  -8   2  -3   18.70    1.60
   8  -2   3   16.70    1.40
  -8   1  10    5.60    1.00
  -8   1  10    4.30    0.90
   8  -1 -10    3.40    0.90
  -8   1   9   25.10    2.20
  -8   1   9   26.20    2.20
   8  -1  -9   20.30    2.10
  -8   1   9   27.10    2.10
  -8   1   8   67.59    3.60
  -8   1   8   60.29    3.40
   8  -1  -8   71.49    3.70
   8  -1  -8   64.29    3.90
  -8   1   8   67.49    3.80
  -8   1   7   34.20    2.70
  -8   1   7   34.50    2.70
   8  -1  -7   35.20    2.80
   8  -1  -7   38.20    3.20
  -8   1   7   31.80    2.80
   8  -1  -6   39.40    3.10
   8  -1  -6   41.30    3.30
  -8   1   6   39.00    3.10
   8  -1  -5   14.30    2.00
   8  -1  -5   16.00    2.10
  -8   1   5   14.80    2.00
  -8   1   4    5.90    1.30
   8  -1  -4    4.20    1.10
   8  -1  -4    5.70    1.40
  -8   1   4    6.10    1.30
  -8   1   3   95.39    5.00
   8  -1  -3  102.99    4.90
   8  -1  -3   99.89    4.80
   8  -1  -3   94.39    4.90
  -8   1   3   90.39    4.70
  -8   1   2   16.60    2.20
   8  -1  -2   23.80    2.40
   8  -1  -2   24.00    2.30
   8  -1  -2   21.00    2.20
   8  -1  -2   18.70    2.10
  -8   1   2   19.50    2.20
  -8   1   1    0.70    0.70
   8  -1  -1    2.20    0.90
   8  -1  -1    1.50    0.80
   8  -1  -1    0.90    0.70
   8  -1  -1    0.70    0.80
   8  -1  -1    1.70    0.80
  -8   1   1    2.50    0.80
  -8   1   0    4.40    1.30
   8  -1   0    4.30    1.20
   8  -1   0    3.60    1.10
   8  -1   0    1.00    0.60
  -8   1  -1   97.19    4.60
   8  -1   1   97.89    4.30
   8  -1   1   98.99    4.20
   8  -1   1  105.89    4.50
  -8   1  -2   56.79    3.10
   8  -1   2   54.79    2.80
   8  -1   2   53.69    2.90
  -8   0  11   18.60    1.40
   8   0 -10    1.30    0.60
  -8   0  10    1.60    0.70
  -8   0  10    1.30    0.60
   8   0 -10    1.80    0.70
   8   0 -10    0.90    0.60
  -8   0  10    1.70    0.60
   8   0  -9   15.60    1.70
  -8   0   9   13.30    1.60
  -8   0   9   13.60    1.60
   8   0  -9   15.00    1.80
  -8   0   9   13.60    1.70
   8   0  -8    9.50    1.50
  -8   0   8    8.20    1.40
  -8   0   8    6.20    1.20
   8   0  -8   11.20    1.70
  -8   0   8    8.10    1.40
   8   0  -7   10.30    1.60
   8   0  -7   11.90    1.70
   8   0  -7   11.80    1.90
  -8   0   7   13.60    1.90
   8   0  -6    1.10    0.80
   8   0  -6    1.30    0.70
   8   0  -6    1.60    0.80
  -8   0   6    2.60    0.90
  -8   0   5   46.10    3.40
   8   0  -5   45.40    3.30
   8   0  -5   44.20    3.00
   8   0  -5   42.60    3.30
  -8   0   5   41.80    3.30
  -8   0   4  114.49    5.60
   8   0  -4  131.09    5.50
   8   0  -4  122.39    5.50
  -8   0   4  115.19    5.20
  -8   0   3   53.89    3.80
   8   0  -3   62.69    3.80
   8   0  -3   64.69    4.00
  -8   0   3   61.99    3.70
  -8   0   2   15.30    2.10
   8   0  -2   16.80    2.00
   8   0  -2   15.50    1.90
   8   0  -2   14.10    1.90
  -8   0   1   91.79    4.80
   8   0  -1   85.99    4.20
   8   0  -1   83.29    4.20
   8   0  -1   87.29    4.20
   8   0  -1   79.49    4.20
  -8   0   0   83.09    4.40
   8   0   0   74.09    3.80
   8   0   0   71.09    3.70
   8   0   0   84.59    4.30
  -8   0  -1   11.20    1.50
   8   0   1    8.80    1.40
  -8   0  -2   10.80    1.20
   8   0   2    9.70    1.20
   8   1 -11   30.10    1.90
  -8  -1  11   32.80    1.90
   8   1 -11   35.00    1.90
   8   1 -10   33.00    2.30
  -8  -1  10   36.90    2.30
  -8  -1  10   34.60    2.20
   8   1 -10   34.20    2.30
   8   1 -10   36.70    2.30
  -8  -1  10   34.90    2.30
   8   1  -9    1.10    0.80
  -8  -1   9    2.90    0.80
  -8  -1   9    1.70    0.60
   8   1  -9    1.90    0.80
   8   1  -9    2.70    0.90
  -8  -1   9    2.70    0.90
   8   1  -8    3.90    1.20
   8   1  -8    1.60    0.80
   8   1  -8    1.10    0.80
  -8  -1   8    1.10    0.80
   8   1  -7  135.09    5.50
   8   1  -7  127.99    5.10
   8   1  -7  126.69    5.20
   8   1  -7  129.99    5.40
  -8  -1   7  119.19    5.30
   8   1  -6   10.00    1.60
   8   1  -6   10.90    1.70
   8   1  -6   10.40    1.60
   8   1  -6   12.10    1.80
  -8  -1   6   10.40    1.60
  -8  -1   5  307.77    8.90
   8   1  -5  329.57    8.60
   8   1  -5  309.97    8.30
   8   1  -5  312.87    7.80
   8   1  -5  318.87    8.60
  -8  -1   5  295.07    8.20
  -8  -1   5  298.07    8.60
  -8  -1   4   10.10    1.80
   8   1  -4   13.60    1.90
   8   1  -4   12.90    1.90
   8   1  -4   12.20    1.80
  -8  -1   4   11.50    1.60
  -8  -1   3    5.00    1.40
   8   1  -3    7.60    1.30
   8   1  -3    5.40    1.20
   8   1  -3    6.90    1.40
  -8  -1   2    5.20    1.30
   8   1  -2    4.00    1.10
  -8  -1   1   20.40    2.30
   8   1  -1   24.00    2.40
  -8  -1   0    5.90    1.20
   8   1   0    6.50    1.20
  -8  -1   0    7.20    1.30
  -8  -1  -1    0.30    0.50
   8   1   1    0.20    0.50
  -8  -1  -1    0.20    0.50
  -8  -1  -1    0.10    0.60
   8   2 -11   13.90    1.30
   8   2 -11   15.10    1.30
  -8  -2  11   12.10    1.10
   8   2 -11   13.70    1.30
   8   2 -10   60.69    3.00
  -8  -2  10   55.49    2.90
   8   2  -9    8.50    1.40
   8   2  -9   10.50    1.50
  -8  -2   9    9.20    1.40
   8   2  -9   11.50    1.50
   8   2  -8    3.80    1.10
   8   2  -8    1.80    0.80
  -8  -2   8    0.90    0.80
   8   2  -8    2.20    0.80
   8   2  -7  182.08    6.30
   8   2  -7  173.58    5.70
   8   2  -7  183.78    6.10
   8   2  -7  183.08    6.00
  -8  -2   7  181.98    6.20
   8   2  -7  177.88    5.90
   8   2  -6   66.29    3.80
   8   2  -6   68.79    3.70
   8   2  -6   74.49    3.90
  -8  -2   6   71.69    3.90
   8   2  -6   68.19    3.60
   8   2  -5   11.00    1.60
   8   2  -5   12.10    1.70
   8   2  -5   11.60    1.50
   8   2  -5   10.70    1.50
  -8  -2   5   13.70    1.70
  -8  -2   5   11.40    1.70
   8   2  -4  189.78    6.30
   8   2  -4  170.48    6.00
   8   2  -4  170.38    6.00
  -8  -2   4  172.68    6.60
  -8  -2   3   91.19    4.70
   8   2  -3   90.09    4.30
   8   2  -3   82.79    4.10
  -8  -2   3   78.39    4.50
  -8  -2   2    7.00    1.40
   8   2  -2    6.90    1.20
  -8  -2   2    6.00    1.10
  -8  -2   2    5.90    1.40
  -8  -2   1   39.40    2.80
   8   2  -1   37.90    2.40
   8   2  -1   39.70    2.80
  -8  -2   1   31.50    2.50
  -8  -2   1   31.40    2.60
   8   2   0    1.30    0.60
  -8  -2   0    1.20    0.60
  -8  -2   0    0.60    0.70
  -8  -2  -1   10.40    1.10
   8   2   1   10.80    1.20
  -8  -2  -1   11.50    1.20
   8   3 -10   23.60    1.90
   8   3 -10   20.60    1.70
  -8  -3  10   24.00    1.90
   8   3 -10   22.90    1.80
   8   3  -9    0.40    0.60
   8   3  -9    0.30    0.50
  -8  -3   9    0.20    0.60
   8   3  -9    0.30    0.60
  -8  -3   8   40.40    2.60
   8   3  -8   41.10    2.70
  -8  -3   8   40.00    2.70
   8   3  -8   38.40    2.70
  -8  -3   7   20.20    2.00
   8   3  -7   23.60    2.30
   8   3  -7   20.60    2.00
  -8  -3   7   24.60    2.10
   8   3  -7   20.10    2.00
   8   3  -6   14.90    1.90
   8   3  -6   15.40    1.70
  -8  -3   6   19.20    2.00
   8   3  -6   15.60    1.80
   8   3  -5   59.79    3.50
   8   3  -5   63.19    3.30
  -8  -3   5   59.79    3.80
   8   3  -5   63.69    3.30
   8   3  -4   70.09    3.70
   8   3  -4   63.19    3.30
  -8  -3   4   59.79    3.80
   8   3  -3   47.00    3.00
  -8  -3   3   46.50    2.90
  -8  -3   3   46.20    3.30
   8   3  -2    0.20    0.70
   8   3  -2   -0.20    0.70
  -8  -3   2    0.10    0.40
  -8  -3   2   -0.90    0.80
   8   3  -1   11.80    1.30
  -8  -3   1    9.20    1.20
   8   3  -1   12.30    1.40
  -8  -3   1   12.40    1.40
  -8  -3   1   11.10    1.40
  -8  -3   0   11.00    1.20
   8   4 -10   84.79    3.10
   8   4 -10   89.49    3.10
  -8  -4  10   93.59    3.20
   8   4 -10   90.79    3.10
  -8  -4   9    9.30    1.10
   8   4  -9    8.00    1.20
   8   4  -9    7.70    1.10
  -8  -4   9    9.10    1.10
   8   4  -9    8.70    1.20
  -8  -4   8    8.30    1.20
   8   4  -8    8.20    1.30
   8   4  -8   10.40    1.40
  -8  -4   8    8.40    1.10
   8   4  -8   10.30    1.40
  -8  -4   7   -1.30    0.70
   8   4  -7    1.20    0.80
   8   4  -7    0.20    0.60
   8   4  -7   -0.50    0.70
  -8  -4   6    6.20    1.20
   8   4  -6    6.60    1.20
   8   4  -6    5.30    1.00
   8   4  -6    6.60    1.10
   8   4  -5   38.80    2.70
  -8  -4   5   37.50    2.40
   8   4  -5   40.60    2.50
   8   4  -5   37.40    2.30
  -8  -4   5   41.10    2.90
   8   4  -4   15.00    1.60
   8   4  -4   14.40    1.50
  -8  -4   4   12.80    1.70
   8   4  -3   41.00    2.50
  -8  -4   3   47.30    2.50
   8   4  -3   48.70    2.40
   8   4  -3   42.00    2.60
  -8  -4   3   42.50    2.40
  -8  -4   3   49.20    2.90
   8   4  -2   14.20    1.40
  -8  -4   2   12.00    1.30
   8   4  -2   14.70    1.40
  -8  -4   2   13.80    1.30
   8   5  -9   34.10    1.90
  -8  -5   8    6.90    0.90
   8   5  -8    5.60    1.00
   8   5  -8    5.80    0.90
  -8  -5   7   63.89    2.80
   8   5  -7   68.49    3.00
   8   5  -7   60.89    2.70
   8   5  -7   61.19    2.70
  -8  -5   6    9.40    1.20
   8   5  -6    7.40    1.10
  -8  -5   6   10.90    1.10
   8   5  -6    9.70    1.10
   8   5  -6    9.00    1.10
  -8  -5   5    0.90    0.50
   8   5  -5    0.00    0.50
  -8  -5   5    0.40    0.50
   8   5  -5    0.70    0.50
   8   5  -4   40.10    2.10
  -8  -5   4   35.50    1.90
   9  -6  -4   90.19    3.10
   9  -6  -3    6.80    1.00
   9  -6  -2    8.90    1.10
  -9   6   2    9.50    1.00
  -9   6   1   17.60    1.40
  -9   5   6   46.20    2.20
   9  -5  -6   43.80    2.30
  -9   5   6   43.70    2.10
   9  -5  -6   47.70    2.30
  -9   5   5    7.20    1.00
   9  -5  -5    8.60    1.20
  -9   5   5    7.60    1.00
   9  -5  -5    9.40    1.20
  -9   5   4    6.00    0.90
   9  -5  -4    4.70    1.00
  -9   5   4    7.00    1.00
   9  -5  -4    4.80    0.90
  -9   5   4    7.30    1.00
   9  -5  -3    3.70    1.00
  -9   5   3    3.40    0.70
   9  -5  -3    5.30    0.90
  -9   5   3    4.20    0.90
   9  -5  -2   28.80    2.20
  -9   5   2   28.80    2.10
   9  -5  -1    5.50    1.00
   9  -5  -1    5.00    0.80
  -9   5   1    5.80    1.00
   9  -5   0    4.90    0.80
   9  -5   0    4.30    0.80
  -9   5   0    4.30    0.80
  -9   4   7    1.30    0.50
   9  -4  -7    1.00    0.50
  -9   4   7    0.50    0.40
   9  -4  -7   -0.10    0.40
  -9   4   6   22.90    1.70
   9  -4  -6   25.40    2.00
  -9   4   6   21.80    1.70
   9  -4  -6   21.00    1.90
   9  -4  -6   24.60    1.70
  -9   4   5    4.10    0.90
   9  -4  -5    6.30    1.20
  -9   4   5    5.10    0.90
   9  -4  -5    6.20    1.10
  -9   4   5    6.00    1.10
   9  -4  -4   -0.30    0.80
   9  -4  -4   -0.50    0.60
  -9   4   4   -0.50    0.70
   9  -4  -3   49.50    3.10
   9  -4  -3   56.29    3.00
  -9   4   3   51.89    3.00
   9  -4  -2    5.60    1.20
  -9   4   2    6.40    1.10
  -9   4   1    6.60    1.00
   9  -4  -1    7.10    1.20
   9  -4  -1    6.00    1.00
  -9   4   1    9.30    1.30
  -9   4   0    0.40    0.40
   9  -4   0   -0.60    0.60
   9  -4   0    0.20    0.50
  -9   4   0   -0.10    0.40
   9  -4   1    0.70    0.50
   9  -4   1    0.30    0.40
  -9   3   8   12.00    1.20
  -9   3   8   12.60    1.20
   9  -3  -8   10.10    1.10
   9  -3  -8   11.30    1.20
  -9   3   7   52.39    2.60
  -9   3   7   50.99    2.60
   9  -3  -7   47.70    2.60
   9  -3  -7   49.90    2.70
  -9   3   7   48.10    2.50
  -9   3   6   18.40    1.60
   9  -3  -6   19.10    1.80
  -9   3   6   16.50    1.50
   9  -3  -6   20.80    2.00
   9  -3  -6   18.60    1.80
  -9   3   6   17.70    1.70
   9  -3  -5    2.80    0.90
   9  -3  -5    1.80    0.70
   9  -3  -5    3.00    0.90
  -9   3   5    3.00    0.90
   9  -3  -4   59.19    3.40
   9  -3  -4   59.09    3.30
   9  -3  -4   58.89    3.20
  -9   3   4   56.89    3.30
   9  -3  -3   10.60    1.50
   9  -3  -3   10.00    1.40
   9  -3  -3   10.20    1.40
  -9   3   3    9.70    1.40
  -9   3   2    7.80    1.20
   9  -3  -2    7.90    1.30
   9  -3  -2    8.10    1.20
   9  -3  -2    8.90    1.20
  -9   3   2    7.30    1.20
  -9   3   1    0.70    0.60
   9  -3  -1    0.30    0.60
   9  -3  -1    0.30    0.50
  -9   3   1    1.00    0.60
  -9   3   0    7.10    1.20
   9  -3   0    6.90    1.10
   9  -3   0    7.40    1.00
  -9   3   0    9.10    1.10
  -9   3  -1   94.69    3.40
   9  -3   1   93.69    3.30
   9  -3   1   92.39    3.00
  -9   2   9    0.70    0.40
  -9   2   9   -0.40    0.50
   9  -2  -9    0.80    0.50
   9  -2  -9    0.50    0.50
  -9   2   8    0.30    0.40
  -9   2   8    0.30    0.40
   9  -2  -8    0.00    0.50
   9  -2  -8    0.80    0.70
  -9   2   8    0.40    0.40
  -9   2   7   11.90    1.30
  -9   2   7   16.40    1.50
   9  -2  -7   16.80    1.70
   9  -2  -7   16.20    1.70
  -9   2   7   14.50    1.60
   9  -2  -6   24.30    2.10
   9  -2  -6   25.20    2.20
  -9   2   6   25.10    2.20
   9  -2  -5    4.60    1.00
   9  -2  -5    3.30    1.10
   9  -2  -5    5.40    1.20
  -9   2   5    2.90    0.90
   9  -2  -4   -0.10    0.70
   9  -2  -4    0.50    0.70
   9  -2  -4    0.30    0.50
  -9   2   4   -0.10    0.60
  -9   2   3   38.10    2.70
   9  -2  -3   37.30    2.70
   9  -2  -3   36.80    2.60
   9  -2  -3   39.10    2.70
  -9   2   3   36.30    2.70
  -9   2   2    7.20    1.30
   9  -2  -2    5.30    1.10
   9  -2  -2    6.20    1.00
   9  -2  -2    6.60    1.10
   9  -2  -2    7.40    1.20
  -9   2   2    5.80    1.10
  -9   2   1   38.50    2.70
   9  -2  -1   36.50    2.30
  -9   2   1   41.90    2.40
  -9   2   0    1.80    0.70
   9  -2   0    1.30    0.60
   9  -2   0    0.90    0.60
  -9   2  -1   20.00    1.60
   9  -2   1   16.80    1.30
  -9   1   9    5.00    0.80
  -9   1   9    3.30    0.60
   9  -1  -9    5.10    0.80
   9  -1  -9    4.30    0.90
  -9   1   9    3.80    0.70
  -9   1   8   39.50    2.10
  -9   1   8   36.70    2.10
   9  -1  -8   35.40    2.20
   9  -1  -8   34.80    2.30
   9  -1  -8   39.90    2.60
  -9   1   8   36.40    2.30
   9  -1  -7   10.10    1.40
   9  -1  -7   14.60    1.60
   9  -1  -7   14.00    1.70
  -9   1   7   14.40    1.70
   9  -1  -6  146.09    5.10
   9  -1  -6  148.19    5.40
  -9   1   6  136.49    5.10
   9  -1  -5    0.00    0.60
   9  -1  -5    0.00    0.70
  -9   1   5   -0.20    0.60
  -9   1   4    1.10    0.60
   9  -1  -4    2.60    1.00
   9  -1  -4    0.90    0.80
  -9   1   4    0.10    0.50
  -9   1   3    4.30    1.10
   9  -1  -3    4.40    1.00
   9  -1  -3    3.10    1.10
  -9   1   3    1.60    0.70
  -9   1   2    1.80    0.90
   9  -1  -2    0.60    0.70
   9  -1  -2    1.60    0.60
   9  -1  -2   -0.90    0.80
   9  -1  -2    1.70    0.80
  -9   1   2    1.50    0.70
  -9   1   1   33.30    2.50
   9  -1  -1   34.00    2.30
   9  -1  -1   34.60    2.20
  -9   1   0    0.40    0.50
   9   0  -9    5.30    0.90
   9   0  -9    4.70    0.90
  -9   0   9    4.90    0.80
   9   0  -8    4.00    0.80
   9   0  -8    4.90    1.00
   9   0  -8    6.30    1.10
  -9   0   8    5.40    1.10
   9   0  -7   33.20    2.30
   9   0  -7   36.70    2.40
   9   0  -7   32.90    2.50
  -9   0   7   32.90    2.40
   9   0  -6   11.50    1.50
   9   0  -6    9.70    1.50
  -9   0   6   11.40    1.60
   9   0  -5   11.70    1.60
   9   0  -5    8.60    1.50
  -9   0   5    9.80    1.40
  -9   0   4   60.59    3.50
   9   0  -4   57.39    3.30
   9   0  -4   62.19    3.50
  -9   0   4   64.29    3.30
  -9   0   4   57.89    3.40
  -9   0   3   18.60    2.00
   9   0  -3   18.50    1.90
   9   0  -3   20.00    2.00
  -9   0   2    5.50    1.10
   9   0  -2    6.90    1.10
  -9   0   2    6.70    1.30
  -9   0   1   41.70    2.60
   9   0  -1   36.40    2.30
  -9   0   1   39.80    2.60
  -9   0   0   31.40    1.90
  -9   0   0   29.90    1.90
   9   1  -9  157.58    4.30
   9   1  -9  154.58    4.10
  -9  -1   9  164.18    4.50
   9   1  -9  154.38    3.90
   9   1  -8   33.50    2.10
   9   1  -8   34.60    2.20
   9   1  -8   34.60    2.30
  -9  -1   8   34.40    2.30
   9   1  -7   14.50    1.50
   9   1  -7   10.80    1.30
   9   1  -7   13.20    1.50
   9   1  -7   13.20    1.50
  -9  -1   7   11.80    1.50
   9   1  -6    9.70    1.30
   9   1  -6    7.50    1.20
   9   1  -6    8.50    1.30
  -9  -1   6    6.90    1.10
   9   1  -5  135.89    4.80
   9   1  -5  142.59    5.00
  -9  -1   5  144.99    4.70
  -9  -1   5  146.49    5.10
   9   1  -4    0.70    0.70
  -9  -1   4    0.30    0.70
   9   1  -3   51.59    2.90
  -9  -1   3   51.89    3.10
   9   1  -2    0.00    0.60
  -9  -1   2   -0.40    0.60
   9   1  -1   18.20    1.50
  -9  -1   1   20.80    1.70
   9   2  -9   28.00    1.80
   9   2  -9   32.80    1.90
  -9  -2   9   31.10    1.90
   9   2  -9   29.50    1.70
   9   2  -8    0.10    0.50
   9   2  -8   -0.30    0.50
  -9  -2   8    0.30    0.40
   9   2  -8   -0.10    0.50
  -9  -2   7    1.40    0.70
   9   2  -7    1.90    0.70
   9   2  -7   -0.20    0.50
   9   2  -7    0.00    0.60
  -9  -2   7    0.40    0.50
   9   2  -6    1.20    0.60
   9   2  -6   -0.10    0.60
  -9  -2   6    0.20    0.30
   9   2  -5    9.00    1.20
   9   2  -5    8.80    1.20
  -9  -2   5    7.20    1.20
   9   2  -4   76.49    3.10
  -9  -2   4   74.99    3.60
   9   2  -3    8.10    1.20
  -9  -2   3   10.00    1.30
   9   2  -2   89.19    3.30
  -9  -2   2  100.69    3.60
   9   3  -8    0.60    0.40
   9   3  -8    0.80    0.50
  -9  -3   7   29.00    1.80
   9   3  -7   30.20    2.00
   9   3  -7   28.30    1.70
  -9  -3   6    7.70    1.00
   9   3  -6    8.10    1.10
   9   3  -5   17.60    1.50
   9   3  -4   -0.50    0.40
  -9  -3   4    1.10    0.60
  10  -2  -5  105.19    3.30
  10  -2  -5  105.89    3.20
 -10   2   5  107.89    3.30
  10  -2  -4   15.60    1.30
 -10   2   4   15.00    1.30
  10  -1  -6    1.30    0.40
  10  -1  -6    0.80    0.50
 -10   1   6    1.50    0.50
  10  -1  -5   14.70    1.30
  10  -1  -5   15.70    1.40
 -10   1   5   15.40    1.30
  10  -1  -4    4.10    0.70
   0   0   0    0.00    0.00

_computing_structure_solution     'SHELXT 2018/2 (Sheldrick, 2018)'
;
loop_
_space_group_symop_operation_xyz
'x, y, z'
'-x, -y, -z'
loop_
_atom_site_label
_atom_site_type_symbol
_atom_site_fract_x
_atom_site_fract_y
_atom_site_fract_z
_atom_site_U_iso_or_equiv
_atom_site_adp_type
_atom_site_occupancy
_atom_site_site_symmetry_order
_atom_site_calc_flag
_atom_site_refinement_flags_posn
_atom_site_refinement_flags_adp
_atom_site_refinement_flags_occupancy
_atom_site_disorder_assembly
_atom_site_disorder_group
S1 S 0.42897(5) 0.74998(4) 0.95514(4) 0.02776(13) Uani 1 1 d . . . . .
O1 O 0.58278(15) 0.84892(12) 0.61333(11) 0.0312(3) Uani 1 1 d . . . . .
O2 O 0.24347(17) 0.45286(13) 0.42096(12) 0.0384(3) Uani 1 1 d . . . . .
O3 O 0.09157(14) 0.28051(12) 0.48094(11) 0.0313(3) Uani 1 1 d . . . . .
N1 N 0.58871(16) 0.90186(14) 0.83662(13) 0.0241(3) Uani 1 1 d D . . . .
N2 N 0.43456(17) 0.64057(14) 0.69922(13) 0.0259(3) Uani 1 1 d D . . . .
C1 C 0.78337(19) 1.08993(16) 0.79635(16) 0.0240(3) Uani 1 1 d . . . . .
C2 C 0.9107(2) 1.15302(17) 0.93946(17) 0.0274(3) Uani 1 1 d . . . . .
H2 H 0.902510 1.104922 1.003690 0.033 Uiso 1 1 calc R U . . .
C3 C 1.0495(2) 1.28723(18) 0.98609(19) 0.0341(4) Uani 1 1 d . . . . .
H3 H 1.135636 1.328195 1.081110 0.041 Uiso 1 1 calc R U . . .
C4 C 1.0596(2) 1.36000(18) 0.8910(2) 0.0369(4) Uani 1 1 d . . . . .
H4 H 1.153061 1.449758 0.922111 0.044 Uiso 1 1 calc R U . . .
C5 C 0.9312(2) 1.29990(19) 0.7497(2) 0.0371(4) Uani 1 1 d . . . . .
H5 H 0.937126 1.350950 0.686857 0.045 Uiso 1 1 calc R U . . .
C6 C 0.7936(2) 1.16379(18) 0.70121(17) 0.0301(3) Uani 1 1 d . . . . .
H6 H 0.708961 1.122355 0.605722 0.036 Uiso 1 1 calc R U . . .
C7 C 0.64214(19) 0.93740(16) 0.73796(16) 0.0240(3) Uani 1 1 d . . . . .
C8 C 0.48330(18) 0.75989(16) 0.82029(15) 0.0231(3) Uani 1 1 d . . . . .
C9 C 0.3328(2) 0.48246(16) 0.67026(16) 0.0267(3) Uani 1 1 d . . . . .
H9 H 0.251469 0.491004 0.718485 0.032 Uiso 1 1 calc R U . . .
C10 C 0.21925(19) 0.40686(16) 0.50950(16) 0.0268(3) Uani 1 1 d . . . . .
C11 C -0.0242(2) 0.19127(19) 0.32983(17) 0.0341(4) Uani 1 1 d . . . . .
H11A H 0.048876 0.157055 0.279343 0.041 Uiso 1 1 calc R U . . .
H11B H -0.093019 0.256178 0.285852 0.041 Uiso 1 1 calc R U . . .
C12 C -0.1500(2) 0.0509(2) 0.3227(2) 0.0421(4) Uani 1 1 d . . . . .
H12A H -0.229608 -0.010463 0.224172 0.063 Uiso 1 1 calc R U . . .
H12B H -0.220676 0.086364 0.373689 0.063 Uiso 1 1 calc R U . . .
H12C H -0.080314 -0.012834 0.365584 0.063 Uiso 1 1 calc R U . . .
C13 C 0.4585(2) 0.38273(18) 0.72445(18) 0.0373(4) Uani 1 1 d . . . . .
H13A H 0.387471 0.278342 0.700561 0.056 Uiso 1 1 calc R U . . .
H13B H 0.525739 0.430600 0.826769 0.056 Uiso 1 1 calc R U . . .
H13C H 0.541315 0.376581 0.680090 0.056 Uiso 1 1 calc R U . . .
H1A H 0.607(2) 0.9762(19) 0.9107(17) 0.031(5) Uiso 1 1 d D . . . .
H2A H 0.463(3) 0.657(2) 0.6367(19) 0.046(6) Uiso 1 1 d D . . . .
loop_
_atom_site_aniso_label
_atom_site_aniso_U_11
_atom_site_aniso_U_22
_atom_site_aniso_U_33
_atom_site_aniso_U_23
_atom_site_aniso_U_13
_atom_site_aniso_U_12
S1 0.0355(2) 0.02278(19) 0.0241(2) 0.00528(14) 0.01644(17) 0.00021(14)
O1 0.0379(6) 0.0284(5) 0.0241(6) 0.0053(4) 0.0157(5) 0.0001(4)
O2 0.0488(7) 0.0328(6) 0.0270(6) 0.0111(5) 0.0117(5) 0.0016(5)
O3 0.0285(5) 0.0291(5) 0.0251(6) 0.0014(4) 0.0090(4) -0.0025(4)
N1 0.0278(6) 0.0198(6) 0.0223(6) 0.0036(5) 0.0129(5) 0.0005(5)
N2 0.0314(7) 0.0217(6) 0.0229(7) 0.0051(5) 0.0142(5) 0.0003(5)
C1 0.0242(7) 0.0220(6) 0.0291(8) 0.0081(6) 0.0154(6) 0.0061(5)
C2 0.0281(7) 0.0253(7) 0.0300(8) 0.0101(6) 0.0140(6) 0.0057(6)
C3 0.0281(8) 0.0289(8) 0.0382(9) 0.0066(7) 0.0121(7) 0.0025(6)
C4 0.0335(8) 0.0254(7) 0.0530(11) 0.0117(7) 0.0235(8) 0.0015(6)
C5 0.0422(9) 0.0339(8) 0.0492(10) 0.0237(8) 0.0277(8) 0.0094(7)
C6 0.0323(8) 0.0314(8) 0.0316(8) 0.0140(6) 0.0168(7) 0.0081(6)
C7 0.0244(7) 0.0233(7) 0.0258(7) 0.0088(6) 0.0120(6) 0.0065(5)
C8 0.0214(6) 0.0227(6) 0.0239(7) 0.0074(6) 0.0095(6) 0.0037(5)
C9 0.0298(7) 0.0219(7) 0.0236(7) 0.0041(6) 0.0119(6) -0.0012(6)
C10 0.0282(7) 0.0227(7) 0.0268(8) 0.0064(6) 0.0108(6) 0.0063(6)
C11 0.0284(8) 0.0347(8) 0.0257(8) 0.0019(7) 0.0046(6) 0.0054(6)
C12 0.0333(9) 0.0328(8) 0.0395(10) 0.0039(7) 0.0029(7) -0.0003(7)
C13 0.0427(9) 0.0270(7) 0.0294(9) 0.0090(7) 0.0047(7) 0.0019(7)
loop_
_atom_type_symbol
_atom_type_description
_atom_type_scat_dispersion_real
_atom_type_scat_dispersion_imag
_atom_type_scat_source
C C 0.0181 0.0091 'International Tables Vol C Tables 4.2.6.8 and 6.1.1.4'
H H 0.0000 0.0000 'International Tables Vol C Tables 4.2.6.8 and 6.1.1.4'
N N 0.0311 0.0180 'International Tables Vol C Tables 4.2.6.8 and 6.1.1.4'
O O 0.0492 0.0322 'International Tables Vol C Tables 4.2.6.8 and 6.1.1.4'
S S 0.3331 0.5567 'International Tables Vol C Tables 4.2.6.8 and 6.1.1.4'
loop_
_geom_angle_atom_site_label_1
_geom_angle_atom_site_label_2
_geom_angle_atom_site_label_3
_geom_angle
_geom_angle_site_symmetry_1
_geom_angle_site_symmetry_3
C10 O3 C11 116.18(12) . .
C7 N1 C8 127.84(12) . .
C7 N1 H1A 117.7(13) . .
C8 N1 H1A 113.8(13) . .
C8 N2 C9 123.24(12) . .
C8 N2 H2A 118.1(14) . .
C9 N2 H2A 118.6(14) . .
C6 C1 C2 119.87(13) . .
C6 C1 C7 117.95(13) . .
C2 C1 C7 122.02(13) . .
C3 C2 C1 120.12(14) . .
C3 C2 H2 119.9 . .
C1 C2 H2 119.9 . .
C4 C3 C2 119.81(16) . .
C4 C3 H3 120.1 . .
C2 C3 H3 120.1 . .
C3 C4 C5 120.29(15) . .
C3 C4 H4 119.9 . .
C5 C4 H4 119.9 . .
C4 C5 C6 120.35(15) . .
C4 C5 H5 119.8 . .
C6 C5 H5 119.8 . .
C5 C6 C1 119.53(15) . .
C5 C6 H6 120.2 . .
C1 C6 H6 120.2 . .
O1 C7 N1 122.71(13) . .
O1 C7 C1 122.29(13) . .
N1 C7 C1 114.97(12) . .
N2 C8 N1 117.07(12) . .
N2 C8 S1 124.52(11) . .
N1 C8 S1 118.41(10) . .
N2 C9 C10 107.64(12) . .
N2 C9 C13 111.64(12) . .
C10 C9 C13 110.85(12) . .
N2 C9 H9 108.9 . .
C10 C9 H9 108.9 . .
C13 C9 H9 108.9 . .
O2 C10 O3 125.23(14) . .
O2 C10 C9 124.98(13) . .
O3 C10 C9 109.78(12) . .
O3 C11 C12 107.10(14) . .
O3 C11 H11A 110.3 . .
C12 C11 H11A 110.3 . .
O3 C11 H11B 110.3 . .
C12 C11 H11B 110.3 . .
H11A C11 H11B 108.6 . .
C11 C12 H12A 109.5 . .
C11 C12 H12B 109.5 . .
H12A C12 H12B 109.5 . .
C11 C12 H12C 109.5 . .
H12A C12 H12C 109.5 . .
H12B C12 H12C 109.5 . .
C9 C13 H13A 109.5 . .
C9 C13 H13B 109.5 . .
H13A C13 H13B 109.5 . .
C9 C13 H13C 109.5 . .
H13A C13 H13C 109.5 . .
H13B C13 H13C 109.5 . .
loop_
_geom_bond_atom_site_label_1
_geom_bond_atom_site_label_2
_geom_bond_distance
_geom_bond_site_symmetry_2
S1 C8 1.6806(14) .
O1 C7 1.2202(18) .
O2 C10 1.2052(19) .
O3 C10 1.3306(17) .
O3 C11 1.4551(18) .
N1 C7 1.3806(19) .
N1 C8 1.3876(17) .
N1 H1A 0.834(14) .
N2 C8 1.3210(18) .
N2 C9 1.4561(17) .
N2 H2A 0.830(15) .
C1 C6 1.389(2) .
C1 C2 1.395(2) .
C1 C7 1.4933(18) .
C2 C3 1.386(2) .
C2 H2 0.9300 .
C3 C4 1.382(2) .
C3 H3 0.9300 .
C4 C5 1.384(3) .
C4 H4 0.9300 .
C5 C6 1.388(2) .
C5 H5 0.9300 .
C6 H6 0.9300 .
C9 C10 1.516(2) .
C9 C13 1.527(2) .
C9 H9 0.9800 .
C11 C12 1.500(2) .
C11 H11A 0.9700 .
C11 H11B 0.9700 .
C12 H12A 0.9600 .
C12 H12B 0.9600 .
C12 H12C 0.9600 .
C13 H13A 0.9600 .
C13 H13B 0.9600 .
C13 H13C 0.9600 .
