#------------------------------------------------------------------------------
#$Date: 2022-02-09 11:59:13 +0200 (Wed, 09 Feb 2022) $
#$Revision: 272873 $
#$URL: file:///home/coder/svn-repositories/cod/cif/8/10/45/8104553.cif $
#------------------------------------------------------------------------------
#
# This file is available in the Crystallography Open Database (COD),
# http://www.crystallography.net/
#
# All data on this site have been placed in the public domain by the
# contributors.
#
data_8104553
loop_
_publ_author_name
'Zhang, Wei'
'Zhang, Yu'
'Feng, Song-Hao'
'Wang, Jing-Jing'
_publ_section_title
;
 The crystal structure of 5-chloro-2-(quinolin-8-yl)isoindoline-1,3-dione,
 C17H9ClN2O2
;
_journal_issue                   6
_journal_name_full
'Zeitschrift f\"ur Kristallographie - New Crystal Structures'
_journal_page_first              1155
_journal_page_last               1156
_journal_paper_doi               10.1515/ncrs-2021-0256
_journal_volume                  236
_journal_year                    2021
_chemical_formula_moiety         'C17 H9 Cl N2 O2'
_chemical_formula_sum            'C17 H9 Cl N2 O2'
_chemical_formula_weight         308.71
_space_group_crystal_system      triclinic
_space_group_IT_number           2
_space_group_name_Hall           '-P 1'
_space_group_name_H-M_alt        'P -1'
_atom_sites_solution_hydrogens   geom
_cell_angle_alpha                74.627(6)
_cell_angle_beta                 78.654(5)
_cell_angle_gamma                63.569(5)
_cell_formula_units_Z            2
_cell_length_a                   7.8944(4)
_cell_length_b                   8.0678(5)
_cell_length_c                   12.6285(9)
_cell_measurement_reflns_used    2560
_cell_measurement_temperature    293(2)
_cell_measurement_theta_max      73.2800
_cell_measurement_theta_min      6.2390
_cell_volume                     691.58(8)
_computing_cell_refinement
'CrysAlisPro 1.171.38.46 (Rigaku OD, 2015) [1]'
_computing_data_collection
'CrysAlisPro 1.171.38.46 (Rigaku OD, 2015) [1]'
_computing_data_reduction
'CrysAlisPro 1.171.38.46 (Rigaku OD, 2015) [1]'
_computing_molecular_graphics    'Olex2 (Dolomanov et al., 2009) [2]'
_computing_publication_material  'Olex2 (Dolomanov et al., 2009) [2]'
_computing_structure_refinement  'ShelXL (Sheldrick, 2015) [3]'
_computing_structure_solution    'SHELXT 2018/2 (Sheldrick, 2018) [4]'
_diffrn_ambient_temperature      293(2)
_diffrn_detector                 'CCD plate'
_diffrn_detector_area_resol_mean 5.3031
_diffrn_detector_type            AtlasS2
_diffrn_measured_fraction_theta_full 0.998
_diffrn_measured_fraction_theta_max 0.963
_diffrn_measurement_details
;
List of Runs (angles in degrees, time in seconds):

  # Type    Start    End  Width  t~exp~   \w     \q     \k     \f   Frames
--------------------------------------------------------------------------
  1  \w    -62.00  29.00   1.00    2.00    --  -40.30  57.00 -30.00   91
  2  \w     16.00  43.00   1.00    2.00    --   40.30 -99.00  90.00   27
  3  \w     51.00  77.00   1.00    2.00    --   40.30 -99.00  90.00   26
  4  \w     59.00  86.00   1.00    2.00    --   40.30-125.00   0.00   27
  5  \w     31.00  60.00   1.00    8.00    --  107.14 -95.00 -60.00   29
  6  \w     75.00 103.00   1.00    8.00    --  107.14 -95.00 -60.00   28
  7  \w     58.00  85.00   1.00    8.00    --  107.14 -61.00  30.00   27
  8  \w     46.00 133.00   1.00    8.00    --  107.14 -30.00 -60.00   87
  9  \w    103.00 173.00   1.00    8.00    --  107.14  45.00 -30.00   70
 10  \w    125.00 172.00   1.00    8.00    --  107.14 125.00 -60.00   47
 11  \w    134.00 178.00   1.00    8.00    --  107.14 125.00-180.00   44
 12  \w    107.00 149.00   1.00    8.00    --  107.14 125.00 -90.00   42
 13  \w     28.00 152.00   1.00    8.00    --  107.14 -15.00 150.00  124
 14  \w     34.00 121.00   1.00    8.00    --  107.14-125.00 150.00   87
 15  \w     50.00 123.00   1.00    8.00    --  107.14 -61.00 -90.00   73
 16  \w     37.00  95.00   1.00    8.00    --  107.14 -95.00-120.00   58
 17  \w   -103.00 -12.00   1.00    2.00    --  -40.30 -57.00  60.00   91
 18  \w   -109.00 -17.00   1.00    2.00    --  -40.30 -57.00-180.00   92
;
_diffrn_measurement_device       'four-circle diffractometer'
_diffrn_measurement_device_type  'SuperNova, Dual, Cu at zero, AtlasS2'
_diffrn_measurement_method       '\w scans'
_diffrn_orient_matrix_type
'CrysAlisPro convention (1999,Acta A55,543-557)'
_diffrn_orient_matrix_UB_11      -0.0241956000
_diffrn_orient_matrix_UB_12      0.0447850000
_diffrn_orient_matrix_UB_13      -0.1239448000
_diffrn_orient_matrix_UB_21      -0.0479854000
_diffrn_orient_matrix_UB_22      -0.1711258000
_diffrn_orient_matrix_UB_23      0.0167874000
_diffrn_orient_matrix_UB_31      -0.2121372000
_diffrn_orient_matrix_UB_32      0.1269680000
_diffrn_orient_matrix_UB_33      0.0222896000
_diffrn_radiation_monochromator  mirror
_diffrn_radiation_probe          x-ray
_diffrn_radiation_type           CuK\a
_diffrn_radiation_wavelength     1.54184
_diffrn_reflns_av_R_equivalents  0.0117
_diffrn_reflns_av_unetI/netI     0.0162
_diffrn_reflns_Laue_measured_fraction_full 0.998
_diffrn_reflns_Laue_measured_fraction_max 0.963
_diffrn_reflns_limit_h_max       6
_diffrn_reflns_limit_h_min       -9
_diffrn_reflns_limit_k_max       10
_diffrn_reflns_limit_k_min       -9
_diffrn_reflns_limit_l_max       15
_diffrn_reflns_limit_l_min       -14
_diffrn_reflns_number            4378
_diffrn_reflns_point_group_measured_fraction_full 0.998
_diffrn_reflns_point_group_measured_fraction_max 0.963
_diffrn_reflns_theta_full        67.684
_diffrn_reflns_theta_max         73.600
_diffrn_reflns_theta_min         3.645
_diffrn_source                   'micro-focus sealed X-ray tube'
_diffrn_source_type              'SuperNova (Cu) X-ray Source'
_exptl_absorpt_coefficient_mu    2.524
_exptl_absorpt_correction_T_max  1.00000
_exptl_absorpt_correction_T_min  0.72359
_exptl_absorpt_correction_type   multi-scan
_exptl_absorpt_process_details
;
CrysAlisPro 1.171.38.46 (Rigaku Oxford Diffraction, 2015)
Empirical absorption correction using spherical harmonics,
 implemented in SCALE3 ABSPACK scaling algorithm.
;
_exptl_crystal_colour            colourless
_exptl_crystal_colour_primary    colourless
_exptl_crystal_density_diffrn    1.482
_exptl_crystal_description       block
_exptl_crystal_F_000             316
_exptl_crystal_size_max          0.21
_exptl_crystal_size_mid          0.15
_exptl_crystal_size_min          0.11
_refine_diff_density_max         0.279
_refine_diff_density_min         -0.414
_refine_diff_density_rms         0.044
_refine_ls_extinction_coef       .
_refine_ls_extinction_method     none
_refine_ls_goodness_of_fit_ref   1.074
_refine_ls_hydrogen_treatment    constr
_refine_ls_matrix_type           full
_refine_ls_number_parameters     199
_refine_ls_number_reflns         2684
_refine_ls_number_restraints     0
_refine_ls_restrained_S_all      1.074
_refine_ls_R_factor_all          0.0447
_refine_ls_R_factor_gt           0.0431
_refine_ls_shift/su_max          0.000
_refine_ls_shift/su_mean         0.000
_refine_ls_structure_factor_coef Fsqd
_refine_ls_weighting_details
'w=1/[\s^2^(Fo^2^)+(0.0778P)^2^+0.1512P] where P=(Fo^2^+2Fc^2^)/3'
_refine_ls_weighting_scheme      calc
_refine_ls_wR_factor_gt          0.1292
_refine_ls_wR_factor_ref         0.1309
_reflns_Friedel_coverage         0.000
_reflns_Friedel_fraction_full    .
_reflns_Friedel_fraction_max     .
_reflns_number_gt                2519
_reflns_number_total             2684
_reflns_threshold_expression     'I > 2\s(I)'
_iucr_refine_instructions_details
;
TITL sxj-20180530-s-18_a.res in P-1
    1.res
    created by SHELXL-2018/3 at 14:51:05 on 13-May-2021
REM Old TITL SXJ-20180530-S-18 in P-1
REM SHELXT solution in P-1: R1 0.207, Rweak 0.012, Alpha 0.028
REM <I/s> 0.000 for 0 systematic absences, Orientation as input
REM Formula found by SHELXT: C17 N2 O3
CELL 1.54184 7.8944 8.0678 12.6285 74.627 78.654 63.569
ZERR 2 0.0004 0.0005 0.0009 0.006 0.005 0.005
LATT 1
SFAC C H Cl N O
UNIT 34 18 2 4 4

L.S. 10
PLAN  20
SIZE 0.21 0.15 0.11
BOND
list 4
fmap 2
acta
REM <olex2.extras>
REM <HklSrc "%.\\1.hkl">
REM </olex2.extras>

WGHT    0.077800    0.151200
FVAR       0.89864
CL1   3   -0.093941    0.822223    0.744065    11.00000    0.07613    0.08075 =
         0.04805   -0.02294    0.01087   -0.03224
O1    5    0.097889    0.649677    0.219444    11.00000    0.05299    0.07856 =
         0.05336   -0.02609   -0.00445   -0.02908
O2    5    0.516860    0.698824    0.399646    11.00000    0.04448    0.09819 =
         0.06903   -0.03152    0.00140   -0.03781
N1    4    0.344519    0.658485    0.287824    11.00000    0.03882    0.05015 =
         0.04647   -0.01837    0.00253   -0.01853
N2    4    0.526337    0.293366    0.249584    11.00000    0.05045    0.04823 =
         0.04985   -0.00993   -0.00330   -0.02196
C1    1    0.067827    0.710675    0.402404    11.00000    0.03936    0.04071 =
         0.04420   -0.00942   -0.00277   -0.01697
C2    1    0.195654    0.723549    0.457316    11.00000    0.03819    0.04232 =
         0.04455   -0.01087   -0.00218   -0.01659
C3    1    0.569812    0.429666    0.175978    11.00000    0.03720    0.04750 =
         0.04126   -0.01191   -0.00312   -0.01686
C4    1    0.160884    0.669000    0.292571    11.00000    0.04111    0.04503 =
         0.04597   -0.01311   -0.00309   -0.01794
C5    1    0.374687    0.693417    0.383652    11.00000    0.03964    0.04837 =
         0.04892   -0.01452   -0.00261   -0.01839
C6    1    0.482211    0.617246    0.195312    11.00000    0.04037    0.04757 =
         0.04425   -0.01319    0.00007   -0.01815
C7    1    0.699994    0.394204    0.081100    11.00000    0.03802    0.05502 =
         0.04640   -0.01671   -0.00270   -0.01537
C8    1    0.151603    0.757775    0.562764    11.00000    0.04755    0.05092 =
         0.04712   -0.01296   -0.00584   -0.02000
AFIX  43
H8    2    0.237623    0.766199    0.599639    11.00000   -1.20000
AFIX   0
C9    1   -0.029394    0.778962    0.610702    11.00000    0.05077    0.04565 =
         0.04419   -0.01140    0.00413   -0.01838
C10   1   -0.159643    0.766641    0.557467    11.00000    0.04192    0.05248 =
         0.05512   -0.01254    0.00647   -0.02015
AFIX  43
H10   2   -0.278957    0.781186    0.592914    11.00000   -1.20000
AFIX   0
C11   1   -0.111620    0.732432    0.450757    11.00000    0.04020    0.05400 =
         0.05536   -0.01225   -0.00268   -0.02219
AFIX  43
H11   2   -0.197367    0.724525    0.413400    11.00000   -1.20000
AFIX   0
C12   1    0.529009    0.755568    0.127758    11.00000    0.05804    0.04841 =
         0.05989   -0.01417    0.00418   -0.02369
AFIX  43
H12   2    0.473255    0.876498    0.142816    11.00000   -1.20000
AFIX   0
C13   1    0.743083    0.540706    0.011057    11.00000    0.04805    0.07057 =
         0.04682   -0.01591    0.00611   -0.02528
AFIX  43
H13   2    0.827275    0.517372   -0.051652    11.00000   -1.20000
AFIX   0
C14   1    0.785414    0.206422    0.063395    11.00000    0.04649    0.06185 =
         0.06396   -0.02941    0.00114   -0.01409
AFIX  43
H14   2    0.869949    0.176299    0.001588    11.00000   -1.20000
AFIX   0
C15   1    0.612821    0.121104    0.229118    11.00000    0.05953    0.04751 =
         0.06685   -0.00986   -0.00759   -0.02206
AFIX  43
H15   2    0.585777    0.026217    0.278956    11.00000   -1.20000
AFIX   0
C16   1    0.661840    0.716535    0.034850    11.00000    0.06703    0.06287 =
         0.05653   -0.00594    0.00646   -0.03603
AFIX  43
H16   2    0.694102    0.811649   -0.010451    11.00000   -1.20000
AFIX   0
C17   1    0.742828    0.071089    0.137337    11.00000    0.05750    0.04997 =
         0.07986   -0.02579   -0.00610   -0.01403
AFIX  43
H17   2    0.798944   -0.053042    0.127378    11.00000   -1.20000
AFIX   0
HKLF 4




REM  sxj-20180530-s-18_a.res in P-1
REM wR2 = 0.1309, GooF = S = 1.074, Restrained GooF = 1.074 for all data
REM R1 = 0.0431 for 2519 Fo > 4sig(Fo) and 0.0447 for all 2684 data
REM 199 parameters refined using 0 restraints

END  
     
WGHT      0.0778      0.1512 

REM Highest difference peak  0.279,  deepest hole -0.414,  1-sigma level  0.044
Q1    1  -0.3526  0.8632  0.6026  11.00000  0.05    0.28
Q2    1  -0.3240  0.8287  0.6197  11.00000  0.05    0.27
Q3    1   0.2793  0.7342  0.4235  11.00000  0.05    0.22
Q4    1   0.1315  0.7135  0.4340  11.00000  0.05    0.21
Q5    1   0.0449  0.7928  0.5844  11.00000  0.05    0.19
Q6    1   0.0919  0.6943  0.3508  11.00000  0.05    0.17
Q7    1   0.6021  0.6950  0.3687  11.00000  0.05    0.16
Q8    1   0.3966  0.6529  0.2436  11.00000  0.05    0.16
Q9    1   0.6198  0.4202  0.1252  11.00000  0.05    0.15
Q10   1  -0.0941  0.8185  0.5614  11.00000  0.05    0.15
Q11   1   0.7621  0.4622  0.0634  11.00000  0.05    0.15
Q12   1  -0.0731  0.7555  0.5773  11.00000  0.05    0.15
Q13   1   0.0250  0.7174  0.4177  11.00000  0.05    0.14
Q14   1   0.8057  0.1389  0.1217  11.00000  0.05    0.14
Q15   1   0.7271  0.0867  0.1983  11.00000  0.05    0.14
Q16   1   0.5783  0.3575  0.2218  11.00000  0.05    0.13
Q17   1   0.4733  0.3060  0.3213  11.00000  0.05    0.13
Q18   1   0.4525  0.6901  0.1357  11.00000  0.05    0.13
Q19   1  -0.1306  0.7152  0.5147  11.00000  0.05    0.13
Q20   1   0.2517  0.6989  0.2785  11.00000  0.05    0.13

  REM The information below was added by Olex2.
  REM
  REM R1 = 0.0431 for 2519 Fo > 4sig(Fo) and 0.0447 for all 4378 data
  REM n/a parameters refined using n/a restraints
  REM Highest difference peak 0.28, deepest hole -0.41
  REM Mean Shift 0, Max Shift 0.000.

  REM +++ Tabular Listing of Refinement Information +++
  REM R1_all = 0.0447
  REM R1_gt = 0.0431
  REM wR_ref = 0.1309
  REM GOOF = 1.074
  REM Shift_max = 0.000
  REM Shift_mean = 0
  REM Reflections_all = 4378
  REM Reflections_gt = 2519
  REM Parameters = n/a
  REM Hole = -0.41
  REM Peak = 0.28
  REM Flack = n/a

  
;
_cod_data_source_file            suppl_j_ncrs-2021-0256_suppl.cif
_cod_data_source_block           1
_cod_database_code               8104553
_chemical_oxdiff_formula         'C H O N'
_shelx_space_group_comment
;
The symmetry employed for this shelxl refinement is uniquely defined
by the following loop, which should always be used as a source of
symmetry information in preference to the above space-group names.
They are only intended as comments.
;
_shelx_estimated_absorpt_t_max   0.769
_shelx_estimated_absorpt_t_min   0.619
_reflns_odcompleteness_completeness 99.96
_reflns_odcompleteness_iscentric 1
_reflns_odcompleteness_theta     66.97
_olex2_refinement_description
;
1. Fixed Uiso
 At 1.2 times of:
  All C(H) groups
2.a Aromatic/amide H refined with riding coordinates:
 C8(H8), C10(H10), C11(H11), C12(H12), C13(H13), C14(H14), C15(H15), C16(H16),
 C17(H17)
;
_olex2_submission_special_instructions 'No special instructions were received'
_oxdiff_exptl_absorpt_empirical_details
;
Empirical correction (ABSPACK) includes:
- Absorption correction using spherical harmonics
- Frame scaling
;
_oxdiff_exptl_absorpt_empirical_full_max 1.354
_oxdiff_exptl_absorpt_empirical_full_min 0.715
loop_
_space_group_symop_operation_xyz
'x, y, z'
'-x, -y, -z'
loop_
_atom_site_label
_atom_site_type_symbol
_atom_site_fract_x
_atom_site_fract_y
_atom_site_fract_z
_atom_site_U_iso_or_equiv
_atom_site_adp_type
_atom_site_occupancy
_atom_site_site_symmetry_order
_atom_site_calc_flag
_atom_site_refinement_flags_posn
_atom_site_refinement_flags_adp
_atom_site_refinement_flags_occupancy
_atom_site_disorder_assembly
_atom_site_disorder_group
Cl1 Cl -0.09394(8) 0.82222(8) 0.74406(4) 0.0689(2) Uani 1 1 d . . . . .
O1 O 0.09789(19) 0.6497(2) 0.21944(12) 0.0584(4) Uani 1 1 d . . . . .
O2 O 0.51686(19) 0.6988(2) 0.39965(13) 0.0654(4) Uani 1 1 d . . . . .
N1 N 0.34452(19) 0.6585(2) 0.28782(12) 0.0443(3) Uani 1 1 d . . . . .
N2 N 0.5263(2) 0.2934(2) 0.24958(13) 0.0492(4) Uani 1 1 d . . . . .
C1 C 0.0678(2) 0.7107(2) 0.40240(14) 0.0413(3) Uani 1 1 d . . . . .
C2 C 0.1957(2) 0.7235(2) 0.45732(14) 0.0415(4) Uani 1 1 d . . . . .
C3 C 0.5698(2) 0.4297(2) 0.17598(14) 0.0417(4) Uani 1 1 d . . . . .
C4 C 0.1609(2) 0.6690(2) 0.29257(14) 0.0433(4) Uani 1 1 d . . . . .
C5 C 0.3747(2) 0.6934(2) 0.38365(15) 0.0448(4) Uani 1 1 d . . . . .
C6 C 0.4822(2) 0.6172(2) 0.19531(14) 0.0439(4) Uani 1 1 d . . . . .
C7 C 0.7000(2) 0.3942(3) 0.08110(15) 0.0468(4) Uani 1 1 d . . . . .
C8 C 0.1516(2) 0.7578(3) 0.56276(15) 0.0478(4) Uani 1 1 d . . . . .
H8 H 0.237623 0.766199 0.599639 0.057 Uiso 1 1 calc R . . . .
C9 C -0.0294(3) 0.7790(2) 0.61070(15) 0.0483(4) Uani 1 1 d . . . . .
C10 C -0.1596(3) 0.7666(3) 0.55747(16) 0.0510(4) Uani 1 1 d . . . . .
H10 H -0.278957 0.781186 0.592914 0.061 Uiso 1 1 calc R . . . .
C11 C -0.1116(2) 0.7324(3) 0.45076(16) 0.0489(4) Uani 1 1 d . . . . .
H11 H -0.197367 0.724525 0.413400 0.059 Uiso 1 1 calc R . . . .
C12 C 0.5290(3) 0.7556(3) 0.12776(17) 0.0556(4) Uani 1 1 d . . . . .
H12 H 0.473255 0.876498 0.142816 0.067 Uiso 1 1 calc R . . . .
C13 C 0.7431(3) 0.5407(3) 0.01106(16) 0.0557(5) Uani 1 1 d . . . . .
H13 H 0.827275 0.517372 -0.051652 0.067 Uiso 1 1 calc R . . . .
C14 C 0.7854(3) 0.2064(3) 0.06340(18) 0.0581(5) Uani 1 1 d . . . . .
H14 H 0.869949 0.176299 0.001588 0.070 Uiso 1 1 calc R . . . .
C15 C 0.6128(3) 0.1211(3) 0.22912(19) 0.0581(5) Uani 1 1 d . . . . .
H15 H 0.585777 0.026217 0.278956 0.070 Uiso 1 1 calc R . . . .
C16 C 0.6618(3) 0.7165(3) 0.03485(18) 0.0619(5) Uani 1 1 d . . . . .
H16 H 0.694102 0.811649 -0.010451 0.074 Uiso 1 1 calc R . . . .
C17 C 0.7428(3) 0.0711(3) 0.1373(2) 0.0630(5) Uani 1 1 d . . . . .
H17 H 0.798944 -0.053042 0.127378 0.076 Uiso 1 1 calc R . . . .
loop_
_atom_site_aniso_label
_atom_site_aniso_U_11
_atom_site_aniso_U_22
_atom_site_aniso_U_33
_atom_site_aniso_U_23
_atom_site_aniso_U_13
_atom_site_aniso_U_12
Cl1 0.0761(4) 0.0808(4) 0.0480(3) -0.0229(2) 0.0109(2) -0.0322(3)
O1 0.0530(7) 0.0786(9) 0.0534(7) -0.0261(7) -0.0044(6) -0.0291(7)
O2 0.0445(7) 0.0982(11) 0.0690(9) -0.0315(8) 0.0014(6) -0.0378(7)
N1 0.0388(7) 0.0501(8) 0.0465(8) -0.0184(6) 0.0025(6) -0.0185(6)
N2 0.0504(8) 0.0482(8) 0.0498(8) -0.0099(6) -0.0033(6) -0.0220(6)
C1 0.0394(8) 0.0407(8) 0.0442(8) -0.0094(6) -0.0028(6) -0.0170(6)
C2 0.0382(8) 0.0423(8) 0.0445(8) -0.0109(6) -0.0022(6) -0.0166(6)
C3 0.0372(8) 0.0475(8) 0.0413(8) -0.0119(6) -0.0031(6) -0.0169(6)
C4 0.0411(8) 0.0450(8) 0.0460(9) -0.0131(6) -0.0031(7) -0.0179(7)
C5 0.0396(8) 0.0484(9) 0.0489(9) -0.0145(7) -0.0026(7) -0.0184(7)
C6 0.0404(8) 0.0476(9) 0.0443(9) -0.0132(7) 0.0001(6) -0.0181(7)
C7 0.0380(8) 0.0550(9) 0.0464(9) -0.0167(7) -0.0027(7) -0.0154(7)
C8 0.0475(9) 0.0509(9) 0.0471(9) -0.0130(7) -0.0058(7) -0.0200(7)
C9 0.0508(9) 0.0457(9) 0.0442(9) -0.0114(7) 0.0041(7) -0.0184(7)
C10 0.0419(8) 0.0525(9) 0.0551(10) -0.0125(8) 0.0065(7) -0.0201(7)
C11 0.0402(8) 0.0540(9) 0.0554(10) -0.0123(8) -0.0027(7) -0.0222(7)
C12 0.0580(10) 0.0484(9) 0.0599(11) -0.0142(8) 0.0042(8) -0.0237(8)
C13 0.0480(9) 0.0706(12) 0.0468(10) -0.0159(8) 0.0061(8) -0.0253(9)
C14 0.0465(10) 0.0618(11) 0.0640(12) -0.0294(9) 0.0011(8) -0.0141(8)
C15 0.0595(11) 0.0475(10) 0.0668(12) -0.0099(8) -0.0076(9) -0.0221(8)
C16 0.0670(12) 0.0629(11) 0.0565(11) -0.0059(9) 0.0065(9) -0.0360(10)
C17 0.0575(11) 0.0500(10) 0.0799(14) -0.0258(10) -0.0061(10) -0.0140(8)
loop_
_atom_type_symbol
_atom_type_description
_atom_type_scat_dispersion_real
_atom_type_scat_dispersion_imag
_atom_type_scat_source
C C 0.0181 0.0091 'International Tables Vol C Tables 4.2.6.8 and 6.1.1.4'
H H 0.0000 0.0000 'International Tables Vol C Tables 4.2.6.8 and 6.1.1.4'
Cl Cl 0.3639 0.7018 'International Tables Vol C Tables 4.2.6.8 and 6.1.1.4'
N N 0.0311 0.0180 'International Tables Vol C Tables 4.2.6.8 and 6.1.1.4'
O O 0.0492 0.0322 'International Tables Vol C Tables 4.2.6.8 and 6.1.1.4'
loop_
_geom_angle_atom_site_label_1
_geom_angle_atom_site_label_2
_geom_angle_atom_site_label_3
_geom_angle
_geom_angle_site_symmetry_1
_geom_angle_site_symmetry_3
C4 N1 C6 123.38(14) . .
C5 N1 C4 111.90(14) . .
C5 N1 C6 124.71(14) . .
C15 N2 C3 116.65(17) . .
C2 C1 C4 108.37(14) . .
C11 C1 C2 121.46(16) . .
C11 C1 C4 130.16(15) . .
C1 C2 C5 108.37(14) . .
C8 C2 C1 122.10(15) . .
C8 C2 C5 129.53(15) . .
N2 C3 C6 118.76(15) . .
N2 C3 C7 123.38(16) . .
C7 C3 C6 117.86(16) . .
O1 C4 N1 124.94(16) . .
O1 C4 C1 129.34(16) . .
N1 C4 C1 105.71(14) . .
O2 C5 N1 125.54(17) . .
O2 C5 C2 128.83(17) . .
N1 C5 C2 105.62(14) . .
C3 C6 N1 118.97(15) . .
C12 C6 N1 120.11(16) . .
C12 C6 C3 120.92(16) . .
C3 C7 C14 116.90(17) . .
C13 C7 C3 120.13(16) . .
C13 C7 C14 122.95(17) . .
C2 C8 C9 115.91(16) . .
C8 C9 Cl1 118.20(14) . .
C10 C9 Cl1 118.75(14) . .
C10 C9 C8 123.05(17) . .
C9 C10 C11 119.87(16) . .
C1 C11 C10 117.62(16) . .
C6 C12 C16 120.32(18) . .
C16 C13 C7 120.18(17) . .
C17 C14 C7 119.46(19) . .
N2 C15 C17 124.55(19) . .
C13 C16 C12 120.51(18) . .
C14 C17 C15 119.04(18) . .
loop_
_geom_bond_atom_site_label_1
_geom_bond_atom_site_label_2
_geom_bond_distance
_geom_bond_site_symmetry_2
Cl1 C9 1.7417(18) .
O1 C4 1.204(2) .
O2 C5 1.200(2) .
N1 C4 1.404(2) .
N1 C5 1.398(2) .
N1 C6 1.429(2) .
N2 C3 1.364(2) .
N2 C15 1.319(3) .
C1 C2 1.384(2) .
C1 C4 1.484(2) .
C1 C11 1.380(2) .
C2 C5 1.490(2) .
C2 C8 1.378(2) .
C3 C6 1.423(2) .
C3 C7 1.417(2) .
C6 C12 1.359(3) .
C7 C13 1.407(3) .
C7 C14 1.418(3) .
C8 C9 1.391(3) .
C9 C10 1.385(3) .
C10 C11 1.392(3) .
C12 C16 1.412(3) .
C13 C16 1.362(3) .
C14 C17 1.356(3) .
C15 C17 1.404(3) .
loop_
_refln_index_h
_refln_index_k
_refln_index_l
_refln_F_squared_meas
_refln_F_squared_sigma
0 0 -1 218.02 1.64
0 0 -2 388.98 3.12
0 0 -3 26.03 1
0 0 -4 539.56 5.38
0 0 -5 858.68 7.79
0 0 -6 1767.77 12.73
0 0 -7 284.26 5.7
0 0 -8 52.16 2.72
0 0 -9 21.37 1.89
0 0 9 19.81 0.95
0 0 10 16.03 0.89
0 0 -10 14.66 1.7
0 0 11 13.46 0.83
0 0 12 0.65 0.22
0 0 13 6.78 0.54
0 0 14 15.98 0.7
0 0 15 4.99 0.29
0 -1 14 1.39 0.19
0 -1 13 11.52 0.65
0 -1 12 16.53 0.88
0 -1 11 413.67 4.62
0 -1 10 147.71 2.73
0 1 -9 82.19 3.86
0 -1 9 81.46 1.96
0 1 -8 20.92 1.83
0 1 -7 142.71 4.3
0 1 -6 57.67 2.48
0 1 -5 50.95 2.12
0 1 -4 25.18 1.33
0 1 -3 912.2 6.99
0 1 -2 131.2 2.3
0 1 -1 21.86 0.84
0 1 0 1073.03 3.21
0 1 0 1063.3 5.24
0 1 1 61.84 1.15
0 1 1 61.34 1.28
0 -1 -2 634.87 4.5
0 1 2 631.97 3.14
0 -1 -3 306.41 3.54
0 -1 -4 186.37 3.14
0 -1 -5 1312.56 9.44
0 -1 -6 36.53 1.78
0 -1 -7 364.05 6.22
0 -1 -8 250.9 5.7
0 -1 -9 69.57 3.34
0 1 9 63.88 1.69
0 1 10 44.48 1.49
0 -1 -10 43.14 2.86
0 1 11 285.63 3.86
0 1 12 2.99 0.39
0 1 13 70.44 1.76
0 1 14 1 0.21
0 1 15 23.72 0.69
0 -2 14 4.66 0.28
0 -2 13 3.46 0.32
0 -2 12 5.12 0.46
0 -2 11 19.3 0.97
0 -2 10 56.8 1.7
0 2 -9 27.4 1.18
0 2 -9 25.06 2.37
0 -2 9 27.72 1.16
0 2 -8 6.31 0.54
0 2 -8 6.87 1.16
0 2 -7 258.36 6.61
0 2 -6 1041.61 12.38
0 2 -5 113.15 3.75
0 2 -4 152.02 3.98
0 2 -3 373.8 5.68
0 2 -2 667.18 3.95
0 2 -2 691.48 6.93
0 2 -1 9942.68 12.79
0 2 -1 9999 23.73
0 2 0 8922.57 12.98
0 2 0 8924.84 21.76
0 2 1 146.02 2.75
0 2 1 144.87 2.14
0 2 2 238.65 3.64
0 2 3 108.97 1.86
0 2 3 106.24 2.6
0 -2 -4 23.92 1.27
0 -2 -5 1386.02 10.49
0 -2 -6 1183.08 10.54
0 -2 -7 0.88 0.34
0 -2 -8 174.64 4.83
0 2 9 1.92 0.3
0 -2 -9 0.9 0.32
0 2 10 36.99 1.35
0 -2 -10 38.56 2.66
0 2 11 18.53 0.97
0 2 12 16.31 0.91
0 2 13 0.78 0.21
0 2 14 42.72 1.19
0 2 15 0.31 0.1
0 2 15 0.48 0.11
0 -3 13 2.76 0.23
0 -3 12 50.9 1.24
0 -3 11 0.17 0.18
0 -3 10 34.05 1.27
0 3 -9 0.41 0.2
0 -3 9 0.4 0.2
0 3 -8 33.06 1.27
0 3 -7 3.32 0.42
0 3 -7 2.86 0.8
0 3 -6 4.84 0.93
0 3 -5 37 2.39
0 3 -4 79.78 3.26
0 3 -3 241.95 5.32
0 3 -2 29.22 1.74
0 3 -1 117.37 3.34
0 3 0 316.29 5.26
0 3 1 442.13 6.05
0 3 2 282.28 4.84
0 3 3 419.39 6.12
0 3 4 77.84 1.93
0 -3 -5 228.25 4.81
0 -3 -6 43.07 2.21
0 -3 -7 2.82 0.59
0 -3 -8 129.22 4.38
0 3 9 8.99 0.66
0 -3 -9 9.38 1.28
0 3 10 203.11 3.18
0 3 11 52.91 1.64
0 3 12 48.14 1.52
0 3 13 5.18 0.46
0 3 14 8.52 0.48
0 3 14 10.91 0.57
0 -4 12 0.7 0.12
0 -4 11 0.12 0.12
0 -4 10 0.97 0.22
0 4 -9 7.93 0.63
0 -4 9 8.59 0.64
0 4 -8 21.3 1.06
0 4 -7 96.01 2.21
0 4 -6 10.44 1.57
0 4 -6 11.37 0.75
0 4 -5 40.03 1.34
0 4 -5 43.05 3
0 4 -4 24.84 2.2
0 4 -3 18.6 1.78
0 4 -2 1605.1 15.65
0 4 -1 1768.59 15.7
0 4 0 77.61 3.16
0 4 1 191.41 4.88
0 4 2 203.57 4.94
0 4 3 104.59 3.57
0 4 4 176.58 4.73
0 -4 -5 586.27 8.9
0 -4 -6 1.36 0.42
0 -4 -7 12.05 1.37
0 4 7 14.34 0.74
0 4 8 69.62 1.71
0 -4 -8 70.26 3.42
0 4 9 0.72 0.21
0 -4 -9 0.52 0.25
0 4 10 224.52 3.02
0 4 10 233.76 3.35
0 4 11 1.27 0.23
0 4 11 1.21 0.26
0 4 12 5.12 0.43
0 4 12 5.05 0.44
0 4 13 9.05 0.49
0 4 13 9.18 0.52
0 4 14 8.32 0.4
0 4 14 8.47 0.37
0 -5 10 2.75 0.27
0 -5 9 31.06 1.04
0 5 -8 0.11 0.14
0 5 -7 0.26 0.13
0 5 -7 0.22 0.16
0 5 -6 0.03 0.12
0 5 -5 29.43 1.2
0 5 -4 3.42 0.36
0 5 -4 3.69 0.42
0 5 -3 13.06 1.72
0 5 -3 13.28 0.78
0 5 -2 26.29 1.04
0 5 -2 29.49 2.46
0 5 -1 172.06 5.73
0 5 0 17.63 1.78
0 5 1 4.64 0.88
0 5 2 0.91 0.46
0 5 3 12.96 1.45
0 5 4 45.3 2.72
0 -5 -5 0.84 0.4
0 5 6 6.81 0.48
0 -5 -6 7.75 1.18
0 -5 -7 112.1 4.52
0 5 7 102.8 1.95
0 5 8 37.21 1.19
0 5 9 71.86 1.68
0 5 10 4.73 0.43
0 5 11 2.68 0.31
0 5 12 37.69 1.03
0 5 13 6.56 0.38
0 -6 9 2.4 0.22
0 -6 8 27.14 0.87
0 6 -7 0.79 0.19
0 6 -6 3.9 0.4
0 6 -6 5.04 0.41
0 6 -5 0.15 0.11
0 6 -4 49.79 1.4
0 6 -4 48.81 1.47
0 6 -3 409.07 4.32
0 6 -3 417.91 4.14
0 6 -2 301.07 3.64
0 6 -1 1.46 0.27
0 6 0 3.93 0.4
0 6 1 3.43 0.85
0 6 2 24.41 2.28
0 6 2 22.31 0.84
0 6 3 51.23 3.27
0 6 3 50.38 1.29
0 6 4 109 1.93
0 6 5 58.72 1.45
0 6 6 19.38 0.85
0 6 7 1.12 0.21
0 6 8 2.01 0.27
0 6 9 50.73 1.36
0 6 10 20.6 0.83
0 6 11 0.17 0.1
0 6 12 9.42 0.47
0 6 13 3.47 0.23
0 -7 7 0.16 0.07
0 7 -6 0.7 0.12
0 7 -5 5 0.36
0 7 -4 0.56 0.13
0 7 -3 10.29 0.6
0 7 -2 21.11 0.9
0 7 -1 1.89 0.29
0 7 0 2.1 0.32
0 7 1 6.31 0.53
0 7 2 7.44 0.57
0 7 3 18.5 0.75
0 7 3 15.88 0.84
0 7 4 7.92 0.58
0 7 4 9.01 0.54
0 7 5 6.56 0.51
0 7 5 7.34 0.49
0 7 6 0.18 0.13
0 7 7 0.68 0.17
0 7 8 7.93 0.49
0 7 9 38.55 1.04
0 7 10 0.79 0.15
0 7 11 24.35 0.68
0 8 -3 59.31 1.1
0 8 -2 19 0.67
0 8 -1 0.86 0.18
0 8 0 1.47 0.23
0 8 1 5.95 0.45
0 8 2 0.11 0.11
0 8 3 26.14 0.92
0 8 4 23.66 0.86
0 8 5 0.06 0.08
0 8 5 0.07 0.08
0 8 6 6.37 0.37
0 8 7 0.28 0.09
0 8 8 18.56 0.58
0 8 9 30.2 0.66
-1 8 6 0.56 0.11
-1 8 5 3.95 0.26
-1 8 4 1.99 0.18
-1 8 3 25.44 0.78
-1 8 2 -0.01 0.07
-1 8 1 1.5 0.21
-1 8 0 0.02 0.07
-1 8 0 0.01 0.07
-1 8 -1 0.35 0.1
-1 8 -2 0.22 0.09
-1 7 10 0.32 0.1
-1 7 9 3.02 0.26
-1 7 8 0.14 0.1
-1 7 7 7.95 0.47
-1 7 6 3.15 0.32
-1 7 5 35.85 1.08
-1 7 5 38.11 1.08
-1 7 4 0.2 0.1
-1 7 4 0.12 0.13
-1 7 3 20.17 0.79
-1 7 3 19.77 0.89
-1 7 2 16.41 0.84
-1 7 2 18.37 0.74
-1 7 1 0.49 0.2
-1 7 1 0.2 0.1
-1 7 0 3.87 0.42
-1 7 -1 5.46 0.47
-1 7 -2 0.3 0.14
-1 7 -3 21.34 0.8
-1 7 -3 22.74 0.85
-1 7 -4 5.73 0.4
-1 7 -5 2.03 0.21
-1 6 12 2.99 0.21
-1 6 11 2.65 0.24
-1 6 10 7.12 0.45
-1 6 9 0.74 0.18
-1 6 8 73.18 1.62
-1 6 7 2.25 0.3
-1 6 6 17.09 0.81
-1 6 5 2.62 0.33
-1 6 5 2.59 0.32
-1 6 4 88.88 1.95
-1 6 4 90.92 1.83
-1 6 3 23.13 1.01
-1 6 3 24.26 0.96
-1 6 2 66.51 1.74
-1 6 2 68.92 1.59
-1 6 1 1 0.21
-1 6 1 1.2 0.26
-1 6 0 7.84 0.61
-1 6 0 7.71 0.52
-1 6 -1 1.97 0.33
-1 6 -2 108.01 2.25
-1 6 -3 10.64 0.7
-1 6 -4 12.57 0.7
-1 6 -5 2.11 0.26
-1 6 -5 2.35 0.31
-1 6 -6 0.52 0.15
-1 6 -7 0.49 0.13
1 -6 8 0.54 0.13
-1 5 13 52.66 0.84
-1 5 12 15.91 0.6
-1 5 11 26.74 0.9
-1 5 10 0.26 0.13
-1 5 9 35.09 1.17
-1 5 8 132.62 2.26
-1 5 7 1.77 0.28
-1 5 6 91.58 1.86
-1 5 5 29.26 1.04
1 -5 -5 27.53 2.32
-1 5 4 24.96 0.98
-1 5 4 26.73 0.98
1 -5 -4 28.02 2.31
-1 5 3 2.52 0.72
-1 5 3 2.16 0.28
-1 5 2 24.41 0.89
-1 5 2 27.76 2.36
-1 5 1 3.54 0.35
-1 5 1 3.62 0.88
-1 5 0 127.84 5.2
-1 5 0 112.73 1.91
-1 5 -1 10.73 0.59
-1 5 -1 10.84 0.69
-1 5 -1 12.62 1.66
-1 5 -2 22.71 1
-1 5 -2 25.29 2.41
-1 5 -3 291.53 3.57
-1 5 -4 70.18 1.7
-1 5 -5 2.32 0.32
-1 5 -6 15.04 0.81
-1 5 -7 0.02 0.1
-1 5 -7 0.31 0.13
-1 5 -8 8.92 0.49
1 -5 9 9.02 0.52
1 -5 10 0.09 0.09
-1 4 13 10.67 0.48
-1 4 13 10.02 0.43
-1 4 12 1.28 0.2
-1 4 12 1.51 0.23
-1 4 11 19.89 0.87
-1 4 10 3.09 0.36
-1 4 9 34.01 1.18
1 -4 -8 571.26 10.2
-1 4 8 556.01 4.68
1 -4 -7 364.49 7.91
-1 4 7 352.01 3.61
1 -4 -6 1.69 0.56
1 -4 -5 280.9 6.57
-1 4 4 199.18 5.46
-1 4 4 188.3 4.48
-1 4 3 146.9 4.65
-1 4 3 130.53 3.84
-1 4 2 270.12 6.35
-1 4 1 40.91 2.47
-1 4 0 74.34 3.41
-1 4 -1 83.5 3.79
-1 4 -2 241.34 6.65
-1 4 -3 2.25 0.73
-1 4 -4 5.08 0.43
-1 4 -4 4.97 1.06
-1 4 -5 7.1 0.57
-1 4 -5 7.21 1.28
-1 4 -6 8.12 0.61
-1 4 -7 3 0.36
-1 4 -7 3.66 0.43
-1 4 -8 31.21 1.21
-1 4 -8 30.84 1.04
1 -4 9 4.78 0.46
1 -4 10 0.8 0.19
1 -4 11 8.91 0.48
-1 3 14 62.73 1.15
-1 3 13 1.59 0.24
-1 3 12 69.02 1.67
-1 3 12 67.91 1.67
-1 3 11 14.38 0.82
-1 3 11 15.15 0.83
-1 3 10 37.05 1.33
-1 3 9 10.5 0.69
1 -3 -9 9.65 1.31
-1 3 8 33.29 1.17
1 -3 -8 34.32 2.38
1 -3 -7 8.97 1.12
1 -3 -6 329.12 6.54
1 -3 -5 2.24 0.55
1 -3 -4 16.3 1.34
-1 3 4 14.29 1.05
-1 3 3 51.06 2.36
-1 3 3 46.83 1.96
-1 3 2 218.51 4.76
-1 3 1 202.45 4.58
-1 3 0 830.71 9.64
-1 3 -1 388.22 6.89
-1 3 -2 267.74 5.97
-1 3 -3 65.13 3.1
-1 3 -4 5.25 0.9
-1 3 -5 27.81 2.19
-1 3 -6 33.54 1.18
-1 3 -6 36.46 2.7
-1 3 -7 1.98 0.27
-1 3 -7 1.98 0.64
-1 3 -7 2.1 0.32
-1 3 -8 65.18 1.79
1 -3 9 55.38 1.66
1 -3 10 11.16 0.72
1 -3 11 29.53 1.06
1 -3 12 0.04 0.11
-1 2 14 0.19 0.1
-1 2 14 0.15 0.1
-1 2 13 32.18 1.09
-1 2 12 12.58 0.76
-1 2 11 23.63 1.08
-1 2 10 89.59 2.12
-1 2 9 251.08 3.41
1 -2 -9 256.44 6.58
1 -2 -8 13.92 1.43
1 -2 -7 115.31 3.79
1 -2 -6 53.92 2.37
1 -2 -5 602.16 7.46
1 -2 -4 19.45 1.25
-1 2 3 983.91 7.82
-1 2 3 1029.22 8.81
-1 2 2 379.19 5.15
-1 2 1 831.46 7.49
-1 2 0 20.5 1.24
-1 2 -1 1374.93 10.69
-1 2 -2 476.67 6.25
-1 2 -3 63.37 2.52
-1 2 -4 33.89 2.02
-1 2 -5 3.29 0.68
-1 2 -6 144.73 4.85
-1 2 -7 118.33 4.67
-1 2 -8 39.15 2.84
-1 2 -8 37.39 1.32
-1 2 -9 3.34 0.42
1 -2 9 2.78 0.38
1 -2 10 0.91 0.24
1 -2 11 8.06 0.62
1 -2 12 0.53 0.2
1 -2 13 12.46 0.58
-1 1 14 12.74 0.59
-1 1 13 9.97 0.63
-1 1 12 70.04 1.84
-1 1 11 4.68 0.49
-1 1 10 29.83 1.23
1 -1 -10 29.67 2.39
1 -1 -9 58.29 3.11
-1 1 9 54.55 1.57
1 -1 -8 6.66 0.97
1 -1 -7 374.7 6.49
1 -1 -6 43.03 2.01
1 -1 -5 287.31 4.64
1 -1 -4 52.5 1.8
1 -1 -3 85.33 2.09
-1 1 2 198.21 2.89
-1 1 2 195.14 2.99
-1 1 1 690.7 5.65
-1 1 1 683.3 5.23
-1 1 0 36.79 1.14
-1 1 0 35.6 1.2
-1 1 -1 1070.62 5.4
-1 1 -1 1022.43 6.82
-1 1 -2 105.9 2.46
-1 1 -3 197.17 3.77
-1 1 -4 50.13 1.94
-1 1 -5 1.47 0.39
-1 1 -6 4.98 0.76
-1 1 -7 13.85 1.39
-1 1 -8 286.02 3.48
1 -1 8 289.78 3.44
1 -1 9 2.37 0.37
-1 1 -9 2.02 0.69
1 -1 10 43.06 1.46
1 -1 11 60.06 1.73
1 -1 12 26.05 1.08
1 -1 13 67.8 1.55
1 -1 14 53.73 1.13
-1 0 14 3.89 0.31
-1 0 13 0.65 0.18
-1 0 12 6.11 0.54
-1 0 11 20 1.02
-1 0 11 18.28 0.89
-1 0 10 163.72 2.7
-1 0 10 172.98 2.97
-1 0 9 28.51 1.16
1 0 -9 28.12 2.21
1 0 -8 15.94 1.53
1 0 -7 27.16 1.79
1 0 -6 708.33 8.12
1 0 -5 7.25 0.73
1 0 -4 182.41 3.2
-1 0 3 955.7 7.18
1 0 -3 960.54 6.34
-1 0 2 1167.66 6.93
1 0 -2 1170.33 5.76
1 0 -1 384.6 2.64
-1 0 0 9.06 0.34
1 0 1 2696.84 6.8
1 0 2 3476.24 9.37
-1 0 -2 3482.72 9.86
-1 0 -3 1855.48 9.1
-1 0 -4 681.55 6.24
-1 0 -5 101.64 2.75
-1 0 -6 48.33 2.13
-1 0 -7 186.53 4.68
-1 0 -8 3.61 0.71
1 0 9 13.84 0.79
-1 0 -9 14.24 1.56
1 0 10 4.15 0.48
-1 0 -10 2.95 0.76
1 0 11 3.62 0.45
1 0 12 3.22 0.43
1 0 13 1.98 0.3
1 0 14 0.41 0.16
1 0 15 5.75 0.32
-1 -1 14 1.09 0.16
-1 -1 13 41.46 1.18
-1 -1 12 18.1 0.82
-1 -1 12 20.37 0.95
-1 -1 11 2 0.34
-1 -1 10 0.67 0.22
1 1 -9 2.72 0.74
-1 -1 9 3.75 0.44
1 1 -8 16.35 0.86
-1 -1 8 17.22 0.84
1 1 -8 17.69 1.67
1 1 -7 135.65 4.18
1 1 -6 1.59 0.44
1 1 -5 1.88 0.42
1 1 -4 6.06 0.66
1 1 -3 382.94 4.45
-1 -1 3 360.69 3.81
1 1 -2 761.13 5.25
-1 -1 1 31.98 0.88
1 1 -1 30.4 0.85
1 1 0 2637.7 5.8
1 1 0 2631.52 8
1 1 1 57.97 1.24
1 1 1 53.72 0.9
1 1 2 60.1 1.48
-1 -1 -2 66.16 1.21
-1 -1 -3 1140.36 6.19
1 1 3 1114.59 7.35
-1 -1 -4 347.23 4.06
-1 -1 -5 30.1 1.39
-1 -1 -6 116.61 3.08
-1 -1 -7 76.92 2.83
-1 -1 -8 539.7 8.35
-1 -1 -9 253.96 6.33
1 1 9 240.06 3.17
-1 -1 -10 139.59 5.06
1 1 10 126.63 2.49
1 1 11 54.13 1.66
1 1 12 56.79 1.67
1 1 13 18.02 0.89
1 1 14 10.41 0.6
1 1 15 19.43 0.65
-1 -2 13 0.24 0.1
-1 -2 13 0.23 0.1
-1 -2 12 4.17 0.39
-1 -2 12 3.86 0.39
-1 -2 11 204.65 3.09
-1 -2 10 3.89 0.48
-1 -2 9 46.25 1.51
1 2 -9 44.8 1.51
-1 -2 8 13.38 0.81
1 2 -8 13.04 0.79
1 2 -8 12.93 1.59
1 2 -7 31.2 2.15
1 2 -7 32.75 2.32
1 2 -6 249.85 5.53
1 2 -5 173.2 4.22
1 2 -4 93.07 2.8
1 2 -3 3.65 0.53
-1 -2 3 2.53 0.26
1 2 -3 3.53 0.53
-1 -2 2 1081.91 4.94
1 2 -2 1113.11 8.13
1 2 -1 904.89 5.93
1 2 -1 936.65 6.44
1 2 0 2429.03 9.82
1 2 0 2419.68 9.43
1 2 1 1734.49 8
1 2 1 1757.74 8.18
1 2 2 101.75 2.09
1 2 2 102.07 2.19
-1 -2 -3 79.15 1.96
1 2 3 84.28 2.25
1 2 4 755.14 7.77
-1 -2 -4 764.8 6.56
-1 -2 -5 223.17 3.91
-1 -2 -6 322.17 5.25
-1 -2 -7 4.95 0.71
-1 -2 -8 171.8 4.66
1 2 9 1.2 0.23
-1 -2 -9 1.63 0.55
-1 -2 -10 3.74 0.82
1 2 10 1.54 0.29
1 2 11 0.22 0.18
1 2 12 10.06 0.71
1 2 13 7.3 0.6
1 2 14 11.58 0.64
1 2 15 1.62 0.21
-1 -3 13 1.28 0.16
-1 -3 12 10.76 0.55
-1 -3 12 10.92 0.58
-1 -3 11 2.99 0.37
-1 -3 10 1.94 0.32
1 3 -9 0.03 0.13
-1 -3 9 1.75 0.32
1 3 -8 81.51 2.01
1 3 -8 77.69 3.95
1 3 -7 14.13 0.83
1 3 -7 14.01 1.64
1 3 -6 41.16 2.57
1 3 -5 5.41 0.87
1 3 -4 33.23 1.52
1 3 -4 33.79 1.98
1 3 -3 758.56 8.61
1 3 -3 784.74 6.7
1 3 -2 64.5 1.8
1 3 -2 61.97 2.25
1 3 -1 80.42 2.5
1 3 -1 77.56 1.89
1 3 0 143.14 3.17
1 3 0 140.9 2.51
1 3 1 429 5.36
1 3 1 429.27 4.65
1 3 2 78.77 2.32
1 3 2 81.57 2.23
1 3 3 96.98 2.69
1 3 3 94.69 2.65
-1 -3 -4 166.35 3.6
1 3 4 170.32 3.85
-1 -3 -5 30.07 1.62
-1 -3 -6 274.5 5.25
-1 -3 -7 360.76 6.47
-1 -3 -8 43.7 2.45
-1 -3 -9 410.37 8.06
1 3 9 392.41 4.17
-1 -3 -10 16.13 1.71
1 3 10 17.97 0.93
1 3 11 192.34 3.11
1 3 12 11.29 0.74
1 3 13 63.13 1.65
1 3 14 16.49 0.75
1 3 15 51.97 1.04
-1 -4 12 3.41 0.25
-1 -4 12 3.15 0.24
-1 -4 11 18.14 0.74
-1 -4 10 0.03 0.12
-1 -4 9 17.19 0.9
1 4 -9 15.74 0.9
1 4 -8 6.71 0.62
1 4 -7 120.22 2.49
1 4 -6 0.63 0.45
1 4 -6 0.14 0.14
1 4 -5 74.93 3.63
1 4 -5 80.8 1.9
1 4 -4 2.91 0.7
1 4 -3 254.19 6.08
1 4 -2 6.06 0.86
1 4 -1 1456.25 13.01
1 4 0 838.05 9.35
1 4 1 0.81 0.33
1 4 1 3.93 0.5
1 4 2 117.96 2.93
1 4 2 121.36 3.47
1 4 3 618.02 7.39
1 4 3 624.34 7.98
1 4 4 93.3 3.18
-1 -4 -5 969.14 10.56
-1 -4 -6 103.4 3.59
-1 -4 -7 14.71 1.44
1 4 8 12.29 0.71
-1 -4 -8 13.21 1.42
-1 -4 -9 77.74 3.66
1 4 9 78.5 1.91
1 4 10 38.95 1.38
1 4 11 1.66 0.31
1 4 12 0.16 0.14
1 4 13 5.12 0.46
1 4 14 7.09 0.45
1 4 15 0.39 0.09
-1 -5 10 0.15 0.1
1 5 -9 1.16 0.25
-1 -5 9 1.51 0.27
1 5 -8 36.76 1.29
1 5 -7 4.8 0.52
1 5 -6 36.28 1.38
1 5 -5 1.24 0.26
1 5 -4 0.45 0.16
1 5 -4 0.66 0.41
1 5 -3 0.45 0.32
1 5 -3 0.27 0.13
1 5 -2 6.01 0.5
1 5 -2 4.74 0.93
1 5 -1 37.09 2.44
1 5 0 26.52 1.99
1 5 1 14.98 1.47
1 5 2 93.2 3.6
1 5 3 10.5 1.22
1 5 4 27.91 2
-1 -5 -5 11.34 1.3
1 5 6 277.01 3.18
-1 -5 -6 285.27 6.65
1 5 7 10.82 0.64
-1 -5 -7 11.13 1.37
-1 -5 -8 260.82 6.75
1 5 8 251.92 3.21
1 5 9 129.4 2.35
1 5 10 580.49 5.03
1 5 11 10.63 0.68
1 5 12 56.16 1.44
1 5 13 1.06 0.19
1 5 14 47.69 0.99
-1 -6 9 0.14 0.08
1 6 -8 5.59 0.44
-1 -6 8 6.16 0.44
1 6 -7 10.69 0.66
1 6 -6 0.07 0.16
1 6 -5 6.07 0.57
1 6 -4 1.01 0.21
1 6 -4 0.49 0.21
1 6 -3 23.42 1.09
1 6 -2 17.17 0.91
1 6 -1 1104.29 15.19
1 6 -1 1104.53 7.05
1 6 0 27.41 2.35
1 6 0 28.02 1.08
1 6 1 8.58 1.28
1 6 1 8.45 0.57
1 6 2 33.36 2.49
1 6 2 32.32 1.12
1 6 3 56.52 1.46
1 6 3 61.45 3.36
1 6 4 73.73 3.67
1 6 4 72.07 1.47
1 6 4 73.34 1.66
1 6 5 164.3 2.52
-1 -6 -5 172.48 5.69
-1 -6 -6 45.61 2.92
1 6 6 43.75 1.31
1 6 7 5.44 0.47
1 6 8 6.8 0.53
1 6 9 5.54 0.47
1 6 10 3.54 0.37
1 6 11 3.24 0.33
1 6 12 0.88 0.17
1 6 13 7.69 0.4
1 6 13 6.28 0.35
1 7 -7 0.13 0.08
-1 -7 7 0.23 0.1
1 7 -6 0.95 0.18
1 7 -5 2.65 0.31
1 7 -4 3.32 0.31
1 7 -4 2.7 0.34
1 7 -3 1.82 0.27
1 7 -3 1.92 0.31
1 7 -2 0.13 0.17
1 7 -1 13.88 0.8
1 7 0 32.21 1.2
1 7 1 8.2 0.61
1 7 2 15.28 0.8
1 7 3 1.69 0.27
1 7 4 20.63 0.9
1 7 5 58.59 1.35
1 7 5 56.96 1.49
1 7 6 19.17 0.79
1 7 6 18.24 0.84
1 7 7 84.78 1.68
1 7 7 79.38 1.72
1 7 8 17.61 0.77
1 7 8 16.78 0.77
1 7 9 37.42 1.08
1 7 9 33.41 1.04
1 7 10 34.03 0.97
1 7 10 37.22 1.03
1 7 11 11.86 0.5
1 7 11 14 0.58
1 7 12 7.66 0.38
1 8 -4 1.44 0.16
1 8 -3 5.57 0.37
1 8 -3 7.01 0.39
1 8 -2 63.74 1.33
1 8 -2 72.91 1.4
1 8 -1 30.69 0.99
1 8 -1 34.53 1.06
1 8 0 4.35 0.4
1 8 0 4.1 0.37
1 8 1 1.06 0.22
1 8 1 0.7 0.17
1 8 2 3.1 0.35
1 8 2 3.45 0.34
1 8 3 2.14 0.29
1 8 3 2.24 0.28
1 8 4 24.24 0.93
1 8 4 23.44 0.86
1 8 5 41.98 1.11
1 8 5 44.36 1.21
1 8 6 0.13 0.07
1 8 6 0.07 0.07
1 8 7 12.01 0.53
1 8 8 0.7 0.15
1 8 9 0.54 0.11
1 8 10 1.22 0.14
1 9 0 2.38 0.21
1 9 1 2.62 0.24
1 9 2 5.09 0.34
1 9 3 0.15 0.09
1 9 4 0.03 0.07
1 9 5 6.19 0.33
-2 7 8 22.2 0.61
-2 7 7 18.27 0.61
-2 7 6 1.48 0.2
-2 7 5 0.69 0.14
-2 7 4 0.17 0.1
-2 7 3 1.3 0.18
-2 7 2 11.42 0.54
-2 7 2 11.57 0.63
-2 7 2 11.76 0.54
-2 7 1 1.15 0.17
-2 7 1 0.89 0.17
-2 7 1 1.18 0.22
-2 7 0 7.23 0.45
-2 7 -1 0.99 0.18
-2 7 -2 2.53 0.27
-2 7 -3 -0.03 0.09
-2 7 -4 0.19 0.08
-2 6 10 0.97 0.14
-2 6 9 10.19 0.5
-2 6 8 6.92 0.45
-2 6 7 16.3 0.72
-2 6 6 26.43 0.97
-2 6 5 43.15 1.27
-2 6 4 1.95 0.29
-2 6 4 1.71 0.27
-2 6 3 21.15 0.89
-2 6 3 19.78 0.95
-2 6 2 56.33 1.45
-2 6 2 52.97 1.55
-2 6 1 10.6 0.64
-2 6 1 9.88 0.7
-2 6 0 2.46 0.31
-2 6 0 2.64 0.37
-2 6 -1 23.71 0.89
-2 6 -1 25.61 1.1
-2 6 -2 -0.01 0.14
-2 6 -3 24.79 1
-2 6 -3 21.92 0.93
-2 6 -4 0.74 0.2
-2 6 -5 33.53 1.03
-2 6 -6 0.26 0.1
-2 6 -7 -0.11 0.07
-2 5 11 5.97 0.35
-2 5 10 -0.06 0.09
-2 5 9 39.38 1.14
-2 5 9 38.95 1.07
-2 5 8 0.19 0.11
-2 5 8 0.05 0.09
-2 5 7 37.21 1.15
-2 5 7 38.22 1.22
-2 5 6 4.51 0.43
-2 5 6 4.42 0.41
-2 5 5 8.74 0.59
-2 5 4 0.52 0.18
-2 5 4 0.29 0.14
-2 5 3 44.68 1.33
-2 5 3 41.92 1.38
-2 5 2 2.73 0.35
-2 5 2 2.17 0.74
-2 5 2 2.67 0.36
-2 5 1 15.79 0.88
-2 5 1 16.07 0.81
-2 5 0 5.03 0.5
-2 5 0 5.37 0.47
-2 5 -1 10 0.62
-2 5 -1 10.64 0.71
-2 5 -2 0.05 0.11
-2 5 -2 0.23 0.12
-2 5 -3 14.42 0.84
-2 5 -4 7.05 0.57
-2 5 -5 7.14 0.59
-2 5 -6 129.21 2.26
-2 5 -7 14.19 0.69
-2 5 -8 6.16 0.38
2 -5 8 6.05 0.41
2 -5 9 0.39 0.1
-2 4 12 10.82 0.51
-2 4 12 9.98 0.42
-2 4 11 1.42 0.2
-2 4 11 1.04 0.2
-2 4 10 28.74 0.97
-2 4 10 28.68 1.04
-2 4 9 0.22 0.1
-2 4 9 0.01 0.11
-2 4 8 144.41 2.46
-2 4 8 143.45 2.34
-2 4 7 6.99 0.55
-2 4 7 7.33 0.54
2 -4 -6 12.83 1.5
-2 4 6 11.43 0.74
-2 4 6 11.05 0.67
-2 4 6 11.54 0.66
-2 4 5 271.86 3.16
-2 4 5 269.48 3.64
2 -4 -5 273.36 6.94
-2 4 5 265.79 3.19
-2 4 4 350.91 3.54
-2 4 4 347.73 3.5
-2 4 4 351.15 4.13
-2 4 3 126.45 2.09
-2 4 3 123.9 4.67
-2 4 3 124.56 2.46
-2 4 3 122.64 2.17
-2 4 3 122.86 2.1
-2 4 3 121.7 4.39
-2 4 2 0.71 0.36
-2 4 2 0.68 0.2
-2 4 2 0.62 0.36
-2 4 2 0.62 0.16
-2 4 2 0.41 0.12
-2 4 1 4.44 0.38
-2 4 1 4.01 0.45
-2 4 0 98.46 4.36
-2 4 0 99.83 1.82
-2 4 0 102.3 2.2
-2 4 0 96.18 1.98
-2 4 -1 0.5 0.16
-2 4 -1 0.7 0.17
-2 4 -1 0.39 0.36
-2 4 -2 49.38 1.31
-2 4 -2 52.85 3.33
-2 4 -2 51.46 1.48
-2 4 -3 0.65 0.17
-2 4 -3 1.35 0.63
-2 4 -3 0.97 0.23
-2 4 -4 48.74 1.46
-2 4 -4 48.73 3.39
-2 4 -5 8.48 0.6
-2 4 -6 2.03 0.35
-2 4 -7 1.41 0.27
-2 4 -8 5.57 0.45
-2 4 -9 2.6 0.27
2 -4 9 3.16 0.35
2 -4 10 3.22 0.3
-2 3 13 10.17 0.5
-2 3 12 6.7 0.48
-2 3 11 1.15 0.25
-2 3 11 0.93 0.18
-2 3 10 50.44 1.32
-2 3 10 51.88 1.58
-2 3 9 20.87 1
2 -3 -8 171.86 5.48
-2 3 8 168.08 2.75
-2 3 7 6.51 0.54
2 -3 -7 6.36 1
-2 3 6 42.05 1.27
2 -3 -6 43.35 2.53
2 -3 -5 64.23 2.97
-2 3 4 14.98 1.34
2 -3 -4 18.41 1.57
-2 3 3 2.62 0.61
-2 3 3 2.85 0.61
-2 3 2 223.58 5.35
-2 3 2 210.24 5.14
-2 3 1 29.82 1.97
-2 3 0 134.83 4.28
-2 3 -1 156.79 4.72
-2 3 -2 1.73 0.53
-2 3 -3 13.98 1.56
-2 3 -4 12.38 1.52
-2 3 -5 70.63 1.59
-2 3 -5 73.04 3.96
-2 3 -6 5.11 1.08
-2 3 -6 3.74 0.42
-2 3 -7 32.36 1.19
-2 3 -8 0.46 0.16
-2 3 -9 7.43 0.51
2 -3 9 6.78 0.55
2 -3 10 2.62 0.33
2 -3 11 14.1 0.66
2 -3 12 7.81 0.4
-2 2 14 12.44 0.49
-2 2 13 61.05 1.39
-2 2 12 0.33 0.1
-2 2 12 0.31 0.15
-2 2 11 3.18 0.4
-2 2 11 3.08 0.36
-2 2 10 68.29 1.73
-2 2 9 4.99 0.48
2 -2 -8 34.6 2.33
-2 2 8 36.13 1.22
-2 2 8 39.03 1.24
2 -2 -7 115.73 4.03
2 -2 -6 157.37 4.38
2 -2 -5 213.45 4.77
2 -2 -4 755.28 8.54
-2 2 3 11.78 1.06
2 -2 -3 12.19 1.07
-2 2 2 6.56 0.78
-2 2 2 7.46 0.81
-2 2 1 316.3 5.48
-2 2 0 8.08 0.88
-2 2 -1 66.04 2.6
-2 2 -2 133.74 3.91
-2 2 -3 137.48 4.11
-2 2 -4 218.73 5.37
-2 2 -5 41.19 2.53
-2 2 -6 26.33 2.14
-2 2 -7 173.52 2.55
-2 2 -7 178.07 2.7
-2 2 -7 169.91 5.73
-2 2 -8 50.51 1.38
-2 2 -8 47.05 3.14
2 -2 9 24.51 1.07
-2 2 -9 23.45 0.93
2 -2 10 15.41 0.84
2 -2 11 0.46 0.19
2 -2 12 6.9 0.48
2 -2 13 3.92 0.3
-2 1 14 31.74 0.85
-2 1 13 1.09 0.18
-2 1 13 1.58 0.24
-2 1 12 24.52 0.97
-2 1 11 79.57 1.89
-2 1 10 16.88 0.89
-2 1 10 16.09 0.86
-2 1 9 49.14 1.49
2 -1 -9 49 2.88
-2 1 9 46.04 1.44
-2 1 8 144.12 2.42
-2 1 8 144.58 2.47
2 -1 -7 1.95 0.5
2 -1 -6 184.36 4.42
2 -1 -5 331.78 5.33
2 -1 -4 208.32 3.9
2 -1 -3 1138.65 8.47
-2 1 3 1143.96 10.85
-2 1 2 201.47 4.21
-2 1 2 195.19 3.67
-2 1 2 186.73 3.32
2 -1 -2 193.03 3.35
-2 1 1 16.19 1.04
-2 1 1 15.59 0.95
-2 1 1 16.93 1.15
-2 1 0 89.23 2.43
2 -1 0 91.08 1.66
-2 1 0 89.62 2.22
-2 1 -1 111.06 2.63
-2 1 -1 109.88 2.54
2 -1 1 105.57 1.46
2 -1 2 127.97 1.42
-2 1 -2 146.48 3.12
-2 1 -3 10.9 0.95
-2 1 -4 557.2 7.5
-2 1 -5 45.17 2.34
-2 1 -6 126.82 4.27
-2 1 -7 74.4 3.52
2 -1 8 103.54 2.06
-2 1 -8 105.81 1.88
-2 1 -9 1.67 0.66
2 -1 9 1.81 0.31
2 -1 10 59.73 1.67
2 -1 11 52.38 1.54
2 -1 12 29.75 1.09
2 -1 13 19.75 0.78
-2 1 -14 0.15 0.08
2 -1 14 0.52 0.12
-2 0 14 40.99 0.94
-2 0 13 11.83 0.58
-2 0 12 7.4 0.51
-2 0 12 7.98 0.56
-2 0 11 62.58 1.7
-2 0 11 61.75 1.67
-2 0 10 9.33 0.68
-2 0 10 9.07 0.68
-2 0 9 9.83 0.7
-2 0 9 9.3 0.66
2 0 -9 9.27 1.27
2 0 -8 131.14 4.43
-2 0 8 130.09 2.31
-2 0 8 128.2 2.36
2 0 -7 217.05 5.18
2 0 -6 17.39 1.32
2 0 -5 1697.28 11.61
2 0 -4 103.09 2.54
-2 0 4 115.88 3.35
-2 0 3 1396.67 10.92
2 0 -3 1370.64 8.16
-2 0 2 743.57 7.29
2 0 -2 734.98 5.18
2 0 -1 497.05 3.68
-2 0 0 142.85 1.89
-2 0 0 148.34 2.79
2 0 0 145.75 2.32
2 0 1 4516.77 12.34
-2 0 -1 4567.24 14.86
-2 0 -2 3234.06 12.04
2 0 2 3232.97 10.5
-2 0 -2 3263.66 12.44
2 0 3 136.23 2.4
2 0 4 2.82 0.39
-2 0 -4 2.69 0.41
-2 0 -5 2.5 0.46
-2 0 -6 350.58 5.82
-2 0 -7 32.24 1.96
-2 0 -8 126.39 4.23
2 0 9 140.83 2.44
-2 0 -9 145.29 4.91
2 0 10 1.21 0.27
2 0 11 0.48 0.19
2 0 12 14.54 0.81
2 0 13 65.94 1.56
2 0 14 22.29 0.77
-2 0 -14 18.9 0.66
-2 -1 13 19.95 0.71
-2 -1 13 19.92 0.68
-2 -1 12 0.48 0.16
-2 -1 12 0.37 0.15
-2 -1 11 41.95 1.38
-2 -1 11 42.28 1.41
-2 -1 10 4.31 0.47
-2 -1 10 3.8 0.46
2 1 -9 302.31 7.29
-2 -1 9 316.86 3.9
2 1 -8 5.26 0.91
-2 -1 8 6.14 0.53
2 1 -7 43.95 2.38
2 1 -6 0.7 0.35
2 1 -5 195.14 4.1
2 1 -4 152.86 3.2
-2 -1 4 147.7 3.49
2 1 -3 558.09 5.28
-2 -1 3 536.52 6.03
2 1 -2 271.3 3.08
-2 -1 1 372.12 4.41
2 1 -1 366.27 2.8
2 1 0 417.69 4.25
2 1 1 248.29 3.27
-2 -1 -2 4273.57 8.58
-2 -1 -2 4291.58 11.25
2 1 2 4284.49 13.72
-2 -1 -3 5495.58 13.48
2 1 3 5489.15 17.05
-2 -1 -3 5516.57 12.4
-2 -1 -4 158.18 2.74
2 1 4 157.03 3.21
2 1 5 316.11 5.06
-2 -1 -5 317.29 4.53
-2 -1 -6 454.35 6.16
-2 -1 -7 61.21 2.53
-2 -1 -8 116.98 3.89
-2 -1 -9 84.56 3.61
2 1 9 83.07 1.82
2 1 10 130.14 2.44
-2 -1 -10 132.31 4.87
2 1 11 4.03 0.44
2 1 12 44.87 1.43
2 1 13 4.11 0.42
-2 -1 -13 3.25 0.35
2 1 14 11.68 0.61
2 1 15 5.28 0.33
-2 -2 13 1.34 0.17
-2 -2 13 1.47 0.18
-2 -2 12 18.16 0.78
-2 -2 12 19.44 0.82
-2 -2 11 34.78 1.25
-2 -2 11 32.33 1.18
-2 -2 10 1.3 0.27
2 2 -9 113.64 2.4
-2 -2 9 110.34 2.36
-2 -2 8 682.39 5.6
2 2 -8 681.1 5.67
2 2 -8 664.83 10.81
2 2 -8 656.59 10.42
2 2 -7 8.25 1.1
2 2 -7 8 0.58
2 2 -6 587.44 8.39
2 2 -5 337.59 5.77
-2 -2 4 383.09 5.18
2 2 -4 380.75 5.49
2 2 -3 82.3 2.26
-2 -2 2 582.5 5.49
2 2 -2 575.4 5.24
2 2 -1 63.06 1.87
2 2 -1 60.2 1.43
2 2 0 1689.61 9.21
2 2 0 1683.68 6.8
2 2 1 90.84 1.54
2 2 1 93.49 2.2
-2 -2 -2 1797.86 7.31
2 2 2 1838.95 9.91
2 2 3 237.17 3.87
-2 -2 -3 234.35 2.94
2 2 4 8.41 0.82
-2 -2 -4 6.73 0.57
-2 -2 -5 111.23 2.62
2 2 5 116.54 3.27
-2 -2 -6 100.64 2.82
-2 -2 -7 9.25 0.96
-2 -2 -8 528.58 8.05
2 2 9 68.48 1.64
-2 -2 -9 77.33 3.4
-2 -2 -10 31.68 2.38
2 2 10 30.55 1.19
2 2 11 69.04 1.83
-2 -2 -11 64.44 1.67
2 2 12 26.65 1.12
2 2 13 0.75 0.19
2 2 14 9.51 0.57
2 2 15 17.52 0.62
-2 -3 12 0.38 0.14
-2 -3 12 0.38 0.11
-2 -3 11 6.67 0.53
-2 -3 11 6.16 0.48
-2 -3 10 36.9 1.29
-2 -3 9 11.04 0.74
2 3 -9 11.29 0.78
-2 -3 8 13.64 0.82
2 3 -8 14.09 0.85
2 3 -7 33.68 2.39
2 3 -7 38.49 1.34
2 3 -6 0.31 0.28
2 3 -6 0.07 0.1
2 3 -5 7.52 0.97
2 3 -4 1.41 0.41
2 3 -4 1.03 0.41
2 3 -3 495.96 6.47
2 3 -3 520.92 6.54
2 3 -2 17.82 1.12
2 3 -2 18.34 1.15
-2 -3 2 19.01 0.97
2 3 -1 803.59 7.21
2 3 -1 793.8 7.13
2 3 0 40.38 1.53
2 3 0 43.85 1.68
2 3 1 21.48 1.09
2 3 1 64.42 2.03
2 3 2 15.74 1.03
2 3 2 14.06 0.9
2 3 3 491.16 6.13
-2 -3 -4 54.24 1.88
2 3 4 54.89 2.22
-2 -3 -5 711.17 7.37
2 3 5 742.14 8.9
2 3 6 138.36 4.15
-2 -3 -6 133.93 3.47
-2 -3 -7 292.32 5.6
-2 -3 -8 23.89 1.74
2 3 9 271.69 3.32
-2 -3 -9 272.19 6.41
-2 -3 -10 54.78 3.1
2 3 10 54.71 1.59
2 3 11 52.59 1.58
2 3 12 18.63 0.92
2 3 13 25.71 1.04
2 3 14 0.19 0.1
2 3 15 9.24 0.45
-2 -4 12 6.94 0.35
-2 -4 11 0.05 0.09
-2 -4 11 0.16 0.1
-2 -4 10 1.41 0.26
2 4 -9 17.37 0.93
-2 -4 9 17.82 0.89
2 4 -8 30.95 1.28
-2 -4 8 33.71 1.28
2 4 -7 68.85 1.87
2 4 -6 137.53 4.78
2 4 -6 159.48 2.76
2 4 -5 3.78 0.43
2 4 -5 3.75 0.76
2 4 -4 83.3 3.34
2 4 -3 11.82 1.22
2 4 -2 121.23 3.22
2 4 -2 113.35 3.54
2 4 -1 97.71 2.78
2 4 -1 93.27 3.04
2 4 0 265.69 4.83
2 4 0 269.35 4.53
2 4 1 150.25 3.56
2 4 1 150.72 3.43
2 4 2 294.74 5
2 4 2 297.76 4.99
2 4 3 4.52 0.67
2 4 3 4.42 0.61
2 4 4 443.06 6.95
-2 -4 -4 435.46 6.3
2 4 5 68.84 2.97
-2 -4 -5 69.81 2.64
-2 -4 -6 16.74 1.37
-2 -4 -7 49.86 2.49
2 4 8 89.37 1.84
-2 -4 -8 94.47 3.67
-2 -4 -9 30.23 2.2
2 4 9 26.96 1.08
2 4 10 6.24 0.54
-2 -4 -10 7.39 1.14
2 4 11 16.13 0.88
2 4 12 16.07 0.85
2 4 13 10.38 0.64
2 4 14 10.79 0.57
2 4 15 1.86 0.21
-2 -5 11 -0.02 0.06
-2 -5 10 17.69 0.67
-2 -5 9 0.14 0.13
2 5 -9 0.14 0.15
2 5 -8 3.79 0.45
-2 -5 8 4.13 0.43
2 5 -7 3.58 0.45
2 5 -6 21.74 1.08
2 5 -5 1.91 0.33
2 5 -5 1.41 0.45
2 5 -4 3.66 0.87
2 5 -4 4.96 0.51
2 5 -3 5.34 0.48
2 5 -3 3.82 0.81
2 5 -2 49.43 2.72
2 5 -1 13.46 1.36
2 5 0 25.53 1.8
2 5 1 1.32 0.39
2 5 2 31.98 1.8
2 5 2 29.63 1.88
2 5 3 22.85 1.61
2 5 3 22.24 1.65
2 5 4 146.04 4.33
-2 -5 -5 26.38 1.85
-2 -5 -6 10.9 1.22
-2 -5 -7 85.66 3.58
2 5 7 88.78 1.85
-2 -5 -8 84.06 3.69
2 5 8 87.93 1.91
2 5 9 12.4 0.73
-2 -5 -9 10.59 1.35
2 5 10 10.34 0.69
2 5 11 28.18 1.12
2 5 12 21.98 0.94
2 5 13 89.8 1.75
2 5 14 21.74 0.75
2 5 15 13.88 0.46
-2 -6 9 4.5 0.31
-2 -6 8 2.98 0.31
2 6 -8 3.08 0.35
2 6 -7 53.56 1.51
2 6 -6 7.38 0.61
2 6 -5 4.89 0.51
2 6 -4 2.44 0.39
2 6 -3 54.46 1.66
2 6 -2 113.25 2.3
2 6 -2 101.77 4.35
2 6 -1 3.66 0.82
2 6 -1 1.81 0.3
2 6 0 -0.11 0.27
2 6 0 0.1 0.12
2 6 1 1.14 0.49
2 6 1 1.07 0.24
-2 -6 -2 101.69 2.02
2 6 2 102.15 4.05
2 6 2 106.53 2.04
2 6 3 1.22 0.47
2 6 3 1.35 0.24
2 6 4 18.16 0.84
2 6 5 1.62 0.26
-2 -6 -5 0.9 0.4
2 6 6 5.77 0.48
-2 -6 -6 5.38 0.93
-2 -6 -7 27.2 2.17
2 6 7 32.39 1.17
2 6 8 3.89 0.41
2 6 9 12.92 0.76
2 6 10 43.87 1.38
2 6 11 0.26 0.14
2 6 12 4.07 0.38
2 6 13 0.41 0.12
2 6 14 8.77 0.39
-2 -7 7 0.08 0.09
2 7 -7 0.19 0.09
2 7 -6 0.41 0.13
2 7 -5 4.71 0.45
2 7 -4 -0.01 0.13
2 7 -3 10.64 0.73
2 7 -2 14.31 0.84
2 7 -1 74.64 1.88
2 7 0 4.44 0.48
2 7 1 35.27 1.27
2 7 2 18.42 0.89
2 7 3 0.8 0.21
2 7 4 23.62 1.01
2 7 5 19.58 0.92
2 7 6 12.08 0.73
2 7 6 11.53 0.59
2 7 7 0.84 0.21
2 7 8 74.83 1.77
2 7 9 0.06 0.11
2 7 10 14.51 0.72
2 7 11 1.56 0.22
2 7 12 9.53 0.48
2 7 12 10.11 0.47
2 7 13 0.03 0.05
2 8 -5 0.92 0.15
2 8 -4 2.66 0.28
2 8 -3 0.6 0.13
2 8 -3 0.52 0.13
2 8 -2 21.75 0.91
2 8 -2 22.4 0.81
2 8 -1 0.26 0.16
2 8 0 0.49 0.18
2 8 1 9 0.62
2 8 2 0.04 0.11
2 8 3 0.57 0.17
2 8 4 11.13 0.67
2 8 5 0.65 0.18
2 8 6 15.04 0.74
2 8 7 1.25 0.21
2 8 8 18.21 0.64
2 8 8 17.34 0.73
2 8 9 7.47 0.4
2 8 9 6.76 0.43
2 8 10 0.19 0.08
2 8 10 0.34 0.1
2 8 11 1.88 0.17
2 8 11 1.52 0.16
2 9 -1 0.53 0.11
2 9 -1 0.76 0.13
2 9 0 0.31 0.12
2 9 0 0.23 0.1
2 9 1 4.25 0.33
2 9 1 5 0.35
2 9 2 1.08 0.17
2 9 2 1.22 0.18
2 9 3 11.44 0.54
2 9 3 11.2 0.56
2 9 4 5.55 0.37
2 9 4 5.43 0.38
2 9 5 7.32 0.41
2 9 5 7.45 0.43
2 9 6 0.05 0.07
2 9 6 0.23 0.08
2 9 7 7.47 0.37
-3 7 4 8.7 0.37
-3 7 -1 1.86 0.18
-3 6 8 0.15 0.08
-3 6 7 12.32 0.53
-3 6 6 36.13 0.97
-3 6 5 61.33 1.32
-3 6 4 12.22 0.62
-3 6 3 9.63 0.57
-3 6 2 0.95 0.19
-3 6 1 1.79 0.26
-3 6 1 1.59 0.23
-3 6 0 43.33 1.14
-3 6 0 39.39 1.12
-3 6 -1 5.65 0.43
-3 6 -2 4.82 0.39
-3 6 -3 0.76 0.17
-3 6 -4 0.4 0.12
-3 6 -5 1.36 0.18
-3 5 10 1.34 0.16
-3 5 9 5.22 0.35
-3 5 8 13.21 0.62
-3 5 7 0.39 0.14
-3 5 6 1.1 0.23
-3 5 5 49.28 1.37
-3 5 4 10.32 0.65
-3 5 3 34.67 1.19
-3 5 2 6.72 0.55
-3 5 2 6.15 0.55
-3 5 1 0.19 0.15
-3 5 1 0.05 0.1
-3 5 0 0.52 0.18
-3 5 0 0.3 0.16
-3 5 -1 40 1.41
-3 5 -1 38.71 1.26
-3 5 -2 0.17 0.15
-3 5 -2 0.17 0.15
-3 5 -3 1.75 0.3
-3 5 -4 3.04 0.39
-3 5 -5 94.82 1.92
-3 5 -6 5.14 0.41
-3 5 -7 0.97 0.17
-3 5 -8 3.68 0.24
-3 4 11 5.28 0.35
-3 4 10 34.01 0.9
-3 4 10 35.1 1.02
-3 4 9 0.07 0.11
-3 4 9 0.22 0.12
-3 4 8 0.87 0.18
-3 4 8 0.84 0.19
-3 4 7 11.69 0.7
-3 4 7 12.36 0.76
-3 4 7 10.8 0.63
-3 4 6 589.46 5.59
-3 4 6 588.06 4.98
-3 4 6 602.47 4.81
-3 4 5 1.28 0.28
-3 4 5 1.05 0.22
-3 4 5 1.08 0.23
-3 4 4 1.3 0.26
-3 4 4 1.53 0.28
-3 4 4 1.25 0.3
-3 4 3 3.18 0.38
-3 4 3 2.49 0.34
-3 4 3 2.36 0.72
-3 4 3 2.99 0.42
-3 4 3 2.7 0.36
-3 4 2 2.24 0.32
-3 4 2 2.19 0.69
-3 4 2 1.85 0.36
-3 4 2 1.97 0.6
-3 4 2 2.48 0.37
3 -4 -2 0.99 0.45
-3 4 1 8.6 1.38
-3 4 1 8.86 0.66
-3 4 1 9.42 0.73
-3 4 1 10.23 1.43
-3 4 1 9.55 0.63
-3 4 0 158.76 2.57
-3 4 0 157.33 5.71
-3 4 0 156.67 2.77
-3 4 0 147.83 5.76
-3 4 0 153.75 2.93
-3 4 -1 78.97 1.8
-3 4 -1 74.76 4.05
-3 4 -1 80.48 2.01
-3 4 -2 15.97 0.81
-3 4 -2 16.01 0.9
-3 4 -3 1.2 0.27
-3 4 -4 45.42 1.52
-3 4 -5 57.15 1.68
-3 4 -6 25.99 1.1
-3 4 -7 10.17 0.65
-3 4 -8 17.37 0.75
3 -4 8 15.57 0.67
-3 4 -9 0.52 0.14
-3 3 12 15.16 0.61
-3 3 11 54.68 1.35
-3 3 10 1.06 0.22
-3 3 9 69.48 1.8
-3 3 9 70.73 1.5
-3 3 8 0.26 0.11
-3 3 8 0.14 0.11
-3 3 7 11.07 0.72
-3 3 7 11.66 0.74
-3 3 7 10.48 0.64
-3 3 6 1.58 0.25
-3 3 6 2.04 0.36
3 -3 -6 0.85 0.35
-3 3 6 1.64 0.3
-3 3 5 558.88 4.5
-3 3 5 557.76 4.94
-3 3 5 554.25 5.35
-3 3 4 155.81 2.5
-3 3 4 152.01 2.34
-3 3 4 152.75 2.79
3 -3 -4 153.22 4.85
-3 3 3 116.61 2.04
-3 3 3 121.73 2.14
-3 3 3 121.25 2.46
-3 3 3 118.92 2.12
-3 3 3 113.29 4.37
3 -3 -3 120.76 4.29
-3 3 2 3.52 0.76
-3 3 2 3.52 0.8
-3 3 2 4.43 0.39
-3 3 2 3.53 0.41
-3 3 2 3.82 0.37
-3 3 1 6.58 0.48
-3 3 1 6.81 0.5
-3 3 1 6.97 0.57
-3 3 1 6.56 1.04
-3 3 1 6.16 1.04
-3 3 0 103.95 4.11
-3 3 0 104.18 1.88
-3 3 0 100.27 2.15
-3 3 0 98.28 1.99
-3 3 0 96.75 4.19
-3 3 -1 67.44 1.52
-3 3 -1 65.24 1.72
-3 3 -1 65.97 1.64
-3 3 -1 65.89 3.37
-3 3 -2 38.22 1.32
-3 3 -2 40.7 1.3
-3 3 -2 39.23 1.19
-3 3 -2 39.24 2.7
-3 3 -3 3.39 0.84
-3 3 -3 3.37 0.37
-3 3 -3 3.43 0.39
-3 3 -4 6.25 0.54
-3 3 -4 5.72 1.15
-3 3 -4 5.85 0.51
-3 3 -5 42.3 1.41
-3 3 -5 37.53 2.9
-3 3 -6 6 0.55
-3 3 -7 0.15 0.12
3 -3 8 2.79 0.33
-3 3 -8 1.9 0.29
3 -3 9 0.32 0.14
-3 3 -9 -0.11 0.1
3 -3 10 0 0.1
-3 3 -10 -0.12 0.09
-3 2 13 20.08 0.65
-3 2 12 29.72 0.99
-3 2 11 14.48 0.78
-3 2 10 18.45 0.95
-3 2 9 0.16 0.13
-3 2 8 14.45 0.85
-3 2 8 14.66 0.84
-3 2 7 293.48 3.73
-3 2 7 282.57 3.65
-3 2 7 288.86 3.09
3 -2 -7 300.48 6.76
-3 2 6 365.34 3.97
-3 2 6 348.62 4.04
-3 2 6 349.28 3.35
3 -2 -6 359.42 7.08
-3 2 6 359.58 3.97
3 -2 -5 5.56 0.83
-3 2 5 5.19 0.45
3 -2 -4 31.19 1.89
3 -2 -3 0.68 0.29
-3 2 3 0.67 0.34
-3 2 2 9.83 1.07
-3 2 2 9.83 1.14
3 -2 -2 10.99 1.06
-3 2 1 146.6 4.49
-3 2 1 146.36 4.13
-3 2 0 1285.37 13.32
-3 2 0 1306.99 12.25
-3 2 -1 2 0.54
-3 2 -2 224.08 5.57
-3 2 -3 346.57 7.39
-3 2 -4 150.1 4.97
-3 2 -5 0.56 0.18
-3 2 -5 0.79 0.35
-3 2 -6 0.61 0.18
-3 2 -6 1.25 0.54
-3 2 -7 1.43 0.26
-3 2 -7 1.49 0.58
-3 2 -8 49.7 1.47
3 -2 8 48.23 1.42
3 -2 9 18.34 0.86
-3 2 -9 17.78 0.85
-3 2 -10 49.45 1.27
3 -2 10 50.55 1.39
3 -2 11 3 0.31
3 -2 12 0.7 0.14
-3 1 13 0.05 0.07
-3 1 12 34.71 1.14
-3 1 11 52.89 1.57
-3 1 11 49.13 1.39
-3 1 10 112.02 2.41
-3 1 10 105.32 2.23
-3 1 9 32.59 1.3
-3 1 9 31.31 1.26
-3 1 8 97.88 2.21
-3 1 8 95.26 2.19
-3 1 7 10.41 0.69
3 -1 -7 11.17 1.24
-3 1 7 9.45 0.66
-3 1 6 193.96 2.84
3 -1 -6 193.59 4.77
3 -1 -5 5.48 0.75
3 -1 -4 89.54 2.78
-3 1 3 198.19 5.33
3 -1 -3 201.36 3.91
-3 1 2 1.45 0.43
3 -1 -2 2.23 0.41
-3 1 2 1.32 0.44
-3 1 1 6.36 0.88
-3 1 1 5.73 0.79
-3 1 1 6.63 0.7
3 -1 -1 5.81 0.62
3 -1 0 102.17 2.24
-3 1 0 102 2.71
-3 1 0 99.54 3.23
-3 1 0 102.36 3.25
-3 1 -1 18.95 1.42
-3 1 -1 17.12 1.28
-3 1 -1 18.5 1.22
-3 1 -2 2.05 0.46
-3 1 -2 1.87 0.44
-3 1 -3 3.15 0.6
-3 1 -3 1.42 0.37
-3 1 -4 1.08 0.37
-3 1 -5 137.9 4.37
-3 1 -6 5.78 0.94
-3 1 -7 3.72 0.38
-3 1 -7 3.33 0.79
-3 1 -8 38.42 1.24
-3 1 -8 37.82 2.72
3 -1 8 38.42 1.22
-3 1 -9 31.6 1.12
3 -1 9 29.91 1.12
-3 1 -10 19.9 0.85
3 -1 10 20.13 0.93
3 -1 11 100.48 1.96
3 -1 12 13.51 0.66
-3 1 -13 5.09 0.38
3 -1 13 4.95 0.33
-3 0 13 25.43 0.81
-3 0 12 1.02 0.21
-3 0 12 0.94 0.19
-3 0 11 11.33 0.71
-3 0 10 14.16 0.85
-3 0 9 7.5 0.63
-3 0 8 104.12 2.31
3 0 -8 108.37 4.1
3 0 -7 428.98 7.48
-3 0 7 416.23 4.4
3 0 -6 179.49 4.41
3 0 -5 47.97 2.07
-3 0 4 19.43 1.66
3 0 -4 16.95 1.09
-3 0 3 246.01 5.53
3 0 -3 245.21 3.7
-3 0 2 8.92 0.99
3 0 -2 8.47 0.61
3 0 -1 1391.59 6.99
-3 0 1 1468.14 11.13
-3 0 0 792.28 7.88
-3 0 0 786.06 5.25
3 0 0 797.04 6.76
3 0 0 796.76 4.91
-3 0 -1 61.47 2.2
3 0 1 60.95 1.82
-3 0 -1 61.81 2.33
-3 0 -1 61.97 1.6
3 0 2 0.27 0.13
-3 0 -2 0.28 0.22
-3 0 -2 0.11 0.16
-3 0 -2 0.17 0.12
-3 0 -3 642.1 6.54
3 0 3 637.81 5.69
-3 0 -3 629.89 6.98
3 0 4 306.45 4.27
-3 0 -4 294.31 4.75
-3 0 -4 292.82 5.04
-3 0 -5 98.15 3.22
-3 0 -5 101.82 2.76
-3 0 -6 11.41 1.23
-3 0 -7 54.11 2.86
-3 0 -8 2.69 0.69
-3 0 -8 2.41 0.3
-3 0 -9 76.86 1.69
3 0 9 75.7 1.75
-3 0 -9 75.89 3.88
-3 0 -10 45.69 1.28
3 0 10 46.05 1.41
3 0 11 7.16 0.56
3 0 12 7.05 0.52
-3 0 -13 0.03 0.1
3 0 13 -0.05 0.08
3 0 14 4 0.28
-3 0 -14 3.32 0.29
-3 -1 13 2.49 0.23
-3 -1 13 1.97 0.2
-3 -1 12 21.75 0.86
-3 -1 12 22.63 0.87
-3 -1 11 10.53 0.7
-3 -1 10 30.84 1.28
-3 -1 9 7.58 0.66
-3 -1 8 22.35 1.11
3 1 -7 88.04 3.4
-3 -1 7 89.04 2.06
3 1 -6 20.21 1.49
-3 -1 5 43.1 2.43
3 1 -5 46.87 2.04
-3 -1 4 194.13 4.8
3 1 -4 197.77 3.73
3 1 -3 2.24 0.35
-3 -1 3 2.41 0.54
3 1 -2 68.98 1.56
-3 -1 1 7.72 0.86
3 1 -1 8.3 0.4
3 1 -1 8.39 0.79
-3 -1 0 18.94 1.29
3 1 0 20.96 1.15
3 1 1 129.83 2.88
-3 -1 -1 126.53 3.28
-3 -1 -2 591.84 5.85
-3 -1 -2 584.87 3.52
3 1 3 243.91 3.93
-3 -1 -3 243.36 3.71
-3 -1 -3 255.15 3.34
3 1 4 205.72 3.87
-3 -1 -4 198.79 3.29
3 1 5 2110.07 13.53
-3 -1 -5 2106.53 10.73
-3 -1 -5 2116.98 11.85
-3 -1 -6 318.84 5.21
-3 -1 -7 25.05 1.63
-3 -1 -8 20.74 1.62
-3 -1 -9 15.1 1.52
3 1 9 13.05 0.71
-3 -1 -9 13.71 0.69
3 1 10 222.95 3.07
3 1 11 46.58 1.42
3 1 12 0.51 0.15
-3 -1 -13 0.97 0.21
3 1 13 1.01 0.22
3 1 14 12.07 0.55
-3 -1 -14 11.67 0.56
-3 -2 12 0.96 0.2
-3 -2 12 1.11 0.17
-3 -2 11 14.07 0.79
-3 -2 10 4.32 0.51
-3 -2 9 243.47 3.68
3 2 -8 85.34 2
3 2 -7 99.55 3.73
3 2 -7 104.78 2.11
3 2 -6 111.98 3.62
3 2 -5 215.69 4.54
-3 -2 4 7.68 0.92
3 2 -4 5.71 0.67
3 2 -3 35.04 1.4
3 2 -3 33.38 1.4
-3 -2 2 717.56 7.88
3 2 -1 1072.83 9.17
-3 -2 1 1051.89 9.23
3 2 0 34.9 1.57
3 2 1 17.38 1.13
3 2 2 646.74 6.7
-3 -2 -3 278.15 2.43
3 2 3 299.97 4.73
3 2 4 34.63 1.69
-3 -2 -4 31.94 1.11
3 2 5 50.61 2.21
-3 -2 -5 56.31 1.79
3 2 6 38.44 2.11
-3 -2 -6 34.88 1.65
-3 -2 -7 3.25 0.59
-3 -2 -8 139.34 4.14
-3 -2 -9 11.99 0.65
-3 -2 -9 13.46 1.39
3 2 9 12.05 0.67
3 2 10 139.17 2.39
-3 -2 -11 0.86 0.2
3 2 11 0.91 0.22
-3 -2 -12 6.82 0.56
3 2 12 6.92 0.54
3 2 13 21.63 0.89
-3 -2 -13 19.5 0.86
-3 -2 -14 0.22 0.1
3 2 14 0.37 0.13
3 2 15 5.33 0.3
-3 -3 12 0.89 0.15
-3 -3 11 16.7 0.81
-3 -3 10 0.16 0.11
-3 -3 10 0.02 0.16
-3 -3 9 79.84 1.85
3 3 -9 77.66 1.93
-3 -3 8 29.41 1.14
3 3 -8 30.86 1.23
3 3 -7 38.95 2.54
3 3 -7 43.84 1.42
3 3 -6 117.08 4.25
3 3 -6 128.89 2.32
3 3 -5 10.49 1.2
3 3 -4 4.78 0.77
3 3 -3 12.88 1.17
3 3 -2 161.6 3.03
-3 -3 2 161.58 3.67
3 3 -2 171.63 4.02
3 3 -1 240.38 4.54
3 3 -1 240.94 3.36
-3 -3 1 244.18 4.56
3 3 0 205.72 4.18
3 3 0 206.29 2.77
3 3 1 30.14 0.99
3 3 1 30.28 1.58
3 3 2 45.04 1.95
-3 -3 -2 46.39 1.28
3 3 3 4.66 0.66
-3 -3 -3 2.09 0.3
3 3 4 432.19 6.47
-3 -3 -4 397.79 4.42
3 3 5 25.45 1.69
-3 -3 -5 8.72 0.75
3 3 6 131.92 4.22
-3 -3 -6 131.08 3.23
3 3 7 40.01 2.39
-3 -3 -7 39.08 1.96
-3 -3 -8 30.35 1.91
-3 -3 -9 138 4.46
-3 -3 -9 139.13 2.23
3 3 9 135.22 2.26
-3 -3 -9 134.77 2.4
3 3 10 120.37 2.26
-3 -3 -10 123.96 2.36
3 3 11 7.12 0.56
-3 -3 -11 6.91 0.56
-3 -3 -12 1.47 0.26
3 3 12 1.55 0.26
3 3 13 24.71 0.95
3 3 14 10.25 0.54
3 3 15 21.15 0.62
3 3 15 21.97 0.68
-3 -4 11 7.85 0.48
-3 -4 10 4.03 0.34
-3 -4 10 6.85 0.54
-3 -4 9 89.49 1.84
3 4 -9 94.57 2.04
-3 -4 8 71.43 1.75
3 4 -8 71.78 1.88
3 4 -7 22.36 1.05
-3 -4 7 23.91 1.04
3 4 -6 51.34 1.57
3 4 -5 4.22 0.44
3 4 -4 8.85 1.04
3 4 -3 227.02 5.16
3 4 -2 694.7 8.76
3 4 -1 41.31 1.79
-3 -4 1 40.61 1.89
3 4 -1 42.19 2.09
3 4 0 1.74 0.35
3 4 0 1.58 0.4
3 4 1 121.91 3.47
3 4 1 120.22 2.84
3 4 2 382.66 6.15
3 4 2 388.66 5.21
3 4 3 49.28 2.29
3 4 4 168.01 4.37
-3 -4 -4 167.2 3.55
-3 -4 -5 136.6 3.39
3 4 5 143.63 4.33
3 4 6 225.54 5.81
-3 -4 -6 219.52 4.59
3 4 7 330.73 7.36
-3 -4 -7 311.3 5.92
3 4 8 58.42 1.43
-3 -4 -8 58.47 1.55
3 4 9 48.61 1.38
-3 -4 -9 49.6 1.45
3 4 10 9.97 0.71
-3 -4 -10 9.43 0.69
3 4 11 12.24 0.73
3 4 12 20.25 0.91
3 4 13 10.02 0.59
3 4 14 13.29 0.62
3 4 15 5.81 0.34
-3 -5 10 4.47 0.36
-3 -5 9 4.98 0.38
3 5 -9 5.62 0.46
-3 -5 8 0.68 0.19
3 5 -8 0.39 0.19
3 5 -7 6.53 0.58
-3 -5 7 6.79 0.55
3 5 -6 33.29 1.32
3 5 -5 16.48 0.91
3 5 -4 37.26 1.32
3 5 -3 0.61 0.18
3 5 -2 0.92 0.21
3 5 -1 10.21 1.1
3 5 0 7.98 0.94
3 5 1 114.29 3.41
3 5 1 112.21 3.57
3 5 2 1.68 0.51
3 5 2 1.57 0.39
3 5 3 278.48 5.94
3 5 4 31.48 2.12
-3 -5 -4 32.2 1.87
3 5 5 229.52 5.99
-3 -5 -5 234.86 5.14
3 5 6 1.68 0.61
-3 -5 -6 2.71 0.57
3 5 7 240.22 3.02
-3 -5 -7 237.29 3.1
3 5 8 76.6 1.79
3 5 9 214.78 3.02
3 5 10 29.36 1.15
3 5 11 78.75 1.85
3 5 12 116.58 2.2
3 5 13 2.7 0.31
3 5 14 6.72 0.43
3 5 15 13.07 0.47
-3 -6 9 28.56 0.79
-3 -6 8 7.74 0.44
3 6 -8 9.02 0.55
3 6 -7 0.33 0.16
-3 -6 7 0.41 0.15
3 6 -6 44.7 1.45
3 6 -5 0.18 0.17
3 6 -4 1.19 0.27
3 6 -3 161.38 2.85
3 6 -2 61.1 1.69
3 6 -1 19.73 0.93
3 6 0 38.18 1.27
-3 -6 0 39.4 1.36
3 6 1 431.29 4.18
-3 -6 -1 435.77 4.46
3 6 2 7.2 0.52
-3 -6 -2 6.58 0.53
-3 -6 -3 0.47 0.16
3 6 3 0.66 0.2
-3 -6 -4 0.64 0.18
3 6 4 0.62 0.23
3 6 4 0.52 0.15
-3 -6 -4 0.66 0.3
3 6 5 65.26 3.38
3 6 5 64.81 1.61
-3 -6 -5 60.2 1.59
3 6 6 0.98 0.23
3 6 7 89.85 1.96
3 6 8 99.3 2.11
3 6 9 16.83 0.88
3 6 10 0.12 0.11
3 6 11 12.1 0.71
3 6 12 97.13 1.88
3 6 13 39.55 1.07
3 6 14 6.25 0.36
-3 -7 7 -0.04 0.07
3 7 -7 0.07 0.1
3 7 -6 2.6 0.31
-3 -7 6 2.17 0.25
3 7 -5 0.11 0.16
3 7 -4 3.09 0.41
3 7 -3 11.04 0.75
3 7 -2 1.73 0.33
3 7 -1 28.64 1.2
3 7 0 0.38 0.2
3 7 1 222.57 3.19
-3 -7 -2 328.57 3.99
3 7 2 338.43 3.86
3 7 3 4.17 0.45
-3 -7 -3 3.54 0.41
3 7 4 64.4 1.68
-3 -7 -4 60.61 1.63
3 7 5 19.14 0.92
3 7 6 53.18 1.55
3 7 7 2.12 0.32
3 7 8 88.52 1.95
3 7 9 43.35 1.34
3 7 10 1.98 0.28
3 7 11 1.89 0.26
3 7 12 24.92 0.82
3 7 13 0.34 0.1
-3 -8 5 0.47 0.11
3 8 -5 0.3 0.11
3 8 -4 8.7 0.53
3 8 -3 11.13 0.66
3 8 -2 1.99 0.31
3 8 -1 7.4 0.57
3 8 0 8.58 0.61
3 8 1 36.77 1.27
3 8 2 11.22 0.71
3 8 3 0.14 0.12
3 8 4 1.59 0.28
3 8 5 -0.07 0.15
3 8 6 0.49 0.19
3 8 7 88.75 1.84
3 8 8 23.16 0.91
3 8 9 0.24 0.13
3 8 9 0.24 0.07
3 8 10 14.47 0.52
3 8 10 16.87 0.69
3 8 11 6.6 0.33
3 8 11 7.39 0.41
3 8 12 0.25 0.07
3 9 -2 5.65 0.35
3 9 -1 0.73 0.15
3 9 -1 0.72 0.13
3 9 0 1.27 0.2
3 9 1 0.29 0.12
3 9 2 9.78 0.55
3 9 3 2.07 0.26
3 9 4 12.84 0.62
3 9 5 0.83 0.18
3 9 6 6.97 0.44
3 9 7 6.75 0.42
3 9 8 17.73 0.63
3 9 9 0.13 0.07
-4 6 5 43.1 0.83
-4 6 4 5.8 0.34
-4 6 3 0.49 0.13
-4 6 2 3.76 0.28
-4 6 1 0.56 0.13
-4 6 0 10.91 0.5
-4 6 -1 6.92 0.39
-4 6 -2 11.92 0.48
-4 5 8 10.68 0.42
-4 5 7 0.06 0.08
-4 5 6 0.5 0.14
-4 5 5 10.81 0.57
-4 5 4 0.63 0.16
-4 5 3 0.37 0.15
-4 5 2 4.66 0.43
-4 5 1 0.02 0.12
-4 5 0 6.4 0.5
-4 5 -1 0.24 0.11
-4 5 -2 6.17 0.45
-4 5 -3 -0.01 0.1
-4 5 -4 3.91 0.35
-4 5 -4 3.71 0.34
-4 5 -5 2.29 0.26
-4 5 -5 1.98 0.22
-4 5 -6 8.68 0.41
-4 4 9 20.6 0.71
-4 4 8 3.19 0.32
-4 4 8 2.91 0.28
-4 4 7 2.13 0.26
-4 4 7 2.34 0.29
-4 4 6 29.19 1.06
-4 4 6 28.85 1.18
-4 4 6 29.34 1
-4 4 5 112.2 2.04
-4 4 5 112.85 2.47
-4 4 4 20.04 0.9
-4 4 4 21.66 1.12
-4 4 3 127.14 2.33
-4 4 3 133.38 2.79
-4 4 2 0.28 0.14
-4 4 2 0.23 0.16
-4 4 1 25.67 1.07
-4 4 1 26 1.22
-4 4 0 7.41 0.59
-4 4 0 6.56 0.52
-4 4 -1 68.05 1.72
-4 4 -1 64.87 1.69
-4 4 -2 5.79 0.52
-4 4 -3 15.24 0.85
-4 4 -4 0.99 0.23
-4 4 -5 0.15 0.13
-4 4 -6 8.52 0.56
-4 4 -6 6.85 0.46
-4 4 -7 0.62 0.17
-4 4 -8 7 0.41
-4 3 11 14.96 0.56
-4 3 10 0.87 0.17
-4 3 9 6.3 0.48
-4 3 8 7.22 0.45
-4 3 8 7.22 0.55
-4 3 7 13 0.76
-4 3 7 12.43 0.65
-4 3 7 12.51 0.78
-4 3 6 52.94 1.41
-4 3 6 54.69 1.57
-4 3 6 50.02 1.66
-4 3 5 4.48 0.44
-4 3 5 4.61 0.49
-4 3 5 5.2 0.56
-4 3 4 7.67 0.57
-4 3 4 8.82 0.72
-4 3 4 8.11 0.63
-4 3 3 73.49 1.73
-4 3 3 74.7 1.84
-4 3 3 77.03 2.13
-4 3 2 127.91 2.33
-4 3 2 131.7 2.76
-4 3 1 5.79 0.51
-4 3 1 5.28 1.07
-4 3 1 5.6 0.58
-4 3 0 11.77 0.73
-4 3 0 11.44 0.81
-4 3 0 10.77 1.56
-4 3 -1 1.09 0.26
-4 3 -1 1.3 0.25
-4 3 -1 1.28 0.27
-4 3 -2 10.69 0.71
-4 3 -2 10.05 0.73
-4 3 -2 9.99 0.68
-4 3 -3 24.2 1.09
-4 3 -4 1.33 0.28
-4 3 -5 20.2 1
-4 3 -6 34.81 1.28
-4 3 -6 31.85 1.13
-4 3 -7 1.3 0.26
-4 3 -8 0.73 0.2
-4 3 -9 1.22 0.2
-4 3 -10 0.49 0.12
-4 3 -10 0.66 0.12
-4 2 12 19.43 0.61
-4 2 11 4.81 0.38
-4 2 10 16.17 0.78
-4 2 9 18.35 0.91
-4 2 8 0.21 0.15
-4 2 7 64.39 1.75
-4 2 7 63.23 1.79
-4 2 6 229.04 2.8
-4 2 6 233.48 3.36
-4 2 6 228.8 3.56
-4 2 5 38.8 1.35
-4 2 5 38.47 1.18
-4 2 5 40.18 1.52
-4 2 4 105.94 2.18
-4 2 4 107.17 2.47
-4 2 3 28.87 1.01
-4 2 3 30.41 1.3
-4 2 3 31.03 1.33
-4 2 3 29.19 1.13
-4 2 2 16.26 0.75
-4 2 2 15.47 0.8
-4 2 2 14.96 0.9
-4 2 2 13.89 0.87
-4 2 2 15.68 1.71
-4 2 1 -0.08 0.11
-4 2 1 -0.04 0.26
-4 2 1 0.1 0.1
-4 2 1 0.1 0.1
-4 2 0 232.03 6.6
-4 2 0 224.26 2.82
-4 2 0 226.37 3.33
-4 2 0 217.15 3.27
-4 2 -1 13.19 0.7
-4 2 -1 12.8 1.59
-4 2 -1 11.64 0.65
-4 2 -1 11.82 0.74
-4 2 -1 12.51 0.77
-4 2 -2 2.72 0.35
-4 2 -2 2.65 0.73
-4 2 -2 2.13 0.29
-4 2 -2 2.43 0.34
-4 2 -2 2.75 0.33
-4 2 -3 170.53 2.56
-4 2 -3 176.44 5.92
-4 2 -3 171.48 2.69
-4 2 -4 26.37 2.35
-4 2 -4 30.08 1.16
-4 2 -5 37.98 2.85
-4 2 -5 43.38 1.41
-4 2 -6 5.34 0.51
-4 2 -7 7.63 0.6
-4 2 -8 18.2 0.9
-4 2 -9 -0.03 0.13
-4 2 -10 -0.02 0.1
-4 2 -11 0.69 0.17
-4 2 -11 0.69 0.13
-4 2 -12 0.32 0.09
-4 1 12 1.73 0.21
-4 1 11 17.88 0.8
-4 1 10 23.48 1.01
-4 1 9 0.34 0.16
-4 1 9 0.42 0.18
-4 1 8 3.22 0.42
-4 1 8 4.11 0.47
-4 1 7 17.14 0.95
-4 1 7 15.93 0.89
-4 1 7 17.47 0.96
-4 1 6 15.74 0.93
-4 1 6 17.69 0.92
-4 1 6 17.23 0.94
-4 1 5 5.03 0.52
-4 1 5 6.17 0.54
-4 1 5 5.94 0.53
-4 1 4 10.48 0.67
-4 1 4 10.25 0.73
-4 1 4 9.22 0.67
-4 1 4 11.19 0.7
-4 1 3 3.67 0.87
-4 1 2 1.35 0.53
-4 1 1 3.18 0.71
-4 1 1 3.6 0.84
-4 1 0 53.51 2.9
-4 1 0 57.69 2.92
-4 1 -1 0.62 0.31
-4 1 -1 0.68 0.32
-4 1 -2 35.85 2.39
-4 1 -2 35.08 2.19
-4 1 -3 1.36 0.46
-4 1 -4 39.79 2.52
-4 1 -5 111.48 4.33
-4 1 -5 117.13 2.14
-4 1 -6 16.95 1.71
-4 1 -6 18.42 0.88
-4 1 -6 17.27 0.79
-4 1 -7 15.82 0.84
-4 1 -8 2.72 0.36
-4 1 -9 14.9 0.8
-4 1 -10 50.83 1.37
-4 1 -11 25.55 0.85
-4 1 -12 22.75 0.86
-4 1 -13 0.32 0.08
-4 0 12 0.72 0.15
-4 0 11 30.17 1.05
-4 0 11 30.94 1.05
-4 0 10 23.64 1.05
-4 0 10 23.75 1.06
-4 0 9 2.24 0.35
-4 0 9 2.31 0.34
-4 0 8 61.19 1.77
-4 0 8 62.38 1.85
-4 0 7 265.4 3.67
-4 0 7 267.48 3.79
-4 0 6 157.75 2.69
-4 0 6 150.16 2.75
-4 0 6 159.29 2.79
-4 0 5 37 1.26
-4 0 5 36.55 1.33
-4 0 5 37.03 1.3
-4 0 4 441.29 9.23
-4 0 3 151.86 5.22
-4 0 2 62.14 3.2
4 0 -2 64.25 2.69
-4 0 1 1149.45 13.14
4 0 -1 1194.88 10.75
4 0 0 65.27 2.37
-4 0 0 61.73 2.73
4 0 1 66.51 2.25
-4 0 -1 65.43 2.71
-4 0 -2 255.87 5.43
-4 0 -3 72.69 2.97
-4 0 -3 70.64 2.91
-4 0 -4 123.23 3.86
-4 0 -4 124.07 3.77
-4 0 -5 2.52 0.6
-4 0 -6 0.44 0.18
-4 0 -7 141.12 2.34
-4 0 -8 15.76 0.81
-4 0 -9 14.75 0.78
-4 0 -10 16.6 0.81
-4 0 -11 0.63 0.18
-4 0 -12 12.83 0.73
-4 0 -13 10.71 0.57
-4 0 -14 2.58 0.22
-4 -1 12 39.68 0.94
-4 -1 12 44.92 1.04
-4 -1 11 3.1 0.33
-4 -1 11 3.41 0.36
-4 -1 10 16.43 0.84
-4 -1 10 16.84 0.92
-4 -1 9 -0.06 0.13
-4 -1 9 0.16 0.14
-4 -1 8 32.31 1.26
-4 -1 8 32.94 1.37
-4 -1 7 0.83 0.27
-4 -1 7 0.84 0.24
-4 -1 6 60.56 1.63
-4 -1 6 57.8 1.65
-4 -1 6 62.36 1.74
-4 -1 5 1.61 0.25
-4 -1 5 0.88 0.46
-4 -1 5 1.06 0.25
-4 -1 4 43.83 2.76
-4 -1 3 0.43 0.27
4 1 -2 8 0.96
4 1 -1 5.41 0.75
4 1 0 264.37 4.92
-4 -1 0 267.54 5.83
4 1 1 34.13 1.73
-4 -1 -1 32.36 2
-4 -1 -2 5.51 0.83
4 1 2 5.97 0.72
-4 -1 -2 5.53 0.74
4 1 3 47.95 2.01
-4 -1 -3 45.29 2.34
-4 -1 -3 45.79 2.02
4 1 4 1946.61 13.01
-4 -1 -4 1922.14 12.69
-4 -1 -4 1910.43 15.15
-4 -1 -5 98.91 2.88
4 1 5 98.01 3.08
-4 -1 -5 90.94 3.28
-4 -1 -6 2.71 0.59
-4 -1 -7 0.9 0.2
-4 -1 -8 1.17 0.23
-4 -1 -9 1.73 0.27
-4 -1 -10 140.59 2.37
-4 -1 -11 85.64 1.76
-4 -1 -12 0.77 0.23
-4 -1 -13 10.61 0.61
-4 -1 -14 3.5 0.29
-4 -2 12 0.17 0.09
-4 -2 11 47.86 1.13
-4 -2 11 63.41 1.51
-4 -2 10 1.32 0.23
-4 -2 10 1.65 0.32
-4 -2 9 0.12 0.16
-4 -2 9 0.21 0.15
-4 -2 8 77.94 2.14
-4 -2 7 732.2 6.4
-4 -2 6 107.4 2.35
-4 -2 5 146.52 2.38
-4 -2 5 140.69 4.87
-4 -2 5 142.79 2.57
-4 -2 4 1.47 0.49
-4 -2 3 136.22 4.45
4 2 -3 140.69 4.25
4 2 -2 223.98 5.08
-4 -2 1 898.87 10.7
4 2 -1 903.81 9.62
-4 -2 0 0.88 0.4
4 2 0 0.77 0.34
4 2 1 974.47 9.6
-4 -2 -1 951.79 10.88
4 2 2 1.08 0.42
4 2 3 652.74 7.81
4 2 4 376.16 6.15
4 2 5 393.34 6.63
4 2 6 459.53 7.62
4 2 7 185.54 5.2
-4 -2 -8 26.03 0.99
-4 -2 -9 109.02 2.29
-4 -2 -9 110.51 2.1
-4 -2 -10 5.87 0.55
-4 -2 -10 6.36 0.52
-4 -2 -11 6.92 0.6
-4 -2 -11 6.61 0.5
-4 -2 -12 51.8 1.53
-4 -2 -13 0.01 0.1
-4 -2 -14 0.17 0.1
-4 -3 11 0.86 0.17
-4 -3 10 14.1 0.79
-4 -3 9 8.02 0.67
-4 -3 8 11.09 0.82
-4 -3 7 22.25 1.16
4 3 -6 325.21 7.63
4 3 -5 129.64 4.61
-4 -3 5 127.85 2.44
4 3 -4 29.83 2.13
4 3 -3 8.42 1.05
4 3 -2 35.56 2.09
-4 -3 2 32 2.04
4 3 -1 59.21 2.58
-4 -3 1 58.21 2.66
4 3 0 51.92 2.39
-4 -3 0 48.36 2.54
4 3 1 20.31 1.45
4 3 2 9.06 0.99
4 3 3 117.02 3.49
4 3 4 428.62 6.93
4 3 5 11.69 1.21
4 3 6 68.74 3.13
4 3 7 3.54 0.74
-4 -3 -8 13.41 0.77
-4 -3 -8 12.56 0.69
-4 -3 -9 43.77 1.34
-4 -3 -9 44.67 1.45
-4 -3 -10 362.37 3.85
-4 -3 -10 364.1 4.22
-4 -3 -11 1.26 0.28
-4 -3 -11 1.19 0.23
-4 -3 -12 60.73 1.64
-4 -3 -13 4.99 0.43
4 3 14 5.08 0.35
-4 -3 -14 4.88 0.36
-4 -4 11 3.06 0.26
-4 -4 10 1.58 0.25
-4 -4 9 12.97 0.78
4 4 -8 156.37 2.59
-4 -4 8 179.07 3.04
4 4 -7 33.98 1.25
4 4 -6 39.77 1.36
4 4 -5 37.07 2.48
4 4 -5 41.45 1.37
4 4 -4 19.17 1.73
-4 -4 4 20.96 0.89
4 4 -4 20.76 0.93
4 4 -3 0.03 0.2
4 4 -2 230.57 5.61
4 4 -1 461.33 7.77
-4 -4 1 408.82 7.11
4 4 0 370.93 6.7
-4 -4 0 351.38 6.71
4 4 1 265.08 5.61
4 4 2 744.03 9.42
4 4 3 151.72 4.3
4 4 4 4.17 0.76
4 4 5 66.56 3.09
4 4 6 41.03 2.58
4 4 7 65.83 3.39
-4 -4 -7 64.49 1.56
-4 -4 -7 63.17 1.64
-4 -4 -8 74.27 1.74
-4 -4 -8 74.35 1.84
-4 -4 -9 140.54 2.58
-4 -4 -10 24.55 1.09
-4 -4 -11 16.63 0.88
4 4 12 5.95 0.43
-4 -4 -12 6.43 0.52
-4 -4 -13 0.02 0.08
4 4 13 0.09 0.08
4 4 13 0.24 0.12
4 4 14 2.5 0.26
4 4 15 8.71 0.37
-4 -5 10 0.22 0.09
-4 -5 9 19.88 0.82
-4 -5 8 0.65 0.21
4 5 -8 0.28 0.13
4 5 -7 2.89 0.37
4 5 -6 2.35 0.34
4 5 -5 9.02 0.67
4 5 -4 13.07 0.78
4 5 -3 3.04 0.71
4 5 -3 2.94 0.37
4 5 -2 8.63 1.14
4 5 -2 10 0.63
-4 -5 2 10.38 0.7
4 5 -1 19.03 1.65
4 5 -1 19.81 0.85
-4 -5 1 18.58 0.92
4 5 0 3.88 0.75
-4 -5 0 2.92 0.61
4 5 1 1.24 0.41
4 5 2 12.81 1.33
4 5 3 56.74 2.87
4 5 4 53.82 2.85
4 5 5 35.43 2.48
-4 -5 -6 1.64 0.28
4 5 6 2.1 0.63
4 5 6 2.07 0.29
4 5 7 40.18 2.85
4 5 7 39.9 1.23
-4 -5 -7 38.24 1.32
4 5 8 5.72 0.49
-4 -5 -8 6 0.54
4 5 9 157.27 2.57
-4 -5 -9 151.38 2.7
4 5 10 68.56 1.7
-4 -5 -10 67.29 1.77
4 5 11 10.51 0.67
-4 -5 -11 10.61 0.67
4 5 12 19.53 0.86
4 5 13 6.75 0.47
4 5 14 9.51 0.47
4 6 -8 31.75 0.93
-4 -6 8 31.01 0.92
-4 -6 7 1.58 0.25
4 6 -7 1.75 0.27
4 6 -6 9.22 0.64
4 6 -5 12.78 0.78
4 6 -4 19.44 1
4 6 -3 25.64 1.12
4 6 -2 93.77 2.08
4 6 -1 2.81 0.38
-4 -6 1 2.99 0.4
4 6 0 35.95 1.24
-4 -6 0 35.9 1.36
4 6 1 11.18 1.32
4 6 1 12.77 0.72
-4 -6 -1 11.02 0.74
4 6 2 138.81 4.72
4 6 2 141.29 2.39
-4 -6 -2 147.63 2.6
4 6 3 23.49 1.99
4 6 3 26.6 1.01
-4 -6 -3 26.96 1.11
4 6 4 2.67 0.7
4 6 4 2.91 0.34
-4 -6 -4 3.8 0.42
4 6 5 53.85 3.26
4 6 5 59.61 1.54
-4 -6 -5 56.69 1.64
4 6 6 7.43 1.28
4 6 6 7.73 0.57
-4 -6 -6 7.46 0.6
4 6 7 13.68 0.76
-4 -6 -7 12.72 0.78
4 6 8 44.25 1.38
-4 -6 -8 41.63 1.39
4 6 9 70.67 1.77
-4 -6 -9 68.36 1.76
4 6 10 32.83 1.18
4 6 11 14.21 0.76
4 6 12 13.49 0.68
4 6 13 1.36 0.2
4 6 14 0.11 0.07
4 7 -7 -0.02 0.07
-4 -7 6 0.82 0.16
4 7 -6 0.67 0.16
4 7 -5 2.6 0.33
4 7 -4 3.12 0.39
4 7 -3 1.8 0.33
4 7 -2 0.1 0.14
4 7 -1 0.35 0.17
4 7 0 22.66 1.04
4 7 1 107.95 2.21
-4 -7 -1 108.87 2.4
-4 -7 -2 0.34 0.17
4 7 2 0.76 0.22
-4 -7 -3 2.58 0.37
4 7 3 3.01 0.38
4 7 4 75.13 1.8
-4 -7 -4 71.07 1.86
4 7 5 82.6 1.91
-4 -7 -5 75.39 1.88
-4 -7 -6 0.46 0.16
4 7 6 0.63 0.22
-4 -7 -7 1.77 0.29
4 7 7 1.57 0.29
4 7 8 31.99 1.17
4 7 9 74.86 1.74
4 7 10 4.77 0.43
4 7 11 4.56 0.39
4 7 12 2.7 0.28
4 7 13 0.6 0.12
4 8 -5 0.14 0.1
4 8 -4 15.18 0.67
4 8 -3 24.84 0.94
4 8 -2 0.47 0.19
4 8 -1 16.84 0.85
4 8 0 4.44 0.46
4 8 1 40.96 1.32
4 8 2 1.25 0.28
4 8 3 0.77 0.21
-4 -8 -4 45.23 1.4
4 8 4 46.71 1.41
-4 -8 -5 1.44 0.25
4 8 5 1.82 0.29
4 8 6 2.13 0.31
4 8 7 20.97 0.91
4 8 8 11.64 0.67
4 8 9 71.04 1.54
4 8 10 0.34 0.14
4 8 11 0.44 0.13
4 8 12 0.17 0.07
4 9 -2 3.72 0.3
4 9 -1 0.56 0.16
4 9 0 0.36 0.13
4 9 1 8.53 0.54
4 9 2 0.54 0.15
4 9 3 1.05 0.21
4 9 4 2.15 0.28
4 9 5 1.84 0.26
4 9 6 0.76 0.16
4 9 7 14.81 0.65
4 9 8 25.59 0.8
4 9 9 0.12 0.08
4 9 10 0.77 0.12
-5 5 2 10.1 0.44
-5 5 1 0.51 0.12
-5 5 0 9.25 0.48
-5 5 -1 0.28 0.08
-5 5 -2 11.63 0.5
-5 5 -3 5.8 0.32
-5 4 6 0.5 0.12
-5 4 5 16.86 0.68
-5 4 4 0.73 0.17
-5 4 3 9.84 0.59
-5 4 3 9.08 0.53
-5 4 2 14.09 0.72
-5 4 2 12.35 0.68
-5 4 1 1.48 0.27
-5 4 1 1.72 0.27
-5 4 0 4.06 0.43
-5 4 -1 0.04 0.17
-5 4 -2 0.06 0.09
-5 4 -2 0.26 0.16
-5 4 -3 7.97 0.5
-5 4 -3 11.37 0.64
-5 4 -4 0.32 0.14
-5 4 -4 -0.02 0.12
-5 4 -5 0.02 0.09
-5 4 -5 0.05 0.09
-5 4 -6 0.48 0.11
-5 4 -6 0.58 0.12
-5 3 8 8.36 0.49
-5 3 7 23.94 0.91
-5 3 7 22.74 0.92
-5 3 6 0.2 0.1
-5 3 6 0.19 0.1
-5 3 6 0.35 0.19
-5 3 5 16.51 0.74
-5 3 5 16.85 0.94
-5 3 4 74.81 1.64
-5 3 4 76.5 2.08
-5 3 3 291.99 3.35
-5 3 3 293.45 4.14
-5 3 3 281.39 3.31
-5 3 2 13.58 0.77
-5 3 2 13.68 0.9
-5 3 2 12.52 0.75
-5 3 1 61.71 1.64
-5 3 1 61.23 1.87
-5 3 1 60.96 1.7
-5 3 0 14.82 0.83
-5 3 0 15.07 0.93
-5 3 -1 18.61 0.92
-5 3 -1 18.88 1.01
-5 3 -2 2.6 0.34
-5 3 -3 21.42 0.96
-5 3 -3 22.16 1.03
-5 3 -4 25.81 1.06
-5 3 -4 26.07 1.08
-5 3 -5 4.69 0.45
-5 3 -5 4.51 0.43
-5 3 -6 4.14 0.39
-5 3 -6 4.55 0.39
-5 3 -7 0.34 0.13
-5 3 -8 5.15 0.36
-5 3 -9 2.1 0.2
-5 2 10 13.35 0.56
-5 2 9 2.8 0.3
-5 2 8 15.84 0.77
-5 2 7 13.35 0.75
-5 2 7 12.78 0.77
-5 2 6 34.43 1.26
-5 2 6 33.4 1.35
-5 2 5 51.27 1.57
-5 2 5 52.36 1.76
-5 2 4 3.69 0.38
-5 2 4 3.64 0.44
-5 2 4 3.54 0.49
-5 2 3 206.34 2.79
-5 2 3 216.92 3.22
-5 2 3 212.95 3.65
-5 2 2 58.39 1.95
-5 2 2 55.57 1.49
-5 2 2 57.13 1.87
-5 2 2 54.28 1.56
-5 2 1 39.96 1.59
-5 2 1 38.69 1.26
-5 2 1 39.34 1.53
-5 2 1 38.1 1.34
-5 2 0 5.94 0.51
-5 2 0 6.46 0.63
-5 2 0 6.52 0.62
-5 2 -1 19.49 1.06
-5 2 -1 20.76 0.96
-5 2 -1 21.13 1.08
-5 2 -2 36.5 1.41
-5 2 -2 35.43 1.23
-5 2 -2 37.14 1.38
-5 2 -2 37.96 1.29
-5 2 -3 9.7 0.67
-5 2 -4 25.17 1.09
-5 2 -4 24.74 1.12
-5 2 -5 24.9 1.08
-5 2 -5 23.63 1.04
-5 2 -6 2.33 0.37
-5 2 -6 2.12 0.3
-5 2 -7 0.63 0.21
-5 2 -7 0.21 0.11
-5 2 -8 2.88 0.31
-5 2 -8 3.45 0.38
-5 2 -9 0.25 0.12
-5 2 -9 0.42 0.14
-5 2 -10 2.52 0.24
-5 2 -10 1.92 0.21
-5 1 11 12.07 0.49
-5 1 10 0.41 0.13
-5 1 9 31.4 1.08
-5 1 8 5.95 0.51
-5 1 7 20.96 0.99
-5 1 7 18.67 0.98
-5 1 6 55.63 1.65
-5 1 6 52.27 1.75
-5 1 5 26.5 1.27
-5 1 5 27.17 1.15
-5 1 4 27.58 1.31
-5 1 4 27.42 1.29
-5 1 4 28.28 1.16
-5 1 3 52.3 1.55
-5 1 3 51.56 1.76
-5 1 3 52.77 1.77
-5 1 2 33.47 1.42
-5 1 2 32.89 1.07
-5 1 2 34.75 1.25
-5 1 2 32.31 2.87
-5 1 2 34.97 1.43
-5 1 2 33.41 1.15
-5 1 1 1.12 0.22
-5 1 1 1.3 0.27
-5 1 1 1.59 0.65
-5 1 1 0.98 0.27
-5 1 1 1.06 0.2
-5 1 0 49.18 1.67
-5 1 0 46.86 1.3
-5 1 0 50.27 1.64
-5 1 0 49.23 1.46
-5 1 -1 25.92 1.19
-5 1 -1 25.07 0.95
-5 1 -1 24.06 2.21
-5 1 -1 26.51 1.17
-5 1 -1 25.74 1.05
-5 1 -1 26.87 2.33
-5 1 -2 0.88 0.24
-5 1 -2 0.7 0.46
-5 1 -2 0.86 0.2
-5 1 -2 0.81 0.19
-5 1 -2 0.92 0.25
-5 1 -2 0.98 0.22
-5 1 -3 206.18 6.35
-5 1 -3 188.96 3.1
-5 1 -3 191.5 2.8
-5 1 -3 201.15 2.98
-5 1 -4 72.93 3.81
-5 1 -4 72.39 1.86
-5 1 -4 72.56 1.79
-5 1 -4 70.09 1.78
-5 1 -5 22.48 1.01
-5 1 -5 21.9 0.99
-5 1 -6 3.34 0.42
-5 1 -6 3.23 0.39
-5 1 -7 3.86 0.44
-5 1 -7 3.68 0.38
-5 1 -8 1.19 0.26
-5 1 -9 9.59 0.65
-5 1 -9 9.32 0.61
-5 1 -10 65.38 1.58
-5 1 -10 71.84 1.5
-5 1 -11 2.38 0.27
-5 1 -11 2.31 0.24
-5 1 -12 11.55 0.48
-5 0 11 2.09 0.22
-5 0 10 10.76 0.58
-5 0 9 0.69 0.18
-5 0 9 0.64 0.21
-5 0 8 76.56 1.86
-5 0 8 77.81 2.03
-5 0 7 6.26 0.58
-5 0 7 6.32 0.56
-5 0 7 6.53 0.61
-5 0 6 220.74 3.25
-5 0 6 219.09 3.59
-5 0 6 223.46 3.48
5 0 -5 0.16 0.3
-5 0 5 0.4 0.21
-5 0 5 0.26 0.2
-5 0 5 0.6 0.22
-5 0 4 130.39 2.64
-5 0 4 127.22 2.37
-5 0 4 123.76 2.17
-5 0 4 131.29 5.83
-5 0 4 130.84 2.8
-5 0 4 135.04 2.59
5 0 -3 6.54 1.05
-5 0 3 5.79 0.51
-5 0 3 6.14 0.57
-5 0 3 5.54 0.45
-5 0 3 5.9 0.58
-5 0 3 5.82 1.19
-5 0 3 6.02 0.54
-5 0 2 55.56 1.69
-5 0 2 54.45 1.46
-5 0 2 53.08 3.5
-5 0 2 53.78 1.71
5 0 -2 55.72 2.8
-5 0 1 139.16 2.65
-5 0 1 136.21 2.3
-5 0 1 141.16 2.67
-5 0 0 232.66 3.42
-5 0 0 220.85 6.63
-5 0 -1 42.6 2.83
-5 0 -2 138.03 2.57
-5 0 -2 144.93 2.34
-5 0 -2 144.51 4.83
-5 0 -3 0.82 0.22
-5 0 -3 0.43 0.34
-5 0 -3 0.43 0.15
-5 0 -3 0.44 0.18
-5 0 -4 2.42 0.35
-5 0 -4 2.69 0.67
-5 0 -4 2.86 0.33
-5 0 -4 2.58 0.32
-5 0 -5 22.79 1.02
-5 0 -5 24.33 1
-5 0 -5 22.57 0.95
-5 0 -6 4.12 0.44
-5 0 -6 3.22 0.37
-5 0 -7 0.06 0.14
-5 0 -7 -0.07 0.12
-5 0 -8 0.57 0.2
-5 0 -9 0.91 0.25
-5 0 -10 6.51 0.5
-5 0 -10 5.34 0.5
-5 0 -11 3.43 0.39
-5 0 -11 3.48 0.33
-5 0 -12 8.06 0.41
-5 0 -12 8.56 0.53
-5 0 -13 0.35 0.09
-5 -1 11 8.23 0.39
-5 -1 10 4.67 0.38
-5 -1 10 5.97 0.47
-5 -1 9 4.13 0.41
-5 -1 9 4.5 0.48
-5 -1 8 10.62 0.69
-5 -1 8 11.12 0.79
-5 -1 7 4.3 0.45
-5 -1 7 4.53 0.49
-5 -1 7 4.63 0.52
-5 -1 6 35.3 1.29
-5 -1 6 33.84 1.37
-5 -1 6 35.39 1.41
-5 -1 5 8.67 1.47
-5 -1 5 9.05 0.64
-5 -1 5 8.24 0.7
-5 -1 5 9.44 0.71
5 1 -5 6.8 1.14
5 1 -4 12.13 1.5
-5 -1 4 13.59 0.79
-5 -1 4 12.63 0.71
-5 -1 4 13.48 0.75
-5 -1 4 13.63 1.78
-5 -1 4 13.03 0.85
-5 -1 4 12.92 0.79
-5 -1 3 1.18 0.25
-5 -1 3 0.61 0.17
-5 -1 3 1.35 0.24
5 1 -3 1.14 0.45
-5 -1 3 0.91 0.5
-5 -1 3 1.04 0.26
-5 -1 3 1.1 0.23
5 1 -2 16.77 1.59
-5 -1 2 15.04 1.73
5 1 -1 214.54 5.4
5 1 0 2.31 0.56
5 1 1 4.09 0.71
5 1 2 74.61 2.88
-5 -1 -2 67.16 3.4
-5 -1 -3 178.55 5.47
-5 -1 -4 81.48 3.64
-5 -1 -5 60.03 1.49
-5 -1 -5 60.86 1.51
-5 -1 -5 57.38 2.98
-5 -1 -6 98.08 2.1
-5 -1 -6 98.28 1.96
-5 -1 -6 92.24 1.85
-5 -1 -7 191.4 3.07
-5 -1 -7 195.98 2.86
-5 -1 -7 187.33 2.62
-5 -1 -8 61.74 1.78
-5 -1 -8 60.17 1.64
-5 -1 -9 123.78 2.55
-5 -1 -9 118.8 2.26
-5 -1 -10 7.71 0.63
-5 -1 -10 6.73 0.53
-5 -1 -11 52.97 1.58
-5 -1 -11 48.58 1.29
-5 -1 -12 7.48 0.45
-5 -1 -12 8.13 0.57
-5 -1 -13 2.16 0.26
-5 -2 11 0.08 0.1
-5 -2 10 4.08 0.41
-5 -2 9 11.86 0.62
-5 -2 9 14.69 0.86
-5 -2 8 0.56 0.17
-5 -2 8 0.5 0.23
-5 -2 7 44.3 1.36
-5 -2 7 47.51 1.68
-5 -2 6 93.32 2.23
-5 -2 6 98.67 2.33
5 2 -5 44.32 2.98
-5 -2 5 43.7 1.4
-5 -2 5 40.5 3.01
-5 -2 5 41.46 1.51
-5 -2 5 40.51 1.5
5 2 -4 142.11 5.03
-5 -2 4 138.64 2.4
-5 -2 4 131.42 5.27
-5 -2 4 134.63 2.68
-5 -2 4 143.99 2.63
5 2 -3 91.32 3.84
-5 -2 3 94.04 1.91
-5 -2 3 88.59 4.24
-5 -2 3 93.87 2.17
-5 -2 3 94.95 2.05
5 2 -2 75.15 3.34
5 2 -1 105.34 3.83
5 2 0 181.16 4.94
-5 -2 0 167.86 5.4
5 2 1 20.65 1.63
-5 -2 -1 19.48 1.81
5 2 2 56.66 2.68
-5 -2 -2 54.36 2.99
5 2 3 0.84 0.32
-5 -2 -3 0.73 0.44
5 2 4 105.58 3.64
-5 -2 -4 103.06 4.17
5 2 5 4.87 0.82
-5 -2 -5 5.1 0.95
-5 -2 -6 8.81 0.62
5 2 6 6.96 1.02
-5 -2 -6 7.9 0.55
-5 -2 -7 153.96 2.69
-5 -2 -7 151.93 2.48
-5 -2 -8 105.15 2.3
-5 -2 -8 105.55 2.12
-5 -2 -9 0.19 0.15
-5 -2 -9 0.14 0.14
-5 -2 -10 20.46 1.03
-5 -2 -10 18.73 0.89
-5 -2 -11 3.12 0.35
-5 -2 -11 3.23 0.42
-5 -2 -12 9.88 0.54
-5 -2 -12 10.14 0.65
-5 -2 -13 6.76 0.47
-5 -2 -14 0.88 0.15
-5 -3 11 3.03 0.25
-5 -3 10 0.16 0.11
-5 -3 9 1.24 0.26
-5 -3 8 5.12 0.53
-5 -3 7 105.18 2.41
-5 -3 6 41.45 1.45
-5 -3 6 44.68 1.58
-5 -3 5 19.38 1.04
-5 -3 5 21.56 1.08
5 3 -4 104.64 4.35
-5 -3 4 108.53 2.17
-5 -3 4 104.31 2.38
-5 -3 4 106.51 2.3
5 3 -3 108.94 4.25
-5 -3 3 111.09 2.11
-5 -3 3 101.3 4.37
-5 -3 3 107.34 2.35
-5 -3 3 107.23 2.19
5 3 -2 1.08 0.48
-5 -3 2 1.37 0.24
-5 -3 2 0.98 0.25
5 3 -1 75.44 3.35
-5 -3 1 74.29 3.61
5 3 0 10.75 1.24
-5 -3 0 8.65 1.22
5 3 1 11.83 1.27
-5 -3 -1 11.65 1.44
5 3 2 327.8 6.65
-5 -3 -2 321.9 7.48
5 3 3 32.9 2.09
5 3 4 10.22 1.2
5 3 5 69.89 3.19
5 3 6 11.47 1.38
-5 -3 -6 11.5 0.66
-5 -3 -6 10.56 0.69
5 3 7 -0.14 0.31
-5 -3 -7 0.15 0.13
-5 -3 -7 0.37 0.18
-5 -3 -8 167.45 2.66
-5 -3 -8 163.12 2.83
-5 -3 -9 47.51 1.44
-5 -3 -9 48.49 1.57
-5 -3 -10 56.46 1.58
-5 -3 -10 58.65 1.74
-5 -3 -11 37.24 1.19
-5 -3 -11 39.21 1.38
-5 -3 -12 5.42 0.5
-5 -3 -13 18.29 0.79
-5 -3 -14 2.55 0.25
-5 -4 10 1.43 0.2
-5 -4 9 1.95 0.27
-5 -4 8 45.92 1.44
-5 -4 7 48.13 1.59
-5 -4 6 9.54 0.7
-5 -4 6 10.48 0.77
-5 -4 5 84.19 2.13
-5 -4 5 83.85 2.13
5 4 -4 32.3 2.45
-5 -4 4 37.26 1.28
-5 -4 4 37.01 1.43
-5 -4 4 35.33 1.33
5 4 -3 15.27 1.65
-5 -4 3 16.09 0.82
-5 -4 3 15.86 0.84
5 4 -2 28.13 2.19
-5 -4 2 29.16 1.07
-5 -4 2 28 1.07
5 4 -1 140.34 4.75
-5 -4 1 127.8 4.7
5 4 0 31.91 2.2
-5 -4 0 30.04 2.3
5 4 1 4.23 0.81
-5 -4 -1 6.89 1.12
5 4 2 176.14 5.04
5 4 3 3.07 0.69
5 4 4 7.12 1.05
5 4 5 21.65 1.86
-5 -4 -5 22.55 0.91
-5 -4 -5 21.92 0.98
5 4 6 4.26 0.89
-5 -4 -6 3.52 0.38
-5 -4 -6 3.72 0.42
-5 -4 -7 3.93 0.43
5 4 7 3.52 0.88
-5 -4 -7 4.27 0.45
5 4 8 3.72 0.87
-5 -4 -8 3.13 0.39
-5 -4 -8 3.72 0.44
-5 -4 -9 41.17 1.36
5 4 9 39.64 1.21
-5 -4 -9 40.69 1.44
5 4 10 12.62 0.68
-5 -4 -10 12.41 0.81
-5 -4 -11 0.67 0.21
5 4 11 0.47 0.16
5 4 12 3.38 0.34
-5 -4 -12 3.59 0.39
-5 -4 -13 1.51 0.23
5 4 13 1.65 0.21
-5 -4 -14 0.28 0.09
5 4 14 0.32 0.09
-5 -5 9 1.72 0.22
-5 -5 8 0.67 0.17
-5 -5 7 4.34 0.43
-5 -5 6 3.87 0.41
5 5 -6 4.14 0.41
-5 -5 6 3.99 0.45
-5 -5 5 -0.06 0.13
-5 -5 5 0.1 0.15
5 5 -5 0.31 0.16
-5 -5 4 -0.06 0.12
5 5 -4 0.28 0.16
-5 -5 3 2.44 0.33
5 5 -2 18.01 1.77
-5 -5 2 18.86 0.85
-5 -5 2 20.35 0.98
5 5 -1 10.81 1.35
-5 -5 1 10.85 0.64
-5 -5 1 10.83 0.73
5 5 0 11.04 1.39
-5 -5 0 9.66 1.3
-5 -5 0 10.51 0.68
5 5 1 143.31 4.83
-5 -5 -1 135.11 5
5 5 2 38.66 2.5
-5 -5 -2 42.49 1.41
5 5 3 9.41 1.25
-5 -5 -3 9.46 0.67
5 5 4 60.81 3.25
-5 -5 -4 63.48 1.7
5 5 5 0.09 0.24
-5 -5 -5 0.71 0.21
5 5 5 0.44 0.15
5 5 6 33.9 2.6
5 5 6 32.85 1.09
-5 -5 -6 33.53 1.28
5 5 7 184.23 6.2
5 5 7 174.48 2.59
-5 -5 -7 178.13 2.98
5 5 8 146.31 2.41
-5 -5 -8 148.79 2.75
5 5 9 136.21 2.33
-5 -5 -9 138.04 2.67
5 5 10 45.52 1.33
-5 -5 -10 45.67 1.48
5 5 11 5.57 0.46
-5 -5 -11 5.08 0.47
5 5 12 11.52 0.61
-5 -5 -12 11.42 0.65
5 5 13 4.23 0.33
-5 -5 -13 4.32 0.35
5 5 14 -0.05 0.07
-5 -6 8 12.97 0.5
-5 -6 7 0.05 0.09
5 6 -7 0.1 0.08
-5 -6 6 13.91 0.67
5 6 -6 14.7 0.69
-5 -6 6 13.51 0.68
-5 -6 5 15.87 0.83
5 6 -5 15.56 0.78
-5 -6 5 14.47 0.75
5 6 -4 68.38 1.73
5 6 -3 0.06 0.13
5 6 -2 154.87 2.67
-5 -6 1 1.69 0.33
5 6 -1 1.21 0.26
5 6 0 34.39 1.22
-5 -6 0 34.67 1.32
5 6 1 27.86 1.08
-5 -6 -1 28.71 1.2
-5 -6 -2 0.38 0.17
5 6 2 0.12 0.26
5 6 2 0.61 0.2
-5 -6 -3 0.4 0.19
5 6 3 0.48 0.17
5 6 4 7.15 1.18
5 6 4 7.83 0.57
-5 -6 -4 7.85 0.64
5 6 5 6.97 1.18
5 6 5 5.94 0.48
-5 -6 -5 5.88 0.56
5 6 6 25.5 1.02
-5 -6 -6 25.44 1.15
5 6 7 18.76 0.88
-5 -6 -7 17.43 0.95
5 6 8 4.81 0.45
-5 -6 -8 4.79 0.51
-5 -6 -9 2.5 0.36
5 6 9 2.28 0.32
5 6 10 11.05 0.65
-5 -6 -10 10.58 0.69
5 6 11 3.04 0.32
-5 -6 -11 2.59 0.32
5 6 12 7.7 0.47
-5 -6 -12 7.4 0.47
5 6 13 8.25 0.43
5 7 -6 0.12 0.09
-5 -7 5 0.34 0.12
5 7 -5 0.4 0.13
5 7 -4 4.16 0.4
5 7 -3 0.26 0.12
5 7 -2 0.4 0.17
5 7 -1 12.57 0.75
5 7 0 13.87 0.8
5 7 1 65.11 1.7
-5 -7 -1 64.88 1.87
5 7 2 16.05 0.85
-5 -7 -2 15.69 0.93
5 7 3 269.8 3.38
-5 -7 -3 267.84 3.72
5 7 4 55.2 1.56
-5 -7 -4 53.65 1.66
-5 -7 -5 1.96 0.34
5 7 5 2.16 0.31
5 7 6 32.24 1.17
-5 -7 -6 29.51 1.22
5 7 7 78.39 1.81
-5 -7 -7 76.28 1.91
-5 -7 -8 1.69 0.31
5 7 8 1.47 0.26
5 7 9 107.87 2
-5 -7 -9 103.28 2.06
5 7 10 19.94 0.82
-5 -7 -10 19.44 0.82
5 7 11 10.18 0.55
5 7 12 2.45 0.24
5 7 13 7.62 0.36
-5 -8 4 4.41 0.32
5 8 -4 4.66 0.34
5 8 -3 11.11 0.58
5 8 -2 11.62 0.65
5 8 -1 0.74 0.19
5 8 0 39.08 1.26
5 8 1 4.55 0.45
5 8 2 7.03 0.54
5 8 3 13.83 0.76
-5 -8 -3 14.23 0.82
5 8 4 81.89 1.81
-5 -8 -4 81.91 1.94
5 8 5 25.67 1.03
-5 -8 -5 24.47 1.04
5 8 6 23.76 0.96
-5 -8 -6 21.54 0.95
5 8 7 2.94 0.34
-5 -8 -7 2.74 0.32
-5 -8 -8 0.36 0.15
5 8 8 0.27 0.13
5 8 9 1.6 0.23
5 8 10 0.16 0.09
5 8 11 6.74 0.38
5 8 12 0.28 0.07
5 9 -2 1.25 0.16
5 9 -1 0.21 0.1
5 9 0 5.82 0.4
5 9 1 4.04 0.35
5 9 2 6.78 0.47
5 9 3 8.69 0.53
5 9 4 7.48 0.48
5 9 5 1.64 0.23
5 9 6 17.99 0.71
5 9 7 2.55 0.27
5 9 8 16.7 0.63
5 9 9 41.57 0.92
5 9 10 1.7 0.17
5 10 4 -0.02 0.06
5 10 5 0.56 0.11
-6 4 1 8.04 0.4
-6 4 0 0.04 0.08
-6 4 -1 0.03 0.08
-6 4 -2 1.9 0.21
-6 4 -3 5.86 0.33
-6 3 5 0.4 0.18
-6 3 4 1.13 0.25
-6 3 3 4.33 0.45
-6 3 2 15.05 0.81
-6 3 2 12.55 0.62
-6 3 1 47.71 1.45
-6 3 1 46.89 1.29
-6 3 0 91.68 1.84
-6 3 -1 17.18 0.81
-6 3 -2 1.19 0.25
-6 3 -3 3.73 0.31
-6 3 -3 4.45 0.41
-6 3 -4 22.89 0.76
-6 3 -4 29.78 0.96
-6 3 -5 14.37 0.58
-6 3 -5 15.79 0.64
-6 3 -6 0.05 0.07
-6 3 -6 -0.09 0.09
-6 2 7 11.62 0.59
-6 2 6 3.4 0.38
-6 2 5 7.42 0.59
-6 2 4 3.33 0.44
-6 2 3 8.09 0.51
-6 2 3 8.26 0.69
-6 2 2 56.74 1.41
-6 2 2 54.61 1.48
-6 2 1 37.1 1.18
-6 2 1 39.46 1.47
-6 2 1 37.81 1.28
-6 2 0 70.4 1.94
-6 2 0 67.7 1.78
-6 2 -1 4.43 0.53
-6 2 -1 4.53 0.49
-6 2 -1 4.91 0.5
-6 2 -2 33.84 1.31
-6 2 -2 33.12 1.25
-6 2 -3 40.69 1.22
-6 2 -3 47.94 1.48
-6 2 -4 40.27 1.24
-6 2 -4 42.95 1.36
-6 2 -5 1.27 0.26
-6 2 -5 1.45 0.27
-6 2 -6 6.12 0.47
-6 2 -6 6.26 0.46
-6 2 -7 1.78 0.24
-6 2 -7 1.53 0.21
-6 2 -8 14.16 0.59
-6 2 -9 6.54 0.34
-6 1 9 12.48 0.51
-6 1 8 2.88 0.29
-6 1 7 5.67 0.45
-6 1 7 5.63 0.47
-6 1 6 14.72 0.78
-6 1 6 15.17 0.86
-6 1 5 8.06 0.6
-6 1 5 8.14 0.68
-6 1 4 11.05 0.73
-6 1 4 10.95 0.82
-6 1 3 64.65 1.75
-6 1 3 64.18 1.99
-6 1 2 13.19 0.95
-6 1 2 12.24 0.87
-6 1 2 11.46 0.7
-6 1 1 58.64 1.95
-6 1 1 54.63 1.39
-6 1 1 57.58 1.9
-6 1 1 54.98 1.57
-6 1 0 76.19 2.21
-6 1 0 74.01 2.1
-6 1 0 73.44 1.87
-6 1 -1 3.99 0.5
-6 1 -1 3.94 0.48
-6 1 -1 4.12 0.46
-6 1 -2 5.41 0.54
-6 1 -2 5.38 0.59
-6 1 -2 6.08 0.56
-6 1 -3 36.5 1.41
-6 1 -3 36.96 1.23
-6 1 -3 39.76 1.4
-6 1 -4 11.82 0.77
-6 1 -4 11.61 0.71
-6 1 -4 12.47 0.78
-6 1 -5 40.72 1.33
-6 1 -5 40.75 1.35
-6 1 -6 34.01 1.2
-6 1 -6 31.69 1.14
-6 1 -7 13.65 0.74
-6 1 -7 12.64 0.66
-6 1 -8 13.38 0.69
-6 1 -9 0.02 0.1
-6 1 -10 5.39 0.35
-6 0 9 0.2 0.08
-6 0 8 20.25 0.8
-6 0 7 0.24 0.13
-6 0 7 0.61 0.19
-6 0 6 4.92 0.46
-6 0 6 4.64 0.51
-6 0 5 18.65 0.93
-6 0 5 19.28 1.08
-6 0 4 57.83 1.85
-6 0 4 51.88 1.56
-6 0 4 55.59 1.89
-6 0 3 172.31 3.25
-6 0 3 163.66 2.73
-6 0 3 167.29 3.29
-6 0 2 1.35 0.31
-6 0 2 1.38 0.28
-6 0 2 1.47 0.34
-6 0 2 1.95 0.29
-6 0 1 5.38 0.6
-6 0 1 5.95 0.63
-6 0 1 5.46 0.49
-6 0 0 1.23 0.29
-6 0 0 1.11 0.26
-6 0 0 1.28 0.27
-6 0 -1 94.32 2.42
-6 0 -1 92.98 2.29
-6 0 -1 95.1 2.09
-6 0 -2 128.84 2.75
-6 0 -2 123.13 5.38
-6 0 -2 131.26 2.62
-6 0 -2 126.3 2.45
-6 0 -3 60.79 1.87
-6 0 -3 61.22 1.55
-6 0 -3 61.72 1.73
-6 0 -4 1.5 0.3
-6 0 -4 1.35 0.25
-6 0 -4 1.13 0.28
-6 0 -5 8.13 0.67
-6 0 -5 8.23 0.61
-6 0 -5 8.21 0.62
-6 0 -6 6.57 0.55
-6 0 -6 6.45 0.53
-6 0 -7 23.86 1.02
-6 0 -7 21.97 0.93
-6 0 -7 22.91 1.01
-6 0 -8 54.97 1.52
-6 0 -8 51.33 1.48
-6 0 -9 1.3 0.25
-6 0 -9 1.09 0.22
-6 0 -10 18.82 0.76
-6 0 -10 17.89 0.78
-6 0 -11 0.14 0.09
-6 0 -11 0 0.09
-6 -1 9 1.55 0.19
-6 -1 8 13.85 0.65
-6 -1 7 19.61 0.85
-6 -1 7 21.65 1.01
-6 -1 7 23.35 1.08
-6 -1 6 7.74 0.56
-6 -1 6 7.72 0.68
-6 -1 6 8.75 0.68
-6 -1 5 0.19 0.11
-6 -1 5 0.43 0.22
-6 -1 5 0.27 0.17
-6 -1 4 85.95 2.15
-6 -1 4 83.77 1.88
-6 -1 4 80.33 1.91
-6 -1 4 86.97 2.34
-6 -1 4 88.86 2.18
-6 -1 3 28.22 1.27
-6 -1 3 28.67 1.09
-6 -1 3 26.76 1.09
-6 -1 3 28.95 1.34
6 1 -2 39.63 2.73
-6 -1 2 43.18 1.57
-6 -1 2 43.28 1.31
-6 -1 2 40.11 1.3
-6 -1 2 40.47 3.34
-6 -1 2 42.72 1.62
-6 -1 1 241.72 3.8
-6 -1 1 239.37 3.08
-6 -1 1 234.83 3.14
-6 -1 1 238.84 3.74
-6 -1 0 7.65 0.68
-6 -1 0 7.1 0.54
-6 -1 0 7.53 0.67
-6 -1 0 6.53 1.24
-6 -1 -1 57.81 1.83
-6 -1 -1 56.03 1.56
-6 -1 -1 59 1.78
-6 -1 -2 156.23 2.99
-6 -1 -2 154.72 2.83
-6 -1 -2 155.6 2.61
-6 -1 -3 21.28 1.11
-6 -1 -3 21.9 0.9
-6 -1 -3 22.82 1
-6 -1 -4 30.79 1.29
-6 -1 -4 29.39 1.08
-6 -1 -4 29.77 1.16
-6 -1 -5 44.14 1.56
-6 -1 -5 45.91 1.39
-6 -1 -5 47.31 1.44
-6 -1 -6 0.34 0.17
-6 -1 -6 0.03 0.12
-6 -1 -6 0.57 0.2
-6 -1 -6 0.21 0.16
-6 -1 -7 1.16 0.26
-6 -1 -7 1.77 0.31
-6 -1 -7 1.25 0.25
-6 -1 -8 29.98 1.15
-6 -1 -8 28.95 1.21
-6 -1 -9 6.84 0.54
-6 -1 -9 6.72 0.57
-6 -1 -10 30.09 1.04
-6 -1 -10 30.6 1.15
-6 -1 -11 0.52 0.17
-6 -1 -11 0.3 0.15
-6 -1 -12 0.91 0.18
-6 -1 -12 0.9 0.14
-6 -2 9 44.63 1.22
-6 -2 8 11.5 0.72
-6 -2 7 0.54 0.19
-6 -2 7 0.11 0.13
-6 -2 6 23.33 1.15
-6 -2 6 25.02 1.18
-6 -2 5 53.61 1.79
-6 -2 5 53.35 1.72
-6 -2 4 161.47 2.74
-6 -2 4 165.5 3.16
-6 -2 4 164.08 2.95
-6 -2 3 37.97 1.38
-6 -2 3 37.25 1.3
-6 -2 3 37.64 1.52
-6 -2 3 36.9 1.38
6 2 -2 59.23 3.41
-6 -2 2 59.99 1.75
-6 -2 2 59.16 1.62
-6 -2 2 55.92 3.76
-6 -2 2 60.08 1.86
-6 -2 2 60.21 1.71
-6 -2 1 4.26 0.51
6 2 -1 3.78 0.88
-6 -2 1 4.27 0.5
-6 -2 1 4.96 1.1
-6 -2 1 4.41 0.44
6 2 0 19.25 1.82
-6 -2 0 20.2 1.05
-6 -2 0 21.11 1.06
6 2 1 221.95 6.08
-6 -2 -1 220.82 3.44
-6 -2 -1 214.57 3.28
6 2 2 312.58 6.93
-6 -2 -2 312 3.88
-6 -2 -2 307.15 8.28
6 2 3 2.15 0.59
-6 -2 -3 2.51 0.31
-6 -2 -3 2.49 0.74
-6 -2 -4 0.36 0.13
-6 -2 -4 0.41 0.18
-6 -2 -4 0.4 0.24
-6 -2 -5 7.72 0.57
-6 -2 -5 7.28 1.21
-6 -2 -5 8.07 0.62
-6 -2 -6 40.66 1.32
-6 -2 -6 41.98 1.43
-6 -2 -7 507.2 4.75
-6 -2 -7 509.68 5.1
-6 -2 -8 10.56 0.69
-6 -2 -8 11.25 0.76
-6 -2 -9 86.63 1.92
-6 -2 -9 83.99 2.09
-6 -2 -10 1.9 0.32
-6 -2 -10 1.8 0.3
-6 -2 -11 5.39 0.43
-6 -2 -11 5.75 0.5
-6 -2 -12 2.1 0.28
-6 -2 -12 1.86 0.23
-6 -2 -13 0.47 0.12
-6 -3 9 1.99 0.26
-6 -3 8 37.62 1.23
-6 -3 7 1.44 0.26
-6 -3 7 1.87 0.31
-6 -3 6 1.5 0.28
-6 -3 6 1.64 0.31
-6 -3 5 19.92 1.09
-6 -3 5 17.33 0.98
-6 -3 4 400.08 4.33
-6 -3 4 401.5 4.88
-6 -3 3 120.79 2.36
-6 -3 3 120.77 2.66
-6 -3 3 116.22 2.39
6 3 -2 178.64 5.95
-6 -3 2 180.8 2.86
-6 -3 2 175.34 3.18
-6 -3 2 179 2.87
6 3 -1 10.53 1.41
-6 -3 1 10.86 0.72
-6 -3 1 11.81 0.8
6 3 0 10.7 1.36
-6 -3 0 10.46 0.72
-6 -3 0 10.09 0.73
-6 -3 0 9.38 1.49
6 3 1 3.47 0.74
-6 -3 -1 3.25 0.41
-6 -3 -1 2.73 0.83
6 3 2 83.15 3.72
-6 -3 -2 75.52 1.87
-6 -3 -2 73.68 4.07
6 3 3 90.63 3.91
-6 -3 -3 87.84 1.77
-6 -3 -3 94.05 2.03
-6 -3 -3 95.08 4.58
-6 -3 -3 92.35 1.99
6 3 4 10.91 1.38
-6 -3 -4 9.91 0.62
-6 -3 -4 10.93 1.54
-6 -3 -4 10.89 0.72
6 3 5 90.23 4
-6 -3 -5 96.41 1.96
-6 -3 -5 92.64 4.52
-6 -3 -5 97.86 2.15
6 3 6 23.35 2.06
-6 -3 -6 23.76 1
-6 -3 -6 21.16 2.17
-6 -3 -6 23.89 1.09
-6 -3 -7 200.09 2.96
-6 -3 -7 200.99 3.22
-6 -3 -8 22.66 1.02
-6 -3 -8 21.49 1.07
-6 -3 -9 71.51 1.78
-6 -3 -9 72.46 1.93
-6 -3 -10 3.86 0.41
-6 -3 -10 3.95 0.46
-6 -3 -11 1.34 0.27
-6 -3 -11 0.98 0.2
-6 -3 -12 31.9 1.08
-6 -3 -13 17.56 0.69
-6 -4 9 12.88 0.54
-6 -4 8 7.56 0.51
-6 -4 7 24.8 1.01
-6 -4 6 0.62 0.23
-6 -4 6 -0.02 0.15
-6 -4 5 81.71 2.12
-6 -4 5 79.5 1.99
-6 -4 4 247.85 3.38
-6 -4 4 248.12 3.78
-6 -4 4 237.6 3.4
-6 -4 3 124.17 2.4
-6 -4 3 125.82 2.72
-6 -4 3 123.79 2.4
-6 -4 2 34.46 1.25
-6 -4 2 37.91 1.49
-6 -4 1 1.29 0.25
-6 -4 1 1.22 0.29
6 4 0 49.69 3.03
-6 -4 0 51.54 1.67
-6 -4 0 48.76 3.32
-6 -4 0 51.19 1.45
6 4 1 419.17 8.84
-6 -4 -1 420.72 4.65
-6 -4 -1 419.2 9.71
-6 -4 -1 419.94 4.24
6 4 2 33.53 2.42
-6 -4 -2 32.12 1.25
-6 -4 -2 33.2 2.76
-6 -4 -2 31.66 1.21
6 4 3 39.67 2.65
-6 -4 -3 36.7 1.29
-6 -4 -3 38.87 3
-6 -4 -3 37.73 1.31
6 4 4 47.23 2.95
-6 -4 -4 49.55 1.38
-6 -4 -4 48.2 3.36
-6 -4 -4 50.37 1.56
6 4 5 4.2 0.91
-6 -4 -5 4.11 0.43
-6 -4 -5 4.3 1.05
-6 -4 -5 4.71 0.49
6 4 6 52.36 3.21
-6 -4 -6 54.5 1.52
-6 -4 -6 54.88 1.68
-6 -4 -7 28.32 1.12
-6 -4 -7 28.16 1.23
-6 -4 -8 36.19 1.28
-6 -4 -8 36.49 1.4
-6 -4 -9 19.77 0.93
-6 -4 -9 20.11 1.02
-6 -4 -10 3.68 0.43
-6 -4 -11 9.22 0.65
-6 -4 -12 5.03 0.43
-6 -4 -13 0.38 0.13
-6 -5 8 2.61 0.25
-6 -5 7 0.83 0.18
-6 -5 6 0.24 0.12
-6 -5 6 0.22 0.15
-6 -5 5 12.16 0.78
-6 -5 5 10.8 0.67
-6 -5 4 4.45 0.51
-6 -5 4 4.49 0.44
-6 -5 3 64.31 1.67
-6 -5 3 66.44 1.98
-6 -5 2 30.93 1.15
-6 -5 2 34.15 1.45
-6 -5 1 0.25 0.14
-6 -5 1 0.17 0.14
-6 -5 0 10.74 1.52
-6 -5 0 12.68 0.79
-6 -5 -1 0.55 0.19
6 5 1 1.36 0.57
-6 -5 -1 1.01 0.58
6 5 2 152.86 5.31
-6 -5 -2 152.03 6
-6 -5 -2 159.28 2.77
6 5 3 10.21 1.4
-6 -5 -3 11 1.65
-6 -5 -3 10.56 0.72
6 5 4 127.76 4.94
-6 -5 -4 134.79 2.6
6 5 5 3.49 0.83
-6 -5 -5 3.82 0.46
-6 -5 -6 118.98 2.51
-6 -5 -7 12.11 0.81
-6 -5 -8 40.78 1.45
-6 -5 -9 132.07 2.58
-6 -5 -10 7.25 0.6
-6 -5 -11 0.25 0.16
-6 -5 -12 55.24 1.36
-6 -5 -13 4.84 0.34
-6 -6 6 40.35 1.03
-6 -6 5 42.8 1.28
-6 -6 4 1.12 0.26
-6 -6 3 17.71 1.01
-6 -6 2 30.11 1.05
-6 -6 1 0.54 0.18
-6 -6 0 68.95 1.63
-6 -6 0 71.23 1.94
-6 -6 -1 120.71 2.18
-6 -6 -1 126.54 2.52
-6 -6 -2 0.49 0.2
-6 -6 -3 0.97 0.24
-6 -6 -4 0.53 0.19
-6 -6 -5 40.22 1.46
-6 -6 -6 5.35 0.55
6 6 7 12.52 0.67
-6 -6 -7 11.74 0.79
6 6 8 9.86 0.59
-6 -6 -8 10.23 0.72
6 6 9 11.16 0.6
-6 -6 -9 10.9 0.72
-6 -6 -10 0.04 0.11
6 6 10 0.16 0.1
6 6 11 6.63 0.41
-6 -6 -11 7.39 0.52
6 6 12 4.14 0.29
-6 -6 -12 4.82 0.37
-6 -6 -13 1.79 0.18
-6 -7 5 0.13 0.09
-6 -7 4 5.65 0.44
-6 -7 3 19.26 0.92
6 7 -2 10.1 0.6
6 7 -1 2.74 0.34
6 7 0 0.51 0.19
6 7 1 17.28 0.84
-6 -7 -1 18.06 0.98
6 7 2 4.77 0.44
-6 -7 -2 4.35 0.48
-6 -7 -3 0.05 0.16
6 7 3 0.27 0.14
6 7 4 17.01 0.81
-6 -7 -4 17.03 0.95
6 7 5 9.7 0.61
-6 -7 -5 9.5 0.7
6 7 6 93.41 1.88
-6 -7 -6 97.86 2.18
6 7 7 52.27 1.36
-6 -7 -7 52.37 1.57
6 7 8 49.26 1.29
-6 -7 -8 51.02 1.51
6 7 9 3.09 0.31
-6 -7 -9 2.99 0.36
-6 -7 -10 0.57 0.16
6 7 10 0.62 0.14
6 7 11 11.12 0.5
-6 -7 -11 10.77 0.54
6 7 12 7.52 0.35
-6 -8 3 2.28 0.26
6 8 -3 2.06 0.21
6 8 -2 1.96 0.24
6 8 -1 22.86 0.83
6 8 0 27.4 0.95
6 8 1 6.73 0.5
6 8 2 1.48 0.25
6 8 3 19.31 0.83
-6 -8 -3 20.16 0.96
6 8 4 56.25 1.42
-6 -8 -4 56.37 1.58
6 8 5 13.21 0.68
-6 -8 -5 13.38 0.76
6 8 6 55.34 1.35
-6 -8 -6 56.12 1.51
6 8 7 8.96 0.53
-6 -8 -7 9.63 0.6
-6 -8 -8 0.14 0.11
6 8 8 0.21 0.1
6 8 9 4.3 0.33
-6 -8 -9 4.47 0.36
-6 -8 -10 0.16 0.08
6 8 10 0.43 0.1
6 8 11 6.54 0.32
-6 -9 1 0.74 0.14
6 9 0 2 0.21
6 9 1 6.04 0.38
6 9 2 5.09 0.36
6 9 3 0.22 0.11
6 9 4 2.71 0.27
6 9 5 11.06 0.53
6 9 6 4.39 0.33
6 9 7 22.12 0.69
6 9 8 2.24 0.21
6 9 9 0.07 0.06
-7 2 5 0.68 0.15
-7 2 4 0.14 0.1
-7 2 3 1.77 0.27
-7 2 2 8.3 0.55
-7 2 1 62 1.5
-7 2 0 40.54 1.2
-7 2 0 40.65 1.12
-7 2 -1 10.97 0.61
-7 2 -2 13.44 0.66
-7 2 -3 1.53 0.24
-7 2 -4 0.5 0.16
-7 2 -5 0.09 0.06
-7 1 6 3.02 0.3
-7 1 5 17.26 0.8
-7 1 4 7.21 0.57
-7 1 3 9.88 0.69
-7 1 2 41.92 1.44
-7 1 1 16.33 0.9
-7 1 0 4.64 0.52
-7 1 0 4.62 0.47
-7 1 0 4.28 0.42
-7 1 -1 0.77 0.25
-7 1 -1 0.57 0.2
-7 1 -1 0.93 0.26
-7 1 -2 6.29 0.57
-7 1 -2 6.08 0.5
-7 1 -2 6.25 0.53
-7 1 -3 20.8 0.98
-7 1 -3 24.32 1.01
-7 1 -4 83.46 1.77
-7 1 -4 87.1 1.6
-7 1 -5 23.02 0.83
-7 1 -5 25.09 0.94
-7 1 -6 0.01 0.09
-7 1 -7 0.14 0.1
-7 1 -8 15.7 0.56
-7 0 7 45.08 1.05
-7 0 6 0.27 0.1
-7 0 5 9.55 0.67
-7 0 4 13.84 0.87
-7 0 3 0.81 0.27
-7 0 2 1.3 0.34
-7 0 2 0.98 0.3
-7 0 1 0.51 0.27
-7 0 1 0.43 0.21
-7 0 0 27.6 1.34
-7 0 0 28.73 1.14
-7 0 0 28.84 1.28
-7 0 -1 10.82 0.83
-7 0 -1 11.44 0.79
-7 0 -1 10.8 0.72
-7 0 -2 20.83 1.12
-7 0 -2 20.07 1.01
-7 0 -2 21.15 1.01
-7 0 -3 24.67 1.18
-7 0 -3 24.68 1.09
-7 0 -4 0.91 0.26
-7 0 -4 0.52 0.18
-7 0 -4 0.7 0.25
-7 0 -5 2.32 0.34
-7 0 -5 2.1 0.28
-7 0 -5 2.58 0.35
-7 0 -6 53.63 1.39
-7 0 -7 14.62 0.71
-7 0 -8 10.88 0.58
-7 0 -9 8.87 0.48
-7 0 -10 0.29 0.09
-7 -1 7 3.59 0.34
-7 -1 6 0.23 0.14
-7 -1 5 28.71 0.95
-7 -1 5 30.28 1.26
-7 -1 4 -0.1 0.17
-7 -1 3 93.09 2.31
-7 -1 3 95.29 2.44
-7 -1 2 44.27 1.66
-7 -1 2 40.56 1.29
-7 -1 2 45.48 1.69
-7 -1 1 0.23 0.17
-7 -1 1 0.55 0.18
-7 -1 1 0.19 0.17
-7 -1 0 2.24 0.41
-7 -1 0 2.17 0.31
-7 -1 0 2.17 0.38
-7 -1 -1 82.81 2.31
-7 -1 -1 82.64 2.2
-7 -1 -2 0.76 0.28
-7 -1 -2 0.43 0.22
-7 -1 -3 100.08 2.45
-7 -1 -4 235.1 3.67
-7 -1 -4 232.65 3
-7 -1 -5 5.31 0.54
-7 -1 -5 5.55 0.48
-7 -1 -6 18.07 0.95
-7 -1 -6 19.74 0.9
-7 -1 -7 22.71 0.97
-7 -1 -7 24.28 0.98
-7 -1 -8 2.09 0.29
-7 -1 -8 1.88 0.28
-7 -1 -9 12.9 0.65
-7 -1 -9 11.71 0.61
-7 -1 -10 6.72 0.42
-7 -1 -10 5.41 0.37
-7 -1 -11 0.64 0.12
-7 -2 7 17.88 0.74
-7 -2 6 12.75 0.75
-7 -2 5 1.68 0.32
-7 -2 4 10.33 0.8
-7 -2 3 1.43 0.28
-7 -2 3 1.55 0.29
-7 -2 3 1.82 0.35
-7 -2 2 0.8 0.24
-7 -2 2 1.11 0.26
-7 -2 2 0.44 0.17
-7 -2 1 7.57 0.7
-7 -2 1 7.86 0.62
-7 -2 1 7.97 0.72
-7 -2 0 32.92 1.46
-7 -2 0 33.25 1.27
-7 -2 0 32.37 1.4
-7 -2 -1 13.02 0.91
-7 -2 -1 12.3 0.84
-7 -2 -2 28.31 1.36
-7 -2 -2 26.93 1.22
-7 -2 -3 47.22 1.71
-7 -2 -3 46.03 1.54
-7 -2 -4 18.04 1.06
-7 -2 -4 17.02 0.82
-7 -2 -5 63.49 1.94
-7 -2 -5 63.28 1.62
-7 -2 -6 18.97 1.03
-7 -2 -6 19.07 0.89
-7 -2 -6 21.3 0.99
-7 -2 -7 0.31 0.15
-7 -2 -7 0 0.14
-7 -2 -7 0.22 0.16
-7 -2 -8 8.81 0.62
-7 -2 -8 9.65 0.63
-7 -2 -8 9.77 0.66
-7 -2 -9 86.61 1.78
-7 -2 -9 82.73 1.82
-7 -2 -10 24.04 0.86
-7 -2 -10 22.72 0.89
-7 -2 -11 1.3 0.2
-7 -2 -11 1.66 0.21
-7 -2 -12 1.98 0.2
-7 -3 7 0.43 0.14
-7 -3 6 14.11 0.78
-7 -3 6 14.78 0.76
-7 -3 5 5.53 0.54
-7 -3 5 5.53 0.5
-7 -3 4 6.76 0.64
-7 -3 4 6.15 0.54
-7 -3 3 51.19 1.57
-7 -3 3 52.61 1.79
-7 -3 2 86.47 2.06
-7 -3 2 89.35 2.1
-7 -3 2 91.1 2.37
-7 -3 1 90.35 2.23
-7 -3 1 93.68 2.17
-7 -3 1 96.28 2.42
-7 -3 0 14.21 0.92
-7 -3 0 13.5 0.9
-7 -3 -1 27.49 1.29
-7 -3 -1 25.79 1.22
-7 -3 -2 57.88 1.89
-7 -3 -2 54.94 1.74
-7 -3 -3 229.86 3.41
-7 -3 -4 75.78 1.72
-7 -3 -5 8.33 0.59
-7 -3 -5 8.36 0.63
-7 -3 -6 64.26 1.65
-7 -3 -6 64.39 1.78
-7 -3 -7 39.23 1.29
-7 -3 -7 39.4 1.4
-7 -3 -8 0.13 0.15
-7 -3 -8 -0.04 0.14
-7 -3 -9 1.71 0.29
-7 -3 -9 1.69 0.28
-7 -3 -10 49.59 1.28
-7 -3 -10 48.74 1.4
-7 -3 -11 12.1 0.64
-7 -3 -12 1.22 0.19
-7 -4 7 0.47 0.12
-7 -4 6 3.08 0.34
-7 -4 6 3.1 0.32
-7 -4 5 12.56 0.78
-7 -4 5 12.38 0.68
-7 -4 4 0.68 0.24
-7 -4 4 0.69 0.19
-7 -4 3 8.26 0.65
-7 -4 3 7.7 0.7
-7 -4 2 63.27 1.74
-7 -4 2 64.34 1.96
-7 -4 1 19.93 0.99
-7 -4 1 19.39 1.1
-7 -4 0 17.14 0.95
-7 -4 0 16.83 0.93
-7 -4 0 16.71 1
-7 -4 -1 75.77 2.07
-7 -4 -1 72.74 2.03
-7 -4 -2 35.12 1.38
-7 -4 -3 90.96 2.16
-7 -4 -3 94.44 2.1
-7 -4 -4 25.6 1.11
-7 -4 -5 100.13 2.24
-7 -4 -6 0.29 0.17
-7 -4 -6 0.18 0.12
-7 -4 -7 49.42 1.44
-7 -4 -7 49.91 1.59
-7 -4 -8 26.81 1.08
-7 -4 -8 26.97 1.15
-7 -4 -9 1.19 0.27
-7 -4 -10 -0.01 0.11
-7 -4 -11 2.49 0.31
-7 -4 -12 0.1 0.1
-7 -5 6 4.36 0.35
-7 -5 6 3.86 0.29
-7 -5 5 21.34 0.92
-7 -5 4 24.82 1.11
-7 -5 3 19.76 1.05
-7 -5 2 12.87 0.78
-7 -5 2 12.5 0.88
-7 -5 1 16.64 0.88
-7 -5 1 15.88 0.99
-7 -5 0 13.3 0.8
-7 -5 0 13.94 0.91
-7 -5 0 12.69 0.74
-7 -5 -1 46.47 1.63
-7 -5 -1 46.33 1.43
-7 -5 -2 137.32 2.74
-7 -5 -2 137.7 2.54
-7 -5 -3 42.03 1.47
-7 -5 -3 41.56 1.43
-7 -5 -4 18.08 0.96
-7 -5 -5 138.76 2.66
-7 -5 -6 33.69 1.32
-7 -5 -7 3.34 0.42
-7 -5 -8 22.7 1.05
-7 -5 -9 14.07 0.81
-7 -5 -10 3.3 0.37
-7 -5 -11 0.08 0.11
-7 -5 -12 0.05 0.08
-7 -6 5 9.29 0.51
-7 -6 4 8.33 0.57
-7 -6 3 0.36 0.2
-7 -6 2 10.32 0.75
-7 -6 1 0.57 0.18
-7 -6 1 0.11 0.15
-7 -6 0 42.42 1.31
-7 -6 0 44.46 1.4
-7 -6 -1 42.05 1.32
-7 -6 -1 45.94 1.6
-7 -6 -1 43.22 1.41
-7 -6 -2 39.94 1.46
-7 -6 -2 37.52 1.33
-7 -6 -3 43.98 1.48
-7 -6 -3 41.55 1.44
-7 -6 -4 59.51 1.64
-7 -6 -4 59.28 1.72
-7 -6 -5 5.9 0.54
-7 -6 -6 40.74 1.42
-7 -6 -7 54.94 1.63
-7 -6 -8 2.42 0.35
-7 -6 -9 1.78 0.27
-7 -6 -10 3.81 0.37
-7 -6 -11 7.75 0.47
-7 -6 -12 10.54 0.47
-7 -7 4 3.94 0.31
-7 -7 3 0.06 0.1
-7 -7 2 36.75 1.22
-7 -7 1 1.2 0.26
-7 -7 0 0.86 0.27
-7 -7 -1 115.67 2.37
-7 -7 -1 112.97 2.24
-7 -7 -2 44.55 1.47
-7 -7 -2 46.34 1.43
-7 -7 -3 1.93 0.32
-7 -7 -3 1.5 0.27
-7 -7 -4 60.63 1.57
-7 -7 -4 65.91 1.74
-7 -7 -5 6.71 0.56
-7 -7 -6 1.45 0.26
-7 -7 -7 0.12 0.14
-7 -7 -8 23.51 0.95
-7 -7 -9 0.84 0.19
-7 -7 -10 9.28 0.51
-7 -7 -11 0.26 0.1
-7 -8 2 0.27 0.12
-7 -8 1 2.95 0.31
-7 -8 0 24.16 0.92
-7 -8 -1 53.42 1.4
-7 -8 -2 11.24 0.65
-7 -8 -3 9.68 0.59
-7 -8 -3 11.46 0.66
-7 -8 -4 4.34 0.37
-7 -8 -4 6.18 0.49
-7 -8 -5 3.36 0.36
-7 -8 -6 157.31 2.34
-7 -8 -7 0.53 0.17
-7 -8 -8 1.95 0.24
-7 -8 -9 4.34 0.32
-7 -8 -10 0.93 0.13
-7 -9 -1 18.28 0.6
-7 -9 -2 6.87 0.38
-7 -9 -3 11.84 0.48
-8 1 3 0.01 0.08
-8 1 2 0.51 0.13
-8 1 1 1.28 0.19
-8 1 0 0.22 0.1
-8 0 4 1.34 0.21
-8 0 3 34.73 1.08
-8 0 2 7.03 0.52
-8 0 1 6.8 0.51
-8 0 0 1.78 0.31
-8 0 0 1.41 0.24
-8 0 -1 3.68 0.42
-8 0 -1 3.03 0.33
-8 0 -2 1.09 0.25
-8 0 -2 0.77 0.17
-8 0 -3 13.15 0.72
-8 0 -4 0.91 0.19
-8 0 -5 7.3 0.44
-8 0 -6 0.25 0.08
-8 -1 5 5.8 0.41
-8 -1 4 1.03 0.23
-8 -1 3 4.93 0.47
-8 -1 2 0.07 0.13
-8 -1 1 0.31 0.21
-8 -1 1 0.17 0.17
-8 -1 0 3.14 0.44
-8 -1 0 2.81 0.37
-8 -1 -1 3.46 0.47
-8 -1 -1 2.83 0.37
-8 -1 -2 3.52 0.46
-8 -1 -2 3.13 0.38
-8 -1 -3 2.91 0.42
-8 -1 -4 1.79 0.31
-8 -1 -5 8.54 0.6
-8 -1 -5 8.89 0.48
-8 -1 -6 0.13 0.11
-8 -1 -6 0.1 0.11
-8 -1 -7 0.83 0.16
-8 -1 -8 0.17 0.09
-8 -1 -9 0.21 0.08
-8 -2 5 -0.05 0.11
-8 -2 4 24.04 1
-8 -2 3 21.58 1.02
-8 -2 2 8.31 0.63
-8 -2 2 8.2 0.54
-8 -2 2 8.83 0.68
-8 -2 1 12.8 0.82
-8 -2 1 11.81 0.66
-8 -2 1 12.16 0.82
-8 -2 0 8.71 0.71
-8 -2 0 7.44 0.53
-8 -2 0 7.88 0.65
-8 -2 -1 0.26 0.19
-8 -2 -1 0.3 0.16
-8 -2 -1 0.18 0.13
-8 -2 -2 44.25 1.61
-8 -2 -2 41.68 1.29
-8 -2 -2 39.82 1.38
-8 -2 -3 6.3 0.6
-8 -2 -4 80.23 2.09
-8 -2 -5 1.1 0.27
-8 -2 -5 1.1 0.2
-8 -2 -6 2.22 0.32
-8 -2 -6 2.21 0.27
-8 -2 -7 0.68 0.18
-8 -2 -7 0.97 0.19
-8 -2 -8 15.39 0.66
-8 -2 -8 17.24 0.71
-8 -2 -9 14.42 0.58
-8 -3 5 4.69 0.41
-8 -3 4 2.79 0.37
-8 -3 3 11.03 0.75
-8 -3 2 18.82 0.87
-8 -3 2 21.17 0.91
-8 -3 2 20.44 1.06
-8 -3 1 1.93 0.32
-8 -3 1 1.57 0.27
-8 -3 1 2.07 0.38
-8 -3 0 0.16 0.18
-8 -3 0 0.04 0.15
-8 -3 0 0.16 0.17
-8 -3 -1 3.6 0.47
-8 -3 -1 3.46 0.42
-8 -3 -1 3.55 0.47
-8 -3 -2 5.02 0.56
-8 -3 -2 5.01 0.52
-8 -3 -3 4.38 0.52
-8 -3 -3 4.3 0.45
-8 -3 -4 18.05 1.02
-8 -3 -5 0.63 0.21
-8 -3 -6 1.98 0.34
-8 -3 -6 1.44 0.22
-8 -3 -7 2.69 0.37
-8 -3 -7 2.87 0.31
-8 -3 -7 2.99 0.33
-8 -3 -8 2.93 0.34
-8 -3 -8 3.09 0.33
-8 -3 -8 3.26 0.32
-8 -3 -9 50.08 1.2
-8 -3 -9 52.87 1.21
-8 -3 -10 4.58 0.32
-8 -4 5 8.47 0.52
-8 -4 4 32.99 1.15
-8 -4 3 6.98 0.58
-8 -4 2 171.06 2.62
-8 -4 2 170.49 3
-8 -4 1 72.94 1.77
-8 -4 1 72.02 1.97
-8 -4 0 2.66 0.39
-8 -4 0 2.24 0.36
-8 -4 0 2.27 0.38
-8 -4 -1 62.81 1.81
-8 -4 -1 64.56 1.75
-8 -4 -1 59.52 1.78
-8 -4 -2 6.67 0.63
-8 -4 -2 6.54 0.59
-8 -4 -3 18.04 1.03
-8 -4 -3 17.53 0.91
-8 -4 -4 21.3 1.12
-8 -4 -5 9.67 0.62
-8 -4 -6 1.47 0.25
-8 -4 -7 0.98 0.21
-8 -4 -8 2.4 0.33
-8 -4 -8 2.7 0.32
-8 -4 -9 2.49 0.31
-8 -4 -9 2.66 0.3
-8 -4 -10 4.22 0.34
-8 -4 -10 5.4 0.38
-8 -4 -11 0.13 0.08
-8 -5 5 7.06 0.41
-8 -5 4 0.24 0.13
-8 -5 3 1.94 0.3
-8 -5 2 0.67 0.2
-8 -5 2 0.71 0.2
-8 -5 1 8.44 0.59
-8 -5 1 8.79 0.68
-8 -5 0 4.66 0.47
-8 -5 0 4.95 0.52
-8 -5 -1 19.01 0.91
-8 -5 -1 20.01 0.94
-8 -5 -1 18.03 0.96
-8 -5 -2 0.82 0.21
-8 -5 -2 0.82 0.22
-8 -5 -3 62.04 1.82
-8 -5 -3 59.33 1.66
-8 -5 -3 59 1.52
-8 -5 -4 0.44 0.16
-8 -5 -5 10.39 0.67
-8 -5 -6 11.11 0.67
-8 -5 -7 0.76 0.2
-8 -5 -8 3.45 0.37
-8 -5 -9 9.26 0.56
-8 -5 -10 0.11 0.1
-8 -5 -11 5.61 0.35
-8 -6 4 0.38 0.12
-8 -6 3 3.27 0.34
-8 -6 2 2.6 0.33
-8 -6 1 7.86 0.5
-8 -6 1 9.77 0.65
-8 -6 0 1.28 0.22
-8 -6 0 1.09 0.23
-8 -6 -1 18.4 0.82
-8 -6 -1 18.32 0.92
-8 -6 -1 18.63 0.79
-8 -6 -2 0.07 0.13
-8 -6 -2 0.03 0.12
-8 -6 -2 -0.01 0.12
-8 -6 -3 10.36 0.67
-8 -6 -3 9.51 0.63
-8 -6 -3 10.86 0.65
-8 -6 -4 0.38 0.17
-8 -6 -5 10.16 0.64
-8 -6 -6 0.89 0.22
-8 -6 -7 3.28 0.36
-8 -6 -8 0.2 0.13
-8 -6 -9 1.2 0.21
-8 -6 -10 0.11 0.07
-8 -6 -11 2.09 0.2
-8 -7 2 0.02 0.08
-8 -7 1 0.51 0.15
-8 -7 0 0.76 0.17
-8 -7 -1 12.02 0.53
-8 -7 -1 11.68 0.67
-8 -7 -2 18.53 0.69
-8 -7 -2 18.58 0.83
-8 -7 -2 19.05 0.8
-8 -7 -3 30.64 0.91
-8 -7 -3 30.27 1.01
-8 -7 -3 32.36 1.04
-8 -7 -4 2.32 0.26
-8 -7 -4 2.59 0.31
-8 -7 -5 2.09 0.28
-8 -7 -6 0.57 0.17
-8 -7 -7 0.5 0.14
-8 -7 -8 9.86 0.53
-8 -7 -9 0.54 0.13
-8 -7 -10 0.43 0.1
-8 -8 0 6.96 0.4
-8 -8 -1 1.03 0.18
-8 -8 -2 -0.09 0.1
-8 -8 -3 0.83 0.15
-8 -8 -4 3.52 0.31
-8 -8 -5 1.96 0.23
-8 -8 -6 2.08 0.24
-8 -8 -7 0.34 0.12
-8 -8 -8 11.31 0.47
-9 -1 -3 3 0.28
-9 -2 2 3.88 0.33
-9 -2 1 0.17 0.1
-9 -2 0 6.79 0.48
-9 -2 0 5.83 0.42
-9 -2 -1 14.77 0.74
-9 -2 -1 11.28 0.56
-9 -2 -2 0.05 0.13
-9 -2 -3 0.19 0.12
-9 -2 -4 3.69 0.36
-9 -2 -5 2.07 0.26
-9 -2 -6 -0.1 0.09
-9 -3 3 9.17 0.49
-9 -3 2 5.77 0.43
-9 -3 1 0.33 0.15
-9 -3 0 0.55 0.16
-9 -3 0 0.35 0.11
-9 -3 0 0.28 0.1
-9 -3 -1 4.31 0.41
-9 -3 -1 4.18 0.34
-9 -3 -1 4.04 0.38
-9 -3 -2 1.08 0.23
-9 -3 -2 1.05 0.2
-9 -3 -2 1.2 0.2
-9 -3 -3 0.4 0.17
-9 -3 -3 0.35 0.12
-9 -3 -4 -0.01 0.12
-9 -3 -4 0.01 0.08
-9 -3 -5 0.99 0.21
-9 -3 -5 0.94 0.17
-9 -3 -6 25.96 0.91
-9 -3 -7 11.41 0.54
-9 -4 3 2.4 0.25
-9 -4 2 16.76 0.73
-9 -4 1 1.05 0.2
-9 -4 0 0.46 0.16
-9 -4 0 0.5 0.15
-9 -4 0 0.35 0.16
-9 -4 -1 70.6 1.59
-9 -4 -1 71.59 1.5
-9 -4 -2 20.51 0.91
-9 -4 -2 20.25 0.81
-9 -4 -2 17.94 0.78
-9 -4 -3 0.17 0.15
-9 -4 -3 0.28 0.13
-9 -4 -4 0.43 0.16
-9 -4 -4 0.36 0.14
-9 -4 -5 0.56 0.17
-9 -4 -6 0.7 0.19
-9 -4 -7 4.99 0.4
-9 -4 -8 2.03 0.23
-9 -5 2 -0.12 0.09
-9 -5 1 1.11 0.21
-9 -5 0 2.47 0.27
-9 -5 0 2.23 0.29
-9 -5 -1 6.07 0.44
-9 -5 -1 5.83 0.46
-9 -5 -2 15.95 0.73
-9 -5 -2 14.27 0.68
-9 -5 -3 0.23 0.13
-9 -5 -3 0.2 0.14
-9 -5 -4 0.78 0.2
-9 -5 -4 0.7 0.17
-9 -5 -5 5.99 0.49
-9 -5 -6 56.9 1.44
-9 -5 -7 0.94 0.15
-9 -5 -7 0.98 0.19
-9 -5 -8 2.99 0.29
-9 -6 1 3.25 0.29
-9 -6 0 6.15 0.42
-9 -6 -1 0.2 0.12
-9 -6 -1 0.37 0.13
-9 -6 -2 1.94 0.24
-9 -6 -2 1.54 0.22
-9 -6 -3 0.73 0.16
-9 -6 -3 0.77 0.15
-9 -6 -4 0.06 0.1
-9 -6 -4 0.21 0.12
-9 -6 -5 0.8 0.14
-9 -6 -5 0.66 0.17
-9 -6 -5 0.84 0.18
-9 -6 -6 10.68 0.57
-9 -6 -6 9.81 0.46
-9 -6 -7 0.47 0.11
-9 -6 -7 0.52 0.13
-9 -6 -8 0.13 0.07
-9 -7 -3 3.15 0.23
-9 -7 -4 2.02 0.2
-9 -7 -5 15.25 0.5
-9 -7 -5 15.41 0.53
-9 -7 -6 1.03 0.14
-9 -7 -6 0.92 0.15
-9 -7 -6 0.88 0.13
